@<TRIPOS>MOLECULE
mol
130 142
SMALL
USER_CHARGES


@<TRIPOS>ATOM
1 C3 -8.962372969 -3.169767845 -0.319371215 C.Trigonal 0.0 **** 0.0
2 C7 -8.277717334 -4.280498937 0.207516919 C 0.0 **** 0.0
3 C10 -6.887320517 -4.207298407 0.422559752 C.Trigonal 0.0 **** 0.0
4 C13 -6.199237703 -3.028046648 0.128267129 C.Trigonal 0.0 **** 0.0
5 C16 -6.886618172 -1.893604437 -0.348189127 C 0.0 **** 0.0
6 C19 -8.276939611 -1.957010543 -0.551956661 C 0.0 **** 0.0
7 C21 -4.714126179 -2.926113033 0.316942957 C 0.0 **** 0.0
8 C25 -3.988993576 -4.184384108 0.694489313 C.Trigonal 0.0 **** 0.0
9 C28 -4.656456006 -5.347784359 1.005988853 C.Trigonal 0.0 **** 0.0
10 C31 -6.161414504 -5.409910049 0.973411125 C 0.0 **** 0.0
11 C34 -3.926224544 -6.540147159 1.334551961 C 0.0 **** 0.0
12 C37 -2.535774003 -6.566542872 1.29548978 C 0.0 **** 0.0
13 C40 -1.823062581 -5.345650646 1.033671073 C.Trigonal 0.0 **** 0.0
14 C43 -2.560915756 -4.148245438 0.728008983 C.Trigonal 0.0 **** 0.0
15 C45 -1.895526473 -2.931053757 0.517079219 C 0.0 **** 0.0
16 C48 -0.506397899 -2.835771135 0.45308102 C.Trigonal 0.0 **** 0.0
17 C51 0.253003256 -4.056946565 0.586600429 C.Trigonal 0.0 **** 0.0
18 C54 -0.413048736 -5.211779339 1.067560471 C 0.0 **** 0.0
19 C56 1.623580699 -4.055284147 0.165752695 C.Trigonal 0.0 **** 0.0
20 C59 2.281771409 -2.861693187 -0.098554724 C.Trigonal 0.0 **** 0.0
21 C62 1.624132584 -1.605977958 0.130681101 C.Trigonal 0.0 **** 0.0
22 C65 0.210682291 -1.582137482 0.315731029 C.Trigonal 0.0 **** 0.0
23 C67 3.613185931 -2.997138278 -0.800271499 C 0.0 **** 0.0
24 C71 3.424128969 -3.900658332 -2.035303317 C 0.0 **** 0.0
25 C75 2.998075813 -5.326268096 -1.598330474 C 0.0 **** 0.0
26 C79 2.391153857 -5.313345275 -0.16856051 C 0.0 **** 0.0
27 C82 -0.446950015 -0.299935653 0.400171674 C 0.0 **** 0.0
28 C85 0.297701861 0.90318283 0.358247923 C.Trigonal 0.0 **** 0.0
29 C88 1.707932528 0.876420495 0.254664566 C.Trigonal 0.0 **** 0.0
30 C91 2.37080394 -0.366258055 0.171895235 C 0.0 **** 0.0
31 C93 2.489883587 2.097312207 0.231398995 C 0.0 **** 0.0
32 C96 1.772945197 3.386824673 0.314222208 C.Trigonal 0.0 **** 0.0
33 C99 0.394624337 3.389840798 0.39945829 C.Trigonal 0.0 **** 0.0
34 C102 -0.387322292 2.163256725 0.443607659 C 0.0 **** 0.0
35 C104 -0.351120242 4.689299043 0.490515871 C 0.0 **** 0.0
36 C108 0.32053116 5.751965454 -0.37479274 C 0.0 **** 0.0
37 C112 1.783671551 5.859002542 -0.036972054 C.Trigonal 0.0 **** 0.0
38 C115 2.491082341 4.679537305 0.302966001 C.Trigonal 0.0 **** 0.0
39 N117 3.798987023 4.683888131 0.596805905 N 0.0 **** 0.0
40 C119 4.477086865 5.834011997 0.520685131 C.Trigonal 0.0 **** 0.0
41 C122 3.86168561 7.062563081 0.198741726 C.Trigonal 0.0 **** 0.0
42 C125 2.485476521 7.075237251 -0.069851548 C.Trigonal 0.0 **** 0.0
43 C127 1.779021981 8.368098743 -0.416899902 C 0.0 **** 0.0
44 C131 2.595570668 9.622970365 -0.089257387 C 0.0 **** 0.0
45 C135 4.042046304 9.461726435 -0.554159766 C 0.0 **** 0.0
46 C139 4.710415957 8.312820702 0.200084806 C 0.0 **** 0.0
47 C142 6.111167444 8.014280279 -0.337620081 C 0.0 **** 0.0
48 C146 6.757258866 6.841150462 0.356861349 C.Trigonal 0.0 **** 0.0
49 C149 5.928137608 5.780546542 0.777964605 C.Trigonal 0.0 **** 0.0
50 C151 6.500705263 4.654178805 1.384037705 C 0.0 **** 0.0
51 C154 7.875768845 4.59770593 1.574169962 C 0.0 **** 0.0
52 C157 8.718413188 5.639127681 1.154187086 C 0.0 **** 0.0
53 C160 8.152441245 6.768675471 0.525876201 C 0.0 **** 0.0
54 C162 -9.036645622 -0.744239485 -1.047052391 C 0.0 **** 0.0
55 C166 -8.978504575 -0.606235489 -2.576594353 C 0.0 **** 0.0
56 C170 -10.438080098 -3.28317029 -0.638601246 C 0.0 **** 0.0
57 C174 -6.083871282 -0.647569437 -0.639597609 C 0.0 **** 0.0
58 C178 -9.029792685 -5.550356779 0.537048712 C 0.0 **** 0.0
59 C182 -4.703987799 -7.788862962 1.686055905 C 0.0 **** 0.0
60 C186 -1.808701574 -7.887059448 1.420154105 C 0.0 **** 0.0
61 O190 0.313387171 -6.230986085 1.641672822 O 0.0 **** 0.0
62 C192 4.12893452 -6.359766797 -1.616170124 C 0.0 **** 0.0
63 C196 4.656436072 -3.855769478 -2.941942052 C 0.0 **** 0.0
64 O200 3.697585621 -0.389193252 0.166661204 O 0.0 **** 0.0
65 O202 -1.768220885 -0.203437045 0.52102062 O 0.0 **** 0.0
66 O204 -1.663438962 2.225523958 0.567954409 O 0.0 **** 0.0
67 O205 3.755134974 2.03074667 0.12125474 O 0.0 **** 0.0
68 C206 9.024393793 7.894234383 0.019248547 C 0.0 **** 0.0
69 C210 10.205766442 5.518289987 1.375067063 C 0.0 **** 0.0
70 H214 -4.26332369 -2.530856043 -0.610149492 H 0.0 **** 0.0
71 H215 -4.495088826 -2.142549985 1.068339819 H 0.0 **** 0.0
72 H216 -6.529270444 -5.606221811 1.999715522 H 0.0 **** 0.0
73 H217 -6.46338732 -6.30582406 0.404755636 H 0.0 **** 0.0
74 H218 -2.475982481 -2.028978995 0.412798389 H 0.0 **** 0.0
75 H219 4.010854731 -2.030491775 -1.1100768 H 0.0 **** 0.0
76 H220 4.367734162 -3.449322684 -0.130099107 H 0.0 **** 0.0
77 H221 2.582615067 -3.466253267 -2.599664963 H 0.0 **** 0.0
78 H222 2.210575778 -5.672029268 -2.286387474 H 0.0 **** 0.0
79 H223 3.238052688 -5.404633746 0.539050981 H 0.0 **** 0.0
80 H224 1.78237474 -6.216602012 -0.065082798 H 0.0 **** 0.0
81 H225 -1.400010243 4.532705867 0.208724479 H 0.0 **** 0.0
82 H226 -0.351697374 5.018637785 1.54663491 H 0.0 **** 0.0
83 H227 -0.192448298 6.713576516 -0.249716279 H 0.0 **** 0.0
84 H228 0.212769653 5.475123683 -1.440701127 H 0.0 **** 0.0
85 H229 1.537949964 8.356132132 -1.495201175 H 0.0 **** 0.0
86 H230 0.809704548 8.413924649 0.103269727 H 0.0 **** 0.0
87 H231 2.588704136 9.789489008 1.000931126 H 0.0 **** 0.0
88 H232 2.123602538 10.502695474 -0.552360181 H 0.0 **** 0.0
89 H233 4.615490606 10.389682511 -0.401075182 H 0.0 **** 0.0
90 H234 4.061858492 9.24026249 -1.635883027 H 0.0 **** 0.0
91 H235 4.827194674 8.621266704 1.258653496 H 0.0 **** 0.0
92 H236 6.036359596 7.803027918 -1.422166969 H 0.0 **** 0.0
93 H237 6.726229063 8.919674375 -0.240610546 H 0.0 **** 0.0
94 H238 5.849457513 3.831546399 1.67931775 H 0.0 **** 0.0
95 H239 8.321031278 3.721583626 2.050681941 H 0.0 **** 0.0
96 H240 -8.633172173 0.166564804 -0.58062388 H 0.0 **** 0.0
97 H241 -10.085252877 -0.797762296 -0.723801579 H 0.0 **** 0.0
98 H242 -9.385329132 -1.507505619 -3.06015682 H 0.0 **** 0.0
99 H243 -7.937672157 -0.493506253 -2.914848057 H 0.0 **** 0.0
100 H244 -9.554124913 0.265351117 -2.925095296 H 0.0 **** 0.0
101 H245 -10.715686508 -4.31407093 -0.892619529 H 0.0 **** 0.0
102 H246 -10.716857607 -2.650962156 -1.491619231 H 0.0 **** 0.0
103 H247 -11.066697741 -2.975652922 0.215480016 H 0.0 **** 0.0
104 H248 -5.321733202 -0.8467904 -1.41104805 H 0.0 **** 0.0
105 H249 -5.531566626 -0.309190538 0.252483399 H 0.0 **** 0.0
106 H250 -6.697547091 0.186455039 -0.995050171 H 0.0 **** 0.0
107 H251 -8.514927486 -6.144371616 1.302409583 H 0.0 **** 0.0
108 H252 -9.145288005 -6.196004588 -0.351600321 H 0.0 **** 0.0
109 H253 -10.039268488 -5.334102308 0.911811896 H 0.0 **** 0.0
110 H254 -4.156231335 -8.419872065 2.397273542 H 0.0 **** 0.0
111 H255 -4.915074697 -8.403167493 0.792944989 H 0.0 **** 0.0
112 H256 -5.671163798 -7.544438904 2.142126005 H 0.0 **** 0.0
113 H257 -0.969175847 -7.935719424 0.716668081 H 0.0 **** 0.0
114 H258 -2.47764212 -8.72709311 1.201573103 H 0.0 **** 0.0
115 H259 -1.383989865 -8.03661516 2.425229833 H 0.0 **** 0.0
116 H260 1.205687054 -5.897667334 1.827105914 H 0.0 **** 0.0
117 H261 4.525581028 -6.519490436 -2.628256581 H 0.0 **** 0.0
118 H262 3.767678844 -7.32702142 -1.234057149 H 0.0 **** 0.0
119 H263 4.961680416 -6.035634141 -0.971627338 H 0.0 **** 0.0
120 H264 4.845235331 -2.824498497 -3.275226381 H 0.0 **** 0.0
121 H265 4.521161992 -4.483860946 -3.835472443 H 0.0 **** 0.0
122 H266 5.554748202 -4.209158639 -2.414000006 H 0.0 **** 0.0
123 H267 3.962652575 0.647719024 0.147403023 H 0.0 **** 0.0
124 H268 -1.959546929 0.842695032 0.562916046 H 0.0 **** 0.0
125 H269 8.76887049 8.159479067 -1.017994197 H 0.0 **** 0.0
126 H270 10.088684754 7.633992311 0.047448212 H 0.0 **** 0.0
127 H271 8.889313037 8.807822457 0.623157421 H 0.0 **** 0.0
128 H272 10.757608859 5.519683255 0.420724328 H 0.0 **** 0.0
129 H273 10.4447849 4.584222683 1.90130489 H 0.0 **** 0.0
130 H274 10.597018089 6.358098229 1.971367369 H 0.0 **** 0.0
@<TRIPOS>BOND
1 3 2 Aromatic
2 4 3 Aromatic
3 5 4 Aromatic
4 6 5 Aromatic
5 1 2 Aromatic
6 1 6 Aromatic
7 8 7 1
8 9 8 Aromatic
9 10 9 1
10 4 7 1
11 3 10 1
12 12 11 Aromatic
13 13 12 Aromatic
14 14 13 Aromatic
15 9 11 Aromatic
16 8 14 Aromatic
17 16 15 Aromatic
18 17 16 Aromatic
19 18 17 Aromatic
20 14 15 Aromatic
21 13 18 Aromatic
22 20 19 1
23 21 20 1
24 22 21 Aromatic
25 17 19 1
26 16 22 Aromatic
27 24 23 1
28 25 24 Aromatic
29 26 25 1
30 20 23 1
31 19 26 1
32 28 27 Aromatic
33 29 28 Aromatic
34 30 29 Aromatic
35 22 27 Aromatic
36 21 30 Aromatic
37 32 31 1
38 33 32 Aromatic
39 34 33 1
40 29 31 1
41 28 34 1
42 36 35 1
43 37 36 1
44 38 37 Aromatic
45 33 35 1
46 32 38 Aromatic
47 40 39 Aromatic
48 41 40 Aromatic
49 42 41 Aromatic
50 38 39 Aromatic
51 37 42 Aromatic
52 44 43 1
53 45 44 1
54 46 45 1
55 42 43 1
56 41 46 1
57 48 47 1
58 49 48 Aromatic
59 40 49 Aromatic
60 46 47 1
61 51 50 Aromatic
62 52 51 Aromatic
63 53 52 Aromatic
64 49 50 Aromatic
65 48 53 Aromatic
66 6 54 1
67 54 55 1
68 1 56 1
69 5 57 1
70 2 58 1
71 11 59 1
72 12 60 1
73 18 61 1
74 25 62 1
75 24 63 1
76 30 64 1
77 27 65 1
78 34 66 Double
79 31 67 Double
80 53 68 1
81 52 69 1
82 7 70 1
83 7 71 1
84 10 72 1
85 10 73 1
86 15 74 1
87 23 75 1
88 23 76 1
89 24 77 1
90 25 78 1
91 26 79 1
92 26 80 1
93 35 81 1
94 35 82 1
95 36 83 1
96 36 84 1
97 43 85 1
98 43 86 1
99 44 87 1
100 44 88 1
101 45 89 1
102 45 90 1
103 46 91 1
104 47 92 1
105 47 93 1
106 50 94 1
107 51 95 1
108 54 96 1
109 54 97 1
110 55 98 1
111 55 99 1
112 55 100 1
113 56 101 1
114 56 102 1
115 56 103 1
116 57 104 1
117 57 105 1
118 57 106 1
119 58 107 1
120 58 108 1
121 58 109 1
122 59 110 1
123 59 111 1
124 59 112 1
125 60 113 1
126 60 114 1
127 60 115 1
128 61 116 1
129 62 117 1
130 62 118 1
131 62 119 1
132 63 120 1
133 63 121 1
134 63 122 1
135 64 123 1
136 65 124 1
137 68 125 1
138 68 126 1
139 68 127 1
140 69 128 1
141 69 129 1
142 69 130 1
