@<TRIPOS>MOLECULE
mol
31654 36132
SMALL
USER_CHARGES


@<TRIPOS>ATOM
1 C1 50.1629 16.4674 3.82418 C.ar 0.0 **** 0.0
2 C2 50.6958 15.2868 4.37402 C.ar 0.0 **** 0.0
3 C3 49.9041 14.4941 5.22847 C.ar 0.0 **** 0.0
4 C4 48.5902 14.8746 5.51054 C.ar 0.0 **** 0.0
5 C5 48.0316 16.0257 4.91959 C.ar 0.0 **** 0.0
6 C6 48.8137 16.8141 4.05642 C.ar 0.0 **** 0.0
7 C7 47.7293 14.0703 6.43989 C.3 0.0 **** -0.106
8 C8 48.3872 12.9302 7.16026 C.ar 0.0 **** 0.0
9 C9 49.6753 12.5334 6.87864 C.ar 0.0 **** 0.0
10 C10 50.4912 13.2397 5.8273 C.3 0.0 **** -0.106
11 C11 50.2813 11.4561 7.61014 C.ar 0.0 **** 0.0
12 C12 49.608 10.8239 8.65055 C.ar 0.0 **** 0.0
13 C13 48.2416 11.1837 8.91622 C.ar 0.0 **** 0.0
14 C14 47.6322 12.2488 8.16403 C.ar 0.0 **** 0.0
15 C15 46.2863 12.5898 8.36678 C.ar 0.0 **** -0.1268
16 C16 45.5137 12.0275 9.38159 C.ar 0.0 **** 0.0
17 C17 46.1553 11.0779 10.2604 C.ar 0.0 **** 0.0
18 C18 47.4121 10.5493 9.87374 C.ar 0.0 **** 0.042
19 C19 45.5202 10.7689 11.5082 C.2 0.0 **** 0.0
20 C20 44.2059 11.1476 11.7468 C.2 0.0 **** 0.0
21 C21 43.4347 11.7778 10.7125 C.ar 0.0 **** 0.0
22 C22 44.1013 12.3024 9.56652 C.ar 0.0 **** 0.0
23 C23 43.7458 11.0257 13.1811 C.3 0.0 **** -0.106
24 C24 44.7795 11.7256 14.0861 C.ar 0.0 **** -0.053
25 C25 46.1513 11.0092 13.9903 C.ar 0.0 **** -0.053
26 C26 46.2533 10.1709 12.6867 C.3 0.0 **** -0.106
27 C27 43.327 13.0576 8.61063 C.ar 0.0 **** 0.042
28 C28 41.9312 13.2246 8.77542 C.ar 0.0 **** 0.052
29 C29 41.2577 12.6356 9.8707 C.ar 0.0 **** 0.052
30 C30 41.9954 11.8933 10.8166 C.ar 0.0 **** 0.042
31 C31 39.8249 12.7765 10.045 C.2 0.0 **** 0.367
32 C32 39.0742 13.5622 9.04326 C.ar 0.0 **** 0.0
33 C33 39.7546 14.1421 7.9908 C.ar 0.0 **** 0.0
34 C34 41.1895 13.9832 7.80639 C.2 0.0 **** 0.367
35 C35 39.0093 14.9393 6.96032 C.3 0.0 **** -0.106
36 C36 37.8793 15.7309 7.61271 C.3 0.0 **** -0.106
37 C37 37.0054 14.8214 8.43468 C.ar 0.0 **** 0.0
38 C38 37.6105 13.7509 9.13843 C.ar 0.0 **** 0.2405
39 N39 36.9087 12.9085 9.90971 N.ar 0.0 **** -0.481
40 C40 35.5957 13.1106 10.0632 C.ar 0.0 **** 0.2405
41 C41 34.9001 14.1436 9.39926 C.ar 0.0 **** 0.0
42 C42 35.6183 15.0047 8.55723 C.ar 0.0 **** 0.0
43 C43 34.9167 16.1262 7.82151 C.3 0.0 **** -0.106
44 C44 33.3906 15.9877 7.79841 C.3 0.0 **** -0.106
45 C45 32.8621 15.6117 9.18178 C.3 0.0 **** -0.106
46 C46 33.4054 14.2449 9.59696 C.3 0.0 **** -0.053
47 C47 33.0263 13.8929 11.0366 C.3 0.0 **** -0.106
48 C48 33.6091 12.5738 11.4796 C.ar 0.0 **** 0.0
49 C49 34.8758 12.2065 10.9793 C.ar 0.0 **** 0.0
50 C50 35.4671 11.0098 11.4062 C.ar 0.0 **** -0.1268
51 C51 34.797 10.1931 12.3085 C.ar 0.0 **** -0.1268
52 C52 33.54 10.546 12.8249 C.ar 0.0 **** 0.0
53 C53 32.9453 11.7579 12.4145 C.ar 0.0 **** 0.0
54 C54 48.2291 18.0484 3.40233 C.3 0.0 **** -0.106
55 C55 48.2884 19.2778 4.32278 C.3 0.0 **** -0.159
56 C56 51.0463 17.3676 2.98651 C.3 0.0 **** -0.159
57 C57 46.6012 16.3742 5.25772 C.3 0.0 **** -0.159
58 C58 52.1132 14.872 4.04902 C.3 0.0 **** -0.159
59 C59 51.6917 11.0437 7.25193 C.3 0.0 **** -0.159
60 C60 50.3525 9.85713 9.54438 C.3 0.0 **** -0.159
61 O61 47.8396 9.34931 10.3966 O.3 0.0 **** -0.452
62 C62 46.4655 10.0808 15.1679 C.3 0.0 **** -0.159
63 C63 44.244 11.8843 15.511 C.3 0.0 **** -0.159
64 O64 41.3475 11.2674 11.7913 O.3 0.0 **** -0.452
65 O65 43.8936 13.6179 7.5452 O.3 0.0 **** -0.452
66 O66 41.7625 14.509 6.78531 O.2 0.0 **** -0.419
67 O67 39.2594 12.2436 11.0514 O.2 0.0 **** -0.419
68 C68 31.6124 12.1978 12.9745 C.3 0.0 **** -0.159
69 C69 32.8643 9.6273 13.8123 C.3 0.0 **** -0.159
70 H70 47.2877 14.747 7.19218 H 0.0 **** 0.053
71 H71 46.8506 13.6888 5.88409 H 0.0 **** 0.053
72 H72 50.7087 12.5247 5.00955 H 0.0 **** 0.053
73 H73 51.4831 13.4718 6.2509 H 0.0 **** 0.053
74 H74 45.8229 13.3052 7.70726 H 0.0 **** 0.1268
75 H75 42.763 11.4723 13.3333 H 0.0 **** 0.053
76 H76 43.6603 9.96407 13.4788 H 0.0 **** 0.053
77 H77 44.9094 12.7371 13.6672 H 0.0 **** 0.053
78 H78 46.936 11.7809 13.947 H 0.0 **** 0.053
79 H79 45.8104 9.18039 12.908 H 0.0 **** 0.053
80 H80 47.3168 10.0134 12.4835 H 0.0 **** 0.053
81 H81 39.709 15.5903 6.42111 H 0.0 **** 0.053
82 H82 38.5877 14.2392 6.21468 H 0.0 **** 0.053
83 H83 37.3008 16.2573 6.84354 H 0.0 **** 0.053
84 H84 38.3118 16.5102 8.26847 H 0.0 **** 0.053
85 H85 35.1927 17.0838 8.29867 H 0.0 **** 0.053
86 H86 35.2957 16.1888 6.78967 H 0.0 **** 0.053
87 H87 33.1059 15.1988 7.08222 H 0.0 **** 0.053
88 H88 32.9394 16.9256 7.44078 H 0.0 **** 0.053
89 H89 31.7608 15.5935 9.196 H 0.0 **** 0.053
90 H90 33.1859 16.3659 9.92061 H 0.0 **** 0.053
91 H91 32.9417 13.4797 8.94208 H 0.0 **** 0.053
92 H92 33.389 14.6977 11.7053 H 0.0 **** 0.053
93 H93 31.9308 13.8903 11.1219 H 0.0 **** 0.053
94 H94 36.4579 10.7532 11.0311 H 0.0 **** 0.1268
95 H95 35.2569 9.25914 12.6385 H 0.0 **** 0.1268
96 H96 47.186 17.8585 3.10957 H 0.0 **** 0.053
97 H97 48.7601 18.2667 2.46565 H 0.0 **** 0.053
98 H98 49.3275 19.4861 4.62027 H 0.0 **** 0.053
99 H99 47.7128 19.0991 5.24321 H 0.0 **** 0.053
100 H100 47.8825 20.1732 3.82679 H 0.0 **** 0.053
101 H101 52.1 17.2832 3.28137 H 0.0 **** 0.053
102 H102 50.7621 18.4229 3.09016 H 0.0 **** 0.053
103 H103 50.9855 17.1166 1.91297 H 0.0 **** 0.053
104 H104 46.4878 16.5456 6.34098 H 0.0 **** 0.053
105 H105 45.9173 15.5463 5.00827 H 0.0 **** 0.053
106 H106 46.2448 17.2741 4.74603 H 0.0 **** 0.053
107 H107 52.2592 13.7901 4.1568 H 0.0 **** 0.053
108 H108 52.8432 15.3661 4.71449 H 0.0 **** 0.053
109 H109 52.384 15.1396 3.01876 H 0.0 **** 0.053
110 H110 51.8584 9.97407 7.43173 H 0.0 **** 0.053
111 H111 52.4416 11.5992 7.84241 H 0.0 **** 0.053
112 H112 51.9104 11.2363 6.19448 H 0.0 **** 0.053
113 H113 50.065 9.99814 10.593 H 0.0 **** 0.053
114 H114 51.4355 10.0076 9.47105 H 0.0 **** 0.053
115 H115 50.1326 8.8065 9.29796 H 0.0 **** 0.053
116 H116 47.0808 8.91786 10.8206 H 0.0 **** 0.41
117 H117 46.5395 10.6293 16.117 H 0.0 **** 0.053
118 H118 47.4206 9.55994 14.9987 H 0.0 **** 0.053
119 H119 45.6818 9.31422 15.2781 H 0.0 **** 0.053
120 H120 43.3145 12.4728 15.5045 H 0.0 **** 0.053
121 H121 44.9699 12.4 16.1578 H 0.0 **** 0.053
122 H122 44.0213 10.9075 15.9659 H 0.0 **** 0.053
123 H123 40.3328 11.5732 11.6497 H 0.0 **** 0.41
124 H124 43.0916 14.0906 7.03076 H 0.0 **** 0.41
125 H125 31.6524 13.2407 13.3241 H 0.0 **** 0.053
126 H126 31.2941 11.5726 13.8166 H 0.0 **** 0.053
127 H127 30.8208 12.1504 12.2072 H 0.0 **** 0.053
128 H128 32.7124 10.1217 14.7859 H 0.0 **** 0.053
129 H129 33.4708 8.72743 13.9823 H 0.0 **** 0.053
130 H130 31.8708 9.30984 13.457 H 0.0 **** 0.053
131 C131 23.7195 17.8752 10.509 C.ar 0.0 **** 0.0
132 C132 22.9667 16.9923 11.3051 C.ar 0.0 **** 0.0
133 C133 23.3129 16.8025 12.6577 C.ar 0.0 **** 0.0
134 C134 24.3891 17.5045 13.205 C.ar 0.0 **** 0.0
135 C135 25.1129 18.4319 12.4289 C.ar 0.0 **** 0.0
136 C136 24.764 18.6341 11.0814 C.ar 0.0 **** 0.0
137 C137 24.8039 17.3039 14.6331 C.3 0.0 **** -0.106
138 C138 24.1079 16.2158 15.3967 C.ar 0.0 **** 0.0
139 C139 23.0342 15.5289 14.8759 C.ar 0.0 **** 0.0
140 C140 22.5104 15.8396 13.4978 C.3 0.0 **** -0.106
141 C141 22.4123 14.4735 15.6257 C.ar 0.0 **** 0.0
142 C142 22.9067 14.084 16.8664 C.ar 0.0 **** 0.0
143 C143 23.9869 14.8309 17.4515 C.ar 0.0 **** 0.0
144 C144 24.5911 15.9026 16.7045 C.ar 0.0 **** 0.0
145 C145 25.6139 16.6806 17.268 C.ar 0.0 **** -0.1268
146 C146 26.1911 16.3831 18.5013 C.ar 0.0 **** 0.0
147 C147 25.7166 15.2081 19.1941 C.ar 0.0 **** 0.0
148 C148 24.5139 14.6062 18.7473 C.ar 0.0 **** 0.042
149 C149 26.5195 14.6729 20.2546 C.2 0.0 **** 0.0
150 C150 27.571 15.4071 20.7866 C.2 0.0 **** 0.0
151 C151 27.8144 16.7504 20.3414 C.ar 0.0 **** 0.0
152 C152 27.1943 17.2115 19.1433 C.ar 0.0 **** 0.0
153 C153 28.511 14.637 21.6848 C.3 0.0 **** -0.106
154 C154 28.9451 13.3528 20.9499 C.ar 0.0 **** -0.053
155 C155 27.7187 12.4396 20.6921 C.ar 0.0 **** -0.053
156 C156 26.3959 13.2514 20.7527 C.3 0.0 **** -0.106
157 C157 27.5651 18.5116 18.6375 C.ar 0.0 **** 0.042
158 C158 28.4772 19.3328 19.3425 C.ar 0.0 **** 0.052
159 C159 29.0304 18.9072 20.5726 C.ar 0.0 **** 0.052
160 C160 28.6811 17.6401 21.085 C.ar 0.0 **** 0.042
161 C161 29.9491 19.7432 21.3209 C.2 0.0 **** 0.367
162 C162 30.3032 21.0647 20.7618 C.ar 0.0 **** 0.0
163 C163 29.764 21.4531 19.5513 C.ar 0.0 **** 0.0
164 C164 28.8266 20.6213 18.8113 C.2 0.0 **** 0.367
165 C165 30.1071 22.7936 18.9696 C.3 0.0 **** -0.106
166 C166 31.5654 23.1416 19.2548 C.3 0.0 **** -0.106
167 C167 31.8581 23.0183 20.7264 C.ar 0.0 **** 0.0
168 C168 31.226 21.9849 21.461 C.ar 0.0 **** 0.2405
169 N169 31.4479 21.7919 22.7689 N.ar 0.0 **** -0.481
170 C170 32.3349 22.5702 23.3982 C.ar 0.0 **** 0.2405
171 C171 33.01 23.6304 22.7564 C.ar 0.0 **** 0.0
172 C172 32.7534 23.8668 21.3983 C.ar 0.0 **** 0.0
173 C173 33.4509 24.9933 20.6664 C.3 0.0 **** -0.106
174 C174 34.1237 26.0087 21.5965 C.3 0.0 **** -0.106
175 C175 34.9023 25.2953 22.7008 C.3 0.0 **** -0.106
176 C176 33.9469 24.4861 23.5771 C.3 0.0 **** -0.053
177 C177 34.6961 23.6344 24.6035 C.3 0.0 **** -0.106
178 C178 33.7675 22.7832 25.4336 C.ar 0.0 **** 0.0
179 C179 32.6044 22.2756 24.8178 C.ar 0.0 **** 0.0
180 C180 31.7437 21.4434 25.5463 C.ar 0.0 **** -0.1268
181 C181 32.0383 21.135 26.8685 C.ar 0.0 **** -0.1268
182 C182 33.1957 21.6227 27.4959 C.ar 0.0 **** 0.0
183 C183 34.0773 22.4466 26.7644 C.ar 0.0 **** 0.0
184 C184 25.5215 19.6341 10.2334 C.3 0.0 **** -0.106
185 C185 26.8114 19.0397 9.64609 C.3 0.0 **** -0.159
186 C186 23.4071 18.0028 9.03301 C.3 0.0 **** -0.159
187 C187 26.2581 19.1664 13.0855 C.3 0.0 **** -0.159
188 C188 21.7915 16.2498 10.7099 C.3 0.0 **** -0.159
189 C189 21.224 13.7606 15.0197 C.3 0.0 **** -0.159
190 C190 22.3765 12.8278 17.5214 C.3 0.0 **** -0.159
191 O191 23.7871 13.8112 19.6052 O.3 0.0 **** -0.452
192 C192 27.5889 11.2627 21.6643 C.3 0.0 **** -0.159
193 C193 30.1046 12.6686 21.6778 C.3 0.0 **** -0.159
194 O194 29.1307 17.283 22.2817 O.3 0.0 **** -0.452
195 O195 27.0638 18.9831 17.4988 O.3 0.0 **** -0.452
196 O196 28.3234 21.0521 17.7119 O.2 0.0 **** -0.419
197 O197 30.4358 19.3175 22.4158 O.2 0.0 **** -0.419
198 C198 35.355 22.9614 27.3857 C.3 0.0 **** -0.159
199 C199 33.4723 21.2445 28.9297 C.3 0.0 **** -0.159
200 H200 25.8902 17.1093 14.6649 H 0.0 **** 0.053
201 H201 24.6937 18.2594 15.1821 H 0.0 **** 0.053
202 H202 21.477 16.2275 13.5919 H 0.0 **** 0.053
203 H203 22.3915 14.8916 12.9462 H 0.0 **** 0.053
204 H204 25.9627 17.5506 16.736 H 0.0 **** 0.1268
205 H205 29.3913 15.2224 21.9513 H 0.0 **** 0.053
206 H206 28.0139 14.3635 22.634 H 0.0 **** 0.053
207 H207 29.32 13.6815 19.9667 H 0.0 **** 0.053
208 H208 27.8071 12.0308 19.6732 H 0.0 **** 0.053
209 H209 26.086 13.279 21.8154 H 0.0 **** 0.053
210 H210 25.6383 12.6801 20.2079 H 0.0 **** 0.053
211 H211 29.8866 22.7961 17.8947 H 0.0 **** 0.053
212 H212 29.4486 23.5535 19.4308 H 0.0 **** 0.053
213 H213 31.7873 24.1498 18.8836 H 0.0 **** 0.053
214 H214 32.2215 22.4492 18.6941 H 0.0 **** 0.053
215 H215 34.2071 24.5555 19.99 H 0.0 **** 0.053
216 H216 32.7335 25.5129 20.0125 H 0.0 **** 0.053
217 H217 33.3529 26.6468 22.0599 H 0.0 **** 0.053
218 H218 34.7794 26.6699 21.01 H 0.0 **** 0.053
219 H219 35.4589 26.0136 23.3234 H 0.0 **** 0.053
220 H220 35.6428 24.6109 22.2504 H 0.0 **** 0.053
221 H221 33.3164 25.2 24.1448 H 0.0 **** 0.053
222 H222 35.4119 22.9814 24.0671 H 0.0 **** 0.053
223 H223 35.2992 24.2978 25.2389 H 0.0 **** 0.053
224 H224 30.8632 21.0374 25.0482 H 0.0 **** 0.1268
225 H225 31.3657 20.4888 27.4367 H 0.0 **** 0.1268
226 H226 25.7663 20.5235 10.8325 H 0.0 **** 0.053
227 H227 24.8821 19.9985 9.4177 H 0.0 **** 0.053
228 H228 26.5834 18.1513 9.03745 H 0.0 **** 0.053
229 H229 27.4909 18.721 10.4506 H 0.0 **** 0.053
230 H230 27.3399 19.769 9.01262 H 0.0 **** 0.053
231 H231 22.9762 17.0765 8.63227 H 0.0 **** 0.053
232 H232 24.3085 18.2235 8.44665 H 0.0 **** 0.053
233 H233 22.6828 18.8127 8.8365 H 0.0 **** 0.053
234 H234 27.0236 18.4566 13.4402 H 0.0 **** 0.053
235 H235 25.9205 19.7195 13.9774 H 0.0 **** 0.053
236 H236 26.7556 19.8749 12.4155 H 0.0 **** 0.053
237 H237 21.0587 15.9613 11.4737 H 0.0 **** 0.053
238 H238 22.1123 15.3234 10.2013 H 0.0 **** 0.053
239 H239 21.2659 16.8613 9.96409 H 0.0 **** 0.053
240 H240 20.5284 13.4063 15.7909 H 0.0 **** 0.053
241 H241 21.5343 12.8829 14.4256 H 0.0 **** 0.053
242 H242 20.6604 14.419 14.3474 H 0.0 **** 0.053
243 H243 23.1916 12.2561 17.9806 H 0.0 **** 0.053
244 H244 21.8845 12.1792 16.7879 H 0.0 **** 0.053
245 H245 21.6567 13.0478 18.3253 H 0.0 **** 0.053
246 H246 24.12 13.9558 20.5051 H 0.0 **** 0.41
247 H247 28.4355 10.5669 21.5848 H 0.0 **** 0.053
248 H248 26.6642 10.7006 21.4615 H 0.0 **** 0.053
249 H249 27.5402 11.6218 22.7048 H 0.0 **** 0.053
250 H250 30.9647 13.3509 21.7484 H 0.0 **** 0.053
251 H251 30.4316 11.7609 21.1482 H 0.0 **** 0.053
252 H252 29.8197 12.3784 22.7002 H 0.0 **** 0.053
253 H253 29.7726 18.0929 22.5562 H 0.0 **** 0.41
254 H254 27.5036 19.9452 17.3887 H 0.0 **** 0.41
255 H255 36.218 22.7835 26.7261 H 0.0 **** 0.053
256 H256 35.5644 22.484 28.3499 H 0.0 **** 0.053
257 H257 35.3059 24.0503 27.5575 H 0.0 **** 0.053
258 H258 34.4114 20.6748 29.0237 H 0.0 **** 0.053
259 H259 32.6598 20.6232 29.3303 H 0.0 **** 0.053
260 H260 33.5729 22.1341 29.5719 H 0.0 **** 0.053
261 C261 56.4631 35.4993 27.8641 C.ar 0.0 **** 0.0
262 C262 57.4105 36.4966 28.1605 C.ar 0.0 **** 0.0
263 C263 58.7529 36.1384 28.3945 C.ar 0.0 **** 0.0
264 C264 59.1392 34.7986 28.3135 C.ar 0.0 **** 0.0
265 C265 58.2077 33.8009 27.9626 C.ar 0.0 **** 0.0
266 C266 56.8688 34.1546 27.7163 C.ar 0.0 **** 0.0
267 C267 60.5536 34.3784 28.5865 C.3 0.0 **** -0.106
268 C268 61.4919 35.4359 29.0894 C.ar 0.0 **** 0.0
269 C269 61.1297 36.7626 29.1568 C.ar 0.0 **** 0.0
270 C270 59.7571 37.2136 28.7295 C.3 0.0 **** -0.106
271 C271 62.0456 37.7418 29.6716 C.ar 0.0 **** 0.0
272 C272 63.2942 37.3724 30.1614 C.ar 0.0 **** 0.0
273 C273 63.7119 36.0019 30.0414 C.ar 0.0 **** 0.0
274 C274 62.7977 35.0291 29.5033 C.ar 0.0 **** 0.0
275 C275 63.1934 33.6942 29.3287 C.ar 0.0 **** -0.1268
276 C276 64.4178 33.2081 29.7839 C.ar 0.0 **** 0.0
277 C277 65.2839 34.1295 30.4816 C.ar 0.0 **** 0.0
278 C278 64.9918 35.5141 30.4037 C.ar 0.0 **** 0.042
279 C279 66.3544 33.5928 31.27 C.2 0.0 **** 0.0
280 C280 66.7228 32.2595 31.15 C.2 0.0 **** 0.0
281 C281 66.094 31.4199 30.1694 C.ar 0.0 **** 0.0
282 C282 64.8858 31.855 29.5499 C.ar 0.0 **** 0.0
283 C283 67.6547 31.7448 32.2225 C.3 0.0 **** -0.106
284 C284 67.0671 32.1166 33.5987 C.ar 0.0 **** -0.053
285 C285 67.0036 33.6577 33.7583 C.ar 0.0 **** -0.053
286 C286 67.0383 34.3638 32.3752 C.3 0.0 **** -0.106
287 C287 64.195 30.936 28.6771 C.ar 0.0 **** 0.042
288 C288 64.7319 29.6567 28.3969 C.ar 0.0 **** 0.052
289 C289 65.9711 29.2568 28.9489 C.ar 0.0 **** 0.052
290 C290 66.6629 30.1398 29.8043 C.ar 0.0 **** 0.042
291 C291 66.5485 27.9591 28.6561 C.2 0.0 **** 0.367
292 C292 65.8031 27.0499 27.7606 C.ar 0.0 **** 0.0
293 C293 64.5873 27.4546 27.246 C.ar 0.0 **** 0.0
294 C294 64.0186 28.765 27.5248 C.2 0.0 **** 0.367
295 C295 63.8177 26.5476 26.3304 C.3 0.0 **** -0.106
296 C296 63.9673 25.0938 26.77 C.3 0.0 **** -0.106
297 C297 65.4222 24.7331 26.9102 C.ar 0.0 **** 0.0
298 C298 66.3208 25.7117 27.4023 C.ar 0.0 **** 0.2405
299 N299 67.6269 25.4662 27.5779 N.ar 0.0 **** -0.481
300 C300 68.0958 24.2392 27.3272 C.ar 0.0 **** 0.2405
301 C301 67.2831 23.1993 26.8274 C.ar 0.0 **** 0.0
302 C302 65.9237 23.4581 26.6007 C.ar 0.0 **** 0.0
303 C303 65.0118 22.3761 26.0634 C.3 0.0 **** -0.106
304 C304 65.7608 21.175 25.4758 C.3 0.0 **** -0.106
305 C305 66.8991 20.7446 26.3996 C.3 0.0 **** -0.106
306 C306 67.9285 21.8676 26.5216 C.3 0.0 **** -0.053
307 C307 69.0094 21.5419 27.5541 C.3 0.0 **** -0.106
308 C308 69.9967 22.669 27.7294 C.ar 0.0 **** 0.0
309 C309 69.5228 23.9917 27.6053 C.ar 0.0 **** 0.0
310 C310 70.4031 25.0632 27.8078 C.ar 0.0 **** -0.1268
311 C311 71.7339 24.8128 28.1183 C.ar 0.0 **** -0.1268
312 C312 72.2223 23.5037 28.2554 C.ar 0.0 **** 0.0
313 C313 71.3388 22.4191 28.0711 C.ar 0.0 **** 0.0
314 C314 55.8547 33.0996 27.3269 C.3 0.0 **** -0.106
315 C315 55.2725 32.373 28.5497 C.3 0.0 **** -0.159
316 C316 55.0045 35.8751 27.7103 C.3 0.0 **** -0.159
317 C317 58.6937 32.3729 27.8812 C.3 0.0 **** -0.159
318 C318 56.9879 37.947 28.2281 C.3 0.0 **** -0.159
319 C319 61.6094 39.1896 29.7082 C.3 0.0 **** -0.159
320 C320 64.1366 38.387 30.9022 C.3 0.0 **** -0.159
321 O321 65.9873 36.4372 30.6339 O.3 0.0 **** -0.452
322 C322 68.1257 34.2533 34.6146 C.3 0.0 **** -0.159
323 C323 67.8061 31.3913 34.7258 C.3 0.0 **** -0.159
324 O324 67.8664 29.7971 30.2468 O.3 0.0 **** -0.452
325 O325 63.0373 31.2575 28.1059 O.3 0.0 **** -0.452
326 O326 62.9051 29.1042 26.984 O.2 0.0 **** -0.419
327 O327 67.6578 27.6319 29.1843 O.2 0.0 **** -0.419
328 C328 71.8104 20.9943 28.2482 C.3 0.0 **** -0.159
329 C329 73.6737 23.2913 28.6071 C.3 0.0 **** -0.159
330 H330 60.5449 33.5482 29.3142 H 0.0 **** 0.053
331 H331 60.9803 33.9203 27.6729 H 0.0 **** 0.053
332 H332 59.8623 37.8853 27.8549 H 0.0 **** 0.053
333 H333 59.3407 37.8635 29.5178 H 0.0 **** 0.053
334 H334 62.5335 33.0165 28.8122 H 0.0 **** 0.1268
335 H335 67.7899 30.6647 32.1611 H 0.0 **** 0.053
336 H336 68.6594 32.1955 32.1213 H 0.0 **** 0.053
337 H337 66.0288 31.7459 33.5921 H 0.0 **** 0.053
338 H338 66.0426 33.9114 34.2328 H 0.0 **** 0.053
339 H339 68.1053 34.488 32.1063 H 0.0 **** 0.053
340 H340 66.6185 35.3651 32.5105 H 0.0 **** 0.053
341 H341 62.7667 26.8614 26.299 H 0.0 **** 0.053
342 H342 64.2157 26.6667 25.3051 H 0.0 **** 0.053
343 H343 63.4563 24.4347 26.0573 H 0.0 **** 0.053
344 H344 63.4622 24.9541 27.7445 H 0.0 **** 0.053
345 H345 64.3534 22.035 26.8826 H 0.0 **** 0.053
346 H346 64.3407 22.7998 25.3003 H 0.0 **** 0.053
347 H347 66.1835 21.4517 24.4954 H 0.0 **** 0.053
348 H348 65.0554 20.3487 25.3008 H 0.0 **** 0.053
349 H349 67.389 19.8304 26.0287 H 0.0 **** 0.053
350 H350 66.4971 20.5159 27.4024 H 0.0 **** 0.053
351 H351 68.4361 21.9737 25.5416 H 0.0 **** 0.053
352 H352 68.5197 21.3284 28.5242 H 0.0 **** 0.053
353 H353 69.5163 20.6147 27.253 H 0.0 **** 0.053
354 H354 70.0155 26.0793 27.7348 H 0.0 **** 0.1268
355 H355 72.4203 25.6482 28.2731 H 0.0 **** 0.1268
356 H356 56.3181 32.3667 26.6501 H 0.0 **** 0.053
357 H357 55.0387 33.5552 26.7492 H 0.0 **** 0.053
358 H358 54.7985 33.0923 29.235 H 0.0 **** 0.053
359 H359 56.0691 31.8613 29.1101 H 0.0 **** 0.053
360 H360 54.5195 31.6259 28.2544 H 0.0 **** 0.053
361 H361 54.7534 36.7619 28.3059 H 0.0 **** 0.053
362 H362 54.3414 35.0638 28.0377 H 0.0 **** 0.053
363 H363 54.749 36.1025 26.6604 H 0.0 **** 0.053
364 H364 59.0904 32.0406 28.8548 H 0.0 **** 0.053
365 H365 59.5255 32.2731 27.1646 H 0.0 **** 0.053
366 H366 57.9091 31.667 27.5905 H 0.0 **** 0.053
367 H367 57.8253 38.6281 28.0319 H 0.0 **** 0.053
368 H368 56.5849 38.2061 29.2233 H 0.0 **** 0.053
369 H369 56.2024 38.1713 27.494 H 0.0 **** 0.053
370 H370 62.4604 39.8716 29.5867 H 0.0 **** 0.053
371 H371 61.1161 39.443 30.6632 H 0.0 **** 0.053
372 H372 60.8928 39.4137 28.9085 H 0.0 **** 0.053
373 H373 64.616 37.9297 31.7758 H 0.0 **** 0.053
374 H374 63.524 39.2238 31.2563 H 0.0 **** 0.053
375 H375 64.9473 38.7931 30.277 H 0.0 **** 0.053
376 H376 66.8393 35.9733 30.6125 H 0.0 **** 0.41
377 H377 68.086 33.8961 35.6529 H 0.0 **** 0.053
378 H378 68.0532 35.3518 34.6281 H 0.0 **** 0.053
379 H379 69.1122 33.9886 34.2013 H 0.0 **** 0.053
380 H380 67.7361 30.3022 34.587 H 0.0 **** 0.053
381 H381 67.3795 31.6381 35.7098 H 0.0 **** 0.053
382 H382 68.8726 31.661 34.7433 H 0.0 **** 0.053
383 H383 67.995 28.8047 29.87 H 0.0 **** 0.41
384 H384 62.7775 30.4053 27.5249 H 0.0 **** 0.41
385 H385 71.1286 20.4278 28.9006 H 0.0 **** 0.053
386 H386 72.8138 20.9452 28.6866 H 0.0 **** 0.053
387 H387 71.8428 20.4607 27.283 H 0.0 **** 0.053
388 H388 73.7837 22.7703 29.5725 H 0.0 **** 0.053
389 H389 74.1993 24.2529 28.6814 H 0.0 **** 0.053
390 H390 74.1884 22.676 27.8518 H 0.0 **** 0.053
391 C391 28.6268 6.47775 25.2279 C.ar 0.0 **** 0.0
392 C392 27.991 7.71514 25.4388 C.ar 0.0 **** 0.0
393 C393 28.7503 8.90199 25.4299 C.ar 0.0 **** 0.0
394 C394 30.1258 8.8455 25.1942 C.ar 0.0 **** 0.0
395 C395 30.7604 7.61576 24.9271 C.ar 0.0 **** 0.0
396 C396 30.0049 6.42929 24.923 C.ar 0.0 **** 0.0
397 C397 30.9695 10.0863 25.2078 C.3 0.0 **** -0.106
398 C398 30.2976 11.3606 25.6277 C.ar 0.0 **** 0.0
399 C399 28.94 11.434 25.8452 C.ar 0.0 **** 0.0
400 C400 28.0615 10.2219 25.6752 C.3 0.0 **** -0.106
401 C401 28.3372 12.6648 26.2749 C.ar 0.0 **** 0.0
402 C402 29.1093 13.7933 26.5321 C.ar 0.0 **** 0.0
403 C403 30.5186 13.7519 26.2508 C.ar 0.0 **** 0.0
404 C404 31.1131 12.5216 25.7983 C.ar 0.0 **** 0.0
405 C405 32.4759 12.4632 25.4693 C.ar 0.0 **** -0.1268
406 C406 33.3477 13.5286 25.688 C.ar 0.0 **** 0.0
407 C407 32.8063 14.7186 26.3017 C.ar 0.0 **** 0.0
408 C408 31.3975 14.8568 26.369 C.ar 0.0 **** 0.042
409 C409 33.7196 15.6669 26.8695 C.2 0.0 **** 0.0
410 C410 35.0792 15.5905 26.5987 C.2 0.0 **** 0.0
411 C411 35.5796 14.6122 25.6743 C.ar 0.0 **** 0.0
412 C412 34.7421 13.5251 25.2877 C.ar 0.0 **** 0.0
413 C413 35.9637 16.4521 27.4698 C.3 0.0 **** -0.106
414 C414 35.5975 16.1919 28.9448 C.ar 0.0 **** -0.053
415 C415 34.1343 16.6248 29.2206 C.ar 0.0 **** -0.053
416 C416 33.3147 16.6926 27.9029 C.3 0.0 **** -0.106
417 C417 35.3121 12.4781 24.4738 C.ar 0.0 **** 0.042
418 C418 36.6513 12.5561 24.0222 C.ar 0.0 **** 0.052
419 C419 37.4567 13.6744 24.3398 C.ar 0.0 **** 0.052
420 C420 36.9191 14.709 25.134 C.ar 0.0 **** 0.042
421 C421 38.8237 13.7833 23.8681 C.2 0.0 **** 0.367
422 C422 39.3659 12.6849 23.0412 C.ar 0.0 **** 0.0
423 C423 38.5671 11.5949 22.757 C.ar 0.0 **** 0.0
424 C424 37.189 11.4964 23.2145 C.2 0.0 **** 0.367
425 C425 39.0979 10.4718 21.9144 C.3 0.0 **** -0.106
426 C426 40.5724 10.2254 22.221 C.3 0.0 **** -0.106
427 C427 41.3562 11.5052 22.1016 C.ar 0.0 **** 0.0
428 C428 40.7464 12.7165 22.5117 C.ar 0.0 **** 0.2405
429 N429 41.3813 13.896 22.4589 N.ar 0.0 **** -0.481
430 C430 42.6544 13.9297 22.0509 C.ar 0.0 **** 0.2405
431 C431 43.3466 12.7796 21.6152 C.ar 0.0 **** 0.0
432 C432 42.6775 11.5473 21.6271 C.ar 0.0 **** 0.0
433 C433 43.3764 10.2859 21.1673 C.3 0.0 **** -0.106
434 C434 44.6679 10.5476 20.3847 C.3 0.0 **** -0.106
435 C435 45.5155 11.6101 21.0825 C.3 0.0 **** -0.106
436 C436 44.7643 12.9405 21.1175 C.3 0.0 **** -0.053
437 C437 45.5082 13.9952 21.9387 C.3 0.0 **** -0.106
438 C438 44.747 15.2941 22.0331 C.ar 0.0 **** 0.0
439 C439 43.3384 15.2359 22.0796 C.ar 0.0 **** 0.0
440 C440 42.6017 16.4205 22.214 C.ar 0.0 **** -0.1268
441 C441 43.264 17.6394 22.2898 C.ar 0.0 **** -0.1268
442 C442 44.6654 17.7171 22.2548 C.ar 0.0 **** 0.0
443 C443 45.4157 16.5279 22.1379 C.ar 0.0 **** 0.0
444 C444 30.6653 5.0991 24.6271 C.3 0.0 **** -0.106
445 C445 31.3259 4.48782 25.8729 C.3 0.0 **** -0.159
446 C446 27.8261 5.19726 25.3356 C.3 0.0 **** -0.159
447 C447 32.2487 7.62635 24.6689 C.3 0.0 **** -0.159
448 C448 26.4983 7.76955 25.6749 C.3 0.0 **** -0.159
449 C449 26.8395 12.7015 26.4825 C.3 0.0 **** -0.159
450 C450 28.4775 14.9952 27.1985 C.3 0.0 **** -0.159
451 O451 30.8385 16.1083 26.5018 O.3 0.0 **** -0.452
452 C452 33.9953 17.9773 29.9267 C.3 0.0 **** -0.159
453 C453 36.6319 16.8143 29.8857 C.3 0.0 **** -0.159
454 O454 37.6471 15.7969 25.3535 O.3 0.0 **** -0.452
455 O455 34.6028 11.41 24.1186 O.3 0.0 **** -0.452
456 O456 36.4793 10.4794 22.8835 O.2 0.0 **** -0.419
457 O457 39.5193 14.7984 24.1882 O.2 0.0 **** -0.419
458 C458 46.9266 16.5597 22.1369 C.3 0.0 **** -0.159
459 C459 45.3317 19.0668 22.3546 C.3 0.0 **** -0.159
460 H460 31.8389 9.91921 25.8673 H 0.0 **** 0.053
461 H461 31.4239 10.2289 24.2079 H 0.0 **** 0.053
462 H462 27.3538 10.4123 24.8445 H 0.0 **** 0.053
463 H463 27.4136 10.1314 26.5636 H 0.0 **** 0.053
464 H464 32.8671 11.5659 25.0183 H 0.0 **** 0.1268
465 H465 37.0215 16.2409 27.3117 H 0.0 **** 0.053
466 H466 35.8177 17.5242 27.2416 H 0.0 **** 0.053
467 H467 35.6453 15.0986 29.0779 H 0.0 **** 0.053
468 H468 33.6672 15.8583 29.859 H 0.0 **** 0.053
469 H469 33.4776 17.7016 27.4766 H 0.0 **** 0.053
470 H470 32.257 16.6209 28.1736 H 0.0 **** 0.053
471 H471 38.4892 9.57267 22.0732 H 0.0 **** 0.053
472 H472 38.983 10.7493 20.8497 H 0.0 **** 0.053
473 H473 40.9668 9.44851 21.5544 H 0.0 **** 0.053
474 H474 40.6697 9.8339 23.2514 H 0.0 **** 0.053
475 H475 43.6023 9.6678 22.055 H 0.0 **** 0.053
476 H476 42.6901 9.68285 20.5529 H 0.0 **** 0.053
477 H477 44.4158 10.9025 19.3714 H 0.0 **** 0.053
478 H478 45.2261 9.60652 20.2668 H 0.0 **** 0.053
479 H479 46.4839 11.7437 20.5748 H 0.0 **** 0.053
480 H480 45.7307 11.2923 22.118 H 0.0 **** 0.053
481 H481 44.699 13.3234 20.0789 H 0.0 **** 0.053
482 H482 45.6796 13.595 22.9571 H 0.0 **** 0.053
483 H483 46.502 14.1499 21.4961 H 0.0 **** 0.053
484 H484 41.5153 16.3566 22.2755 H 0.0 **** 0.1268
485 H485 42.6893 18.5626 22.3916 H 0.0 **** 0.1268
486 H486 31.4186 5.22314 23.8352 H 0.0 **** 0.053
487 H487 29.9278 4.3936 24.2206 H 0.0 **** 0.053
488 H488 30.5835 4.35076 26.674 H 0.0 **** 0.053
489 H489 32.109 5.15567 26.2617 H 0.0 **** 0.053
490 H490 31.7812 3.5104 25.6497 H 0.0 **** 0.053
491 H491 26.9794 5.30994 26.0246 H 0.0 **** 0.053
492 H492 28.4402 4.36646 25.7067 H 0.0 **** 0.053
493 H493 27.4146 4.88852 24.3586 H 0.0 **** 0.053
494 H494 32.7924 8.02611 25.5409 H 0.0 **** 0.053
495 H495 32.504 8.28624 23.8235 H 0.0 **** 0.053
496 H496 32.6561 6.63232 24.4581 H 0.0 **** 0.053
497 H497 26.0737 8.74195 25.396 H 0.0 **** 0.053
498 H498 26.2491 7.59907 26.7373 H 0.0 **** 0.053
499 H499 25.9712 7.00141 25.0932 H 0.0 **** 0.053
500 H500 26.4266 13.6968 26.275 H 0.0 **** 0.053
501 H501 26.5648 12.4389 27.5194 H 0.0 **** 0.053
502 H502 26.3252 11.9898 25.8251 H 0.0 **** 0.053
503 H503 29.1524 15.4215 27.9501 H 0.0 **** 0.053
504 H504 27.5448 14.72 27.7038 H 0.0 **** 0.053
505 H505 28.2568 15.802 26.4822 H 0.0 **** 0.053
506 H506 31.5255 16.7669 26.3122 H 0.0 **** 0.41
507 H507 34.4425 17.9663 30.9302 H 0.0 **** 0.053
508 H508 32.9328 18.2469 30.0288 H 0.0 **** 0.053
509 H509 34.4873 18.7723 29.3437 H 0.0 **** 0.053
510 H510 37.6294 16.3968 29.6836 H 0.0 **** 0.053
511 H511 36.3863 16.6164 30.9401 H 0.0 **** 0.053
512 H512 36.6895 17.9049 29.7519 H 0.0 **** 0.053
513 H513 38.5834 15.565 24.8921 H 0.0 **** 0.41
514 H514 35.269 10.8282 23.528 H 0.0 **** 0.41
515 H515 47.3403 15.8287 22.8482 H 0.0 **** 0.053
516 H516 47.3169 17.5481 22.405 H 0.0 **** 0.053
517 H517 47.3315 16.3005 21.1436 H 0.0 **** 0.053
518 H518 45.9696 19.1374 23.251 H 0.0 **** 0.053
519 H519 44.5808 19.8665 22.4116 H 0.0 **** 0.053
520 H520 45.9792 19.2649 21.4855 H 0.0 **** 0.053
521 C521 81.7836 69.6077 22.5434 C.ar 0.0 **** 0.0
522 C522 82.0622 69.3047 23.8889 C.ar 0.0 **** 0.0
523 C523 81.014 69.2722 24.8299 C.ar 0.0 **** 0.0
524 C524 79.7029 69.5232 24.4191 C.ar 0.0 **** 0.0
525 C525 79.4087 69.7727 23.0635 C.ar 0.0 **** 0.0
526 C526 80.4499 69.7944 22.118 C.ar 0.0 **** 0.0
527 C527 78.5671 69.5266 25.3996 C.3 0.0 **** -0.106
528 C528 78.922 69.3945 26.8515 C.ar 0.0 **** 0.0
529 C529 80.207 69.1288 27.2688 C.ar 0.0 **** 0.0
530 C530 81.3262 68.9641 26.2737 C.3 0.0 **** -0.106
531 C531 80.5135 69.0384 28.669 C.ar 0.0 **** 0.0
532 C532 79.5393 69.2672 29.6355 C.ar 0.0 **** 0.0
533 C533 78.1809 69.4841 29.2175 C.ar 0.0 **** 0.0
534 C534 77.876 69.5508 27.8124 C.ar 0.0 **** 0.0
535 C535 76.553 69.7126 27.3735 C.ar 0.0 **** -0.1268
536 C536 75.4955 69.9537 28.2489 C.ar 0.0 **** 0.0
537 C537 75.8048 70.0614 29.6555 C.ar 0.0 **** 0.0
538 C538 77.0793 69.6264 30.097 C.ar 0.0 **** 0.042
539 C539 74.8333 70.6627 30.5217 C.2 0.0 **** 0.0
540 C540 73.5336 70.8809 30.0847 C.2 0.0 **** 0.0
541 C541 73.12 70.4264 28.7869 C.ar 0.0 **** 0.0
542 C542 74.109 70.048 27.8323 C.ar 0.0 **** 0.0
543 C543 72.6922 71.7705 30.9702 C.3 0.0 **** -0.106
544 C544 73.4859 73.06 31.2614 C.ar 0.0 **** -0.053
545 C545 74.7782 72.7296 32.0521 C.ar 0.0 **** -0.053
546 C546 75.1732 71.2376 31.8773 C.3 0.0 **** -0.106
547 C547 73.6799 69.7334 26.4906 C.ar 0.0 **** 0.042
548 C548 72.3073 69.7437 26.1451 C.ar 0.0 **** 0.052
549 C549 71.3209 70.0412 27.1141 C.ar 0.0 **** 0.052
550 C550 71.7187 70.3512 28.4315 C.ar 0.0 **** 0.042
551 C551 69.9085 70.0351 26.7854 C.2 0.0 **** 0.367
552 C552 69.5165 69.7113 25.3976 C.ar 0.0 **** 0.0
553 C553 70.4971 69.44 24.464 C.ar 0.0 **** 0.0
554 C554 71.9132 69.4271 24.8002 C.2 0.0 **** 0.367
555 C555 70.119 69.1039 23.0508 C.3 0.0 **** -0.106
556 C556 68.9121 69.9278 22.611 C.3 0.0 **** -0.106
557 C557 67.7857 69.7808 23.599 C.ar 0.0 **** 0.0
558 C558 68.0993 69.6746 24.9765 C.ar 0.0 **** 0.2405
559 N559 67.1565 69.5627 25.9229 N.ar 0.0 **** -0.481
560 C560 65.8689 69.6013 25.5637 C.ar 0.0 **** 0.2405
561 C561 65.455 69.6971 24.2179 C.ar 0.0 **** 0.0
562 C562 66.4341 69.7725 23.2169 C.ar 0.0 **** 0.0
563 C563 66.0402 69.8742 21.759 C.3 0.0 **** -0.106
564 C564 64.5725 69.5232 21.4916 C.3 0.0 **** -0.106
565 C565 63.6616 70.1955 22.5176 C.3 0.0 **** -0.106
566 C566 63.9739 69.6718 23.9189 C.3 0.0 **** -0.053
567 C567 63.1927 70.4246 24.9974 C.3 0.0 **** -0.106
568 C568 63.5388 69.9593 26.39 C.ar 0.0 **** 0.0
569 C569 64.865 69.5508 26.6428 C.ar 0.0 **** 0.0
570 C570 65.2322 69.1566 27.9365 C.ar 0.0 **** -0.1268
571 C571 64.2858 69.1623 28.9537 C.ar 0.0 **** -0.1268
572 C572 62.9635 69.5745 28.724 C.ar 0.0 **** 0.0
573 C573 62.5896 69.9902 27.4286 C.ar 0.0 **** 0.0
574 C574 80.1538 70.0493 20.655 C.3 0.0 **** -0.106
575 C575 80.0454 71.5489 20.3362 C.3 0.0 **** -0.159
576 C576 82.9228 69.7387 21.5547 C.3 0.0 **** -0.159
577 C577 77.9683 70.0247 22.6845 C.3 0.0 **** -0.159
578 C578 83.482 69.0159 24.3223 C.3 0.0 **** -0.159
579 C579 81.9357 68.7259 29.0781 C.3 0.0 **** -0.159
580 C580 79.9421 69.3906 31.0882 C.3 0.0 **** -0.159
581 O581 77.2629 69.2739 31.4154 O.3 0.0 **** -0.452
582 C582 74.6934 73.017 33.5545 C.3 0.0 **** -0.159
583 C583 72.5943 74.1182 31.9154 C.3 0.0 **** -0.159
584 O584 70.7872 70.5404 29.3579 O.3 0.0 **** -0.452
585 O585 74.5534 69.4216 25.5367 O.3 0.0 **** -0.452
586 O586 72.7783 69.1255 23.9014 O.2 0.0 **** -0.419
587 O587 69.0539 70.3225 27.682 O.2 0.0 **** -0.419
588 C588 61.1886 70.4801 27.1441 C.3 0.0 **** -0.159
589 C589 61.9814 69.5732 29.8691 C.3 0.0 **** -0.159
590 H590 77.9853 70.4557 25.2682 H 0.0 **** 0.053
591 H591 77.849 68.7284 25.1281 H 0.0 **** 0.053
592 H592 81.7081 67.9263 26.3401 H 0.0 **** 0.053
593 H593 82.1785 69.5844 26.5991 H 0.0 **** 0.053
594 H594 76.3385 69.6366 26.3201 H 0.0 **** 0.1268
595 H595 71.7388 72.0236 30.5058 H 0.0 **** 0.053
596 H596 72.4546 71.2653 31.9248 H 0.0 **** 0.053
597 H597 73.7956 73.4506 30.278 H 0.0 **** 0.053
598 H598 75.5969 73.3372 31.6353 H 0.0 **** 0.053
599 H599 74.6186 70.6676 32.6479 H 0.0 **** 0.053
600 H600 76.2381 71.1531 32.1141 H 0.0 **** 0.053
601 H601 70.9831 69.2566 22.3919 H 0.0 **** 0.053
602 H602 69.869 68.0273 23.0027 H 0.0 **** 0.053
603 H603 68.6038 69.6276 21.6019 H 0.0 **** 0.053
604 H604 69.2026 70.9936 22.5464 H 0.0 **** 0.053
605 H605 66.2417 70.9042 21.4133 H 0.0 **** 0.053
606 H606 66.6898 69.225 21.1517 H 0.0 **** 0.053
607 H607 64.4396 68.4305 21.5596 H 0.0 **** 0.053
608 H608 64.3028 69.8172 20.4659 H 0.0 **** 0.053
609 H609 62.5998 70.0192 22.2834 H 0.0 **** 0.053
610 H610 63.8233 71.2877 22.4985 H 0.0 **** 0.053
611 H611 63.6543 68.6111 23.9664 H 0.0 **** 0.053
612 H612 63.4145 71.5058 24.9056 H 0.0 **** 0.053
613 H613 62.1181 70.3115 24.7977 H 0.0 **** 0.053
614 H614 66.2672 68.8695 28.1217 H 0.0 **** 0.1268
615 H615 64.5718 68.8522 29.9611 H 0.0 **** 0.1268
616 H616 79.2196 69.5442 20.3687 H 0.0 **** 0.053
617 H617 80.9342 69.5973 20.0276 H 0.0 **** 0.053
618 H618 80.9758 72.0689 20.611 H 0.0 **** 0.053
619 H619 79.2294 72.0083 20.9137 H 0.0 **** 0.053
620 H620 79.854 71.721 19.2656 H 0.0 **** 0.053
621 H621 83.8474 70.0639 22.0482 H 0.0 **** 0.053
622 H622 82.6955 70.4732 20.7711 H 0.0 **** 0.053
623 H623 83.1399 68.7802 21.0512 H 0.0 **** 0.053
624 H624 77.5759 70.9095 23.2125 H 0.0 **** 0.053
625 H625 77.3224 69.1824 22.9822 H 0.0 **** 0.053
626 H626 77.829 70.1963 21.6122 H 0.0 **** 0.053
627 H627 83.517 68.3956 25.2265 H 0.0 **** 0.053
628 H628 84.0353 69.9456 24.5447 H 0.0 **** 0.053
629 H629 84.0416 68.4874 23.5389 H 0.0 **** 0.053
630 H630 81.9717 68.1695 30.0233 H 0.0 **** 0.053
631 H631 82.5329 69.6452 29.2124 H 0.0 **** 0.053
632 H632 82.4476 68.1195 28.321 H 0.0 **** 0.053
633 H633 79.3899 70.2023 31.5763 H 0.0 **** 0.053
634 H634 81.0118 69.6092 31.1829 H 0.0 **** 0.053
635 H635 79.7249 68.4754 31.6611 H 0.0 **** 0.053
636 H636 76.389 69.1745 31.8254 H 0.0 **** 0.41
637 H637 74.5437 74.0854 33.7621 H 0.0 **** 0.053
638 H638 75.6195 72.6976 34.0569 H 0.0 **** 0.053
639 H639 73.8577 72.4616 34.0098 H 0.0 **** 0.053
640 H640 71.7454 74.3588 31.2583 H 0.0 **** 0.053
641 H641 73.1503 75.048 32.109 H 0.0 **** 0.053
642 H642 72.1882 73.7622 32.874 H 0.0 **** 0.053
643 H643 69.8736 70.4806 28.8056 H 0.0 **** 0.41
644 H644 73.9574 69.2355 24.6757 H 0.0 **** 0.41
645 H645 61.2045 71.4368 26.6 H 0.0 **** 0.053
646 H646 60.6097 70.6255 28.0633 H 0.0 **** 0.053
647 H647 60.6352 69.7646 26.5121 H 0.0 **** 0.053
648 H648 61.6045 70.5875 30.0796 H 0.0 **** 0.053
649 H649 62.4541 69.1925 30.7846 H 0.0 **** 0.053
650 H650 61.103 68.9454 29.6495 H 0.0 **** 0.053
651 C651 44.2912 29.0646 64.5177 C.ar 0.0 **** 0.0
652 C652 45.5174 28.5301 64.9543 C.ar 0.0 **** 0.0
653 C653 45.5273 27.4718 65.8844 C.ar 0.0 **** 0.0
654 C654 44.3208 26.9476 66.3539 C.ar 0.0 **** 0.0
655 C655 43.0887 27.4404 65.8792 C.ar 0.0 **** 0.0
656 C656 43.0733 28.4889 64.9416 C.ar 0.0 **** 0.0
657 C657 44.2947 25.8412 67.3672 C.3 0.0 **** -0.106
658 C658 45.6112 25.4282 67.9569 C.ar 0.0 **** 0.0
659 C659 46.8085 25.9234 67.4908 C.ar 0.0 **** 0.0
660 C660 46.8479 26.918 66.3599 C.3 0.0 **** -0.106
661 C661 48.0469 25.5265 68.1005 C.ar 0.0 **** 0.0
662 C662 48.0673 24.6788 69.2034 C.ar 0.0 **** 0.0
663 C663 46.8321 24.1043 69.6632 C.ar 0.0 **** 0.0
664 C664 45.5963 24.4884 69.0332 C.ar 0.0 **** 0.0
665 C665 44.381 23.9083 69.4273 C.ar 0.0 **** -0.1268
666 C666 44.2781 23.0497 70.5205 C.ar 0.0 **** 0.0
667 C667 45.4803 22.7831 71.275 C.ar 0.0 **** 0.0
668 C668 46.7249 23.1504 70.7052 C.ar 0.0 **** 0.042
669 C669 45.3493 22.2216 72.5877 C.2 0.0 **** 0.0
670 C670 44.1382 21.6931 73.0142 C.2 0.0 **** 0.0
671 C671 43.022 21.6217 72.1138 C.ar 0.0 **** 0.0
672 C672 43.0521 22.3755 70.904 C.ar 0.0 **** 0.0
673 C673 44.0438 21.3987 74.4934 C.3 0.0 **** -0.106
674 C674 44.4948 22.6522 75.2699 C.ar 0.0 **** -0.053
675 C675 45.9827 22.9666 74.967 C.ar 0.0 **** -0.053
676 C676 46.4337 22.3029 73.6371 C.3 0.0 **** -0.106
677 C677 41.8636 22.4033 70.0854 C.ar 0.0 **** 0.042
678 C678 40.7166 21.6553 70.4435 C.ar 0.0 **** 0.052
679 C679 40.7161 20.8442 71.6021 C.ar 0.0 **** 0.052
680 C680 41.8674 20.8025 72.4162 C.ar 0.0 **** 0.042
681 C681 39.5588 20.0533 71.9739 C.2 0.0 **** 0.367
682 C682 38.363 20.1166 71.1076 C.ar 0.0 **** 0.0
683 C683 38.3799 20.9278 69.9902 C.ar 0.0 **** 0.0
684 C684 39.549 21.7056 69.6076 C.2 0.0 **** 0.367
685 C685 37.1773 21.0015 69.0951 C.3 0.0 **** -0.106
686 C686 35.8942 20.9342 69.9186 C.3 0.0 **** -0.106
687 C687 35.9121 19.7317 70.8242 C.ar 0.0 **** 0.0
688 C688 37.1419 19.3376 71.4067 C.ar 0.0 **** 0.2405
689 N689 37.2415 18.2929 72.2407 N.ar 0.0 **** -0.481
690 C690 36.1336 17.6238 72.5774 C.ar 0.0 **** 0.2405
691 C691 34.8637 17.934 72.0455 C.ar 0.0 **** 0.0
692 C692 34.756 18.999 71.1398 C.ar 0.0 **** 0.0
693 C693 33.4163 19.369 70.5403 C.3 0.0 **** -0.106
694 C694 32.3419 18.2911 70.7209 C.3 0.0 **** -0.106
695 C695 32.3513 17.7545 72.1514 C.3 0.0 **** -0.106
696 C696 33.6876 17.0747 72.4477 C.3 0.0 **** -0.053
697 C697 33.8022 16.6551 73.9144 C.3 0.0 **** -0.106
698 C698 35.1416 16.039 74.2342 C.ar 0.0 **** 0.0
699 C699 36.2767 16.5294 73.5554 C.ar 0.0 **** 0.0
700 C700 37.5425 16.0116 73.8618 C.ar 0.0 **** -0.1268
701 C701 37.6658 15.0152 74.822 C.ar 0.0 **** -0.1268
702 C702 36.5493 14.5209 75.515 C.ar 0.0 **** 0.0
703 C703 35.2733 15.0492 75.2259 C.ar 0.0 **** 0.0
704 C704 41.7605 29.0252 64.4104 C.3 0.0 **** -0.106
705 C705 41.1351 30.0677 65.3507 C.3 0.0 **** -0.159
706 C706 44.2846 30.265 63.5949 C.3 0.0 **** -0.159
707 C707 41.821 26.8212 66.4191 C.3 0.0 **** -0.159
708 C708 46.8191 29.091 64.4272 C.3 0.0 **** -0.159
709 C709 49.3377 26.0826 67.5415 C.3 0.0 **** -0.159
710 C710 49.3605 24.4653 69.9582 C.3 0.0 **** -0.159
711 O711 47.8801 22.5322 71.1288 O.3 0.0 **** -0.452
712 C712 46.9595 22.5273 76.0625 C.3 0.0 **** -0.159
713 C713 44.1629 22.5252 76.7586 C.3 0.0 **** -0.159
714 O714 41.8949 19.9716 73.4508 O.3 0.0 **** -0.452
715 O715 41.8049 23.1263 68.9701 O.3 0.0 **** -0.452
716 O716 39.5227 22.4088 68.5343 O.2 0.0 **** -0.419
717 O717 39.5936 19.3483 73.0315 O.2 0.0 **** -0.419
718 C718 34.0489 14.5765 75.9749 C.3 0.0 **** -0.159
719 C719 36.7441 13.4479 76.5572 C.3 0.0 **** -0.159
720 H720 43.6204 26.1294 68.1925 H 0.0 **** 0.053
721 H721 43.8015 24.9537 66.9249 H 0.0 **** 0.053
722 H722 47.3682 26.4537 65.4991 H 0.0 **** 0.053
723 H723 47.506 27.7541 66.6513 H 0.0 **** 0.053
724 H724 43.4908 24.1222 68.8587 H 0.0 **** 0.1268
725 H725 43.0308 21.1275 74.7913 H 0.0 **** 0.053
726 H726 44.693 20.5466 74.768 H 0.0 **** 0.053
727 H727 43.8964 23.4862 74.8678 H 0.0 **** 0.053
728 H728 46.0813 24.0563 74.8404 H 0.0 **** 0.053
729 H729 46.7564 21.2735 73.8868 H 0.0 **** 0.053
730 H730 47.3174 22.8446 73.2864 H 0.0 **** 0.053
731 H731 37.2271 21.9125 68.4854 H 0.0 **** 0.053
732 H732 37.2113 20.1471 68.3931 H 0.0 **** 0.053
733 H733 35.0235 20.9224 69.2514 H 0.0 **** 0.053
734 H734 35.8068 21.8507 70.5324 H 0.0 **** 0.053
735 H735 33.074 20.3118 71.0039 H 0.0 **** 0.053
736 H736 33.5366 19.592 69.4688 H 0.0 **** 0.053
737 H737 32.5401 17.4573 70.0268 H 0.0 **** 0.053
738 H738 31.3563 18.7031 70.4563 H 0.0 **** 0.053
739 H739 31.5277 17.0416 72.3148 H 0.0 **** 0.053
740 H740 32.2076 18.5879 72.8616 H 0.0 **** 0.053
741 H741 33.7424 16.1493 71.8394 H 0.0 **** 0.053
742 H742 33.6471 17.5478 74.5513 H 0.0 **** 0.053
743 H743 32.9818 15.9624 74.1478 H 0.0 **** 0.053
744 H744 38.4127 16.4199 73.348 H 0.0 **** 0.1268
745 H745 38.6522 14.61 75.0583 H 0.0 **** 0.1268
746 H746 41.0527 28.1974 64.2568 H 0.0 **** 0.053
747 H747 41.9089 29.4706 63.4172 H 0.0 **** 0.053
748 H748 41.8288 30.9074 65.5101 H 0.0 **** 0.053
749 H749 40.9256 29.6234 66.3351 H 0.0 **** 0.053
750 H750 40.194 30.467 64.9416 H 0.0 **** 0.053
751 H751 45.1757 30.8887 63.741 H 0.0 **** 0.053
752 H752 43.4081 30.903 63.7679 H 0.0 **** 0.053
753 H753 44.2657 29.9645 62.5326 H 0.0 **** 0.053
754 H754 41.7595 26.9504 67.5123 H 0.0 **** 0.053
755 H755 41.7987 25.7336 66.2403 H 0.0 **** 0.053
756 H756 40.9128 27.2544 65.9878 H 0.0 **** 0.053
757 H757 47.6337 28.3582 64.4816 H 0.0 **** 0.053
758 H758 47.141 29.9777 65.0016 H 0.0 **** 0.053
759 H759 46.7267 29.4029 63.3781 H 0.0 **** 0.053
760 H760 50.169 25.377 67.6648 H 0.0 **** 0.053
761 H761 49.6262 27.0244 68.0408 H 0.0 **** 0.053
762 H762 49.2501 26.302 66.4704 H 0.0 **** 0.053
763 H763 49.1818 24.4583 71.04 H 0.0 **** 0.053
764 H764 50.0786 25.2646 69.7428 H 0.0 **** 0.053
765 H765 49.8332 23.5014 69.7127 H 0.0 **** 0.053
766 H766 47.6312 21.7452 71.6391 H 0.0 **** 0.41
767 H767 46.7832 23.0572 77.0087 H 0.0 **** 0.053
768 H768 47.9968 22.7227 75.7494 H 0.0 **** 0.053
769 H769 46.8666 21.4465 76.2553 H 0.0 **** 0.053
770 H770 43.0802 22.3869 76.8962 H 0.0 **** 0.053
771 H771 44.4656 23.4248 77.3158 H 0.0 **** 0.053
772 H772 44.6732 21.6613 77.2101 H 0.0 **** 0.053
773 H773 40.911 19.5529 73.4578 H 0.0 **** 0.41
774 H774 40.8301 22.9473 68.5839 H 0.0 **** 0.41
775 H775 33.4572 15.4268 76.347 H 0.0 **** 0.053
776 H776 34.3101 13.9471 76.8334 H 0.0 **** 0.053
777 H777 33.3826 13.9877 75.3214 H 0.0 **** 0.053
778 H778 36.4337 13.7941 77.5568 H 0.0 **** 0.053
779 H779 37.8002 13.1519 76.616 H 0.0 **** 0.053
780 H780 36.1476 12.5495 76.3311 H 0.0 **** 0.053
781 C781 9.47287 7.40477 49.9527 C.ar 0.0 **** 0.0
782 C782 9.58864 6.00378 50.0139 C.ar 0.0 **** 0.0
783 C783 9.4212 5.34152 51.2463 C.ar 0.0 **** 0.0
784 C784 9.12388 6.07685 52.3959 C.ar 0.0 **** 0.0
785 C785 8.95154 7.47418 52.332 C.ar 0.0 **** 0.0
786 C786 9.10579 8.13884 51.102 C.ar 0.0 **** 0.0
787 C787 8.96904 5.40726 53.7298 C.3 0.0 **** -0.106
788 C788 9.29056 3.94314 53.7969 C.ar 0.0 **** 0.0
789 C789 9.56723 3.20297 52.6693 C.ar 0.0 **** 0.0
790 C790 9.56547 3.84062 51.3043 C.3 0.0 **** -0.106
791 C791 9.89942 1.8098 52.7766 C.ar 0.0 **** 0.0
792 C792 10.0016 1.18746 54.0166 C.ar 0.0 **** 0.0
793 C793 9.65573 1.92909 55.1988 C.ar 0.0 **** 0.0
794 C794 9.30128 3.31923 55.0824 C.ar 0.0 **** 0.0
795 C795 8.91203 4.05601 56.2114 C.ar 0.0 **** -0.1268
796 C796 8.97746 3.53969 57.5044 C.ar 0.0 **** 0.0
797 C797 9.49347 2.20015 57.6627 C.ar 0.0 **** 0.0
798 C798 9.61692 1.38824 56.5077 C.ar 0.0 **** 0.042
799 C799 9.91558 1.78348 58.9681 C.2 0.0 **** 0.0
800 C800 9.58612 2.53069 60.091 C.2 0.0 **** 0.0
801 C801 8.74199 3.68597 59.97 C.ar 0.0 **** 0.0
802 C802 8.51019 4.24878 58.6807 C.ar 0.0 **** 0.0
803 C803 10.3199 2.15602 61.3578 C.3 0.0 **** -0.106
804 C804 11.8302 2.10889 61.0508 C.ar 0.0 **** -0.053
805 C805 12.1335 1.00058 60.0097 C.ar 0.0 **** -0.053
806 C806 10.8585 0.626576 59.2053 C.3 0.0 **** -0.106
807 C807 7.77933 5.49066 58.5976 C.ar 0.0 **** 0.042
808 C808 7.25558 6.10513 59.7602 C.ar 0.0 **** 0.052
809 C809 7.41728 5.50395 61.0301 C.ar 0.0 **** 0.052
810 C810 8.12816 4.28988 61.1337 C.ar 0.0 **** 0.042
811 C811 6.86905 6.10634 62.2299 C.2 0.0 **** 0.367
812 C812 6.13182 7.38036 62.0966 C.ar 0.0 **** 0.0
813 C813 6.00009 7.95787 60.8492 C.ar 0.0 **** 0.0
814 C814 6.53372 7.34198 59.6433 C.2 0.0 **** 0.367
815 C815 5.25039 9.24878 60.6926 C.3 0.0 **** -0.106
816 C816 5.50617 10.1629 61.8876 C.3 0.0 **** -0.106
817 C817 5.2183 9.43869 63.1757 C.ar 0.0 **** 0.0
818 C818 5.53326 8.0603 63.2656 C.ar 0.0 **** 0.2405
819 N819 5.3293 7.34662 64.3819 N.ar 0.0 **** -0.481
820 C820 4.85667 7.96452 65.4697 C.ar 0.0 **** 0.2405
821 C821 4.50591 9.33149 65.4786 C.ar 0.0 **** 0.0
822 C822 4.67637 10.0771 64.3033 C.ar 0.0 **** 0.0
823 C823 4.31262 11.5458 64.2623 C.3 0.0 **** -0.106
824 C824 3.44373 11.9984 65.4409 C.3 0.0 **** -0.106
825 C825 3.98666 11.4419 66.7561 C.3 0.0 **** -0.106
826 C826 3.92394 9.91501 66.7452 C.3 0.0 **** -0.053
827 C827 4.59556 9.30687 67.9778 C.3 0.0 **** -0.106
828 C828 4.59559 7.79857 67.9486 C.ar 0.0 **** 0.0
829 C829 4.71829 7.15913 66.6972 C.ar 0.0 **** 0.0
830 C830 4.76842 5.75986 66.6381 C.ar 0.0 **** -0.1268
831 C831 4.68681 5.0169 67.8092 C.ar 0.0 **** -0.1268
832 C832 4.57392 5.63511 69.0646 C.ar 0.0 **** 0.0
833 C833 4.54093 7.04393 69.1351 C.ar 0.0 **** 0.0
834 C834 8.91379 9.63807 51.0096 C.3 0.0 **** -0.106
835 C835 10.1806 10.4123 51.407 C.3 0.0 **** -0.159
836 C836 9.75004 8.122 48.6484 C.3 0.0 **** -0.159
837 C837 8.61932 8.2076 53.6101 C.3 0.0 **** -0.159
838 C838 9.89252 5.21306 48.7612 C.3 0.0 **** -0.159
839 C839 10.177 1.0339 51.5083 C.3 0.0 **** -0.159
840 C840 10.5734 -0.209977 54.1068 C.3 0.0 **** -0.159
841 O841 9.64983 0.0175725 56.6354 O.3 0.0 **** -0.452
842 C842 12.7047 -0.290129 60.6055 C.3 0.0 **** -0.159
843 C843 12.65 2.01108 62.3396 C.3 0.0 **** -0.159
844 O844 8.19935 3.68377 62.3123 O.3 0.0 **** -0.452
845 O845 7.57042 6.09734 57.4321 O.3 0.0 **** -0.452
846 O846 6.34369 7.90241 58.5044 O.2 0.0 **** -0.419
847 O847 7.04911 5.5414 63.3547 O.2 0.0 **** -0.419
848 C848 4.46091 7.75339 70.4671 C.3 0.0 **** -0.159
849 C849 4.50262 4.77874 70.3044 C.3 0.0 **** -0.159
850 H850 9.59776 5.93444 54.4685 H 0.0 **** 0.053
851 H851 7.93836 5.56922 54.1013 H 0.0 **** 0.053
852 H852 8.75622 3.38318 50.7017 H 0.0 **** 0.053
853 H853 10.4898 3.54618 50.7788 H 0.0 **** 0.053
854 H854 8.53549 5.05703 56.0783 H 0.0 **** 0.1268
855 H855 10.1312 2.86601 62.1633 H 0.0 **** 0.053
856 H856 9.99154 1.16611 61.7255 H 0.0 **** 0.053
857 H857 12.071 3.07547 60.5785 H 0.0 **** 0.053
858 H858 12.869 1.39892 59.2931 H 0.0 **** 0.053
859 H859 10.3243 -0.14492 59.7933 H 0.0 **** 0.053
860 H860 11.1877 0.155584 58.2742 H 0.0 **** 0.053
861 H861 5.52994 9.72442 59.744 H 0.0 **** 0.053
862 H862 4.17008 9.01967 60.6269 H 0.0 **** 0.053
863 H863 4.90299 11.0745 61.7952 H 0.0 **** 0.053
864 H864 6.56481 10.4848 61.8799 H 0.0 **** 0.053
865 H865 5.24605 12.1369 64.2442 H 0.0 **** 0.053
866 H866 3.7977 11.7756 63.3166 H 0.0 **** 0.053
867 H867 2.41355 11.6316 65.2976 H 0.0 **** 0.053
868 H868 3.39416 13.0975 65.4634 H 0.0 **** 0.053
869 H869 3.42011 11.8307 67.6171 H 0.0 **** 0.053
870 H870 5.03699 11.7569 66.8872 H 0.0 **** 0.053
871 H871 2.8565 9.61666 66.7759 H 0.0 **** 0.053
872 H872 5.6394 9.67324 68.0294 H 0.0 **** 0.053
873 H873 4.09027 9.68543 68.8772 H 0.0 **** 0.053
874 H874 4.89047 5.28165 65.6662 H 0.0 **** 0.1268
875 H875 4.72297 3.9263 67.7622 H 0.0 **** 0.1268
876 H876 8.07663 9.94851 51.652 H 0.0 **** 0.053
877 H877 8.61847 9.91867 49.9893 H 0.0 **** 0.053
878 H878 11.0276 10.1179 50.7687 H 0.0 **** 0.053
879 H879 10.4598 10.1878 52.4473 H 0.0 **** 0.053
880 H880 10.0353 11.4996 51.3125 H 0.0 **** 0.053
881 H881 10.4656 7.56652 48.0289 H 0.0 **** 0.053
882 H882 10.1724 9.12097 48.8182 H 0.0 **** 0.053
883 H883 8.83132 8.25293 48.0501 H 0.0 **** 0.053
884 H884 9.41785 8.06863 54.3576 H 0.0 **** 0.053
885 H885 7.69955 7.81207 54.0716 H 0.0 **** 0.053
886 H886 8.49041 9.28529 53.467 H 0.0 **** 0.053
887 H887 9.53797 4.17738 48.8334 H 0.0 **** 0.053
888 H888 10.9779 5.17155 48.561 H 0.0 **** 0.053
889 H889 9.41892 5.66212 47.8778 H 0.0 **** 0.053
890 H890 9.89046 -0.0206286 51.6083 H 0.0 **** 0.053
891 H891 11.2476 1.06179 51.2391 H 0.0 **** 0.053
892 H892 9.6219 1.44498 50.6562 H 0.0 **** 0.053
893 H893 11.243 -0.300282 54.9703 H 0.0 **** 0.053
894 H894 11.1501 -0.457942 53.2086 H 0.0 **** 0.053
895 H895 9.79079 -0.973953 54.2362 H 0.0 **** 0.053
896 H896 9.36013 -0.208526 57.5336 H 0.0 **** 0.41
897 H897 13.6805 -0.127056 61.0834 H 0.0 **** 0.053
898 H898 12.832 -1.04972 59.8188 H 0.0 **** 0.053
899 H899 12.0201 -0.70476 61.3627 H 0.0 **** 0.053
900 H900 12.4415 2.8742 62.9891 H 0.0 **** 0.053
901 H901 13.73 1.99571 62.1285 H 0.0 **** 0.053
902 H902 12.4033 1.0984 62.9024 H 0.0 **** 0.053
903 H903 7.71756 4.37209 62.9737 H 0.0 **** 0.41
904 H904 7.00932 6.96687 57.6776 H 0.0 **** 0.41
905 H905 5.22113 8.54583 70.542 H 0.0 **** 0.053
906 H906 4.60739 7.066 71.3081 H 0.0 **** 0.053
907 H907 3.48012 8.24048 70.6026 H 0.0 **** 0.053
908 H908 5.35404 4.97075 70.9779 H 0.0 **** 0.053
909 H909 4.5156 3.71262 70.0403 H 0.0 **** 0.053
910 H910 3.5865 4.9781 70.8832 H 0.0 **** 0.053
911 C911 71.6033 25.6374 54.476 C.ar 0.0 **** 0.0
912 C912 71.7899 24.9347 55.6807 C.ar 0.0 **** 0.0
913 C913 71.8859 25.6424 56.8953 C.ar 0.0 **** 0.0
914 C914 71.7776 27.0349 56.899 C.ar 0.0 **** 0.0
915 C915 71.5352 27.7411 55.7036 C.ar 0.0 **** 0.0
916 C916 71.4266 27.0385 54.49 C.ar 0.0 **** 0.0
917 C917 71.9053 27.8223 58.17 C.3 0.0 **** -0.106
918 C918 72.2976 27.0631 59.4034 C.ar 0.0 **** 0.0
919 C919 72.39 25.6894 59.4179 C.ar 0.0 **** 0.0
920 C920 72.1042 24.8806 58.1794 C.3 0.0 **** -0.106
921 C921 72.7972 24.9999 60.6102 C.ar 0.0 **** 0.0
922 C922 73.1575 25.6982 61.7582 C.ar 0.0 **** 0.0
923 C923 73.0073 27.128 61.7798 C.ar 0.0 **** 0.0
924 C924 72.5767 27.8113 60.5884 C.ar 0.0 **** 0.0
925 C925 72.3742 29.1998 60.5927 C.ar 0.0 **** -0.1268
926 C926 72.7037 30.0035 61.6829 C.ar 0.0 **** 0.0
927 C927 73.2985 29.3599 62.8308 C.ar 0.0 **** 0.0
928 C928 73.2386 27.9463 62.913 C.ar 0.0 **** 0.042
929 C929 73.9759 30.1775 63.7942 C.2 0.0 **** 0.0
930 C930 73.8306 31.5583 63.7785 C.2 0.0 **** 0.0
931 C931 72.9289 32.181 62.8506 C.ar 0.0 **** 0.0
932 C932 72.4348 31.4277 61.7455 C.ar 0.0 **** 0.0
933 C933 74.8047 32.3231 64.6443 C.3 0.0 **** -0.106
934 C934 76.2312 31.8341 64.3226 C.ar 0.0 **** -0.053
935 C935 76.3821 30.3353 64.6901 C.ar 0.0 **** -0.053
936 C936 74.9964 29.638 64.7695 C.3 0.0 **** -0.106
937 C937 71.6476 32.1124 60.7481 C.ar 0.0 **** 0.042
938 C938 71.3248 33.483 60.8916 C.ar 0.0 **** 0.052
939 C939 71.7481 34.2094 62.0289 C.ar 0.0 **** 0.052
940 C940 72.5184 33.5593 63.0159 C.ar 0.0 **** 0.042
941 C941 71.4089 35.6083 62.2051 C.2 0.0 **** 0.367
942 C942 70.6045 36.2686 61.1556 C.ar 0.0 **** 0.0
943 C943 70.2159 35.5446 60.0458 C.ar 0.0 **** 0.0
944 C944 70.5403 34.1355 59.88 C.2 0.0 **** 0.367
945 C945 69.3942 36.1959 58.9718 C.3 0.0 **** -0.106
946 C946 69.8293 37.6449 58.7719 C.3 0.0 **** -0.106
947 C947 69.8203 38.3833 60.0838 C.ar 0.0 **** 0.0
948 C948 70.2067 37.6894 61.257 C.ar 0.0 **** 0.2405
949 N949 70.2473 38.2777 62.4609 N.ar 0.0 **** -0.481
950 C950 69.9605 39.5804 62.5564 C.ar 0.0 **** 0.2405
951 C951 69.5581 40.3561 61.4483 C.ar 0.0 **** 0.0
952 C952 69.4721 39.7398 60.1917 C.ar 0.0 **** 0.0
953 C953 69.043 40.529 58.9734 C.3 0.0 **** -0.106
954 C954 68.3917 41.8749 59.3094 C.3 0.0 **** -0.106
955 C955 69.1957 42.6108 60.3802 C.3 0.0 **** -0.106
956 C956 69.1991 41.8057 61.6792 C.3 0.0 **** -0.053
957 C957 70.116 42.4273 62.7341 C.3 0.0 **** -0.106
958 C958 70.1768 41.6081 63.9994 C.ar 0.0 **** 0.0
959 C959 70.0904 40.2047 63.8861 C.ar 0.0 **** 0.0
960 C960 70.1899 39.4109 65.0368 C.ar 0.0 **** -0.1268
961 C961 70.3622 40.0131 66.2769 C.ar 0.0 **** -0.1268
962 C962 70.4598 41.4073 66.409 C.ar 0.0 **** 0.0
963 C963 70.3789 42.2133 65.2537 C.ar 0.0 **** 0.0
964 C964 71.1551 27.7771 53.1963 C.3 0.0 **** -0.106
965 C965 72.4387 28.3451 52.5704 C.3 0.0 **** -0.159
966 C966 71.5991 24.8832 53.1631 C.3 0.0 **** -0.159
967 C967 71.4168 29.2452 55.7793 C.3 0.0 **** -0.159
968 C968 71.8877 23.4257 55.6705 C.3 0.0 **** -0.159
969 C969 72.8656 23.4892 60.583 C.3 0.0 **** -0.159
970 C970 73.7968 24.9593 62.9129 C.3 0.0 **** -0.159
971 O971 73.355 27.3268 64.1372 O.3 0.0 **** -0.452
972 C972 77.111 30.0769 66.0127 C.3 0.0 **** -0.159
973 C973 77.2817 32.7515 64.9529 C.3 0.0 **** -0.159
974 O974 72.836 34.2189 64.123 O.3 0.0 **** -0.452
975 O975 71.1973 31.4829 59.6659 O.3 0.0 **** -0.452
976 O976 70.1155 33.5014 58.8481 O.2 0.0 **** -0.419
977 O977 71.8214 36.2295 63.2349 O.2 0.0 **** -0.419
978 C978 70.5191 43.7153 65.343 C.3 0.0 **** -0.159
979 C979 70.6601 42.0059 67.7791 C.3 0.0 **** -0.159
980 H980 72.6377 28.6337 58.0147 H 0.0 **** 0.053
981 H981 70.9565 28.3603 58.3622 H 0.0 **** 0.053
982 H982 71.2171 24.2449 58.3695 H 0.0 **** 0.053
983 H983 72.9255 24.1582 58.0354 H 0.0 **** 0.053
984 H984 71.9359 29.6671 59.7261 H 0.0 **** 0.1268
985 H985 74.7396 33.3987 64.4789 H 0.0 **** 0.053
986 H986 74.5949 32.1549 65.717 H 0.0 **** 0.053
987 H987 76.3365 31.9142 63.2281 H 0.0 **** 0.053
988 H988 76.9519 29.8434 63.8861 H 0.0 **** 0.053
989 H989 74.6164 29.7978 65.7973 H 0.0 **** 0.053
990 H990 75.1654 28.5637 64.6488 H 0.0 **** 0.053
991 H991 69.4697 35.6126 58.0454 H 0.0 **** 0.053
992 H992 68.3319 36.1679 59.2792 H 0.0 **** 0.053
993 H993 69.1801 38.1303 58.0327 H 0.0 **** 0.053
994 H994 70.8526 37.6633 58.351 H 0.0 **** 0.053
995 H995 69.9296 40.6975 58.3358 H 0.0 **** 0.053
996 H996 68.3502 39.9272 58.365 H 0.0 **** 0.053
997 H997 67.37 41.7025 59.6873 H 0.0 **** 0.053
998 H998 68.2991 42.4797 58.3947 H 0.0 **** 0.053
999 H999 68.7842 43.6154 60.5671 H 0.0 **** 0.053
1000 H1000 70.2371 42.7429 60.0373 H 0.0 **** 0.053
1001 H1001 68.1705 41.8203 62.0929 H 0.0 **** 0.053
1002 H1002 71.1339 42.5208 62.3079 H 0.0 **** 0.053
1003 H1003 69.7724 43.4504 62.9409 H 0.0 **** 0.053
1004 H1004 70.1483 38.3271 64.9295 H 0.0 **** 0.1268
1005 H1005 70.4367 39.3941 67.1737 H 0.0 **** 0.1268
1006 H1006 70.4405 28.5942 53.3746 H 0.0 **** 0.053
1007 H1007 70.6615 27.1095 52.4768 H 0.0 **** 0.053
1008 H1008 73.163 27.5386 52.3792 H 0.0 **** 0.053
1009 H1009 72.9177 29.0613 53.2546 H 0.0 **** 0.053
1010 H1010 72.2307 28.8586 51.6188 H 0.0 **** 0.053
1011 H1011 72.2094 23.973 53.221 H 0.0 **** 0.053
1012 H1012 72.0015 25.4942 52.3447 H 0.0 **** 0.053
1013 H1013 70.5796 24.576 52.8709 H 0.0 **** 0.053
1014 H1014 72.3467 29.6897 56.1709 H 0.0 **** 0.053
1015 H1015 70.6182 29.5497 56.4756 H 0.0 **** 0.053
1016 H1016 71.2162 29.7106 54.8089 H 0.0 **** 0.053
1017 H1017 71.5988 22.9891 56.6346 H 0.0 **** 0.053
1018 H1018 72.917 23.0873 55.4562 H 0.0 **** 0.053
1019 H1019 71.2375 22.9861 54.9022 H 0.0 **** 0.053
1020 H1020 72.6495 23.0567 61.5681 H 0.0 **** 0.053
1021 H1021 73.8645 23.1315 60.2765 H 0.0 **** 0.053
1022 H1022 72.143 23.067 59.8739 H 0.0 **** 0.053
1023 H1023 74.6198 25.5445 63.3399 H 0.0 **** 0.053
1024 H1024 74.205 23.9963 62.5861 H 0.0 **** 0.053
1025 H1025 73.0866 24.7724 63.7336 H 0.0 **** 0.053
1026 H1026 73.2491 28.0007 64.8274 H 0.0 **** 0.41
1027 H1027 78.151 30.4302 65.9861 H 0.0 **** 0.053
1028 H1028 77.1217 28.9993 66.2381 H 0.0 **** 0.053
1029 H1029 76.5994 30.5873 66.8444 H 0.0 **** 0.053
1030 H1030 77.1612 33.7796 64.5805 H 0.0 **** 0.053
1031 H1031 78.3025 32.4185 64.7116 H 0.0 **** 0.053
1032 H1032 77.1853 32.7765 66.0487 H 0.0 **** 0.053
1033 H1033 72.4571 35.2023 63.9421 H 0.0 **** 0.41
1034 H1034 70.6546 32.2238 59.1294 H 0.0 **** 0.41
1035 H1035 71.2444 44.0917 64.6055 H 0.0 **** 0.053
1036 H1036 70.8508 44.0386 66.3363 H 0.0 **** 0.053
1037 H1037 69.5608 44.2199 65.1319 H 0.0 **** 0.053
1038 H1038 71.6135 42.5555 67.8448 H 0.0 **** 0.053
1039 H1039 70.67 41.2209 68.5473 H 0.0 **** 0.053
1040 H1040 69.8609 42.7218 68.0299 H 0.0 **** 0.053
1041 C1041 78.1998 72.1334 62.179 C.ar 0.0 **** 0.0
1042 C1042 78.6852 71.8187 60.8963 C.ar 0.0 **** 0.0
1043 C1043 77.8106 71.2843 59.9294 C.ar 0.0 **** 0.0
1044 C1044 76.4641 71.0868 60.2434 C.ar 0.0 **** 0.0
1045 C1045 75.9589 71.4513 61.5076 C.ar 0.0 **** 0.0
1046 C1046 76.8252 71.9963 62.4725 C.ar 0.0 **** 0.0
1047 C1047 75.5118 70.4918 59.2481 C.3 0.0 **** -0.106
1048 C1048 76.0993 69.9875 57.9627 C.ar 0.0 **** 0.0
1049 C1049 77.4204 70.1918 57.6329 C.ar 0.0 **** 0.0
1050 C1050 78.3453 70.9333 58.5627 C.3 0.0 **** -0.106
1051 C1051 77.9537 69.6683 56.4064 C.ar 0.0 **** 0.0
1052 C1052 77.1701 68.9018 55.5498 C.ar 0.0 **** 0.0
1053 C1053 75.7739 68.7315 55.848 C.ar 0.0 **** 0.0
1054 C1054 75.2401 69.2782 57.0678 C.ar 0.0 **** 0.0
1055 C1055 73.8725 69.1705 57.3627 C.ar 0.0 **** -0.1268
1056 C1056 72.9921 68.4244 56.5811 C.ar 0.0 **** 0.0
1057 C1057 73.5397 67.7241 55.4429 C.ar 0.0 **** 0.0
1058 C1058 74.8457 68.0649 55.0106 C.ar 0.0 **** 0.042
1059 C1059 72.7615 66.676 54.85 C.2 0.0 **** 0.0
1060 C1060 71.42 66.5207 55.1728 C.2 0.0 **** 0.0
1061 C1061 70.7699 67.4632 56.0393 C.ar 0.0 **** 0.0
1062 C1062 71.5622 68.3579 56.8168 C.ar 0.0 **** 0.0
1063 C1063 70.7883 65.2264 54.7153 C.3 0.0 **** -0.106
1064 C1064 71.6867 64.0582 55.1688 C.ar 0.0 **** -0.053
1065 C1065 73.0746 64.1492 54.4834 C.ar 0.0 **** -0.053
1066 C1066 73.3552 65.5918 53.9807 C.3 0.0 **** -0.106
1067 C1067 70.8967 69.1954 57.7859 C.ar 0.0 **** 0.042
1068 C1068 69.488 69.172 57.9215 C.ar 0.0 **** 0.052
1069 C1069 68.6964 68.3424 57.0937 C.ar 0.0 **** 0.052
1070 C1070 69.3267 67.516 56.1397 C.ar 0.0 **** 0.042
1071 C1071 67.2505 68.3207 57.202 C.2 0.0 **** 0.367
1072 C1072 66.6133 69.1921 58.2115 C.ar 0.0 **** 0.0
1073 C1073 67.4066 69.9818 59.0201 C.ar 0.0 **** 0.0
1074 C1074 68.8563 70.0173 58.8967 C.2 0.0 **** 0.367
1075 C1075 66.7781 70.8775 60.0477 C.3 0.0 **** -0.106
1076 C1076 65.5595 70.2022 60.6705 C.3 0.0 **** -0.106
1077 C1077 64.6099 69.7373 59.5987 C.ar 0.0 **** 0.0
1078 C1078 65.1454 69.2391 58.3854 C.ar 0.0 **** 0.2405
1079 N1079 64.3714 68.7854 57.3894 N.ar 0.0 **** -0.481
1080 C1080 63.0455 68.7541 57.561 C.ar 0.0 **** 0.2405
1081 C1081 62.4159 69.2343 58.7292 C.ar 0.0 **** 0.0
1082 C1082 63.2146 69.7496 59.7602 C.ar 0.0 **** 0.0
1083 C1083 62.5862 70.2785 61.0316 C.3 0.0 **** -0.106
1084 C1084 61.078 70.5253 60.9167 C.3 0.0 **** -0.106
1085 C1085 60.3901 69.3492 60.2254 C.3 0.0 **** -0.106
1086 C1086 60.9064 69.2073 58.7941 C.3 0.0 **** -0.053
1087 C1087 60.3593 67.9525 58.1112 C.3 0.0 **** -0.106
1088 C1088 60.9104 67.7675 56.7191 C.ar 0.0 **** 0.0
1089 C1089 62.2369 68.1779 56.4706 C.ar 0.0 **** 0.0
1090 C1090 62.7958 67.9783 55.2011 C.ar 0.0 **** -0.1268
1091 C1091 62.0363 67.3883 54.1984 C.ar 0.0 **** -0.1268
1092 C1092 60.7179 66.9645 54.429 C.ar 0.0 **** 0.0
1093 C1093 60.1532 67.1452 55.7093 C.ar 0.0 **** 0.0
1094 C1094 76.3003 72.405 63.8328 C.3 0.0 **** -0.106
1095 C1095 76.2189 71.2179 64.8056 C.3 0.0 **** -0.159
1096 C1096 79.1611 72.6144 63.2453 C.3 0.0 **** -0.159
1097 C1097 74.4905 71.222 61.7783 C.3 0.0 **** -0.159
1098 C1098 80.1405 72.0527 60.5583 C.3 0.0 **** -0.159
1099 C1099 79.406 69.9347 56.0786 C.3 0.0 **** -0.159
1100 C1100 77.8182 68.1783 54.3903 C.3 0.0 **** -0.159
1101 O1101 75.2303 67.7941 53.7165 O.3 0.0 **** -0.452
1102 C1102 73.2599 63.1974 53.2973 C.3 0.0 **** -0.159
1103 C1103 70.9753 62.7153 54.9867 C.3 0.0 **** -0.159
1104 O1104 68.5762 66.808 55.3048 O.3 0.0 **** -0.452
1105 O1105 71.579 70.0166 58.5797 O.3 0.0 **** -0.452
1106 O1106 69.5402 70.8032 59.6463 O.2 0.0 **** -0.419
1107 O1107 66.5759 67.5496 56.4489 O.2 0.0 **** -0.419
1108 C1108 58.7521 66.6682 56.0147 C.3 0.0 **** -0.159
1109 C1109 59.9445 66.3176 53.307 C.3 0.0 **** -0.159
1110 H1110 74.9661 69.6613 59.7291 H 0.0 **** 0.053
1111 H1111 74.7171 71.2283 59.0188 H 0.0 **** 0.053
1112 H1112 78.6776 71.8641 58.0623 H 0.0 **** 0.053
1113 H1113 79.2718 70.3455 58.6776 H 0.0 **** 0.053
1114 H1114 73.4796 69.6931 58.2195 H 0.0 **** 0.1268
1115 H1115 69.7849 65.0966 55.1216 H 0.0 **** 0.053
1116 H1116 70.6889 65.2038 53.6142 H 0.0 **** 0.053
1117 H1117 71.8461 64.2039 56.2498 H 0.0 **** 0.053
1118 H1118 73.8421 63.9084 55.2358 H 0.0 **** 0.053
1119 H1119 72.9093 65.6706 52.9701 H 0.0 **** 0.053
1120 H1120 74.4388 65.6916 53.8665 H 0.0 **** 0.053
1121 H1121 67.5254 71.1536 60.8023 H 0.0 **** 0.053
1122 H1122 66.4672 71.8155 59.5503 H 0.0 **** 0.053
1123 H1123 65.0699 70.8899 61.371 H 0.0 **** 0.053
1124 H1124 65.8908 69.3305 61.2662 H 0.0 **** 0.053
1125 H1125 62.7806 69.5559 61.8446 H 0.0 **** 0.053
1126 H1126 63.0888 71.2097 61.3359 H 0.0 **** 0.053
1127 H1127 60.901 71.4389 60.3249 H 0.0 **** 0.053
1128 H1128 60.6549 70.7026 61.9171 H 0.0 **** 0.053
1129 H1129 59.2962 69.478 60.2145 H 0.0 **** 0.053
1130 H1130 60.6037 68.4171 60.7779 H 0.0 **** 0.053
1131 H1131 60.5439 70.0787 58.2121 H 0.0 **** 0.053
1132 H1132 60.6191 67.0711 58.7293 H 0.0 **** 0.053
1133 H1133 59.2619 68.0085 58.0984 H 0.0 **** 0.053
1134 H1134 63.8306 68.2763 55.0326 H 0.0 **** 0.1268
1135 H1135 62.4715 67.2355 53.2084 H 0.0 **** 0.1268
1136 H1136 75.3058 72.8632 63.7281 H 0.0 **** 0.053
1137 H1137 76.9386 73.1883 64.264 H 0.0 **** 0.053
1138 H1138 77.2085 70.7513 64.927 H 0.0 **** 0.053
1139 H1139 75.5375 70.4464 64.417 H 0.0 **** 0.053
1140 H1140 75.8588 71.5328 65.7974 H 0.0 **** 0.053
1141 H1141 80.1716 72.2183 63.0831 H 0.0 **** 0.053
1142 H1142 78.8439 72.2985 64.2477 H 0.0 **** 0.053
1143 H1143 79.2392 73.7157 63.2592 H 0.0 **** 0.053
1144 H1144 74.2401 70.1522 61.6865 H 0.0 **** 0.053
1145 H1145 73.8606 71.7456 61.0405 H 0.0 **** 0.053
1146 H1146 74.1815 71.5448 62.7777 H 0.0 **** 0.053
1147 H1147 80.2948 72.1888 59.4807 H 0.0 **** 0.053
1148 H1148 80.7717 71.2024 60.872 H 0.0 **** 0.053
1149 H1149 80.5312 72.9471 61.0621 H 0.0 **** 0.053
1150 H1150 79.5717 69.9958 54.9956 H 0.0 **** 0.053
1151 H1151 80.065 69.1394 56.4697 H 0.0 **** 0.053
1152 H1152 79.7501 70.8796 56.5167 H 0.0 **** 0.053
1153 H1153 77.3999 67.1709 54.2789 H 0.0 **** 0.053
1154 H1154 78.8985 68.0771 54.5439 H 0.0 **** 0.053
1155 H1155 77.6528 68.6938 53.4313 H 0.0 **** 0.053
1156 H1156 74.4341 67.5839 53.2031 H 0.0 **** 0.41
1157 H1157 73.204 62.1432 53.602 H 0.0 **** 0.053
1158 H1158 74.2394 63.3647 52.8233 H 0.0 **** 0.053
1159 H1159 72.485 63.3724 52.5339 H 0.0 **** 0.053
1160 H1160 70.0416 62.6979 55.5682 H 0.0 **** 0.053
1161 H1161 71.6044 61.8784 55.3259 H 0.0 **** 0.053
1162 H1162 70.7187 62.5383 53.9316 H 0.0 **** 0.053
1163 H1163 67.5807 66.9988 55.645 H 0.0 **** 0.41
1164 H1164 70.8372 70.4999 59.1691 H 0.0 **** 0.41
1165 H1165 58.7264 66.0777 56.9432 H 0.0 **** 0.053
1166 H1166 58.3451 66.0464 55.2091 H 0.0 **** 0.053
1167 H1167 58.0629 67.5177 56.1596 H 0.0 **** 0.053
1168 H1168 59.6626 65.2812 53.5553 H 0.0 **** 0.053
1169 H1169 60.5441 66.2926 52.387 H 0.0 **** 0.053
1170 H1170 59.0097 66.8602 53.0929 H 0.0 **** 0.053
1171 C1171 42.3738 9.81233 57.0537 C.ar 0.0 **** 0.0
1172 C1172 43.4108 10.7625 57.0102 C.ar 0.0 **** 0.0
1173 C1173 43.7639 11.466 58.1788 C.ar 0.0 **** 0.0
1174 C1174 43.0955 11.2039 59.3768 C.ar 0.0 **** 0.0
1175 C1175 42.094 10.2144 59.4407 C.ar 0.0 **** 0.0
1176 C1176 41.7458 9.50074 58.2797 C.ar 0.0 **** 0.0
1177 C1177 43.4253 11.9559 60.6328 C.3 0.0 **** -0.106
1178 C1178 44.3951 13.0941 60.5089 C.ar 0.0 **** 0.0
1179 C1179 45.0742 13.3519 59.3391 C.ar 0.0 **** 0.0
1180 C1180 44.8651 12.4959 58.1171 C.3 0.0 **** -0.106
1181 C1181 45.9728 14.4688 59.2503 C.ar 0.0 **** 0.0
1182 C1182 46.1404 15.3448 60.318 C.ar 0.0 **** 0.0
1183 C1183 45.4872 15.0551 61.5657 C.ar 0.0 **** 0.0
1184 C1184 44.6056 13.9209 61.6552 C.ar 0.0 **** 0.0
1185 C1185 43.9924 13.5848 62.8717 C.ar 0.0 **** -0.1268
1186 C1186 44.0847 14.3885 64.0067 C.ar 0.0 **** 0.0
1187 C1187 44.8258 15.6228 63.8918 C.ar 0.0 **** 0.0
1188 C1188 45.6544 15.8042 62.7565 C.ar 0.0 **** 0.042
1189 C1189 44.6348 16.6271 64.8971 C.2 0.0 **** 0.0
1190 C1190 43.9809 16.3256 66.0842 C.2 0.0 **** 0.0
1191 C1191 43.5636 14.9794 66.3594 C.ar 0.0 **** 0.0
1192 C1192 43.5273 14.0293 65.297 C.ar 0.0 **** 0.0
1193 C1193 43.589 17.5154 66.9294 C.3 0.0 **** -0.106
1194 C1194 42.8413 18.5242 66.0346 C.ar 0.0 **** -0.053
1195 C1195 43.7797 19.0531 64.9193 C.ar 0.0 **** -0.053
1196 C1196 44.9723 18.0852 64.688 C.3 0.0 **** -0.106
1197 C1197 42.9689 12.7254 65.5641 C.ar 0.0 **** 0.042
1198 C1198 42.5216 12.3779 66.8613 C.ar 0.0 **** 0.052
1199 C1199 42.6322 13.2941 67.9329 C.ar 0.0 **** 0.052
1200 C1200 43.1753 14.5739 67.6937 C.ar 0.0 **** 0.042
1201 C1201 42.2003 12.9492 69.2736 C.2 0.0 **** 0.367
1202 C1202 41.6308 11.604 69.4986 C.ar 0.0 **** 0.0
1203 C1203 41.5172 10.7313 68.4345 C.ar 0.0 **** 0.0
1204 C1204 41.9695 11.0719 67.0937 C.2 0.0 **** 0.367
1205 C1205 40.9464 9.35896 68.6439 C.3 0.0 **** -0.106
1206 C1206 39.8137 9.40229 69.6656 C.3 0.0 **** -0.106
1207 C1207 40.2719 10.0758 70.9317 C.ar 0.0 **** 0.0
1208 C1208 41.1722 11.1654 70.8345 C.ar 0.0 **** 0.2405
1209 N1209 41.6123 11.8338 71.91 N.ar 0.0 **** -0.481
1210 C1210 41.1497 11.4953 73.1182 C.ar 0.0 **** 0.2405
1211 C1211 40.2572 10.4208 73.3198 C.ar 0.0 **** 0.0
1212 C1212 39.8235 9.68875 72.2053 C.ar 0.0 **** 0.0
1213 C1213 38.8681 8.52635 72.3703 C.3 0.0 **** -0.106
1214 C1214 38.7411 8.03398 73.816 C.3 0.0 **** -0.106
1215 C1215 38.5911 9.21298 74.7761 C.3 0.0 **** -0.106
1216 C1216 39.8447 10.086 74.7345 C.3 0.0 **** -0.053
1217 C1217 39.6813 11.3603 75.565 C.3 0.0 **** -0.106
1218 C1218 40.8888 12.2608 75.4818 C.ar 0.0 **** 0.0
1219 C1219 41.6015 12.3045 74.2653 C.ar 0.0 **** 0.0
1220 C1220 42.7004 13.1649 74.1386 C.ar 0.0 **** -0.1268
1221 C1221 43.0827 13.9578 75.2134 C.ar 0.0 **** -0.1268
1222 C1222 42.3804 13.9355 76.4289 C.ar 0.0 **** 0.0
1223 C1223 41.2618 13.0855 76.5593 C.ar 0.0 **** 0.0
1224 C1224 40.6805 8.42573 58.3293 C.3 0.0 **** -0.106
1225 C1225 39.2625 9.00602 58.2073 C.3 0.0 **** -0.159
1226 C1226 41.9307 9.12974 55.7769 C.3 0.0 **** -0.159
1227 C1227 41.4187 9.9726 60.7702 C.3 0.0 **** -0.159
1228 C1228 44.1421 11.0272 55.7133 C.3 0.0 **** -0.159
1229 C1229 46.7106 14.7003 57.9503 C.3 0.0 **** -0.159
1230 C1230 46.9109 16.6306 60.1161 C.3 0.0 **** -0.159
1231 O1231 46.6995 16.6994 62.8086 O.3 0.0 **** -0.452
1232 C1232 44.3553 20.4481 65.1834 C.3 0.0 **** -0.159
1233 C1233 42.1757 19.6162 66.8754 C.3 0.0 **** -0.159
1234 O1234 43.3608 15.3967 68.7186 O.3 0.0 **** -0.452
1235 O1235 42.8577 11.8077 64.6071 O.3 0.0 **** -0.452
1236 O1236 41.8787 10.2049 66.1516 O.2 0.0 **** -0.419
1237 O1237 42.3033 13.8068 70.2066 O.2 0.0 **** -0.419
1238 C1238 40.4517 13.058 77.8347 C.3 0.0 **** -0.159
1239 C1239 42.8323 14.8279 77.558 C.3 0.0 **** -0.159
1240 H1240 42.4897 12.344 61.0721 H 0.0 **** 0.053
1241 H1241 43.7968 11.2449 61.3963 H 0.0 **** 0.053
1242 H1242 45.8173 11.9828 57.878 H 0.0 **** 0.053
1243 H1243 44.6926 13.1574 57.2513 H 0.0 **** 0.053
1244 H1244 43.4368 12.6638 62.9403 H 0.0 **** 0.1268
1245 H1245 42.9545 17.2283 67.7682 H 0.0 **** 0.053
1246 H1246 44.4824 18.0034 67.3614 H 0.0 **** 0.053
1247 H1247 42.0387 17.9513 65.5417 H 0.0 **** 0.053
1248 H1248 43.2037 19.0949 63.9814 H 0.0 **** 0.053
1249 H1249 45.7599 18.3693 65.4128 H 0.0 **** 0.053
1250 H1250 45.3646 18.2859 63.6864 H 0.0 **** 0.053
1251 H1251 40.6167 8.94637 67.682 H 0.0 **** 0.053
1252 H1252 41.7527 8.69785 69.0135 H 0.0 **** 0.053
1253 H1253 39.4482 8.38638 69.86 H 0.0 **** 0.053
1254 H1254 38.9616 9.96651 69.2412 H 0.0 **** 0.053
1255 H1255 37.8747 8.83447 71.9972 H 0.0 **** 0.053
1256 H1256 39.1819 7.69192 71.7241 H 0.0 **** 0.053
1257 H1257 39.6456 7.46531 74.0894 H 0.0 **** 0.053
1258 H1258 37.8889 7.34247 73.8978 H 0.0 **** 0.053
1259 H1259 38.4135 8.8672 75.8068 H 0.0 **** 0.053
1260 H1260 37.7191 9.82319 74.4815 H 0.0 **** 0.053
1261 H1261 40.6779 9.50908 75.1844 H 0.0 **** 0.053
1262 H1262 38.7894 11.9074 75.2023 H 0.0 **** 0.053
1263 H1263 39.4689 11.0779 76.6054 H 0.0 **** 0.053
1264 H1264 43.2242 13.2069 73.1836 H 0.0 **** 0.1268
1265 H1265 43.941 14.6261 75.1151 H 0.0 **** 0.1268
1266 H1266 40.7656 7.85742 59.2672 H 0.0 **** 0.053
1267 H1267 40.8461 7.69283 57.5278 H 0.0 **** 0.053
1268 H1268 39.1582 9.57314 57.2697 H 0.0 **** 0.053
1269 H1269 39.0569 9.70027 59.0357 H 0.0 **** 0.053
1270 H1270 38.4993 8.2125 58.2206 H 0.0 **** 0.053
1271 H1271 42.1043 9.76641 54.9001 H 0.0 **** 0.053
1272 H1272 40.8599 8.88875 55.7981 H 0.0 **** 0.053
1273 H1273 42.4752 8.18415 55.6082 H 0.0 **** 0.053
1274 H1274 40.9159 10.8879 61.1237 H 0.0 **** 0.053
1275 H1275 42.1521 9.70881 61.5499 H 0.0 **** 0.053
1276 H1276 40.6645 9.18001 60.7321 H 0.0 **** 0.053
1277 H1277 45.1511 11.4224 55.8843 H 0.0 **** 0.053
1278 H1278 43.6064 11.7639 55.0886 H 0.0 **** 0.053
1279 H1279 44.2443 10.1116 55.1155 H 0.0 **** 0.053
1280 H1280 47.6901 15.1654 58.1185 H 0.0 **** 0.053
1281 H1281 46.143 15.3607 57.2712 H 0.0 **** 0.053
1282 H1282 46.8822 13.7597 57.4127 H 0.0 **** 0.053
1283 H1283 46.4167 17.4638 60.6296 H 0.0 **** 0.053
1284 H1284 46.9787 16.8859 59.0525 H 0.0 **** 0.053
1285 H1285 47.9326 16.5736 60.5232 H 0.0 **** 0.053
1286 H1286 46.8472 16.9367 63.7378 H 0.0 **** 0.41
1287 H1287 43.5707 21.2158 65.2301 H 0.0 **** 0.053
1288 H1288 45.0598 20.7275 64.3849 H 0.0 **** 0.053
1289 H1289 44.9067 20.4668 66.1371 H 0.0 **** 0.053
1290 H1290 41.4643 19.1688 67.5854 H 0.0 **** 0.053
1291 H1291 41.6246 20.3295 66.2438 H 0.0 **** 0.053
1292 H1292 42.9189 20.1836 67.4553 H 0.0 **** 0.053
1293 H1293 42.9404 14.8623 69.5437 H 0.0 **** 0.41
1294 H1294 42.4284 10.9638 65.0915 H 0.0 **** 0.41
1295 H1295 39.3753 13.152 77.6244 H 0.0 **** 0.053
1296 H1296 40.733 13.8678 78.5177 H 0.0 **** 0.053
1297 H1297 40.5876 12.1053 78.3747 H 0.0 **** 0.053
1298 H1298 42.0522 15.556 77.8348 H 0.0 **** 0.053
1299 H1299 43.7315 15.39 77.2717 H 0.0 **** 0.053
1300 H1300 43.0643 14.248 78.4656 H 0.0 **** 0.053
1301 C1301 17.3372 35.3026 59.4425 C.ar 0.0 **** 0.0
1302 C1302 16.9846 36.0469 58.3016 C.ar 0.0 **** 0.0
1303 C1303 17.7423 35.9177 57.1207 C.ar 0.0 **** 0.0
1304 C1304 18.8274 35.0391 57.0836 C.ar 0.0 **** 0.0
1305 C1305 19.1527 34.2493 58.2047 C.ar 0.0 **** 0.0
1306 C1306 18.3921 34.3656 59.3821 C.ar 0.0 **** 0.0
1307 C1307 19.6741 34.8993 55.8527 C.3 0.0 **** -0.106
1308 C1308 19.3931 35.8463 54.7232 C.ar 0.0 **** 0.0
1309 C1309 18.3163 36.7044 54.7393 C.ar 0.0 **** 0.0
1310 C1310 17.3667 36.7341 55.9086 C.3 0.0 **** -0.106
1311 C1311 18.0968 37.6171 53.6523 C.ar 0.0 **** 0.0
1312 C1312 18.9881 37.6957 52.587 C.ar 0.0 **** 0.0
1313 C1313 20.0822 36.7651 52.5241 C.ar 0.0 **** 0.0
1314 C1314 20.2836 35.8371 53.6057 C.ar 0.0 **** 0.0
1315 C1315 21.3128 34.8849 53.5501 C.ar 0.0 **** -0.1268
1316 C1316 22.2677 34.8694 52.5348 C.ar 0.0 **** 0.0
1317 C1317 22.1865 35.9003 51.5266 C.ar 0.0 **** 0.0
1318 C1318 20.9985 36.669 51.4477 C.ar 0.0 **** 0.042
1319 C1319 23.3349 36.137 50.7016 C.2 0.0 **** 0.0
1320 C1320 24.3877 35.2321 50.6766 C.2 0.0 **** 0.0
1321 C1321 24.302 34.001 51.4108 C.ar 0.0 **** 0.0
1322 C1322 23.2949 33.8527 52.4091 C.ar 0.0 **** 0.0
1323 C1323 25.649 35.7225 50.0042 C.3 0.0 **** -0.106
1324 C1324 26.013 37.0993 50.5952 C.ar 0.0 **** -0.053
1325 C1325 24.9016 38.1326 50.2769 C.ar 0.0 **** -0.053
1326 C1326 23.5603 37.4242 49.9426 C.3 0.0 **** -0.106
1327 C1327 23.3173 32.6675 53.2327 C.ar 0.0 **** 0.042
1328 C1328 24.2784 31.6509 53.0177 C.ar 0.0 **** 0.052
1329 C1329 25.2269 31.7627 51.9747 C.ar 0.0 **** 0.052
1330 C1330 25.2225 32.9128 51.1578 C.ar 0.0 **** 0.042
1331 C1331 26.2053 30.722 51.7243 C.2 0.0 **** 0.367
1332 C1332 26.1929 29.5285 52.596 C.ar 0.0 **** 0.0
1333 C1333 25.2684 29.4478 53.6186 C.ar 0.0 **** 0.0
1334 C1334 24.2743 30.484 53.856 C.2 0.0 **** 0.367
1335 C1335 25.2364 28.2414 54.5112 C.3 0.0 **** -0.106
1336 C1336 26.6518 27.7362 54.7765 C.3 0.0 **** -0.106
1337 C1337 27.3857 27.5206 53.4798 C.ar 0.0 **** 0.0
1338 C1338 27.149 28.416 52.4077 C.ar 0.0 **** 0.2405
1339 N1339 27.7764 28.3083 51.228 N.ar 0.0 **** -0.481
1340 C1340 28.697 27.3516 51.0677 C.ar 0.0 **** 0.2405
1341 C1341 28.9985 26.4072 52.0721 C.ar 0.0 **** 0.0
1342 C1342 28.3173 26.4857 53.2953 C.ar 0.0 **** 0.0
1343 C1343 28.604 25.4944 54.4026 C.3 0.0 **** -0.106
1344 C1344 29.3802 24.2578 53.9366 C.3 0.0 **** -0.106
1345 C1345 30.543 24.6605 53.031 C.3 0.0 **** -0.106
1346 C1346 30.013 25.3305 51.7638 C.3 0.0 **** -0.053
1347 C1347 31.1435 25.8868 50.8962 C.3 0.0 **** -0.106
1348 C1348 30.6306 26.6056 49.6731 C.ar 0.0 **** 0.0
1349 C1349 29.4166 27.3157 49.781 C.ar 0.0 **** 0.0
1350 C1350 28.9349 28.0329 48.6776 C.ar 0.0 **** -0.1268
1351 C1351 29.651 28.0294 47.487 C.ar 0.0 **** -0.1268
1352 C1352 30.8658 27.3366 47.3629 C.ar 0.0 **** 0.0
1353 C1353 31.3674 26.6267 48.4743 C.ar 0.0 **** 0.0
1354 C1354 18.7179 33.5179 60.5939 C.3 0.0 **** -0.106
1355 C1355 19.8408 34.1295 61.4466 C.3 0.0 **** -0.159
1356 C1356 16.5828 35.5164 60.7377 C.3 0.0 **** -0.159
1357 C1357 20.3311 33.3107 58.0939 C.3 0.0 **** -0.159
1358 C1358 15.7971 36.9823 58.3442 C.3 0.0 **** -0.159
1359 C1359 16.8898 38.527 53.706 C.3 0.0 **** -0.159
1360 C1360 18.8541 38.8178 51.5815 C.3 0.0 **** -0.159
1361 O1361 20.6769 37.3125 50.2736 O.3 0.0 **** -0.452
1362 C1362 25.2298 39.0808 49.1191 C.3 0.0 **** -0.159
1363 C1363 27.4189 37.5267 50.167 C.3 0.0 **** -0.159
1364 O1364 26.0539 32.9724 50.1249 O.3 0.0 **** -0.452
1365 O1365 22.4388 32.4878 54.2156 O.3 0.0 **** -0.452
1366 O1366 23.4115 30.3356 54.7945 O.2 0.0 **** -0.419
1367 O1367 27.0506 30.8675 50.7857 O.2 0.0 **** -0.419
1368 C1368 32.6904 25.9001 48.3993 C.3 0.0 **** -0.159
1369 C1369 31.6077 27.3786 46.0501 C.3 0.0 **** -0.159
1370 H1370 20.7359 35.0037 56.1365 H 0.0 **** 0.053
1371 H1371 19.6048 33.8591 55.479 H 0.0 **** 0.053
1372 H1372 16.3664 36.4107 55.5595 H 0.0 **** 0.053
1373 H1373 17.2179 37.7841 56.2124 H 0.0 **** 0.053
1374 H1374 21.3648 34.1259 54.3134 H 0.0 **** 0.1268
1375 H1375 26.4807 35.0317 50.1442 H 0.0 **** 0.053
1376 H1376 25.5009 35.8219 48.9128 H 0.0 **** 0.053
1377 H1377 26.028 36.9623 51.689 H 0.0 **** 0.053
1378 H1378 24.7353 38.7423 51.179 H 0.0 **** 0.053
1379 H1379 23.5822 37.1926 48.86 H 0.0 **** 0.053
1380 H1380 22.7591 38.152 50.1032 H 0.0 **** 0.053
1381 H1381 24.7059 28.4847 55.4404 H 0.0 **** 0.053
1382 H1382 24.6495 27.45 54.0081 H 0.0 **** 0.053
1383 H1383 26.6134 26.8173 55.3746 H 0.0 **** 0.053
1384 H1384 27.1974 28.4833 55.3836 H 0.0 **** 0.053
1385 H1385 29.175 26.0109 55.1952 H 0.0 **** 0.053
1386 H1386 27.6602 25.1797 54.8742 H 0.0 **** 0.053
1387 H1387 28.7044 23.5927 53.3735 H 0.0 **** 0.053
1388 H1388 29.734 23.6917 54.8115 H 0.0 **** 0.053
1389 H1389 31.1577 23.7875 52.7601 H 0.0 **** 0.053
1390 H1390 31.2003 25.3701 53.5639 H 0.0 **** 0.053
1391 H1391 29.4907 24.5592 51.1624 H 0.0 **** 0.053
1392 H1392 31.7474 26.586 51.5069 H 0.0 **** 0.053
1393 H1393 31.8134 25.0612 50.6184 H 0.0 **** 0.053
1394 H1394 28.0093 28.5984 48.7851 H 0.0 **** 0.1268
1395 H1395 29.2736 28.586 46.6265 H 0.0 **** 0.1268
1396 H1396 19.0078 32.5057 60.2757 H 0.0 **** 0.053
1397 H1397 17.8203 33.3835 61.2129 H 0.0 **** 0.053
1398 H1398 19.5637 35.1415 61.7793 H 0.0 **** 0.053
1399 H1399 20.7667 34.2189 60.8591 H 0.0 **** 0.053
1400 H1400 20.0512 33.5162 62.3367 H 0.0 **** 0.053
1401 H1401 16.1815 36.5356 60.8051 H 0.0 **** 0.053
1402 H1402 17.2285 35.3616 61.6119 H 0.0 **** 0.053
1403 H1403 15.7301 34.8216 60.8341 H 0.0 **** 0.053
1404 H1404 21.2566 33.8712 57.8817 H 0.0 **** 0.053
1405 H1405 20.2044 32.6056 57.256 H 0.0 **** 0.053
1406 H1406 20.5042 32.7278 59.0042 H 0.0 **** 0.053
1407 H1407 15.373 37.153 57.3469 H 0.0 **** 0.053
1408 H1408 16.0735 37.9704 58.753 H 0.0 **** 0.053
1409 H1409 14.9945 36.584 58.9793 H 0.0 **** 0.053
1410 H1410 16.5119 38.7575 52.7019 H 0.0 **** 0.053
1411 H1411 17.124 39.4867 54.1998 H 0.0 **** 0.053
1412 H1412 16.0668 38.0699 54.2691 H 0.0 **** 0.053
1413 H1413 19.8389 39.2177 51.3129 H 0.0 **** 0.053
1414 H1414 18.2577 39.642 51.9887 H 0.0 **** 0.053
1415 H1415 18.3852 38.4835 50.6427 H 0.0 **** 0.053
1416 H1416 21.2412 36.9552 49.5697 H 0.0 **** 0.41
1417 H1417 26.0999 39.7145 49.3392 H 0.0 **** 0.053
1418 H1418 24.3721 39.7385 48.9098 H 0.0 **** 0.053
1419 H1419 25.4467 38.512 48.2007 H 0.0 **** 0.053
1420 H1420 28.1597 36.7848 50.5003 H 0.0 **** 0.053
1421 H1421 27.6923 38.5005 50.6007 H 0.0 **** 0.053
1422 H1422 27.4955 37.6114 49.0727 H 0.0 **** 0.053
1423 H1423 26.6325 32.0784 50.2216 H 0.0 **** 0.41
1424 H1424 22.6906 31.5422 54.6325 H 0.0 **** 0.41
1425 H1425 33.332 26.1522 49.2574 H 0.0 **** 0.053
1426 H1426 33.2417 26.144 47.4839 H 0.0 **** 0.053
1427 H1427 32.5478 24.8061 48.4201 H 0.0 **** 0.053
1428 H1428 32.6001 27.8457 46.1614 H 0.0 **** 0.053
1429 H1429 31.0447 27.9569 45.3051 H 0.0 **** 0.053
1430 H1430 31.7744 26.3674 45.6456 H 0.0 **** 0.053
1431 C1431 49.8361 19.7881 45.8383 C.ar 0.0 **** 0.0
1432 C1432 50.7986 19.8292 46.8639 C.ar 0.0 **** 0.0
1433 C1433 50.3859 19.9473 48.2059 C.ar 0.0 **** 0.0
1434 C1434 49.0244 20.005 48.512 C.ar 0.0 **** 0.0
1435 C1435 48.0533 19.9085 47.4951 C.ar 0.0 **** 0.0
1436 C1436 48.4597 19.7784 46.1549 C.ar 0.0 **** 0.0
1437 C1437 48.5507 20.1612 49.9272 C.3 0.0 **** -0.106
1438 C1438 49.6002 20.3982 50.9731 C.ar 0.0 **** 0.0
1439 C1439 50.9455 20.3261 50.6884 C.ar 0.0 **** 0.0
1440 C1440 51.4269 20.0089 49.2965 C.3 0.0 **** -0.106
1441 C1441 51.9206 20.5882 51.7098 C.ar 0.0 **** 0.0
1442 C1442 51.5362 20.9707 52.991 C.ar 0.0 **** 0.0
1443 C1443 50.1371 20.9904 53.3218 C.ar 0.0 **** 0.0
1444 C1444 49.1652 20.7043 52.2994 C.ar 0.0 **** 0.0
1445 C1445 47.7958 20.668 52.6031 C.ar 0.0 **** -0.1268
1446 C1446 47.293 21.0354 53.8502 C.ar 0.0 **** 0.0
1447 C1447 48.238 21.4912 54.8427 C.ar 0.0 **** 0.0
1448 C1448 49.617 21.2599 54.6118 C.ar 0.0 **** 0.042
1449 C1449 47.7386 22.2116 55.9773 C.2 0.0 **** 0.0
1450 C1450 46.3796 22.2321 56.2611 C.2 0.0 **** 0.0
1451 C1451 45.4632 21.4584 55.4715 C.ar 0.0 **** 0.0
1452 C1452 45.8931 20.9346 54.2171 C.ar 0.0 **** 0.0
1453 C1453 45.9481 23.2453 57.2958 C.3 0.0 **** -0.106
1454 C1454 46.5335 24.618 56.9079 C.ar 0.0 **** -0.053
1455 C1455 48.083 24.5714 56.9416 C.ar 0.0 **** -0.053
1456 C1456 48.5997 23.1105 56.8341 C.3 0.0 **** -0.106
1457 C1457 44.9162 20.2853 53.3759 C.ar 0.0 **** 0.042
1458 C1458 43.5787 20.1206 53.8087 C.ar 0.0 **** 0.052
1459 C1459 43.1729 20.5695 55.087 C.ar 0.0 **** 0.052
1460 C1460 44.1118 21.2066 55.9252 C.ar 0.0 **** 0.042
1461 C1461 41.8129 20.3902 55.5575 C.2 0.0 **** 0.367
1462 C1462 40.8463 19.7237 54.6598 C.ar 0.0 **** 0.0
1463 C1463 41.2602 19.3081 53.4096 C.ar 0.0 **** 0.0
1464 C1464 42.6304 19.4709 52.9467 C.2 0.0 **** 0.367
1465 C1465 40.2949 18.6246 52.4856 C.3 0.0 **** -0.106
1466 C1466 38.9038 19.238 52.6181 C.3 0.0 **** -0.106
1467 C1467 38.469 19.2508 54.0594 C.ar 0.0 **** 0.0
1468 C1468 39.4416 19.4927 55.0608 C.ar 0.0 **** 0.2405
1469 N1469 39.1353 19.5423 56.3649 N.ar 0.0 **** -0.481
1470 C1470 37.8578 19.4077 56.7368 C.ar 0.0 **** 0.2405
1471 C1471 36.8178 19.1563 55.8165 C.ar 0.0 **** 0.0
1472 C1472 37.1343 19.0611 54.4537 C.ar 0.0 **** 0.0
1473 C1473 36.0543 18.7904 53.4283 C.3 0.0 **** -0.106
1474 C1474 34.7403 18.2874 54.0359 C.3 0.0 **** -0.106
1475 C1475 34.3592 19.1182 55.2602 C.3 0.0 **** -0.106
1476 C1476 35.418 18.9607 56.351 C.3 0.0 **** -0.053
1477 C1477 35.1585 19.8909 57.5375 C.3 0.0 **** -0.106
1478 C1478 36.231 19.7903 58.5936 C.ar 0.0 **** 0.0
1479 C1479 37.5549 19.5438 58.1736 C.ar 0.0 **** 0.0
1480 C1480 38.583 19.4905 59.1244 C.ar 0.0 **** -0.1268
1481 C1481 38.2878 19.6704 60.47 C.ar 0.0 **** -0.1268
1482 C1482 36.9782 19.9261 60.9066 C.ar 0.0 **** 0.0
1483 C1483 35.9396 19.9995 59.9543 C.ar 0.0 **** 0.0
1484 C1484 47.4324 19.6618 45.0484 C.3 0.0 **** -0.106
1485 C1485 46.9108 21.0336 44.5921 C.3 0.0 **** -0.159
1486 C1486 50.2843 19.7604 44.3924 C.3 0.0 **** -0.159
1487 C1487 46.5979 19.9658 47.8957 C.3 0.0 **** -0.159
1488 C1488 52.2703 19.7476 46.5256 C.3 0.0 **** -0.159
1489 C1489 53.3865 20.4781 51.3539 C.3 0.0 **** -0.159
1490 C1490 52.5805 21.4589 53.9703 C.3 0.0 **** -0.159
1491 O1491 50.4944 21.2402 55.6729 O.3 0.0 **** -0.452
1492 C1492 48.7094 25.1971 58.1919 C.3 0.0 **** -0.159
1493 C1493 45.9135 25.737 57.7482 C.3 0.0 **** -0.159
1494 O1494 43.7507 21.5442 57.157 O.3 0.0 **** -0.452
1495 O1495 45.2366 19.8184 52.1719 O.3 0.0 **** -0.452
1496 O1496 42.9693 19.0263 51.7914 O.2 0.0 **** -0.419
1497 O1497 41.4845 20.8213 56.7077 O.2 0.0 **** -0.419
1498 C1498 34.5218 20.3124 60.3738 C.3 0.0 **** -0.159
1499 C1499 36.7177 20.1269 62.3788 C.3 0.0 **** -0.159
1500 H1500 47.8244 20.9916 49.9705 H 0.0 **** 0.053
1501 H1501 47.9506 19.2746 50.2105 H 0.0 **** 0.053
1502 H1502 51.9709 19.0442 49.3222 H 0.0 **** 0.053
1503 H1503 52.1997 20.7448 49.0168 H 0.0 **** 0.053
1504 H1504 47.1018 20.3323 51.85 H 0.0 **** 0.1268
1505 H1505 44.8627 23.3167 57.3686 H 0.0 **** 0.053
1506 H1506 46.3145 22.9635 58.3004 H 0.0 **** 0.053
1507 H1507 46.2345 24.787 55.8603 H 0.0 **** 0.053
1508 H1508 48.4592 25.1184 56.0627 H 0.0 **** 0.053
1509 H1509 48.6172 22.701 57.8629 H 0.0 **** 0.053
1510 H1510 49.6357 23.1567 56.485 H 0.0 **** 0.053
1511 H1511 40.6706 18.6767 51.456 H 0.0 **** 0.053
1512 H1512 40.2533 17.5523 52.7547 H 0.0 **** 0.053
1513 H1513 38.1929 18.689 51.9884 H 0.0 **** 0.053
1514 H1514 38.9255 20.2761 52.2354 H 0.0 **** 0.053
1515 H1515 35.8667 19.7217 52.8639 H 0.0 **** 0.053
1516 H1516 36.4187 18.0626 52.687 H 0.0 **** 0.053
1517 H1517 34.8588 17.2348 54.343 H 0.0 **** 0.053
1518 H1518 33.9466 18.3133 53.274 H 0.0 **** 0.053
1519 H1519 33.3742 18.82 55.653 H 0.0 **** 0.053
1520 H1520 34.2897 20.1838 54.9789 H 0.0 **** 0.053
1521 H1521 35.3622 17.9217 56.7339 H 0.0 **** 0.053
1522 H1522 35.1056 20.9328 57.1658 H 0.0 **** 0.053
1523 H1523 34.1685 19.6611 57.9553 H 0.0 **** 0.053
1524 H1524 39.6044 19.326 58.7813 H 0.0 **** 0.1268
1525 H1525 39.089 19.6258 61.2109 H 0.0 **** 0.1268
1526 H1526 46.5889 19.0412 45.3848 H 0.0 **** 0.053
1527 H1527 47.8621 19.1293 44.1889 H 0.0 **** 0.053
1528 H1528 47.7427 21.6658 44.2457 H 0.0 **** 0.053
1529 H1529 46.4248 21.5592 45.4275 H 0.0 **** 0.053
1530 H1530 46.1831 20.936 43.7716 H 0.0 **** 0.053
1531 H1531 51.2556 20.2546 44.2635 H 0.0 **** 0.053
1532 H1532 49.568 20.2731 43.7372 H 0.0 **** 0.053
1533 H1533 50.3898 18.7276 44.0164 H 0.0 **** 0.053
1534 H1534 46.3693 20.921 48.3966 H 0.0 **** 0.053
1535 H1535 46.3511 19.175 48.6231 H 0.0 **** 0.053
1536 H1536 45.9136 19.8708 47.0465 H 0.0 **** 0.053
1537 H1537 52.8633 19.3609 47.3636 H 0.0 **** 0.053
1538 H1538 52.6825 20.739 46.2662 H 0.0 **** 0.053
1539 H1539 52.4488 19.0893 45.6647 H 0.0 **** 0.053
1540 H1540 53.9892 20.163 52.2151 H 0.0 **** 0.053
1541 H1541 53.7937 21.4416 50.9998 H 0.0 **** 0.053
1542 H1542 53.5517 19.7471 50.553 H 0.0 **** 0.053
1543 H1543 52.2098 22.3231 54.5341 H 0.0 **** 0.053
1544 H1544 53.4948 21.7659 53.45 H 0.0 **** 0.053
1545 H1545 52.8475 20.6913 54.7134 H 0.0 **** 0.053
1546 H1546 49.9763 21.1806 56.4913 H 0.0 **** 0.41
1547 H1547 48.4934 26.2717 58.2675 H 0.0 **** 0.053
1548 H1548 49.8027 25.0685 58.176 H 0.0 **** 0.053
1549 H1549 48.3287 24.7086 59.1032 H 0.0 **** 0.053
1550 H1550 44.8226 25.7582 57.6073 H 0.0 **** 0.053
1551 H1551 46.3136 26.7219 57.4635 H 0.0 **** 0.053
1552 H1552 46.1121 25.5894 58.8202 H 0.0 **** 0.053
1553 H1553 42.7115 21.2943 57.1872 H 0.0 **** 0.41
1554 H1554 44.3352 19.3951 51.7983 H 0.0 **** 0.41
1555 H1555 34.0911 21.1133 59.7537 H 0.0 **** 0.053
1556 H1556 34.4639 20.6298 61.4212 H 0.0 **** 0.053
1557 H1557 33.8664 19.4325 60.2562 H 0.0 **** 0.053
1558 H1558 36.3204 21.1342 62.5854 H 0.0 **** 0.053
1559 H1559 37.6441 20.005 62.9564 H 0.0 **** 0.053
1560 H1560 35.977 19.4068 62.7617 H 0.0 **** 0.053
1561 C1561 41.8324 25.3879 4.54144 C.ar 0.0 **** 0.0
1562 C1562 42.8986 24.7952 5.24276 C.ar 0.0 **** 0.0
1563 C1563 44.2074 25.2887 5.07302 C.ar 0.0 **** 0.0
1564 C1564 44.4365 26.3738 4.22412 C.ar 0.0 **** 0.0
1565 C1565 43.3664 27.0079 3.56151 C.ar 0.0 **** 0.0
1566 C1566 42.0563 26.5267 3.73682 C.ar 0.0 **** 0.0
1567 C1567 45.8212 26.9055 3.99679 C.3 0.0 **** -0.106
1568 C1568 46.9546 26.1315 4.60332 C.ar 0.0 **** 0.0
1569 C1569 46.7423 25.0715 5.45615 C.ar 0.0 **** 0.0
1570 C1570 45.3462 24.6341 5.81578 C.3 0.0 **** -0.106
1571 C1571 47.8528 24.3363 5.99388 C.ar 0.0 **** 0.0
1572 C1572 49.1608 24.639 5.62937 C.ar 0.0 **** 0.0
1573 C1573 49.4035 25.7806 4.78979 C.ar 0.0 **** 0.0
1574 C1574 48.2872 26.5275 4.27246 C.ar 0.0 **** 0.0
1575 C1575 48.4933 27.6745 3.49089 C.ar 0.0 **** -0.1268
1576 C1576 49.7578 28.0725 3.06012 C.ar 0.0 **** 0.0
1577 C1577 50.8799 27.2401 3.42558 C.ar 0.0 **** 0.0
1578 C1578 50.6877 26.2584 4.42952 C.ar 0.0 **** 0.042
1579 C1579 52.1109 27.4046 2.70912 C.2 0.0 **** 0.0
1580 C1580 52.3104 28.506 1.88757 C.2 0.0 **** 0.0
1581 C1581 51.3194 29.5423 1.81237 C.ar 0.0 **** 0.0
1582 C1582 50.0097 29.2933 2.31787 C.ar 0.0 **** 0.0
1583 C1583 53.5111 28.4246 0.973615 C.3 0.0 **** -0.106
1584 C1584 53.4634 27.0777 0.224502 C.ar 0.0 **** -0.053
1585 C1585 53.5791 25.9001 1.22655 C.ar 0.0 **** -0.053
1586 C1586 53.1911 26.3488 2.66209 C.3 0.0 **** -0.106
1587 C1587 48.9915 30.2934 2.10224 C.ar 0.0 **** 0.042
1588 C1588 49.2978 31.5153 1.45682 C.ar 0.0 **** 0.052
1589 C1589 50.616 31.7946 1.02729 C.ar 0.0 **** 0.052
1590 C1590 51.6264 30.8309 1.22844 C.ar 0.0 **** 0.042
1591 C1591 50.9545 33.0495 0.38424 C.2 0.0 **** 0.367
1592 C1592 49.8781 34.0417 0.180757 C.ar 0.0 **** 0.0
1593 C1593 48.595 33.7413 0.593301 C.ar 0.0 **** 0.0
1594 C1594 48.2609 32.4896 1.25643 C.2 0.0 **** 0.367
1595 C1595 47.4893 34.738 0.400304 C.3 0.0 **** -0.106
1596 C1596 47.6671 35.4833 -0.919522 C.3 0.0 **** -0.106
1597 C1597 49.0486 36.0748 -1.00838 C.ar 0.0 **** 0.0
1598 C1598 50.135 35.35 -0.459227 C.ar 0.0 **** 0.2405
1599 N1599 51.3985 35.7944 -0.514992 N.ar 0.0 **** -0.481
1600 C1600 51.6555 36.9405 -1.15444 C.ar 0.0 **** 0.2405
1601 C1601 50.6419 37.7382 -1.7273 C.ar 0.0 **** 0.0
1602 C1602 49.3121 37.3026 -1.63774 C.ar 0.0 **** 0.0
1603 C1603 48.1896 38.1242 -2.23449 C.3 0.0 **** -0.106
1604 C1604 48.5948 39.5611 -2.58061 C.3 0.0 **** -0.106
1605 C1605 49.9441 39.5833 -3.2971 C.3 0.0 **** -0.106
1606 C1606 51.0369 39.0456 -2.37401 C.3 0.0 **** -0.053
1607 C1607 52.378 38.9067 -3.09687 C.3 0.0 **** -0.106
1608 C1608 53.4501 38.3181 -2.21376 C.ar 0.0 **** 0.0
1609 C1609 53.0671 37.3546 -1.25739 C.ar 0.0 **** 0.0
1610 C1610 54.0441 36.7535 -0.452261 C.ar 0.0 **** -0.1268
1611 C1611 55.3767 37.1189 -0.596431 C.ar 0.0 **** -0.1268
1612 C1612 55.7787 38.0688 -1.54889 C.ar 0.0 **** 0.0
1613 C1613 54.804 38.6658 -2.37618 C.ar 0.0 **** 0.0
1614 C1614 40.8912 27.2006 3.04299 C.3 0.0 **** -0.106
1615 C1615 40.7102 26.7075 1.59861 C.3 0.0 **** -0.159
1616 C1616 40.4439 24.7939 4.64955 C.3 0.0 **** -0.159
1617 C1617 43.6819 28.1836 2.66714 C.3 0.0 **** -0.159
1618 C1618 42.6396 23.6323 6.1742 C.3 0.0 **** -0.159
1619 C1619 47.5701 23.1919 6.94149 C.3 0.0 **** -0.159
1620 C1620 50.283 23.7071 6.02965 C.3 0.0 **** -0.159
1621 O1621 51.7705 25.775 5.12959 O.3 0.0 **** -0.452
1622 C1622 54.97 25.2617 1.29712 C.3 0.0 **** -0.159
1623 C1623 54.4859 27.0457 -0.913891 C.3 0.0 **** -0.159
1624 O1624 52.8781 31.1332 0.906527 O.3 0.0 **** -0.452
1625 O1625 47.7367 30.105 2.50252 O.3 0.0 **** -0.452
1626 O1626 47.0594 32.2822 1.65742 O.2 0.0 **** -0.419
1627 O1627 52.1487 33.2559 -0.000452641 O.2 0.0 **** -0.419
1628 C1628 55.1951 39.663 -3.44222 C.3 0.0 **** -0.159
1629 C1629 57.2413 38.4173 -1.67075 C.3 0.0 **** -0.159
1630 H1630 45.9985 26.9854 2.91001 H 0.0 **** 0.053
1631 H1631 45.8707 27.9549 4.34726 H 0.0 **** 0.053
1632 H1632 45.1963 24.7892 6.90236 H 0.0 **** 0.053
1633 H1633 45.2782 23.5403 5.68948 H 0.0 **** 0.053
1634 H1634 47.6454 28.282 3.22004 H 0.0 **** 0.1268
1635 H1635 53.5323 29.2438 0.254521 H 0.0 **** 0.053
1636 H1636 54.4517 28.487 1.55183 H 0.0 **** 0.053
1637 H1637 52.4607 27.0223 -0.230286 H 0.0 **** 0.053
1638 H1638 52.8627 25.1214 0.920731 H 0.0 **** 0.053
1639 H1639 54.1068 26.7645 3.12564 H 0.0 **** 0.053
1640 H1640 52.9228 25.4484 3.22299 H 0.0 **** 0.053
1641 H1641 46.5194 34.2279 0.456848 H 0.0 **** 0.053
1642 H1642 47.5185 35.459 1.23888 H 0.0 **** 0.053
1643 H1643 46.8925 36.2536 -1.01963 H 0.0 **** 0.053
1644 H1644 47.5186 34.7779 -1.75907 H 0.0 **** 0.053
1645 H1645 47.8285 37.6135 -3.14543 H 0.0 **** 0.053
1646 H1646 47.3323 38.1404 -1.54391 H 0.0 **** 0.053
1647 H1647 48.6748 40.152 -1.65285 H 0.0 **** 0.053
1648 H1648 47.8101 40.0292 -3.19397 H 0.0 **** 0.053
1649 H1649 50.2038 40.6021 -3.62582 H 0.0 **** 0.053
1650 H1650 49.8949 38.951 -4.20116 H 0.0 **** 0.053
1651 H1651 51.1833 39.7783 -1.5548 H 0.0 **** 0.053
1652 H1652 52.2366 38.2593 -3.98421 H 0.0 **** 0.053
1653 H1653 52.6765 39.8931 -3.47822 H 0.0 **** 0.053
1654 H1654 53.7355 35.9913 0.263276 H 0.0 **** 0.1268
1655 H1655 56.1373 36.6523 0.0333296 H 0.0 **** 0.1268
1656 H1656 41.035 28.2911 3.04375 H 0.0 **** 0.053
1657 H1657 39.9646 27.0279 3.60739 H 0.0 **** 0.053
1658 H1658 40.5584 25.6174 1.58031 H 0.0 **** 0.053
1659 H1659 41.6084 26.9241 1.00133 H 0.0 **** 0.053
1660 H1660 39.8457 27.1872 1.11378 H 0.0 **** 0.053
1661 H1661 40.4829 23.7163 4.85321 H 0.0 **** 0.053
1662 H1662 39.8726 24.9301 3.72205 H 0.0 **** 0.053
1663 H1663 39.8615 25.2603 5.46354 H 0.0 **** 0.053
1664 H1664 44.3619 27.8823 1.85326 H 0.0 **** 0.053
1665 H1665 44.206 28.9795 3.22151 H 0.0 **** 0.053
1666 H1666 42.7926 28.6227 2.20348 H 0.0 **** 0.053
1667 H1667 43.4088 23.5502 6.95207 H 0.0 **** 0.053
1668 H1668 42.6247 22.6717 5.62943 H 0.0 **** 0.053
1669 H1669 41.6695 23.7309 6.67984 H 0.0 **** 0.053
1670 H1670 48.3778 23.0635 7.67306 H 0.0 **** 0.053
1671 H1671 47.4565 22.2346 6.40259 H 0.0 **** 0.053
1672 H1672 46.642 23.355 7.50301 H 0.0 **** 0.053
1673 H1673 50.9962 23.5825 5.20634 H 0.0 **** 0.053
1674 H1674 49.8967 22.7154 6.29087 H 0.0 **** 0.053
1675 H1675 50.8583 24.0902 6.88708 H 0.0 **** 0.053
1676 H1676 52.5243 26.3628 4.9626 H 0.0 **** 0.41
1677 H1677 55.2619 24.8027 0.342489 H 0.0 **** 0.053
1678 H1678 54.9924 24.4808 2.07285 H 0.0 **** 0.053
1679 H1679 55.7304 26.0149 1.55908 H 0.0 **** 0.053
1680 H1680 54.2878 27.8607 -1.62584 H 0.0 **** 0.053
1681 H1681 54.4443 26.0938 -1.46456 H 0.0 **** 0.053
1682 H1682 55.5111 27.1713 -0.534572 H 0.0 **** 0.053
1683 H1683 52.7914 32.1003 0.458852 H 0.0 **** 0.41
1684 H1684 47.2275 30.9953 2.22088 H 0.0 **** 0.41
1685 H1685 54.7372 39.4102 -4.41066 H 0.0 **** 0.053
1686 H1686 56.281 39.7072 -3.58481 H 0.0 **** 0.053
1687 H1687 54.8519 40.6795 -3.18443 H 0.0 **** 0.053
1688 H1688 57.6356 38.1638 -2.66857 H 0.0 **** 0.053
1689 H1689 57.8337 37.8696 -0.925266 H 0.0 **** 0.053
1690 H1690 57.4153 39.4952 -1.52314 H 0.0 **** 0.053
1691 C1691 26.6472 32.219 1.60092 C.ar 0.0 **** 0.0
1692 C1692 27.6791 31.272 1.73561 C.ar 0.0 **** 0.0
1693 C1693 27.3753 29.8966 1.69828 C.ar 0.0 **** 0.0
1694 C1694 26.0551 29.4812 1.51011 C.ar 0.0 **** 0.0
1695 C1695 25.0244 30.4232 1.31892 C.ar 0.0 **** 0.0
1696 C1696 25.3242 31.7972 1.34333 C.ar 0.0 **** 0.0
1697 C1697 25.6918 28.0254 1.49553 C.3 0.0 **** -0.106
1698 C1698 26.7798 27.0497 1.83612 C.ar 0.0 **** 0.0
1699 C1699 28.0882 27.4437 2.00598 C.ar 0.0 **** 0.0
1700 C1700 28.4869 28.8895 1.86196 C.3 0.0 **** -0.106
1701 C1701 29.0968 26.4847 2.36053 C.ar 0.0 **** 0.0
1702 C1702 28.7732 25.1516 2.59188 C.ar 0.0 **** 0.0
1703 C1703 27.4244 24.7117 2.35855 C.ar 0.0 **** 0.0
1704 C1704 26.4226 25.6737 1.98099 C.ar 0.0 **** 0.0
1705 C1705 25.1095 25.2673 1.69928 C.ar 0.0 **** -0.1268
1706 C1706 24.6688 23.96 1.89831 C.ar 0.0 **** 0.0
1707 C1707 25.6143 23.0124 2.44032 C.ar 0.0 **** 0.0
1708 C1708 26.9861 23.3679 2.45569 C.ar 0.0 **** 0.042
1709 C1709 25.1105 21.7898 2.99451 C.2 0.0 **** 0.0
1710 C1710 23.7967 21.3996 2.77159 C.2 0.0 **** 0.0
1711 C1711 22.9483 22.1724 1.90859 C.ar 0.0 **** 0.0
1712 C1712 23.3416 23.4934 1.54395 C.ar 0.0 **** 0.0
1713 C1713 23.3039 20.259 3.63161 C.3 0.0 **** -0.106
1714 C1714 23.6253 20.5842 5.10413 C.ar 0.0 **** -0.053
1715 C1715 25.1591 20.6758 5.31267 C.ar 0.0 **** -0.053
1716 C1716 25.8906 20.9362 3.96737 C.3 0.0 **** -0.106
1717 C1717 22.4093 24.3032 0.796617 C.ar 0.0 **** 0.042
1718 C1718 21.1596 23.7809 0.38561 C.ar 0.0 **** 0.052
1719 C1719 20.804 22.4438 0.678921 C.ar 0.0 **** 0.052
1720 C1720 21.7007 21.635 1.40817 C.ar 0.0 **** 0.042
1721 C1721 19.538 21.8835 0.247393 C.2 0.0 **** 0.367
1722 C1722 18.6134 22.7515 -0.511604 C.ar 0.0 **** 0.0
1723 C1723 18.9742 24.0586 -0.772627 C.ar 0.0 **** 0.0
1724 C1724 20.2535 24.6135 -0.356101 C.2 0.0 **** 0.367
1725 C1725 18.0511 24.9542 -1.54653 C.3 0.0 **** -0.106
1726 C1726 16.5976 24.666 -1.18156 C.3 0.0 **** -0.106
1727 C1727 16.2978 23.1984 -1.33255 C.ar 0.0 **** 0.0
1728 C1728 17.3054 22.2607 -0.997031 C.ar 0.0 **** 0.2405
1729 N1729 17.1137 20.9367 -1.08178 N.ar 0.0 **** -0.481
1730 C1730 15.9128 20.4773 -1.44942 C.ar 0.0 **** 0.2405
1731 C1731 14.8477 21.3299 -1.8106 C.ar 0.0 **** 0.0
1732 C1732 15.0514 22.7166 -1.76537 C.ar 0.0 **** 0.0
1733 C1733 13.9407 23.672 -2.14542 C.3 0.0 **** -0.106
1734 C1734 12.7838 23.004 -2.89669 C.3 0.0 **** -0.106
1735 C1735 12.3868 21.693 -2.21996 C.3 0.0 **** -0.106
1736 C1736 13.5509 20.7041 -2.26886 C.3 0.0 **** -0.053
1737 C1737 13.254 19.4325 -1.47184 C.3 0.0 **** -0.106
1738 C1738 14.4195 18.4747 -1.46031 C.ar 0.0 **** 0.0
1739 C1739 15.7225 19.0149 -1.45694 C.ar 0.0 **** 0.0
1740 C1740 16.8273 18.1546 -1.3996 C.ar 0.0 **** -0.1268
1741 C1741 16.6293 16.7802 -1.35687 C.ar 0.0 **** -0.1268
1742 C1742 15.3403 16.2238 -1.34985 C.ar 0.0 **** 0.0
1743 C1743 14.222 17.0832 -1.38911 C.ar 0.0 **** 0.0
1744 C1744 24.2333 32.8254 1.12875 C.3 0.0 **** -0.106
1745 C1745 23.4606 33.1319 2.4214 C.3 0.0 **** -0.159
1746 C1746 26.9621 33.6934 1.73973 C.3 0.0 **** -0.159
1747 C1747 23.6205 29.9065 1.10886 C.3 0.0 **** -0.159
1748 C1748 29.1084 31.7299 1.92055 C.3 0.0 **** -0.159
1749 C1749 30.5235 26.9619 2.51755 C.3 0.0 **** -0.159
1750 C1750 29.81 24.2224 3.18313 C.3 0.0 **** -0.159
1751 O1751 27.9472 22.3835 2.51428 O.3 0.0 **** -0.452
1752 C1752 25.7875 19.4338 5.95276 C.3 0.0 **** -0.159
1753 C1753 22.9128 19.6139 6.04929 C.3 0.0 **** -0.159
1754 O1754 21.4027 20.3563 1.60237 O.3 0.0 **** -0.452
1755 O1755 22.6905 25.561 0.466687 O.3 0.0 **** -0.452
1756 O1756 20.5537 25.8228 -0.664142 O.2 0.0 **** -0.419
1757 O1757 19.2498 20.6811 0.54415 O.2 0.0 **** -0.419
1758 C1758 12.816 16.5309 -1.34264 C.3 0.0 **** -0.159
1759 C1759 15.1847 14.7246 -1.28892 C.3 0.0 **** -0.159
1760 H1760 24.8492 27.8611 2.18974 H 0.0 **** 0.053
1761 H1761 25.2689 27.7653 0.505549 H 0.0 **** 0.053
1762 H1762 29.1779 28.9812 1.00105 H 0.0 **** 0.053
1763 H1763 29.104 29.1711 2.73199 H 0.0 **** 0.053
1764 H1764 24.4131 25.9874 1.30179 H 0.0 **** 0.1268
1765 H1765 22.232 20.096 3.5175 H 0.0 **** 0.053
1766 H1766 23.7994 19.311 3.35107 H 0.0 **** 0.053
1767 H1767 23.2102 21.5889 5.28741 H 0.0 **** 0.053
1768 H1768 25.3625 21.5365 5.96919 H 0.0 **** 0.053
1769 H1769 26.0657 19.9467 3.50193 H 0.0 **** 0.053
1770 H1770 26.8702 21.3608 4.20655 H 0.0 **** 0.053
1771 H1771 18.3196 26.003 -1.36756 H 0.0 **** 0.053
1772 H1772 18.2056 24.7664 -2.62576 H 0.0 **** 0.053
1773 H1773 15.9298 25.2786 -1.79963 H 0.0 **** 0.053
1774 H1774 16.4188 24.9678 -0.132087 H 0.0 **** 0.053
1775 H1775 13.5568 24.1462 -1.22415 H 0.0 **** 0.053
1776 H1776 14.3484 24.4937 -2.75428 H 0.0 **** 0.053
1777 H1777 13.096 22.7895 -3.93247 H 0.0 **** 0.053
1778 H1778 11.9309 23.6971 -2.95427 H 0.0 **** 0.053
1779 H1779 11.5014 21.2485 -2.70148 H 0.0 **** 0.053
1780 H1780 12.123 21.8848 -1.16485 H 0.0 **** 0.053
1781 H1781 13.6963 20.3995 -3.32501 H 0.0 **** 0.053
1782 H1782 13.0023 19.7172 -0.431618 H 0.0 **** 0.053
1783 H1783 12.3551 18.9573 -1.88848 H 0.0 **** 0.053
1784 H1784 17.8268 18.5884 -1.37054 H 0.0 **** 0.1268
1785 H1785 17.4908 16.11 -1.31514 H 0.0 **** 0.1268
1786 H1786 23.5334 32.4729 0.356917 H 0.0 **** 0.053
1787 H1787 24.6634 33.7546 0.73044 H 0.0 **** 0.053
1788 H1788 24.1463 33.4926 3.20332 H 0.0 **** 0.053
1789 H1789 22.9739 32.2229 2.80509 H 0.0 **** 0.053
1790 H1790 22.6869 33.898 2.25699 H 0.0 **** 0.053
1791 H1791 27.8265 33.8594 2.39516 H 0.0 **** 0.053
1792 H1792 26.1172 34.2488 2.1673 H 0.0 **** 0.053
1793 H1793 27.1969 34.1553 0.764688 H 0.0 **** 0.053
1794 H1794 23.2884 29.3168 1.97927 H 0.0 **** 0.053
1795 H1795 23.5696 29.2254 0.24353 H 0.0 **** 0.053
1796 H1796 22.8866 30.7043 0.956022 H 0.0 **** 0.053
1797 H1797 29.8285 30.9733 1.58489 H 0.0 **** 0.053
1798 H1798 29.3321 31.9433 2.98089 H 0.0 **** 0.053
1799 H1799 29.3116 32.6504 1.35692 H 0.0 **** 0.053
1800 H1800 31.2438 26.1776 2.25256 H 0.0 **** 0.053
1801 H1801 30.7382 27.2713 3.55569 H 0.0 **** 0.053
1802 H1802 30.7306 27.8274 1.87635 H 0.0 **** 0.053
1803 H1803 29.3583 23.5661 3.93635 H 0.0 **** 0.053
1804 H1804 30.613 24.7874 3.66971 H 0.0 **** 0.053
1805 H1805 30.2619 23.5641 2.42466 H 0.0 **** 0.053
1806 H1806 27.5211 21.5341 2.3178 H 0.0 **** 0.41
1807 H1807 25.4104 19.2586 6.96976 H 0.0 **** 0.053
1808 H1808 26.8814 19.5453 6.00824 H 0.0 **** 0.053
1809 H1809 25.5731 18.536 5.35108 H 0.0 **** 0.053
1810 H1810 21.8243 19.6668 5.89847 H 0.0 **** 0.053
1811 H1811 23.1233 19.8521 7.10294 H 0.0 **** 0.053
1812 H1812 23.228 18.5754 5.86877 H 0.0 **** 0.053
1813 H1813 20.4237 20.2642 1.18241 H 0.0 **** 0.41
1814 H1814 21.8383 25.8944 -0.0754095 H 0.0 **** 0.41
1815 H1815 12.2089 17.0515 -0.586346 H 0.0 **** 0.053
1816 H1816 12.8026 15.4608 -1.10642 H 0.0 **** 0.053
1817 H1817 12.3015 16.6645 -2.30962 H 0.0 **** 0.053
1818 H1818 14.6519 14.4102 -0.376441 H 0.0 **** 0.053
1819 H1819 16.1668 14.2326 -1.29216 H 0.0 **** 0.053
1820 H1820 14.6059 14.3416 -2.14461 H 0.0 **** 0.053
1821 C1821 58.0302 6.21326 56.0985 C.ar 0.0 **** 0.0
1822 C1822 58.5132 5.00864 55.5549 C.ar 0.0 **** 0.0
1823 C1823 59.7278 4.46821 56.0216 C.ar 0.0 **** 0.0
1824 C1824 60.4361 5.12113 57.0329 C.ar 0.0 **** 0.0
1825 C1825 59.9309 6.29815 57.6209 C.ar 0.0 **** 0.0
1826 C1826 58.7128 6.83538 57.1669 C.ar 0.0 **** 0.0
1827 C1827 61.7476 4.58989 57.5324 C.3 0.0 **** -0.106
1828 C1828 62.3291 3.41651 56.7999 C.ar 0.0 **** 0.0
1829 C1829 61.634 2.7527 55.8139 C.ar 0.0 **** 0.0
1830 C1830 60.2459 3.1855 55.4191 C.3 0.0 **** -0.106
1831 C1831 62.2356 1.65179 55.1147 C.ar 0.0 **** 0.0
1832 C1832 63.5455 1.26263 55.3756 C.ar 0.0 **** 0.0
1833 C1833 64.263 1.90391 56.4438 C.ar 0.0 **** 0.0
1834 C1834 63.6461 2.99171 57.1563 C.ar 0.0 **** 0.0
1835 C1835 64.3017 3.60477 58.2348 C.ar 0.0 **** -0.1268
1836 C1836 65.6159 3.30077 58.5859 C.ar 0.0 **** 0.0
1837 C1837 66.3158 2.33142 57.7758 C.ar 0.0 **** 0.0
1838 C1838 65.5597 1.53519 56.8798 C.ar 0.0 **** 0.042
1839 C1839 67.7451 2.26985 57.8713 C.2 0.0 **** 0.0
1840 C1840 68.4145 2.91707 58.9012 C.2 0.0 **** 0.0
1841 C1841 67.6775 3.5851 59.9368 C.ar 0.0 **** 0.0
1842 C1842 66.2924 3.86061 59.7407 C.ar 0.0 **** 0.0
1843 C1843 69.913 3.02173 58.736 C.3 0.0 **** -0.106
1844 C1844 70.2106 3.58956 57.3337 C.ar 0.0 **** -0.053
1845 C1845 69.7035 2.61484 56.2396 C.ar 0.0 **** -0.053
1846 C1846 68.6222 1.65424 56.8057 C.3 0.0 **** -0.106
1847 C1847 65.607 4.65855 60.729 C.ar 0.0 **** 0.042
1848 C1848 66.2765 5.1079 61.8923 C.ar 0.0 **** 0.052
1849 C1849 67.6291 4.76609 62.1246 C.ar 0.0 **** 0.052
1850 C1850 68.3177 3.98679 61.1714 C.ar 0.0 **** 0.042
1851 C1851 68.326 5.19799 63.3207 C.2 0.0 **** 0.367
1852 C1852 67.5848 6.01698 64.3027 C.ar 0.0 **** 0.0
1853 C1853 66.2698 6.35254 64.0477 C.ar 0.0 **** 0.0
1854 C1854 65.5658 5.90167 62.8563 C.2 0.0 **** 0.367
1855 C1855 65.4986 7.17901 65.0352 C.3 0.0 **** -0.106
1856 C1856 66.402 8.23237 65.6703 C.3 0.0 **** -0.106
1857 C1857 67.6387 7.5908 66.2407 C.ar 0.0 **** 0.0
1858 C1858 68.2145 6.49409 65.5529 C.ar 0.0 **** 0.2405
1859 N1859 69.3268 5.87999 65.9804 N.ar 0.0 **** -0.481
1860 C1860 69.9478 6.34647 67.069 C.ar 0.0 **** 0.2405
1861 C1861 69.4498 7.42784 67.8268 C.ar 0.0 **** 0.0
1862 C1862 68.264 8.05042 67.4115 C.ar 0.0 **** 0.0
1863 C1863 67.6888 9.21265 68.1921 C.3 0.0 **** -0.106
1864 C1864 68.2899 9.37132 69.593 C.3 0.0 **** -0.106
1865 C1865 69.811 9.2364 69.5456 C.3 0.0 **** -0.106
1866 C1866 70.1988 7.83528 69.0744 C.3 0.0 **** -0.053
1867 C1867 71.7083 7.70006 68.8661 C.3 0.0 **** -0.106
1868 C1868 72.0978 6.34047 68.3411 C.ar 0.0 **** 0.0
1869 C1869 71.2084 5.68916 67.461 C.ar 0.0 **** 0.0
1870 C1870 71.5598 4.44585 66.9182 C.ar 0.0 **** -0.1268
1871 C1871 72.774 3.86302 67.2592 C.ar 0.0 **** -0.1268
1872 C1872 73.6765 4.49983 68.1257 C.ar 0.0 **** 0.0
1873 C1873 73.3388 5.76017 68.6627 C.ar 0.0 **** 0.0
1874 C1874 58.147 8.09278 57.7929 C.3 0.0 **** -0.106
1875 C1875 58.7539 9.3681 57.1868 C.3 0.0 **** -0.159
1876 C1876 56.777 6.84238 55.5274 C.3 0.0 **** -0.159
1877 C1877 60.7409 6.94772 58.7181 C.3 0.0 **** -0.159
1878 C1878 57.731 4.29811 54.4731 C.3 0.0 **** -0.159
1879 C1879 61.4257 0.941797 54.0527 C.3 0.0 **** -0.159
1880 C1880 64.2214 0.257919 54.4691 C.3 0.0 **** -0.159
1881 O1881 66.0627 0.329453 56.4448 O.3 0.0 **** -0.452
1882 C1882 70.7987 1.75773 55.5968 C.3 0.0 **** -0.159
1883 C1883 71.684 3.98205 57.2013 C.3 0.0 **** -0.159
1884 O1884 69.5572 3.59274 61.4359 O.3 0.0 **** -0.452
1885 O1885 64.3281 4.99593 60.5845 O.3 0.0 **** -0.452
1886 O1886 64.3303 6.20821 62.6924 O.2 0.0 **** -0.419
1887 O1887 69.5466 4.88171 63.485 O.2 0.0 **** -0.419
1888 C1888 74.2963 6.50085 69.5674 C.3 0.0 **** -0.159
1889 C1889 74.9867 3.82643 68.4505 C.3 0.0 **** -0.159
1890 H1890 62.4901 5.40692 57.5231 H 0.0 **** 0.053
1891 H1891 61.6525 4.33573 58.6062 H 0.0 **** 0.053
1892 H1892 59.5386 2.36846 55.6624 H 0.0 **** 0.053
1893 H1893 60.2016 3.25951 54.3192 H 0.0 **** 0.053
1894 H1894 63.7689 4.33147 58.826 H 0.0 **** 0.1268
1895 H1895 70.3629 3.66277 59.4945 H 0.0 **** 0.053
1896 H1896 70.391 2.02959 58.8366 H 0.0 **** 0.053
1897 H1897 69.6139 4.51282 57.2506 H 0.0 **** 0.053
1898 H1898 69.229 3.21214 55.4451 H 0.0 **** 0.053
1899 H1899 69.1596 0.79367 57.2494 H 0.0 **** 0.053
1900 H1900 68.0468 1.27502 55.9558 H 0.0 **** 0.053
1901 H1901 64.6287 7.62833 64.5398 H 0.0 **** 0.053
1902 H1902 65.1049 6.50721 65.8211 H 0.0 **** 0.053
1903 H1903 65.8463 8.78655 66.4368 H 0.0 **** 0.053
1904 H1904 66.697 8.97096 64.901 H 0.0 **** 0.053
1905 H1905 67.8543 10.139 67.613 H 0.0 **** 0.053
1906 H1906 66.5961 9.10355 68.2713 H 0.0 **** 0.053
1907 H1907 67.8837 8.58911 70.2559 H 0.0 **** 0.053
1908 H1908 67.9888 10.3412 70.017 H 0.0 **** 0.053
1909 H1909 70.2593 9.43362 70.5323 H 0.0 **** 0.053
1910 H1910 70.2281 9.97939 68.8431 H 0.0 **** 0.053
1911 H1911 69.9144 7.11656 69.8694 H 0.0 **** 0.053
1912 H1912 72.0382 8.47837 68.1506 H 0.0 **** 0.053
1913 H1913 72.216 7.91807 69.8159 H 0.0 **** 0.053
1914 H1914 70.8738 3.96795 66.2188 H 0.0 **** 0.1268
1915 H1915 73.046 2.89267 66.8381 H 0.0 **** 0.1268
1916 H1916 58.3229 8.08217 58.8787 H 0.0 **** 0.053
1917 H1917 57.055 8.11506 57.6743 H 0.0 **** 0.053
1918 H1918 58.5807 9.39775 56.1001 H 0.0 **** 0.053
1919 H1919 59.8421 9.39152 57.3467 H 0.0 **** 0.053
1920 H1920 58.3168 10.2747 57.6335 H 0.0 **** 0.053
1921 H1921 56.644 6.58325 54.4693 H 0.0 **** 0.053
1922 H1922 56.8084 7.93772 55.5935 H 0.0 **** 0.053
1923 H1923 55.8709 6.50845 56.0628 H 0.0 **** 0.053
1924 H1924 61.7373 7.23865 58.3463 H 0.0 **** 0.053
1925 H1925 60.9202 6.2485 59.5514 H 0.0 **** 0.053
1926 H1926 60.2695 7.84758 59.1261 H 0.0 **** 0.053
1927 H1927 57.9496 3.22336 54.4471 H 0.0 **** 0.053
1928 H1928 57.9651 4.7014 53.4718 H 0.0 **** 0.053
1929 H1929 56.6484 4.41021 54.6205 H 0.0 **** 0.053
1930 H1930 61.6994 -0.118139 53.9766 H 0.0 **** 0.053
1931 H1931 61.574 1.39418 53.0562 H 0.0 **** 0.053
1932 H1932 60.3513 0.98833 54.2686 H 0.0 **** 0.053
1933 H1933 65.2598 0.549727 54.2725 H 0.0 **** 0.053
1934 H1934 63.7051 0.187826 53.5051 H 0.0 **** 0.053
1935 H1935 64.258 -0.748473 54.9149 H 0.0 **** 0.053
1936 H1936 66.8154 0.0951004 57.0106 H 0.0 **** 0.41
1937 H1937 71.538 2.368 55.06 H 0.0 **** 0.053
1938 H1938 70.3565 1.04797 54.8807 H 0.0 **** 0.053
1939 H1939 71.3325 1.17155 56.3619 H 0.0 **** 0.053
1940 H1940 71.9459 4.73641 57.958 H 0.0 **** 0.053
1941 H1941 71.8992 4.40544 56.2085 H 0.0 **** 0.053
1942 H1942 72.344 3.11408 57.3481 H 0.0 **** 0.053
1943 H1943 69.777 4.07494 62.3646 H 0.0 **** 0.41
1944 H1944 64.0996 5.56479 61.4536 H 0.0 **** 0.41
1945 H1945 74.4249 7.54427 69.2415 H 0.0 **** 0.053
1946 H1946 75.2862 6.03106 69.5906 H 0.0 **** 0.053
1947 H1947 73.9206 6.53613 70.6044 H 0.0 **** 0.053
1948 H1948 75.8457 4.42993 68.1141 H 0.0 **** 0.053
1949 H1949 75.0507 2.84597 67.9595 H 0.0 **** 0.053
1950 H1950 75.1076 3.67583 69.5353 H 0.0 **** 0.053
1951 C1951 9.99424 13.9468 15.9972 C.ar 0.0 **** 0.0
1952 C1952 8.69649 13.7841 16.5162 C.ar 0.0 **** 0.0
1953 C1953 8.18419 12.4882 16.7247 C.ar 0.0 **** 0.0
1954 C1954 8.97309 11.3734 16.4322 C.ar 0.0 **** 0.0
1955 C1955 10.2936 11.5288 15.9647 C.ar 0.0 **** 0.0
1956 C1956 10.8141 12.8203 15.7662 C.ar 0.0 **** 0.0
1957 C1957 8.44842 9.97935 16.6135 C.3 0.0 **** -0.106
1958 C1958 7.00011 9.84043 16.9804 C.ar 0.0 **** 0.0
1959 C1959 6.21636 10.9297 17.2889 C.ar 0.0 **** 0.0
1960 C1960 6.78461 12.3248 17.2645 C.3 0.0 **** -0.106
1961 C1961 4.82615 10.7594 17.6068 C.ar 0.0 **** 0.0
1962 C1962 4.22547 9.50534 17.5608 C.ar 0.0 **** 0.0
1963 C1963 5.04226 8.35088 17.3016 C.ar 0.0 **** 0.0
1964 C1964 6.44001 8.52605 17.0061 C.ar 0.0 **** 0.0
1965 C1965 7.27245 7.41599 16.7971 C.ar 0.0 **** -0.1268
1966 C1966 6.7828 6.11295 16.7251 C.ar 0.0 **** 0.0
1967 C1967 5.35577 5.92856 16.8489 C.ar 0.0 **** 0.0
1968 C1968 4.57868 7.01234 17.3285 C.ar 0.0 **** 0.042
1969 C1969 4.79084 4.68298 16.4187 C.2 0.0 **** 0.0
1970 C1970 5.60508 3.58994 16.1539 C.2 0.0 **** 0.0
1971 C1971 7.01907 3.66569 16.3922 C.ar 0.0 **** 0.0
1972 C1972 7.62641 4.94073 16.5875 C.ar 0.0 **** 0.0
1973 C1973 4.93438 2.43897 15.4405 C.3 0.0 **** -0.106
1974 C1974 4.19919 2.99362 14.2038 C.ar 0.0 **** -0.053
1975 C1975 3.0761 3.97041 14.6385 C.ar 0.0 **** -0.053
1976 C1976 3.32998 4.50985 16.0728 C.3 0.0 **** -0.106
1977 C1977 9.06529 5.00612 16.6807 C.ar 0.0 **** 0.042
1978 C1978 9.85081 3.82946 16.6376 C.ar 0.0 **** 0.052
1979 C1979 9.24159 2.55814 16.5244 C.ar 0.0 **** 0.052
1980 C1980 7.83657 2.47162 16.4322 C.ar 0.0 **** 0.042
1981 C1981 10.0276 1.33967 16.501 C.2 0.0 **** 0.367
1982 C1982 11.498 1.45603 16.5949 C.ar 0.0 **** 0.0
1983 C1983 12.0724 2.7083 16.6883 C.ar 0.0 **** 0.0
1984 C1984 11.2811 3.92906 16.7317 C.2 0.0 **** 0.367
1985 C1985 13.5635 2.84699 16.7899 C.3 0.0 **** -0.106
1986 C1986 14.2572 1.79754 15.9259 C.3 0.0 **** -0.106
1987 C1987 13.7451 0.420977 16.2566 C.ar 0.0 **** 0.0
1988 C1988 12.376 0.265995 16.5862 C.ar 0.0 **** 0.2405
1989 N1989 11.8349 -0.926687 16.872 N.ar 0.0 **** -0.481
1990 C1990 12.6 -2.02093 16.7971 C.ar 0.0 **** 0.2405
1991 C1991 13.9754 -1.97011 16.4849 C.ar 0.0 **** 0.0
1992 C1992 14.5603 -0.722442 16.2253 C.ar 0.0 **** 0.0
1993 C1993 16.0321 -0.61591 15.8881 C.3 0.0 **** -0.106
1994 C1994 16.8322 -1.88129 16.2158 C.3 0.0 **** -0.106
1995 C1995 16.0877 -3.12824 15.7414 C.3 0.0 **** -0.106
1996 C1996 14.7601 -3.26155 16.4866 C.3 0.0 **** -0.053
1997 C1997 13.9105 -4.40994 15.9391 C.3 0.0 **** -0.106
1998 C1998 12.5707 -4.51292 16.6247 C.ar 0.0 **** 0.0
1999 C1999 11.9472 -3.3197 17.0457 C.ar 0.0 **** 0.0
2000 C2000 10.6812 -3.37525 17.6442 C.ar 0.0 **** -0.1268
2001 C2001 10.0579 -4.60349 17.8259 C.ar 0.0 **** -0.1268
2002 C2002 10.658 -5.80093 17.4052 C.ar 0.0 **** 0.0
2003 C2003 11.9245 -5.75271 16.7853 C.ar 0.0 **** 0.0
2004 C2004 12.2341 13.0092 15.2753 C.3 0.0 **** -0.106
2005 C2005 12.3398 12.9027 13.7458 C.3 0.0 **** -0.159
2006 C2006 10.505 15.3369 15.6821 C.3 0.0 **** -0.159
2007 C2007 11.0967 10.2817 15.6788 C.3 0.0 **** -0.159
2008 C2008 7.85545 14.9964 16.8477 C.3 0.0 **** -0.159
2009 C2009 4.01038 11.9838 17.9576 C.3 0.0 **** -0.159
2010 C2010 2.72145 9.39231 17.675 C.3 0.0 **** -0.159
2011 O2011 3.34588 6.77289 17.8933 O.3 0.0 **** -0.452
2012 C2012 1.66681 3.37028 14.6083 C.3 0.0 **** -0.159
2013 C2013 3.73491 1.85993 13.2864 C.3 0.0 **** -0.159
2014 O2014 7.2646 1.27401 16.4176 O.3 0.0 **** -0.452
2015 O2015 9.701 6.16742 16.8126 O.3 0.0 **** -0.452
2016 O2016 11.867 5.06342 16.8629 O.2 0.0 **** -0.419
2017 O2017 9.44223 0.217071 16.3832 O.2 0.0 **** -0.419
2018 C2018 12.5905 -7.01169 16.2801 C.3 0.0 **** -0.159
2019 C2019 9.92906 -7.10473 17.6159 C.3 0.0 **** -0.159
2020 H2020 8.62747 9.40751 15.6862 H 0.0 **** 0.053
2021 H2021 9.06532 9.45314 17.3679 H 0.0 **** 0.053
2022 H2022 6.75031 12.7383 18.2916 H 0.0 **** 0.053
2023 H2023 6.09899 12.9724 16.692 H 0.0 **** 0.053
2024 H2024 8.33468 7.56987 16.6996 H 0.0 **** 0.1268
2025 H2025 5.65112 1.67818 15.1306 H 0.0 **** 0.053
2026 H2026 4.20552 1.93565 16.1026 H 0.0 **** 0.053
2027 H2027 4.94756 3.58268 13.6486 H 0.0 **** 0.053
2028 H2028 3.09273 4.83389 13.9549 H 0.0 **** 0.053
2029 H2029 2.88951 3.77431 16.7737 H 0.0 **** 0.053
2030 H2030 2.76108 5.43873 16.1764 H 0.0 **** 0.053
2031 H2031 13.8584 3.86714 16.5134 H 0.0 **** 0.053
2032 H2032 13.8561 2.70728 17.8476 H 0.0 **** 0.053
2033 H2033 15.3441 1.86501 16.0585 H 0.0 **** 0.053
2034 H2034 14.0571 2.01365 14.8593 H 0.0 **** 0.053
2035 H2035 16.1286 -0.387433 14.8113 H 0.0 **** 0.053
2036 H2036 16.4733 0.244535 16.4146 H 0.0 **** 0.053
2037 H2037 16.9796 -1.94836 17.3067 H 0.0 **** 0.053
2038 H2038 17.8314 -1.81582 15.7592 H 0.0 **** 0.053
2039 H2039 16.6925 -4.03592 15.8952 H 0.0 **** 0.053
2040 H2040 15.885 -3.0503 14.6586 H 0.0 **** 0.053
2041 H2041 14.9852 -3.49968 17.5458 H 0.0 **** 0.053
2042 H2042 13.7566 -4.25059 14.854 H 0.0 **** 0.053
2043 H2043 14.4782 -5.34573 16.0367 H 0.0 **** 0.053
2044 H2044 10.2011 -2.44236 17.9395 H 0.0 **** 0.1268
2045 H2045 9.07248 -4.64647 18.2951 H 0.0 **** 0.1268
2046 H2046 12.8938 12.2631 15.7422 H 0.0 **** 0.053
2047 H2047 12.6197 13.9848 15.6017 H 0.0 **** 0.053
2048 H2048 11.6898 13.6479 13.2623 H 0.0 **** 0.053
2049 H2049 12.0115 11.9097 13.4043 H 0.0 **** 0.053
2050 H2050 13.3726 13.0657 13.4003 H 0.0 **** 0.053
2051 H2051 9.68347 16.0184 15.4274 H 0.0 **** 0.053
2052 H2052 11.1984 15.3294 14.831 H 0.0 **** 0.053
2053 H2053 11.0437 15.7789 16.5386 H 0.0 **** 0.053
2054 H2054 10.606 9.67207 14.9021 H 0.0 **** 0.053
2055 H2055 11.1674 9.63747 16.5706 H 0.0 **** 0.053
2056 H2056 12.1134 10.4943 15.3328 H 0.0 **** 0.053
2057 H2057 7.09819 14.7747 17.6099 H 0.0 **** 0.053
2058 H2058 7.3203 15.3744 15.9585 H 0.0 **** 0.053
2059 H2059 8.47249 15.8219 17.2273 H 0.0 **** 0.053
2060 H2060 3.2051 11.7446 18.6637 H 0.0 **** 0.053
2061 H2061 3.54369 12.433 17.0632 H 0.0 **** 0.053
2062 H2062 4.63106 12.7613 18.4194 H 0.0 **** 0.053
2063 H2063 2.33313 8.65109 16.9666 H 0.0 **** 0.053
2064 H2064 2.237 10.3506 17.4561 H 0.0 **** 0.053
2065 H2065 2.40209 9.06517 18.677 H 0.0 **** 0.053
2066 H2066 3.27741 5.82227 18.0758 H 0.0 **** 0.41
2067 H2067 1.36322 3.08182 13.5925 H 0.0 **** 0.053
2068 H2068 0.934142 4.0978 14.9904 H 0.0 **** 0.053
2069 H2069 1.61232 2.47418 15.247 H 0.0 **** 0.053
2070 H2070 4.59687 1.2623 12.9545 H 0.0 **** 0.053
2071 H2071 3.22545 2.24994 12.3922 H 0.0 **** 0.053
2072 H2072 3.03699 1.1858 13.8051 H 0.0 **** 0.053
2073 H2073 8.09681 0.602896 16.4006 H 0.0 **** 0.41
2074 H2074 10.7309 5.90671 16.8627 H 0.0 **** 0.41
2075 H2075 12.9453 -6.88644 15.2457 H 0.0 **** 0.053
2076 H2076 11.912 -7.87218 16.3012 H 0.0 **** 0.053
2077 H2077 13.4735 -7.26942 16.8896 H 0.0 **** 0.053
2078 H2078 9.70816 -7.60381 16.6581 H 0.0 **** 0.053
2079 H2079 8.97623 -6.93642 18.1358 H 0.0 **** 0.053
2080 H2080 10.5264 -7.81152 18.2139 H 0.0 **** 0.053
2081 C2081 16.1664 25.2585 62.3951 C.ar 0.0 **** 0.0
2082 C2082 14.9112 25.314 61.7617 C.ar 0.0 **** 0.0
2083 C2083 14.8401 25.4352 60.3597 C.ar 0.0 **** 0.0
2084 C2084 16.0148 25.4816 59.6055 C.ar 0.0 **** 0.0
2085 C2085 17.2745 25.3706 60.2277 C.ar 0.0 **** 0.0
2086 C2086 17.3507 25.2374 61.6259 C.ar 0.0 **** 0.0
2087 C2087 15.9763 25.6408 58.1139 C.3 0.0 **** -0.106
2088 C2088 14.6345 25.8931 57.4915 C.ar 0.0 **** 0.0
2089 C2089 13.4677 25.8322 58.22 C.ar 0.0 **** 0.0
2090 C2090 13.4891 25.5123 59.6921 C.3 0.0 **** -0.106
2091 C2091 12.2044 26.1089 57.5952 C.ar 0.0 **** 0.0
2092 C2092 12.1304 26.4944 56.2605 C.ar 0.0 **** 0.0
2093 C2093 13.3315 26.5025 55.4702 C.ar 0.0 **** 0.0
2094 C2094 14.5918 26.2019 56.097 C.ar 0.0 **** 0.0
2095 C2095 15.7737 26.1544 55.3422 C.ar 0.0 **** -0.1268
2096 C2096 15.8225 26.5234 53.999 C.ar 0.0 **** 0.0
2097 C2097 14.5995 26.9933 53.3913 C.ar 0.0 **** 0.0
2098 C2098 13.3808 26.7738 54.0805 C.ar 0.0 **** 0.042
2099 C2099 14.6874 27.7149 52.1554 C.2 0.0 **** 0.0
2100 C2100 15.8669 27.724 51.423 C.2 0.0 **** 0.0
2101 C2101 16.9901 26.9376 51.8494 C.ar 0.0 **** 0.0
2102 C2102 17.0107 26.4113 53.1743 C.ar 0.0 **** 0.0
2103 C2103 15.9284 28.7385 50.3048 C.3 0.0 **** -0.106
2104 C2104 15.5261 30.1147 50.8721 C.ar 0.0 **** -0.053
2105 C2105 14.0585 30.0828 51.3716 C.ar 0.0 **** -0.053
2106 C2106 13.5944 28.6264 51.6472 C.3 0.0 **** -0.106
2107 C2107 18.2097 25.7484 53.6286 C.ar 0.0 **** 0.042
2108 C2108 19.316 25.5734 52.7632 C.ar 0.0 **** 0.052
2109 C2109 19.2639 26.0251 51.424 C.ar 0.0 **** 0.052
2110 C2110 18.1014 26.6754 50.9595 C.ar 0.0 **** 0.042
2111 C2111 20.3783 25.8354 50.5155 C.2 0.0 **** 0.367
2112 C2112 21.5868 25.1551 51.0264 C.ar 0.0 **** 0.0
2113 C2113 21.6221 24.7369 52.342 C.ar 0.0 **** 0.0
2114 C2114 20.4954 24.9102 53.2468 C.2 0.0 **** 0.367
2115 C2115 22.8383 24.0394 52.878 C.3 0.0 **** -0.106
2116 C2116 24.1061 24.6404 52.2776 C.3 0.0 **** -0.106
2117 C2117 24.0207 24.6566 50.7747 C.ar 0.0 **** 0.0
2118 C2118 22.7664 24.9129 50.1678 C.ar 0.0 **** 0.2405
2119 N2119 22.6077 24.9664 48.8378 N.ar 0.0 **** -0.481
2120 C2120 23.6788 24.8217 48.0503 C.ar 0.0 **** 0.2405
2121 C2121 24.9685 24.5557 48.5579 C.ar 0.0 **** 0.0
2122 C2122 25.1373 24.4563 49.9464 C.ar 0.0 **** 0.0
2123 C2123 26.5004 24.1701 50.539 C.3 0.0 **** -0.106
2124 C2124 27.5211 23.6579 49.517 C.3 0.0 **** -0.106
2125 C2125 27.4683 24.4914 48.2376 C.3 0.0 **** -0.106
2126 C2126 26.0982 24.3497 47.5756 C.3 0.0 **** -0.053
2127 C2127 25.9452 25.2835 46.3736 C.3 0.0 **** -0.106
2128 C2128 24.5746 25.1985 45.749 C.ar 0.0 **** 0.0
2129 C2129 23.4724 24.9624 46.5969 C.ar 0.0 **** 0.0
2130 C2130 22.1801 24.9237 46.0561 C.ar 0.0 **** -0.1268
2131 C2131 21.9982 25.1079 44.6911 C.ar 0.0 **** -0.1268
2132 C2132 23.0814 25.3535 43.8324 C.ar 0.0 **** 0.0
2133 C2133 24.3842 25.4121 44.3711 C.ar 0.0 **** 0.0
2134 C2134 18.6937 25.1053 62.3129 C.3 0.0 **** -0.106
2135 C2135 19.3547 26.4697 62.5651 C.3 0.0 **** -0.159
2136 C2136 16.2407 25.2274 63.907 C.3 0.0 **** -0.159
2137 C2137 18.5049 25.4163 59.3526 C.3 0.0 **** -0.159
2138 C2138 13.6438 25.2446 62.5838 C.3 0.0 **** -0.159
2139 C2139 10.9482 26.0108 58.4318 C.3 0.0 **** -0.159
2140 C2140 10.819 26.9976 55.6994 C.3 0.0 **** -0.159
2141 O2141 12.1927 26.7681 53.3844 O.3 0.0 **** -0.452
2142 C2142 13.0483 30.721 50.4127 C.3 0.0 **** -0.159
2143 C2143 15.8325 31.2321 49.8721 C.3 0.0 **** -0.159
2144 O2144 18.022 27.016 49.6791 O.3 0.0 **** -0.452
2145 O2145 18.3164 25.2783 54.8686 O.3 0.0 **** -0.452
2146 O2146 20.5683 24.4628 54.4476 O.2 0.0 **** -0.419
2147 O2147 20.2971 26.2693 49.3231 O.2 0.0 **** -0.419
2148 C2148 25.5756 25.7137 43.4916 C.3 0.0 **** -0.159
2149 C2149 22.8236 25.5595 42.3605 C.3 0.0 **** -0.159
2150 H2150 16.6526 26.4645 57.8257 H 0.0 **** 0.053
2151 H2151 16.4335 24.75 57.6406 H 0.0 **** 0.053
2152 H2152 12.959 24.553 59.8529 H 0.0 **** 0.053
2153 H2153 12.8669 26.2541 60.2209 H 0.0 **** 0.053
2154 H2154 16.6802 25.8082 55.8112 H 0.0 **** 0.1268
2155 H2155 16.9238 28.8 49.8644 H 0.0 **** 0.053
2156 H2156 15.2369 28.4654 49.4861 H 0.0 **** 0.053
2157 H2157 16.1678 30.2753 51.754 H 0.0 **** 0.053
2158 H2158 14.0123 30.6288 52.327 H 0.0 **** 0.053
2159 H2159 13.221 28.2225 50.6861 H 0.0 **** 0.053
2160 H2160 12.7414 28.6805 52.3304 H 0.0 **** 0.053
2161 H2161 22.8388 24.0898 53.9741 H 0.0 **** 0.053
2162 H2162 22.7737 22.9683 52.6091 H 0.0 **** 0.053
2163 H2163 24.9839 24.0814 52.6246 H 0.0 **** 0.053
2164 H2164 24.228 25.6766 52.6463 H 0.0 **** 0.053
2165 H2165 26.88 25.0966 51.0065 H 0.0 **** 0.053
2166 H2166 26.4044 23.4419 51.3592 H 0.0 **** 0.053
2167 H2167 27.2933 22.6081 49.2674 H 0.0 **** 0.053
2168 H2168 28.5281 23.6722 49.9607 H 0.0 **** 0.053
2169 H2169 28.2557 24.186 47.5305 H 0.0 **** 0.053
2170 H2170 27.6414 25.5548 48.4798 H 0.0 **** 0.053
2171 H2171 26.0082 23.3121 47.1951 H 0.0 **** 0.053
2172 H2172 26.1334 26.3228 46.7064 H 0.0 **** 0.053
2173 H2173 26.7294 25.0465 45.6413 H 0.0 **** 0.053
2174 H2174 21.3364 24.7671 46.7282 H 0.0 **** 0.1268
2175 H2175 20.9911 25.0748 44.2697 H 0.0 **** 0.1268
2176 H2176 19.3642 24.4785 61.7067 H 0.0 **** 0.053
2177 H2177 18.579 24.5724 63.2668 H 0.0 **** 0.053
2178 H2178 18.6988 27.1079 63.1767 H 0.0 **** 0.053
2179 H2179 19.5306 26.995 61.6145 H 0.0 **** 0.053
2180 H2180 20.3186 26.361 63.0862 H 0.0 **** 0.053
2181 H2181 15.3778 25.7301 64.3618 H 0.0 **** 0.053
2182 H2182 17.1436 25.7299 64.2777 H 0.0 **** 0.053
2183 H2183 16.2594 24.1937 64.2947 H 0.0 **** 0.053
2184 H2184 18.5582 26.3719 58.8052 H 0.0 **** 0.053
2185 H2185 18.479 24.627 58.5834 H 0.0 **** 0.053
2186 H2186 19.4378 25.3104 59.9157 H 0.0 **** 0.053
2187 H2187 12.7954 24.8678 61.9992 H 0.0 **** 0.053
2188 H2188 13.3561 26.2384 62.9704 H 0.0 **** 0.053
2189 H2189 13.7642 24.5835 63.4526 H 0.0 **** 0.053
2190 H2190 10.0835 25.7059 57.829 H 0.0 **** 0.053
2191 H2191 10.6973 26.9762 58.9057 H 0.0 **** 0.053
2192 H2192 11.0597 25.2772 59.2396 H 0.0 **** 0.053
2193 H2193 10.9832 27.8611 55.0441 H 0.0 **** 0.053
2194 H2194 10.1417 27.3105 56.5021 H 0.0 **** 0.053
2195 H2195 10.3052 26.2364 55.0915 H 0.0 **** 0.053
2196 H2196 12.3982 26.7078 52.4379 H 0.0 **** 0.41
2197 H2197 13.2367 31.7939 50.2694 H 0.0 **** 0.053
2198 H2198 12.0253 30.6026 50.8022 H 0.0 **** 0.053
2199 H2199 13.0883 30.2337 49.4253 H 0.0 **** 0.053
2200 H2200 16.9057 31.2422 49.6305 H 0.0 **** 0.053
2201 H2201 15.5647 32.2192 50.2783 H 0.0 **** 0.053
2202 H2202 15.2769 31.0919 48.9328 H 0.0 **** 0.053
2203 H2203 18.9852 26.7564 49.2941 H 0.0 **** 0.41
2204 H2204 19.2867 24.8446 54.9099 H 0.0 **** 0.41
2205 H2205 26.2013 26.5073 43.9278 H 0.0 **** 0.053
2206 H2206 25.2744 26.036 42.4883 H 0.0 **** 0.053
2207 H2207 26.2222 24.8271 43.3759 H 0.0 **** 0.053
2208 H2208 23.1368 26.5641 42.0319 H 0.0 **** 0.053
2209 H2209 21.7542 25.4494 42.1352 H 0.0 **** 0.053
2210 H2210 23.3805 24.8344 41.7456 H 0.0 **** 0.053
2211 C2211 64.6063 15.2038 14.9845 C.ar 0.0 **** 0.0
2212 C2212 64.4794 16.5833 14.7376 C.ar 0.0 **** 0.0
2213 C2213 65.3651 17.4885 15.3552 C.ar 0.0 **** 0.0
2214 C2214 66.3743 17.0108 16.1942 C.ar 0.0 **** 0.0
2215 C2215 66.5424 15.627 16.4023 C.ar 0.0 **** 0.0
2216 C2216 65.6684 14.7183 15.7786 C.ar 0.0 **** 0.0
2217 C2217 67.3155 17.9484 16.8918 C.3 0.0 **** -0.106
2218 C2218 67.0321 19.4163 16.7634 C.ar 0.0 **** 0.0
2219 C2219 66.0525 19.9013 15.926 C.ar 0.0 **** 0.0
2220 C2220 65.2089 18.9672 15.0981 C.3 0.0 **** -0.106
2221 C2221 65.7909 21.3115 15.8521 C.ar 0.0 **** 0.0
2222 C2222 66.4783 22.2145 16.6569 C.ar 0.0 **** 0.0
2223 C2223 67.5459 21.732 17.4904 C.ar 0.0 **** 0.0
2224 C2224 67.8185 20.3197 17.5428 C.ar 0.0 **** 0.0
2225 C2225 68.8845 19.824 18.3088 C.ar 0.0 **** -0.1268
2226 C2226 69.64 20.6325 19.1564 C.ar 0.0 **** 0.0
2227 C2227 69.2742 22.0264 19.2502 C.ar 0.0 **** 0.0
2228 C2228 68.3897 22.5546 18.277 C.ar 0.0 **** 0.042
2229 C2229 69.7714 22.7871 20.3592 C.2 0.0 **** 0.0
2230 C2230 70.7886 22.2876 21.1615 C.2 0.0 **** 0.0
2231 C2231 71.4182 21.0381 20.8384 C.ar 0.0 **** 0.0
2232 C2232 70.7945 20.1646 19.9 C.ar 0.0 **** 0.0
2233 C2233 71.0258 23.0385 22.4512 C.3 0.0 **** -0.106
2234 C2234 69.6742 23.2046 23.1745 C.ar 0.0 **** -0.053
2235 C2235 68.7095 24.068 22.321 C.ar 0.0 **** -0.053
2236 C2236 69.1414 24.0779 20.8291 C.3 0.0 **** -0.106
2237 C2237 71.3671 18.855 19.6991 C.ar 0.0 **** 0.042
2238 C2238 72.5505 18.4679 20.3722 C.ar 0.0 **** 0.052
2239 C2239 73.213 19.365 21.242 C.ar 0.0 **** 0.052
2240 C2240 72.6704 20.65 21.4525 C.ar 0.0 **** 0.042
2241 C2241 74.4384 18.9951 21.9236 C.2 0.0 **** 0.367
2242 C2242 74.9853 17.642 21.6905 C.ar 0.0 **** 0.0
2243 C2243 74.3132 16.7768 20.8499 C.ar 0.0 **** 0.0
2244 C2244 73.0942 17.1564 20.1511 C.2 0.0 **** 0.367
2245 C2245 74.8554 15.4003 20.5962 C.3 0.0 **** -0.106
2246 C2246 75.4824 14.8314 21.8659 C.3 0.0 **** -0.106
2247 C2247 76.4924 15.794 22.4315 C.ar 0.0 **** 0.0
2248 C2248 76.2335 17.1837 22.3379 C.ar 0.0 **** 0.2405
2249 N2249 77.0693 18.1067 22.8345 N.ar 0.0 **** -0.481
2250 C2250 78.1656 17.7053 23.4866 C.ar 0.0 **** 0.2405
2251 C2251 78.5149 16.3451 23.6265 C.ar 0.0 **** 0.0
2252 C2252 77.6684 15.3733 23.074 C.ar 0.0 **** 0.0
2253 C2253 78.0011 13.9017 23.1958 C.3 0.0 **** -0.106
2254 C2254 79.4488 13.6304 23.6193 C.3 0.0 **** -0.106
2255 C2255 79.8525 14.5436 24.7758 C.3 0.0 **** -0.106
2256 C2256 79.8081 16.0048 24.3303 C.3 0.0 **** -0.053
2257 C2257 80.0576 16.9648 25.4949 C.3 0.0 **** -0.106
2258 C2258 79.9545 18.4118 25.0808 C.ar 0.0 **** 0.0
2259 C2259 79.0181 18.7511 24.082 C.ar 0.0 **** 0.0
2260 C2260 78.8636 20.0924 23.7063 C.ar 0.0 **** -0.1268
2261 C2261 79.6399 21.072 24.3128 C.ar 0.0 **** -0.1268
2262 C2262 80.5703 20.7554 25.3154 C.ar 0.0 **** 0.0
2263 C2263 80.7195 19.4097 25.7126 C.ar 0.0 **** 0.0
2264 C2264 65.8388 13.2272 15.98 C.3 0.0 **** -0.106
2265 C2265 65.173 12.7354 17.275 C.3 0.0 **** -0.159
2266 C2266 63.5937 14.2428 14.3985 C.3 0.0 **** -0.159
2267 C2267 67.661 15.1767 17.3121 C.3 0.0 **** -0.159
2268 C2268 63.3956 17.0912 13.8134 C.3 0.0 **** -0.159
2269 C2269 64.7179 21.7981 14.9037 C.3 0.0 **** -0.159
2270 C2270 66.0228 23.6554 16.7215 C.3 0.0 **** -0.159
2271 O2271 68.3706 23.9098 18.0338 O.3 0.0 **** -0.452
2272 C2272 68.5867 25.5243 22.7809 C.3 0.0 **** -0.159
2273 C2273 69.8754 23.7048 24.6069 C.3 0.0 **** -0.159
2274 O2274 73.3427 21.519 22.1972 O.3 0.0 **** -0.452
2275 O2275 70.8083 17.971 18.8766 O.3 0.0 **** -0.452
2276 O2276 72.5356 16.3256 19.348 O.2 0.0 **** -0.419
2277 O2277 74.9953 19.8256 22.709 O.2 0.0 **** -0.419
2278 C2278 81.6794 19.0273 26.8155 C.3 0.0 **** -0.159
2279 C2279 81.3767 21.8617 25.9489 C.3 0.0 **** -0.159
2280 H2280 67.3424 17.6932 17.9656 H 0.0 **** 0.053
2281 H2281 68.3496 17.7478 16.5499 H 0.0 **** 0.053
2282 H2282 65.4113 19.164 14.0269 H 0.0 **** 0.053
2283 H2283 64.1491 19.2459 15.226 H 0.0 **** 0.053
2284 H2284 69.1414 18.78 18.2336 H 0.0 **** 0.1268
2285 H2285 71.7288 22.5185 23.1023 H 0.0 **** 0.053
2286 H2286 71.4579 24.0368 22.2524 H 0.0 **** 0.053
2287 H2287 69.2399 22.1932 23.2355 H 0.0 **** 0.053
2288 H2288 67.709 23.6102 22.3705 H 0.0 **** 0.053
2289 H2289 69.8847 24.891 20.7167 H 0.0 **** 0.053
2290 H2290 68.2636 24.356 20.2381 H 0.0 **** 0.053
2291 H2291 74.057 14.7556 20.2076 H 0.0 **** 0.053
2292 H2292 75.6235 15.4681 19.8029 H 0.0 **** 0.053
2293 H2293 75.9333 13.8542 21.6532 H 0.0 **** 0.053
2294 H2294 74.6887 14.6542 22.6163 H 0.0 **** 0.053
2295 H2295 77.3111 13.4467 23.9292 H 0.0 **** 0.053
2296 H2296 77.7962 13.3934 22.2408 H 0.0 **** 0.053
2297 H2297 80.121 13.8191 22.7656 H 0.0 **** 0.053
2298 H2298 79.5624 12.5699 23.8905 H 0.0 **** 0.053
2299 H2299 80.8614 14.2981 25.1436 H 0.0 **** 0.053
2300 H2300 79.1543 14.4045 25.62 H 0.0 **** 0.053
2301 H2301 80.6247 16.1635 23.5973 H 0.0 **** 0.053
2302 H2302 79.3158 16.7568 26.2905 H 0.0 **** 0.053
2303 H2303 81.0439 16.7459 25.9269 H 0.0 **** 0.053
2304 H2304 78.117 20.3416 22.9523 H 0.0 **** 0.1268
2305 H2305 79.5212 22.1168 24.0176 H 0.0 **** 0.1268
2306 H2306 66.9085 12.9715 15.9967 H 0.0 **** 0.053
2307 H2307 65.4213 12.6804 15.1235 H 0.0 **** 0.053
2308 H2308 64.0993 12.9778 17.2717 H 0.0 **** 0.053
2309 H2309 65.6189 13.2306 18.1505 H 0.0 **** 0.053
2310 H2310 65.2834 11.6466 17.3972 H 0.0 **** 0.053
2311 H2311 62.6178 14.7245 14.2575 H 0.0 **** 0.053
2312 H2312 63.4372 13.3735 15.0503 H 0.0 **** 0.053
2313 H2313 63.9151 13.8596 13.4141 H 0.0 **** 0.053
2314 H2314 67.527 15.5872 18.3266 H 0.0 **** 0.053
2315 H2315 68.6376 15.5486 16.9608 H 0.0 **** 0.053
2316 H2316 67.7271 14.088 17.4069 H 0.0 **** 0.053
2317 H2317 63.6546 18.0611 13.371 H 0.0 **** 0.053
2318 H2318 62.437 17.2227 14.346 H 0.0 **** 0.053
2319 H2319 63.2117 16.3914 12.9871 H 0.0 **** 0.053
2320 H2320 64.942 22.8014 14.5199 H 0.0 **** 0.053
2321 H2321 63.7299 21.8447 15.3948 H 0.0 **** 0.053
2322 H2322 64.6141 21.1319 14.0385 H 0.0 **** 0.053
2323 H2323 66.0645 24.0297 17.7512 H 0.0 **** 0.053
2324 H2324 64.99 23.7578 16.3697 H 0.0 **** 0.053
2325 H2325 66.66 24.3223 16.1198 H 0.0 **** 0.053
2326 H2326 69.1581 24.3009 18.4443 H 0.0 **** 0.41
2327 H2327 68.1605 25.6032 23.7905 H 0.0 **** 0.053
2328 H2328 67.9397 26.0887 22.0917 H 0.0 **** 0.053
2329 H2329 69.5737 26.0138 22.789 H 0.0 **** 0.053
2330 H2330 70.5014 22.9982 25.1718 H 0.0 **** 0.053
2331 H2331 68.9154 23.8079 25.135 H 0.0 **** 0.053
2332 H2332 70.3755 24.6847 24.622 H 0.0 **** 0.053
2333 H2333 74.1749 20.9488 22.5516 H 0.0 **** 0.41
2334 H2334 71.4427 17.1188 18.9255 H 0.0 **** 0.41
2335 H2335 81.1926 18.3779 27.559 H 0.0 **** 0.053
2336 H2336 82.072 19.9052 27.3412 H 0.0 **** 0.053
2337 H2337 82.5414 18.4645 26.4183 H 0.0 **** 0.053
2338 H2338 81.1731 21.9427 27.0293 H 0.0 **** 0.053
2339 H2339 81.137 22.8292 25.4874 H 0.0 **** 0.053
2340 H2340 82.4593 21.6882 25.8402 H 0.0 **** 0.053
2341 C2341 23.3796 14.9592 66.7595 C.ar 0.0 **** 0.0
2342 C2342 22.7594 15.8804 65.8953 C.ar 0.0 **** 0.0
2343 C2343 23.2902 16.0987 64.6085 C.ar 0.0 **** 0.0
2344 C2344 24.4174 15.3872 64.1916 C.ar 0.0 **** 0.0
2345 C2345 25.0109 14.4228 65.0307 C.ar 0.0 **** 0.0
2346 C2346 24.4777 14.1924 66.3117 C.ar 0.0 **** 0.0
2347 C2347 25.0267 15.6167 62.8397 C.3 0.0 **** -0.106
2348 C2348 24.4621 16.7407 62.0215 C.ar 0.0 **** 0.0
2349 C2349 23.3407 17.4377 62.4121 C.ar 0.0 **** 0.0
2350 C2350 22.6281 17.102 63.6964 C.3 0.0 **** -0.106
2351 C2351 22.8471 18.527 61.6167 C.ar 0.0 **** 0.0
2352 C2352 23.5132 18.9385 60.4668 C.ar 0.0 **** 0.0
2353 C2353 24.6487 18.1831 60.0116 C.ar 0.0 **** 0.0
2354 C2354 25.1249 17.078 60.8013 C.ar 0.0 **** 0.0
2355 C2355 26.2 16.2923 60.3589 C.ar 0.0 **** -0.1268
2356 C2356 26.9455 16.6097 59.2247 C.ar 0.0 **** 0.0
2357 C2357 26.5923 17.8135 58.5094 C.ar 0.0 **** 0.0
2358 C2358 25.3516 18.4306 58.8066 C.ar 0.0 **** 0.042
2359 C2359 27.5423 18.3587 57.5841 C.2 0.0 **** 0.0
2360 C2360 28.6423 17.6151 57.178 C.2 0.0 **** 0.0
2361 C2361 28.7971 16.2551 57.6118 C.ar 0.0 **** 0.0
2362 C2362 28.0108 15.7761 58.7004 C.ar 0.0 **** 0.0
2363 C2363 29.7105 18.3875 56.4391 C.3 0.0 **** -0.106
2364 C2364 30.0647 19.641 57.2641 C.ar 0.0 **** -0.053
2365 C2365 28.8323 20.5748 57.3803 C.ar 0.0 **** -0.053
2366 C2366 27.5148 19.7955 57.1166 C.3 0.0 **** -0.106
2367 C2367 28.2845 14.4547 59.2127 C.ar 0.0 **** 0.042
2368 C2368 29.2683 13.6321 58.6137 C.ar 0.0 **** 0.052
2369 C2369 29.992 14.078 57.4834 C.ar 0.0 **** 0.052
2370 C2370 29.74 15.3662 56.9664 C.ar 0.0 **** 0.042
2371 C2371 30.9881 13.2417 56.842 C.2 0.0 **** 0.367
2372 C2372 31.2374 11.8978 57.4043 C.ar 0.0 **** 0.0
2373 C2373 30.5309 11.4893 58.5182 C.ar 0.0 **** 0.0
2374 C2374 29.5174 12.3221 59.1487 C.2 0.0 **** 0.367
2375 C2375 30.766 10.1261 59.1008 C.3 0.0 **** -0.106
2376 C2376 32.2427 9.75254 59.0058 C.3 0.0 **** -0.106
2377 C2377 32.7355 9.90877 57.5919 C.ar 0.0 **** 0.0
2378 C2378 32.2293 10.9759 56.8095 C.ar 0.0 **** 0.2405
2379 N2379 32.6309 11.199 55.5502 N.ar 0.0 **** -0.481
2380 C2380 33.5804 10.4179 55.0242 C.ar 0.0 **** 0.2405
2381 C2381 34.1415 9.32552 55.7196 C.ar 0.0 **** 0.0
2382 C2382 33.6977 9.05844 57.0227 C.ar 0.0 **** 0.0
2383 C2383 34.2674 7.89693 57.8085 C.3 0.0 **** -0.106
2384 C2384 35.0413 6.8919 56.9483 C.3 0.0 **** -0.106
2385 C2385 35.9765 7.61677 55.9818 C.3 0.0 **** -0.106
2386 C2386 35.1651 8.47107 55.0085 C.3 0.0 **** -0.053
2387 C2387 36.0633 9.33279 54.1191 C.3 0.0 **** -0.106
2388 C2388 35.2728 10.2272 53.1966 C.ar 0.0 **** 0.0
2389 C2389 34.0465 10.7445 53.6637 C.ar 0.0 **** 0.0
2390 C2390 33.3091 11.6156 52.8504 C.ar 0.0 **** -0.1268
2391 C2391 33.7871 11.9527 51.5902 C.ar 0.0 **** -0.1268
2392 C2392 35.0097 11.4557 51.1114 C.ar 0.0 **** 0.0
2393 C2393 35.7674 10.5924 51.9308 C.ar 0.0 **** 0.0
2394 C2394 25.0935 13.1527 67.2245 C.3 0.0 **** -0.106
2395 C2395 26.3024 13.7013 67.9988 C.3 0.0 **** -0.159
2396 C2396 22.8666 14.799 68.175 C.3 0.0 **** -0.159
2397 C2397 26.2206 13.6802 64.5139 C.3 0.0 **** -0.159
2398 C2398 21.5283 16.6332 66.3475 C.3 0.0 **** -0.159
2399 C2399 21.601 19.2503 62.0769 C.3 0.0 **** -0.159
2400 C2400 23.1013 20.2237 59.7838 C.3 0.0 **** -0.159
2401 O2401 24.7638 19.2649 57.8822 O.3 0.0 **** -0.452
2402 C2402 28.8585 21.7803 56.4351 C.3 0.0 **** -0.159
2403 C2403 31.3254 20.318 56.7211 C.3 0.0 **** -0.159
2404 O2404 30.3552 15.745 55.853 O.3 0.0 **** -0.452
2405 O2405 27.6238 13.9642 60.2582 O.3 0.0 **** -0.452
2406 O2406 28.861 11.8733 60.1563 O.2 0.0 **** -0.419
2407 O2407 31.6275 13.6855 55.8366 O.2 0.0 **** -0.419
2408 C2408 37.1079 10.0654 51.4734 C.3 0.0 **** -0.159
2409 C2409 35.4862 11.8662 49.7402 C.3 0.0 **** -0.159
2410 H2410 26.1107 15.7871 62.9614 H 0.0 **** 0.053
2411 H2411 24.9742 14.6792 62.2524 H 0.0 **** 0.053
2412 H2412 21.61 16.7406 63.4514 H 0.0 **** 0.053
2413 H2413 22.4532 18.0372 64.2549 H 0.0 **** 0.053
2414 H2414 26.4564 15.4005 60.907 H 0.0 **** 0.1268
2415 H2415 30.6075 17.7894 56.2771 H 0.0 **** 0.053
2416 H2416 29.3526 18.6978 55.4398 H 0.0 **** 0.053
2417 H2417 30.2958 19.2774 58.2789 H 0.0 **** 0.053
2418 H2418 28.7887 20.9538 58.4136 H 0.0 **** 0.053
2419 H2419 27.3522 19.8037 56.0213 H 0.0 **** 0.053
2420 H2420 26.701 20.3691 57.5704 H 0.0 **** 0.053
2421 H2421 30.4011 10.0995 60.1353 H 0.0 **** 0.053
2422 H2422 30.1622 9.39415 58.532 H 0.0 **** 0.053
2423 H2423 32.3927 8.72989 59.3734 H 0.0 **** 0.053
2424 H2424 32.8293 10.4143 59.6709 H 0.0 **** 0.053
2425 H2425 34.9326 8.29885 58.594 H 0.0 **** 0.053
2426 H2426 33.4578 7.37638 58.3431 H 0.0 **** 0.053
2427 H2427 34.3287 6.28432 56.3658 H 0.0 **** 0.053
2428 H2428 35.5981 6.2002 57.5984 H 0.0 **** 0.053
2429 H2429 36.599 6.90301 55.4193 H 0.0 **** 0.053
2430 H2430 36.6616 8.27161 56.5487 H 0.0 **** 0.053
2431 H2431 34.6043 7.78746 54.3394 H 0.0 **** 0.053
2432 H2432 36.7115 9.95449 54.767 H 0.0 **** 0.053
2433 H2433 36.7346 8.67317 53.5519 H 0.0 **** 0.053
2434 H2434 32.3769 12.028 53.2363 H 0.0 **** 0.1268
2435 H2435 33.2106 12.6293 50.9556 H 0.0 **** 0.1268
2436 H2436 25.4006 12.2744 66.6378 H 0.0 **** 0.053
2437 H2437 24.342 12.7812 67.9345 H 0.0 **** 0.053
2438 H2438 26.0105 14.5779 68.5972 H 0.0 **** 0.053
2439 H2439 27.0911 14.0259 67.3038 H 0.0 **** 0.053
2440 H2440 26.7256 12.9432 68.6761 H 0.0 **** 0.053
2441 H2441 22.4028 15.7238 68.541 H 0.0 **** 0.053
2442 H2442 23.6753 14.5419 68.8714 H 0.0 **** 0.053
2443 H2443 22.107 14.0009 68.2471 H 0.0 **** 0.053
2444 H2444 27.0407 14.3816 64.2877 H 0.0 **** 0.053
2445 H2445 25.9973 13.1594 63.5683 H 0.0 **** 0.053
2446 H2446 26.6087 12.9426 65.2238 H 0.0 **** 0.053
2447 H2447 20.9121 16.959 65.5003 H 0.0 **** 0.053
2448 H2448 21.7944 17.538 66.9224 H 0.0 **** 0.053
2449 H2449 20.8944 16.014 66.9965 H 0.0 **** 0.053
2450 H2450 21.0239 19.6411 61.2293 H 0.0 **** 0.053
2451 H2451 21.8441 20.1043 62.7335 H 0.0 **** 0.053
2452 H2452 20.9386 18.5871 62.6465 H 0.0 **** 0.053
2453 H2453 23.9821 20.7887 59.4567 H 0.0 **** 0.053
2454 H2454 22.5263 20.8634 60.4627 H 0.0 **** 0.053
2455 H2455 22.4937 20.042 58.8834 H 0.0 **** 0.053
2456 H2456 25.2134 19.137 57.0318 H 0.0 **** 0.41
2457 H2457 29.6995 22.4541 56.6495 H 0.0 **** 0.053
2458 H2458 27.9257 22.3577 56.5273 H 0.0 **** 0.053
2459 H2459 28.9453 21.4506 55.3873 H 0.0 **** 0.053
2460 H2460 32.1739 19.6183 56.7475 H 0.0 **** 0.053
2461 H2461 31.5944 21.2032 57.317 H 0.0 **** 0.053
2462 H2462 31.1881 20.6421 55.6787 H 0.0 **** 0.053
2463 H2463 31.0131 14.9284 55.6441 H 0.0 **** 0.41
2464 H2464 28.026 12.9896 60.3981 H 0.0 **** 0.41
2465 H2465 37.8762 10.2057 52.2491 H 0.0 **** 0.053
2466 H2466 37.4558 10.5638 50.5613 H 0.0 **** 0.053
2467 H2467 37.062 8.98299 51.2641 H 0.0 **** 0.053
2468 H2468 36.4401 12.4165 49.7917 H 0.0 **** 0.053
2469 H2469 34.7479 12.5165 49.2519 H 0.0 **** 0.053
2470 H2470 35.6564 10.9921 49.0913 H 0.0 **** 0.053
2471 C2471 44.3367 56.1296 4.844 C.ar 0.0 **** 0.0
2472 C2472 44.1303 57.0012 3.75884 C.ar 0.0 **** 0.0
2473 C2473 43.0002 57.8427 3.74302 C.ar 0.0 **** 0.0
2474 C2474 42.1015 57.8199 4.81189 C.ar 0.0 **** 0.0
2475 C2475 42.331 56.9901 5.9277 C.ar 0.0 **** 0.0
2476 C2476 43.4639 56.1569 5.95396 C.ar 0.0 **** 0.0
2477 C2477 40.8722 58.6804 4.81369 C.3 0.0 **** -0.106
2478 C2478 40.5795 59.4504 3.55949 C.ar 0.0 **** 0.0
2479 C2479 41.4651 59.496 2.50615 C.ar 0.0 **** 0.0
2480 C2480 42.7787 58.7605 2.56597 C.3 0.0 **** -0.106
2481 C2481 41.1367 60.2199 1.30999 C.ar 0.0 **** 0.0
2482 C2482 39.903 60.8459 1.16313 C.ar 0.0 **** 0.0
2483 C2483 38.9925 60.8606 2.27579 C.ar 0.0 **** 0.0
2484 C2484 39.3373 60.1524 3.48044 C.ar 0.0 **** 0.0
2485 C2485 38.4918 60.1889 4.59965 C.ar 0.0 **** -0.1268
2486 C2486 37.2307 60.7817 4.56921 C.ar 0.0 **** 0.0
2487 C2487 36.7912 61.3514 3.317 C.ar 0.0 **** 0.0
2488 C2488 37.7533 61.5472 2.29499 C.ar 0.0 **** 0.042
2489 C2489 35.3946 61.6283 3.14843 C.2 0.0 **** 0.0
2490 C2490 34.5333 61.6142 4.23741 C.2 0.0 **** 0.0
2491 C2491 35.0454 61.4083 5.56303 C.ar 0.0 **** 0.0
2492 C2492 36.3681 60.9027 5.72936 C.ar 0.0 **** 0.0
2493 C2493 33.0605 61.6341 3.90003 C.3 0.0 **** -0.106
2494 C2494 32.7833 60.5293 2.86073 C.ar 0.0 **** -0.053
2495 C2495 33.5509 60.8225 1.54575 C.ar 0.0 **** -0.053
2496 C2496 34.7383 61.7919 1.79705 C.3 0.0 **** -0.106
2497 C2497 36.8098 60.5673 7.06193 C.ar 0.0 **** 0.042
2498 C2498 35.9735 60.7884 8.18223 C.ar 0.0 **** 0.052
2499 C2499 34.6917 61.3649 8.02408 C.ar 0.0 **** 0.052
2500 C2500 34.2405 61.7005 6.73028 C.ar 0.0 **** 0.042
2501 C2501 33.829 61.6199 9.16149 C.2 0.0 **** 0.367
2502 C2502 34.322 61.2561 10.5065 C.ar 0.0 **** 0.0
2503 C2503 35.57 60.6794 10.6359 C.ar 0.0 **** 0.0
2504 C2504 36.4427 60.4424 9.49548 C.2 0.0 **** 0.367
2505 C2505 36.0906 60.3078 11.9938 C.3 0.0 **** -0.106
2506 C2506 34.9591 59.7847 12.8743 C.3 0.0 **** -0.106
2507 C2507 33.8172 60.7654 12.9023 C.ar 0.0 **** 0.0
2508 C2508 33.5123 61.4877 11.7222 C.ar 0.0 **** 0.2405
2509 N2509 32.4994 62.3632 11.6555 N.ar 0.0 **** -0.481
2510 C2510 31.7137 62.529 12.7249 C.ar 0.0 **** 0.2405
2511 C2511 31.9394 61.862 13.948 C.ar 0.0 **** 0.0
2512 C2512 33.0218 60.9754 14.0408 C.ar 0.0 **** 0.0
2513 C2513 33.3063 60.2381 15.3317 C.3 0.0 **** -0.106
2514 C2514 32.5702 60.8153 16.5457 C.3 0.0 **** -0.106
2515 C2515 31.1091 61.1028 16.2041 C.3 0.0 **** -0.106
2516 C2516 31.0258 62.1686 15.112 C.3 0.0 **** -0.053
2517 C2517 29.5898 62.3812 14.6296 C.3 0.0 **** -0.106
2518 C2518 29.5017 63.386 13.5078 C.ar 0.0 **** 0.0
2519 C2519 30.5665 63.4448 12.5845 C.ar 0.0 **** 0.0
2520 C2520 30.4959 64.3344 11.5039 C.ar 0.0 **** -0.1268
2521 C2521 29.3848 65.1555 11.3582 C.ar 0.0 **** -0.1268
2522 C2522 28.3109 65.105 12.2612 C.ar 0.0 **** 0.0
2523 C2523 28.3654 64.1994 13.3419 C.ar 0.0 **** 0.0
2524 C2524 43.7348 55.2661 7.14823 C.3 0.0 **** -0.106
2525 C2525 42.9579 53.9421 7.07447 C.3 0.0 **** -0.159
2526 C2526 45.497 55.1574 4.81242 C.3 0.0 **** -0.159
2527 C2527 41.326 57.0224 7.05499 C.3 0.0 **** -0.159
2528 C2528 45.1178 57.0332 2.61406 C.3 0.0 **** -0.159
2529 C2529 42.1496 60.257 0.187334 C.3 0.0 **** -0.159
2530 C2530 39.5016 61.3996 -0.186026 C.3 0.0 **** -0.159
2531 O2531 37.5183 62.4721 1.3023 O.3 0.0 **** -0.452
2532 C2532 32.6895 61.4196 0.428239 C.3 0.0 **** -0.159
2533 C2533 31.2794 60.3077 2.68232 C.3 0.0 **** -0.159
2534 O2534 33.0764 62.3236 6.59561 O.3 0.0 **** -0.452
2535 O2535 38.0127 60.044 7.28413 O.3 0.0 **** -0.452
2536 O2536 37.6105 59.9429 9.68018 O.2 0.0 **** -0.419
2537 O2537 32.6777 62.1263 8.97521 O.2 0.0 **** -0.419
2538 C2538 27.2155 64.0818 14.3155 C.3 0.0 **** -0.159
2539 C2539 27.1237 66.0104 12.0464 C.3 0.0 **** -0.159
2540 H2540 39.996 58.0501 5.04588 H 0.0 **** 0.053
2541 H2541 40.9212 59.384 5.66759 H 0.0 **** 0.053
2542 H2542 43.6007 59.5025 2.53533 H 0.0 **** 0.053
2543 H2543 42.9014 58.1861 1.63212 H 0.0 **** 0.053
2544 H2544 38.8306 59.7534 5.52544 H 0.0 **** 0.1268
2545 H2545 32.4383 61.4736 4.78079 H 0.0 **** 0.053
2546 H2546 32.7656 62.6131 3.47879 H 0.0 **** 0.053
2547 H2547 33.2055 59.604 3.28602 H 0.0 **** 0.053
2548 H2548 33.9732 59.8736 1.17941 H 0.0 **** 0.053
2549 H2549 34.3321 62.8197 1.72769 H 0.0 **** 0.053
2550 H2550 35.443 61.6643 0.96987 H 0.0 **** 0.053
2551 H2551 36.9021 59.5765 11.8898 H 0.0 **** 0.053
2552 H2552 36.533 61.2096 12.4572 H 0.0 **** 0.053
2553 H2553 35.3371 59.5785 13.8832 H 0.0 **** 0.053
2554 H2554 34.5997 58.8192 12.4703 H 0.0 **** 0.053
2555 H2555 33.0233 59.1783 15.1988 H 0.0 **** 0.053
2556 H2556 34.3898 60.2336 15.5269 H 0.0 **** 0.053
2557 H2557 33.0554 61.7565 16.854 H 0.0 **** 0.053
2558 H2558 32.6516 60.1183 17.3935 H 0.0 **** 0.053
2559 H2559 30.5507 61.4373 17.0927 H 0.0 **** 0.053
2560 H2560 30.6238 60.1793 15.8418 H 0.0 **** 0.053
2561 H2561 31.3689 63.1297 15.5457 H 0.0 **** 0.053
2562 H2562 29.1844 61.4098 14.2852 H 0.0 **** 0.053
2563 H2563 28.9724 62.6879 15.4853 H 0.0 **** 0.053
2564 H2564 31.3144 64.3488 10.7842 H 0.0 **** 0.1268
2565 H2565 29.3316 65.8507 10.5176 H 0.0 **** 0.1268
2566 H2566 43.4728 55.7948 8.07656 H 0.0 **** 0.053
2567 H2567 44.8103 55.0555 7.22584 H 0.0 **** 0.053
2568 H2568 43.2137 53.3966 6.15325 H 0.0 **** 0.053
2569 H2569 41.8742 54.131 7.05409 H 0.0 **** 0.053
2570 H2570 43.1822 53.2941 7.93602 H 0.0 **** 0.053
2571 H2571 45.764 54.8842 3.78366 H 0.0 **** 0.053
2572 H2572 45.26 54.2276 5.34576 H 0.0 **** 0.053
2573 H2573 46.4005 55.5831 5.28329 H 0.0 **** 0.053
2574 H2574 40.3281 56.7208 6.69577 H 0.0 **** 0.053
2575 H2575 41.2082 58.0418 7.45771 H 0.0 **** 0.053
2576 H2576 41.5884 56.3583 7.88484 H 0.0 **** 0.053
2577 H2577 45.1029 57.9945 2.08573 H 0.0 **** 0.053
2578 H2578 44.8992 56.249 1.86766 H 0.0 **** 0.053
2579 H2579 46.1452 56.8665 2.9649 H 0.0 **** 0.053
2580 H2580 42.0823 61.1893 -0.387578 H 0.0 **** 0.053
2581 H2581 42.0056 59.4211 -0.519762 H 0.0 **** 0.053
2582 H2582 43.1752 60.1804 0.568773 H 0.0 **** 0.053
2583 H2583 38.4477 61.1827 -0.396492 H 0.0 **** 0.053
2584 H2584 40.1015 60.9551 -0.988161 H 0.0 **** 0.053
2585 H2585 39.6125 62.4941 -0.238139 H 0.0 **** 0.053
2586 H2586 36.7762 63.0317 1.5813 H 0.0 **** 0.41
2587 H2587 31.8989 60.7292 0.103526 H 0.0 **** 0.053
2588 H2588 33.3131 61.6609 -0.446419 H 0.0 **** 0.053
2589 H2589 32.2095 62.3527 0.76409 H 0.0 **** 0.053
2590 H2590 30.8208 60.0231 3.64093 H 0.0 **** 0.053
2591 H2591 31.0749 59.5073 1.95517 H 0.0 **** 0.053
2592 H2592 30.7796 61.2214 2.32758 H 0.0 **** 0.053
2593 H2593 32.6944 62.352 7.59388 H 0.0 **** 0.41
2594 H2594 38.0589 59.9128 8.33858 H 0.0 **** 0.41
2595 H2595 26.9258 63.0304 14.4638 H 0.0 **** 0.053
2596 H2596 26.3301 64.6298 13.9735 H 0.0 **** 0.053
2597 H2597 27.4895 64.4787 15.308 H 0.0 **** 0.053
2598 H2598 26.2001 65.4327 11.8771 H 0.0 **** 0.053
2599 H2599 27.2821 66.6564 11.1723 H 0.0 **** 0.053
2600 H2600 26.9413 66.6549 12.9212 H 0.0 **** 0.053
2601 C2601 48.1621 57.9558 46.4678 C.ar 0.0 **** 0.0
2602 C2602 49.0884 57.181 45.7456 C.ar 0.0 **** 0.0
2603 C2603 50.404 57.6521 45.5652 C.ar 0.0 **** 0.0
2604 C2604 50.7861 58.8761 46.1189 C.ar 0.0 **** 0.0
2605 C2605 49.8801 59.6314 46.8904 C.ar 0.0 **** 0.0
2606 C2606 48.5691 59.1598 47.0835 C.ar 0.0 **** 0.0
2607 C2607 52.1697 59.422 45.9208 C.3 0.0 **** -0.106
2608 C2608 53.0702 58.6691 44.986 C.ar 0.0 **** 0.0
2609 C2609 52.7131 57.453 44.448 C.ar 0.0 **** 0.0
2610 C2610 51.3843 56.822 44.7736 C.3 0.0 **** -0.106
2611 C2611 53.5897 56.7761 43.5336 C.ar 0.0 **** 0.0
2612 C2612 54.7903 57.3505 43.1285 C.ar 0.0 **** 0.0
2613 C2613 55.2068 58.5894 43.7276 C.ar 0.0 **** 0.0
2614 C2614 54.3339 59.2517 44.6609 C.ar 0.0 **** 0.0
2615 C2615 54.7333 60.4361 45.2984 C.ar 0.0 **** -0.1268
2616 C2616 55.9119 61.1046 44.9713 C.ar 0.0 **** 0.0
2617 C2617 56.723 60.5483 43.9139 C.ar 0.0 **** 0.0
2618 C2618 56.4484 59.2265 43.4827 C.ar 0.0 **** 0.042
2619 C2619 57.72 61.3833 43.3102 C.2 0.0 **** 0.0
2620 C2620 58.0877 62.5859 43.8988 C.2 0.0 **** 0.0
2621 C2621 57.5371 62.9688 45.1684 C.ar 0.0 **** 0.0
2622 C2622 56.3881 62.2863 45.6652 C.ar 0.0 **** 0.0
2623 C2623 58.9229 63.5023 43.035 C.3 0.0 **** -0.106
2624 C2624 58.2249 63.6548 41.6686 C.ar 0.0 **** -0.053
2625 C2625 58.1594 62.2866 40.942 C.ar 0.0 **** -0.053
2626 C2626 58.3146 61.1129 41.9474 C.3 0.0 **** -0.106
2627 C2627 55.7662 62.781 46.8701 C.ar 0.0 **** 0.042
2628 C2628 56.3155 63.8796 47.5734 C.ar 0.0 **** 0.052
2629 C2629 57.5013 64.5053 47.1233 C.ar 0.0 **** 0.052
2630 C2630 58.1254 64.0375 45.9479 C.ar 0.0 **** 0.042
2631 C2631 58.0919 65.6178 47.8421 C.2 0.0 **** 0.367
2632 C2632 57.4175 66.0929 49.0685 C.ar 0.0 **** 0.0
2633 C2633 56.2519 65.4777 49.4805 C.ar 0.0 **** 0.0
2634 C2634 55.6713 64.3486 48.7691 C.2 0.0 **** 0.367
2635 C2635 55.5552 65.9422 50.7262 C.3 0.0 **** -0.106
2636 C2636 55.6571 67.4589 50.8607 C.3 0.0 **** -0.106
2637 C2637 57.0926 67.9013 50.7594 C.ar 0.0 **** 0.0
2638 C2638 57.9538 67.2158 49.8675 C.ar 0.0 **** 0.2405
2639 N2639 59.2389 67.5592 49.701 N.ar 0.0 **** -0.481
2640 C2640 59.7184 68.618 50.3623 C.ar 0.0 **** 0.2405
2641 C2641 58.9429 69.3606 51.2782 C.ar 0.0 **** 0.0
2642 C2642 57.6091 68.9836 51.4907 C.ar 0.0 **** 0.0
2643 C2643 56.7376 69.7473 52.4646 C.3 0.0 **** -0.106
2644 C2644 57.5246 70.6657 53.4059 C.3 0.0 **** -0.106
2645 C2645 58.5785 71.456 52.632 C.3 0.0 **** -0.106
2646 C2646 59.6021 70.5023 52.0169 C.3 0.0 **** -0.053
2647 C2647 60.5905 71.2344 51.1073 C.3 0.0 **** -0.106
2648 C2648 61.5677 70.2954 50.4446 C.ar 0.0 **** 0.0
2649 C2649 61.1153 69.0065 50.0931 C.ar 0.0 **** 0.0
2650 C2650 61.9832 68.1251 49.4344 C.ar 0.0 **** -0.1268
2651 C2651 63.2816 68.5248 49.1435 C.ar 0.0 **** -0.1268
2652 C2652 63.7474 69.8066 49.4767 C.ar 0.0 **** 0.0
2653 C2653 62.8747 70.7069 50.1239 C.ar 0.0 **** 0.0
2654 C2654 47.5836 59.9504 47.9183 C.3 0.0 **** -0.106
2655 C2655 46.896 61.0617 47.1094 C.3 0.0 **** -0.159
2656 C2656 46.7242 57.4942 46.5761 C.3 0.0 **** -0.159
2657 C2657 50.3611 60.9406 47.4704 C.3 0.0 **** -0.159
2658 C2658 48.672 55.8482 45.1649 C.3 0.0 **** -0.159
2659 C2659 53.1623 55.4335 42.9836 C.3 0.0 **** -0.159
2660 C2660 55.575 56.7233 41.9977 C.3 0.0 **** -0.159
2661 O2661 57.4277 58.4972 42.8461 O.3 0.0 **** -0.452
2662 C2662 59.2101 62.1014 39.8426 C.3 0.0 **** -0.159
2663 C2663 58.8619 64.7794 40.8488 C.3 0.0 **** -0.159
2664 O2664 59.2853 64.5675 45.5798 O.3 0.0 **** -0.452
2665 O2665 54.6626 62.2237 47.3616 O.3 0.0 **** -0.452
2666 O2666 54.6094 63.7881 49.2225 O.2 0.0 **** -0.419
2667 O2667 59.1508 66.1623 47.3961 O.2 0.0 **** -0.419
2668 C2668 63.3197 72.1102 50.4654 C.3 0.0 **** -0.159
2669 C2669 65.1628 70.1914 49.1245 C.3 0.0 **** -0.159
2670 H2670 52.0942 60.4644 45.5649 H 0.0 **** 0.053
2671 H2671 52.6681 59.5177 46.9052 H 0.0 **** 0.053
2672 H2672 51.5671 55.8746 45.3179 H 0.0 **** 0.053
2673 H2673 50.9081 56.502 43.8313 H 0.0 **** 0.053
2674 H2674 54.1141 60.8433 46.081 H 0.0 **** 0.1268
2675 H2675 59.0551 64.4837 43.491 H 0.0 **** 0.053
2676 H2676 59.9358 63.0855 42.8825 H 0.0 **** 0.053
2677 H2677 57.1883 63.9556 41.8928 H 0.0 **** 0.053
2678 H2678 57.1638 62.194 40.48 H 0.0 **** 0.053
2679 H2679 59.4013 60.9373 42.0687 H 0.0 **** 0.053
2680 H2680 57.8921 60.2213 41.4744 H 0.0 **** 0.053
2681 H2681 54.5127 65.5998 50.7148 H 0.0 **** 0.053
2682 H2682 56.0383 65.4605 51.5971 H 0.0 **** 0.053
2683 H2683 55.2028 67.7805 51.8061 H 0.0 **** 0.053
2684 H2684 55.0713 67.9365 50.0525 H 0.0 **** 0.053
2685 H2685 56.0106 70.3467 51.8875 H 0.0 **** 0.053
2686 H2686 56.1357 69.0417 53.058 H 0.0 **** 0.053
2687 H2687 58.0297 70.0561 54.1737 H 0.0 **** 0.053
2688 H2688 56.8304 71.3374 53.9333 H 0.0 **** 0.053
2689 H2689 59.0912 72.1808 53.284 H 0.0 **** 0.053
2690 H2690 58.0925 72.0305 51.8237 H 0.0 **** 0.053
2691 H2691 60.1907 70.0539 52.8426 H 0.0 **** 0.053
2692 H2692 60.0199 71.7791 50.33 H 0.0 **** 0.053
2693 H2693 61.1142 71.9983 51.6986 H 0.0 **** 0.053
2694 H2694 61.6103 67.1425 49.1455 H 0.0 **** 0.1268
2695 H2695 63.9585 67.8364 48.6327 H 0.0 **** 0.1268
2696 H2696 48.0967 60.391 48.7858 H 0.0 **** 0.053
2697 H2697 46.8221 59.2797 48.3394 H 0.0 **** 0.053
2698 H2698 46.3716 60.6365 46.24 H 0.0 **** 0.053
2699 H2699 47.6393 61.7771 46.7269 H 0.0 **** 0.053
2700 H2700 46.1651 61.6129 47.7212 H 0.0 **** 0.053
2701 H2701 46.4305 56.8886 45.7094 H 0.0 **** 0.053
2702 H2702 46.0302 58.343 46.6312 H 0.0 **** 0.053
2703 H2703 46.559 56.878 47.4773 H 0.0 **** 0.053
2704 H2704 50.6726 61.6306 46.6688 H 0.0 **** 0.053
2705 H2705 51.2491 60.7945 48.1072 H 0.0 **** 0.053
2706 H2706 49.5985 61.4541 48.0648 H 0.0 **** 0.053
2707 H2707 49.5277 55.176 45.0252 H 0.0 **** 0.053
2708 H2708 48.189 55.9684 44.179 H 0.0 **** 0.053
2709 H2709 47.9523 55.3337 45.8157 H 0.0 **** 0.053
2710 H2710 54.0253 54.7891 42.7736 H 0.0 **** 0.053
2711 H2711 52.5927 55.5404 42.0436 H 0.0 **** 0.053
2712 H2712 52.5167 54.8971 43.6897 H 0.0 **** 0.053
2713 H2713 55.9764 57.4944 41.3296 H 0.0 **** 0.053
2714 H2714 54.9409 56.0591 41.3997 H 0.0 **** 0.053
2715 H2715 56.438 56.1428 42.3599 H 0.0 **** 0.053
2716 H2716 58.2752 58.951 42.978 H 0.0 **** 0.41
2717 H2717 59.0811 62.822 39.0233 H 0.0 **** 0.053
2718 H2718 59.1445 61.0872 39.4192 H 0.0 **** 0.053
2719 H2719 60.2258 62.2282 40.2505 H 0.0 **** 0.053
2720 H2720 58.796 65.7322 41.3949 H 0.0 **** 0.053
2721 H2721 58.3563 64.9058 39.8795 H 0.0 **** 0.053
2722 H2722 59.9252 64.5773 40.6507 H 0.0 **** 0.053
2723 H2723 59.4378 65.3485 46.2939 H 0.0 **** 0.41
2724 H2724 54.4463 62.7832 48.2399 H 0.0 **** 0.41
2725 H2725 62.5816 72.8544 50.1293 H 0.0 **** 0.053
2726 H2726 64.2825 72.3594 50.0047 H 0.0 **** 0.053
2727 H2727 63.4289 72.2411 51.5556 H 0.0 **** 0.053
2728 H2728 65.188 71.0418 48.4234 H 0.0 **** 0.053
2729 H2729 65.6872 69.3496 48.6522 H 0.0 **** 0.053
2730 H2730 65.7344 70.4956 50.0159 H 0.0 **** 0.053
2731 C2731 10.9024 75.7606 38.1434 C.ar 0.0 **** 0.0
2732 C2732 9.74731 75.4964 38.9023 C.ar 0.0 **** 0.0
2733 C2733 9.06001 74.2787 38.7286 C.ar 0.0 **** 0.0
2734 C2734 9.53858 73.334 37.818 C.ar 0.0 **** 0.0
2735 C2735 10.7255 73.5681 37.095 C.ar 0.0 **** 0.0
2736 C2736 11.4221 74.777 37.2734 C.ar 0.0 **** 0.0
2737 C2737 8.81487 72.0402 37.586 C.3 0.0 **** -0.106
2738 C2738 7.48622 71.8735 38.2631 C.ar 0.0 **** 0.0
2739 C2739 7.01135 72.788 39.1764 C.ar 0.0 **** 0.0
2740 C2740 7.81211 74.013 39.5343 C.3 0.0 **** -0.106
2741 C2741 5.72134 72.6091 39.782 C.ar 0.0 **** 0.0
2742 C2742 4.90034 71.5439 39.4259 C.ar 0.0 **** 0.0
2743 C2743 5.40557 70.5471 38.5213 C.ar 0.0 **** 0.0
2744 C2744 6.70875 70.7203 37.9352 C.ar 0.0 **** 0.0
2745 C2745 7.24855 69.7412 37.0874 C.ar 0.0 **** -0.1268
2746 C2746 6.51867 68.6339 36.6583 C.ar 0.0 **** 0.0
2747 C2747 5.14725 68.5274 37.0983 C.ar 0.0 **** 0.0
2748 C2748 4.71611 69.364 38.158 C.ar 0.0 **** 0.042
2749 C2749 4.27587 67.6295 36.3983 C.2 0.0 **** 0.0
2750 C2750 4.789 66.6907 35.5132 C.2 0.0 **** 0.0
2751 C2751 6.20867 66.547 35.3527 C.ar 0.0 **** 0.0
2752 C2752 7.07347 67.5676 35.846 C.ar 0.0 **** 0.0
2753 C2753 3.77079 66.0064 34.631 C.3 0.0 **** -0.106
2754 C2754 2.895 67.0881 33.9673 C.ar 0.0 **** -0.053
2755 C2755 2.10278 67.8743 35.0437 C.ar 0.0 **** -0.053
2756 C2756 2.76889 67.7345 36.4399 C.3 0.0 **** -0.106
2757 C2757 8.48245 67.474 35.5471 C.ar 0.0 **** 0.042
2758 C2758 9.00206 66.3682 34.8324 C.ar 0.0 **** 0.052
2759 C2759 8.15458 65.3164 34.4132 C.ar 0.0 **** 0.052
2760 C2760 6.77422 65.3879 34.6952 C.ar 0.0 **** 0.042
2761 C2761 8.67119 64.1646 33.6994 C.2 0.0 **** 0.367
2762 C2762 10.12 64.1142 33.4119 C.ar 0.0 **** 0.0
2763 C2763 10.9262 65.1599 33.8162 C.ar 0.0 **** 0.0
2764 C2764 10.4095 66.3058 34.5499 C.2 0.0 **** 0.367
2765 C2765 12.4009 65.1248 33.5383 C.3 0.0 **** -0.106
2766 C2766 12.6725 64.4884 32.1781 C.3 0.0 **** -0.106
2767 C2767 11.9977 63.1462 32.0804 C.ar 0.0 **** 0.0
2768 C2768 10.7333 62.9746 32.6962 C.ar 0.0 **** 0.2405
2769 N2769 10.0552 61.8196 32.6384 N.ar 0.0 **** -0.481
2770 C2770 10.5638 60.8034 31.9334 C.ar 0.0 **** 0.2405
2771 C2771 11.8184 60.8731 31.2909 C.ar 0.0 **** 0.0
2772 C2772 12.5546 62.0631 31.3805 C.ar 0.0 **** 0.0
2773 C2773 13.9062 62.1861 30.7104 C.3 0.0 **** -0.106
2774 C2774 14.5063 60.8423 30.2828 C.3 0.0 **** -0.106
2775 C2775 13.4529 59.9759 29.5941 C.3 0.0 **** -0.106
2776 C2776 12.3256 59.6448 30.5714 C.3 0.0 **** -0.053
2777 C2777 11.1741 58.9067 29.8862 C.3 0.0 **** -0.106
2778 C2778 10.0274 58.6291 30.8264 C.ar 0.0 **** 0.0
2779 C2779 9.75062 59.5772 31.8335 C.ar 0.0 **** 0.0
2780 C2780 8.66395 59.3735 32.6947 C.ar 0.0 **** -0.1268
2781 C2781 7.87723 58.2369 32.5551 C.ar 0.0 **** -0.1268
2782 C2782 8.13093 57.2868 31.5531 C.ar 0.0 **** 0.0
2783 C2783 9.212 57.4929 30.6701 C.ar 0.0 **** 0.0
2784 C2784 12.7053 75.0434 36.5149 C.3 0.0 **** -0.106
2785 C2785 12.4433 75.586 35.101 C.3 0.0 **** -0.159
2786 C2786 11.582 77.1085 38.2603 C.3 0.0 **** -0.159
2787 C2787 11.1943 72.5001 36.135 C.3 0.0 **** -0.159
2788 C2788 9.246 76.5166 39.8996 C.3 0.0 **** -0.159
2789 C2789 5.25081 73.6301 40.7938 C.3 0.0 **** -0.159
2790 C2790 3.46665 71.5119 39.907 C.3 0.0 **** -0.159
2791 O2791 3.61895 69.0059 38.9091 O.3 0.0 **** -0.452
2792 C2792 0.635443 67.4562 35.1827 C.3 0.0 **** -0.159
2793 C2793 2.03164 66.4894 32.8543 C.3 0.0 **** -0.159
2794 O2794 5.99836 64.358 34.3805 O.3 0.0 **** -0.452
2795 O2795 9.33871 68.4164 35.9327 O.3 0.0 **** -0.452
2796 O2796 11.2129 67.2281 34.9385 O.2 0.0 **** -0.419
2797 O2797 7.87354 63.2471 33.327 O.2 0.0 **** -0.419
2798 C2798 9.49818 56.5177 29.5516 C.3 0.0 **** -0.159
2799 C2799 7.23557 56.0781 31.4395 C.3 0.0 **** -0.159
2800 H2800 8.6703 71.9022 36.5001 H 0.0 **** 0.053
2801 H2801 9.47473 71.1975 37.8706 H 0.0 **** 0.053
2802 H2802 8.08763 73.9543 40.6056 H 0.0 **** 0.053
2803 H2803 7.15023 74.8936 39.4757 H 0.0 **** 0.053
2804 H2804 8.2713 69.8377 36.7615 H 0.0 **** 0.1268
2805 H2805 4.24317 65.3943 33.8623 H 0.0 **** 0.053
2806 H2806 3.12756 65.3293 35.2232 H 0.0 **** 0.053
2807 H2807 3.59702 67.7958 33.4965 H 0.0 **** 0.053
2808 H2808 2.12809 68.9416 34.7729 H 0.0 **** 0.053
2809 H2809 2.36633 66.8087 36.895 H 0.0 **** 0.053
2810 H2810 2.42327 68.5739 37.0508 H 0.0 **** 0.053
2811 H2811 12.813 66.1394 33.607 H 0.0 **** 0.053
2812 H2812 12.8916 64.5282 34.3302 H 0.0 **** 0.053
2813 H2813 13.7541 64.4077 32.0138 H 0.0 **** 0.053
2814 H2814 12.2827 65.1504 31.3817 H 0.0 **** 0.053
2815 H2815 13.8 62.8403 29.8262 H 0.0 **** 0.053
2816 H2816 14.6083 62.7054 31.3809 H 0.0 **** 0.053
2817 H2817 14.8792 60.3086 31.173 H 0.0 **** 0.053
2818 H2818 15.3715 61.0159 29.6253 H 0.0 **** 0.053
2819 H2819 13.8947 59.044 29.2073 H 0.0 **** 0.053
2820 H2820 13.031 60.5203 28.7308 H 0.0 **** 0.053
2821 H2821 12.7336 58.9641 31.3456 H 0.0 **** 0.053
2822 H2822 10.8136 59.5217 29.0387 H 0.0 **** 0.053
2823 H2823 11.5624 57.976 29.4497 H 0.0 **** 0.053
2824 H2824 8.44694 60.1284 33.4503 H 0.0 **** 0.1268
2825 H2825 7.03221 58.0772 33.2284 H 0.0 **** 0.1268
2826 H2826 13.3002 74.1205 36.4499 H 0.0 **** 0.053
2827 H2827 13.3311 75.7556 37.07 H 0.0 **** 0.053
2828 H2828 11.8538 76.5144 35.1483 H 0.0 **** 0.053
2829 H2829 11.8656 74.8599 34.5098 H 0.0 **** 0.053
2830 H2830 13.3839 75.798 34.5694 H 0.0 **** 0.053
2831 H2831 10.8678 77.8961 38.5322 H 0.0 **** 0.053
2832 H2832 12.0527 77.4073 37.3146 H 0.0 **** 0.053
2833 H2833 12.3725 77.1028 39.0313 H 0.0 **** 0.053
2834 H2834 10.436 72.317 35.3558 H 0.0 **** 0.053
2835 H2835 11.3405 71.5357 36.6488 H 0.0 **** 0.053
2836 H2836 12.1288 72.7584 35.6265 H 0.0 **** 0.053
2837 H2837 8.65114 76.0536 40.6967 H 0.0 **** 0.053
2838 H2838 8.60611 77.276 39.4162 H 0.0 **** 0.053
2839 H2839 10.0767 77.0526 40.3781 H 0.0 **** 0.053
2840 H2840 4.59416 73.179 41.5483 H 0.0 **** 0.053
2841 H2841 4.68864 74.4507 40.314 H 0.0 **** 0.053
2842 H2842 6.09439 74.0879 41.3248 H 0.0 **** 0.053
2843 H2843 2.79676 71.173 39.1079 H 0.0 **** 0.053
2844 H2844 3.13494 72.5076 40.2221 H 0.0 **** 0.053
2845 H2845 3.32438 70.8178 40.7501 H 0.0 **** 0.053
2846 H2846 3.41524 68.076 38.7208 H 0.0 **** 0.41
2847 H2847 0.0629748 67.6495 34.2651 H 0.0 **** 0.053
2848 H2848 0.157748 68.009 36.0064 H 0.0 **** 0.053
2849 H2849 0.557735 66.3814 35.4122 H 0.0 **** 0.053
2850 H2850 2.66872 66.0224 32.0886 H 0.0 **** 0.053
2851 H2851 1.41748 67.2598 32.364 H 0.0 **** 0.053
2852 H2852 1.35364 65.7163 33.2459 H 0.0 **** 0.053
2853 H2853 6.66377 63.6939 33.8712 H 0.0 **** 0.41
2854 H2854 10.2855 68.0788 35.5852 H 0.0 **** 0.41
2855 H2855 9.629 57.0405 28.5919 H 0.0 **** 0.053
2856 H2856 8.692 55.7854 29.4288 H 0.0 **** 0.053
2857 H2857 10.4306 55.9578 29.7378 H 0.0 **** 0.053
2858 H2858 6.71545 56.0501 30.4679 H 0.0 **** 0.053
2859 H2859 6.47288 56.085 32.2299 H 0.0 **** 0.053
2860 H2860 7.80764 55.1401 31.5224 H 0.0 **** 0.053
2861 C2861 64.9963 43.8437 13.6741 C.ar 0.0 **** 0.0
2862 C2862 65.8027 44.6038 12.8069 C.ar 0.0 **** 0.0
2863 C2863 65.3612 44.8708 11.4957 C.ar 0.0 **** 0.0
2864 C2864 64.1188 44.3951 11.0701 C.ar 0.0 **** 0.0
2865 C2865 63.2816 43.6808 11.9505 C.ar 0.0 **** 0.0
2866 C2866 63.7124 43.4218 13.2642 C.ar 0.0 **** 0.0
2867 C2867 63.631 44.635 9.67154 C.3 0.0 **** -0.106
2868 C2868 64.594 45.2765 8.71629 C.ar 0.0 **** 0.0
2869 C2869 65.8139 45.7661 9.12652 C.ar 0.0 **** 0.0
2870 C2870 66.2417 45.6713 10.568 C.3 0.0 **** -0.106
2871 C2871 66.7214 46.3472 8.17708 C.ar 0.0 **** 0.0
2872 C2872 66.4178 46.3834 6.81989 C.ar 0.0 **** 0.0
2873 C2873 65.1238 45.9337 6.38338 C.ar 0.0 **** 0.0
2874 C2874 64.2096 45.3733 7.34342 C.ar 0.0 **** 0.0
2875 C2875 62.9223 44.9709 6.95634 C.ar 0.0 **** -0.1268
2876 C2876 62.5076 44.9584 5.62565 C.ar 0.0 **** 0.0
2877 C2877 63.4685 45.3561 4.62353 C.ar 0.0 **** 0.0
2878 C2878 64.6501 46.0119 5.05042 C.ar 0.0 **** 0.042
2879 C2879 63.2093 45.0091 3.25674 C.2 0.0 **** 0.0
2880 C2880 61.9561 44.5563 2.86647 C.2 0.0 **** 0.0
2881 C2881 60.8754 44.5127 3.81097 C.ar 0.0 **** 0.0
2882 C2882 61.161 44.622 5.20354 C.ar 0.0 **** 0.0
2883 C2883 61.8856 43.9556 1.48168 C.3 0.0 **** -0.106
2884 C2884 63.0069 42.9056 1.34791 C.ar 0.0 **** -0.053
2885 C2885 64.3961 43.5825 1.4754 C.ar 0.0 **** -0.053
2886 C2886 64.2846 44.9537 2.19641 C.3 0.0 **** -0.106
2887 C2887 60.08 44.4309 6.1407 C.ar 0.0 **** 0.042
2888 C2888 58.7589 44.1985 5.68907 C.ar 0.0 **** 0.052
2889 C2889 58.4628 44.1701 4.3064 C.ar 0.0 **** 0.052
2890 C2890 59.5046 44.3548 3.37334 C.ar 0.0 **** 0.042
2891 C2891 57.1121 43.9556 3.8241 C.2 0.0 **** 0.367
2892 C2892 56.0382 43.7605 4.82064 C.ar 0.0 **** 0.0
2893 C2893 56.3527 43.7758 6.16515 C.ar 0.0 **** 0.0
2894 C2894 57.7054 44.011 6.648 C.2 0.0 **** 0.367
2895 C2895 55.2753 43.5849 7.19264 C.3 0.0 **** -0.106
2896 C2896 54.2456 42.57 6.70393 C.3 0.0 **** -0.106
2897 C2897 53.7329 42.9543 5.34158 C.ar 0.0 **** 0.0
2898 C2898 54.6317 43.5432 4.41823 C.ar 0.0 **** 0.2405
2899 N2899 54.2626 43.8946 3.1784 N.ar 0.0 **** -0.481
2900 C2900 53.0134 43.6375 2.77606 C.ar 0.0 **** 0.2405
2901 C2901 52.0426 43.0613 3.62296 C.ar 0.0 **** 0.0
2902 C2902 52.4074 42.7284 4.93534 C.ar 0.0 **** 0.0
2903 C2903 51.4013 42.1105 5.88232 C.3 0.0 **** -0.106
2904 C2904 49.9498 42.2358 5.40646 C.3 0.0 **** -0.106
2905 C2905 49.8354 41.881 3.92479 C.3 0.0 **** -0.106
2906 C2906 50.6435 42.8695 3.08493 C.3 0.0 **** -0.053
2907 C2907 50.6832 42.4668 1.60965 C.3 0.0 **** -0.106
2908 C2908 51.5298 43.4002 0.780282 C.ar 0.0 **** 0.0
2909 C2909 52.671 43.9714 1.38105 C.ar 0.0 **** 0.0
2910 C2910 53.5053 44.8063 0.625379 C.ar 0.0 **** -0.1268
2911 C2911 53.1954 45.071 -0.702806 C.ar 0.0 **** -0.1268
2912 C2912 52.0694 44.5045 -1.32112 C.ar 0.0 **** 0.0
2913 C2913 51.2339 43.6483 -0.572961 C.ar 0.0 **** 0.0
2914 C2914 62.8234 42.6659 14.2293 C.3 0.0 **** -0.106
2915 C2915 62.942 41.1432 14.0585 C.3 0.0 **** -0.159
2916 C2916 65.5155 43.4754 15.0478 C.3 0.0 **** -0.159
2917 C2917 61.9456 43.2049 11.4302 C.3 0.0 **** -0.159
2918 C2918 67.1383 45.1309 13.2812 C.3 0.0 **** -0.159
2919 C2919 68.0418 46.8885 8.6783 C.3 0.0 **** -0.159
2920 C2920 67.4835 46.7892 5.82609 C.3 0.0 **** -0.159
2921 O2921 65.3513 46.8017 4.16693 O.3 0.0 **** -0.452
2922 C2922 65.1138 43.8135 0.14172 C.3 0.0 **** -0.159
2923 C2923 62.8239 42.0647 0.0822677 C.3 0.0 **** -0.159
2924 O2924 59.2082 44.4179 2.08113 O.3 0.0 **** -0.452
2925 O2925 60.2847 44.4691 7.45478 O.3 0.0 **** -0.452
2926 O2926 57.9318 44.0575 7.91049 O.2 0.0 **** -0.419
2927 O2927 56.8901 43.9225 2.57256 O.2 0.0 **** -0.419
2928 C2928 50.0341 42.9842 -1.2079 C.3 0.0 **** -0.159
2929 C2929 51.789 44.8162 -2.77018 C.3 0.0 **** -0.159
2930 H2930 63.302 43.674 9.2389 H 0.0 **** 0.053
2931 H2931 62.7019 45.2366 9.70791 H 0.0 **** 0.053
2932 H2932 66.3445 46.6969 10.9741 H 0.0 **** 0.053
2933 H2933 67.2668 45.2652 10.6033 H 0.0 **** 0.053
2934 H2934 62.2182 44.6701 7.71483 H 0.0 **** 0.1268
2935 H2935 60.92 43.4876 1.28897 H 0.0 **** 0.053
2936 H2936 62.0202 44.7334 0.707162 H 0.0 **** 0.053
2937 H2937 62.8916 42.2312 2.21235 H 0.0 **** 0.053
2938 H2938 65.0343 42.9351 2.09733 H 0.0 **** 0.053
2939 H2939 64.0479 45.7056 1.41868 H 0.0 **** 0.053
2940 H2940 65.2761 45.1954 2.59103 H 0.0 **** 0.053
2941 H2941 55.7256 43.2861 8.14762 H 0.0 **** 0.053
2942 H2942 54.7808 44.5593 7.36561 H 0.0 **** 0.053
2943 H2943 53.4294 42.4872 7.43221 H 0.0 **** 0.053
2944 H2944 54.7177 41.5709 6.64655 H 0.0 **** 0.053
2945 H2945 51.6549 41.0431 6.01432 H 0.0 **** 0.053
2946 H2946 51.5014 42.5647 6.88024 H 0.0 **** 0.053
2947 H2947 49.6059 43.2736 5.55142 H 0.0 **** 0.053
2948 H2948 49.302 41.5929 6.02144 H 0.0 **** 0.053
2949 H2949 48.7847 41.8851 3.59424 H 0.0 **** 0.053
2950 H2950 50.2271 40.8624 3.75555 H 0.0 **** 0.053
2951 H2951 50.14 43.8558 3.13949 H 0.0 **** 0.053
2952 H2952 51.088 41.4387 1.53391 H 0.0 **** 0.053
2953 H2953 49.6534 42.4224 1.22875 H 0.0 **** 0.053
2954 H2954 54.3978 45.2183 1.09618 H 0.0 **** 0.1268
2955 H2955 53.8442 45.7241 -1.29045 H 0.0 **** 0.1268
2956 H2956 61.7757 42.9708 14.0902 H 0.0 **** 0.053
2957 H2957 63.0718 42.9386 15.2641 H 0.0 **** 0.053
2958 H2958 63.9846 40.8201 14.2011 H 0.0 **** 0.053
2959 H2959 62.6414 40.8439 13.0434 H 0.0 **** 0.053
2960 H2960 62.3093 40.6055 14.7817 H 0.0 **** 0.053
2961 H2961 66.6109 43.4084 15.0584 H 0.0 **** 0.053
2962 H2962 65.1262 42.5042 15.3801 H 0.0 **** 0.053
2963 H2963 65.2256 44.2214 15.8085 H 0.0 **** 0.053
2964 H2964 62.0815 42.5227 10.5747 H 0.0 **** 0.053
2965 H2965 61.3394 44.0456 11.0545 H 0.0 **** 0.053
2966 H2966 61.3559 42.6712 12.1825 H 0.0 **** 0.053
2967 H2967 67.451 46.0207 12.7209 H 0.0 **** 0.053
2968 H2968 67.9367 44.3766 13.1647 H 0.0 **** 0.053
2969 H2969 67.1074 45.4055 14.3442 H 0.0 **** 0.053
2970 H2970 68.3903 47.7323 8.06945 H 0.0 **** 0.053
2971 H2971 68.8324 46.1177 8.65898 H 0.0 **** 0.053
2972 H2972 67.9643 47.2415 9.71393 H 0.0 **** 0.053
2973 H2973 67.4478 46.1497 4.9362 H 0.0 **** 0.053
2974 H2974 68.4842 46.6989 6.26335 H 0.0 **** 0.053
2975 H2975 67.3531 47.8243 5.47327 H 0.0 **** 0.053
2976 H2976 64.7863 46.9658 3.39526 H 0.0 **** 0.41
2977 H2977 65.3455 42.8696 -0.370688 H 0.0 **** 0.053
2978 H2978 66.0587 44.3543 0.30568 H 0.0 **** 0.053
2979 H2979 64.4924 44.4235 -0.533377 H 0.0 **** 0.053
2980 H2980 61.8511 41.5514 0.104241 H 0.0 **** 0.053
2981 H2981 63.6108 41.3008 -0.00965214 H 0.0 **** 0.053
2982 H2982 62.8544 42.6907 -0.821994 H 0.0 **** 0.053
2983 H2983 58.1583 44.2168 2.05832 H 0.0 **** 0.41
2984 H2984 59.3242 44.307 7.88196 H 0.0 **** 0.41
2985 H2985 50.0183 41.9043 -0.99557 H 0.0 **** 0.053
2986 H2986 50.0211 43.1134 -2.29621 H 0.0 **** 0.053
2987 H2987 49.0912 43.3993 -0.812525 H 0.0 **** 0.053
2988 H2988 51.8173 43.9065 -3.39221 H 0.0 **** 0.053
2989 H2989 52.5343 45.519 -3.16671 H 0.0 **** 0.053
2990 H2990 50.7907 45.2631 -2.90327 H 0.0 **** 0.053
2991 C2991 57.3641 42.7943 62.1871 C.ar 0.0 **** 0.0
2992 C2992 58.5755 42.2753 61.6942 C.ar 0.0 **** 0.0
2993 C2993 59.1348 42.8054 60.5145 C.ar 0.0 **** 0.0
2994 C2994 58.4935 43.8541 59.8514 C.ar 0.0 **** 0.0
2995 C2995 57.3094 44.4161 60.3693 C.ar 0.0 **** 0.0
2996 C2996 56.7533 43.8986 61.5531 C.ar 0.0 **** 0.0
2997 C2997 59.0451 44.422 58.5767 C.3 0.0 **** -0.106
2998 C2998 60.2267 43.7197 57.9748 C.ar 0.0 **** 0.0
2999 C2999 60.879 42.697 58.6263 C.ar 0.0 **** 0.0
3000 C3000 60.4248 42.2294 59.9845 C.3 0.0 **** -0.106
3001 C3001 61.9885 42.0291 58.0051 C.ar 0.0 **** 0.0
3002 C3002 62.3978 42.3589 56.717 C.ar 0.0 **** 0.0
3003 C3003 61.7683 43.4649 56.0478 C.ar 0.0 **** 0.0
3004 C3004 60.6718 44.1452 56.6853 C.ar 0.0 **** 0.0
3005 C3005 60.0696 45.2581 56.0789 C.ar 0.0 **** -0.1268
3006 C3006 60.3939 45.6783 54.7901 C.ar 0.0 **** 0.0
3007 C3007 61.3732 44.9052 54.0628 C.ar 0.0 **** 0.0
3008 C3008 62.1571 43.9689 54.7821 C.ar 0.0 **** 0.042
3009 C3009 61.4567 45.0767 52.6418 C.2 0.0 **** 0.0
3010 C3010 60.8205 46.1419 52.0185 C.2 0.0 **** 0.0
3011 C3011 60.1421 47.1377 52.7995 C.ar 0.0 **** 0.0
3012 C3012 59.8454 46.8685 54.1678 C.ar 0.0 **** 0.0
3013 C3013 60.7387 46.0571 50.5119 C.3 0.0 **** -0.106
3014 C3014 60.1744 44.6736 50.1313 C.ar 0.0 **** -0.053
3015 C3015 61.1404 43.5524 50.594 C.ar 0.0 **** -0.053
3016 C3016 62.0848 44.0585 51.7185 C.3 0.0 **** -0.106
3017 C3017 59.0378 47.8201 54.8928 C.ar 0.0 **** 0.042
3018 C3018 58.5996 49.0181 54.2795 C.ar 0.0 **** 0.052
3019 C3019 58.9622 49.3217 52.9466 C.ar 0.0 **** 0.052
3020 C3020 59.7512 48.4054 52.22 C.ar 0.0 **** 0.042
3021 C3021 58.5419 50.554 52.308 C.2 0.0 **** 0.367
3022 C3022 57.7124 51.4963 53.088 C.ar 0.0 **** 0.0
3023 C3023 57.3566 51.1721 54.3823 C.ar 0.0 **** 0.0
3024 C3024 57.7958 49.9441 55.0285 C.2 0.0 **** 0.367
3025 C3025 56.5192 52.1183 55.1925 C.3 0.0 **** -0.106
3026 C3026 55.4803 52.8023 54.3084 C.3 0.0 **** -0.106
3027 C3027 56.1411 53.4369 53.1137 C.ar 0.0 **** 0.0
3028 C3028 57.2459 52.7791 52.5188 C.ar 0.0 **** 0.2405
3029 N3029 57.8773 53.2643 51.4404 N.ar 0.0 **** -0.481
3030 C3030 57.4211 54.3852 50.8713 C.ar 0.0 **** 0.2405
3031 C3031 56.3329 55.1171 51.3926 C.ar 0.0 **** 0.0
3032 C3032 55.692 54.6401 52.5449 C.ar 0.0 **** 0.0
3033 C3033 54.5217 55.3908 53.1432 C.3 0.0 **** -0.106
3034 C3034 54.3733 56.8219 52.6154 C.3 0.0 **** -0.106
3035 C3035 54.5313 56.8556 51.0961 C.3 0.0 **** -0.106
3036 C3036 55.9379 56.4036 50.7051 C.3 0.0 **** -0.053
3037 C3037 56.096 56.2758 49.1889 C.3 0.0 **** -0.106
3038 C3038 57.4609 55.7702 48.7927 C.ar 0.0 **** 0.0
3039 C3039 58.0979 54.843 49.6436 C.ar 0.0 **** 0.0
3040 C3040 59.346 54.3177 49.2827 C.ar 0.0 **** -0.1268
3041 C3041 59.9476 54.722 48.0975 C.ar 0.0 **** -0.1268
3042 C3042 59.3253 55.6365 47.2329 C.ar 0.0 **** 0.0
3043 C3043 58.0604 56.1567 47.5795 C.ar 0.0 **** 0.0
3044 C3044 55.4878 44.4955 62.1323 C.3 0.0 **** -0.106
3045 C3045 54.2215 43.9246 61.4747 C.3 0.0 **** -0.159
3046 C3046 56.7155 42.1581 63.3983 C.3 0.0 **** -0.159
3047 C3047 56.6731 45.556 59.6092 C.3 0.0 **** -0.159
3048 C3048 59.2732 41.1522 62.4282 C.3 0.0 **** -0.159
3049 C3049 62.6852 40.9243 58.7677 C.3 0.0 **** -0.159
3050 C3050 63.412 41.4883 56.009 C.3 0.0 **** -0.159
3051 O3051 63.3701 43.5595 54.2749 O.3 0.0 **** -0.452
3052 C3052 62.0137 42.9676 49.4792 C.3 0.0 **** -0.159
3053 C3053 59.8043 44.6205 48.6471 C.3 0.0 **** -0.159
3054 O3054 60.1643 48.735 51.0025 O.3 0.0 **** -0.452
3055 O3055 58.6808 47.608 56.1568 O.3 0.0 **** -0.452
3056 O3056 57.4703 49.715 56.2487 O.2 0.0 **** -0.419
3057 O3057 58.8769 50.7827 51.103 O.2 0.0 **** -0.419
3058 C3058 57.3351 57.1124 46.6606 C.3 0.0 **** -0.159
3059 C3059 60.0189 56.0297 45.9523 C.3 0.0 **** -0.159
3060 H3060 58.2395 44.4536 57.8224 H 0.0 **** 0.053
3061 H3061 59.2986 45.4887 58.7327 H 0.0 **** 0.053
3062 H3062 61.2311 42.4333 60.7162 H 0.0 **** 0.053
3063 H3063 60.3493 41.1288 59.969 H 0.0 **** 0.053
3064 H3064 59.3353 45.8212 56.6314 H 0.0 **** 0.1268
3065 H3065 60.1051 46.8395 50.0934 H 0.0 **** 0.053
3066 H3066 61.7381 46.1814 50.0551 H 0.0 **** 0.053
3067 H3067 59.242 44.5602 50.7086 H 0.0 **** 0.053
3068 H3068 60.5353 42.7347 51.0163 H 0.0 **** 0.053
3069 H3069 62.9538 44.5289 51.2187 H 0.0 **** 0.053
3070 H3070 62.4546 43.1785 52.2534 H 0.0 **** 0.053
3071 H3071 56.0563 51.5779 56.0278 H 0.0 **** 0.053
3072 H3072 57.1855 52.881 55.6378 H 0.0 **** 0.053
3073 H3073 54.9183 53.539 54.8957 H 0.0 **** 0.053
3074 H3074 54.7457 52.051 53.9615 H 0.0 **** 0.053
3075 H3075 53.5975 54.8227 52.933 H 0.0 **** 0.053
3076 H3076 54.6141 55.4114 54.2402 H 0.0 **** 0.053
3077 H3077 55.1497 57.461 53.0682 H 0.0 **** 0.053
3078 H3078 53.3992 57.2309 52.924 H 0.0 **** 0.053
3079 H3079 54.3417 57.8651 50.6983 H 0.0 **** 0.053
3080 H3080 53.7943 56.1775 50.631 H 0.0 **** 0.053
3081 H3081 56.6528 57.1811 51.0424 H 0.0 **** 0.053
3082 H3082 55.3222 55.5802 48.8095 H 0.0 **** 0.053
3083 H3083 55.8864 57.2517 48.7294 H 0.0 **** 0.053
3084 H3084 59.8129 53.582 49.9376 H 0.0 **** 0.1268
3085 H3085 60.9217 54.3146 47.8181 H 0.0 **** 0.1268
3086 H3086 55.502 45.5891 62.0148 H 0.0 **** 0.053
3087 H3087 55.4488 44.3189 63.2159 H 0.0 **** 0.053
3088 H3088 54.1884 42.8303 61.5891 H 0.0 **** 0.053
3089 H3089 54.2148 44.1425 60.3963 H 0.0 **** 0.053
3090 H3090 53.3087 44.3488 61.9211 H 0.0 **** 0.053
3091 H3091 56.9717 41.0941 63.4785 H 0.0 **** 0.053
3092 H3092 55.6208 42.2275 63.3538 H 0.0 **** 0.053
3093 H3093 57.0359 42.6439 64.3366 H 0.0 **** 0.053
3094 H3094 56.3971 45.2383 58.59 H 0.0 **** 0.053
3095 H3095 57.3756 46.3965 59.4853 H 0.0 **** 0.053
3096 H3096 55.7664 45.9397 60.088 H 0.0 **** 0.053
3097 H3097 60.3511 41.1363 62.2249 H 0.0 **** 0.053
3098 H3098 58.8728 40.1656 62.1349 H 0.0 **** 0.053
3099 H3099 59.1447 41.2419 63.5153 H 0.0 **** 0.053
3100 H3100 63.7491 40.8613 58.5066 H 0.0 **** 0.053
3101 H3101 62.2344 39.9379 58.5596 H 0.0 **** 0.053
3102 H3102 62.6224 41.0827 59.8513 H 0.0 **** 0.053
3103 H3103 63.1359 41.3478 54.9573 H 0.0 **** 0.053
3104 H3104 63.4735 40.4979 56.4742 H 0.0 **** 0.053
3105 H3105 64.4192 41.9338 56.0116 H 0.0 **** 0.053
3106 H3106 63.6163 44.1643 53.5571 H 0.0 **** 0.41
3107 H3107 61.4143 42.472 48.7031 H 0.0 **** 0.053
3108 H3108 62.716 42.2278 49.8933 H 0.0 **** 0.053
3109 H3109 62.6085 43.7592 48.996 H 0.0 **** 0.053
3110 H3110 59.0546 45.3913 48.4145 H 0.0 **** 0.053
3111 H3111 59.3835 43.6413 48.3728 H 0.0 **** 0.053
3112 H3112 60.6824 44.8009 48.0091 H 0.0 **** 0.053
3113 H3113 59.6862 49.6749 50.8253 H 0.0 **** 0.41
3114 H3114 58.1092 48.4646 56.4227 H 0.0 **** 0.41
3115 H3115 56.2935 56.7955 46.4988 H 0.0 **** 0.053
3116 H3116 57.8199 57.1876 45.6805 H 0.0 **** 0.053
3117 H3117 57.2948 58.1279 47.0904 H 0.0 **** 0.053
3118 H3118 59.4283 55.7406 45.0674 H 0.0 **** 0.053
3119 H3119 60.9998 55.5413 45.8771 H 0.0 **** 0.053
3120 H3120 60.1721 57.1191 45.8918 H 0.0 **** 0.053
3121 C3121 74.0809 50.4115 8.66617 C.ar 0.0 **** 0.0
3122 C3122 74.5105 49.8916 9.9011 C.ar 0.0 **** 0.0
3123 C3123 74.1661 48.5741 10.263 C.ar 0.0 **** 0.0
3124 C3124 73.416 47.7861 9.38711 C.ar 0.0 **** 0.0
3125 C3125 73.0295 48.2808 8.12528 C.ar 0.0 **** 0.0
3126 C3126 73.381 49.5912 7.75413 C.ar 0.0 **** 0.0
3127 C3127 73.006 46.3898 9.75317 C.3 0.0 **** -0.106
3128 C3128 73.3109 45.9361 11.1506 C.ar 0.0 **** 0.0
3129 C3129 74.0646 46.6951 12.0176 C.ar 0.0 **** 0.0
3130 C3130 74.6164 48.0326 11.5974 C.3 0.0 **** -0.106
3131 C3131 74.3105 46.2404 13.3576 C.ar 0.0 **** 0.0
3132 C3132 73.7546 45.0555 13.8293 C.ar 0.0 **** 0.0
3133 C3133 73.0175 44.2213 12.9193 C.ar 0.0 **** 0.0
3134 C3134 72.7939 44.672 11.5708 C.ar 0.0 **** 0.0
3135 C3135 72.1206 43.8589 10.6464 C.ar 0.0 **** -0.1268
3136 C3136 71.5183 42.6541 11.0047 C.ar 0.0 **** 0.0
3137 C3137 71.5829 42.2627 12.3933 C.ar 0.0 **** 0.0
3138 C3138 72.4895 42.9466 13.2412 C.ar 0.0 **** 0.042
3139 C3139 70.6813 41.2491 12.8572 C.2 0.0 **** 0.0
3140 C3140 69.965 40.4723 11.9565 C.2 0.0 **** 0.0
3141 C3141 70.1835 40.6139 10.5444 C.ar 0.0 **** 0.0
3142 C3142 70.8835 41.7567 10.0578 C.ar 0.0 **** 0.0
3143 C3143 68.8484 39.6485 12.5548 C.3 0.0 **** -0.106
3144 C3144 67.9747 40.5719 13.4274 C.ar 0.0 **** -0.053
3145 C3145 68.8027 41.1358 14.6109 C.ar 0.0 **** -0.053
3146 C3146 70.3253 41.0585 14.3135 C.3 0.0 **** -0.106
3147 C3147 70.9654 41.9522 8.63008 C.ar 0.0 **** 0.042
3148 C3148 70.4158 41.0046 7.73382 C.ar 0.0 **** 0.052
3149 C3149 69.7919 39.8309 8.21689 C.ar 0.0 **** 0.052
3150 C3150 69.7012 39.62 9.60879 C.ar 0.0 **** 0.042
3151 C3151 69.2424 38.8375 7.31452 C.2 0.0 **** 0.367
3152 C3152 69.3458 39.0825 5.86067 C.ar 0.0 **** 0.0
3153 C3153 69.9444 40.243 5.41158 C.ar 0.0 **** 0.0
3154 C3154 70.5131 41.2295 6.31803 C.2 0.0 **** 0.367
3155 C3155 70.0637 40.5074 3.93888 C.3 0.0 **** -0.106
3156 C3156 68.8246 40.0037 3.20415 C.3 0.0 **** -0.106
3157 C3157 68.5572 38.5629 3.549 C.ar 0.0 **** 0.0
3158 C3158 68.8198 38.1198 4.86883 C.ar 0.0 **** 0.2405
3159 N3159 68.5894 36.8598 5.26443 N.ar 0.0 **** -0.481
3160 C3160 68.046 35.9972 4.39899 C.ar 0.0 **** 0.2405
3161 C3161 67.7553 36.3399 3.06116 C.ar 0.0 **** 0.0
3162 C3162 68.0315 37.644 2.62585 C.ar 0.0 **** 0.0
3163 C3163 67.7396 38.059 1.1998 C.3 0.0 **** -0.106
3164 C3164 67.4888 36.8794 0.254067 C.3 0.0 **** -0.106
3165 C3165 66.5502 35.861 0.899205 C.3 0.0 **** -0.106
3166 C3166 67.1981 35.2702 2.15092 C.3 0.0 **** -0.053
3167 C3167 66.2368 34.3581 2.91535 C.3 0.0 **** -0.106
3168 C3168 66.8436 33.8179 4.1865 C.ar 0.0 **** 0.0
3169 C3169 67.7397 34.6434 4.89719 C.ar 0.0 **** 0.0
3170 C3170 68.2858 34.1911 6.10595 C.ar 0.0 **** -0.1268
3171 C3171 67.9479 32.9322 6.5868 C.ar 0.0 **** -0.1268
3172 C3172 67.0507 32.0998 5.89885 C.ar 0.0 **** 0.0
3173 C3173 66.4821 32.5546 4.69024 C.ar 0.0 **** 0.0
3174 C3174 72.9853 50.1379 6.39853 C.3 0.0 **** -0.106
3175 C3175 71.5506 50.689 6.38979 C.3 0.0 **** -0.159
3176 C3176 74.368 51.8579 8.32283 C.3 0.0 **** -0.159
3177 C3177 72.2297 47.3725 7.22134 C.3 0.0 **** -0.159
3178 C3178 75.338 50.745 10.8359 C.3 0.0 **** -0.159
3179 C3179 75.1601 47.0998 14.2672 C.3 0.0 **** -0.159
3180 C3180 73.8423 44.7231 15.3022 C.3 0.0 **** -0.159
3181 O3181 72.9271 42.3464 14.4007 O.3 0.0 **** -0.452
3182 C3182 68.5527 40.4356 15.9504 C.3 0.0 **** -0.159
3183 C3183 66.6758 39.8734 13.8369 C.3 0.0 **** -0.159
3184 O3184 69.1969 38.4764 10.0555 O.3 0.0 **** -0.452
3185 O3185 71.5595 43.0222 8.10823 O.3 0.0 **** -0.452
3186 O3186 71.0962 42.2694 5.84288 O.2 0.0 **** -0.419
3187 O3187 68.6764 37.8026 7.78935 O.2 0.0 **** -0.419
3188 C3188 65.481 31.7098 3.93653 C.3 0.0 **** -0.159
3189 C3189 66.7096 30.7479 6.4747 C.3 0.0 **** -0.159
3190 H3190 71.9208 46.2805 9.58216 H 0.0 **** 0.053
3191 H3191 73.4566 45.6776 9.03464 H 0.0 **** 0.053
3192 H3192 75.7227 47.9753 11.6017 H 0.0 **** 0.053
3193 H3193 74.3834 48.7704 12.3838 H 0.0 **** 0.053
3194 H3194 72.0745 44.1674 9.61476 H 0.0 **** 0.1268
3195 H3195 68.2327 39.1782 11.7878 H 0.0 **** 0.053
3196 H3196 69.2529 38.8313 13.1805 H 0.0 **** 0.053
3197 H3197 67.7026 41.4245 12.7835 H 0.0 **** 0.053
3198 H3198 68.5448 42.2 14.7301 H 0.0 **** 0.053
3199 H3199 70.6615 40.0509 14.6267 H 0.0 **** 0.053
3200 H3200 70.8213 41.7839 14.9653 H 0.0 **** 0.053
3201 H3201 70.2352 41.5779 3.76948 H 0.0 **** 0.053
3202 H3202 70.9586 39.9785 3.56028 H 0.0 **** 0.053
3203 H3203 68.9505 40.1419 2.12319 H 0.0 **** 0.053
3204 H3204 67.9518 40.6165 3.49937 H 0.0 **** 0.053
3205 H3205 66.8566 38.7233 1.20269 H 0.0 **** 0.053
3206 H3206 68.5694 38.6704 0.812691 H 0.0 **** 0.053
3207 H3207 68.4473 36.3845 0.0246197 H 0.0 **** 0.053
3208 H3208 67.0811 37.2494 -0.698835 H 0.0 **** 0.053
3209 H3209 66.2959 35.0523 0.19581 H 0.0 **** 0.053
3210 H3210 65.6048 36.3556 1.18398 H 0.0 **** 0.053
3211 H3211 68.0544 34.6436 1.82915 H 0.0 **** 0.053
3212 H3212 65.3225 34.933 3.16025 H 0.0 **** 0.053
3213 H3213 65.9205 33.5429 2.24996 H 0.0 **** 0.053
3214 H3214 68.9556 34.8514 6.65671 H 0.0 **** 0.1268
3215 H3215 68.3761 32.5789 7.52743 H 0.0 **** 0.1268
3216 H3216 73.0817 49.3518 5.63523 H 0.0 **** 0.053
3217 H3217 73.6831 50.9293 6.09232 H 0.0 **** 0.053
3218 H3218 71.4385 51.4824 7.14453 H 0.0 **** 0.053
3219 H3219 70.8306 49.8951 6.63841 H 0.0 **** 0.053
3220 H3220 71.2841 51.1049 5.40572 H 0.0 **** 0.053
3221 H3221 74.4403 52.4781 9.2253 H 0.0 **** 0.053
3222 H3222 73.5782 52.2885 7.69357 H 0.0 **** 0.053
3223 H3223 75.3196 51.9669 7.77338 H 0.0 **** 0.053
3224 H3224 71.2792 47.085 7.70056 H 0.0 **** 0.053
3225 H3225 72.7667 46.4303 7.02322 H 0.0 **** 0.053
3226 H3226 71.9837 47.8315 6.25834 H 0.0 **** 0.053
3227 H3227 75.9522 50.1368 11.5115 H 0.0 **** 0.053
3228 H3228 74.7011 51.3893 11.4677 H 0.0 **** 0.053
3229 H3229 76.0162 51.4071 10.2811 H 0.0 **** 0.053
3230 H3230 75.717 46.4934 14.9926 H 0.0 **** 0.053
3231 H3231 74.547 47.8189 14.8386 H 0.0 **** 0.053
3232 H3232 75.8927 47.6851 13.6981 H 0.0 **** 0.053
3233 H3233 72.8963 44.3011 15.6617 H 0.0 **** 0.053
3234 H3234 74.0562 45.6191 15.8959 H 0.0 **** 0.053
3235 H3235 74.6206 43.9738 15.5158 H 0.0 **** 0.053
3236 H3236 72.6948 41.4051 14.3591 H 0.0 **** 0.41
3237 H3237 67.5163 40.5597 16.2934 H 0.0 **** 0.053
3238 H3238 69.2202 40.844 16.7248 H 0.0 **** 0.053
3239 H3239 68.757 39.356 15.8686 H 0.0 **** 0.053
3240 H3240 66.1057 39.577 12.9439 H 0.0 **** 0.053
3241 H3241 66.039 40.5339 14.4447 H 0.0 **** 0.053
3242 H3242 66.8779 38.9655 14.4245 H 0.0 **** 0.053
3243 H3243 68.8823 37.9796 9.16253 H 0.0 **** 0.41
3244 H3244 71.474 42.8917 7.05615 H 0.0 **** 0.41
3245 H3245 64.5877 32.2948 3.66958 H 0.0 **** 0.053
3246 H3246 65.153 30.8424 4.52077 H 0.0 **** 0.053
3247 H3247 65.9073 31.3321 2.99142 H 0.0 **** 0.053
3248 H3248 65.6355 30.6681 6.71013 H 0.0 **** 0.053
3249 H3249 67.2719 30.5682 7.40098 H 0.0 **** 0.053
3250 H3250 66.9428 29.9353 5.76812 H 0.0 **** 0.053
3251 C3251 34.3552 1.36479 -8.93558 C.ar 0.0 **** 0.0
3252 C3252 33.817 0.0805008 -8.7334 C.ar 0.0 **** 0.0
3253 C3253 33.4335 -0.321019 -7.43842 C.ar 0.0 **** 0.0
3254 C3254 33.5729 0.563455 -6.36649 C.ar 0.0 **** 0.0
3255 C3255 34.0591 1.87049 -6.57035 C.ar 0.0 **** 0.0
3256 C3256 34.4322 2.28044 -7.86311 C.ar 0.0 **** 0.0
3257 C3257 33.2029 0.158304 -4.96986 C.3 0.0 **** -0.106
3258 C3258 32.8184 -1.27647 -4.75754 C.ar 0.0 **** 0.0
3259 C3259 32.6597 -2.15378 -5.80688 C.ar 0.0 **** 0.0
3260 C3260 32.8744 -1.70692 -7.22957 C.3 0.0 **** -0.106
3261 C3261 32.3195 -3.52748 -5.5619 C.ar 0.0 **** 0.0
3262 C3262 32.1937 -4.01801 -4.26612 C.ar 0.0 **** 0.0
3263 C3263 32.2948 -3.1027 -3.16198 C.ar 0.0 **** 0.0
3264 C3264 32.6134 -1.72214 -3.41541 C.ar 0.0 **** 0.0
3265 C3265 32.6708 -0.795566 -2.36324 C.ar 0.0 **** -0.1268
3266 C3266 32.5642 -1.17102 -1.02514 C.ar 0.0 **** 0.0
3267 C3267 32.4144 -2.5782 -0.73682 C.ar 0.0 **** 0.0
3268 C3268 32.0854 -3.45016 -1.8045 C.ar 0.0 **** 0.042
3269 C3269 32.6704 -3.0299 0.599637 C.2 0.0 **** 0.0
3270 C3270 32.7853 -2.12233 1.64412 C.2 0.0 **** 0.0
3271 C3271 32.5617 -0.722554 1.41507 C.ar 0.0 **** 0.0
3272 C3272 32.5424 -0.228714 0.0777244 C.ar 0.0 **** 0.0
3273 C3273 33.3347 -2.68461 2.93471 C.3 0.0 **** -0.106
3274 C3274 34.6341 -3.45189 2.61836 C.ar 0.0 **** -0.053
3275 C3275 34.3347 -4.65892 1.69222 C.ar 0.0 **** -0.053
3276 C3276 32.9874 -4.46693 0.943438 C.3 0.0 **** -0.106
3277 C3277 32.4611 1.19824 -0.123583 C.ar 0.0 **** 0.042
3278 C3278 32.345 2.08207 0.975856 C.ar 0.0 **** 0.052
3279 C3279 32.2834 1.5852 2.29856 C.ar 0.0 **** 0.052
3280 C3280 32.3609 0.193782 2.51767 C.ar 0.0 **** 0.042
3281 C3281 32.1421 2.47289 3.43657 C.2 0.0 **** 0.367
3282 C3282 32.0671 3.92686 3.18214 C.ar 0.0 **** 0.0
3283 C3283 32.1457 4.3909 1.88393 C.ar 0.0 **** 0.0
3284 C3284 32.2674 3.49754 0.741412 C.2 0.0 **** 0.367
3285 C3285 32.0661 5.86354 1.60462 C.3 0.0 **** -0.106
3286 C3286 32.7804 6.6534 2.69773 C.3 0.0 **** -0.106
3287 C3287 32.2648 6.2578 4.05574 C.ar 0.0 **** 0.0
3288 C3288 31.9152 4.90365 4.28213 C.ar 0.0 **** 0.2405
3289 N3289 31.4691 4.46378 5.46726 N.ar 0.0 **** -0.481
3290 C3290 31.3957 5.32058 6.49142 C.ar 0.0 **** 0.2405
3291 C3291 31.7139 6.68968 6.36494 C.ar 0.0 **** 0.0
3292 C3292 32.1417 7.16824 5.11823 C.ar 0.0 **** 0.0
3293 C3293 32.4924 8.62884 4.93182 C.3 0.0 **** -0.106
3294 C3294 31.9968 9.53102 6.0673 C.3 0.0 **** -0.106
3295 C3295 32.2962 8.90092 7.42659 C.3 0.0 **** -0.106
3296 C3296 31.5378 7.58205 7.57167 C.3 0.0 **** -0.053
3297 C3297 31.9228 6.83969 8.85265 C.3 0.0 **** -0.106
3298 C3298 31.2276 5.50661 8.97693 C.ar 0.0 **** 0.0
3299 C3299 30.9718 4.77893 7.79593 C.ar 0.0 **** 0.0
3300 C3300 30.3695 3.51628 7.87883 C.ar 0.0 **** -0.1268
3301 C3301 30.0215 2.9986 9.12024 C.ar 0.0 **** -0.1268
3302 C3302 30.2765 3.70336 10.3074 C.ar 0.0 **** 0.0
3303 C3303 30.899 4.96746 10.2346 C.ar 0.0 **** 0.0
3304 C3304 34.9462 3.68404 -8.10551 C.3 0.0 **** -0.106
3305 C3305 36.4473 3.8142 -7.80212 C.3 0.0 **** -0.159
3306 C3306 34.8572 1.75784 -10.3089 C.3 0.0 **** -0.159
3307 C3307 34.1739 2.78041 -5.37003 C.3 0.0 **** -0.159
3308 C3308 33.6521 -0.864664 -9.90231 C.3 0.0 **** -0.159
3309 C3309 32.1372 -4.4487 -6.74758 C.3 0.0 **** -0.159
3310 C3310 32.0629 -5.50791 -4.04031 C.3 0.0 **** -0.159
3311 O3311 31.4915 -4.66365 -1.53839 O.3 0.0 **** -0.452
3312 C3312 34.2809 -6.01124 2.41023 C.3 0.0 **** -0.159
3313 C3313 35.3883 -3.8079 3.90175 C.3 0.0 **** -0.159
3314 O3314 32.2117 -0.27331 3.75103 O.3 0.0 **** -0.452
3315 O3315 32.4893 1.73074 -1.34252 O.3 0.0 **** -0.452
3316 O3316 32.2926 3.98276 -0.446543 O.2 0.0 **** -0.419
3317 O3317 32.1053 1.9871 4.61104 O.2 0.0 **** -0.419
3318 C3318 31.2294 5.74402 11.4882 C.3 0.0 **** -0.159
3319 C3319 29.8893 3.08672 11.6286 C.3 0.0 **** -0.159
3320 H3320 34.0441 0.395196 -4.29518 H 0.0 **** 0.053
3321 H3321 32.3849 0.810245 -4.60598 H 0.0 **** 0.053
3322 H3322 31.913 -1.78705 -7.77395 H 0.0 **** 0.053
3323 H3323 33.5286 -2.43959 -7.73199 H 0.0 **** 0.053
3324 H3324 32.7899 0.250521 -2.59354 H 0.0 **** 0.1268
3325 H3325 33.5393 -1.90219 3.6658 H 0.0 **** 0.053
3326 H3326 32.6092 -3.37443 3.4046 H 0.0 **** 0.053
3327 H3327 35.2655 -2.75107 2.04767 H 0.0 **** 0.053
3328 H3328 35.1293 -4.70932 0.931203 H 0.0 **** 0.053
3329 H3329 32.1924 -4.84994 1.6124 H 0.0 **** 0.053
3330 H3330 33.0102 -5.11435 0.0616552 H 0.0 **** 0.053
3331 H3331 32.4791 6.07273 0.609773 H 0.0 **** 0.053
3332 H3332 30.9996 6.15618 1.57387 H 0.0 **** 0.053
3333 H3333 32.6598 7.72908 2.5194 H 0.0 **** 0.053
3334 H3334 33.8662 6.44646 2.6463 H 0.0 **** 0.053
3335 H3335 33.5904 8.71641 4.84398 H 0.0 **** 0.053
3336 H3336 32.0884 8.98932 3.97312 H 0.0 **** 0.053
3337 H3337 30.9072 9.67244 5.97288 H 0.0 **** 0.053
3338 H3338 32.4596 10.5255 5.97839 H 0.0 **** 0.053
3339 H3339 32.0214 9.57972 8.24945 H 0.0 **** 0.053
3340 H3340 33.3792 8.70348 7.51395 H 0.0 **** 0.053
3341 H3341 30.4564 7.81588 7.64368 H 0.0 **** 0.053
3342 H3342 33.0193 6.68382 8.85576 H 0.0 **** 0.053
3343 H3343 31.6998 7.48439 9.71407 H 0.0 **** 0.053
3344 H3344 30.203 2.95498 6.95945 H 0.0 **** 0.1268
3345 H3345 29.5494 2.01576 9.18407 H 0.0 **** 0.1268
3346 H3346 34.3832 4.40045 -7.48928 H 0.0 **** 0.053
3347 H3347 34.7561 3.98131 -9.14589 H 0.0 **** 0.053
3348 H3348 37.0266 3.10772 -8.41604 H 0.0 **** 0.053
3349 H3349 36.6501 3.57567 -6.74741 H 0.0 **** 0.053
3350 H3350 36.8132 4.83267 -8.00525 H 0.0 **** 0.053
3351 H3351 35.2009 0.883563 -10.8761 H 0.0 **** 0.053
3352 H3352 35.7003 2.45799 -10.2459 H 0.0 **** 0.053
3353 H3353 34.0695 2.24781 -10.9078 H 0.0 **** 0.053
3354 H3354 34.8598 2.35175 -4.62068 H 0.0 **** 0.053
3355 H3355 33.2029 2.89687 -4.86117 H 0.0 **** 0.053
3356 H3356 34.5472 3.7786 -5.62066 H 0.0 **** 0.053
3357 H3357 32.8657 -1.60792 -9.72146 H 0.0 **** 0.053
3358 H3358 34.5836 -1.42107 -10.1086 H 0.0 **** 0.053
3359 H3359 33.3892 -0.324542 -10.8218 H 0.0 **** 0.053
3360 H3360 31.404 -5.23773 -6.53779 H 0.0 **** 0.053
3361 H3361 33.0837 -4.94295 -7.02941 H 0.0 **** 0.053
3362 H3362 31.7863 -3.90168 -7.63121 H 0.0 **** 0.053
3363 H3363 32.6634 -5.82402 -3.17916 H 0.0 **** 0.053
3364 H3364 32.4094 -6.0704 -4.91464 H 0.0 **** 0.053
3365 H3365 31.0253 -5.80833 -3.82571 H 0.0 **** 0.053
3366 H3366 31.1814 -4.6523 -0.618945 H 0.0 **** 0.41
3367 H3367 35.2476 -6.27856 2.85885 H 0.0 **** 0.053
3368 H3368 34.0002 -6.80742 1.70357 H 0.0 **** 0.053
3369 H3369 33.5262 -5.99531 3.21278 H 0.0 **** 0.053
3370 H3370 35.6371 -2.89454 4.46225 H 0.0 **** 0.053
3371 H3371 36.3264 -4.33969 3.682 H 0.0 **** 0.053
3372 H3372 34.7817 -4.45078 4.55701 H 0.0 **** 0.053
3373 H3373 32.1385 0.613466 4.34394 H 0.0 **** 0.41
3374 H3374 32.4057 2.77864 -1.18084 H 0.0 **** 0.41
3375 H3375 32.2717 6.09737 11.4742 H 0.0 **** 0.053
3376 H3376 31.0905 5.14154 12.3932 H 0.0 **** 0.053
3377 H3377 30.5918 6.63954 11.5838 H 0.0 **** 0.053
3378 H3378 30.7701 2.91922 12.2701 H 0.0 **** 0.053
3379 H3379 29.3957 2.11768 11.4741 H 0.0 **** 0.053
3380 H3380 29.2017 3.73627 12.1936 H 0.0 **** 0.053
3381 C3381 17.7299 57.2985 32.5431 C.ar 0.0 **** 0.0
3382 C3382 16.413 57.5589 32.9649 C.ar 0.0 **** 0.0
3383 C3383 16.1896 58.2982 34.1434 C.ar 0.0 **** 0.0
3384 C3384 17.2752 58.7834 34.876 C.ar 0.0 **** 0.0
3385 C3385 18.5957 58.5742 34.43 C.ar 0.0 **** 0.0
3386 C3386 18.8239 57.847 33.2478 C.ar 0.0 **** 0.0
3387 C3387 17.0742 59.5482 36.1513 C.3 0.0 **** -0.106
3388 C3388 15.6711 59.6397 36.6751 C.ar 0.0 **** 0.0
3389 C3389 14.5905 59.1821 35.9549 C.ar 0.0 **** 0.0
3390 C3390 14.7737 58.5563 34.5967 C.3 0.0 **** -0.106
3391 C3391 13.265 59.2604 36.5024 C.ar 0.0 **** 0.0
3392 C3392 13.0441 59.7483 37.7864 C.ar 0.0 **** 0.0
3393 C3393 14.1524 60.2872 38.527 C.ar 0.0 **** 0.0
3394 C3394 15.4753 60.2266 37.9632 C.ar 0.0 **** 0.0
3395 C3395 16.5688 60.7876 38.6404 C.ar 0.0 **** -0.1268
3396 C3396 16.469 61.3011 39.9324 C.ar 0.0 **** 0.0
3397 C3397 15.1841 61.2173 40.5864 C.ar 0.0 **** 0.0
3398 C3398 14.0489 60.9066 39.797 C.ar 0.0 **** 0.042
3399 C3399 15.1324 61.3874 42.0091 C.2 0.0 **** 0.0
3400 C3400 16.2255 61.8895 42.7025 C.2 0.0 **** 0.0
3401 C3401 17.3939 62.3287 41.9926 C.ar 0.0 **** 0.0
3402 C3402 17.5617 61.9558 40.6268 C.ar 0.0 **** 0.0
3403 C3403 16.1583 61.7537 44.206 C.3 0.0 **** -0.106
3404 C3404 15.8102 60.2911 44.5485 C.ar 0.0 **** -0.053
3405 C3405 14.4056 59.9296 44.0 C.ar 0.0 **** -0.053
3406 C3406 13.9844 60.8992 42.862 C.3 0.0 **** -0.106
3407 C3407 18.8075 62.2842 39.976 C.ar 0.0 **** 0.042
3408 C3408 19.8147 63.0086 40.6572 C.ar 0.0 **** 0.052
3409 C3409 19.6146 63.4477 41.9867 C.ar 0.0 **** 0.052
3410 C3410 18.404 63.1377 42.6413 C.ar 0.0 **** 0.042
3411 C3411 20.6252 64.2102 42.694 C.2 0.0 **** 0.367
3412 C3412 21.8868 64.5191 41.9887 C.ar 0.0 **** 0.0
3413 C3413 22.0674 64.0664 40.6967 C.ar 0.0 **** 0.0
3414 C3414 21.0442 63.3184 39.9813 C.2 0.0 **** 0.367
3415 C3415 23.3394 64.3744 39.9619 C.3 0.0 **** -0.106
3416 C3416 24.5304 64.3303 40.915 C.3 0.0 **** -0.106
3417 C3417 24.2825 65.2132 42.109 C.ar 0.0 **** 0.0
3418 C3418 22.968 65.2975 42.6308 C.ar 0.0 **** 0.2405
3419 N3419 22.6657 66.0425 43.7034 N.ar 0.0 **** -0.481
3420 C3420 23.6462 66.694 44.338 C.ar 0.0 **** 0.2405
3421 C3421 24.9851 66.679 43.8922 C.ar 0.0 **** 0.0
3422 C3422 25.3041 65.9361 42.7465 C.ar 0.0 **** 0.0
3423 C3423 26.7254 65.8907 42.2278 C.3 0.0 **** -0.106
3424 C3424 27.633 66.9731 42.8224 C.3 0.0 **** -0.106
3425 C3425 27.4359 67.0715 44.3343 C.3 0.0 **** -0.106
3426 C3426 26.0031 67.4997 44.6496 C.3 0.0 **** -0.053
3427 C3427 25.7142 67.4657 46.1515 C.3 0.0 **** -0.106
3428 C3428 24.2846 67.8262 46.4714 C.ar 0.0 **** 0.0
3429 C3429 23.2825 67.4406 45.5566 C.ar 0.0 **** 0.0
3430 C3430 21.9395 67.7185 45.845 C.ar 0.0 **** -0.1268
3431 C3431 21.6094 68.3788 47.0219 C.ar 0.0 **** -0.1268
3432 C3432 22.5915 68.7622 47.9491 C.ar 0.0 **** 0.0
3433 C3433 23.9445 68.4702 47.6754 C.ar 0.0 **** 0.0
3434 C3434 20.2344 57.6208 32.7453 C.3 0.0 **** -0.106
3435 C3435 20.9092 56.42 33.4271 C.3 0.0 **** -0.159
3436 C3436 17.9678 56.4214 31.3321 C.3 0.0 **** -0.159
3437 C3437 19.7237 59.1358 35.2632 C.3 0.0 **** -0.159
3438 C3438 15.2428 57.0458 32.1561 C.3 0.0 **** -0.159
3439 C3439 12.1076 58.7622 35.6658 C.3 0.0 **** -0.159
3440 C3440 11.6761 59.6047 38.4155 C.3 0.0 **** -0.159
3441 O3441 12.7924 61.2575 40.2378 O.3 0.0 **** -0.452
3442 C3442 13.2929 59.9347 45.0532 C.3 0.0 **** -0.159
3443 C3443 15.9985 60.0169 46.0425 C.3 0.0 **** -0.159
3444 O3444 18.1839 63.6286 43.8546 O.3 0.0 **** -0.452
3445 O3445 19.0513 61.9225 38.719 O.3 0.0 **** -0.452
3446 O3446 21.2499 62.9602 38.7661 O.2 0.0 **** -0.419
3447 O3447 20.4123 64.5737 43.8936 O.2 0.0 **** -0.419
3448 C3448 25.0314 68.8278 48.6627 C.3 0.0 **** -0.159
3449 C3449 22.1742 69.4647 49.2171 C.3 0.0 **** -0.159
3450 H3450 17.7094 59.1038 36.9374 H 0.0 **** 0.053
3451 H3451 17.4836 60.5702 36.0316 H 0.0 **** 0.053
3452 H3452 14.2709 59.194 33.8432 H 0.0 **** 0.053
3453 H3453 14.2072 57.6101 34.5676 H 0.0 **** 0.053
3454 H3454 17.5231 60.8369 38.1422 H 0.0 **** 0.1268
3455 H3455 17.0997 62.0279 44.6826 H 0.0 **** 0.053
3456 H3456 15.3841 62.4211 44.628 H 0.0 **** 0.053
3457 H3457 16.5425 59.6726 44.0041 H 0.0 **** 0.053
3458 H3458 14.4593 58.9183 43.567 H 0.0 **** 0.053
3459 H3459 13.5119 61.7754 43.347 H 0.0 **** 0.053
3460 H3460 13.2101 60.3955 42.2754 H 0.0 **** 0.053
3461 H3461 23.4583 63.6772 39.1229 H 0.0 **** 0.053
3462 H3462 23.2536 65.3868 39.524 H 0.0 **** 0.053
3463 H3463 25.4446 64.6209 40.3828 H 0.0 **** 0.053
3464 H3464 24.6843 63.2895 41.2578 H 0.0 **** 0.053
3465 H3465 27.1469 64.8936 42.4496 H 0.0 **** 0.053
3466 H3466 26.724 65.9746 41.13 H 0.0 **** 0.053
3467 H3467 27.3869 67.9471 42.3674 H 0.0 **** 0.053
3468 H3468 28.682 66.7558 42.5705 H 0.0 **** 0.053
3469 H3469 28.1442 67.7862 44.7826 H 0.0 **** 0.053
3470 H3470 27.6267 66.0878 44.7985 H 0.0 **** 0.053
3471 H3471 25.8798 68.5506 44.3183 H 0.0 **** 0.053
3472 H3472 25.93 66.4479 46.5307 H 0.0 **** 0.053
3473 H3473 26.4161 68.1406 46.6607 H 0.0 **** 0.053
3474 H3474 21.1748 67.3903 45.1411 H 0.0 **** 0.1268
3475 H3475 20.5628 68.5978 47.2448 H 0.0 **** 0.1268
3476 H3476 20.8396 58.5245 32.9093 H 0.0 **** 0.053
3477 H3477 20.2275 57.4676 31.6575 H 0.0 **** 0.053
3478 H3478 20.3189 55.5048 33.267 H 0.0 **** 0.053
3479 H3479 20.9773 56.581 34.5134 H 0.0 **** 0.053
3480 H3480 21.9246 56.2519 33.0358 H 0.0 **** 0.053
3481 H3481 17.1557 55.696 31.1959 H 0.0 **** 0.053
3482 H3482 18.902 55.852 31.4226 H 0.0 **** 0.053
3483 H3483 18.0357 57.0152 30.4037 H 0.0 **** 0.053
3484 H3484 19.7106 58.7043 36.2777 H 0.0 **** 0.053
3485 H3485 19.6201 60.2253 35.3955 H 0.0 **** 0.053
3486 H3486 20.7128 58.9385 34.8375 H 0.0 **** 0.053
3487 H3487 14.3387 57.6464 32.3158 H 0.0 **** 0.053
3488 H3488 14.9916 56.0037 32.4221 H 0.0 **** 0.053
3489 H3489 15.4612 57.0599 31.0798 H 0.0 **** 0.053
3490 H3490 11.1848 59.3153 35.8818 H 0.0 **** 0.053
3491 H3491 11.9028 57.6925 35.8487 H 0.0 **** 0.053
3492 H3492 12.3112 58.8702 34.5934 H 0.0 **** 0.053
3493 H3493 11.7622 59.3181 39.4702 H 0.0 **** 0.053
3494 H3494 11.0876 58.8334 37.9059 H 0.0 **** 0.053
3495 H3495 11.1049 60.546 38.3924 H 0.0 **** 0.053
3496 H3496 12.8945 61.8852 40.9707 H 0.0 **** 0.41
3497 H3497 13.4571 59.1754 45.8301 H 0.0 **** 0.053
3498 H3498 12.3191 59.7346 44.5801 H 0.0 **** 0.053
3499 H3499 13.2292 60.9179 45.5463 H 0.0 **** 0.053
3500 H3500 17.0391 60.2177 46.3376 H 0.0 **** 0.053
3501 H3501 15.7693 58.9695 46.2906 H 0.0 **** 0.053
3502 H3502 15.3453 60.6587 46.6525 H 0.0 **** 0.053
3503 H3503 19.1015 64.124 44.091 H 0.0 **** 0.41
3504 H3504 20.0233 62.3018 38.5131 H 0.0 **** 0.41
3505 H3505 25.6951 67.9702 48.8516 H 0.0 **** 0.053
3506 H3506 24.6209 69.154 49.6252 H 0.0 **** 0.053
3507 H3507 25.6679 69.6434 48.2791 H 0.0 **** 0.053
3508 H3508 22.4428 68.8784 50.1113 H 0.0 **** 0.053
3509 H3509 21.0874 69.6238 49.2324 H 0.0 **** 0.053
3510 H3510 22.6663 70.4452 49.3186 H 0.0 **** 0.053
3511 C3511 24.3539 52.2203 27.8869 C.ar 0.0 **** 0.0
3512 C3512 22.9994 52.2721 28.2644 C.ar 0.0 **** 0.0
3513 C3513 22.1072 53.101 27.5558 C.ar 0.0 **** 0.0
3514 C3514 22.5679 53.8524 26.4723 C.ar 0.0 **** 0.0
3515 C3515 23.9107 53.7632 26.0537 C.ar 0.0 **** 0.0
3516 C3516 24.8028 52.9281 26.7502 C.ar 0.0 **** 0.0
3517 C3517 21.6521 54.7682 25.7146 C.3 0.0 **** -0.106
3518 C3518 20.2666 54.9492 26.2616 C.ar 0.0 **** 0.0
3519 C3519 19.794 54.202 27.3172 C.ar 0.0 **** 0.0
3520 C3520 20.6605 53.1631 27.9803 C.3 0.0 **** -0.106
3521 C3521 18.4718 54.4245 27.832 C.ar 0.0 **** 0.0
3522 C3522 17.6582 55.4286 27.317 C.ar 0.0 **** 0.0
3523 C3523 18.1117 56.1756 26.1753 C.ar 0.0 **** 0.0
3524 C3524 19.4292 55.9321 25.6495 C.ar 0.0 **** 0.0
3525 C3525 19.8811 56.6103 24.5073 C.ar 0.0 **** -0.1268
3526 C3526 19.1552 57.6383 23.9078 C.ar 0.0 **** 0.0
3527 C3527 17.904 58.0172 24.5213 C.ar 0.0 **** 0.0
3528 C3528 17.3432 57.1501 25.4919 C.ar 0.0 **** 0.042
3529 C3529 17.3272 59.2808 24.1659 C.2 0.0 **** 0.0
3530 C3530 17.7994 59.992 23.0708 C.2 0.0 **** 0.0
3531 C3531 18.8148 59.4297 22.2254 C.ar 0.0 **** 0.0
3532 C3532 19.5597 58.3038 22.6838 C.ar 0.0 **** 0.0
3533 C3533 17.3179 61.4207 22.9684 C.3 0.0 **** -0.106
3534 C3534 17.5584 62.1147 24.3241 C.ar 0.0 **** -0.053
3535 C3535 16.7165 61.4339 25.4341 C.ar 0.0 **** -0.053
3536 C3536 16.3042 59.9952 25.0185 C.3 0.0 **** -0.106
3537 C3537 20.6697 57.8457 21.8829 C.ar 0.0 **** 0.042
3538 C3538 20.9761 58.4609 20.6456 C.ar 0.0 **** 0.052
3539 C3539 20.1867 59.5263 20.1536 C.ar 0.0 **** 0.052
3540 C3540 19.097 59.9895 20.9205 C.ar 0.0 **** 0.042
3541 C3541 20.4709 60.155 18.8781 C.2 0.0 **** 0.367
3542 C3542 21.6202 59.6552 18.0947 C.ar 0.0 **** 0.0
3543 C3543 22.3871 58.6249 18.6017 C.ar 0.0 **** 0.0
3544 C3544 22.0887 57.9818 19.8728 C.2 0.0 **** 0.367
3545 C3545 23.5552 58.0999 17.8188 C.3 0.0 **** -0.106
3546 C3546 24.2658 59.2385 17.0924 C.3 0.0 **** -0.106
3547 C3547 23.285 60.0333 16.2723 C.ar 0.0 **** 0.0
3548 C3548 21.9776 60.2323 16.7807 C.ar 0.0 **** 0.2405
3549 N3549 21.0509 60.9451 16.125 N.ar 0.0 **** -0.481
3550 C3550 21.382 61.5337 14.9707 C.ar 0.0 **** 0.2405
3551 C3551 22.6549 61.3894 14.3785 C.ar 0.0 **** 0.0
3552 C3552 23.6182 60.6111 15.0361 C.ar 0.0 **** 0.0
3553 C3553 24.997 60.4246 14.4401 C.3 0.0 **** -0.106
3554 C3554 25.0905 60.8305 12.9652 C.3 0.0 **** -0.106
3555 C3555 24.3945 62.17 12.7292 C.3 0.0 **** -0.106
3556 C3556 22.9035 62.0485 13.0416 C.3 0.0 **** -0.053
3557 C3557 22.1919 63.4006 12.9658 C.3 0.0 **** -0.106
3558 C3558 20.7319 63.3045 13.333 C.ar 0.0 **** 0.0
3559 C3559 20.356 62.3699 14.3204 C.ar 0.0 **** 0.0
3560 C3560 19.015 62.2868 14.7187 C.ar 0.0 **** -0.1268
3561 C3561 18.0686 63.1171 14.1312 C.ar 0.0 **** -0.1268
3562 C3562 18.4245 64.06 13.1539 C.ar 0.0 **** 0.0
3563 C3563 19.7754 64.163 12.7598 C.ar 0.0 **** 0.0
3564 C3564 26.2468 52.8094 26.3098 C.3 0.0 **** -0.106
3565 C3565 27.1204 53.9438 26.8685 C.3 0.0 **** -0.159
3566 C3566 25.3293 51.4058 28.7101 C.3 0.0 **** -0.159
3567 C3567 24.341 54.5935 24.8673 C.3 0.0 **** -0.159
3568 C3568 22.5045 51.4414 29.4271 C.3 0.0 **** -0.159
3569 C3569 17.9901 53.5659 28.9803 C.3 0.0 **** -0.159
3570 C3570 16.3715 55.786 28.0274 C.3 0.0 **** -0.159
3571 O3571 15.9935 57.204 25.7591 O.3 0.0 **** -0.452
3572 C3572 15.4419 62.1921 25.8184 C.3 0.0 **** -0.159
3573 C3573 17.3551 63.6275 24.2106 C.3 0.0 **** -0.159
3574 O3574 18.3055 60.927 20.4144 O.3 0.0 **** -0.452
3575 O3575 21.4383 56.833 22.2751 O.3 0.0 **** -0.452
3576 O3576 22.8104 56.9994 20.2744 O.2 0.0 **** -0.419
3577 O3577 19.7458 61.1199 18.4782 O.2 0.0 **** -0.419
3578 C3578 20.2112 65.1907 11.7411 C.3 0.0 **** -0.159
3579 C3579 17.3571 64.945 12.5598 C.3 0.0 **** -0.159
3580 H3580 22.1265 55.7621 25.6365 H 0.0 **** 0.053
3581 H3581 21.5848 54.4278 24.6629 H 0.0 **** 0.053
3582 H3582 20.2017 52.1673 27.8223 H 0.0 **** 0.053
3583 H3583 20.6108 53.3106 29.0725 H 0.0 **** 0.053
3584 H3584 20.8202 56.3211 24.0646 H 0.0 **** 0.1268
3585 H3585 17.833 61.9688 22.1792 H 0.0 **** 0.053
3586 H3586 16.2395 61.4569 22.7265 H 0.0 **** 0.053
3587 H3587 18.6198 61.9412 24.5664 H 0.0 **** 0.053
3588 H3588 17.3457 61.3484 26.3341 H 0.0 **** 0.053
3589 H3589 15.3666 60.0869 24.4364 H 0.0 **** 0.053
3590 H3590 16.0656 59.4475 25.9352 H 0.0 **** 0.053
3591 H3591 24.2318 57.5537 18.488 H 0.0 **** 0.053
3592 H3592 23.1795 57.3673 17.0797 H 0.0 **** 0.053
3593 H3593 25.0761 58.8363 16.4719 H 0.0 **** 0.053
3594 H3594 24.7416 59.9047 17.8369 H 0.0 **** 0.053
3595 H3595 25.7171 61.0181 15.032 H 0.0 **** 0.053
3596 H3596 25.3129 59.376 14.5534 H 0.0 **** 0.053
3597 H3597 24.6028 60.0616 12.3428 H 0.0 **** 0.053
3598 H3598 26.1467 60.8707 12.6588 H 0.0 **** 0.053
3599 H3599 24.5297 62.5116 11.6908 H 0.0 **** 0.053
3600 H3600 24.8372 62.9393 13.3864 H 0.0 **** 0.053
3601 H3601 22.4451 61.396 12.2712 H 0.0 **** 0.053
3602 H3602 22.6979 64.1061 13.6534 H 0.0 **** 0.053
3603 H3603 22.3196 63.8097 11.954 H 0.0 **** 0.053
3604 H3604 18.7451 61.5784 15.5019 H 0.0 **** 0.1268
3605 H3605 17.0231 63.0498 14.4399 H 0.0 **** 0.1268
3606 H3606 26.3042 52.8082 25.2114 H 0.0 **** 0.053
3607 H3607 26.6591 51.841 26.6247 H 0.0 **** 0.053
3608 H3608 27.0793 53.955 27.9684 H 0.0 **** 0.053
3609 H3609 26.7565 54.9205 26.5163 H 0.0 **** 0.053
3610 H3610 28.1717 53.8324 26.5608 H 0.0 **** 0.053
3611 H3611 25.0111 51.3376 29.7581 H 0.0 **** 0.053
3612 H3612 26.3335 51.8491 28.7023 H 0.0 **** 0.053
3613 H3613 25.4246 50.3739 28.3289 H 0.0 **** 0.053
3614 H3614 24.1925 55.6672 25.0692 H 0.0 **** 0.053
3615 H3615 23.7327 54.3652 23.9767 H 0.0 **** 0.053
3616 H3616 25.3942 54.4538 24.6034 H 0.0 **** 0.053
3617 H3617 21.4311 51.2278 29.3515 H 0.0 **** 0.053
3618 H3618 22.6662 51.9557 30.3911 H 0.0 **** 0.053
3619 H3619 23.0285 50.4778 29.4843 H 0.0 **** 0.053
3620 H3620 16.9037 53.4154 28.9449 H 0.0 **** 0.053
3621 H3621 18.2295 54.0205 29.9579 H 0.0 **** 0.053
3622 H3622 18.4591 52.5744 28.965 H 0.0 **** 0.053
3623 H3623 16.2296 56.8729 28.0497 H 0.0 **** 0.053
3624 H3624 16.3814 55.4283 29.0632 H 0.0 **** 0.053
3625 H3625 15.4863 55.3648 27.5254 H 0.0 **** 0.053
3626 H3626 15.5669 57.7166 25.0541 H 0.0 **** 0.41
3627 H3627 15.6627 63.1793 26.247 H 0.0 **** 0.053
3628 H3628 14.8659 61.6182 26.5607 H 0.0 **** 0.053
3629 H3629 14.7973 62.3402 24.9371 H 0.0 **** 0.053
3630 H3630 18.0442 64.0486 23.4636 H 0.0 **** 0.053
3631 H3631 17.5433 64.1312 25.1708 H 0.0 **** 0.053
3632 H3632 16.3288 63.8709 23.8975 H 0.0 **** 0.053
3633 H3633 18.7808 61.1794 19.4905 H 0.0 **** 0.41
3634 H3634 22.1529 56.7195 21.4956 H 0.0 **** 0.41
3635 H3635 21.0836 65.7593 12.0977 H 0.0 **** 0.053
3636 H3636 19.4134 65.9067 11.5127 H 0.0 **** 0.053
3637 H3637 20.5101 64.7122 10.7928 H 0.0 **** 0.053
3638 H3638 17.5516 66.0096 12.7696 H 0.0 **** 0.053
3639 H3639 16.3711 64.6945 12.9742 H 0.0 **** 0.053
3640 H3640 17.306 64.8396 11.4642 H 0.0 **** 0.053
3641 C3641 58.735 77.6401 31.4583 C.ar 0.0 **** 0.0
3642 C3642 60.0888 77.4283 31.1383 C.ar 0.0 **** 0.0
3643 C3643 60.6783 76.1732 31.3886 C.ar 0.0 **** 0.0
3644 C3644 59.9119 75.1418 31.9358 C.ar 0.0 **** 0.0
3645 C3645 58.5416 75.3293 32.2072 C.ar 0.0 **** 0.0
3646 C3646 57.9453 76.5766 31.9481 C.ar 0.0 **** 0.0
3647 C3647 60.515 73.8027 32.2432 C.3 0.0 **** -0.106
3648 C3648 62.0001 73.6709 32.0739 C.ar 0.0 **** 0.0
3649 C3649 62.7644 74.6729 31.519 C.ar 0.0 **** 0.0
3650 C3650 62.1356 75.9623 31.0587 C.3 0.0 **** -0.106
3651 C3651 64.1877 74.5216 31.4004 C.ar 0.0 **** 0.0
3652 C3652 64.8345 73.39 31.8869 C.ar 0.0 **** 0.0
3653 C3653 64.0458 72.3087 32.4122 C.ar 0.0 **** 0.0
3654 C3654 62.6174 72.4572 32.5074 C.ar 0.0 **** 0.0
3655 C3655 61.8168 71.4018 32.9701 C.ar 0.0 **** -0.1268
3656 C3656 62.3527 70.2229 33.4859 C.ar 0.0 **** 0.0
3657 C3657 63.7914 70.1198 33.5589 C.ar 0.0 **** 0.0
3658 C3658 64.5685 71.0643 32.843 C.ar 0.0 **** 0.042
3659 C3659 64.3592 69.1096 34.4031 C.2 0.0 **** 0.0
3660 C3660 63.5697 68.0885 34.9149 C.2 0.0 **** 0.0
3661 C3661 62.1895 67.9801 34.534 C.ar 0.0 **** 0.0
3662 C3662 61.5519 69.086 33.8991 C.ar 0.0 **** 0.0
3663 C3663 64.2065 67.2619 36.008 C.3 0.0 **** -0.106
3664 C3664 64.7727 68.2189 37.0761 C.ar 0.0 **** -0.053
3665 C3665 65.893 69.1019 36.4682 C.ar 0.0 **** -0.053
3666 C3666 65.7782 69.1617 34.9203 C.3 0.0 **** -0.106
3667 C3667 60.1311 69.0096 33.6564 C.ar 0.0 **** 0.042
3668 C3668 59.3988 67.8443 33.9869 C.ar 0.0 **** 0.052
3669 C3669 60.0473 66.7172 34.5431 C.ar 0.0 **** 0.052
3670 C3670 61.4355 66.7707 34.7883 C.ar 0.0 **** 0.042
3671 C3671 59.3186 65.5063 34.8679 C.2 0.0 **** 0.367
3672 C3672 57.8643 65.4757 34.6059 C.ar 0.0 **** 0.0
3673 C3673 57.249 66.5932 34.0775 C.ar 0.0 **** 0.0
3674 C3674 57.9851 67.8008 33.7336 C.2 0.0 **** 0.367
3675 C3675 55.774 66.5799 33.7993 C.3 0.0 **** -0.106
3676 C3676 55.035 65.7906 34.8762 C.3 0.0 **** -0.106
3677 C3677 55.6416 64.422 35.0356 C.ar 0.0 **** 0.0
3678 C3678 57.0446 64.2802 34.8992 C.ar 0.0 **** 0.2405
3679 N3679 57.6669 63.1021 35.0472 N.ar 0.0 **** -0.481
3680 C3680 56.9475 62.0263 35.3843 C.ar 0.0 **** 0.2405
3681 C3681 55.5449 62.0634 35.5357 C.ar 0.0 **** 0.0
3682 C3682 54.8796 63.2824 35.342 C.ar 0.0 **** 0.0
3683 C3683 53.376 63.3726 35.4909 C.3 0.0 **** -0.106
3684 C3684 52.6748 62.0099 35.4964 C.3 0.0 **** -0.106
3685 C3685 53.416 61.0255 36.3997 C.3 0.0 **** -0.106
3686 C3686 54.8235 60.7756 35.8593 C.3 0.0 **** -0.053
3687 C3687 55.6563 59.9149 36.8112 C.3 0.0 **** -0.106
3688 C3688 57.068 59.7128 36.319 C.ar 0.0 **** 0.0
3689 C3689 57.6812 60.7672 35.6106 C.ar 0.0 **** 0.0
3690 C3690 59.0076 60.6307 35.1793 C.ar 0.0 **** -0.1268
3691 C3691 59.7014 59.4566 35.4444 C.ar 0.0 **** -0.1268
3692 C3692 59.1116 58.3999 36.1561 C.ar 0.0 **** 0.0
3693 C3693 57.7825 58.5358 36.6098 C.ar 0.0 **** 0.0
3694 C3694 56.4721 76.7954 32.2219 C.3 0.0 **** -0.106
3695 C3695 56.2 77.1482 33.6928 C.3 0.0 **** -0.159
3696 C3696 58.1308 79.0169 31.2801 C.3 0.0 **** -0.159
3697 C3697 57.7677 74.1692 32.7875 C.3 0.0 **** -0.159
3698 C3698 60.9071 78.5445 30.529 C.3 0.0 **** -0.159
3699 C3699 64.9825 75.6416 30.7667 C.3 0.0 **** -0.159
3700 C3700 66.3454 73.3635 31.954 C.3 0.0 **** -0.159
3701 O3701 65.8664 70.7607 32.4973 O.3 0.0 **** -0.452
3702 C3702 67.3152 68.6489 36.8134 C.3 0.0 **** -0.159
3703 C3703 65.1808 67.4545 38.3377 C.3 0.0 **** -0.159
3704 O3704 62.0548 65.681 35.2249 O.3 0.0 **** -0.452
3705 O3705 59.4633 70.0244 33.1139 O.3 0.0 **** -0.452
3706 O3706 57.3678 68.794 33.2048 O.2 0.0 **** -0.419
3707 O3707 59.9363 64.5201 35.3803 O.2 0.0 **** -0.419
3708 C3708 57.1205 57.4411 37.4143 C.3 0.0 **** -0.159
3709 C3709 59.9167 57.1533 36.4269 C.3 0.0 **** -0.159
3710 H3710 60.2585 73.5257 33.2807 H 0.0 **** 0.053
3711 H3711 60.0107 73.0274 31.6339 H 0.0 **** 0.053
3712 H3712 62.2666 76.0474 29.962 H 0.0 **** 0.053
3713 H3713 62.7231 76.8031 31.4648 H 0.0 **** 0.053
3714 H3714 60.7446 71.4959 32.9158 H 0.0 **** 0.1268
3715 H3715 63.4939 66.5777 36.4692 H 0.0 **** 0.053
3716 H3716 65.0267 66.6395 35.6045 H 0.0 **** 0.053
3717 H3717 63.9412 68.889 37.3502 H 0.0 **** 0.053
3718 H3718 65.7613 70.1276 36.8473 H 0.0 **** 0.053
3719 H3719 66.3268 68.2848 34.5249 H 0.0 **** 0.053
3720 H3720 66.3133 70.0566 34.5887 H 0.0 **** 0.053
3721 H3721 55.405 67.6102 33.7187 H 0.0 **** 0.053
3722 H3722 55.6086 66.1052 32.8138 H 0.0 **** 0.053
3723 H3723 53.968 65.7312 34.6284 H 0.0 **** 0.053
3724 H3724 55.1042 66.3335 35.8379 H 0.0 **** 0.053
3725 H3725 53.1491 63.9076 36.4308 H 0.0 **** 0.053
3726 H3726 52.9589 63.9973 34.6859 H 0.0 **** 0.053
3727 H3727 52.654 61.6053 34.4707 H 0.0 **** 0.053
3728 H3728 51.6287 62.1334 35.8152 H 0.0 **** 0.053
3729 H3729 52.8732 60.0702 36.4777 H 0.0 **** 0.053
3730 H3730 53.492 61.4422 37.4196 H 0.0 **** 0.053
3731 H3731 54.7296 60.212 34.9091 H 0.0 **** 0.053
3732 H3732 55.6801 60.406 37.8035 H 0.0 **** 0.053
3733 H3733 55.1454 58.9528 36.9545 H 0.0 **** 0.053
3734 H3734 59.476 61.4647 34.6568 H 0.0 **** 0.1268
3735 H3735 60.7342 59.3496 35.1055 H 0.0 **** 0.1268
3736 H3736 55.9028 75.8948 31.9485 H 0.0 **** 0.053
3737 H3737 56.0826 77.5942 31.5759 H 0.0 **** 0.053
3738 H3738 56.7579 78.0522 33.9812 H 0.0 **** 0.053
3739 H3739 56.5317 76.333 34.353 H 0.0 **** 0.053
3740 H3740 55.1288 77.3282 33.8731 H 0.0 **** 0.053
3741 H3741 58.8875 79.8044 31.3876 H 0.0 **** 0.053
3742 H3742 57.3472 79.2137 32.0233 H 0.0 **** 0.053
3743 H3743 57.6727 79.1368 30.2826 H 0.0 **** 0.053
3744 H3744 58.1946 73.8622 33.7567 H 0.0 **** 0.053
3745 H3745 57.8263 73.2822 32.1355 H 0.0 **** 0.053
3746 H3746 56.7101 74.3977 32.9546 H 0.0 **** 0.053
3747 H3747 61.7543 78.1616 29.9466 H 0.0 **** 0.053
3748 H3748 61.3216 79.2133 31.3041 H 0.0 **** 0.053
3749 H3749 60.3005 79.1668 29.8574 H 0.0 **** 0.053
3750 H3750 65.8718 75.2628 30.2473 H 0.0 **** 0.053
3751 H3751 65.3253 76.3744 31.5183 H 0.0 **** 0.053
3752 H3752 64.3837 76.1933 30.0317 H 0.0 **** 0.053
3753 H3753 66.6842 72.903 32.8896 H 0.0 **** 0.053
3754 H3754 66.7591 74.3773 31.9108 H 0.0 **** 0.053
3755 H3755 66.7895 72.7745 31.1363 H 0.0 **** 0.053
3756 H3756 65.9971 69.8076 32.6242 H 0.0 **** 0.41
3757 H3757 67.5153 68.705 37.8923 H 0.0 **** 0.053
3758 H3758 68.0531 69.2809 36.2956 H 0.0 **** 0.053
3759 H3759 67.4809 67.6087 36.4903 H 0.0 **** 0.053
3760 H3760 64.3145 66.9208 38.7558 H 0.0 **** 0.053
3761 H3761 65.5688 68.1343 39.1114 H 0.0 **** 0.053
3762 H3762 65.9619 66.7108 38.1199 H 0.0 **** 0.053
3763 H3763 61.2566 64.9846 35.3704 H 0.0 **** 0.41
3764 H3764 58.4581 69.6825 33.0508 H 0.0 **** 0.41
3765 H3765 56.6466 57.8454 38.3217 H 0.0 **** 0.053
3766 H3766 57.8347 56.6691 37.7232 H 0.0 **** 0.053
3767 H3767 56.3239 56.9443 36.8345 H 0.0 **** 0.053
3768 H3768 60.0506 56.9854 37.5082 H 0.0 **** 0.053
3769 H3769 60.9135 57.2292 35.9717 H 0.0 **** 0.053
3770 H3770 59.4223 56.2552 36.0231 H 0.0 **** 0.053
3771 C3771 47.8632 32.6491 43.2652 C.ar 0.0 **** 0.0
3772 C3772 49.2639 32.5205 43.2259 C.ar 0.0 **** 0.0
3773 C3773 50.0681 33.3988 43.9789 C.ar 0.0 **** 0.0
3774 C3774 49.4707 34.3799 44.7734 C.ar 0.0 **** 0.0
3775 C3775 48.0676 34.4791 44.8611 C.ar 0.0 **** 0.0
3776 C3776 47.2599 33.5971 44.1207 C.ar 0.0 **** 0.0
3777 C3777 50.2973 35.351 45.5642 C.3 0.0 **** -0.106
3778 C3778 51.7818 35.3133 45.3487 C.ar 0.0 **** 0.0
3779 C3779 52.3849 34.3407 44.583 C.ar 0.0 **** 0.0
3780 C3780 51.5697 33.2639 43.9155 C.3 0.0 **** -0.106
3781 C3781 53.8061 34.3549 44.3758 C.ar 0.0 **** 0.0
3782 C3782 54.5993 35.3731 44.895 C.ar 0.0 **** 0.0
3783 C3783 53.9951 36.3607 45.7475 C.ar 0.0 **** 0.0
3784 C3784 52.5735 36.3278 45.97 C.ar 0.0 **** 0.0
3785 C3785 51.9625 37.2481 46.8352 C.ar 0.0 **** -0.1268
3786 C3786 52.6548 38.3129 47.4096 C.ar 0.0 **** 0.0
3787 C3787 54.0486 38.4665 47.0642 C.ar 0.0 **** 0.0
3788 C3788 54.7032 37.3862 46.4215 C.ar 0.0 **** 0.042
3789 C3789 54.6804 39.7259 47.3292 C.2 0.0 **** 0.0
3790 C3790 54.0644 40.6708 48.1388 C.2 0.0 **** 0.0
3791 C3791 52.824 40.3647 48.7942 C.ar 0.0 **** 0.0
3792 C3792 52.0696 39.233 48.3666 C.ar 0.0 **** 0.0
3793 C3793 54.6811 42.0502 48.1109 C.3 0.0 **** -0.106
3794 C3794 54.8383 42.4844 46.6398 C.ar 0.0 **** -0.053
3795 C3795 55.8187 41.5373 45.9008 C.ar 0.0 **** -0.053
3796 C3796 55.9483 40.1789 46.6428 C.3 0.0 **** -0.106
3797 C3797 50.7606 39.0274 48.9388 C.ar 0.0 **** 0.042
3798 C3798 50.2611 39.8932 49.9409 C.ar 0.0 **** 0.052
3799 C3799 51.0435 40.9687 50.4217 C.ar 0.0 **** 0.052
3800 C3800 52.326 41.1874 49.8762 C.ar 0.0 **** 0.042
3801 C3801 50.5586 41.8533 51.4635 C.2 0.0 **** 0.367
3802 C3802 49.2104 41.6066 52.0165 C.ar 0.0 **** 0.0
3803 C3803 48.4573 40.5607 51.5208 C.ar 0.0 **** 0.0
3804 C3804 48.9533 39.6617 50.4892 C.2 0.0 **** 0.367
3805 C3805 47.088 40.2907 52.0731 C.3 0.0 **** -0.106
3806 C3806 46.3765 41.6007 52.3998 C.3 0.0 **** -0.106
3807 C3807 47.2372 42.4605 53.2867 C.ar 0.0 **** 0.0
3808 C3808 48.6397 42.454 53.0859 C.ar 0.0 **** 0.2405
3809 N3809 49.475 43.2059 53.8165 N.ar 0.0 **** -0.481
3810 C3810 48.9671 44.0314 54.7379 C.ar 0.0 **** 0.2405
3811 C3811 47.5858 44.1049 55.0178 C.ar 0.0 **** 0.0
3812 C3812 46.7075 43.2915 54.2875 C.ar 0.0 **** 0.0
3813 C3813 45.2178 43.3328 54.5524 C.3 0.0 **** -0.106
3814 C3814 44.8452 44.0233 55.8689 C.3 0.0 **** -0.106
3815 C3815 45.6283 45.3245 56.0359 C.3 0.0 **** -0.106
3816 C3816 47.1252 45.0284 56.1217 C.3 0.0 **** -0.053
3817 C3817 47.9609 46.3096 56.1374 C.3 0.0 **** -0.106
3818 C3818 49.4433 46.0301 56.1588 C.ar 0.0 **** 0.0
3819 C3819 49.9146 44.8951 55.4666 C.ar 0.0 **** 0.0
3820 C3820 51.2905 44.6315 55.4272 C.ar 0.0 **** -0.1268
3821 C3821 52.1746 45.4835 56.0775 C.ar 0.0 **** -0.1268
3822 C3822 51.7257 46.6231 56.7636 C.ar 0.0 **** 0.0
3823 C3823 50.3437 46.9061 56.7931 C.ar 0.0 **** 0.0
3824 C3824 45.7505 33.6795 44.2096 C.3 0.0 **** -0.106
3825 C3825 45.1701 34.7486 43.2704 C.3 0.0 **** -0.159
3826 C3826 47.0061 31.7691 42.3801 C.3 0.0 **** -0.159
3827 C3827 47.486 35.555 45.7478 C.3 0.0 **** -0.159
3828 C3828 49.9025 31.4437 42.3776 C.3 0.0 **** -0.159
3829 C3829 54.4252 33.2547 43.5428 C.3 0.0 **** -0.159
3830 C3830 56.0465 35.484 44.4694 C.3 0.0 **** -0.159
3831 O3831 56.0747 37.2815 46.4861 O.3 0.0 **** -0.452
3832 C3832 57.2299 42.1043 45.7155 C.3 0.0 **** -0.159
3833 C3833 55.1938 43.9698 46.5404 C.3 0.0 **** -0.159
3834 O3834 53.0917 42.1406 50.3929 O.3 0.0 **** -0.452
3835 O3835 49.9822 38.0211 48.5493 O.3 0.0 **** -0.452
3836 O3836 48.226 38.6796 50.097 O.2 0.0 **** -0.419
3837 O3837 51.2874 42.8178 51.8578 O.2 0.0 **** -0.419
3838 C3838 49.8186 48.1428 57.4849 C.3 0.0 **** -0.159
3839 C3839 52.7319 47.5203 57.4404 C.3 0.0 **** -0.159
3840 H3840 49.9424 36.3751 45.3542 H 0.0 **** 0.053
3841 H3841 50.0843 35.217 46.6427 H 0.0 **** 0.053
3842 H3842 51.8562 32.2849 44.3475 H 0.0 **** 0.053
3843 H3843 51.8814 33.1922 42.8596 H 0.0 **** 0.053
3844 H3844 50.9198 37.1247 47.0782 H 0.0 **** 0.1268
3845 H3845 54.0725 42.7797 48.6457 H 0.0 **** 0.053
3846 H3846 55.6736 42.0482 48.5984 H 0.0 **** 0.053
3847 H3847 53.8455 42.3507 46.1793 H 0.0 **** 0.053
3848 H3848 55.4025 41.3281 44.9027 H 0.0 **** 0.053
3849 H3849 56.7349 40.3082 47.4114 H 0.0 **** 0.053
3850 H3850 56.3184 39.4467 45.9189 H 0.0 **** 0.053
3851 H3851 46.5178 39.6796 51.3621 H 0.0 **** 0.053
3852 H3852 47.1955 39.6885 52.9948 H 0.0 **** 0.053
3853 H3853 45.4046 41.3913 52.8633 H 0.0 **** 0.053
3854 H3854 46.1653 42.1448 51.4597 H 0.0 **** 0.053
3855 H3855 44.7273 43.8545 53.7109 H 0.0 **** 0.053
3856 H3856 44.81 42.3101 54.5456 H 0.0 **** 0.053
3857 H3857 45.0828 43.3542 56.7128 H 0.0 **** 0.053
3858 H3858 43.7601 44.2047 55.8973 H 0.0 **** 0.053
3859 H3859 45.3057 45.8708 56.9364 H 0.0 **** 0.053
3860 H3860 45.4421 45.9838 55.1698 H 0.0 **** 0.053
3861 H3861 47.3154 44.5041 57.0799 H 0.0 **** 0.053
3862 H3862 47.7125 46.9056 55.2376 H 0.0 **** 0.053
3863 H3863 47.6598 46.9161 57.0028 H 0.0 **** 0.053
3864 H3864 51.6412 43.7657 54.8656 H 0.0 **** 0.1268
3865 H3865 53.2465 45.276 56.0489 H 0.0 **** 0.1268
3866 H3866 45.4478 33.8961 45.2446 H 0.0 **** 0.053
3867 H3867 45.3046 32.7037 43.9732 H 0.0 **** 0.053
3868 H3868 45.4585 34.5428 42.2282 H 0.0 **** 0.053
3869 H3869 45.5617 35.7436 43.5292 H 0.0 **** 0.053
3870 H3870 44.0709 34.7816 43.327 H 0.0 **** 0.053
3871 H3871 47.5411 31.474 41.4685 H 0.0 **** 0.053
3872 H3872 46.0876 32.2827 42.0674 H 0.0 **** 0.053
3873 H3873 46.7023 30.8416 42.8964 H 0.0 **** 0.053
3874 H3874 47.806 36.5541 45.4086 H 0.0 **** 0.053
3875 H3875 47.8459 35.457 46.7852 H 0.0 **** 0.053
3876 H3876 46.3914 35.552 45.767 H 0.0 **** 0.053
3877 H3877 50.8971 31.1655 42.7476 H 0.0 **** 0.053
3878 H3878 50.0258 31.7722 41.3303 H 0.0 **** 0.053
3879 H3879 49.2913 30.5314 42.3592 H 0.0 **** 0.053
3880 H3880 55.4491 33.0295 43.8669 H 0.0 **** 0.053
3881 H3881 54.4692 33.5282 42.4737 H 0.0 **** 0.053
3882 H3882 53.8475 32.3249 43.6118 H 0.0 **** 0.053
3883 H3883 56.3213 36.5314 44.2978 H 0.0 **** 0.053
3884 H3884 56.2263 34.9339 43.5388 H 0.0 **** 0.053
3885 H3885 56.7379 35.1004 45.2361 H 0.0 **** 0.053
3886 H3886 56.391 37.8862 47.176 H 0.0 **** 0.41
3887 H3887 57.2332 43.0038 45.0846 H 0.0 **** 0.053
3888 H3888 57.8837 41.354 45.2447 H 0.0 **** 0.053
3889 H3889 57.6728 42.3699 46.6888 H 0.0 **** 0.053
3890 H3890 54.411 44.5805 47.0142 H 0.0 **** 0.053
3891 H3891 55.2893 44.2906 45.492 H 0.0 **** 0.053
3892 H3892 56.1452 44.1883 47.0479 H 0.0 **** 0.053
3893 H3893 52.4551 42.6039 51.1163 H 0.0 **** 0.41
3894 H3894 49.1022 38.1173 49.1388 H 0.0 **** 0.41
3895 H3895 49.1249 48.6979 56.8352 H 0.0 **** 0.053
3896 H3896 50.6258 48.8249 57.7756 H 0.0 **** 0.053
3897 H3897 49.258 47.8824 58.3989 H 0.0 **** 0.053
3898 H3898 52.7209 48.5358 57.0116 H 0.0 **** 0.053
3899 H3899 53.7477 47.1178 57.3275 H 0.0 **** 0.053
3900 H3900 52.5219 47.626 58.5168 H 0.0 **** 0.053
3901 C3901 24.5304 30.5177 16.3265 C.ar 0.0 **** 0.0
3902 C3902 24.9596 29.1783 16.2849 C.ar 0.0 **** 0.0
3903 C3903 26.3247 28.8758 16.4589 C.ar 0.0 **** 0.0
3904 C3904 27.2409 29.9045 16.6892 C.ar 0.0 **** 0.0
3905 C3905 26.8105 31.243 16.7875 C.ar 0.0 **** 0.0
3906 C3906 25.4472 31.5492 16.6265 C.ar 0.0 **** 0.0
3907 C3907 28.7057 29.621 16.8485 C.3 0.0 **** -0.106
3908 C3908 29.1557 28.2104 16.6048 C.ar 0.0 **** 0.0
3909 C3909 28.2621 27.184 16.3949 C.ar 0.0 **** 0.0
3910 C3910 26.777 27.4377 16.3943 C.3 0.0 **** -0.106
3911 C3911 28.7319 25.8518 16.1358 C.ar 0.0 **** 0.0
3912 C3912 30.0916 25.574 16.0382 C.ar 0.0 **** 0.0
3913 C3913 31.0379 26.6203 16.3159 C.ar 0.0 **** 0.0
3914 C3914 30.5604 27.9485 16.5976 C.ar 0.0 **** 0.0
3915 C3915 31.457 28.9786 16.9201 C.ar 0.0 **** -0.1268
3916 C3916 32.8401 28.819 16.8523 C.ar 0.0 **** 0.0
3917 C3917 33.3433 27.5412 16.4056 C.ar 0.0 **** 0.0
3918 C3918 32.4436 26.4474 16.3531 C.ar 0.0 **** 0.042
3919 C3919 34.7088 27.4601 15.9761 C.2 0.0 **** 0.0
3920 C3920 35.5963 28.4951 16.2384 C.2 0.0 **** 0.0
3921 C3921 35.1806 29.6245 17.0217 C.ar 0.0 **** 0.0
3922 C3922 33.7903 29.8394 17.253 C.ar 0.0 **** 0.0
3923 C3923 36.911 28.4262 15.4965 C.3 0.0 **** -0.106
3924 C3924 36.6149 28.212 13.9985 C.ar 0.0 **** -0.053
3925 C3925 35.9021 26.8524 13.7797 C.ar 0.0 **** -0.053
3926 C3926 35.2362 26.3541 15.0916 C.3 0.0 **** -0.106
3927 C3927 33.3873 31.0556 17.9177 C.ar 0.0 **** 0.042
3928 C3928 34.3498 31.9846 18.3802 C.ar 0.0 **** 0.052
3929 C3929 35.7323 31.7316 18.2214 C.ar 0.0 **** 0.052
3930 C3930 36.1479 30.5488 17.5747 C.ar 0.0 **** 0.042
3931 C3931 36.7342 32.6602 18.7082 C.2 0.0 **** 0.367
3932 C3932 36.2743 33.8945 19.3787 C.ar 0.0 **** 0.0
3933 C3933 34.9196 34.1288 19.5083 C.ar 0.0 **** 0.0
3934 C3934 33.9156 33.1865 19.037 C.2 0.0 **** 0.367
3935 C3935 34.4328 35.3739 20.1909 C.3 0.0 **** -0.106
3936 C3936 35.3408 36.5546 19.8583 C.3 0.0 **** -0.106
3937 C3937 36.7771 36.2141 20.1545 C.ar 0.0 **** 0.0
3938 C3938 37.2264 34.8925 19.9122 C.ar 0.0 **** 0.2405
3939 N3939 38.4935 34.512 20.1281 N.ar 0.0 **** -0.481
3940 C3940 39.3826 35.4215 20.5412 C.ar 0.0 **** 0.2405
3941 C3941 39.032 36.7603 20.8175 C.ar 0.0 **** 0.0
3942 C3942 37.6998 37.158 20.6347 C.ar 0.0 **** 0.0
3943 C3943 37.2742 38.5824 20.9197 C.3 0.0 **** -0.106
3944 C3944 38.298 39.3797 21.7351 C.3 0.0 **** -0.106
3945 C3945 39.7091 39.1597 21.1923 C.3 0.0 **** -0.106
3946 C3946 40.1036 37.6904 21.3374 C.3 0.0 **** -0.053
3947 C3947 41.4476 37.3912 20.6708 C.3 0.0 **** -0.106
3948 C3948 41.8189 35.9314 20.7527 C.ar 0.0 **** 0.0
3949 C3949 40.7808 34.9783 20.6939 C.ar 0.0 **** 0.0
3950 C3950 41.094 33.6125 20.7206 C.ar 0.0 **** -0.1268
3951 C3951 42.4207 33.2112 20.8146 C.ar 0.0 **** -0.1268
3952 C3952 43.4684 34.1444 20.8646 C.ar 0.0 **** 0.0
3953 C3953 43.1634 35.5213 20.8201 C.ar 0.0 **** 0.0
3954 C3954 24.9625 32.9793 16.7396 C.3 0.0 **** -0.106
3955 C3955 25.1301 33.756 15.424 C.3 0.0 **** -0.159
3956 C3956 23.0804 30.8477 16.0417 C.3 0.0 **** -0.159
3957 C3957 27.8514 32.3058 17.0497 C.3 0.0 **** -0.159
3958 C3958 23.9586 28.0686 16.0535 C.3 0.0 **** -0.159
3959 C3959 27.7122 24.7538 15.9302 C.3 0.0 **** -0.159
3960 C3960 30.544 24.2192 15.5406 C.3 0.0 **** -0.159
3961 O3961 32.9296 25.1595 16.3911 O.3 0.0 **** -0.452
3962 C3962 36.8138 25.7339 13.2651 C.3 0.0 **** -0.159
3963 C3963 37.8767 28.4104 13.1552 C.3 0.0 **** -0.159
3964 O3964 37.4443 30.2723 17.5087 O.3 0.0 **** -0.452
3965 O3965 32.1045 31.3441 18.1209 O.3 0.0 **** -0.452
3966 O3966 32.6705 33.4364 19.2232 O.2 0.0 **** -0.419
3967 O3967 37.9669 32.4028 18.5325 O.2 0.0 **** -0.419
3968 C3968 44.2605 36.5606 20.8305 C.3 0.0 **** -0.159
3969 C3969 44.8913 33.6514 20.9529 C.3 0.0 **** -0.159
3970 H3970 29.2732 30.2871 16.1752 H 0.0 **** 0.053
3971 H3971 29.0297 29.9349 17.86 H 0.0 **** 0.053
3972 H3972 26.324 26.8852 17.2409 H 0.0 **** 0.053
3973 H3973 26.3407 26.9617 15.4998 H 0.0 **** 0.053
3974 H3974 31.0666 29.929 17.2452 H 0.0 **** 0.1268
3975 H3975 37.5012 29.3334 15.6277 H 0.0 **** 0.053
3976 H3976 37.5305 27.5893 15.8689 H 0.0 **** 0.053
3977 H3977 35.9014 29.0038 13.7171 H 0.0 **** 0.053
3978 H3978 35.0995 27.004 13.0408 H 0.0 **** 0.053
3979 H3979 36.012 25.7976 15.6526 H 0.0 **** 0.053
3980 H3980 34.4604 25.6357 14.8101 H 0.0 **** 0.053
3981 H3981 33.3899 35.5651 19.9084 H 0.0 **** 0.053
3982 H3982 34.4392 35.1988 21.2832 H 0.0 **** 0.053
3983 H3983 35.0152 37.4429 20.4135 H 0.0 **** 0.053
3984 H3984 35.2393 36.801 18.7843 H 0.0 **** 0.053
3985 H3985 37.0924 39.0924 19.9565 H 0.0 **** 0.053
3986 H3986 36.3057 38.5838 21.4435 H 0.0 **** 0.053
3987 H3987 38.2656 39.0487 22.7866 H 0.0 **** 0.053
3988 H3988 38.0289 40.4468 21.7249 H 0.0 **** 0.053
3989 H3989 40.441 39.7942 21.7168 H 0.0 **** 0.053
3990 H3990 39.7433 39.4365 20.1237 H 0.0 **** 0.053
3991 H3991 40.2211 37.4733 22.4183 H 0.0 **** 0.053
3992 H3992 41.3916 37.6969 19.6078 H 0.0 **** 0.053
3993 H3993 42.2187 38.0225 21.1338 H 0.0 **** 0.053
3994 H3994 40.2825 32.8885 20.6473 H 0.0 **** 0.1268
3995 H3995 42.664 32.1467 20.8384 H 0.0 **** 0.1268
3996 H3996 25.5067 33.4965 17.5436 H 0.0 **** 0.053
3997 H3997 23.9068 32.9973 17.0432 H 0.0 **** 0.053
3998 H3998 24.5855 33.2548 14.6092 H 0.0 **** 0.053
3999 H3999 26.1903 33.7984 15.133 H 0.0 **** 0.053
4000 H4000 24.7521 34.7864 15.5127 H 0.0 **** 0.053
4001 H4001 22.6243 30.1078 15.3719 H 0.0 **** 0.053
4002 H4002 22.976 31.8298 15.5624 H 0.0 **** 0.053
4003 H4003 22.4765 30.8692 16.9658 H 0.0 **** 0.053
4004 H4004 28.6023 32.323 16.2425 H 0.0 **** 0.053
4005 H4005 28.4088 32.1003 17.9784 H 0.0 **** 0.053
4006 H4006 27.429 33.3131 17.1237 H 0.0 **** 0.053
4007 H4007 24.3055 27.1112 16.4615 H 0.0 **** 0.053
4008 H4008 23.7675 27.9127 14.9769 H 0.0 **** 0.053
4009 H4009 22.9918 28.2953 16.5228 H 0.0 **** 0.053
4010 H4010 28.0904 23.7816 16.2707 H 0.0 **** 0.053
4011 H4011 27.4363 24.6473 14.8662 H 0.0 **** 0.053
4012 H4012 26.7863 24.9568 16.4822 H 0.0 **** 0.053
4013 H4013 31.3949 24.3213 14.8568 H 0.0 **** 0.053
4014 H4014 29.7388 23.7098 14.9992 H 0.0 **** 0.053
4015 H4015 30.8777 23.5633 16.36 H 0.0 **** 0.053
4016 H4016 33.8579 25.1958 16.6714 H 0.0 **** 0.41
4017 H4017 37.2232 25.9603 12.271 H 0.0 **** 0.053
4018 H4018 36.2554 24.7875 13.1973 H 0.0 **** 0.053
4019 H4019 37.6594 25.5744 13.9531 H 0.0 **** 0.053
4020 H4020 38.276 29.425 13.3016 H 0.0 **** 0.053
4021 H4021 37.6681 28.2771 12.0828 H 0.0 **** 0.053
4022 H4022 38.6632 27.6946 13.4374 H 0.0 **** 0.053
4023 H4023 37.9037 31.1376 17.9371 H 0.0 **** 0.41
4024 H4024 32.1156 32.2787 18.6284 H 0.0 **** 0.41
4025 H4025 44.1165 37.2991 20.0272 H 0.0 **** 0.053
4026 H4026 45.2523 36.1123 20.7016 H 0.0 **** 0.053
4027 H4027 44.2703 37.1224 21.7802 H 0.0 **** 0.053
4028 H4028 45.4828 33.9645 20.0768 H 0.0 **** 0.053
4029 H4029 44.919 32.5545 21.0035 H 0.0 **** 0.053
4030 H4030 45.4042 34.0493 21.8431 H 0.0 **** 0.053
4031 C4031 55.0274 24.8196 22.3217 C.ar 0.0 **** 0.0
4032 C4032 54.2654 25.1772 21.1941 C.ar 0.0 **** 0.0
4033 C4033 54.3509 26.4857 20.6786 C.ar 0.0 **** 0.0
4034 C4034 55.2042 27.4147 21.2783 C.ar 0.0 **** 0.0
4035 C4035 56.0119 27.048 22.3735 C.ar 0.0 **** 0.0
4036 C4036 55.9392 25.7396 22.8845 C.ar 0.0 **** 0.0
4037 C4037 55.2972 28.8249 20.7741 C.3 0.0 **** -0.106
4038 C4038 54.3313 29.2276 19.6987 C.ar 0.0 **** 0.0
4039 C4039 53.4979 28.3182 19.0868 C.ar 0.0 **** 0.0
4040 C4040 53.5158 26.864 19.4801 C.3 0.0 **** -0.106
4041 C4041 52.5657 28.7469 18.0817 C.ar 0.0 **** 0.0
4042 C4042 52.4433 30.0897 17.7392 C.ar 0.0 **** 0.0
4043 C4043 53.3478 31.0427 18.3229 C.ar 0.0 **** 0.0
4044 C4044 54.2955 30.603 19.313 C.ar 0.0 **** 0.0
4045 C4045 55.2231 31.4998 19.8645 C.ar 0.0 **** -0.1268
4046 C4046 55.1944 32.8678 19.5993 C.ar 0.0 **** 0.0
4047 C4047 54.143 33.359 18.7396 C.ar 0.0 **** 0.0
4048 C4048 53.3991 32.4177 17.9851 C.ar 0.0 **** 0.042
4049 C4049 53.8621 34.765 18.7433 C.2 0.0 **** 0.0
4050 C4050 54.7428 35.6615 19.3337 C.2 0.0 **** 0.0
4051 C4051 55.9918 35.2014 19.8724 C.ar 0.0 **** 0.0
4052 C4052 56.185 33.806 20.0925 C.ar 0.0 **** 0.0
4053 C4053 54.2094 37.0619 19.5286 C.3 0.0 **** -0.106
4054 C4054 52.8386 36.9687 20.2284 C.ar 0.0 **** -0.053
4055 C4055 51.8232 36.2211 19.3259 C.ar 0.0 **** -0.053
4056 C4056 52.5533 35.351 18.2665 C.3 0.0 **** -0.106
4057 C4057 57.3878 33.3799 20.7671 C.ar 0.0 **** 0.042
4058 C4058 58.3777 34.3166 21.1492 C.ar 0.0 **** 0.052
4059 C4059 58.2213 35.6918 20.8585 C.ar 0.0 **** 0.052
4060 C4060 57.0533 36.1297 20.1995 C.ar 0.0 **** 0.042
4061 C4061 59.2341 36.664 21.2218 C.2 0.0 **** 0.367
4062 C4062 60.4471 36.1818 21.9151 C.ar 0.0 **** 0.0
4063 C4063 60.5714 34.8371 22.2035 C.ar 0.0 **** 0.0
4064 C4064 59.5632 33.8599 21.8205 C.2 0.0 **** 0.367
4065 C4065 61.7981 34.3272 22.9022 C.3 0.0 **** -0.106
4066 C4066 62.2778 35.3357 23.9424 C.3 0.0 **** -0.106
4067 C4067 62.4477 36.6953 23.3186 C.ar 0.0 **** 0.0
4068 C4068 61.5336 37.1019 22.3154 C.ar 0.0 **** 0.2405
4069 N4069 61.6005 38.3034 21.7248 N.ar 0.0 **** -0.481
4070 C4070 62.5327 39.1734 22.1279 C.ar 0.0 **** 0.2405
4071 C4071 63.4928 38.8605 23.1138 C.ar 0.0 **** 0.0
4072 C4072 63.4572 37.5909 23.708 C.ar 0.0 **** 0.0
4073 C4073 64.4668 37.2072 24.7685 C.3 0.0 **** -0.106
4074 C4074 65.6749 38.1476 24.8377 C.3 0.0 **** -0.106
4075 C4075 65.2261 39.6071 24.7852 C.3 0.0 **** -0.106
4076 C4076 64.5395 39.897 23.4511 C.3 0.0 **** -0.053
4077 C4077 63.9388 41.3033 23.4115 C.3 0.0 **** -0.106
4078 C4078 63.2038 41.5797 22.1233 C.ar 0.0 **** 0.0
4079 C4079 62.5234 40.51 21.5048 C.ar 0.0 **** 0.0
4080 C4080 61.7923 40.7418 20.3319 C.ar 0.0 **** -0.1268
4081 C4081 61.7529 42.0183 19.785 C.ar 0.0 **** -0.1268
4082 C4082 62.4156 43.0976 20.3909 C.ar 0.0 **** 0.0
4083 C4083 63.1392 42.877 21.5819 C.ar 0.0 **** 0.0
4084 C4084 56.8068 25.322 24.0533 C.3 0.0 **** -0.106
4085 C4085 56.19 25.7152 25.405 C.3 0.0 **** -0.159
4086 C4086 54.8599 23.4443 22.9323 C.3 0.0 **** -0.159
4087 C4087 56.9214 28.0976 22.9676 C.3 0.0 **** -0.159
4088 C4088 53.3577 24.1601 20.5393 C.3 0.0 **** -0.159
4089 C4089 51.6843 27.7083 17.4244 C.3 0.0 **** -0.159
4090 C4090 51.302 30.5336 16.8514 C.3 0.0 **** -0.159
4091 O4091 52.7364 32.823 16.8482 O.3 0.0 **** -0.452
4092 C4092 50.842 37.1343 18.5839 C.3 0.0 **** -0.159
4093 C4093 52.3706 38.3456 20.7056 C.3 0.0 **** -0.159
4094 O4094 56.9519 37.4056 19.8483 O.3 0.0 **** -0.452
4095 O4095 57.6092 32.0988 21.0498 O.3 0.0 **** -0.452
4096 O4096 59.7519 32.6164 22.0763 O.2 0.0 **** -0.419
4097 O4097 59.0487 37.8934 20.9555 O.2 0.0 **** -0.419
4098 C4098 63.8345 44.0164 22.2907 C.3 0.0 **** -0.159
4099 C4099 62.3273 44.465 19.7601 C.3 0.0 **** -0.159
4100 H4100 55.1759 29.5169 21.6258 H 0.0 **** 0.053
4101 H4101 56.33 29.0196 20.4248 H 0.0 **** 0.053
4102 H4102 53.8532 26.2669 18.6102 H 0.0 **** 0.053
4103 H4103 52.4765 26.5329 19.6453 H 0.0 **** 0.053
4104 H4104 55.9979 31.1195 20.51 H 0.0 **** 0.1268
4105 H4105 54.8846 37.676 20.1247 H 0.0 **** 0.053
4106 H4106 54.0885 37.5764 18.5572 H 0.0 **** 0.053
4107 H4107 53.0001 36.3459 21.1236 H 0.0 **** 0.053
4108 H4108 51.238 35.5401 19.9637 H 0.0 **** 0.053
4109 H4109 52.7598 36.0086 17.3998 H 0.0 **** 0.053
4110 H4110 51.8473 34.5848 17.9322 H 0.0 **** 0.053
4111 H4111 61.5879 33.3464 23.3471 H 0.0 **** 0.053
4112 H4112 62.5907 34.1701 22.1466 H 0.0 **** 0.053
4113 H4113 63.2106 34.9838 24.4 H 0.0 **** 0.053
4114 H4114 61.5328 35.4001 24.758 H 0.0 **** 0.053
4115 H4115 63.9559 37.1909 25.7482 H 0.0 **** 0.053
4116 H4116 64.8129 36.1762 24.5973 H 0.0 **** 0.053
4117 H4117 66.3419 37.9495 23.982 H 0.0 **** 0.053
4118 H4118 66.2528 37.9409 25.7512 H 0.0 **** 0.053
4119 H4119 66.079 40.2911 24.9202 H 0.0 **** 0.053
4120 H4120 64.5144 39.8065 25.6058 H 0.0 **** 0.053
4121 H4121 65.3083 39.849 22.6536 H 0.0 **** 0.053
4122 H4122 63.2404 41.4143 24.2638 H 0.0 **** 0.053
4123 H4123 64.7428 42.0346 23.5733 H 0.0 **** 0.053
4124 H4124 61.25 39.9108 19.881 H 0.0 **** 0.1268
4125 H4125 61.1853 42.1978 18.8693 H 0.0 **** 0.1268
4126 H4126 57.8048 25.7747 23.9591 H 0.0 **** 0.053
4127 H4127 56.9751 24.2367 24.0298 H 0.0 **** 0.053
4128 H4128 55.1922 25.2645 25.5184 H 0.0 **** 0.053
4129 H4129 56.0668 26.8065 25.4703 H 0.0 **** 0.053
4130 H4130 56.8185 25.3849 26.2467 H 0.0 **** 0.053
4131 H4131 53.8516 23.0477 22.7579 H 0.0 **** 0.053
4132 H4132 55.0201 23.4619 24.0182 H 0.0 **** 0.053
4133 H4133 55.5754 22.7182 22.508 H 0.0 **** 0.053
4134 H4134 56.3359 28.9546 23.3398 H 0.0 **** 0.053
4135 H4135 57.6099 28.5066 22.21 H 0.0 **** 0.053
4136 H4136 57.5209 27.7242 23.8041 H 0.0 **** 0.053
4137 H4137 53.1739 24.3937 19.4833 H 0.0 **** 0.053
4138 H4138 52.3733 24.1145 21.038 H 0.0 **** 0.053
4139 H4139 53.7881 23.1506 20.583 H 0.0 **** 0.053
4140 H4140 51.4395 27.9815 16.3902 H 0.0 **** 0.053
4141 H4141 50.7311 27.5797 17.9671 H 0.0 **** 0.053
4142 H4142 52.1721 26.7262 17.3974 H 0.0 **** 0.053
4143 H4143 50.8743 31.4767 17.2116 H 0.0 **** 0.053
4144 H4144 50.5006 29.7862 16.8374 H 0.0 **** 0.053
4145 H4145 51.6251 30.7124 15.8138 H 0.0 **** 0.053
4146 H4146 53.065 33.7031 16.6052 H 0.0 **** 0.41
4147 H4147 50.1943 37.6914 19.2747 H 0.0 **** 0.053
4148 H4148 50.1989 36.5405 17.9161 H 0.0 **** 0.053
4149 H4149 51.3848 37.8646 17.9626 H 0.0 **** 0.053
4150 H4150 53.1033 38.7747 21.405 H 0.0 **** 0.053
4151 H4151 51.401 38.2833 21.2225 H 0.0 **** 0.053
4152 H4152 52.2594 39.0445 19.8631 H 0.0 **** 0.053
4153 H4153 57.8348 37.8462 20.2601 H 0.0 **** 0.41
4154 H4154 58.5581 32.0889 21.53 H 0.0 **** 0.41
4155 H4155 63.5878 44.0273 23.3633 H 0.0 **** 0.053
4156 H4156 63.5577 44.9907 21.8719 H 0.0 **** 0.053
4157 H4157 64.9315 43.9227 22.2182 H 0.0 **** 0.053
4158 H4158 61.841 45.1901 20.4332 H 0.0 **** 0.053
4159 H4159 61.7449 44.4258 18.8297 H 0.0 **** 0.053
4160 H4160 63.3252 44.8681 19.5239 H 0.0 **** 0.053
4161 C4161 41.2654 -0.149316 24.9513 C.ar 0.0 **** 0.0
4162 C4162 42.6562 -0.111294 24.7412 C.ar 0.0 **** 0.0
4163 C4163 43.4625 0.717528 25.5463 C.ar 0.0 **** 0.0
4164 C4164 42.8797 1.48255 26.5592 C.ar 0.0 **** 0.0
4165 C4165 41.4952 1.40749 26.8117 C.ar 0.0 **** 0.0
4166 C4166 40.6874 0.572556 26.0187 C.ar 0.0 **** 0.0
4167 C4167 43.7042 2.39863 27.4151 C.3 0.0 **** -0.106
4168 C4168 45.1475 2.56397 27.0396 C.ar 0.0 **** 0.0
4169 C4169 45.7388 1.8033 26.0558 C.ar 0.0 **** 0.0
4170 C4170 44.9506 0.764728 25.3008 C.3 0.0 **** -0.106
4171 C4171 47.1157 2.01095 25.7042 C.ar 0.0 **** 0.0
4172 C4172 47.8692 3.01373 26.306 C.ar 0.0 **** 0.0
4173 C4173 47.2864 3.77488 27.3775 C.ar 0.0 **** 0.0
4174 C4174 45.9125 3.54627 27.7409 C.ar 0.0 **** 0.0
4175 C4175 45.3307 4.23865 28.8137 C.ar 0.0 **** -0.1268
4176 C4176 45.987 5.26671 29.4885 C.ar 0.0 **** 0.0
4177 C4177 47.3069 5.63048 29.0289 C.ar 0.0 **** 0.0
4178 C4178 47.9742 4.75001 28.1412 C.ar 0.0 **** 0.042
4179 C4179 47.847 6.893 29.4413 C.2 0.0 **** 0.0
4180 C4180 47.251 7.61795 30.4646 C.2 0.0 **** 0.0
4181 C4181 46.1354 7.07138 31.1846 C.ar 0.0 **** 0.0
4182 C4182 45.4421 5.94682 30.6483 C.ar 0.0 **** 0.0
4183 C4183 47.7287 9.04393 30.6128 C.3 0.0 **** -0.106
4184 C4184 47.6612 9.72692 29.2321 C.ar 0.0 **** -0.053
4185 C4185 48.6261 9.02936 28.2388 C.ar 0.0 **** -0.053
4186 C4186 48.9723 7.5916 28.7137 C.3 0.0 **** -0.106
4187 C4187 44.239 5.50469 31.3118 C.ar 0.0 **** 0.042
4188 C4188 43.7894 6.13385 32.4973 C.ar 0.0 **** 0.052
4189 C4189 44.5221 7.19788 33.0728 C.ar 0.0 **** 0.052
4190 C4190 45.7011 7.64552 32.4406 C.ar 0.0 **** 0.042
4191 C4191 44.0901 7.84064 34.2988 C.2 0.0 **** 0.367
4192 C4192 42.8496 7.35696 34.9405 C.ar 0.0 **** 0.0
4193 C4193 42.1414 6.32768 34.3524 C.ar 0.0 **** 0.0
4194 C4194 42.5869 5.67039 33.1327 C.2 0.0 **** 0.367
4195 C4195 40.8821 5.81889 34.9916 C.3 0.0 **** -0.106
4196 C4196 40.0981 6.96962 35.6162 C.3 0.0 **** -0.106
4197 C4197 40.9785 7.76479 36.5431 C.ar 0.0 **** 0.0
4198 C4198 42.3398 7.94906 36.1961 C.ar 0.0 **** 0.2405
4199 N4199 43.1858 8.6611 36.9539 N.ar 0.0 **** -0.481
4200 C4200 42.7216 9.26297 38.0542 C.ar 0.0 **** 0.2405
4201 C4201 41.3849 9.1339 38.488 C.ar 0.0 **** 0.0
4202 C4202 40.5022 8.35671 37.7244 C.ar 0.0 **** 0.0
4203 C4203 39.0595 8.18622 38.1495 C.3 0.0 **** -0.106
4204 C4204 38.7905 8.60668 39.5985 C.3 0.0 **** -0.106
4205 C4205 39.464 9.94311 39.9062 C.3 0.0 **** -0.106
4206 C4206 40.9809 9.80744 39.779 C.3 0.0 **** -0.053
4207 C4207 41.6896 11.1548 39.9295 C.3 0.0 **** -0.106
4208 C4208 43.1826 11.0443 39.7439 C.ar 0.0 **** 0.0
4209 C4209 43.6679 10.0976 38.8176 C.ar 0.0 **** 0.0
4210 C4210 45.0467 10.0006 38.5865 C.ar 0.0 **** -0.1268
4211 C4211 45.9216 10.8293 39.2779 C.ar 0.0 **** -0.1268
4212 C4212 45.4573 11.784 40.1966 C.ar 0.0 **** 0.0
4213 C4213 44.0694 11.901 40.4221 C.ar 0.0 **** 0.0
4214 C4214 39.1996 0.468871 26.2808 C.3 0.0 **** -0.106
4215 C4215 38.4104 1.60447 25.6102 C.3 0.0 **** -0.159
4216 C4216 40.3906 -0.964213 24.0222 C.3 0.0 **** -0.159
4217 C4217 40.9307 2.25212 27.9297 C.3 0.0 **** -0.159
4218 C4218 43.2819 -0.956642 23.6546 C.3 0.0 **** -0.159
4219 C4219 47.7263 1.13799 24.6305 C.3 0.0 **** -0.159
4220 C4220 49.2358 3.35472 25.7548 C.3 0.0 **** -0.159
4221 O4221 49.3469 4.79126 28.0402 O.3 0.0 **** -0.452
4222 C4222 49.9446 9.77423 28.0064 C.3 0.0 **** -0.159
4223 C4223 47.8621 11.2391 29.3567 C.3 0.0 **** -0.159
4224 O4224 46.4331 8.58185 33.0315 O.3 0.0 **** -0.452
4225 O4225 43.5151 4.49415 30.8374 O.3 0.0 **** -0.452
4226 O4226 41.911 4.68971 32.6544 O.2 0.0 **** -0.419
4227 O4227 44.7694 8.80382 34.7759 O.2 0.0 **** -0.419
4228 C4228 43.5217 12.9414 41.3714 C.3 0.0 **** -0.159
4229 C4229 46.4521 12.6665 40.9089 C.3 0.0 **** -0.159
4230 H4230 43.2325 3.39676 27.4264 H 0.0 **** 0.053
4231 H4231 43.64 2.0676 28.47 H 0.0 **** 0.053
4232 H4232 45.3782 -0.232981 25.522 H 0.0 **** 0.053
4233 H4233 45.1343 0.901571 24.2216 H 0.0 **** 0.053
4234 H4234 44.3422 3.96072 29.141 H 0.0 **** 0.1268
4235 H4235 47.126 9.60337 31.3287 H 0.0 **** 0.053
4236 H4236 48.7699 9.07436 30.9841 H 0.0 **** 0.053
4237 H4237 46.6357 9.55907 28.8637 H 0.0 **** 0.053
4238 H4238 48.1106 8.94003 27.2695 H 0.0 **** 0.053
4239 H4239 49.8328 7.6817 29.4049 H 0.0 **** 0.053
4240 H4240 49.3161 7.03349 27.8377 H 0.0 **** 0.053
4241 H4241 40.2874 5.27149 34.2495 H 0.0 **** 0.053
4242 H4242 41.1586 5.09056 35.7771 H 0.0 **** 0.053
4243 H4243 39.2148 6.57938 36.1367 H 0.0 **** 0.053
4244 H4244 39.7223 7.63229 34.8137 H 0.0 **** 0.053
4245 H4245 38.422 8.77944 37.4693 H 0.0 **** 0.053
4246 H4246 38.7507 7.13899 38.0074 H 0.0 **** 0.053
4247 H4247 39.1921 7.84011 40.2822 H 0.0 **** 0.053
4248 H4248 37.7052 8.6577 39.7736 H 0.0 **** 0.053
4249 H4249 39.2063 10.2955 40.9176 H 0.0 **** 0.053
4250 H4250 39.1114 10.7095 39.1936 H 0.0 **** 0.053
4251 H4251 41.3364 9.15884 40.6051 H 0.0 **** 0.053
4252 H4252 41.2772 11.8576 39.1795 H 0.0 **** 0.053
4253 H4253 41.4431 11.5744 40.9147 H 0.0 **** 0.053
4254 H4254 45.4039 9.28284 37.8481 H 0.0 **** 0.1268
4255 H4255 46.9963 10.7513 39.0996 H 0.0 **** 0.1268
4256 H4256 39.0088 0.478521 27.364 H 0.0 **** 0.053
4257 H4257 38.8204 -0.499307 25.9262 H 0.0 **** 0.053
4258 H4258 38.5852 1.60502 24.5234 H 0.0 **** 0.053
4259 H4259 38.737 2.58171 25.9959 H 0.0 **** 0.053
4260 H4260 37.3284 1.50387 25.7884 H 0.0 **** 0.053
4261 H4261 40.8335 -1.04472 23.0214 H 0.0 **** 0.053
4262 H4262 39.3967 -0.513275 23.9038 H 0.0 **** 0.053
4263 H4263 40.2406 -1.9917 24.3977 H 0.0 **** 0.053
4264 H4264 41.1119 3.32276 27.7384 H 0.0 **** 0.053
4265 H4265 41.424 2.02765 28.8897 H 0.0 **** 0.053
4266 H4266 39.852 2.12282 28.0644 H 0.0 **** 0.053
4267 H4267 44.3362 -1.17759 23.8623 H 0.0 **** 0.053
4268 H4268 43.2433 -0.45022 22.6738 H 0.0 **** 0.053
4269 H4269 42.7605 -1.91675 23.5421 H 0.0 **** 0.053
4270 H4270 48.7989 0.979675 24.7993 H 0.0 **** 0.053
4271 H4271 47.6118 1.5851 23.6272 H 0.0 **** 0.053
4272 H4272 47.2504 0.150281 24.5969 H 0.0 **** 0.053
4273 H4273 49.3888 4.44032 25.7408 H 0.0 **** 0.053
4274 H4274 49.3492 2.98741 24.7285 H 0.0 **** 0.053
4275 H4275 50.0496 2.93172 26.3645 H 0.0 **** 0.053
4276 H4276 49.6888 5.30723 28.7875 H 0.0 **** 0.41
4277 H4277 49.7861 10.759 27.5457 H 0.0 **** 0.053
4278 H4278 50.6017 9.18911 27.3447 H 0.0 **** 0.053
4279 H4279 50.4782 9.92583 28.9584 H 0.0 **** 0.053
4280 H4280 47.0908 11.6724 30.0106 H 0.0 **** 0.053
4281 H4281 47.7967 11.7351 28.3765 H 0.0 **** 0.053
4282 H4282 48.8447 11.4777 29.7905 H 0.0 **** 0.053
4283 H4283 45.8509 8.84651 33.8884 H 0.0 **** 0.41
4284 H4284 42.7099 4.39333 31.5249 H 0.0 **** 0.41
4285 H4285 42.7041 13.5132 40.9064 H 0.0 **** 0.053
4286 H4286 44.2918 13.6535 41.6893 H 0.0 **** 0.053
4287 H4287 43.1053 12.4742 42.2802 H 0.0 **** 0.053
4288 H4288 46.2937 13.7306 40.6679 H 0.0 **** 0.053
4289 H4289 47.4789 12.4048 40.6199 H 0.0 **** 0.053
4290 H4290 46.3683 12.5711 42.0033 H 0.0 **** 0.053
4291 C4291 26.517 -1.37183 54.653 C.ar 0.0 **** 0.0
4292 C4292 27.5137 -0.41864 54.9323 C.ar 0.0 **** 0.0
4293 C4293 27.2714 0.586355 55.8897 C.ar 0.0 **** 0.0
4294 C4294 26.0512 0.620262 56.5685 C.ar 0.0 **** 0.0
4295 C4295 25.0697 -0.36372 56.3343 C.ar 0.0 **** 0.0
4296 C4296 25.3112 -1.37621 55.3883 C.ar 0.0 **** 0.0
4297 C4297 25.7483 1.69399 57.572 C.3 0.0 **** -0.106
4298 C4298 26.7497 2.80367 57.7035 C.ar 0.0 **** 0.0
4299 C4299 27.9637 2.7736 57.0544 C.ar 0.0 **** 0.0
4300 C4300 28.34 1.61453 56.1685 C.3 0.0 **** -0.106
4301 C4301 28.8843 3.86862 57.1816 C.ar 0.0 **** 0.0
4302 C4302 28.5557 5.00392 57.9155 C.ar 0.0 **** 0.0
4303 C4303 27.3196 5.02523 58.6495 C.ar 0.0 **** 0.0
4304 C4304 26.4111 3.91455 58.5361 C.ar 0.0 **** 0.0
4305 C4305 25.2203 3.88468 59.2777 C.ar 0.0 **** -0.1268
4306 C4306 24.7855 4.9647 60.0441 C.ar 0.0 **** 0.0
4307 C4307 25.5986 6.15822 60.0371 C.ar 0.0 **** 0.0
4308 C4308 26.9131 6.07106 59.5145 C.ar 0.0 **** 0.042
4309 C4309 25.0129 7.38321 60.4976 C.2 0.0 **** 0.0
4310 C4310 23.8067 7.37691 61.1851 C.2 0.0 **** 0.0
4311 C4311 23.1716 6.13387 61.522 C.ar 0.0 **** 0.0
4312 C4312 23.6007 4.9349 60.8808 C.ar 0.0 **** 0.0
4313 C4313 23.1541 8.72827 61.3629 C.3 0.0 **** -0.106
4314 C4314 23.0949 9.42576 59.9891 C.ar 0.0 **** -0.053
4315 C4315 24.5273 9.68375 59.4542 C.ar 0.0 **** -0.053
4316 C4316 25.5574 8.74778 60.1437 C.3 0.0 **** -0.106
4317 C4317 22.855 3.72358 61.1255 C.ar 0.0 **** 0.042
4318 C4318 21.7609 3.71225 62.0235 C.ar 0.0 **** 0.052
4319 C4319 21.3863 4.88463 62.7202 C.ar 0.0 **** 0.052
4320 C4320 22.102 6.07943 62.496 C.ar 0.0 **** 0.042
4321 C4321 20.2827 4.88803 63.661 C.2 0.0 **** 0.367
4322 C4322 19.5454 3.62528 63.8761 C.ar 0.0 **** 0.0
4323 C4323 19.918 2.49673 63.1729 C.ar 0.0 **** 0.0
4324 C4324 21.0384 2.49 62.244 C.2 0.0 **** 0.367
4325 C4325 19.1851 1.20355 63.3814 C.3 0.0 **** -0.106
4326 C4326 17.6962 1.46232 63.5942 C.3 0.0 **** -0.106
4327 C4327 17.4885 2.46936 64.6938 C.ar 0.0 **** 0.0
4328 C4328 18.4122 3.53599 64.8221 C.ar 0.0 **** 0.2405
4329 N4329 18.2885 4.48656 65.7592 N.ar 0.0 **** -0.481
4330 C4330 17.2292 4.45948 66.5749 C.ar 0.0 **** 0.2405
4331 C4331 16.2589 3.4356 66.5314 C.ar 0.0 **** 0.0
4332 C4332 16.4018 2.41362 65.582 C.ar 0.0 **** 0.0
4333 C4333 15.3886 1.2923 65.4975 C.3 0.0 **** -0.106
4334 C4334 14.4724 1.1964 66.7224 C.3 0.0 **** -0.106
4335 C4335 13.963 2.57954 67.1245 C.3 0.0 **** -0.106
4336 C4336 15.134 3.46936 67.5399 C.3 0.0 **** -0.053
4337 C4337 14.6909 4.90916 67.8062 C.3 0.0 **** -0.106
4338 C4338 15.8474 5.81226 68.1565 C.ar 0.0 **** 0.0
4339 C4339 17.0924 5.56526 67.541 C.ar 0.0 **** 0.0
4340 C4340 18.1759 6.41295 67.8083 C.ar 0.0 **** -0.1268
4341 C4341 18.0166 7.48048 68.6831 C.ar 0.0 **** -0.1268
4342 C4342 16.7832 7.74822 69.298 C.ar 0.0 **** 0.0
4343 C4343 15.6821 6.91062 69.0206 C.ar 0.0 **** 0.0
4344 C4344 24.2745 -2.44935 55.13 C.3 0.0 **** -0.106
4345 C4345 23.1996 -1.99132 54.1317 C.3 0.0 **** -0.159
4346 C4346 26.7421 -2.38973 53.555 C.3 0.0 **** -0.159
4347 C4347 23.7769 -0.275676 57.1107 C.3 0.0 **** -0.159
4348 C4348 28.8391 -0.473222 54.2064 C.3 0.0 **** -0.159
4349 C4349 30.2134 3.78152 56.465 C.3 0.0 **** -0.159
4350 C4350 29.4447 6.22539 57.841 C.3 0.0 **** -0.159
4351 O4351 27.8609 6.99706 59.8892 O.3 0.0 **** -0.452
4352 C4352 25.0183 11.1248 59.6256 C.3 0.0 **** -0.159
4353 C4353 22.2033 10.6687 60.0419 C.3 0.0 **** -0.159
4354 O4354 21.8057 7.15292 63.2181 O.3 0.0 **** -0.452
4355 O4355 23.1689 2.58037 60.5216 O.3 0.0 **** -0.452
4356 O4356 21.367 1.40051 61.6504 O.2 0.0 **** -0.419
4357 O4357 19.9683 5.96675 64.2562 O.2 0.0 **** -0.419
4358 C4358 14.3256 7.18418 69.6278 C.3 0.0 **** -0.159
4359 C4359 16.6644 8.92935 70.2288 C.3 0.0 **** -0.159
4360 H4360 24.7668 2.13935 57.3324 H 0.0 **** 0.053
4361 H4361 25.589 1.23018 58.565 H 0.0 **** 0.053
4362 H4362 29.2177 1.1028 56.6102 H 0.0 **** 0.053
4363 H4363 28.7162 2.01305 55.211 H 0.0 **** 0.053
4364 H4364 24.6203 2.98949 59.2676 H 0.0 **** 0.1268
4365 H4365 22.1484 8.64427 61.7753 H 0.0 **** 0.053
4366 H4366 23.7327 9.35604 62.0658 H 0.0 **** 0.053
4367 H4367 22.6163 8.70449 59.3063 H 0.0 **** 0.053
4368 H4368 24.5367 9.44697 58.3785 H 0.0 **** 0.053
4369 H4369 25.872 9.25182 61.0782 H 0.0 **** 0.053
4370 H4370 26.4348 8.69364 59.4923 H 0.0 **** 0.053
4371 H4371 19.3686 0.53477 62.5311 H 0.0 **** 0.053
4372 H4372 19.6049 0.704093 64.2748 H 0.0 **** 0.053
4373 H4373 17.1812 0.51826 63.8108 H 0.0 **** 0.053
4374 H4374 17.2565 1.85174 62.6564 H 0.0 **** 0.053
4375 H4375 14.7762 1.442 64.59 H 0.0 **** 0.053
4376 H4376 15.9071 0.332253 65.3504 H 0.0 **** 0.053
4377 H4377 15.0353 0.765073 67.567 H 0.0 **** 0.053
4378 H4378 13.6384 0.5113 66.5077 H 0.0 **** 0.053
4379 H4379 13.2368 2.51202 67.95 H 0.0 **** 0.053
4380 H4380 13.443 3.04678 66.2695 H 0.0 **** 0.053
4381 H4381 15.5431 3.07359 68.4914 H 0.0 **** 0.053
4382 H4382 14.1833 5.29663 66.9013 H 0.0 **** 0.053
4383 H4383 13.9367 4.90362 68.6053 H 0.0 **** 0.053
4384 H4384 19.1238 6.22479 67.3042 H 0.0 **** 0.1268
4385 H4385 18.8621 8.13908 68.8933 H 0.0 **** 0.1268
4386 H4386 23.7963 -2.74315 56.076 H 0.0 **** 0.053
4387 H4387 24.7597 -3.36007 54.7531 H 0.0 **** 0.053
4388 H4388 23.6613 -1.69951 53.176 H 0.0 **** 0.053
4389 H4389 22.6625 -1.1126 54.5188 H 0.0 **** 0.053
4390 H4390 22.4661 -2.78856 53.9345 H 0.0 **** 0.053
4391 H4391 27.414 -2.00142 52.7791 H 0.0 **** 0.053
4392 H4392 25.8012 -2.66769 53.0624 H 0.0 **** 0.053
4393 H4393 27.1939 -3.31882 53.9446 H 0.0 **** 0.053
4394 H4394 23.2603 0.675396 56.9003 H 0.0 **** 0.053
4395 H4395 23.9607 -0.287101 58.1977 H 0.0 **** 0.053
4396 H4396 23.0781 -1.08524 56.8766 H 0.0 **** 0.053
4397 H4397 29.6428 0.00128799 54.783 H 0.0 **** 0.053
4398 H4398 28.7896 0.0441717 53.2319 H 0.0 **** 0.053
4399 H4399 29.1452 -1.50884 54.0061 H 0.0 **** 0.053
4400 H4400 31.0008 4.32116 57.0062 H 0.0 **** 0.053
4401 H4401 30.1575 4.20951 55.4485 H 0.0 **** 0.053
4402 H4402 30.544 2.74128 56.3565 H 0.0 **** 0.053
4403 H4403 28.8431 7.1403 57.7852 H 0.0 **** 0.053
4404 H4404 30.0861 6.19176 56.953 H 0.0 **** 0.053
4405 H4405 30.0889 6.32791 58.7283 H 0.0 **** 0.053
4406 H4406 27.5226 7.47963 60.6601 H 0.0 **** 0.41
4407 H4407 24.4093 11.8386 59.0539 H 0.0 **** 0.053
4408 H4408 26.0613 11.2155 59.2848 H 0.0 **** 0.053
4409 H4409 24.986 11.4228 60.6858 H 0.0 **** 0.053
4410 H4410 21.1838 10.3923 60.3494 H 0.0 **** 0.053
4411 H4411 22.1419 11.161 59.0595 H 0.0 **** 0.053
4412 H4412 22.5855 11.4048 60.7647 H 0.0 **** 0.053
4413 H4413 20.9627 6.83748 63.7953 H 0.0 **** 0.41
4414 H4414 22.4654 1.87588 60.8958 H 0.0 **** 0.41
4415 H4415 13.5358 7.16699 68.8614 H 0.0 **** 0.053
4416 H4416 14.2882 8.15891 70.1276 H 0.0 **** 0.053
4417 H4417 14.0597 6.41697 70.375 H 0.0 **** 0.053
4418 H4418 15.9345 9.66639 69.8555 H 0.0 **** 0.053
4419 H4419 17.6322 9.43774 70.3353 H 0.0 **** 0.053
4420 H4420 16.3249 8.62338 71.2314 H 0.0 **** 0.053
4421 C4421 34.8257 54.7161 32.2434 C.ar 0.0 **** 0.0
4422 C4422 35.4219 53.544 32.7441 C.ar 0.0 **** 0.0
4423 C4423 34.658 52.6453 33.5148 C.ar 0.0 **** 0.0
4424 C4424 33.3099 52.9135 33.7625 C.ar 0.0 **** 0.0
4425 C4425 32.6918 54.0571 33.2179 C.ar 0.0 **** 0.0
4426 C4426 33.4468 54.9514 32.4378 C.ar 0.0 **** 0.0
4427 C4427 32.475 51.9938 34.6043 C.3 0.0 **** -0.106
4428 C4428 33.1863 50.8601 35.2828 C.ar 0.0 **** 0.0
4429 C4429 34.5099 50.5737 35.0335 C.ar 0.0 **** 0.0
4430 C4430 35.3118 51.4004 34.0623 C.3 0.0 **** -0.106
4431 C4431 35.1644 49.4982 35.7247 C.ar 0.0 **** 0.0
4432 C4432 34.4996 48.756 36.6956 C.ar 0.0 **** 0.0
4433 C4433 33.1013 49.0009 36.9233 C.ar 0.0 **** 0.0
4434 C4434 32.445 50.0654 36.2107 C.ar 0.0 **** 0.0
4435 C4435 31.071 50.297 36.3755 C.ar 0.0 **** -0.1268
4436 C4436 30.3031 49.6191 37.3208 C.ar 0.0 **** 0.0
4437 C4437 30.9781 48.6639 38.168 C.ar 0.0 **** 0.0
4438 C4438 32.2841 48.2508 37.8047 C.ar 0.0 **** 0.042
4439 C4439 30.3197 48.2332 39.3666 C.2 0.0 **** 0.0
4440 C4440 28.973 48.5024 39.5708 C.2 0.0 **** 0.0
4441 C4441 28.1982 49.1402 38.5438 C.ar 0.0 **** 0.0
4442 C4442 28.8682 49.7814 37.461 C.ar 0.0 **** 0.0
4443 C4443 28.4682 48.2586 40.9741 C.3 0.0 **** -0.106
4444 C4444 29.4123 48.9717 41.9629 C.ar 0.0 **** -0.053
4445 C4445 30.8355 48.3614 41.8835 C.ar 0.0 **** -0.053
4446 C4446 31.0486 47.6158 40.5376 C.3 0.0 **** -0.106
4447 C4447 28.0783 50.5384 36.5196 C.ar 0.0 **** 0.042
4448 C4448 26.6686 50.5957 36.6339 C.ar 0.0 **** 0.052
4449 C4449 25.9983 49.8931 37.6621 C.ar 0.0 **** 0.052
4450 C4450 26.7514 49.1469 38.5928 C.ar 0.0 **** 0.042
4451 C4451 24.5534 49.9212 37.7828 C.2 0.0 **** 0.367
4452 C4452 23.7864 50.7132 36.7986 C.ar 0.0 **** 0.0
4453 C4453 24.4626 51.4046 35.8128 C.ar 0.0 **** 0.0
4454 C4454 25.9113 51.3593 35.681 C.2 0.0 **** 0.367
4455 C4455 23.7012 52.2102 34.8008 C.3 0.0 **** -0.106
4456 C4456 22.492 52.8775 35.4502 C.3 0.0 **** -0.106
4457 C4457 21.6561 51.8587 36.1781 C.ar 0.0 **** 0.0
4458 C4458 22.3102 50.7916 36.8419 C.ar 0.0 **** 0.2405
4459 N4459 21.6427 49.8551 37.5306 N.ar 0.0 **** -0.481
4460 C4460 20.3135 49.9539 37.6394 C.ar 0.0 **** 0.2405
4461 C4461 19.5703 50.9747 37.0091 C.ar 0.0 **** 0.0
4462 C4462 20.2555 51.9355 36.2517 C.ar 0.0 **** 0.0
4463 C4463 19.5027 53.0485 35.5549 C.3 0.0 **** -0.106
4464 C4464 17.9928 52.8043 35.458 C.3 0.0 **** -0.106
4465 C4465 17.4404 52.3059 36.7925 C.3 0.0 **** -0.106
4466 C4466 18.0657 50.9576 37.1482 C.3 0.0 **** -0.053
4467 C4467 17.6582 50.4901 38.5466 C.3 0.0 **** -0.106
4468 C4468 18.3185 49.1903 38.9346 C.ar 0.0 **** 0.0
4469 C4469 19.627 48.9455 38.4681 C.ar 0.0 **** 0.0
4470 C4470 20.2873 47.7692 38.8476 C.ar 0.0 **** -0.1268
4471 C4471 19.6445 46.8523 39.6699 C.ar 0.0 **** -0.1268
4472 C4472 18.3461 47.0823 40.152 C.ar 0.0 **** 0.0
4473 C4473 17.6806 48.2725 39.7896 C.ar 0.0 **** 0.0
4474 C4474 32.7991 56.1799 31.8342 C.3 0.0 **** -0.106
4475 C4475 32.7328 57.3502 32.8282 C.3 0.0 **** -0.159
4476 C4476 35.6725 55.7272 31.4998 C.3 0.0 **** -0.159
4477 C4477 31.2277 54.2818 33.5146 C.3 0.0 **** -0.159
4478 C4478 36.8774 53.2516 32.456 C.3 0.0 **** -0.159
4479 C4479 36.614 49.2097 35.4033 C.3 0.0 **** -0.159
4480 C4480 35.2778 47.7901 37.5611 C.3 0.0 **** -0.159
4481 O4481 32.7778 47.0536 38.2728 O.3 0.0 **** -0.452
4482 C4482 31.1711 47.3855 43.0158 C.3 0.0 **** -0.159
4483 C4483 28.8121 49.0025 43.3705 C.3 0.0 **** -0.159
4484 O4484 26.1139 48.4169 39.4996 O.3 0.0 **** -0.452
4485 O4485 28.6429 51.2031 35.5148 O.3 0.0 **** -0.452
4486 O4486 26.4832 51.9872 34.7188 O.2 0.0 **** -0.419
4487 O4487 23.9901 49.2876 38.7304 O.2 0.0 **** -0.419
4488 C4488 16.2985 48.5812 40.3172 C.3 0.0 **** -0.159
4489 C4489 17.7019 46.0581 41.0528 C.3 0.0 **** -0.159
4490 H4490 31.9564 52.5891 35.376 H 0.0 **** 0.053
4491 H4491 31.6486 51.5868 33.9894 H 0.0 **** 0.053
4492 H4492 35.6123 50.7552 33.2134 H 0.0 **** 0.053
4493 H4493 36.267 51.675 34.5412 H 0.0 **** 0.053
4494 H4494 30.5823 51.0179 35.7406 H 0.0 **** 0.1268
4495 H4495 27.4502 48.6242 41.1104 H 0.0 **** 0.053
4496 H4496 28.4491 47.177 41.2039 H 0.0 **** 0.053
4497 H4497 29.4838 50.0141 41.6112 H 0.0 **** 0.053
4498 H4498 31.5627 49.1878 41.9201 H 0.0 **** 0.053
4499 H4499 30.6711 46.5845 40.6801 H 0.0 **** 0.053
4500 H4500 32.1279 47.5468 40.3713 H 0.0 **** 0.053
4501 H4501 24.3717 52.9415 34.332 H 0.0 **** 0.053
4502 H4502 23.361 51.5302 33.9972 H 0.0 **** 0.053
4503 H4503 21.9067 53.4089 34.6897 H 0.0 **** 0.053
4504 H4504 22.8408 53.6427 36.1693 H 0.0 **** 0.053
4505 H4505 19.6893 53.9915 36.0998 H 0.0 **** 0.053
4506 H4506 19.9155 53.2024 34.5458 H 0.0 **** 0.053
4507 H4507 17.7943 52.0438 34.6844 H 0.0 **** 0.053
4508 H4508 17.4883 53.7286 35.138 H 0.0 **** 0.053
4509 H4509 16.3436 52.2091 36.7583 H 0.0 **** 0.053
4510 H4510 17.6794 53.0333 37.5883 H 0.0 **** 0.053
4511 H4511 17.6849 50.2041 36.4294 H 0.0 **** 0.053
4512 H4512 17.935 51.275 39.2771 H 0.0 **** 0.053
4513 H4513 16.5633 50.4048 38.5845 H 0.0 **** 0.053
4514 H4514 21.3079 47.6073 38.5008 H 0.0 **** 0.1268
4515 H4515 20.1585 45.9342 39.963 H 0.0 **** 0.1268
4516 H4516 31.7848 55.9354 31.4861 H 0.0 **** 0.053
4517 H4517 33.3484 56.4934 30.9359 H 0.0 **** 0.053
4518 H4518 33.7417 57.6123 33.1819 H 0.0 **** 0.053
4519 H4519 32.1368 57.0739 33.7107 H 0.0 **** 0.053
4520 H4520 32.2819 58.2441 32.3696 H 0.0 **** 0.053
4521 H4521 36.7174 55.6992 31.834 H 0.0 **** 0.053
4522 H4522 35.308 56.7512 31.654 H 0.0 **** 0.053
4523 H4523 35.6716 55.5404 30.4115 H 0.0 **** 0.053
4524 H4524 31.0605 54.3765 34.6003 H 0.0 **** 0.053
4525 H4525 30.6164 53.4249 33.1869 H 0.0 **** 0.053
4526 H4526 30.8265 55.1846 33.0427 H 0.0 **** 0.053
4527 H4527 37.0979 52.178 32.5051 H 0.0 **** 0.053
4528 H4528 37.5431 53.7533 33.1806 H 0.0 **** 0.053
4529 H4529 37.1673 53.6016 31.4562 H 0.0 **** 0.053
4530 H4530 36.8514 48.1454 35.5259 H 0.0 **** 0.053
4531 H4531 37.2979 49.7787 36.0576 H 0.0 **** 0.053
4532 H4532 36.8586 49.4832 34.3697 H 0.0 **** 0.053
4533 H4533 34.9406 47.8444 38.603 H 0.0 **** 0.053
4534 H4534 36.3489 48.0209 37.5435 H 0.0 **** 0.053
4535 H4535 35.145 46.7441 37.2432 H 0.0 **** 0.053
4536 H4536 32.0369 46.5438 38.6373 H 0.0 **** 0.41
4537 H4537 31.1682 47.8772 43.9984 H 0.0 **** 0.053
4538 H4538 32.1676 46.9451 42.857 H 0.0 **** 0.053
4539 H4539 30.4419 46.5601 43.0463 H 0.0 **** 0.053
4540 H4540 27.843 49.5231 43.3592 H 0.0 **** 0.053
4541 H4541 29.4729 49.5266 44.0775 H 0.0 **** 0.053
4542 H4542 28.6441 47.9858 43.7562 H 0.0 **** 0.053
4543 H4543 25.0857 48.6586 39.3331 H 0.0 **** 0.41
4544 H4544 27.8289 51.6492 34.9956 H 0.0 **** 0.41
4545 H4545 16.2486 49.6003 40.7299 H 0.0 **** 0.053
4546 H4546 15.9946 47.8835 41.1059 H 0.0 **** 0.053
4547 H4547 15.5426 48.5261 39.5152 H 0.0 **** 0.053
4548 H4548 17.4768 46.4784 42.0468 H 0.0 **** 0.053
4549 H4549 18.3656 45.1944 41.1946 H 0.0 **** 0.053
4550 H4550 16.7487 45.6941 40.6369 H 0.0 **** 0.053
4551 C4551 11.0581 21.924 22.2227 C.ar 0.0 **** 0.0
4552 C4552 11.8748 21.1624 21.3667 C.ar 0.0 **** 0.0
4553 C4553 13.2402 20.9934 21.6704 C.ar 0.0 **** 0.0
4554 C4554 13.7712 21.5674 22.8276 C.ar 0.0 **** 0.0
4555 C4555 12.9477 22.2848 23.7184 C.ar 0.0 **** 0.0
4556 C4556 11.5813 22.4463 23.4261 C.ar 0.0 **** 0.0
4557 C4557 15.227 21.433 23.1658 C.3 0.0 **** -0.106
4558 C4558 16.1066 20.7844 22.1377 C.ar 0.0 **** 0.0
4559 C4559 15.5942 20.1987 21.0017 C.ar 0.0 **** 0.0
4560 C4560 14.1112 20.19 20.7361 C.3 0.0 **** -0.106
4561 C4561 16.4706 19.6135 20.0259 C.ar 0.0 **** 0.0
4562 C4562 17.8527 19.6683 20.1747 C.ar 0.0 **** 0.0
4563 C4563 18.4018 20.2203 21.3834 C.ar 0.0 **** 0.0
4564 C4564 17.5169 20.7848 22.3682 C.ar 0.0 **** 0.0
4565 C4565 18.019 21.2865 23.5786 C.ar 0.0 **** -0.1268
4566 C4566 19.3843 21.3954 23.8378 C.ar 0.0 **** 0.0
4567 C4567 20.2961 20.9924 22.7928 C.ar 0.0 **** 0.0
4568 C4568 19.7812 20.2426 21.706 C.ar 0.0 **** 0.042
4569 C4569 21.6599 21.427 22.875 C.2 0.0 **** 0.0
4570 C4570 22.1585 21.977 24.0483 C.2 0.0 **** 0.0
4571 C4571 21.3382 22.0376 25.2253 C.ar 0.0 **** 0.0
4572 C4572 19.9317 21.837 25.1067 C.ar 0.0 **** 0.0
4573 C4573 23.5042 22.6537 23.9271 C.3 0.0 **** -0.106
4574 C4574 23.4503 23.6374 22.741 C.ar 0.0 **** -0.053
4575 C4575 23.2109 22.8695 21.4153 C.ar 0.0 **** -0.053
4576 C4576 22.5898 21.4715 21.6846 C.3 0.0 **** -0.106
4577 C4577 19.1099 22.0449 26.2749 C.ar 0.0 **** 0.042
4578 C4578 19.69 22.3828 27.521 C.ar 0.0 **** 0.052
4579 C4579 21.0927 22.5029 27.6558 C.ar 0.0 **** 0.052
4580 C4580 21.9144 22.3036 26.5265 C.ar 0.0 **** 0.042
4581 C4581 21.7076 22.8264 28.9287 C.2 0.0 **** 0.367
4582 C4582 20.8259 23.0348 30.0964 C.ar 0.0 **** 0.0
4583 C4583 19.4582 22.9286 29.9383 C.ar 0.0 **** 0.0
4584 C4584 18.8438 22.5843 28.6646 C.2 0.0 **** 0.367
4585 C4585 18.5464 23.1314 31.1133 C.3 0.0 **** -0.106
4586 C4586 19.0843 24.2329 32.0223 C.3 0.0 **** -0.106
4587 C4587 20.5155 23.9542 32.3973 C.ar 0.0 **** 0.0
4588 C4588 21.3675 23.3604 31.4335 C.ar 0.0 **** 0.2405
4589 N4589 22.6592 23.099 31.6783 N.ar 0.0 **** -0.481
4590 C4590 23.181 23.4543 32.8572 C.ar 0.0 **** 0.2405
4591 C4591 22.4136 24.044 33.8844 C.ar 0.0 **** 0.0
4592 C4592 21.0514 24.2834 33.6532 C.ar 0.0 **** 0.0
4593 C4593 20.1862 24.9117 34.7245 C.3 0.0 **** -0.106
4594 C4594 20.8261 24.9023 36.1171 C.3 0.0 **** -0.106
4595 C4595 22.2874 25.3418 36.0421 C.3 0.0 **** -0.106
4596 C4596 23.0905 24.3509 35.2002 C.3 0.0 **** -0.053
4597 C4597 24.5256 24.8281 34.9704 C.3 0.0 **** -0.106
4598 C4598 25.3107 23.8892 34.0885 C.ar 0.0 **** 0.0
4599 C4599 24.6227 23.2169 33.0567 C.ar 0.0 **** 0.0
4600 C4600 25.3302 22.373 32.1899 C.ar 0.0 **** -0.1268
4601 C4601 26.6979 22.199 32.3609 C.ar 0.0 **** -0.1268
4602 C4602 27.4018 22.8665 33.3758 C.ar 0.0 **** 0.0
4603 C4603 26.7007 23.7322 34.2418 C.ar 0.0 **** 0.0
4604 C4604 10.6769 23.2037 24.3755 C.3 0.0 **** -0.106
4605 C4605 10.7422 24.7231 24.1532 C.3 0.0 **** -0.159
4606 C4606 9.61586 22.1859 21.8434 C.3 0.0 **** -0.159
4607 C4607 13.583 22.8698 24.9578 C.3 0.0 **** -0.159
4608 C4608 11.2881 20.5287 20.1252 C.3 0.0 **** -0.159
4609 C4609 15.8598 18.9651 18.8035 C.3 0.0 **** -0.159
4610 C4610 18.7452 19.2503 19.0272 C.3 0.0 **** -0.159
4611 O4611 20.6275 19.4587 20.954 O.3 0.0 **** -0.452
4612 C4612 24.4685 22.6654 20.5645 C.3 0.0 **** -0.159
4613 C4613 24.6759 24.5541 22.7314 C.3 0.0 **** -0.159
4614 O4614 23.2328 22.3278 26.677 O.3 0.0 **** -0.452
4615 O4615 17.7859 21.9244 26.2235 O.3 0.0 **** -0.452
4616 O4616 17.5691 22.4568 28.5863 O.2 0.0 **** -0.419
4617 O4617 22.9717 22.9397 29.0046 O.2 0.0 **** -0.419
4618 C4618 27.4235 24.5024 35.3226 C.3 0.0 **** -0.159
4619 C4619 28.889 22.6502 33.5065 C.3 0.0 **** -0.159
4620 H4620 15.6351 22.4342 23.3892 H 0.0 **** 0.053
4621 H4621 15.3295 20.8893 24.1252 H 0.0 **** 0.053
4622 H4622 13.7583 19.1399 20.7376 H 0.0 **** 0.053
4623 H4623 13.9387 20.5291 19.7006 H 0.0 **** 0.053
4624 H4624 17.3264 21.5899 24.3465 H 0.0 **** 0.1268
4625 H4625 23.7741 23.1904 24.8368 H 0.0 **** 0.053
4626 H4626 24.3042 21.9112 23.7489 H 0.0 **** 0.053
4627 H4627 22.5652 24.2708 22.916 H 0.0 **** 0.053
4628 H4628 22.4847 23.442 20.8169 H 0.0 **** 0.053
4629 H4629 23.4325 20.7782 21.8729 H 0.0 **** 0.053
4630 H4630 22.1032 21.148 20.7595 H 0.0 **** 0.053
4631 H4631 17.5314 23.3504 30.7585 H 0.0 **** 0.053
4632 H4632 18.4877 22.1819 31.6779 H 0.0 **** 0.053
4633 H4633 18.447 24.3276 32.9102 H 0.0 **** 0.053
4634 H4634 19.0294 25.2024 31.4916 H 0.0 **** 0.053
4635 H4635 19.9634 25.9526 34.4282 H 0.0 **** 0.053
4636 H4636 19.2122 24.3997 34.7642 H 0.0 **** 0.053
4637 H4637 20.7822 23.8818 36.5327 H 0.0 **** 0.053
4638 H4638 20.2491 25.5508 36.7937 H 0.0 **** 0.053
4639 H4639 22.7317 25.4206 37.047 H 0.0 **** 0.053
4640 H4640 22.3512 26.3416 35.5774 H 0.0 **** 0.053
4641 H4641 23.1509 23.3963 35.761 H 0.0 **** 0.053
4642 H4642 24.4946 25.8315 34.5028 H 0.0 **** 0.053
4643 H4643 25.0146 24.9567 35.9461 H 0.0 **** 0.053
4644 H4644 24.7891 21.8818 31.3812 H 0.0 **** 0.1268
4645 H4645 27.2482 21.5389 31.6869 H 0.0 **** 0.1268
4646 H4646 10.9488 22.9725 25.416 H 0.0 **** 0.053
4647 H4647 9.63913 22.8616 24.262 H 0.0 **** 0.053
4648 H4648 10.4663 24.9726 23.1173 H 0.0 **** 0.053
4649 H4649 11.7646 25.0939 24.3192 H 0.0 **** 0.053
4650 H4650 10.0625 25.2599 24.8331 H 0.0 **** 0.053
4651 H4651 9.48038 22.1839 20.7544 H 0.0 **** 0.053
4652 H4652 9.27119 23.1604 22.2132 H 0.0 **** 0.053
4653 H4653 8.93781 21.4201 22.2593 H 0.0 **** 0.053
4654 H4654 14.3759 23.5867 24.6874 H 0.0 **** 0.053
4655 H4655 14.0728 22.0897 25.5633 H 0.0 **** 0.053
4656 H4656 12.8698 23.3985 25.5985 H 0.0 **** 0.053
4657 H4657 11.8627 19.6521 19.8011 H 0.0 **** 0.053
4658 H4658 11.2705 21.2369 19.2779 H 0.0 **** 0.053
4659 H4659 10.2534 20.2005 20.2923 H 0.0 **** 0.053
4660 H4660 16.4758 18.1348 18.4357 H 0.0 **** 0.053
4661 H4661 15.7456 19.6851 17.974 H 0.0 **** 0.053
4662 H4662 14.8621 18.5632 19.018 H 0.0 **** 0.053
4663 H4663 19.5938 19.9371 18.9256 H 0.0 **** 0.053
4664 H4664 18.1955 19.2548 18.0792 H 0.0 **** 0.053
4665 H4665 19.1715 18.2455 19.1742 H 0.0 **** 0.053
4666 H4666 21.4653 19.3714 21.4359 H 0.0 **** 0.41
4667 H4667 24.8949 23.6189 20.2236 H 0.0 **** 0.053
4668 H4668 24.2338 22.0589 19.6762 H 0.0 **** 0.053
4669 H4669 25.2433 22.132 21.1382 H 0.0 **** 0.053
4670 H4670 24.7309 25.125 23.6702 H 0.0 **** 0.053
4671 H4671 24.6345 25.2713 21.8977 H 0.0 **** 0.053
4672 H4672 25.6071 23.9763 22.6333 H 0.0 **** 0.053
4673 H4673 23.3594 22.5947 27.7046 H 0.0 **** 0.41
4674 H4674 17.4585 22.1231 27.2158 H 0.0 **** 0.41
4675 H4675 27.15 25.5684 35.302 H 0.0 **** 0.053
4676 H4676 28.5123 24.4323 35.2188 H 0.0 **** 0.053
4677 H4677 27.1602 24.1265 36.3261 H 0.0 **** 0.053
4678 H4678 29.4486 23.5882 33.3568 H 0.0 **** 0.053
4679 H4679 29.2421 21.9245 32.7614 H 0.0 **** 0.053
4680 H4680 29.158 22.2741 34.5066 H 0.0 **** 0.053
4681 C4681 19.7481 57.3642 -4.89899 C.ar 0.0 **** 0.0
4682 C4682 18.9117 58.2212 -5.63781 C.ar 0.0 **** 0.0
4683 C4683 17.8547 58.8937 -4.99291 C.ar 0.0 **** 0.0
4684 C4684 17.6541 58.7199 -3.62166 C.ar 0.0 **** 0.0
4685 C4685 18.5214 57.9068 -2.86467 C.ar 0.0 **** 0.0
4686 C4686 19.5854 57.2427 -3.50139 C.ar 0.0 **** 0.0
4687 C4687 16.5202 59.3967 -2.90897 C.3 0.0 **** -0.106
4688 C4688 15.5339 60.1446 -3.75708 C.ar 0.0 **** 0.0
4689 C4689 15.729 60.3387 -5.10623 C.ar 0.0 **** 0.0
4690 C4690 16.9525 59.7962 -5.79804 C.3 0.0 **** -0.106
4691 C4691 14.7477 61.0347 -5.89075 C.ar 0.0 **** 0.0
4692 C4692 13.5584 61.482 -5.32433 C.ar 0.0 **** 0.0
4693 C4693 13.3666 61.3427 -3.90625 C.ar 0.0 **** 0.0
4694 C4694 14.3644 60.6644 -3.12145 C.ar 0.0 **** 0.0
4695 C4695 14.2285 60.5558 -1.7291 C.ar 0.0 **** -0.1268
4696 C4696 13.0804 60.9639 -1.05237 C.ar 0.0 **** 0.0
4697 C4697 11.9929 61.4927 -1.84196 C.ar 0.0 **** 0.0
4698 C4698 12.2525 61.8455 -3.18976 C.ar 0.0 **** 0.042
4699 C4699 10.6927 61.5718 -1.24275 C.2 0.0 **** 0.0
4700 C4700 10.5334 61.4115 0.127195 C.2 0.0 **** 0.0
4701 C4701 11.6806 61.2515 0.975842 C.ar 0.0 **** 0.0
4702 C4702 12.9421 60.9354 0.391512 C.ar 0.0 **** 0.0
4703 C4703 9.10899 61.2292 0.597742 C.3 0.0 **** -0.106
4704 C4704 8.454 60.1194 -0.248816 C.ar 0.0 **** -0.053
4705 C4705 8.38554 60.5475 -1.73756 C.ar 0.0 **** -0.053
4706 C4706 9.4147 61.67 -2.04321 C.3 0.0 **** -0.106
4707 C4707 14.0476 60.6371 1.27022 C.ar 0.0 **** 0.042
4708 C4708 13.8998 60.7124 2.67588 C.ar 0.0 **** 0.052
4709 C4709 12.6694 61.1043 3.25274 C.ar 0.0 **** 0.052
4710 C4710 11.576 61.4005 2.412 C.ar 0.0 **** 0.042
4711 C4711 12.5045 61.209 4.68969 C.2 0.0 **** 0.367
4712 C4712 13.663 60.8895 5.55003 C.ar 0.0 **** 0.0
4713 C4713 14.8499 60.4933 4.96594 C.ar 0.0 **** 0.0
4714 C4714 15.0197 60.4079 3.52299 C.2 0.0 **** 0.367
4715 C4715 16.0393 60.1698 5.82241 C.3 0.0 **** -0.106
4716 C4716 15.5986 59.472 7.1061 C.3 0.0 **** -0.106
4717 C4717 14.5392 60.2795 7.80742 C.ar 0.0 **** 0.0
4718 C4718 13.5864 60.9769 7.02437 C.ar 0.0 **** 0.2405
4719 N4719 12.5982 61.7007 7.56887 N.ar 0.0 **** -0.481
4720 C4720 12.4728 61.7297 8.89999 C.ar 0.0 **** 0.2405
4721 C4721 13.3749 61.0749 9.76557 C.ar 0.0 **** 0.0
4722 C4722 14.4366 60.3493 9.20655 C.ar 0.0 **** 0.0
4723 C4723 15.4316 59.6318 10.0933 C.3 0.0 **** -0.106
4724 C4724 15.3784 60.0717 11.5604 C.3 0.0 **** -0.106
4725 C4725 13.9323 60.156 12.0461 C.3 0.0 **** -0.106
4726 C4726 13.1751 61.2229 11.2561 C.3 0.0 **** -0.053
4727 C4727 11.685 61.2397 11.6019 C.3 0.0 **** -0.106
4728 C4728 10.9151 62.2462 10.7834 C.ar 0.0 **** 0.0
4729 C4729 11.3281 62.476 9.45437 C.ar 0.0 **** 0.0
4730 C4730 10.6071 63.37 8.65132 C.ar 0.0 **** -0.1268
4731 C4731 9.5006 64.0279 9.17392 C.ar 0.0 **** -0.1268
4732 C4732 9.06841 63.8054 10.491 C.ar 0.0 **** 0.0
4733 C4733 9.77761 62.8933 11.3009 C.ar 0.0 **** 0.0
4734 C4734 20.5353 56.3736 -2.70442 C.3 0.0 **** -0.106
4735 C4735 19.9851 54.9545 -2.49102 C.3 0.0 **** -0.159
4736 C4736 20.8204 56.5678 -5.61201 C.3 0.0 **** -0.159
4737 C4737 18.2553 57.7712 -1.3839 C.3 0.0 **** -0.159
4738 C4738 19.1469 58.4183 -7.11859 C.3 0.0 **** -0.159
4739 C4739 15.0153 61.24 -7.36518 C.3 0.0 **** -0.159
4740 C4740 12.4543 62.0025 -6.21768 C.3 0.0 **** -0.159
4741 O4741 11.4342 62.7492 -3.83005 O.3 0.0 **** -0.452
4742 C4742 7.00832 61.0404 -2.19304 C.3 0.0 **** -0.159
4743 C4743 7.11283 59.6902 0.350867 C.3 0.0 **** -0.159
4744 O4744 10.4522 61.8546 2.95281 O.3 0.0 **** -0.452
4745 O4745 15.2389 60.2854 0.793421 O.3 0.0 **** -0.452
4746 O4746 16.1591 60.0755 3.03445 O.2 0.0 **** -0.419
4747 O4747 11.3774 61.5506 5.1691 O.2 0.0 **** -0.419
4748 C4748 9.32525 62.592 12.7111 C.3 0.0 **** -0.159
4749 C4749 7.85218 64.5373 11.0015 C.3 0.0 **** -0.159
4750 H4750 15.9693 58.6432 -2.31932 H 0.0 **** 0.053
4751 H4751 16.9296 60.0812 -2.14055 H 0.0 **** 0.053
4752 H4752 17.5505 60.648 -6.1776 H 0.0 **** 0.053
4753 H4753 16.6326 59.2657 -6.7109 H 0.0 **** 0.053
4754 H4754 15.0459 60.1527 -1.15378 H 0.0 **** 0.1268
4755 H4755 9.05946 60.9626 1.65371 H 0.0 **** 0.053
4756 H4756 8.53218 62.1654 0.480612 H 0.0 **** 0.053
4757 H4757 9.13483 59.2544 -0.188707 H 0.0 **** 0.053
4758 H4758 8.65627 59.6765 -2.35494 H 0.0 **** 0.053
4759 H4759 8.92183 62.631 -1.79849 H 0.0 **** 0.053
4760 H4760 9.59375 61.6621 -3.1226 H 0.0 **** 0.053
4761 H4761 16.7522 59.5638 5.24915 H 0.0 **** 0.053
4762 H4762 16.5562 61.115 6.07409 H 0.0 **** 0.053
4763 H4763 16.4673 59.2995 7.7535 H 0.0 **** 0.053
4764 H4764 15.1901 58.4744 6.85661 H 0.0 **** 0.053
4765 H4765 15.2394 58.5456 10.027 H 0.0 **** 0.053
4766 H4766 16.4508 59.7771 9.70278 H 0.0 **** 0.053
4767 H4767 15.8462 61.0653 11.6613 H 0.0 **** 0.053
4768 H4768 15.966 59.3749 12.1771 H 0.0 **** 0.053
4769 H4769 13.8863 60.3881 13.1219 H 0.0 **** 0.053
4770 H4770 13.4343 59.1811 11.9007 H 0.0 **** 0.053
4771 H4771 13.5859 62.2132 11.5389 H 0.0 **** 0.053
4772 H4772 11.2693 60.2284 11.4263 H 0.0 **** 0.053
4773 H4773 11.5751 61.4367 12.6773 H 0.0 **** 0.053
4774 H4774 10.9228 63.5164 7.61839 H 0.0 **** 0.1268
4775 H4775 8.9408 64.7267 8.54854 H 0.0 **** 0.1268
4776 H4776 20.7396 56.8391 -1.72897 H 0.0 **** 0.053
4777 H4777 21.509 56.3163 -3.2101 H 0.0 **** 0.053
4778 H4778 19.7812 54.4713 -3.45879 H 0.0 **** 0.053
4779 H4779 19.0367 54.9878 -1.9343 H 0.0 **** 0.053
4780 H4780 20.6954 54.3262 -1.93138 H 0.0 **** 0.053
4781 H4781 20.5399 56.3579 -6.65202 H 0.0 **** 0.053
4782 H4782 21.0002 55.6022 -5.12153 H 0.0 **** 0.053
4783 H4783 21.7836 57.1071 -5.63494 H 0.0 **** 0.053
4784 H4784 17.2568 57.3388 -1.20577 H 0.0 **** 0.053
4785 H4785 18.2535 58.7544 -0.885379 H 0.0 **** 0.053
4786 H4786 18.9831 57.1331 -0.8724 H 0.0 **** 0.053
4787 H4787 18.753 59.3792 -7.47245 H 0.0 **** 0.053
4788 H4788 18.6589 57.6276 -7.71565 H 0.0 **** 0.053
4789 H4789 20.2175 58.3917 -7.36244 H 0.0 **** 0.053
4790 H4790 14.556 62.1656 -7.73457 H 0.0 **** 0.053
4791 H4791 14.6166 60.4078 -7.97185 H 0.0 **** 0.053
4792 H4792 16.0904 61.3016 -7.57366 H 0.0 **** 0.053
4793 H4793 11.4766 61.6427 -5.87599 H 0.0 **** 0.053
4794 H4794 12.5926 61.6655 -7.25124 H 0.0 **** 0.053
4795 H4795 12.4006 63.1025 -6.21765 H 0.0 **** 0.053
4796 H4796 10.8903 63.1914 -3.15905 H 0.0 **** 0.41
4797 H4797 6.24595 60.2519 -2.12795 H 0.0 **** 0.053
4798 H4798 7.05333 61.3871 -3.23704 H 0.0 **** 0.053
4799 H4799 6.67465 61.8883 -1.57352 H 0.0 **** 0.053
4800 H4800 7.2559 59.3224 1.37776 H 0.0 **** 0.053
4801 H4801 6.64858 58.885 -0.238509 H 0.0 **** 0.053
4802 H4802 6.40444 60.5312 0.389684 H 0.0 **** 0.053
4803 H4803 10.6464 61.8066 4.00316 H 0.0 **** 0.41
4804 H4804 15.8423 60.139 1.65695 H 0.0 **** 0.41
4805 H4805 9.27305 61.5071 12.8889 H 0.0 **** 0.053
4806 H4806 8.33742 63.016 12.925 H 0.0 **** 0.053
4807 H4807 10.0309 63.0019 13.4538 H 0.0 **** 0.053
4808 H4808 7.04596 63.8381 11.2779 H 0.0 **** 0.053
4809 H4809 7.45935 65.2183 10.2344 H 0.0 **** 0.053
4810 H4810 8.08318 65.13 11.9011 H 0.0 **** 0.053
4811 C4811 39.2717 33.6694 36.8714 C.ar 0.0 **** 0.0
4812 C4812 40.5438 34.2539 36.7297 C.ar 0.0 **** 0.0
4813 C4813 40.9906 35.1948 37.6786 C.ar 0.0 **** 0.0
4814 C4814 40.1766 35.5285 38.7634 C.ar 0.0 **** 0.0
4815 C4815 38.9248 34.9061 38.9422 C.ar 0.0 **** 0.0
4816 C4816 38.4791 33.9573 38.0043 C.ar 0.0 **** 0.0
4817 C4817 40.6082 36.5485 39.7757 C.3 0.0 **** -0.106
4818 C4818 41.879 37.2937 39.4906 C.ar 0.0 **** 0.0
4819 C4819 42.6996 36.9629 38.4356 C.ar 0.0 **** 0.0
4820 C4820 42.3489 35.8293 37.5072 C.3 0.0 **** -0.106
4821 C4821 43.8933 37.7186 38.1772 C.ar 0.0 **** 0.0
4822 C4822 44.2232 38.8291 38.9475 C.ar 0.0 **** 0.0
4823 C4823 43.4114 39.1505 40.0898 C.ar 0.0 **** 0.0
4824 C4824 42.2286 38.3751 40.3569 C.ar 0.0 **** 0.0
4825 C4825 41.4436 38.6337 41.4908 C.ar 0.0 **** -0.1268
4826 C4826 41.6749 39.7204 42.3325 C.ar 0.0 **** 0.0
4827 C4827 42.7558 40.6138 41.9871 C.ar 0.0 **** 0.0
4828 C4828 43.6931 40.1873 41.0134 C.ar 0.0 **** 0.042
4829 C4829 42.788 41.9107 42.5976 C.2 0.0 **** 0.0
4830 C4830 41.977 42.2012 43.6865 C.2 0.0 **** 0.0
4831 C4831 41.1574 41.178 44.2724 C.ar 0.0 **** 0.0
4832 C4832 40.9299 39.9687 43.5523 C.ar 0.0 **** 0.0
4833 C4833 41.8866 43.6636 44.0563 C.3 0.0 **** -0.106
4834 C4834 41.5497 44.4682 42.7848 C.ar 0.0 **** -0.053
4835 C4835 42.6929 44.3359 41.7455 C.ar 0.0 **** -0.053
4836 C4836 43.5594 43.0778 42.0263 C.3 0.0 **** -0.106
4837 C4837 39.9893 39.0169 44.0933 C.ar 0.0 **** 0.042
4838 C4838 39.352 39.2503 45.3354 C.ar 0.0 **** 0.052
4839 C4839 39.6394 40.4131 46.0874 C.ar 0.0 **** 0.052
4840 C4840 40.5559 41.3563 45.5771 C.ar 0.0 **** 0.042
4841 C4841 39.0138 40.6595 47.3723 C.2 0.0 **** 0.367
4842 C4842 38.0539 39.659 47.8842 C.ar 0.0 **** 0.0
4843 C4843 37.776 38.539 47.1258 C.ar 0.0 **** 0.0
4844 C4844 38.4196 38.2834 45.8457 C.2 0.0 **** 0.367
4845 C4845 36.8081 37.5088 47.6308 C.3 0.0 **** -0.106
4846 C4846 35.6578 38.1782 48.3777 C.3 0.0 **** -0.106
4847 C4847 36.1876 39.0978 49.4455 C.ar 0.0 **** 0.0
4848 C4848 37.3756 39.8255 49.1878 C.ar 0.0 **** 0.2405
4849 N4849 37.9024 40.6812 50.075 N.ar 0.0 **** -0.481
4850 C4850 37.2607 40.8967 51.2283 C.ar 0.0 **** 0.2405
4851 C4851 36.0759 40.2159 51.5809 C.ar 0.0 **** 0.0
4852 C4852 35.5394 39.2877 50.677 C.ar 0.0 **** 0.0
4853 C4853 34.2717 38.5307 51.0104 C.3 0.0 **** -0.106
4854 C4854 33.8836 38.6013 52.4913 C.3 0.0 **** -0.106
4855 C4855 34.0104 40.0311 53.0146 C.3 0.0 **** -0.106
4856 C4856 35.4656 40.4913 52.9356 C.3 0.0 **** -0.053
4857 C4857 35.6188 41.9675 53.3064 C.3 0.0 **** -0.106
4858 C4858 37.0417 42.4505 53.1721 C.ar 0.0 **** 0.0
4859 C4859 37.8346 41.9012 52.1429 C.ar 0.0 **** 0.0
4860 C4860 39.1459 42.3608 51.9606 C.ar 0.0 **** -0.1268
4861 C4861 39.6549 43.3438 52.8001 C.ar 0.0 **** -0.1268
4862 C4862 38.8783 43.9095 53.8238 C.ar 0.0 **** 0.0
4863 C4863 37.551 43.4657 54.003 C.ar 0.0 **** 0.0
4864 C4864 37.1424 33.2687 38.184 C.3 0.0 **** -0.106
4865 C4865 35.9761 34.1138 37.6477 C.3 0.0 **** -0.159
4866 C4866 38.7545 32.7341 35.799 C.3 0.0 **** -0.159
4867 C4867 38.0993 35.304 40.1431 C.3 0.0 **** -0.159
4868 C4868 41.4267 33.8736 35.5623 C.3 0.0 **** -0.159
4869 C4869 44.7728 37.3054 37.0181 C.3 0.0 **** -0.159
4870 C4870 45.3548 39.7326 38.5103 C.3 0.0 **** -0.159
4871 O4871 44.9485 40.752 40.979 O.3 0.0 **** -0.452
4872 C4872 43.6323 45.5443 41.6788 C.3 0.0 **** -0.159
4873 C4873 41.1703 45.9099 43.1314 C.3 0.0 **** -0.159
4874 O4874 40.8907 42.3996 46.3261 O.3 0.0 **** -0.452
4875 O4875 39.6914 37.8915 43.4493 O.3 0.0 **** -0.452
4876 O4876 38.1549 37.2037 45.2041 O.2 0.0 **** -0.419
4877 O4877 39.2882 41.7245 48.0103 O.2 0.0 **** -0.419
4878 C4878 36.6653 44.0741 55.0657 C.3 0.0 **** -0.159
4879 C4879 39.4785 44.9834 54.6968 C.3 0.0 **** -0.159
4880 H4880 39.7966 37.2852 39.908 H 0.0 **** 0.053
4881 H4881 40.6867 36.0653 40.7692 H 0.0 **** 0.053
4882 H4882 43.1225 35.0421 37.603 H 0.0 **** 0.053
4883 H4883 42.4537 36.1827 36.4674 H 0.0 **** 0.053
4884 H4884 40.636 37.9621 41.7319 H 0.0 **** 0.1268
4885 H4885 41.1275 43.8455 44.8173 H 0.0 **** 0.053
4886 H4886 42.8451 44.0248 44.4731 H 0.0 **** 0.053
4887 H4887 40.6575 43.9865 42.3521 H 0.0 **** 0.053
4888 H4888 42.2359 44.2052 40.7519 H 0.0 **** 0.053
4889 H4889 44.3321 43.379 42.76 H 0.0 **** 0.053
4890 H4890 44.0761 42.8243 41.0956 H 0.0 **** 0.053
4891 H4891 36.4526 36.8954 46.7933 H 0.0 **** 0.053
4892 H4892 37.3479 36.8286 48.3163 H 0.0 **** 0.053
4893 H4893 34.9924 37.4144 48.7986 H 0.0 **** 0.053
4894 H4894 35.0504 38.7637 47.6618 H 0.0 **** 0.053
4895 H4895 33.4495 38.9369 50.3941 H 0.0 **** 0.053
4896 H4896 34.3767 37.4773 50.7078 H 0.0 **** 0.053
4897 H4897 34.5523 37.9477 53.0761 H 0.0 **** 0.053
4898 H4898 32.8608 38.2174 52.6244 H 0.0 **** 0.053
4899 H4899 33.6525 40.1083 54.0535 H 0.0 **** 0.053
4900 H4900 33.3867 40.707 52.4032 H 0.0 **** 0.053
4901 H4901 36.0492 39.9076 53.6759 H 0.0 **** 0.053
4902 H4902 34.9631 42.5684 52.6465 H 0.0 **** 0.053
4903 H4903 35.2457 42.1143 54.3295 H 0.0 **** 0.053
4904 H4904 39.7366 41.9457 51.1441 H 0.0 **** 0.1268
4905 H4905 40.6779 43.6995 52.6594 H 0.0 **** 0.1268
4906 H4906 36.9761 33.0463 39.2483 H 0.0 **** 0.053
4907 H4907 37.1496 32.2929 37.6794 H 0.0 **** 0.053
4908 H4908 36.1237 34.3402 36.5806 H 0.0 **** 0.053
4909 H4909 35.9172 35.0737 38.182 H 0.0 **** 0.053
4910 H4910 35.0134 33.5919 37.7625 H 0.0 **** 0.053
4911 H4911 39.1821 32.9735 34.8171 H 0.0 **** 0.053
4912 H4912 37.6626 32.7941 35.7026 H 0.0 **** 0.053
4913 H4913 39.006 31.6815 36.0179 H 0.0 **** 0.053
4914 H4914 37.8631 36.3805 40.1138 H 0.0 **** 0.053
4915 H4915 38.6533 35.1403 41.0821 H 0.0 **** 0.053
4916 H4916 37.1498 34.7633 40.211 H 0.0 **** 0.053
4917 H4917 42.4895 34.0337 35.7823 H 0.0 **** 0.053
4918 H4918 41.1881 34.4681 34.6626 H 0.0 **** 0.053
4919 H4919 41.3022 32.8163 35.2922 H 0.0 **** 0.053
4920 H4920 45.8285 37.5354 37.2094 H 0.0 **** 0.053
4921 H4921 44.4857 37.8206 36.0844 H 0.0 **** 0.053
4922 H4922 44.7019 36.2281 36.824 H 0.0 **** 0.053
4923 H4923 45.089 40.7861 38.6571 H 0.0 **** 0.053
4924 H4924 45.5842 39.5901 37.4482 H 0.0 **** 0.053
4925 H4925 46.2757 39.5584 39.0887 H 0.0 **** 0.053
4926 H4926 45.0816 41.2416 41.8062 H 0.0 **** 0.41
4927 H4927 43.1099 46.4554 41.3561 H 0.0 **** 0.053
4928 H4928 44.4524 45.3512 40.97 H 0.0 **** 0.053
4929 H4929 44.0825 45.7414 42.665 H 0.0 **** 0.053
4930 H4930 40.3013 45.9225 43.806 H 0.0 **** 0.053
4931 H4931 40.9106 46.4848 42.2296 H 0.0 **** 0.053
4932 H4932 41.9971 46.4307 43.637 H 0.0 **** 0.053
4933 H4933 40.263 42.2982 47.1858 H 0.0 **** 0.41
4934 H4934 38.9918 37.3972 44.0798 H 0.0 **** 0.41
4935 H4935 35.687 44.3617 54.6513 H 0.0 **** 0.053
4936 H4936 37.1161 44.9666 55.5146 H 0.0 **** 0.053
4937 H4937 36.4666 43.3564 55.88 H 0.0 **** 0.053
4938 H4938 38.9293 45.9347 54.6026 H 0.0 **** 0.053
4939 H4939 40.5247 45.1693 54.4186 H 0.0 **** 0.053
4940 H4940 39.4509 44.703 55.7619 H 0.0 **** 0.053
4941 C4941 4.03304 25.1474 -3.19694 C.ar 0.0 **** 0.0
4942 C4942 3.50248 25.5128 -1.94597 C.ar 0.0 **** 0.0
4943 C4943 3.24182 24.5206 -0.980181 C.ar 0.0 **** 0.0
4944 C4944 3.52786 23.1831 -1.26293 C.ar 0.0 **** 0.0
4945 C4945 4.11092 22.8161 -2.49243 C.ar 0.0 **** 0.0
4946 C4946 4.38425 23.8042 -3.45543 C.ar 0.0 **** 0.0
4947 C4947 3.23479 22.0975 -0.269293 C.3 0.0 **** -0.106
4948 C4948 2.49152 22.4948 0.97217 C.ar 0.0 **** 0.0
4949 C4949 2.21945 23.811 1.27168 C.ar 0.0 **** 0.0
4950 C4950 2.6558 24.9211 0.351374 C.3 0.0 **** -0.106
4951 C4951 1.47967 24.1501 2.45512 C.ar 0.0 **** 0.0
4952 C4952 0.976197 23.1635 3.2969 C.ar 0.0 **** 0.0
4953 C4953 1.30379 21.7887 3.0327 C.ar 0.0 **** 0.0
4954 C4954 2.06522 21.457 1.85716 C.ar 0.0 **** 0.0
4955 C4955 2.44173 20.1303 1.59848 C.ar 0.0 **** -0.1268
4956 C4956 1.99425 19.0586 2.36931 C.ar 0.0 **** 0.0
4957 C4957 1.0884 19.3504 3.45561 C.ar 0.0 **** 0.0
4958 C4958 0.944083 20.6996 3.86445 C.ar 0.0 **** 0.042
4959 C4959 0.333102 18.2704 4.02033 C.2 0.0 **** 0.0
4960 C4960 0.657643 16.9518 3.73078 C.2 0.0 **** 0.0
4961 C4961 1.8107 16.6488 2.93044 C.ar 0.0 **** 0.0
4962 C4962 2.42729 17.6879 2.17357 C.ar 0.0 **** 0.0
4963 C4963 -0.370871 15.9247 4.14409 C.3 0.0 **** -0.106
4964 C4964 -1.74665 16.3693 3.60827 C.ar 0.0 **** -0.053
4965 C4965 -2.16739 17.7141 4.25534 C.ar 0.0 **** -0.053
4966 C4966 -0.934214 18.4724 4.81835 C.3 0.0 **** -0.106
4967 C4967 3.49253 17.3337 1.26629 C.ar 0.0 **** 0.042
4968 C4968 3.95332 15.9987 1.17194 C.ar 0.0 **** 0.052
4969 C4969 3.3948 14.983 1.98218 C.ar 0.0 **** 0.052
4970 C4970 2.35275 15.3076 2.87593 C.ar 0.0 **** 0.042
4971 C4971 3.86827 13.6138 1.91627 C.2 0.0 **** 0.367
4972 C4972 4.95802 13.2973 0.969346 C.ar 0.0 **** 0.0
4973 C4973 5.47739 14.3014 0.176302 C.ar 0.0 **** 0.0
4974 C4974 5.01477 15.6789 0.257832 C.2 0.0 **** 0.367
4975 C4975 6.58804 14.001 -0.787673 C.3 0.0 **** -0.106
4976 C4976 6.39908 12.6184 -1.4055 C.3 0.0 **** -0.106
4977 C4977 6.22318 11.5803 -0.329442 C.ar 0.0 **** 0.0
4978 C4978 5.50707 11.93 0.841938 C.ar 0.0 **** 0.2405
4979 N4979 5.28667 11.06 1.83764 N.ar 0.0 **** -0.481
4980 C4980 5.71407 9.79981 1.7045 C.ar 0.0 **** 0.2405
4981 C4981 6.4425 9.35613 0.580113 C.ar 0.0 **** 0.0
4982 C4982 6.71442 10.2698 -0.448269 C.ar 0.0 **** 0.0
4983 C4983 7.49394 9.84245 -1.67335 C.3 0.0 **** -0.106
4984 C4984 8.22831 8.50828 -1.50167 C.3 0.0 **** -0.106
4985 C4985 7.31682 7.47116 -0.847524 C.3 0.0 **** -0.106
4986 C4986 6.92998 7.92593 0.559269 C.3 0.0 **** -0.053
4987 C4987 5.89755 6.9945 1.19702 C.3 0.0 **** -0.106
4988 C4988 5.46059 7.467 2.56144 C.ar 0.0 **** 0.0
4989 C4989 5.38502 8.85694 2.78962 C.ar 0.0 **** 0.0
4990 C4990 4.93844 9.33035 4.03076 C.ar 0.0 **** -0.1268
4991 C4991 4.58466 8.42799 5.02613 C.ar 0.0 **** -0.1268
4992 C4992 4.64403 7.04128 4.81502 C.ar 0.0 **** 0.0
4993 C4993 5.07528 6.55589 3.56232 C.ar 0.0 **** 0.0
4994 C4994 5.02082 23.4325 -4.77819 C.3 0.0 **** -0.106
4995 C4995 3.9866 22.9425 -5.80407 C.3 0.0 **** -0.159
4996 C4996 4.21988 26.202 -4.26718 C.3 0.0 **** -0.159
4997 C4997 4.40584 21.3537 -2.72974 C.3 0.0 **** -0.159
4998 C4998 3.21275 26.9653 -1.64079 C.3 0.0 **** -0.159
4999 C4999 1.22185 25.6107 2.75169 C.3 0.0 **** -0.159
5000 C5000 0.013392 23.5422 4.40029 C.3 0.0 **** -0.159
5001 O5001 0.48813 20.9852 5.13199 O.3 0.0 **** -0.452
5002 C5002 -3.19012 17.5804 5.38818 C.3 0.0 **** -0.159
5003 C5003 -2.77873 15.2476 3.74668 C.3 0.0 **** -0.159
5004 O5004 1.8943 14.3718 3.69793 O.3 0.0 **** -0.452
5005 O5005 4.07803 18.2443 0.492832 O.3 0.0 **** -0.452
5006 O5006 5.56415 16.5795 -0.473198 O.2 0.0 **** -0.419
5007 O5007 3.32948 12.7271 2.65118 O.2 0.0 **** -0.419
5008 C5008 5.11668 5.07251 3.27642 C.3 0.0 **** -0.159
5009 C5009 4.23486 6.10796 5.92726 C.3 0.0 **** -0.159
5010 H5010 2.66513 21.2972 -0.773176 H 0.0 **** 0.053
5011 H5011 4.18231 21.6018 0.0187974 H 0.0 **** 0.053
5012 H5012 3.39064 25.5548 0.885865 H 0.0 **** 0.053
5013 H5013 1.79723 25.5926 0.180674 H 0.0 **** 0.053
5014 H5014 3.11283 19.9272 0.779991 H 0.0 **** 0.1268
5015 H5015 -0.131835 14.9319 3.76231 H 0.0 **** 0.053
5016 H5016 -0.41966 15.8367 5.24536 H 0.0 **** 0.053
5017 H5017 -1.6036 16.5557 2.53117 H 0.0 **** 0.053
5018 H5018 -2.61094 18.3458 3.4696 H 0.0 **** 0.053
5019 H5019 -0.765731 18.0915 5.84443 H 0.0 **** 0.053
5020 H5020 -1.21235 19.5271 4.90468 H 0.0 **** 0.053
5021 H5021 6.63724 14.7886 -1.55011 H 0.0 **** 0.053
5022 H5022 7.54683 14.0319 -0.236646 H 0.0 **** 0.053
5023 H5023 7.24932 12.3822 -2.05718 H 0.0 **** 0.053
5024 H5024 5.50116 12.628 -2.0521 H 0.0 **** 0.053
5025 H5025 6.79435 9.77107 -2.52569 H 0.0 **** 0.053
5026 H5026 8.21627 10.6269 -1.94739 H 0.0 **** 0.053
5027 H5027 9.11378 8.65804 -0.861534 H 0.0 **** 0.053
5028 H5028 8.59304 8.1583 -2.47924 H 0.0 **** 0.053
5029 H5029 7.80635 6.48563 -0.797688 H 0.0 **** 0.053
5030 H5030 6.39948 7.35008 -1.45034 H 0.0 **** 0.053
5031 H5031 7.83891 7.88672 1.19306 H 0.0 **** 0.053
5032 H5032 5.01579 6.9333 0.529748 H 0.0 **** 0.053
5033 H5033 6.31961 5.9811 1.24535 H 0.0 **** 0.053
5034 H5034 4.86004 10.4069 4.18233 H 0.0 **** 0.1268
5035 H5035 4.23947 8.79748 5.99424 H 0.0 **** 0.1268
5036 H5036 5.78107 22.653 -4.62179 H 0.0 **** 0.053
5037 H5037 5.56548 24.293 -5.1901 H 0.0 **** 0.053
5038 H5038 3.22104 23.7142 -5.97734 H 0.0 **** 0.053
5039 H5039 3.46995 22.0449 -5.4329 H 0.0 **** 0.053
5040 H5040 4.45899 22.6985 -6.76833 H 0.0 **** 0.053
5041 H5041 3.4978 27.0207 -4.15456 H 0.0 **** 0.053
5042 H5042 4.08555 25.7847 -5.27364 H 0.0 **** 0.053
5043 H5043 5.22923 26.6481 -4.23034 H 0.0 **** 0.053
5044 H5044 3.47988 20.757 -2.68205 H 0.0 **** 0.053
5045 H5045 5.06949 20.9469 -1.94904 H 0.0 **** 0.053
5046 H5046 4.8688 21.1602 -3.70277 H 0.0 **** 0.053
5047 H5047 3.22879 27.1695 -0.562995 H 0.0 **** 0.053
5048 H5048 2.21811 27.2677 -2.01381 H 0.0 **** 0.053
5049 H5049 3.94929 27.6297 -2.11244 H 0.0 **** 0.053
5050 H5050 1.16343 25.8001 3.83096 H 0.0 **** 0.053
5051 H5051 0.273899 25.9568 2.3032 H 0.0 **** 0.053
5052 H5052 2.01804 26.249 2.34946 H 0.0 **** 0.053
5053 H5053 -0.798312 22.809 4.47556 H 0.0 **** 0.053
5054 H5054 -0.43764 24.5226 4.20973 H 0.0 **** 0.053
5055 H5055 0.500531 23.5725 5.38755 H 0.0 **** 0.053
5056 H5056 0.530765 20.1711 5.65826 H 0.0 **** 0.41
5057 H5057 -4.14499 17.1673 5.03492 H 0.0 **** 0.053
5058 H5058 -3.38958 18.5642 5.84015 H 0.0 **** 0.053
5059 H5059 -2.80647 16.9195 6.18198 H 0.0 **** 0.053
5060 H5060 -2.4479 14.3562 3.19323 H 0.0 **** 0.053
5061 H5061 -3.75868 15.5521 3.34895 H 0.0 **** 0.053
5062 H5062 -2.91697 14.9587 4.7993 H 0.0 **** 0.053
5063 H5063 2.42833 13.4956 3.39727 H 0.0 **** 0.41
5064 H5064 4.81511 17.7029 -0.0501453 H 0.0 **** 0.41
5065 H5065 4.62183 4.83742 2.32177 H 0.0 **** 0.053
5066 H5066 4.625 4.48869 4.06298 H 0.0 **** 0.053
5067 H5067 6.15552 4.70993 3.19329 H 0.0 **** 0.053
5068 H5068 3.36973 5.48897 5.63787 H 0.0 **** 0.053
5069 H5069 3.95801 6.67464 6.82657 H 0.0 **** 0.053
5070 H5070 5.04821 5.41463 6.19502 H 0.0 **** 0.053
5071 C5071 32.8706 57.0047 59.9516 C.ar 0.0 **** 0.0
5072 C5072 32.5105 58.1706 59.2509 C.ar 0.0 **** 0.0
5073 C5073 33.508 58.9529 58.6359 C.ar 0.0 **** 0.0
5074 C5074 34.8456 58.5577 58.7099 C.ar 0.0 **** 0.0
5075 C5075 35.2079 57.3621 59.3623 C.ar 0.0 **** 0.0
5076 C5076 34.2146 56.5712 59.9676 C.ar 0.0 **** 0.0
5077 C5077 35.9363 59.3828 58.0926 C.3 0.0 **** -0.106
5078 C5078 35.5426 60.7148 57.5247 C.ar 0.0 **** 0.0
5079 C5079 34.2267 61.1086 57.4292 C.ar 0.0 **** 0.0
5080 C5080 33.113 60.2111 57.9025 C.3 0.0 **** -0.106
5081 C5081 33.8907 62.4036 56.9068 C.ar 0.0 **** 0.0
5082 C5082 34.8797 63.3088 56.5351 C.ar 0.0 **** 0.0
5083 C5083 36.2549 62.8911 56.57 C.ar 0.0 **** 0.0
5084 C5084 36.5837 61.5832 57.0732 C.ar 0.0 **** 0.0
5085 C5085 37.9114 61.1292 57.0742 C.ar 0.0 **** -0.1268
5086 C5086 38.9853 61.9474 56.7277 C.ar 0.0 **** 0.0
5087 C5087 38.6947 63.3192 56.3822 C.ar 0.0 **** 0.0
5088 C5088 37.3475 63.6744 56.1227 C.ar 0.0 **** 0.042
5089 C5089 39.7728 64.2643 56.3839 C.2 0.0 **** 0.0
5090 C5090 41.0917 63.834 56.4404 C.2 0.0 **** 0.0
5091 C5091 41.3978 62.4314 56.4093 C.ar 0.0 **** 0.0
5092 C5092 40.3579 61.485 56.6451 C.ar 0.0 **** 0.0
5093 C5093 42.1137 64.9102 56.7249 C.3 0.0 **** -0.106
5094 C5094 41.6541 65.7037 57.9645 C.ar 0.0 **** -0.053
5095 C5095 40.3109 66.4227 57.6758 C.ar 0.0 **** -0.053
5096 C5096 39.5669 65.758 56.4854 C.3 0.0 **** -0.106
5097 C5097 40.7136 60.0903 56.7527 C.ar 0.0 **** 0.042
5098 C5098 42.0515 59.6652 56.5714 C.ar 0.0 **** 0.052
5099 C5099 43.0689 60.5962 56.258 C.ar 0.0 **** 0.052
5100 C5100 42.7428 61.9643 56.148 C.ar 0.0 **** 0.042
5101 C5101 44.4412 60.1777 56.0467 C.2 0.0 **** 0.367
5102 C5102 44.7592 58.7398 56.1714 C.ar 0.0 **** 0.0
5103 C5103 43.7533 57.8505 56.4942 C.ar 0.0 **** 0.0
5104 C5104 42.3727 58.2694 56.6864 C.2 0.0 **** 0.367
5105 C5105 44.0551 56.3856 56.6201 C.3 0.0 **** -0.106
5106 C5106 45.4314 56.1761 57.2454 C.3 0.0 **** -0.106
5107 C5107 46.4763 56.9552 56.4919 C.ar 0.0 **** 0.0
5108 C5108 46.1298 58.224 55.9651 C.ar 0.0 **** 0.2405
5109 N5109 47.0057 58.9912 55.3009 N.ar 0.0 **** -0.481
5110 C5110 48.2681 58.5701 55.1698 C.ar 0.0 **** 0.2405
5111 C5111 48.709 57.3193 55.6524 C.ar 0.0 **** 0.0
5112 C5112 47.7897 56.4911 56.3122 C.ar 0.0 **** 0.0
5113 C5113 48.2139 55.1396 56.8457 C.3 0.0 **** -0.106
5114 C5114 49.5552 54.6506 56.2882 C.3 0.0 **** -0.106
5115 C5115 50.5899 55.7745 56.3094 C.3 0.0 **** -0.106
5116 C5116 50.1429 56.9162 55.3971 C.3 0.0 **** -0.053
5117 C5117 51.0709 58.1279 55.5017 C.3 0.0 **** -0.106
5118 C5118 50.6053 59.2849 54.653 C.ar 0.0 **** 0.0
5119 C5119 49.2166 59.4779 54.4983 C.ar 0.0 **** 0.0
5120 C5120 48.7492 60.57 53.7548 C.ar 0.0 **** -0.1268
5121 C5121 49.6562 61.4448 53.1699 C.ar 0.0 **** -0.1268
5122 C5122 51.0417 61.275 53.3204 C.ar 0.0 **** 0.0
5123 C5123 51.521 60.1885 54.0824 C.ar 0.0 **** 0.0
5124 C5124 34.5813 55.2774 60.6637 C.3 0.0 **** -0.106
5125 C5125 35.0551 55.5077 62.1075 C.3 0.0 **** -0.159
5126 C5126 31.8094 56.2202 60.6938 C.3 0.0 **** -0.159
5127 C5127 36.6707 56.9868 59.3957 C.3 0.0 **** -0.159
5128 C5128 31.0582 58.5818 59.1597 C.3 0.0 **** -0.159
5129 C5129 32.4304 62.784 56.8036 C.3 0.0 **** -0.159
5130 C5130 34.5017 64.7365 56.2085 C.3 0.0 **** -0.159
5131 O5131 37.0679 64.79 55.3655 O.3 0.0 **** -0.452
5132 C5132 40.4452 67.9171 57.3664 C.3 0.0 **** -0.159
5133 C5133 42.7686 66.6207 58.474 C.3 0.0 **** -0.159
5134 O5134 43.6812 62.8213 55.7652 O.3 0.0 **** -0.452
5135 O5135 39.8019 59.1594 57.0216 O.3 0.0 **** -0.452
5136 O5136 41.471 57.3927 56.9425 O.2 0.0 **** -0.419
5137 O5137 45.3293 61.0481 55.7811 O.2 0.0 **** -0.419
5138 C5138 53.0024 59.9892 54.3049 C.3 0.0 **** -0.159
5139 C5139 51.9802 62.2635 52.6742 C.3 0.0 **** -0.159
5140 H5140 36.7282 59.5469 58.8442 H 0.0 **** 0.053
5141 H5141 36.4418 58.7889 57.3062 H 0.0 **** 0.053
5142 H5142 32.4894 59.9321 57.0305 H 0.0 **** 0.053
5143 H5143 32.4335 60.8021 58.5397 H 0.0 **** 0.053
5144 H5144 38.1135 60.1048 57.3411 H 0.0 **** 0.1268
5145 H5145 43.1054 64.4938 56.9028 H 0.0 **** 0.053
5146 H5146 42.2098 65.5997 55.8657 H 0.0 **** 0.053
5147 H5147 41.4606 64.9522 58.7475 H 0.0 **** 0.053
5148 H5148 39.6698 66.3158 58.565 H 0.0 **** 0.053
5149 H5149 39.9569 66.2283 55.5618 H 0.0 **** 0.053
5150 H5150 38.5107 66.0314 56.5684 H 0.0 **** 0.053
5151 H5151 43.2621 55.8943 57.198 H 0.0 **** 0.053
5152 H5152 44.0361 55.9367 55.6092 H 0.0 **** 0.053
5153 H5153 45.6694 55.1056 57.2723 H 0.0 **** 0.053
5154 H5154 45.4097 56.5194 58.2972 H 0.0 **** 0.053
5155 H5155 48.2732 55.2014 57.9474 H 0.0 **** 0.053
5156 H5156 47.4332 54.3932 56.6321 H 0.0 **** 0.053
5157 H5157 49.4174 54.3134 55.2473 H 0.0 **** 0.053
5158 H5158 49.9006 53.7799 56.8659 H 0.0 **** 0.053
5159 H5159 51.5797 55.4107 55.991 H 0.0 **** 0.053
5160 H5160 50.6991 56.1595 57.3387 H 0.0 **** 0.053
5161 H5161 50.1942 56.5566 54.3495 H 0.0 **** 0.053
5162 H5162 51.1199 58.446 56.5614 H 0.0 **** 0.053
5163 H5163 52.0879 57.8176 55.2246 H 0.0 **** 0.053
5164 H5164 47.6732 60.7207 53.6671 H 0.0 **** 0.1268
5165 H5165 49.2914 62.2941 52.5882 H 0.0 **** 0.1268
5166 H5166 35.3679 54.7574 60.0973 H 0.0 **** 0.053
5167 H5167 33.722 54.5929 60.6655 H 0.0 **** 0.053
5168 H5168 34.276 56.022 62.6908 H 0.0 **** 0.053
5169 H5169 35.9514 56.1456 62.1226 H 0.0 **** 0.053
5170 H5170 35.2955 54.5578 62.6098 H 0.0 **** 0.053
5171 H5171 30.9859 56.868 61.0201 H 0.0 **** 0.053
5172 H5172 32.2179 55.7354 61.59 H 0.0 **** 0.053
5173 H5173 31.3717 55.4262 60.0635 H 0.0 **** 0.053
5174 H5174 37.2603 57.7636 59.9101 H 0.0 **** 0.053
5175 H5175 37.0887 56.9126 58.3783 H 0.0 **** 0.053
5176 H5176 36.8604 56.0392 59.91 H 0.0 **** 0.053
5177 H5177 30.8624 59.2045 58.278 H 0.0 **** 0.053
5178 H5178 30.745 59.164 60.0445 H 0.0 **** 0.053
5179 H5179 30.3961 57.7076 59.0986 H 0.0 **** 0.053
5180 H5180 32.2488 63.4678 55.9648 H 0.0 **** 0.053
5181 H5181 32.0733 63.2839 57.7213 H 0.0 **** 0.053
5182 H5182 31.7954 61.9026 56.6515 H 0.0 **** 0.053
5183 H5183 35.229 65.4376 56.6347 H 0.0 **** 0.053
5184 H5184 33.5163 64.9862 56.6178 H 0.0 **** 0.053
5185 H5185 34.4828 64.9259 55.1237 H 0.0 **** 0.053
5186 H5186 37.8864 65.0678 54.9244 H 0.0 **** 0.41
5187 H5187 40.8479 68.4803 58.2195 H 0.0 **** 0.053
5188 H5188 39.4632 68.343 57.1086 H 0.0 **** 0.053
5189 H5189 41.1151 68.0772 56.5064 H 0.0 **** 0.053
5190 H5190 43.6583 66.0287 58.7353 H 0.0 **** 0.053
5191 H5191 42.4532 67.1765 59.3701 H 0.0 **** 0.053
5192 H5192 43.0644 67.3541 57.7091 H 0.0 **** 0.053
5193 H5193 44.5593 62.2144 55.7022 H 0.0 **** 0.41
5194 H5194 40.345 58.2449 57.0308 H 0.0 **** 0.41
5195 H5195 53.2262 59.8257 55.3701 H 0.0 **** 0.053
5196 H5196 53.5883 60.8514 53.9665 H 0.0 **** 0.053
5197 H5197 53.3726 59.1022 53.7629 H 0.0 **** 0.053
5198 H5198 52.5901 62.7923 53.4251 H 0.0 **** 0.053
5199 H5199 51.4182 63.0167 52.1055 H 0.0 **** 0.053
5200 H5200 52.682 61.7663 51.9856 H 0.0 **** 0.053
5201 C5201 13.5653 35.581 1.59864 C.ar 0.0 **** 0.0
5202 C5202 13.4946 36.3896 2.74797 C.ar 0.0 **** 0.0
5203 C5203 13.0006 35.851 3.95259 C.ar 0.0 **** 0.0
5204 C5204 12.6009 34.5137 4.00387 C.ar 0.0 **** 0.0
5205 C5205 12.7208 33.6827 2.87188 C.ar 0.0 **** 0.0
5206 C5206 13.2246 34.2123 1.67012 C.ar 0.0 **** 0.0
5207 C5207 12.0419 33.9161 5.26162 C.3 0.0 **** -0.106
5208 C5208 11.7975 34.8519 6.40875 C.ar 0.0 **** 0.0
5209 C5209 12.2029 36.1675 6.37814 C.ar 0.0 **** 0.0
5210 C5210 12.9118 36.7319 5.17451 C.3 0.0 **** -0.106
5211 C5211 11.9248 37.0406 7.48407 C.ar 0.0 **** 0.0
5212 C5212 11.198 36.599 8.58502 C.ar 0.0 **** 0.0
5213 C5213 10.8214 35.2135 8.66079 C.ar 0.0 **** 0.0
5214 C5214 11.1232 34.3379 7.55901 C.ar 0.0 **** 0.0
5215 C5215 10.812 32.9712 7.62426 C.ar 0.0 **** -0.1268
5216 C5216 10.083 32.4162 8.67472 C.ar 0.0 **** 0.0
5217 C5217 9.6205 33.3094 9.71108 C.ar 0.0 **** 0.0
5218 C5218 10.1727 34.6134 9.7682 C.ar 0.0 **** 0.042
5219 C5219 8.58046 32.8547 10.587 C.2 0.0 **** 0.0
5220 C5220 8.22168 31.5139 10.6241 C.2 0.0 **** 0.0
5221 C5221 8.94818 30.5481 9.8486 C.ar 0.0 **** 0.0
5222 C5222 9.81316 30.997 8.80792 C.ar 0.0 **** 0.0
5223 C5223 6.93826 31.2058 11.3599 C.3 0.0 **** -0.106
5224 C5224 5.83412 32.141 10.8272 C.ar 0.0 **** -0.053
5225 C5225 6.18626 33.6194 11.1348 C.ar 0.0 **** -0.053
5226 C5226 7.70836 33.7881 11.3944 C.3 0.0 **** -0.106
5227 C5227 10.4202 30.0087 7.94881 C.ar 0.0 **** 0.042
5228 C5228 10.2093 28.6265 8.16854 C.ar 0.0 **** 0.052
5229 C5229 9.4154 28.18 9.25052 C.ar 0.0 **** 0.052
5230 C5230 8.81293 29.1293 10.1025 C.ar 0.0 **** 0.042
5231 C5231 9.20555 26.768 9.50554 C.2 0.0 **** 0.367
5232 C5232 9.8436 25.7925 8.59678 C.ar 0.0 **** 0.0
5233 C5233 10.6012 26.251 7.53717 C.ar 0.0 **** 0.0
5234 C5234 10.8271 27.6681 7.29427 C.2 0.0 **** 0.367
5235 C5235 11.2616 25.2761 6.60634 C.3 0.0 **** -0.106
5236 C5236 10.3643 24.0626 6.38015 C.3 0.0 **** -0.106
5237 C5237 9.94424 23.4654 7.69678 C.ar 0.0 **** 0.0
5238 C5238 9.6894 24.334 8.78668 C.ar 0.0 **** 0.2405
5239 N5239 9.29077 23.8866 9.98581 N.ar 0.0 **** -0.481
5240 C5240 9.07693 22.5769 10.1513 C.ar 0.0 **** 0.2405
5241 C5241 9.30918 21.631 9.12997 C.ar 0.0 **** 0.0
5242 C5242 9.7664 22.0848 7.88446 C.ar 0.0 **** 0.0
5243 C5243 10.0321 21.1091 6.75825 C.3 0.0 **** -0.106
5244 C5244 10.11 19.6481 7.21466 C.3 0.0 **** -0.106
5245 C5245 8.96889 19.322 8.17685 C.3 0.0 **** -0.106
5246 C5246 9.09259 20.1686 9.44313 C.3 0.0 **** -0.053
5247 C5247 7.88982 19.9878 10.3709 C.3 0.0 **** -0.106
5248 C5248 7.96977 20.8654 11.5954 C.ar 0.0 **** 0.0
5249 C5249 8.5671 22.1364 11.4631 C.ar 0.0 **** 0.0
5250 C5250 8.61634 22.9955 12.5692 C.ar 0.0 **** -0.1268
5251 C5251 8.08645 22.5841 13.7858 C.ar 0.0 **** -0.1268
5252 C5252 7.47954 21.327 13.9349 C.ar 0.0 **** 0.0
5253 C5253 7.40938 20.4627 12.8218 C.ar 0.0 **** 0.0
5254 C5254 13.3721 33.3336 0.445654 C.3 0.0 **** -0.106
5255 C5255 12.0589 33.2101 -0.343235 C.3 0.0 **** -0.159
5256 C5256 14.0034 36.1881 0.282595 C.3 0.0 **** -0.159
5257 C5257 12.2814 32.243 2.99844 C.3 0.0 **** -0.159
5258 C5258 13.9466 37.8315 2.689 C.3 0.0 **** -0.159
5259 C5259 12.4068 38.4725 7.41244 C.3 0.0 **** -0.159
5260 C5260 10.7277 37.5973 9.61951 C.3 0.0 **** -0.159
5261 O5261 10.1347 35.3212 10.9487 O.3 0.0 **** -0.452
5262 C5262 5.43977 34.213 12.3338 C.3 0.0 **** -0.159
5263 C5263 4.45467 31.7004 11.3227 C.3 0.0 **** -0.159
5264 O5264 8.14455 28.7058 11.1682 O.3 0.0 **** -0.452
5265 O5265 11.1975 30.3592 6.92743 O.3 0.0 **** -0.452
5266 O5266 11.5761 28.0355 6.31891 O.2 0.0 **** -0.419
5267 O5267 8.47274 26.4081 10.4803 O.2 0.0 **** -0.419
5268 C5268 6.72975 19.1168 12.925 C.3 0.0 **** -0.159
5269 C5269 6.90882 20.9382 15.2761 C.3 0.0 **** -0.159
5270 H5270 11.0926 33.4054 5.02254 H 0.0 **** 0.053
5271 H5271 12.7027 33.0939 5.5993 H 0.0 **** 0.053
5272 H5272 13.9367 37.0266 5.47421 H 0.0 **** 0.053
5273 H5273 12.4291 37.6847 4.89841 H 0.0 **** 0.053
5274 H5274 11.1579 32.3181 6.83991 H 0.0 **** 0.1268
5275 H5275 6.63331 30.1672 11.2304 H 0.0 **** 0.053
5276 H5276 7.05892 31.3667 12.4474 H 0.0 **** 0.053
5277 H5277 5.84441 32.024 9.73105 H 0.0 **** 0.053
5278 H5278 5.93578 34.2207 10.2466 H 0.0 **** 0.053
5279 H5279 7.87444 33.5796 12.4692 H 0.0 **** 0.053
5280 H5280 7.95236 34.8413 11.226 H 0.0 **** 0.053
5281 H5281 11.5165 25.7799 5.66542 H 0.0 **** 0.053
5282 H5282 12.2161 24.9505 7.06112 H 0.0 **** 0.053
5283 H5283 10.8829 23.3275 5.75233 H 0.0 **** 0.053
5284 H5284 9.46354 24.3752 5.81853 H 0.0 **** 0.053
5285 H5285 9.23095 21.2177 6.00506 H 0.0 **** 0.053
5286 H5286 10.9647 21.3826 6.24086 H 0.0 **** 0.053
5287 H5287 11.0699 19.4767 7.72994 H 0.0 **** 0.053
5288 H5288 10.0929 18.9848 6.33664 H 0.0 **** 0.053
5289 H5289 8.96592 18.2533 8.44358 H 0.0 **** 0.053
5290 H5290 8.00081 19.5405 7.69243 H 0.0 **** 0.053
5291 H5291 9.98735 19.8229 9.99925 H 0.0 **** 0.053
5292 H5292 6.96779 20.228 9.80647 H 0.0 **** 0.053
5293 H5293 7.81505 18.9271 10.6482 H 0.0 **** 0.053
5294 H5294 9.05695 23.9845 12.4438 H 0.0 **** 0.1268
5295 H5295 8.12771 23.2529 14.6483 H 0.0 **** 0.1268
5296 H5296 13.7179 32.3326 0.742752 H 0.0 **** 0.053
5297 H5297 14.1578 33.7307 -0.21153 H 0.0 **** 0.053
5298 H5298 11.7019 34.2039 -0.654231 H 0.0 **** 0.053
5299 H5299 11.2736 32.76 0.282233 H 0.0 **** 0.053
5300 H5300 12.1858 32.5888 -1.24337 H 0.0 **** 0.053
5301 H5301 13.7581 37.2565 0.231925 H 0.0 **** 0.053
5302 H5302 13.5139 35.7003 -0.570406 H 0.0 **** 0.053
5303 H5303 15.0931 36.0947 0.131391 H 0.0 **** 0.053
5304 H5304 11.2129 32.1839 3.26389 H 0.0 **** 0.053
5305 H5305 12.8242 31.7281 3.80817 H 0.0 **** 0.053
5306 H5306 12.421 31.6677 2.07751 H 0.0 **** 0.053
5307 H5307 14.2503 38.2071 3.67401 H 0.0 **** 0.053
5308 H5308 13.1425 38.4941 2.32259 H 0.0 **** 0.053
5309 H5309 14.8015 37.9572 2.01105 H 0.0 **** 0.053
5310 H5310 12.639 38.8714 8.40797 H 0.0 **** 0.053
5311 H5311 11.6492 39.1357 6.95872 H 0.0 **** 0.053
5312 H5312 13.3151 38.5608 6.80385 H 0.0 **** 0.053
5313 H5313 9.7032 37.3719 9.93853 H 0.0 **** 0.053
5314 H5314 10.7361 38.616 9.21575 H 0.0 **** 0.053
5315 H5315 11.3494 37.5811 10.5284 H 0.0 **** 0.053
5316 H5316 9.90482 34.7051 11.6623 H 0.0 **** 0.41
5317 H5317 4.35424 34.2475 12.1676 H 0.0 **** 0.053
5318 H5318 5.78829 35.2387 12.5304 H 0.0 **** 0.053
5319 H5319 5.62626 33.6169 13.2414 H 0.0 **** 0.053
5320 H5320 4.24383 30.6716 10.9952 H 0.0 **** 0.053
5321 H5321 3.65983 32.353 10.9309 H 0.0 **** 0.053
5322 H5322 4.39827 31.7226 12.4213 H 0.0 **** 0.053
5323 H5323 8.1649 27.6417 11.0658 H 0.0 **** 0.41
5324 H5324 11.5006 29.4379 6.49095 H 0.0 **** 0.41
5325 H5325 6.01574 18.9675 12.1008 H 0.0 **** 0.053
5326 H5326 6.18313 19.0039 13.8683 H 0.0 **** 0.053
5327 H5327 7.46166 18.2933 12.8642 H 0.0 **** 0.053
5328 H5328 5.82152 20.7657 15.2181 H 0.0 **** 0.053
5329 H5329 7.08541 21.7299 16.0166 H 0.0 **** 0.053
5330 H5330 7.36007 20.007 15.6545 H 0.0 **** 0.053
5331 C5331 58.9019 25.1683 8.68163 C.ar 0.0 **** 0.0
5332 C5332 60.1822 25.7019 8.91783 C.ar 0.0 **** 0.0
5333 C5333 61.3203 24.8872 8.75501 C.ar 0.0 **** 0.0
5334 C5334 61.1725 23.5608 8.3432 C.ar 0.0 **** 0.0
5335 C5335 59.8977 23.0356 8.05115 C.ar 0.0 **** 0.0
5336 C5336 58.7594 23.8481 8.20053 C.ar 0.0 **** 0.0
5337 C5337 62.3602 22.6568 8.18905 C.3 0.0 **** -0.106
5338 C5338 63.6875 23.196 8.63531 C.ar 0.0 **** 0.0
5339 C5339 63.8503 24.5062 9.02603 C.ar 0.0 **** 0.0
5340 C5340 62.6874 25.4642 9.02853 C.3 0.0 **** -0.106
5341 C5341 65.1304 24.9781 9.47485 C.ar 0.0 **** 0.0
5342 C5342 66.2195 24.1184 9.57649 C.ar 0.0 **** 0.0
5343 C5343 66.0831 22.7638 9.11433 C.ar 0.0 **** 0.0
5344 C5344 64.8031 22.3031 8.64402 C.ar 0.0 **** 0.0
5345 C5345 64.6507 21.0019 8.14152 C.ar 0.0 **** -0.1268
5346 C5346 65.6695 20.0521 8.19484 C.ar 0.0 **** 0.0
5347 C5347 66.9122 20.4408 8.81959 C.ar 0.0 **** 0.0
5348 C5348 67.137 21.8183 9.06539 C.ar 0.0 **** 0.042
5349 C5349 67.8249 19.4095 9.21851 C.2 0.0 **** 0.0
5350 C5350 67.6569 18.1046 8.77485 C.2 0.0 **** 0.0
5351 C5351 66.6161 17.7866 7.8382 C.ar 0.0 **** 0.0
5352 C5352 65.5672 18.7261 7.61505 C.ar 0.0 **** 0.0
5353 C5353 68.4963 17.0659 9.48188 C.3 0.0 **** -0.106
5354 C5354 68.3147 17.2447 11.0026 C.ar 0.0 **** -0.053
5355 C5355 68.8446 18.632 11.4485 C.ar 0.0 **** -0.053
5356 C5356 68.9114 19.6159 10.2484 C.3 0.0 **** -0.106
5357 C5357 64.4579 18.3281 6.78179 C.ar 0.0 **** 0.042
5358 C5358 64.4382 17.0593 6.15476 C.ar 0.0 **** 0.052
5359 C5359 65.5175 16.159 6.3124 C.ar 0.0 **** 0.052
5360 C5360 66.6119 16.5283 7.12241 C.ar 0.0 **** 0.042
5361 C5361 65.5263 14.8637 5.66042 C.2 0.0 **** 0.367
5362 C5362 64.3668 14.4976 4.82021 C.ar 0.0 **** 0.0
5363 C5363 63.3167 15.3854 4.69348 C.ar 0.0 **** 0.0
5364 C5364 63.3184 16.6931 5.33239 C.2 0.0 **** 0.367
5365 C5365 62.1327 15.0342 3.84041 C.3 0.0 **** -0.106
5366 C5366 61.8102 13.5475 3.96119 C.3 0.0 **** -0.106
5367 C5367 63.0352 12.7184 3.68152 C.ar 0.0 **** 0.0
5368 C5368 64.2956 13.2009 4.11266 C.ar 0.0 **** 0.2405
5369 N5369 65.432 12.5156 3.92319 N.ar 0.0 **** -0.481
5370 C5370 65.3739 11.3088 3.35004 C.ar 0.0 **** 0.2405
5371 C5371 64.1687 10.7448 2.87989 C.ar 0.0 **** 0.0
5372 C5372 62.9801 11.4722 3.03583 C.ar 0.0 **** 0.0
5373 C5373 61.6625 10.9108 2.54598 C.3 0.0 **** -0.106
5374 C5374 61.8165 9.72364 1.58909 C.3 0.0 **** -0.106
5375 C5375 62.852 8.73364 2.12014 C.3 0.0 **** -0.106
5376 C5376 64.2254 9.39995 2.19304 C.3 0.0 **** -0.053
5377 C5377 65.2639 8.49645 2.86037 C.3 0.0 **** -0.106
5378 C5378 66.6088 9.16646 2.99489 C.ar 0.0 **** 0.0
5379 C5379 66.637 10.5572 3.22899 C.ar 0.0 **** 0.0
5380 C5380 67.8678 11.2037 3.40506 C.ar 0.0 **** -0.1268
5381 C5381 69.0468 10.4719 3.33748 C.ar 0.0 **** -0.1268
5382 C5382 69.039 9.08577 3.11485 C.ar 0.0 **** 0.0
5383 C5383 67.8034 8.42366 2.95449 C.ar 0.0 **** 0.0
5384 C5384 57.3817 23.3066 7.88118 C.3 0.0 **** -0.106
5385 C5385 56.7796 22.5193 9.05576 C.3 0.0 **** -0.159
5386 C5386 57.6767 26.0157 8.95199 C.3 0.0 **** -0.159
5387 C5387 59.8093 21.5969 7.59907 C.3 0.0 **** -0.159
5388 C5388 60.3349 27.1443 9.34564 C.3 0.0 **** -0.159
5389 C5389 65.2646 26.4303 9.87582 C.3 0.0 **** -0.159
5390 C5390 67.4815 24.5889 10.2649 C.3 0.0 **** -0.159
5391 O5391 68.4238 22.2855 9.2135 O.3 0.0 **** -0.452
5392 C5392 70.2288 18.6014 12.1044 C.3 0.0 **** -0.159
5393 C5393 68.9092 16.0612 11.7698 C.3 0.0 **** -0.159
5394 O5394 67.6617 15.7194 7.19447 O.3 0.0 **** -0.452
5395 O5395 63.4215 19.1357 6.57205 O.3 0.0 **** -0.452
5396 O5396 62.334 17.4949 5.14435 O.2 0.0 **** -0.419
5397 O5397 66.5093 14.0773 5.83957 O.2 0.0 **** -0.419
5398 C5398 67.7445 6.92706 2.75311 C.3 0.0 **** -0.159
5399 C5399 70.3491 8.33968 3.06451 C.3 0.0 **** -0.159
5400 H5400 62.1664 21.7171 8.73536 H 0.0 **** 0.053
5401 H5401 62.4372 22.3334 7.13263 H 0.0 **** 0.053
5402 H5402 62.8882 26.2654 8.29037 H 0.0 **** 0.053
5403 H5403 62.6697 25.9911 9.99762 H 0.0 **** 0.053
5404 H5404 63.7152 20.7241 7.68434 H 0.0 **** 0.1268
5405 H5405 68.2163 16.0518 9.19574 H 0.0 **** 0.053
5406 H5406 69.5659 17.1826 9.22626 H 0.0 **** 0.053
5407 H5407 67.2263 17.239 11.1779 H 0.0 **** 0.053
5408 H5408 68.1322 19.0503 12.177 H 0.0 **** 0.053
5409 H5409 69.8919 19.457 9.75889 H 0.0 **** 0.053
5410 H5410 68.9136 20.6301 10.6589 H 0.0 **** 0.053
5411 H5411 61.2783 15.6641 4.11868 H 0.0 **** 0.053
5412 H5412 62.3761 15.2755 2.78854 H 0.0 **** 0.053
5413 H5413 60.9863 13.2888 3.28457 H 0.0 **** 0.053
5414 H5414 61.4529 13.3344 4.98656 H 0.0 **** 0.053
5415 H5415 61.0661 10.602 3.42345 H 0.0 **** 0.053
5416 H5416 61.0788 11.705 2.05526 H 0.0 **** 0.053
5417 H5417 62.1472 10.0896 0.602689 H 0.0 **** 0.053
5418 H5418 60.8399 9.2382 1.4417 H 0.0 **** 0.053
5419 H5419 62.908 7.83622 1.48382 H 0.0 **** 0.053
5420 H5420 62.5614 8.39917 3.1317 H 0.0 **** 0.053
5421 H5421 64.5718 9.58295 1.15581 H 0.0 **** 0.053
5422 H5422 64.8931 8.2122 3.86446 H 0.0 **** 0.053
5423 H5423 65.3419 7.56402 2.28423 H 0.0 **** 0.053
5424 H5424 67.8714 12.2739 3.61187 H 0.0 **** 0.1268
5425 H5425 70.006 10.9768 3.47186 H 0.0 **** 0.1268
5426 H5426 57.4303 22.6607 6.9922 H 0.0 **** 0.053
5427 H5427 56.7068 24.1292 7.60779 H 0.0 **** 0.053
5428 H5428 56.7178 23.1539 9.95299 H 0.0 **** 0.053
5429 H5429 57.4136 21.656 9.30723 H 0.0 **** 0.053
5430 H5430 55.7689 22.1518 8.81933 H 0.0 **** 0.053
5431 H5431 57.8659 26.7551 9.74055 H 0.0 **** 0.053
5432 H5432 56.8252 25.4035 9.27648 H 0.0 **** 0.053
5433 H5433 57.3563 26.5707 8.05275 H 0.0 **** 0.053
5434 H5434 60.2085 20.9204 8.3728 H 0.0 **** 0.053
5435 H5435 60.4202 21.4217 6.69825 H 0.0 **** 0.053
5436 H5436 58.7854 21.276 7.38198 H 0.0 **** 0.053
5437 H5437 61.3197 27.5489 9.08107 H 0.0 **** 0.053
5438 H5438 60.2201 27.2577 10.4383 H 0.0 **** 0.053
5439 H5439 59.5783 27.7856 8.8739 H 0.0 **** 0.053
5440 H5440 66.2743 26.8125 9.6794 H 0.0 **** 0.053
5441 H5441 65.0584 26.5774 10.9507 H 0.0 **** 0.053
5442 H5442 64.5606 27.066 9.32499 H 0.0 **** 0.053
5443 H5443 67.8948 23.7972 10.9008 H 0.0 **** 0.053
5444 H5444 67.2821 25.459 10.9005 H 0.0 **** 0.053
5445 H5445 68.2724 24.8594 9.5478 H 0.0 **** 0.053
5446 H5446 69.0325 21.5954 8.90534 H 0.0 **** 0.41
5447 H5447 70.2291 18.025 13.0398 H 0.0 **** 0.053
5448 H5448 70.5653 19.6244 12.3331 H 0.0 **** 0.053
5449 H5449 70.9702 18.1495 11.4262 H 0.0 **** 0.053
5450 H5450 68.4252 15.124 11.4574 H 0.0 **** 0.053
5451 H5451 68.7664 16.1737 12.8552 H 0.0 **** 0.053
5452 H5452 69.9885 15.9629 11.58 H 0.0 **** 0.053
5453 H5453 67.3568 14.8674 6.62492 H 0.0 **** 0.41
5454 H5454 62.7789 18.5872 5.92602 H 0.0 **** 0.41
5455 H5455 67.0175 6.46205 3.4363 H 0.0 **** 0.053
5456 H5456 68.7172 6.4512 2.92225 H 0.0 **** 0.053
5457 H5457 67.424 6.67361 1.72809 H 0.0 **** 0.053
5458 H5458 70.4153 7.5845 3.86492 H 0.0 **** 0.053
5459 H5459 71.194 9.03156 3.18329 H 0.0 **** 0.053
5460 H5460 70.475 7.80468 2.10958 H 0.0 **** 0.053
5461 C5461 69.3484 44.0401 41.6931 C.ar 0.0 **** 0.0
5462 C5462 70.0226 42.8077 41.774 C.ar 0.0 **** 0.0
5463 C5463 69.4043 41.6391 41.2868 C.ar 0.0 **** 0.0
5464 C5464 68.1342 41.7132 40.7106 C.ar 0.0 **** 0.0
5465 C5465 67.4761 42.9522 40.5757 C.ar 0.0 **** 0.0
5466 C5466 68.094 44.1235 41.0496 C.ar 0.0 **** 0.0
5467 C5467 67.434 40.4844 40.2092 C.3 0.0 **** -0.106
5468 C5468 68.0934 39.1653 40.4867 C.ar 0.0 **** 0.0
5469 C5469 69.3525 39.0789 41.0373 C.ar 0.0 **** 0.0
5470 C5470 70.1285 40.3198 41.395 C.3 0.0 **** -0.106
5471 C5471 69.9388 37.7976 41.3154 C.ar 0.0 **** 0.0
5472 C5472 69.2355 36.6192 41.0871 C.ar 0.0 **** 0.0
5473 C5473 67.9457 36.689 40.4556 C.ar 0.0 **** 0.0
5474 C5474 67.3732 37.9756 40.1583 C.ar 0.0 **** 0.0
5475 C5475 66.1387 38.0751 39.4986 C.ar 0.0 **** -0.1268
5476 C5476 65.3432 36.9644 39.2222 C.ar 0.0 **** 0.0
5477 C5477 65.82 35.6752 39.6654 C.ar 0.0 **** 0.0
5478 C5478 67.1725 35.5647 40.0742 C.ar 0.0 **** 0.042
5479 C5479 64.8853 34.59 39.7315 C.2 0.0 **** 0.0
5480 C5480 63.6375 34.6926 39.1312 C.2 0.0 **** 0.0
5481 C5481 63.2985 35.855 38.3595 C.ar 0.0 **** 0.0
5482 C5482 64.1015 37.0275 38.4747 C.ar 0.0 **** 0.0
5483 C5483 62.6456 33.6169 39.5088 C.3 0.0 **** -0.106
5484 C5484 62.6006 33.513 41.0465 C.ar 0.0 **** -0.053
5485 C5485 63.9801 33.0671 41.5965 C.ar 0.0 **** -0.053
5486 C5486 65.1091 33.3519 40.5685 C.3 0.0 **** -0.106
5487 C5487 63.6611 38.2271 37.8035 C.ar 0.0 **** 0.042
5488 C5488 62.4931 38.2256 37.0039 C.ar 0.0 **** 0.052
5489 C5489 61.7414 37.041 36.8256 C.ar 0.0 **** 0.052
5490 C5490 62.1545 35.8573 37.4725 C.ar 0.0 **** 0.042
5491 C5491 60.5547 37.0137 35.9926 C.2 0.0 **** 0.367
5492 C5492 60.1395 38.2672 35.3286 C.ar 0.0 **** 0.0
5493 C5493 60.879 39.4158 35.5298 C.ar 0.0 **** 0.0
5494 C5494 62.0811 39.4369 36.3501 C.2 0.0 **** 0.367
5495 C5495 60.4766 40.6974 34.8599 C.3 0.0 **** -0.106
5496 C5496 58.9561 40.8179 34.8082 C.3 0.0 **** -0.106
5497 C5497 58.351 39.586 34.1896 C.ar 0.0 **** 0.0
5498 C5498 58.9472 38.3287 34.4557 C.ar 0.0 **** 0.2405
5499 N5499 58.4591 37.1817 33.9627 N.ar 0.0 **** -0.481
5500 C5500 57.3396 37.2141 33.2318 C.ar 0.0 **** 0.2405
5501 C5501 56.6762 38.4162 32.9054 C.ar 0.0 **** 0.0
5502 C5502 57.2026 39.6254 33.3817 C.ar 0.0 **** 0.0
5503 C5503 56.5285 40.9411 33.0568 C.3 0.0 **** -0.106
5504 C5504 55.5074 40.8452 31.9178 C.3 0.0 **** -0.106
5505 C5505 54.6136 39.6191 32.0966 C.3 0.0 **** -0.106
5506 C5506 55.4521 38.3436 32.0224 C.3 0.0 **** -0.053
5507 C5507 54.6261 37.0973 32.3462 C.3 0.0 **** -0.106
5508 C5508 55.4564 35.8378 32.3375 C.ar 0.0 **** 0.0
5509 C5509 56.7955 35.9227 32.7724 C.ar 0.0 **** 0.0
5510 C5510 57.5813 34.7633 32.821 C.ar 0.0 **** -0.1268
5511 C5511 57.0379 33.5454 32.4316 C.ar 0.0 **** -0.1268
5512 C5512 55.7046 33.4389 32.005 C.ar 0.0 **** 0.0
5513 C5513 54.9009 34.5981 31.9701 C.ar 0.0 **** 0.0
5514 C5514 67.409 45.4662 40.9041 C.3 0.0 **** -0.106
5515 C5515 66.4006 45.73 42.0335 C.3 0.0 **** -0.159
5516 C5516 69.9728 45.2761 42.3055 C.3 0.0 **** -0.159
5517 C5517 66.1093 42.9637 39.9325 C.3 0.0 **** -0.159
5518 C5518 71.4053 42.7389 42.3826 C.3 0.0 **** -0.159
5519 C5519 71.3319 37.7532 41.9027 C.3 0.0 **** -0.159
5520 C5520 69.7871 35.308 41.6011 C.3 0.0 **** -0.159
5521 O5521 67.7937 34.3359 40.0582 O.3 0.0 **** -0.452
5522 C5522 64.0612 31.5862 41.9804 C.3 0.0 **** -0.159
5523 C5523 61.4243 32.6474 41.5045 C.3 0.0 **** -0.159
5524 O5524 61.4993 34.7287 37.2302 O.3 0.0 **** -0.452
5525 O5525 64.3345 39.3696 37.9093 O.3 0.0 **** -0.452
5526 O5526 62.7535 40.5239 36.4667 O.2 0.0 **** -0.419
5527 O5527 59.8984 35.9316 35.8699 O.2 0.0 **** -0.419
5528 C5528 53.4492 34.5246 31.5564 C.3 0.0 **** -0.159
5529 C5529 55.1635 32.0884 31.6066 C.3 0.0 **** -0.159
5530 H5530 66.4142 40.4577 40.6315 H 0.0 **** 0.053
5531 H5531 67.2628 40.5816 39.1194 H 0.0 **** 0.053
5532 H5532 71.038 40.3619 40.764 H 0.0 **** 0.053
5533 H5533 70.519 40.2053 42.4204 H 0.0 **** 0.053
5534 H5534 65.7926 39.0447 39.18 H 0.0 **** 0.1268
5535 H5535 61.6473 33.8305 39.1261 H 0.0 **** 0.053
5536 H5536 62.9439 32.6396 39.0859 H 0.0 **** 0.053
5537 H5537 62.419 34.5373 41.4116 H 0.0 **** 0.053
5538 H5538 64.1967 33.6641 42.4964 H 0.0 **** 0.053
5539 H5539 65.1543 32.4761 39.8923 H 0.0 **** 0.053
5540 H5540 66.0525 33.3842 41.122 H 0.0 **** 0.053
5541 H5541 60.9387 41.5459 35.3801 H 0.0 **** 0.053
5542 H5542 60.8826 40.6962 33.8309 H 0.0 **** 0.053
5543 H5543 58.6727 41.7244 34.2592 H 0.0 **** 0.053
5544 H5544 58.5651 40.9384 35.8363 H 0.0 **** 0.053
5545 H5545 56.0287 41.3128 33.9695 H 0.0 **** 0.053
5546 H5546 57.2887 41.6971 32.8061 H 0.0 **** 0.053
5547 H5547 56.0398 40.7603 30.9557 H 0.0 **** 0.053
5548 H5548 54.912 41.7698 31.876 H 0.0 **** 0.053
5549 H5549 53.8221 39.5882 31.3311 H 0.0 **** 0.053
5550 H5550 54.1146 39.6636 33.0808 H 0.0 **** 0.053
5551 H5551 55.8136 38.2325 30.9801 H 0.0 **** 0.053
5552 H5552 54.1661 37.2271 33.3452 H 0.0 **** 0.053
5553 H5553 53.7957 37.0291 31.6299 H 0.0 **** 0.053
5554 H5554 58.6058 34.8409 33.1848 H 0.0 **** 0.1268
5555 H5555 57.6516 32.6426 32.4669 H 0.0 **** 0.1268
5556 H5556 66.8957 45.5212 39.9328 H 0.0 **** 0.053
5557 H5557 68.1563 46.2712 40.8854 H 0.0 **** 0.053
5558 H5558 66.8999 45.685 43.0135 H 0.0 **** 0.053
5559 H5559 65.6103 44.9646 42.0321 H 0.0 **** 0.053
5560 H5560 65.9276 46.7189 41.9293 H 0.0 **** 0.053
5561 H5561 70.6242 45.02 43.1507 H 0.0 **** 0.053
5562 H5562 69.21 45.9709 42.6804 H 0.0 **** 0.053
5563 H5563 70.5876 45.8293 41.574 H 0.0 **** 0.053
5564 H5564 65.4024 42.3447 40.5093 H 0.0 **** 0.053
5565 H5565 66.139 42.5273 38.9206 H 0.0 **** 0.053
5566 H5566 65.6777 43.9669 39.8566 H 0.0 **** 0.053
5567 H5567 71.9753 41.8787 42.0103 H 0.0 **** 0.053
5568 H5568 71.3603 42.6473 43.4824 H 0.0 **** 0.053
5569 H5569 71.9885 43.6421 42.1581 H 0.0 **** 0.053
5570 H5570 71.8747 36.8527 41.5888 H 0.0 **** 0.053
5571 H5571 71.3094 37.7579 43.0068 H 0.0 **** 0.053
5572 H5572 71.9272 38.6202 41.5911 H 0.0 **** 0.053
5573 H5573 68.9867 34.6894 42.0239 H 0.0 **** 0.053
5574 H5574 70.5317 35.4755 42.3876 H 0.0 **** 0.053
5575 H5575 70.2562 34.7108 40.8034 H 0.0 **** 0.053
5576 H5576 67.2416 33.7257 39.5439 H 0.0 **** 0.41
5577 H5577 63.3755 31.3349 42.8014 H 0.0 **** 0.053
5578 H5578 65.0836 31.33 42.2985 H 0.0 **** 0.053
5579 H5579 63.8091 30.9471 41.119 H 0.0 **** 0.053
5580 H5580 60.476 33.0735 41.1447 H 0.0 **** 0.053
5581 H5581 61.3755 32.5843 42.6021 H 0.0 **** 0.053
5582 H5582 61.5044 31.623 41.111 H 0.0 **** 0.053
5583 H5583 60.6929 35.0412 36.6014 H 0.0 **** 0.41
5584 H5584 63.7882 40.0606 37.3132 H 0.0 **** 0.41
5585 H5585 52.8026 35.0441 32.28 H 0.0 **** 0.053
5586 H5586 53.0977 33.4899 31.4733 H 0.0 **** 0.053
5587 H5587 53.2866 35.0106 30.5792 H 0.0 **** 0.053
5588 H5588 54.3289 31.7793 32.2572 H 0.0 **** 0.053
5589 H5589 55.9467 31.3213 31.6759 H 0.0 **** 0.053
5590 H5590 54.7785 32.0939 30.5743 H 0.0 **** 0.053
5591 C5591 11.7806 44.5839 11.807 C.ar 0.0 **** 0.0
5592 C5592 10.4379 44.1932 11.6508 C.ar 0.0 **** 0.0
5593 C5593 9.82197 44.2969 10.3878 C.ar 0.0 **** 0.0
5594 C5594 10.5521 44.7696 9.29494 C.ar 0.0 **** 0.0
5595 C5595 11.9128 45.1102 9.43147 C.ar 0.0 **** 0.0
5596 C5596 12.5358 44.9972 10.6875 C.ar 0.0 **** 0.0
5597 C5597 9.91914 44.9213 7.94291 C.3 0.0 **** -0.106
5598 C5598 8.4403 44.6833 7.85398 C.ar 0.0 **** 0.0
5599 C5599 7.71231 44.2001 8.91818 C.ar 0.0 **** 0.0
5600 C5600 8.37629 43.8924 10.2351 C.3 0.0 **** -0.106
5601 C5601 6.29292 44.0129 8.80383 C.ar 0.0 **** 0.0
5602 C5602 5.61204 44.3614 7.64177 C.ar 0.0 **** 0.0
5603 C5603 6.36449 44.8083 6.50106 C.ar 0.0 **** 0.0
5604 C5604 7.78994 44.9721 6.61481 C.ar 0.0 **** 0.0
5605 C5605 8.55708 45.3597 5.50569 C.ar 0.0 **** -0.1268
5606 C5606 7.98524 45.737 4.29181 C.ar 0.0 **** 0.0
5607 C5607 6.54355 45.7444 4.20705 C.ar 0.0 **** 0.0
5608 C5608 5.80833 45.0951 5.22993 C.ar 0.0 **** 0.042
5609 C5609 5.92904 46.4636 3.1296 C.2 0.0 **** 0.0
5610 C5610 6.68365 46.903 2.05012 C.2 0.0 **** 0.0
5611 C5611 8.07634 46.5664 1.95524 C.ar 0.0 **** 0.0
5612 C5612 8.75356 46.0674 3.10638 C.ar 0.0 **** 0.0
5613 C5613 5.99281 47.8849 1.13239 C.3 0.0 **** -0.106
5614 C5614 5.39755 49.019 1.99082 C.ar 0.0 **** -0.053
5615 C5615 4.31435 48.4578 2.94794 C.ar 0.0 **** -0.053
5616 C5616 4.49144 46.9287 3.15576 C.3 0.0 **** -0.106
5617 C5617 10.1817 45.873 3.0293 C.ar 0.0 **** 0.042
5618 C5618 10.8845 46.1158 1.82492 C.ar 0.0 **** 0.052
5619 C5619 10.1992 46.534 0.660575 C.ar 0.0 **** 0.052
5620 C5620 8.80319 46.7299 0.714015 C.ar 0.0 **** 0.042
5621 C5621 10.898 46.7665 -0.588659 C.2 0.0 **** 0.367
5622 C5622 12.361 46.5586 -0.618862 C.ar 0.0 **** 0.0
5623 C5623 13.0119 46.1659 0.533935 C.ar 0.0 **** 0.0
5624 C5624 12.3064 45.9137 1.78172 C.2 0.0 **** 0.367
5625 C5625 14.4964 45.9444 0.522141 C.3 0.0 **** -0.106
5626 C5626 15.1813 46.9664 -0.380765 C.3 0.0 **** -0.106
5627 C5627 14.5504 46.968 -1.74767 C.ar 0.0 **** 0.0
5628 C5628 13.1521 46.7648 -1.85123 C.ar 0.0 **** 0.2405
5629 N5629 12.5086 46.7731 -3.02715 N.ar 0.0 **** -0.481
5630 C5630 13.1994 47.0307 -4.1429 C.ar 0.0 **** 0.2405
5631 C5631 14.5953 47.2386 -4.14501 C.ar 0.0 **** 0.0
5632 C5632 15.2841 47.1905 -2.92459 C.ar 0.0 **** 0.0
5633 C5633 16.7817 47.405 -2.87537 C.3 0.0 **** -0.106
5634 C5634 17.4637 47.304 -4.24414 C.3 0.0 **** -0.106
5635 C5635 16.6739 48.0778 -5.2986 C.3 0.0 **** -0.106
5636 C5636 15.2857 47.4621 -5.47046 C.3 0.0 **** -0.053
5637 C5637 14.4042 48.2928 -6.40489 C.3 0.0 **** -0.106
5638 C5638 13.0106 47.7296 -6.53382 C.ar 0.0 **** 0.0
5639 C5639 12.4404 47.1046 -5.40512 C.ar 0.0 **** 0.0
5640 C5640 11.1304 46.6117 -5.47606 C.ar 0.0 **** -0.1268
5641 C5641 10.4108 46.7339 -6.65819 C.ar 0.0 **** -0.1268
5642 C5642 10.9575 47.361 -7.78909 C.ar 0.0 **** 0.0
5643 C5643 12.2692 47.8764 -7.72091 C.ar 0.0 **** 0.0
5644 C5644 13.9998 45.3472 10.8531 C.3 0.0 **** -0.106
5645 C5645 14.2179 46.8549 11.0566 C.3 0.0 **** -0.159
5646 C5646 12.41 44.5643 13.1839 C.3 0.0 **** -0.159
5647 C5647 12.6474 45.6036 8.20716 C.3 0.0 **** -0.159
5648 C5648 9.65968 43.665 12.8349 C.3 0.0 **** -0.159
5649 C5649 5.53914 43.4617 9.9937 C.3 0.0 **** -0.159
5650 C5650 4.09949 44.3677 7.63503 C.3 0.0 **** -0.159
5651 O5651 4.52125 44.672 4.9839 O.3 0.0 **** -0.452
5652 C5652 2.87351 48.7025 2.48827 C.3 0.0 **** -0.159
5653 C5653 4.92925 50.1833 1.11467 C.3 0.0 **** -0.159
5654 O5654 8.1523 47.034 -0.402012 O.3 0.0 **** -0.452
5655 O5655 10.8842 45.4582 4.0803 O.3 0.0 **** -0.452
5656 O5656 12.9576 45.5085 2.81081 O.2 0.0 **** -0.419
5657 O5657 10.2471 47.1561 -1.60911 O.2 0.0 **** -0.419
5658 C5658 12.8838 48.5948 -8.8999 C.3 0.0 **** -0.159
5659 C5659 10.1255 47.4777 -9.04195 C.3 0.0 **** -0.159
5660 H5660 10.1304 45.9359 7.56211 H 0.0 **** 0.053
5661 H5661 10.4367 44.2589 7.22191 H 0.0 **** 0.053
5662 H5662 8.29008 42.8051 10.4287 H 0.0 **** 0.053
5663 H5663 7.78451 44.3559 11.0426 H 0.0 **** 0.053
5664 H5664 9.63181 45.356 5.58612 H 0.0 **** 0.1268
5665 H5665 6.67711 48.3039 0.394349 H 0.0 **** 0.053
5666 H5666 5.1809 47.3914 0.566463 H 0.0 **** 0.053
5667 H5667 6.22642 49.3888 2.61658 H 0.0 **** 0.053
5668 H5668 4.44468 48.9401 3.92953 H 0.0 **** 0.053
5669 H5669 3.94713 46.4288 2.3311 H 0.0 **** 0.053
5670 H5670 3.98207 46.6659 4.0878 H 0.0 **** 0.053
5671 H5671 14.8823 45.979 1.54878 H 0.0 **** 0.053
5672 H5672 14.6945 44.9243 0.142565 H 0.0 **** 0.053
5673 H5673 16.2564 46.7551 -0.43422 H 0.0 **** 0.053
5674 H5674 15.0813 47.9733 0.0673209 H 0.0 **** 0.053
5675 H5675 16.9782 48.4006 -2.43818 H 0.0 **** 0.053
5676 H5676 17.2388 46.6814 -2.18278 H 0.0 **** 0.053
5677 H5677 17.5198 46.2452 -4.54751 H 0.0 **** 0.053
5678 H5678 18.4978 47.6732 -4.17032 H 0.0 **** 0.053
5679 H5679 17.2002 48.0828 -6.26624 H 0.0 **** 0.053
5680 H5680 16.563 49.1298 -4.98165 H 0.0 **** 0.053
5681 H5681 15.4097 46.4657 -5.94059 H 0.0 **** 0.053
5682 H5682 14.3475 49.3267 -6.01221 H 0.0 **** 0.053
5683 H5683 14.896 48.3608 -7.38516 H 0.0 **** 0.053
5684 H5684 10.6945 46.1555 -4.58723 H 0.0 **** 0.1268
5685 H5685 9.391 46.347 -6.71385 H 0.0 **** 0.1268
5686 H5686 14.5673 45.0092 9.97357 H 0.0 **** 0.053
5687 H5687 14.4254 44.7978 11.7039 H 0.0 **** 0.053
5688 H5688 13.6613 47.2088 11.9379 H 0.0 **** 0.053
5689 H5689 13.8492 47.4192 10.187 H 0.0 **** 0.053
5690 H5690 15.2834 47.0928 11.1996 H 0.0 **** 0.053
5691 H5691 11.6604 44.7193 13.9703 H 0.0 **** 0.053
5692 H5692 13.166 45.3527 13.2941 H 0.0 **** 0.053
5693 H5693 12.909 43.6016 13.3922 H 0.0 **** 0.053
5694 H5694 12.1781 46.521 7.81496 H 0.0 **** 0.053
5695 H5695 12.6027 44.8662 7.38884 H 0.0 **** 0.053
5696 H5696 13.7004 45.8326 8.40006 H 0.0 **** 0.053
5697 H5697 8.83121 43.016 12.5252 H 0.0 **** 0.053
5698 H5698 9.22372 44.4853 13.4324 H 0.0 **** 0.053
5699 H5699 10.3008 43.0811 13.5089 H 0.0 **** 0.053
5700 H5700 4.66614 42.8742 9.68265 H 0.0 **** 0.053
5701 H5701 5.17664 44.2677 10.6559 H 0.0 **** 0.053
5702 H5702 6.17409 42.8076 10.6037 H 0.0 **** 0.053
5703 H5703 3.71755 45.2402 7.0918 H 0.0 **** 0.053
5704 H5704 3.70154 44.4081 8.65528 H 0.0 **** 0.053
5705 H5705 3.68031 43.48 7.13597 H 0.0 **** 0.053
5706 H5706 4.37274 44.7001 4.02535 H 0.0 **** 0.41
5707 H5707 2.63149 49.7732 2.44275 H 0.0 **** 0.053
5708 H5708 2.16538 48.2211 3.18029 H 0.0 **** 0.053
5709 H5709 2.70679 48.2731 1.48734 H 0.0 **** 0.053
5710 H5710 5.77103 50.58 0.527927 H 0.0 **** 0.053
5711 H5711 4.52008 51.0043 1.72274 H 0.0 **** 0.053
5712 H5712 4.14752 49.8641 0.409288 H 0.0 **** 0.053
5713 H5713 8.93461 47.1411 -1.12297 H 0.0 **** 0.41
5714 H5714 11.8864 45.4005 3.72881 H 0.0 **** 0.41
5715 H5715 13.3268 49.5548 -8.59392 H 0.0 **** 0.053
5716 H5716 12.1476 48.7992 -9.6857 H 0.0 **** 0.053
5717 H5717 13.6961 48.0001 -9.35173 H 0.0 **** 0.053
5718 H5718 9.94647 48.5315 -9.31172 H 0.0 **** 0.053
5719 H5719 9.14867 46.9943 -8.90489 H 0.0 **** 0.053
5720 H5720 10.6233 47.0073 -9.90498 H 0.0 **** 0.053
5721 C5721 12.0365 18.3897 58.8916 C.ar 0.0 **** 0.0
5722 C5722 12.3774 19.3203 57.8928 C.ar 0.0 **** 0.0
5723 C5723 11.9865 19.0893 56.559 C.ar 0.0 **** 0.0
5724 C5724 11.2481 17.9478 56.2387 C.ar 0.0 **** 0.0
5725 C5725 10.8552 17.0397 57.2424 C.ar 0.0 **** 0.0
5726 C5726 11.2326 17.2718 58.5773 C.ar 0.0 **** 0.0
5727 C5727 10.8414 17.6553 54.8243 C.3 0.0 **** -0.106
5728 C5728 11.3857 18.5613 53.7592 C.ar 0.0 **** 0.0
5729 C5729 12.0993 19.6994 54.062 C.ar 0.0 **** 0.0
5730 C5730 12.373 20.0845 55.4926 C.3 0.0 **** -0.106
5731 C5731 12.6296 20.5262 53.0142 C.ar 0.0 **** 0.0
5732 C5732 12.4833 20.1748 51.6761 C.ar 0.0 **** 0.0
5733 C5733 11.6888 19.0245 51.3408 C.ar 0.0 **** 0.0
5734 C5734 11.1406 18.2125 52.3953 C.ar 0.0 **** 0.0
5735 C5735 10.3212 17.1124 52.0999 C.ar 0.0 **** -0.1268
5736 C5736 10.1064 16.6641 50.7977 C.ar 0.0 **** 0.0
5737 C5737 10.7857 17.3617 49.7312 C.ar 0.0 **** 0.0
5738 C5738 11.3756 18.6175 50.0203 C.ar 0.0 **** 0.042
5739 C5739 10.8856 16.7193 48.4533 C.2 0.0 **** 0.0
5740 C5740 10.1224 15.5962 48.1637 C.2 0.0 **** 0.0
5741 C5741 9.15619 15.1136 49.1099 C.ar 0.0 **** 0.0
5742 C5742 9.20498 15.5798 50.4564 C.ar 0.0 **** 0.0
5743 C5743 10.5193 14.847 46.9128 C.3 0.0 **** -0.106
5744 C5744 12.0377 14.5835 46.9633 C.ar 0.0 **** -0.053
5745 C5745 12.8173 15.9238 46.9523 C.ar 0.0 **** -0.053
5746 C5746 11.912 17.0996 47.4114 C.3 0.0 **** -0.106
5747 C5747 8.31922 14.9751 51.4224 C.ar 0.0 **** 0.042
5748 C5748 7.38535 13.9854 51.0327 C.ar 0.0 **** 0.052
5749 C5749 7.28288 13.5813 49.6813 C.ar 0.0 **** 0.052
5750 C5750 8.13902 14.1598 48.7209 C.ar 0.0 **** 0.042
5751 C5751 6.31748 12.5851 49.2585 C.2 0.0 **** 0.367
5752 C5752 5.43429 11.9904 50.2835 C.ar 0.0 **** 0.0
5753 C5753 5.56279 12.388 51.5997 C.ar 0.0 **** 0.0
5754 C5754 6.51857 13.4022 52.0192 C.2 0.0 **** 0.367
5755 C5755 4.67152 11.7995 52.6544 C.3 0.0 **** -0.106
5756 C5756 4.40931 10.3235 52.3688 C.3 0.0 **** -0.106
5757 C5757 3.90011 10.1413 50.9638 C.ar 0.0 **** 0.0
5758 C5758 4.41646 10.9738 49.9403 C.ar 0.0 **** 0.2405
5759 N5759 4.03338 10.8631 48.6605 N.ar 0.0 **** -0.481
5760 C5760 3.16835 9.90059 48.3232 C.ar 0.0 **** 0.2405
5761 C5761 2.59213 9.02681 49.2698 C.ar 0.0 **** 0.0
5762 C5762 2.95478 9.16179 50.6176 C.ar 0.0 **** 0.0
5763 C5763 2.36245 8.24999 51.6707 C.3 0.0 **** -0.106
5764 C5764 1.12775 7.47791 51.193 C.3 0.0 **** -0.106
5765 C5765 1.36348 6.89077 49.8023 C.3 0.0 **** -0.106
5766 C5766 1.57928 8.01387 48.7886 C.3 0.0 **** -0.053
5767 C5767 1.96896 7.47339 47.4115 C.3 0.0 **** -0.106
5768 C5768 2.24578 8.57423 46.4179 C.ar 0.0 **** 0.0
5769 C5769 2.83164 9.76587 46.8938 C.ar 0.0 **** 0.0
5770 C5770 3.14477 10.7908 45.9907 C.ar 0.0 **** -0.1268
5771 C5771 2.8665 10.6278 44.6393 C.ar 0.0 **** -0.1268
5772 C5772 2.2925 9.44564 44.1452 C.ar 0.0 **** 0.0
5773 C5773 1.99059 8.40141 45.0448 C.ar 0.0 **** 0.0
5774 C5774 10.8113 16.3144 59.6723 C.3 0.0 **** -0.106
5775 C5775 11.7534 15.1051 59.7819 C.3 0.0 **** -0.159
5776 C5776 12.5414 18.5903 60.3048 C.3 0.0 **** -0.159
5777 C5777 10.0477 15.8315 56.8299 C.3 0.0 **** -0.159
5778 C5778 13.1613 20.563 58.2508 C.3 0.0 **** -0.159
5779 C5779 13.3904 21.7764 53.3961 C.3 0.0 **** -0.159
5780 C5780 13.2449 20.9381 50.6153 C.3 0.0 **** -0.159
5781 O5781 11.6141 19.5121 49.001 O.3 0.0 **** -0.452
5782 C5782 13.4153 16.2986 45.5925 C.3 0.0 **** -0.159
5783 C5783 12.4601 13.5942 45.8745 C.3 0.0 **** -0.159
5784 O5784 7.97818 13.8447 47.4416 O.3 0.0 **** -0.452
5785 O5785 8.34651 15.3261 52.7054 O.3 0.0 **** -0.452
5786 O5786 6.56429 13.7639 53.2498 O.2 0.0 **** -0.419
5787 O5787 6.26719 12.2386 48.0362 O.2 0.0 **** -0.419
5788 C5788 1.4095 7.09599 44.5528 C.3 0.0 **** -0.159
5789 C5789 2.02456 9.31834 42.6661 C.3 0.0 **** -0.159
5790 H5790 11.1293 16.6184 54.5777 H 0.0 **** 0.053
5791 H5791 9.73595 17.642 54.7584 H 0.0 **** 0.053
5792 H5792 11.8638 21.0455 55.7034 H 0.0 **** 0.053
5793 H5793 13.4457 20.3222 55.5924 H 0.0 **** 0.053
5794 H5794 9.82635 16.5973 52.9069 H 0.0 **** 0.1268
5795 H5795 9.98581 13.901 46.8176 H 0.0 **** 0.053
5796 H5796 10.2815 15.4365 46.008 H 0.0 **** 0.053
5797 H5797 12.2271 14.1034 47.9375 H 0.0 **** 0.053
5798 H5798 13.6433 15.843 47.6764 H 0.0 **** 0.053
5799 H5799 11.3787 17.4628 46.5114 H 0.0 **** 0.053
5800 H5800 12.5712 17.9062 47.7462 H 0.0 **** 0.053
5801 H5801 5.12039 11.9533 53.6438 H 0.0 **** 0.053
5802 H5802 3.71348 12.3527 52.6507 H 0.0 **** 0.053
5803 H5803 3.70526 9.92049 53.1072 H 0.0 **** 0.053
5804 H5804 5.35132 9.7559 52.4909 H 0.0 **** 0.053
5805 H5805 3.14158 7.53596 51.9934 H 0.0 **** 0.053
5806 H5806 2.10597 8.83455 52.5677 H 0.0 **** 0.053
5807 H5807 0.263505 8.16157 51.1488 H 0.0 **** 0.053
5808 H5808 0.879022 6.69093 51.9209 H 0.0 **** 0.053
5809 H5809 0.515377 6.26301 49.486 H 0.0 **** 0.053
5810 H5810 2.25938 6.24528 49.8186 H 0.0 **** 0.053
5811 H5811 0.618227 8.55316 48.6663 H 0.0 **** 0.053
5812 H5812 2.87225 6.84215 47.5214 H 0.0 **** 0.053
5813 H5813 1.16945 6.80952 47.0544 H 0.0 **** 0.053
5814 H5814 3.6217 11.6944 46.3702 H 0.0 **** 0.1268
5815 H5815 3.10805 11.428 43.9363 H 0.0 **** 0.1268
5816 H5816 9.7845 15.965 59.4893 H 0.0 **** 0.053
5817 H5817 10.7738 16.8377 60.6375 H 0.0 **** 0.053
5818 H5818 12.7855 15.4374 59.9718 H 0.0 **** 0.053
5819 H5819 11.76 14.5343 58.8413 H 0.0 **** 0.053
5820 H5820 11.45 14.4297 60.5968 H 0.0 **** 0.053
5821 H5821 13.4907 19.1407 60.3176 H 0.0 **** 0.053
5822 H5822 12.713 17.6322 60.8126 H 0.0 **** 0.053
5823 H5823 11.8232 19.1616 60.9188 H 0.0 **** 0.053
5824 H5824 10.6116 15.2127 56.1124 H 0.0 **** 0.053
5825 H5825 9.12029 16.1272 56.3123 H 0.0 **** 0.053
5826 H5826 9.77522 15.1877 57.6724 H 0.0 **** 0.053
5827 H5827 12.9911 21.3763 57.5344 H 0.0 **** 0.053
5828 H5828 14.248 20.3666 58.2669 H 0.0 **** 0.053
5829 H5829 12.8869 20.9384 59.2458 H 0.0 **** 0.053
5830 H5830 13.2797 22.564 52.6401 H 0.0 **** 0.053
5831 H5831 14.4706 21.5774 53.511 H 0.0 **** 0.053
5832 H5832 13.0372 22.186 54.3504 H 0.0 **** 0.053
5833 H5833 13.6457 20.2543 49.8577 H 0.0 **** 0.053
5834 H5834 14.0882 21.4845 51.0527 H 0.0 **** 0.053
5835 H5835 12.6069 21.659 50.0803 H 0.0 **** 0.053
5836 H5836 11.1257 19.2136 48.2175 H 0.0 **** 0.41
5837 H5837 14.1692 15.5722 45.2593 H 0.0 **** 0.053
5838 H5838 13.8945 17.2883 45.6463 H 0.0 **** 0.053
5839 H5839 12.6285 16.3497 44.8229 H 0.0 **** 0.053
5840 H5840 11.9252 12.641 45.9987 H 0.0 **** 0.053
5841 H5841 13.5403 13.3875 45.9167 H 0.0 **** 0.053
5842 H5842 12.2299 13.9816 44.8707 H 0.0 **** 0.053
5843 H5843 7.21348 13.0977 47.4654 H 0.0 **** 0.41
5844 H5844 7.5933 14.7312 53.1636 H 0.0 **** 0.41
5845 H5845 1.96315 6.23585 44.9592 H 0.0 **** 0.053
5846 H5846 1.43022 7.02328 43.4594 H 0.0 **** 0.053
5847 H5847 0.360383 6.97876 44.874 H 0.0 **** 0.053
5848 H5848 2.60047 8.49052 42.2207 H 0.0 **** 0.053
5849 H5849 2.30177 10.2425 42.1411 H 0.0 **** 0.053
5850 H5850 0.961313 9.11337 42.4625 H 0.0 **** 0.053
5851 C5851 76.4833 52.7129 62.5436 C.ar 0.0 **** 0.0
5852 C5852 77.0068 53.4819 61.4879 C.ar 0.0 **** 0.0
5853 C5853 76.7173 53.1285 60.155 C.ar 0.0 **** 0.0
5854 C5854 75.8986 52.0285 59.8895 C.ar 0.0 **** 0.0
5855 C5855 75.3256 51.2871 60.9421 C.ar 0.0 **** 0.0
5856 C5856 75.6016 51.6428 62.2747 C.ar 0.0 **** 0.0
5857 C5857 75.5946 51.6061 58.4821 C.3 0.0 **** -0.106
5858 C5858 76.3231 52.3244 57.3843 C.ar 0.0 **** 0.0
5859 C5859 77.1185 53.4211 57.6304 C.ar 0.0 **** 0.0
5860 C5860 77.2987 53.9491 59.03 C.3 0.0 **** -0.106
5861 C5861 77.8234 54.0645 56.5571 C.ar 0.0 **** 0.0
5862 C5862 77.7645 53.5694 55.2583 C.ar 0.0 **** 0.0
5863 C5863 76.8906 52.4639 54.9732 C.ar 0.0 **** 0.0
5864 C5864 76.1689 51.8378 56.0497 C.ar 0.0 **** 0.0
5865 C5865 75.2719 50.789 55.7959 C.ar 0.0 **** -0.1268
5866 C5866 75.1319 50.2087 54.5363 C.ar 0.0 **** 0.0
5867 C5867 75.973 50.7085 53.4741 C.ar 0.0 **** 0.0
5868 C5868 76.659 51.9312 53.681 C.ar 0.0 **** 0.042
5869 C5869 76.1228 49.9107 52.2922 C.2 0.0 **** 0.0
5870 C5870 75.2786 48.8347 52.0525 C.2 0.0 **** 0.0
5871 C5871 74.1861 48.559 52.9426 C.ar 0.0 **** 0.0
5872 C5872 74.1594 49.1774 54.227 C.ar 0.0 **** 0.0
5873 C5873 75.7092 47.9076 50.9395 C.3 0.0 **** -0.106
5874 C5874 77.1819 47.5155 51.1738 C.ar 0.0 **** -0.053
5875 C5875 78.0918 48.7686 51.0941 C.ar 0.0 **** -0.053
5876 C5876 77.2731 50.0682 51.325 C.3 0.0 **** -0.106
5877 C5877 73.1325 48.7761 55.1584 C.ar 0.0 **** 0.042
5878 C5878 72.1419 47.8355 54.7875 C.ar 0.0 **** 0.052
5879 C5879 72.1222 47.2828 53.4859 C.ar 0.0 **** 0.052
5880 C5880 73.1167 47.6616 52.5598 C.ar 0.0 **** 0.042
5881 C5881 71.1028 46.3347 53.0797 C.2 0.0 **** 0.367
5882 C5882 70.074 45.9501 54.0686 C.ar 0.0 **** 0.0
5883 C5883 70.122 46.4898 55.3388 C.ar 0.0 **** 0.0
5884 C5884 71.134 47.4562 55.7388 C.2 0.0 **** 0.367
5885 C5885 69.0832 46.1157 56.3556 C.3 0.0 **** -0.106
5886 C5886 68.6989 44.6459 56.2101 C.3 0.0 **** -0.106
5887 C5887 68.3038 44.343 54.7894 C.ar 0.0 **** 0.0
5888 C5888 68.9933 44.9961 53.738 C.ar 0.0 **** 0.2405
5889 N5889 68.719 44.7675 52.446 N.ar 0.0 **** -0.481
5890 C5890 67.7946 43.8539 52.1308 C.ar 0.0 **** 0.2405
5891 C5891 67.0486 43.1562 53.1046 C.ar 0.0 **** 0.0
5892 C5892 67.299 43.4188 54.4591 C.ar 0.0 **** 0.0
5893 C5893 66.5234 42.6977 55.5407 C.3 0.0 **** -0.106
5894 C5894 65.2651 41.989 55.0278 C.3 0.0 **** -0.106
5895 C5895 65.5653 41.2199 53.7422 C.3 0.0 **** -0.106
5896 C5896 65.9858 42.1887 52.6376 C.3 0.0 **** -0.053
5897 C5897 66.442 41.4535 51.3761 C.3 0.0 **** -0.106
5898 C5898 66.9189 42.3972 50.3001 C.ar 0.0 **** 0.0
5899 C5899 67.5774 43.5793 50.6983 C.ar 0.0 **** 0.0
5900 C5900 68.0742 44.4555 49.7239 C.ar 0.0 **** -0.1268
5901 C5901 67.9049 44.1571 48.3776 C.ar 0.0 **** -0.1268
5902 C5902 67.2608 42.9811 47.9615 C.ar 0.0 **** 0.0
5903 C5903 66.7734 42.0844 48.9357 C.ar 0.0 **** 0.0
5904 C5904 74.987 50.8663 63.4202 C.3 0.0 **** -0.106
5905 C5905 75.7871 49.5985 63.7589 C.3 0.0 **** -0.159
5906 C5906 76.8754 53.0354 63.97 C.3 0.0 **** -0.159
5907 C5907 74.44 50.1163 60.5858 C.3 0.0 **** -0.159
5908 C5908 77.8773 54.6824 61.7841 C.3 0.0 **** -0.159
5909 C5909 78.6698 55.2773 56.8738 C.3 0.0 **** -0.159
5910 C5910 78.6933 54.1274 54.2029 C.3 0.0 **** -0.159
5911 O5911 77.0793 52.6714 52.5985 O.3 0.0 **** -0.452
5912 C5912 78.8461 48.9214 49.7694 C.3 0.0 **** -0.159
5913 C5913 77.5986 46.3683 50.2503 C.3 0.0 **** -0.159
5914 O5914 73.0416 47.2108 51.3137 O.3 0.0 **** -0.452
5915 O5915 73.0785 49.2749 56.3906 O.3 0.0 **** -0.452
5916 O5916 71.1042 47.9577 56.9199 O.2 0.0 **** -0.419
5917 O5917 71.1288 45.8497 51.9046 O.2 0.0 **** -0.419
5918 C5918 66.1095 40.7874 48.5347 C.3 0.0 **** -0.159
5919 C5919 67.117 42.7017 46.4861 C.3 0.0 **** -0.159
5920 H5920 75.7966 50.5253 58.3827 H 0.0 **** 0.053
5921 H5921 74.5042 51.6853 58.3054 H 0.0 **** 0.053
5922 H5922 76.8731 54.9706 59.0797 H 0.0 **** 0.053
5923 H5923 78.3765 54.0988 59.2119 H 0.0 **** 0.053
5924 H5924 74.6557 50.4217 56.6002 H 0.0 **** 0.1268
5925 H5925 75.0929 47.0094 50.8958 H 0.0 **** 0.053
5926 H5926 75.6161 48.4032 49.9553 H 0.0 **** 0.053
5927 H5927 77.2319 47.1409 52.2095 H 0.0 **** 0.053
5928 H5928 78.8359 48.7008 51.9033 H 0.0 **** 0.053
5929 H5929 76.8637 50.3674 50.3405 H 0.0 **** 0.053
5930 H5930 77.9779 50.8461 51.6339 H 0.0 **** 0.053
5931 H5931 69.4535 46.346 57.3625 H 0.0 **** 0.053
5932 H5932 68.1908 46.749 56.1927 H 0.0 **** 0.053
5933 H5933 67.8932 44.4002 56.9128 H 0.0 **** 0.053
5934 H5934 69.5631 44.0141 56.49 H 0.0 **** 0.053
5935 H5935 67.1931 41.96 56.0185 H 0.0 **** 0.053
5936 H5936 66.2473 43.4068 56.3364 H 0.0 **** 0.053
5937 H5937 64.4826 42.7379 54.82 H 0.0 **** 0.053
5938 H5938 64.8722 41.3211 55.8093 H 0.0 **** 0.053
5939 H5939 64.6899 40.6382 53.4125 H 0.0 **** 0.053
5940 H5940 66.3855 40.5025 53.9216 H 0.0 **** 0.053
5941 H5941 65.0998 42.7943 52.3588 H 0.0 **** 0.053
5942 H5942 67.2625 40.7608 51.6471 H 0.0 **** 0.053
5943 H5943 65.6148 40.8268 51.015 H 0.0 **** 0.053
5944 H5944 68.6043 45.3513 50.0476 H 0.0 **** 0.1268
5945 H5945 68.2898 44.8418 47.6186 H 0.0 **** 0.1268
5946 H5946 73.9509 50.5919 63.1731 H 0.0 **** 0.053
5947 H5947 74.9154 51.5031 64.3126 H 0.0 **** 0.053
5948 H5948 76.826 49.8562 64.0153 H 0.0 **** 0.053
5949 H5949 75.8209 48.9205 62.8931 H 0.0 **** 0.053
5950 H5950 75.3434 49.0563 64.6084 H 0.0 **** 0.053
5951 H5951 77.8707 53.495 64.0187 H 0.0 **** 0.053
5952 H5952 76.9015 52.1337 64.5957 H 0.0 **** 0.053
5953 H5953 76.1663 53.7391 64.4402 H 0.0 **** 0.053
5954 H5954 75.0008 49.3671 60.0028 H 0.0 **** 0.053
5955 H5955 73.5985 50.4304 59.9465 H 0.0 **** 0.053
5956 H5956 74.0278 49.6059 61.4622 H 0.0 **** 0.053
5957 H5957 77.8568 55.4156 60.9683 H 0.0 **** 0.053
5958 H5958 78.9324 54.3916 61.9329 H 0.0 **** 0.053
5959 H5959 77.5533 55.198 62.6981 H 0.0 **** 0.053
5960 H5960 78.7092 55.9751 56.0278 H 0.0 **** 0.053
5961 H5961 79.7091 54.9965 57.1198 H 0.0 **** 0.053
5962 H5962 78.2748 55.829 57.7356 H 0.0 **** 0.053
5963 H5963 79.0895 53.3239 53.5707 H 0.0 **** 0.053
5964 H5964 79.5445 54.6437 54.6609 H 0.0 **** 0.053
5965 H5965 78.1834 54.8335 53.5289 H 0.0 **** 0.053
5966 H5966 76.6362 52.3263 51.8071 H 0.0 **** 0.41
5967 H5967 79.5492 48.0947 49.5976 H 0.0 **** 0.053
5968 H5968 79.4168 49.8628 49.7618 H 0.0 **** 0.053
5969 H5969 78.142 48.9506 48.9224 H 0.0 **** 0.053
5970 H5970 76.9602 45.4894 50.4241 H 0.0 **** 0.053
5971 H5971 78.6437 46.0711 50.4254 H 0.0 **** 0.053
5972 H5972 77.5014 46.6515 49.1916 H 0.0 **** 0.053
5973 H5973 72.2058 46.5446 51.3418 H 0.0 **** 0.41
5974 H5974 72.23 48.8102 56.8326 H 0.0 **** 0.41
5975 H5975 66.5333 39.9357 49.0884 H 0.0 **** 0.053
5976 H5976 66.2221 40.5821 47.464 H 0.0 **** 0.053
5977 H5977 65.029 40.8052 48.7581 H 0.0 **** 0.053
5978 H5978 67.6436 41.7775 46.1965 H 0.0 **** 0.053
5979 H5979 67.5335 43.527 45.8929 H 0.0 **** 0.053
5980 H5980 66.0613 42.571 46.1989 H 0.0 **** 0.053
5981 C5981 24.3955 41.0952 73.9887 C.ar 0.0 **** 0.0
5982 C5982 24.1181 39.7194 74.0896 C.ar 0.0 **** 0.0
5983 C5983 24.9862 38.7852 73.4906 C.ar 0.0 **** 0.0
5984 C5984 26.1259 39.2285 72.8158 C.ar 0.0 **** 0.0
5985 C5985 26.4399 40.6013 72.7582 C.ar 0.0 **** 0.0
5986 C5986 25.5829 41.5372 73.3648 C.ar 0.0 **** 0.0
5987 C5987 27.0555 38.2633 72.1407 C.3 0.0 **** -0.106
5988 C5988 26.6294 36.8252 72.099 C.ar 0.0 **** 0.0
5989 C5989 25.5186 36.372 72.7748 C.ar 0.0 **** 0.0
5990 C5990 24.6697 37.3132 73.5892 C.3 0.0 **** -0.106
5991 C5991 25.1255 34.9934 72.6869 C.ar 0.0 **** 0.0
5992 C5992 25.8199 34.0967 71.8811 C.ar 0.0 **** 0.0
5993 C5993 27.0171 34.5383 71.2187 C.ar 0.0 **** 0.0
5994 C5994 27.4186 35.9161 71.3292 C.ar 0.0 **** 0.0
5995 C5995 28.6074 36.3655 70.7345 C.ar 0.0 **** -0.1268
5996 C5996 29.3827 35.5593 69.9027 C.ar 0.0 **** 0.0
5997 C5997 28.9078 34.2211 69.639 C.ar 0.0 **** 0.0
5998 C5998 27.8712 33.7044 70.4556 C.ar 0.0 **** 0.042
5999 C5999 29.4626 33.5096 68.5248 C.2 0.0 **** 0.0
6000 C6000 30.6077 33.9706 67.8892 C.2 0.0 **** 0.0
6001 C6001 31.3036 35.1203 68.3951 C.ar 0.0 **** 0.0
6002 C6002 30.6538 35.9705 69.3373 C.ar 0.0 **** 0.0
6003 C6003 30.9276 33.3096 66.5685 C.3 0.0 **** -0.106
6004 C6004 29.6614 33.339 65.6891 C.ar 0.0 **** -0.053
6005 C6005 28.5298 32.5076 66.3469 C.ar 0.0 **** -0.053
6006 C6006 28.78 32.3311 67.8697 C.3 0.0 **** -0.106
6007 C6007 31.3131 37.1956 69.7218 C.ar 0.0 **** 0.042
6008 C6008 32.5974 37.518 69.2216 C.ar 0.0 **** 0.052
6009 C6009 33.2753 36.6349 68.3494 C.ar 0.0 **** 0.052
6010 C6010 32.649 35.432 67.9611 C.ar 0.0 **** 0.042
6011 C6011 34.6006 36.9367 67.8439 C.2 0.0 **** 0.367
6012 C6012 35.2345 38.2049 68.2615 C.ar 0.0 **** 0.0
6013 C6013 34.5476 39.0597 69.1008 C.ar 0.0 **** 0.0
6014 C6014 33.2258 38.7461 69.6231 C.2 0.0 **** 0.367
6015 C6015 35.1766 40.3497 69.5404 C.3 0.0 **** -0.106
6016 C6016 35.9972 40.9571 68.406 C.3 0.0 **** -0.106
6017 C6017 36.977 39.9494 67.8667 C.ar 0.0 **** 0.0
6018 C6018 36.5862 38.5892 67.8006 C.ar 0.0 **** 0.2405
6019 N6019 37.3891 37.6323 67.3142 N.ar 0.0 **** -0.481
6020 C6020 38.5861 37.9757 66.8267 C.ar 0.0 **** 0.2405
6021 C6021 39.0692 39.3014 66.8542 C.ar 0.0 **** 0.0
6022 C6022 38.2534 40.3032 67.3993 C.ar 0.0 **** 0.0
6023 C6023 38.7278 41.7396 67.4534 C.3 0.0 **** -0.106
6024 C6024 40.2338 41.9001 67.2184 C.3 0.0 **** -0.106
6025 C6025 40.6882 41.0506 66.0325 C.3 0.0 **** -0.106
6026 C6026 40.4616 39.5691 66.3314 C.3 0.0 **** -0.053
6027 C6027 40.7602 38.689 65.1162 C.3 0.0 **** -0.106
6028 C6028 40.4805 37.2301 65.379 C.ar 0.0 **** 0.0
6029 C6029 39.4063 36.9036 66.2329 C.ar 0.0 **** 0.0
6030 C6030 39.0898 35.5577 66.4619 C.ar 0.0 **** -0.1268
6031 C6031 39.8419 34.5597 65.8549 C.ar 0.0 **** -0.1268
6032 C6032 40.9085 34.8646 64.9945 C.ar 0.0 **** 0.0
6033 C6033 41.2228 36.2171 64.744 C.ar 0.0 **** 0.0
6034 C6034 25.9079 43.0157 73.3241 C.3 0.0 **** -0.106
6035 C6035 25.446 43.6769 72.0158 C.3 0.0 **** -0.159
6036 C6036 23.4104 42.1 74.5477 C.3 0.0 **** -0.159
6037 C6037 27.6937 41.0124 72.0227 C.3 0.0 **** -0.159
6038 C6038 22.8919 39.2466 74.8378 C.3 0.0 **** -0.159
6039 C6039 23.9091 34.5386 73.4622 C.3 0.0 **** -0.159
6040 C6040 25.2487 32.7184 71.6321 C.3 0.0 **** -0.159
6041 O6041 27.7028 32.3422 70.567 O.3 0.0 **** -0.452
6042 C6042 28.3328 31.114 65.7418 C.3 0.0 **** -0.159
6043 C6043 29.9849 32.9419 64.2468 C.3 0.0 **** -0.159
6044 O6044 33.3244 34.5654 67.2164 O.3 0.0 **** -0.452
6045 O6045 30.7421 38.0593 70.5573 O.3 0.0 **** -0.452
6046 O6046 32.6525 39.5587 70.4345 O.2 0.0 **** -0.419
6047 O6047 35.1701 36.1231 67.0499 O.2 0.0 **** -0.419
6048 C6048 42.3363 36.5927 63.7937 C.3 0.0 **** -0.159
6049 C6049 41.6823 33.7401 64.3522 C.3 0.0 **** -0.159
6050 H6050 27.2315 38.6029 71.105 H 0.0 **** 0.053
6051 H6051 28.0558 38.3313 72.6112 H 0.0 **** 0.053
6052 H6052 24.726 37.009 74.6529 H 0.0 **** 0.053
6053 H6053 23.6118 37.1526 73.3204 H 0.0 **** 0.053
6054 H6054 28.9456 37.369 70.935 H 0.0 **** 0.1268
6055 H6055 31.746 33.8095 66.0501 H 0.0 **** 0.053
6056 H6056 31.2427 32.2603 66.719 H 0.0 **** 0.053
6057 H6057 29.3291 34.3901 65.676 H 0.0 **** 0.053
6058 H6058 27.5868 33.0649 66.2313 H 0.0 **** 0.053
6059 H6059 29.4295 31.4418 67.9861 H 0.0 **** 0.053
6060 H6060 27.8173 32.0933 68.3322 H 0.0 **** 0.053
6061 H6061 34.3985 41.0359 69.8979 H 0.0 **** 0.053
6062 H6062 35.8366 40.1404 70.4032 H 0.0 **** 0.053
6063 H6063 36.505 41.8637 68.7576 H 0.0 **** 0.053
6064 H6064 35.3165 41.2738 67.5932 H 0.0 **** 0.053
6065 H6065 38.1725 42.3201 66.6947 H 0.0 **** 0.053
6066 H6066 38.4578 42.1846 68.4236 H 0.0 **** 0.053
6067 H6067 40.781 41.5755 68.1191 H 0.0 **** 0.053
6068 H6068 40.4725 42.963 67.062 H 0.0 **** 0.053
6069 H6069 41.7512 41.2245 65.8021 H 0.0 **** 0.053
6070 H6070 40.1096 41.3278 65.1337 H 0.0 **** 0.053
6071 H6071 41.1685 39.2699 67.1314 H 0.0 **** 0.053
6072 H6072 40.139 39.035 64.2672 H 0.0 **** 0.053
6073 H6073 41.8061 38.8441 64.8174 H 0.0 **** 0.053
6074 H6074 38.2402 35.3221 67.1028 H 0.0 **** 0.1268
6075 H6075 39.5966 33.5109 66.036 H 0.0 **** 0.1268
6076 H6076 26.9906 43.1645 73.4488 H 0.0 **** 0.053
6077 H6077 25.4426 43.5281 74.1772 H 0.0 **** 0.053
6078 H6078 24.3622 43.5428 71.8786 H 0.0 **** 0.053
6079 H6079 25.9462 43.2143 71.1519 H 0.0 **** 0.053
6080 H6080 25.6666 44.7557 72.0092 H 0.0 **** 0.053
6081 H6081 22.3857 41.7074 74.5351 H 0.0 **** 0.053
6082 H6082 23.41 43.0317 73.9671 H 0.0 **** 0.053
6083 H6083 23.6463 42.3664 75.593 H 0.0 **** 0.053
6084 H6084 27.6442 40.7028 70.9656 H 0.0 **** 0.053
6085 H6085 28.5849 40.5175 72.4425 H 0.0 **** 0.053
6086 H6086 27.8671 42.0932 72.0383 H 0.0 **** 0.053
6087 H6087 23.0094 38.2224 75.2129 H 0.0 **** 0.053
6088 H6088 21.9949 39.2555 74.1934 H 0.0 **** 0.053
6089 H6089 22.6748 39.8902 75.7009 H 0.0 **** 0.053
6090 H6090 23.9961 33.4896 73.7724 H 0.0 **** 0.053
6091 H6091 22.9857 34.6311 72.8636 H 0.0 **** 0.053
6092 H6092 23.7637 35.1377 74.3694 H 0.0 **** 0.053
6093 H6093 25.3781 32.4286 70.5827 H 0.0 **** 0.053
6094 H6094 24.1766 32.6901 71.8575 H 0.0 **** 0.053
6095 H6095 25.7486 31.944 72.2348 H 0.0 **** 0.053
6096 H6096 28.4953 31.9104 70.2104 H 0.0 **** 0.41
6097 H6097 28.0234 31.1618 64.6886 H 0.0 **** 0.053
6098 H6098 27.5614 30.5613 66.3 H 0.0 **** 0.053
6099 H6099 29.2664 30.5314 65.796 H 0.0 **** 0.053
6100 H6100 30.7336 33.6274 63.8227 H 0.0 **** 0.053
6101 H6101 29.0885 32.9788 63.6094 H 0.0 **** 0.053
6102 H6102 30.394 31.9219 64.1947 H 0.0 **** 0.053
6103 H6103 34.2401 35.0777 67.0103 H 0.0 **** 0.41
6104 H6104 31.4512 38.8455 70.6584 H 0.0 **** 0.41
6105 H6105 42.0004 37.3467 63.0655 H 0.0 **** 0.053
6106 H6106 42.7084 35.7269 63.2342 H 0.0 **** 0.053
6107 H6107 43.1921 37.0323 64.334 H 0.0 **** 0.053
6108 H6108 41.6012 33.7698 63.2531 H 0.0 **** 0.053
6109 H6109 41.3046 32.7662 64.6918 H 0.0 **** 0.053
6110 H6110 42.7556 33.7958 64.5947 H 0.0 **** 0.053
6111 C6111 35.9402 29.4952 27.8919 C.ar 0.0 **** 0.0
6112 C6112 37.2463 29.8151 27.4776 C.ar 0.0 **** 0.0
6113 C6113 37.9214 30.901 28.0696 C.ar 0.0 **** 0.0
6114 C6114 37.2979 31.642 29.076 C.ar 0.0 **** 0.0
6115 C6115 36.0118 31.2932 29.5349 C.ar 0.0 **** 0.0
6116 C6116 35.3383 30.2028 28.9556 C.ar 0.0 **** 0.0
6117 C6117 37.9758 32.8228 29.7067 C.3 0.0 **** -0.106
6118 C6118 39.2823 33.2559 29.1091 C.ar 0.0 **** 0.0
6119 C6119 39.9163 32.5247 28.1297 C.ar 0.0 **** 0.0
6120 C6120 39.3148 31.2469 27.6051 C.3 0.0 **** -0.106
6121 C6121 41.1516 32.9869 27.5611 C.ar 0.0 **** 0.0
6122 C6122 41.7099 34.2025 27.9436 C.ar 0.0 **** 0.0
6123 C6123 41.0943 34.9474 29.0082 C.ar 0.0 **** 0.0
6124 C6124 39.8685 34.4672 29.5898 C.ar 0.0 **** 0.0
6125 C6125 39.2705 35.1461 30.6624 C.ar 0.0 **** -0.1268
6126 C6126 39.7378 36.3739 31.1283 C.ar 0.0 **** 0.0
6127 C6127 40.8679 36.9601 30.4465 C.ar 0.0 **** 0.0
6128 C6128 41.6154 36.1427 29.5623 C.ar 0.0 **** 0.042
6129 C6129 41.1359 38.3541 30.648 C.2 0.0 **** 0.0
6130 C6130 40.5106 39.0549 31.6706 C.2 0.0 **** 0.0
6131 C6131 39.6521 38.3717 32.597 C.ar 0.0 **** 0.0
6132 C6132 39.1888 37.0606 32.2823 C.ar 0.0 **** 0.0
6133 C6133 40.6478 40.5583 31.6051 C.3 0.0 **** -0.106
6134 C6134 40.2546 41.0227 30.1883 C.ar 0.0 **** -0.053
6135 C6135 41.2325 40.4347 29.1384 C.ar 0.0 **** -0.053
6136 C6136 41.9665 39.1853 29.6977 C.3 0.0 **** -0.106
6137 C6137 38.2142 36.4514 33.1555 C.ar 0.0 **** 0.042
6138 C6138 37.7723 37.1135 34.3259 C.ar 0.0 **** 0.052
6139 C6139 38.2928 38.3802 34.6793 C.ar 0.0 **** 0.052
6140 C6140 39.2465 38.9933 33.8399 C.ar 0.0 **** 0.042
6141 C6141 37.8693 39.0646 35.8856 C.2 0.0 **** 0.367
6142 C6142 36.8662 38.4041 36.7469 C.ar 0.0 **** 0.0
6143 C6143 36.3594 37.1749 36.3741 C.ar 0.0 **** 0.0
6144 C6144 36.8001 36.4802 35.1734 C.2 0.0 **** 0.367
6145 C6145 35.3439 36.4856 37.2382 C.3 0.0 **** -0.106
6146 C6146 34.388 37.5036 37.8538 C.3 0.0 **** -0.106
6147 C6147 35.1571 38.5894 38.5581 C.ar 0.0 **** 0.0
6148 C6148 36.3834 39.0262 37.9988 C.ar 0.0 **** 0.2405
6149 N6149 37.119 40.0019 38.55 N.ar 0.0 **** -0.481
6150 C6150 36.6593 40.6232 39.6413 C.ar 0.0 **** 0.2405
6151 C6151 35.4538 40.2566 40.277 C.ar 0.0 **** 0.0
6152 C6152 34.6977 39.209 39.7319 C.ar 0.0 **** 0.0
6153 C6153 33.399 38.7776 40.3787 C.3 0.0 **** -0.106
6154 C6154 33.2124 39.3129 41.8026 C.3 0.0 **** -0.106
6155 C6155 33.5788 40.7944 41.8742 C.3 0.0 **** -0.106
6156 C6156 35.0578 40.9856 41.5401 C.3 0.0 **** -0.053
6157 C6157 35.4366 42.465 41.4507 C.3 0.0 **** -0.106
6158 C6158 36.8796 42.6675 41.0601 C.ar 0.0 **** 0.0
6159 C6159 37.4629 41.7405 40.1712 C.ar 0.0 **** 0.0
6160 C6160 38.7871 41.9246 39.7512 C.ar 0.0 **** -0.1268
6161 C6161 39.5148 43.0108 40.2213 C.ar 0.0 **** -0.1268
6162 C6162 38.949 43.9493 41.0988 C.ar 0.0 **** 0.0
6163 C6163 37.6105 43.7817 41.5127 C.ar 0.0 **** 0.0
6164 C6164 33.9606 29.8045 29.4419 C.3 0.0 **** -0.106
6165 C6165 32.8486 30.6376 28.7851 C.3 0.0 **** -0.159
6166 C6166 35.181 28.3913 27.1866 C.3 0.0 **** -0.159
6167 C6167 35.3996 32.129 30.6343 C.3 0.0 **** -0.159
6168 C6168 37.9215 28.9964 26.4002 C.3 0.0 **** -0.159
6169 C6169 41.8203 32.1399 26.5014 C.3 0.0 **** -0.159
6170 C6170 42.8795 34.7651 27.1669 C.3 0.0 **** -0.159
6171 O6171 42.9162 36.476 29.2575 O.3 0.0 **** -0.452
6172 C6172 42.2973 41.4184 28.6426 C.3 0.0 **** -0.159
6173 C6173 40.1018 42.5445 30.1316 C.3 0.0 **** -0.159
6174 O6174 39.7987 40.1384 34.2213 O.3 0.0 **** -0.452
6175 O6175 37.7016 35.2517 32.8949 O.3 0.0 **** -0.452
6176 O6176 36.326 35.3195 34.899 O.2 0.0 **** -0.419
6177 O6177 38.3507 40.209 36.1601 O.2 0.0 **** -0.419
6178 C6178 36.9474 44.7883 42.4241 C.3 0.0 **** -0.159
6179 C6179 39.7817 45.1169 41.5666 C.3 0.0 **** -0.159
6180 H6180 37.284 33.6831 29.688 H 0.0 **** 0.053
6181 H6181 38.119 32.6265 30.7872 H 0.0 **** 0.053
6182 H6182 39.9917 30.4075 27.8591 H 0.0 **** 0.053
6183 H6183 39.3302 31.2792 26.5025 H 0.0 **** 0.053
6184 H6184 38.4234 34.6996 31.1569 H 0.0 **** 0.1268
6185 H6185 40.0189 41.0576 32.3425 H 0.0 **** 0.053
6186 H6186 41.6883 40.8688 31.8149 H 0.0 **** 0.053
6187 H6187 39.2626 40.5834 29.9927 H 0.0 **** 0.053
6188 H6188 40.6414 40.1067 28.2689 H 0.0 **** 0.053
6189 H6189 42.8567 39.5548 30.2429 H 0.0 **** 0.053
6190 H6190 42.3265 38.6086 28.8404 H 0.0 **** 0.053
6191 H6191 34.813 35.7271 36.6492 H 0.0 **** 0.053
6192 H6192 35.8782 35.9464 38.0429 H 0.0 **** 0.053
6193 H6193 33.6922 36.9974 38.5342 H 0.0 **** 0.053
6194 H6194 33.7716 37.955 37.0533 H 0.0 **** 0.053
6195 H6195 32.5617 39.1194 39.7438 H 0.0 **** 0.053
6196 H6196 33.3347 37.6785 40.3879 H 0.0 **** 0.053
6197 H6197 33.8642 38.7514 42.4926 H 0.0 **** 0.053
6198 H6198 32.1752 39.1426 42.1289 H 0.0 **** 0.053
6199 H6199 33.367 41.2093 42.8724 H 0.0 **** 0.053
6200 H6200 32.9707 41.3629 41.1484 H 0.0 **** 0.053
6201 H6201 35.654 40.5464 42.3653 H 0.0 **** 0.053
6202 H6202 34.7817 42.9538 40.7033 H 0.0 **** 0.053
6203 H6203 35.2165 42.944 42.4149 H 0.0 **** 0.053
6204 H6204 39.2147 41.2146 39.0433 H 0.0 **** 0.1268
6205 H6205 40.5478 43.1522 39.896 H 0.0 **** 0.1268
6206 H6206 33.9038 29.9127 30.5351 H 0.0 **** 0.053
6207 H6207 33.7842 28.7383 29.2445 H 0.0 **** 0.053
6208 H6208 32.8871 30.5353 27.6897 H 0.0 **** 0.053
6209 H6209 32.9758 31.7049 29.0199 H 0.0 **** 0.053
6210 H6210 31.8513 30.322 29.129 H 0.0 **** 0.053
6211 H6211 35.5075 28.2818 26.1446 H 0.0 **** 0.053
6212 H6212 34.1013 28.5894 27.171 H 0.0 **** 0.053
6213 H6213 35.3269 27.4144 27.68 H 0.0 **** 0.053
6214 H6214 35.2955 33.1787 30.3133 H 0.0 **** 0.053
6215 H6215 36.0433 32.1477 31.5291 H 0.0 **** 0.053
6216 H6216 34.4071 31.7808 30.9378 H 0.0 **** 0.053
6217 H6217 39.0151 29.0456 26.472 H 0.0 **** 0.053
6218 H6218 37.6461 29.3489 25.3903 H 0.0 **** 0.053
6219 H6219 37.635 27.9379 26.4611 H 0.0 **** 0.053
6220 H6220 42.912 32.2486 26.5261 H 0.0 **** 0.053
6221 H6221 41.4832 32.4152 25.4865 H 0.0 **** 0.053
6222 H6222 41.5938 31.0751 26.6361 H 0.0 **** 0.053
6223 H6223 42.7658 35.8461 27.0231 H 0.0 **** 0.053
6224 H6224 42.9539 34.3016 26.1767 H 0.0 **** 0.053
6225 H6225 43.8376 34.6179 27.6897 H 0.0 **** 0.053
6226 H6226 43.2117 37.1484 29.8918 H 0.0 **** 0.41
6227 H6227 41.8542 42.2741 28.1148 H 0.0 **** 0.053
6228 H6228 42.9914 40.9136 27.9531 H 0.0 **** 0.053
6229 H6229 42.889 41.8083 29.4863 H 0.0 **** 0.053
6230 H6230 39.3331 42.8762 30.8453 H 0.0 **** 0.053
6231 H6231 39.8031 42.8811 29.1273 H 0.0 **** 0.053
6232 H6232 41.0435 43.0512 30.3909 H 0.0 **** 0.053
6233 H6233 39.2767 40.376 35.1238 H 0.0 **** 0.41
6234 H6234 37.0318 35.0642 33.6996 H 0.0 **** 0.41
6235 H6235 35.9674 45.0973 42.0295 H 0.0 **** 0.053
6236 H6236 37.5574 45.6897 42.5535 H 0.0 **** 0.053
6237 H6237 36.7664 44.3627 43.4259 H 0.0 **** 0.053
6238 H6238 39.346 46.0779 41.2471 H 0.0 **** 0.053
6239 H6239 40.7993 45.0557 41.1576 H 0.0 **** 0.053
6240 H6240 39.8546 45.149 42.6655 H 0.0 **** 0.053
6241 C6241 53.9189 66.621 64.9226 C.ar 0.0 **** 0.0
6242 C6242 54.8197 67.1158 63.9615 C.ar 0.0 **** 0.0
6243 C6243 54.3492 67.9436 62.9229 C.ar 0.0 **** 0.0
6244 C6244 52.9956 68.2827 62.8632 C.ar 0.0 **** 0.0
6245 C6245 52.0975 67.8365 63.8535 C.ar 0.0 **** 0.0
6246 C6246 52.5642 67.0197 64.8991 C.ar 0.0 **** 0.0
6247 C6247 52.4554 69.137 61.7542 C.3 0.0 **** -0.106
6248 C6248 53.4006 69.4851 60.6421 C.ar 0.0 **** 0.0
6249 C6249 54.7406 69.1729 60.6969 C.ar 0.0 **** 0.0
6250 C6250 55.3205 68.454 61.8871 C.3 0.0 **** -0.106
6251 C6251 55.6087 69.4964 59.5994 C.ar 0.0 **** 0.0
6252 C6252 55.1139 70.0818 58.4383 C.ar 0.0 **** 0.0
6253 C6253 53.7305 70.4705 58.3892 C.ar 0.0 **** 0.0
6254 C6254 52.8705 70.164 59.5019 C.ar 0.0 **** 0.0
6255 C6255 51.5284 70.5735 59.5038 C.ar 0.0 **** -0.1268
6256 C6256 50.9219 71.1646 58.3967 C.ar 0.0 **** 0.0
6257 C6257 51.7219 71.3275 57.2053 C.ar 0.0 **** 0.0
6258 C6258 53.1257 71.1654 57.3129 C.ar 0.0 **** 0.042
6259 C6259 51.0502 71.5794 55.964 C.2 0.0 **** 0.0
6260 C6260 49.7074 71.932 55.9442 C.2 0.0 **** 0.0
6261 C6261 48.9938 72.1353 57.1736 C.ar 0.0 **** 0.0
6262 C6262 49.5612 71.6676 58.3951 C.ar 0.0 **** 0.0
6263 C6263 49.0454 71.8894 54.5864 C.3 0.0 **** -0.106
6264 C6264 49.35 70.5241 53.9379 C.ar 0.0 **** -0.053
6265 C6265 50.8745 70.3688 53.7011 C.ar 0.0 **** -0.053
6266 C6266 51.6819 71.3322 54.6136 C.3 0.0 **** -0.106
6267 C6267 48.7648 71.7522 59.5959 C.ar 0.0 **** 0.042
6268 C6268 47.4761 72.3371 59.5739 C.ar 0.0 **** 0.052
6269 C6269 46.9467 72.8734 58.377 C.ar 0.0 **** 0.052
6270 C6270 47.7086 72.8013 57.1919 C.ar 0.0 **** 0.042
6271 C6271 45.6378 73.4965 58.3387 C.2 0.0 **** 0.367
6272 C6272 44.8567 73.5565 59.592 C.ar 0.0 **** 0.0
6273 C6273 45.3862 73.0121 60.7452 C.ar 0.0 **** 0.0
6274 C6274 46.7083 72.4047 60.7865 C.2 0.0 **** 0.367
6275 C6275 44.6107 73.0678 62.0292 C.3 0.0 **** -0.106
6276 C6276 43.1202 72.88 61.7609 C.3 0.0 **** -0.106
6277 C6277 42.6465 73.854 60.7152 C.ar 0.0 **** 0.0
6278 C6278 43.5169 74.1803 59.6461 C.ar 0.0 **** 0.2405
6279 N6279 43.1657 75.021 58.6628 N.ar 0.0 **** -0.481
6280 C6280 41.9315 75.5359 58.6594 C.ar 0.0 **** 0.2405
6281 C6281 40.9946 75.278 59.6828 C.ar 0.0 **** 0.0
6282 C6282 41.3668 74.4328 60.7379 C.ar 0.0 **** 0.0
6283 C6283 40.398 74.1275 61.86 C.3 0.0 **** -0.106
6284 C6284 39.1958 75.0768 61.9112 C.3 0.0 **** -0.106
6285 C6285 38.6145 75.2867 60.5139 C.3 0.0 **** -0.106
6286 C6286 39.648 75.96 59.6117 C.3 0.0 **** -0.053
6287 C6287 39.1664 76.054 58.1627 C.3 0.0 **** -0.106
6288 C6288 40.2028 76.6604 57.2495 C.ar 0.0 **** 0.0
6289 C6289 41.5618 76.396 57.5199 C.ar 0.0 **** 0.0
6290 C6290 42.5485 76.9052 56.6649 C.ar 0.0 **** -0.1268
6291 C6291 42.1802 77.6725 55.5668 C.ar 0.0 **** -0.1268
6292 C6292 40.8328 77.9387 55.2757 C.ar 0.0 **** 0.0
6293 C6293 39.8318 77.4148 56.121 C.ar 0.0 **** 0.0
6294 C6294 51.618 66.5389 65.9793 C.3 0.0 **** -0.106
6295 C6295 50.8419 65.2819 65.5553 C.3 0.0 **** -0.159
6296 C6296 54.4089 65.6534 65.979 C.3 0.0 **** -0.159
6297 C6297 50.6491 68.2493 63.7361 C.3 0.0 **** -0.159
6298 C6298 56.287 66.759 64.0437 C.3 0.0 **** -0.159
6299 C6299 57.0767 69.1507 59.7137 C.3 0.0 **** -0.159
6300 C6300 56.0049 70.1981 57.2216 C.3 0.0 **** -0.159
6301 O6301 53.9544 71.7405 56.3756 O.3 0.0 **** -0.452
6302 C6302 51.3198 70.6124 52.2556 C.3 0.0 **** -0.159
6303 C6303 48.4881 70.3028 52.6926 C.3 0.0 **** -0.159
6304 O6304 47.2473 73.3856 56.0931 O.3 0.0 **** -0.452
6305 O6305 49.2118 71.2888 60.7602 O.3 0.0 **** -0.452
6306 O6306 47.1673 71.9533 61.8968 O.2 0.0 **** -0.419
6307 O6307 45.192 73.9536 57.2391 O.2 0.0 **** -0.419
6308 C6308 38.3675 77.6416 55.8241 C.3 0.0 **** -0.159
6309 C6309 40.4903 78.7667 54.0622 C.3 0.0 **** -0.159
6310 H6310 51.5738 68.6372 61.3162 H 0.0 **** 0.053
6311 H6311 52.0404 70.0703 62.1824 H 0.0 **** 0.053
6312 H6312 56.0491 69.1243 62.3842 H 0.0 **** 0.053
6313 H6313 55.9352 67.6132 61.5233 H 0.0 **** 0.053
6314 H6314 50.9419 70.4391 60.3979 H 0.0 **** 0.1268
6315 H6315 47.9665 72.0307 54.6543 H 0.0 **** 0.053
6316 H6316 49.4296 72.6962 53.935 H 0.0 **** 0.053
6317 H6317 49.0561 69.7657 54.6822 H 0.0 **** 0.053
6318 H6318 51.1586 69.3407 53.9758 H 0.0 **** 0.053
6319 H6319 51.75 72.2986 54.0772 H 0.0 **** 0.053
6320 H6320 52.6971 70.9317 54.692 H 0.0 **** 0.053
6321 H6321 45.0004 72.3168 62.7279 H 0.0 **** 0.053
6322 H6322 44.7805 74.0557 62.4973 H 0.0 **** 0.053
6323 H6323 42.5568 72.9881 62.6959 H 0.0 **** 0.053
6324 H6324 42.9414 71.8479 61.4042 H 0.0 **** 0.053
6325 H6325 40.042 73.0881 61.7417 H 0.0 **** 0.053
6326 H6326 40.9267 74.1518 62.8254 H 0.0 **** 0.053
6327 H6327 39.5171 76.0522 62.3132 H 0.0 **** 0.053
6328 H6328 38.4382 74.6773 62.6022 H 0.0 **** 0.053
6329 H6329 37.6993 75.8985 60.5511 H 0.0 **** 0.053
6330 H6330 38.3377 74.3112 60.0765 H 0.0 **** 0.053
6331 H6331 39.7935 76.9977 59.9741 H 0.0 **** 0.053
6332 H6332 38.9136 75.0363 57.8068 H 0.0 **** 0.053
6333 H6333 38.2315 76.631 58.1389 H 0.0 **** 0.053
6334 H6334 43.5923 76.6696 56.8722 H 0.0 **** 0.1268
6335 H6335 42.9497 78.0716 54.9024 H 0.0 **** 0.1268
6336 H6336 50.9088 67.3387 66.2387 H 0.0 **** 0.053
6337 H6337 52.1744 66.331 66.9034 H 0.0 **** 0.053
6338 H6338 51.5376 64.4686 65.2981 H 0.0 **** 0.053
6339 H6339 50.2325 65.4873 64.6626 H 0.0 **** 0.053
6340 H6340 50.1758 64.9291 66.3579 H 0.0 **** 0.053
6341 H6341 55.2623 65.0647 65.6194 H 0.0 **** 0.053
6342 H6342 53.6241 64.9443 66.2729 H 0.0 **** 0.053
6343 H6343 54.7351 66.1777 66.8944 H 0.0 **** 0.053
6344 H6344 50.2144 67.8805 62.7923 H 0.0 **** 0.053
6345 H6345 50.5461 69.3466 63.7093 H 0.0 **** 0.053
6346 H6346 50.0259 67.8701 64.5524 H 0.0 **** 0.053
6347 H6347 56.9196 67.5073 63.5503 H 0.0 **** 0.053
6348 H6348 56.496 65.7878 63.5611 H 0.0 **** 0.053
6349 H6349 56.6234 66.6797 65.0862 H 0.0 **** 0.053
6350 H6350 57.7035 69.8583 59.1564 H 0.0 **** 0.053
6351 H6351 57.2896 68.1404 59.3219 H 0.0 **** 0.053
6352 H6352 57.4131 69.1665 60.7576 H 0.0 **** 0.053
6353 H6353 55.4477 69.9579 56.3083 H 0.0 **** 0.053
6354 H6354 56.8532 69.5075 57.2875 H 0.0 **** 0.053
6355 H6355 56.3994 71.2177 57.0886 H 0.0 **** 0.053
6356 H6356 53.4339 72.3812 55.8655 H 0.0 **** 0.41
6357 H6357 50.8866 69.879 51.5616 H 0.0 **** 0.053
6358 H6358 52.4163 70.5496 52.1785 H 0.0 **** 0.053
6359 H6359 51.0182 71.6176 51.9202 H 0.0 **** 0.053
6360 H6360 47.4209 70.3458 52.9564 H 0.0 **** 0.053
6361 H6361 48.6874 69.3219 52.2353 H 0.0 **** 0.053
6362 H6362 48.6786 71.0746 51.9319 H 0.0 **** 0.053
6363 H6363 46.2807 73.7359 56.3867 H 0.0 **** 0.41
6364 H6364 48.4282 71.4923 61.45 H 0.0 **** 0.41
6365 H6365 37.8021 76.6982 55.8673 H 0.0 **** 0.053
6366 H6366 38.2127 78.0815 54.8323 H 0.0 **** 0.053
6367 H6367 37.9097 78.3202 56.564 H 0.0 **** 0.053
6368 H6368 39.8892 78.1929 53.3377 H 0.0 **** 0.053
6369 H6369 41.4032 79.1023 53.5518 H 0.0 **** 0.053
6370 H6370 39.9005 79.6574 54.332 H 0.0 **** 0.053
6371 C6371 67.5158 22.6568 38.6043 C.ar 0.0 **** 0.0
6372 C6372 66.5452 23.3332 37.8426 C.ar 0.0 **** 0.0
6373 C6373 65.4071 22.6397 37.3853 C.ar 0.0 **** 0.0
6374 C6374 65.24 21.2905 37.7054 C.ar 0.0 **** 0.0
6375 C6375 66.1799 20.6209 38.5144 C.ar 0.0 **** 0.0
6376 C6376 67.3118 21.3117 38.9834 C.ar 0.0 **** 0.0
6377 C6377 64.0556 20.5139 37.2098 C.3 0.0 **** -0.106
6378 C6378 63.1437 21.2088 36.2417 C.ar 0.0 **** 0.0
6379 C6379 63.2863 22.5428 35.9318 C.ar 0.0 **** 0.0
6380 C6380 64.3813 23.3699 36.5538 C.3 0.0 **** -0.106
6381 C6381 62.4119 23.1659 34.9779 C.ar 0.0 **** 0.0
6382 C6382 61.4385 22.4324 34.307 C.ar 0.0 **** 0.0
6383 C6383 61.2355 21.0545 34.6638 C.ar 0.0 **** 0.0
6384 C6384 62.1005 20.4417 35.6374 C.ar 0.0 **** 0.0
6385 C6385 61.8964 19.1136 36.0416 C.ar 0.0 **** -0.1268
6386 C6386 60.9549 18.2812 35.4385 C.ar 0.0 **** 0.0
6387 C6387 60.1903 18.8243 34.3403 C.ar 0.0 **** 0.0
6388 C6388 60.215 20.2263 34.1346 C.ar 0.0 **** 0.042
6389 C6389 59.4992 17.9127 33.4759 C.2 0.0 **** 0.0
6390 C6390 59.3365 16.5815 33.8353 C.2 0.0 **** 0.0
6391 C6391 59.7818 16.1184 35.1195 C.ar 0.0 **** 0.0
6392 C6392 60.6684 16.931 35.8852 C.ar 0.0 **** 0.0
6393 C6393 58.8551 15.6662 32.7334 C.3 0.0 **** -0.106
6394 C6394 59.7483 15.8819 31.4952 C.ar 0.0 **** -0.053
6395 C6395 59.601 17.334 30.9716 C.ar 0.0 **** -0.053
6396 C6396 59.0495 18.2732 32.079 C.3 0.0 **** -0.106
6397 C6397 61.2166 16.385 37.1037 C.ar 0.0 **** 0.042
6398 C6398 60.8396 15.0987 37.5581 C.ar 0.0 **** 0.052
6399 C6399 59.8982 14.3259 36.8391 C.ar 0.0 **** 0.052
6400 C6400 59.3499 14.8408 35.6456 C.ar 0.0 **** 0.042
6401 C6401 59.4824 13.0153 37.2999 C.2 0.0 **** 0.367
6402 C6402 60.0738 12.4955 38.5507 C.ar 0.0 **** 0.0
6403 C6403 61.0032 13.2601 39.2278 C.ar 0.0 **** 0.0
6404 C6404 61.4047 14.5836 38.7746 C.2 0.0 **** 0.367
6405 C6405 61.6112 12.7519 40.5026 C.3 0.0 **** -0.106
6406 C6406 61.8374 11.2448 40.4223 C.3 0.0 **** -0.106
6407 C6407 60.5664 10.5419 40.0259 C.ar 0.0 **** 0.0
6408 C6408 59.7018 11.1728 39.0977 C.ar 0.0 **** 0.2405
6409 N6409 58.5624 10.6067 38.6755 N.ar 0.0 **** -0.481
6410 C6410 58.2494 9.37972 39.1057 C.ar 0.0 **** 0.2405
6411 C6411 59.0409 8.67235 40.0356 C.ar 0.0 **** 0.0
6412 C6412 60.2135 9.27347 40.5153 C.ar 0.0 **** 0.0
6413 C6413 61.0945 8.55591 41.5153 C.3 0.0 **** -0.106
6414 C6414 60.4152 7.35674 42.1856 C.3 0.0 **** -0.106
6415 C6415 59.6822 6.5043 41.151 C.3 0.0 **** -0.106
6416 C6416 58.5628 7.31635 40.5006 C.3 0.0 **** -0.053
6417 C6417 57.8983 6.55534 39.3519 C.3 0.0 **** -0.106
6418 C6418 56.8334 7.37033 38.6609 C.ar 0.0 **** 0.0
6419 C6419 57.0262 8.7639 38.5585 C.ar 0.0 **** 0.0
6420 C6420 56.0792 9.5449 37.8823 C.ar 0.0 **** -0.1268
6421 C6421 54.9566 8.94176 37.329 C.ar 0.0 **** -0.1268
6422 C6422 54.7517 7.55534 37.4122 C.ar 0.0 **** 0.0
6423 C6423 55.7091 6.75894 38.0755 C.ar 0.0 **** 0.0
6424 C6424 68.3278 20.6139 39.8632 C.3 0.0 **** -0.106
6425 C6425 69.3519 19.8115 39.045 C.3 0.0 **** -0.159
6426 C6426 68.7839 23.3776 39.0105 C.3 0.0 **** -0.159
6427 C6427 65.9331 19.165 38.8327 C.3 0.0 **** -0.159
6428 C6428 66.7244 24.7988 37.5159 C.3 0.0 **** -0.159
6429 C6429 62.5954 24.6382 34.6843 C.3 0.0 **** -0.159
6430 C6430 60.6933 23.0612 33.1507 C.3 0.0 **** -0.159
6431 O6431 59.1919 20.8341 33.4418 O.3 0.0 **** -0.452
6432 C6432 58.6948 17.4768 29.7446 C.3 0.0 **** -0.159
6433 C6433 59.4993 14.7989 30.4428 C.3 0.0 **** -0.159
6434 O6434 58.4009 14.1525 35.0234 O.3 0.0 **** -0.452
6435 O6435 62.0885 17.0683 37.8407 O.3 0.0 **** -0.452
6436 O6436 62.2408 15.2676 39.4677 O.2 0.0 **** -0.419
6437 O6437 58.6445 12.3462 36.6166 O.2 0.0 **** -0.419
6438 C6438 55.5507 5.25811 38.1546 C.3 0.0 **** -0.159
6439 C6439 53.5211 6.9527 36.7812 C.3 0.0 **** -0.159
6440 H6440 64.4123 19.5802 36.7408 H 0.0 **** 0.053
6441 H6441 63.4629 20.1609 38.0762 H 0.0 **** 0.053
6442 H6442 63.917 24.1596 37.1767 H 0.0 **** 0.053
6443 H6443 64.8962 23.9282 35.7536 H 0.0 **** 0.053
6444 H6444 62.4795 18.72 36.858 H 0.0 **** 0.1268
6445 H6445 58.8875 14.6179 33.031 H 0.0 **** 0.053
6446 H6446 57.8046 15.8873 32.468 H 0.0 **** 0.053
6447 H6447 60.7859 15.7662 31.8495 H 0.0 **** 0.053
6448 H6448 60.6031 17.7006 30.6987 H 0.0 **** 0.053
6449 H6449 57.9452 18.202 32.0379 H 0.0 **** 0.053
6450 H6450 59.3198 19.2966 31.8019 H 0.0 **** 0.053
6451 H6451 62.5409 13.2966 40.7101 H 0.0 **** 0.053
6452 H6452 60.918 12.9779 41.3347 H 0.0 **** 0.053
6453 H6453 62.2199 10.8739 41.3812 H 0.0 **** 0.053
6454 H6454 62.6201 11.0335 39.6692 H 0.0 **** 0.053
6455 H6455 62.0097 8.21832 40.9961 H 0.0 **** 0.053
6456 H6456 61.4351 9.26381 42.2867 H 0.0 **** 0.053
6457 H6457 59.686 7.71848 42.9296 H 0.0 **** 0.053
6458 H6458 61.1651 6.76414 42.7312 H 0.0 **** 0.053
6459 H6459 59.2629 5.59465 41.6093 H 0.0 **** 0.053
6460 H6460 60.3906 6.17909 40.3687 H 0.0 **** 0.053
6461 H6461 57.7816 7.4961 41.2666 H 0.0 **** 0.053
6462 H6462 58.6774 6.27113 38.6178 H 0.0 **** 0.053
6463 H6463 57.4855 5.61554 39.7441 H 0.0 **** 0.053
6464 H6464 56.256 10.6163 37.7885 H 0.0 **** 0.1268
6465 H6465 54.2174 9.5513 36.8047 H 0.0 **** 0.1268
6466 H6466 67.8146 19.9437 40.5685 H 0.0 **** 0.053
6467 H6467 68.8536 21.3484 40.4884 H 0.0 **** 0.053
6468 H6468 69.8798 20.4694 38.3377 H 0.0 **** 0.053
6469 H6469 68.8485 19.0313 38.4548 H 0.0 **** 0.053
6470 H6470 70.0986 19.3291 39.6948 H 0.0 **** 0.053
6471 H6471 69.0479 24.1623 38.2902 H 0.0 **** 0.053
6472 H6472 69.6376 22.6902 39.0717 H 0.0 **** 0.053
6473 H6473 68.6816 23.8605 39.9982 H 0.0 **** 0.053
6474 H6474 65.8973 18.5649 37.9084 H 0.0 **** 0.053
6475 H6475 64.957 19.0224 39.325 H 0.0 **** 0.053
6476 H6476 66.7041 18.7282 39.4756 H 0.0 **** 0.053
6477 H6477 65.7661 25.2964 37.3221 H 0.0 **** 0.053
6478 H6478 67.3513 24.9405 36.6177 H 0.0 **** 0.053
6479 H6479 67.2141 25.3369 38.3386 H 0.0 **** 0.053
6480 H6480 61.6458 25.1188 34.4171 H 0.0 **** 0.053
6481 H6481 63.2966 24.8029 33.8472 H 0.0 **** 0.053
6482 H6482 63.001 25.1734 35.5516 H 0.0 **** 0.053
6483 H6483 60.5711 22.343 32.3313 H 0.0 **** 0.053
6484 H6484 61.236 23.9284 32.7577 H 0.0 **** 0.053
6485 H6485 59.6805 23.3877 33.4346 H 0.0 **** 0.053
6486 H6486 58.459 20.2021 33.3704 H 0.0 **** 0.41
6487 H6487 59.0933 16.9396 28.8729 H 0.0 **** 0.053
6488 H6488 58.5863 18.5379 29.4719 H 0.0 **** 0.053
6489 H6489 57.6883 17.0817 29.9568 H 0.0 **** 0.053
6490 H6490 59.7041 13.804 30.8653 H 0.0 **** 0.053
6491 H6491 60.1472 14.9364 29.5638 H 0.0 **** 0.053
6492 H6492 58.4549 14.8098 30.0969 H 0.0 **** 0.053
6493 H6493 58.3334 13.2518 35.5956 H 0.0 **** 0.41
6494 H6494 62.3044 16.43 38.6636 H 0.0 **** 0.41
6495 H6495 56.4764 4.74398 37.8543 H 0.0 **** 0.053
6496 H6496 54.7408 4.89606 37.5109 H 0.0 **** 0.053
6497 H6497 55.327 4.93317 39.1851 H 0.0 **** 0.053
6498 H6498 53.7842 6.23978 35.9826 H 0.0 **** 0.053
6499 H6499 52.8892 7.73519 36.3398 H 0.0 **** 0.053
6500 H6500 52.9175 6.39855 37.5177 H 0.0 **** 0.053
6501 C6501 42.6534 53.4096 14.6082 C.ar 0.0 **** 0.0
6502 C6502 42.7765 52.6842 15.8075 C.ar 0.0 **** 0.0
6503 C6503 42.8424 51.2772 15.7701 C.ar 0.0 **** 0.0
6504 C6504 42.8032 50.6118 14.5427 C.ar 0.0 **** 0.0
6505 C6505 42.736 51.334 13.3343 C.ar 0.0 **** 0.0
6506 C6506 42.682 52.7392 13.3655 C.ar 0.0 **** 0.0
6507 C6507 42.8407 49.1136 14.468 C.3 0.0 **** -0.106
6508 C6508 42.7745 48.3663 15.7675 C.ar 0.0 **** 0.0
6509 C6509 42.8308 49.0088 16.984 C.ar 0.0 **** 0.0
6510 C6510 42.9561 50.508 17.0633 C.3 0.0 **** -0.106
6511 C6511 42.7349 48.2615 18.2068 C.ar 0.0 **** 0.0
6512 C6512 42.5311 46.8853 18.1955 C.ar 0.0 **** 0.0
6513 C6513 42.5323 46.1914 16.9363 C.ar 0.0 **** 0.0
6514 C6514 42.6519 46.9435 15.715 C.ar 0.0 **** 0.0
6515 C6515 42.7051 46.2907 14.4741 C.ar 0.0 **** -0.1268
6516 C6516 42.5092 44.9173 14.3389 C.ar 0.0 **** 0.0
6517 C6517 42.2169 44.164 15.5359 C.ar 0.0 **** 0.0
6518 C6518 42.439 44.7852 16.7902 C.ar 0.0 **** 0.042
6519 C6519 41.6557 42.8522 15.3942 C.2 0.0 **** 0.0
6520 C6520 41.6502 42.2137 14.1613 C.2 0.0 **** 0.0
6521 C6521 42.2864 42.823 13.0274 C.ar 0.0 **** 0.0
6522 C6522 42.6347 44.2045 13.0816 C.ar 0.0 **** 0.0
6523 C6523 40.7862 40.9769 14.0751 C.3 0.0 **** -0.106
6524 C6524 39.3836 41.3233 14.6137 C.ar 0.0 **** -0.053
6525 C6525 39.4638 41.7135 16.1123 C.ar 0.0 **** -0.053
6526 C6526 40.904 42.1474 16.4996 C.3 0.0 **** -0.106
6527 C6527 43.1394 44.8304 11.8829 C.ar 0.0 **** 0.042
6528 C6528 43.3387 44.0799 10.6995 C.ar 0.0 **** 0.052
6529 C6529 43.0684 42.6919 10.6704 C.ar 0.0 **** 0.052
6530 C6530 42.5746 42.0603 11.8312 C.ar 0.0 **** 0.042
6531 C6531 43.287 41.9014 9.47453 C.2 0.0 **** 0.367
6532 C6532 43.801 42.5862 8.26981 C.ar 0.0 **** 0.0
6533 C6533 44.0424 43.945 8.31591 C.ar 0.0 **** 0.0
6534 C6534 43.8414 44.7333 9.52272 C.2 0.0 **** 0.367
6535 C6535 44.5695 44.6576 7.10452 C.3 0.0 **** -0.106
6536 C6536 43.955 44.0766 5.83416 C.3 0.0 **** -0.106
6537 C6537 44.1389 42.5829 5.79568 C.ar 0.0 **** 0.0
6538 C6538 44.0601 41.8567 7.00967 C.ar 0.0 **** 0.2405
6539 N6539 44.1905 40.5236 7.06088 N.ar 0.0 **** -0.481
6540 C6540 44.3525 39.8433 5.92094 C.ar 0.0 **** 0.2405
6541 C6541 44.4509 40.4753 4.66291 C.ar 0.0 **** 0.0
6542 C6542 44.3576 41.8732 4.60345 C.ar 0.0 **** 0.0
6543 C6543 44.4594 42.5972 3.2781 C.3 0.0 **** -0.106
6544 C6544 45.0188 41.7308 2.14439 C.3 0.0 **** -0.106
6545 C6545 44.3634 40.3507 2.14646 C.3 0.0 **** -0.106
6546 C6546 44.6941 39.6151 3.44453 C.3 0.0 **** -0.053
6547 C6547 43.9372 38.2906 3.55926 C.3 0.0 **** -0.106
6548 C6548 44.207 37.5842 4.86465 C.ar 0.0 **** 0.0
6549 C6549 44.4162 38.373 6.01518 C.ar 0.0 **** 0.0
6550 C6550 44.6234 37.749 7.25276 C.ar 0.0 **** -0.1268
6551 C6551 44.6309 36.362 7.33285 C.ar 0.0 **** -0.1268
6552 C6552 44.4152 35.5599 6.20093 C.ar 0.0 **** 0.0
6553 C6553 44.1877 36.1799 4.95405 C.ar 0.0 **** 0.0
6554 C6554 42.6209 53.5344 12.0782 C.3 0.0 **** -0.106
6555 C6555 41.1886 53.6488 11.5327 C.3 0.0 **** -0.159
6556 C6556 42.4838 54.9134 14.6575 C.3 0.0 **** -0.159
6557 C6557 42.7088 50.5533 12.0414 C.3 0.0 **** -0.159
6558 C6558 42.8369 53.413 17.1312 C.3 0.0 **** -0.159
6559 C6559 42.8209 49.0094 19.5187 C.3 0.0 **** -0.159
6560 C6560 42.2067 46.1671 19.4865 C.3 0.0 **** -0.159
6561 O6561 42.6257 44.0109 17.9135 O.3 0.0 **** -0.452
6562 C6562 39.0339 40.6062 17.0799 C.3 0.0 **** -0.159
6563 C6563 38.3839 40.2074 14.3007 C.3 0.0 **** -0.159
6564 O6564 42.4087 40.7435 11.8268 O.3 0.0 **** -0.452
6565 O6565 43.4365 46.1268 11.8482 O.3 0.0 **** -0.452
6566 O6566 44.1237 45.9854 9.51991 O.2 0.0 **** -0.419
6567 O6567 43.0177 40.6588 9.48532 O.2 0.0 **** -0.419
6568 C6568 43.911 35.3576 3.71667 C.3 0.0 **** -0.159
6569 C6569 44.4208 34.0587 6.3491 C.3 0.0 **** -0.159
6570 H6570 42.0114 48.7677 13.8265 H 0.0 **** 0.053
6571 H6571 43.7472 48.799 13.9149 H 0.0 **** 0.053
6572 H6572 43.9247 50.7569 17.5398 H 0.0 **** 0.053
6573 H6573 42.2025 50.8854 17.7752 H 0.0 **** 0.053
6574 H6574 42.9173 46.8672 13.5885 H 0.0 **** 0.1268
6575 H6575 40.7055 40.6065 13.0529 H 0.0 **** 0.053
6576 H6576 41.2148 40.1539 14.6767 H 0.0 **** 0.053
6577 H6577 39.062 42.2203 14.0594 H 0.0 **** 0.053
6578 H6578 38.8046 42.581 16.2738 H 0.0 **** 0.053
6579 H6579 41.4557 41.2245 16.7644 H 0.0 **** 0.053
6580 H6580 40.8282 42.7528 17.4079 H 0.0 **** 0.053
6581 H6581 44.3787 45.7341 7.1982 H 0.0 **** 0.053
6582 H6582 45.6681 44.531 7.07514 H 0.0 **** 0.053
6583 H6583 44.3956 44.5589 4.95287 H 0.0 **** 0.053
6584 H6584 42.8737 44.3107 5.8125 H 0.0 **** 0.053
6585 H6585 43.4541 42.9626 3.00105 H 0.0 **** 0.053
6586 H6586 45.0813 43.4984 3.39302 H 0.0 **** 0.053
6587 H6587 46.1064 41.6084 2.2803 H 0.0 **** 0.053
6588 H6588 44.8701 42.2413 1.18083 H 0.0 **** 0.053
6589 H6589 44.6957 39.7507 1.28457 H 0.0 **** 0.053
6590 H6590 43.2675 40.46 2.06523 H 0.0 **** 0.053
6591 H6591 45.7758 39.3717 3.43332 H 0.0 **** 0.053
6592 H6592 42.8523 38.4937 3.46892 H 0.0 **** 0.053
6593 H6593 44.2054 37.6563 2.703 H 0.0 **** 0.053
6594 H6594 44.7567 38.3724 8.13688 H 0.0 **** 0.1268
6595 H6595 44.7954 35.8761 8.2971 H 0.0 **** 0.1268
6596 H6596 43.267 53.0686 11.3195 H 0.0 **** 0.053
6597 H6597 43.0339 54.5401 12.2358 H 0.0 **** 0.053
6598 H6598 40.5294 54.1194 12.2781 H 0.0 **** 0.053
6599 H6599 40.778 52.6518 11.3141 H 0.0 **** 0.053
6600 H6600 41.1549 54.2491 10.6103 H 0.0 **** 0.053
6601 H6601 41.9947 55.232 15.5867 H 0.0 **** 0.053
6602 H6602 41.8698 55.2785 13.8239 H 0.0 **** 0.053
6603 H6603 43.4545 55.4367 14.6022 H 0.0 **** 0.053
6604 H6604 41.8302 49.888 12.0067 H 0.0 **** 0.053
6605 H6605 43.5901 49.8972 11.9508 H 0.0 **** 0.053
6606 H6606 42.6692 51.1924 11.1534 H 0.0 **** 0.053
6607 H6607 43.3499 52.8237 17.9013 H 0.0 **** 0.053
6608 H6608 41.8267 53.6405 17.5155 H 0.0 **** 0.053
6609 H6609 43.3695 54.3692 17.0395 H 0.0 **** 0.053
6610 H6610 43.2664 48.3911 20.3082 H 0.0 **** 0.053
6611 H6611 41.8247 49.3296 19.8717 H 0.0 **** 0.053
6612 H6612 43.4337 49.9143 19.4258 H 0.0 **** 0.053
6613 H6613 41.4246 45.4156 19.3264 H 0.0 **** 0.053
6614 H6614 41.8462 46.8686 20.2473 H 0.0 **** 0.053
6615 H6615 43.077 45.6309 19.8963 H 0.0 **** 0.053
6616 H6616 42.7912 43.0988 17.6268 H 0.0 **** 0.41
6617 H6617 37.9771 40.3343 16.9521 H 0.0 **** 0.053
6618 H6618 39.1795 40.932 18.1214 H 0.0 **** 0.053
6619 H6619 39.6396 39.6988 16.9258 H 0.0 **** 0.053
6620 H6620 38.3223 40.046 13.2142 H 0.0 **** 0.053
6621 H6621 37.3762 40.4567 14.6663 H 0.0 **** 0.053
6622 H6622 38.686 39.2573 14.766 H 0.0 **** 0.053
6623 H6623 42.6407 40.4685 10.8199 H 0.0 **** 0.41
6624 H6624 43.7854 46.297 10.858 H 0.0 **** 0.41
6625 H6625 43.0221 35.728 3.1835 H 0.0 **** 0.053
6626 H6626 43.7446 34.3008 3.95453 H 0.0 **** 0.053
6627 H6627 44.7527 35.4098 3.0051 H 0.0 **** 0.053
6628 H6628 43.4457 33.6221 6.07739 H 0.0 **** 0.053
6629 H6629 44.6409 33.7725 7.38647 H 0.0 **** 0.053
6630 H6630 45.1739 33.5893 5.6961 H 0.0 **** 0.053
6631 C6631 20.8003 43.8059 35.7031 C.ar 0.0 **** 0.0
6632 C6632 21.1759 43.2127 36.9225 C.ar 0.0 **** 0.0
6633 C6633 21.4954 41.841 36.9636 C.ar 0.0 **** 0.0
6634 C6634 21.4549 41.0823 35.7916 C.ar 0.0 **** 0.0
6635 C6635 21.1337 41.6815 34.5571 C.ar 0.0 **** 0.0
6636 C6636 20.8255 43.053 34.5085 C.ar 0.0 **** 0.0
6637 C6637 21.7597 39.6131 35.8045 C.3 0.0 **** -0.106
6638 C6638 21.9644 38.973 37.1461 C.ar 0.0 **** 0.0
6639 C6639 22.0247 39.7114 38.3068 C.ar 0.0 **** 0.0
6640 C6640 21.8793 41.2107 38.2797 C.3 0.0 **** -0.106
6641 C6641 22.1925 39.06 39.5758 C.ar 0.0 **** 0.0
6642 C6642 22.2454 37.6731 39.6718 C.ar 0.0 **** 0.0
6643 C6643 22.2464 36.8909 38.4654 C.ar 0.0 **** 0.0
6644 C6644 22.1009 37.5514 37.1948 C.ar 0.0 **** 0.0
6645 C6645 22.1471 36.8203 35.9981 C.ar 0.0 **** -0.1268
6646 C6646 22.1946 35.4275 35.9702 C.ar 0.0 **** 0.0
6647 C6647 22.1689 34.7335 37.2364 C.ar 0.0 **** 0.0
6648 C6648 22.3991 35.4832 38.4169 C.ar 0.0 **** 0.042
6649 C6649 21.8473 33.3363 37.2401 C.2 0.0 **** 0.0
6650 C6650 21.8342 32.6095 36.0571 C.2 0.0 **** 0.0
6651 C6651 22.229 33.2279 34.8228 C.ar 0.0 **** 0.0
6652 C6652 22.3208 34.649 34.7525 C.ar 0.0 **** 0.0
6653 C6653 21.2083 31.2369 36.1459 C.3 0.0 **** -0.106
6654 C6654 19.828 31.3729 36.8194 C.ar 0.0 **** -0.053
6655 C6655 19.9867 31.8907 38.2723 C.ar 0.0 **** -0.053
6656 C6656 21.3542 32.6015 38.4651 C.3 0.0 **** -0.106
6657 C6657 22.5774 35.2553 33.4681 C.ar 0.0 **** 0.042
6658 C6658 22.7902 34.4587 32.3176 C.ar 0.0 **** 0.052
6659 C6659 22.7784 33.0471 32.4043 C.ar 0.0 **** 0.052
6660 C6660 22.5297 32.434 33.6502 C.ar 0.0 **** 0.042
6661 C6661 23.0162 32.2137 31.2417 C.2 0.0 **** 0.367
6662 C6662 23.2703 32.8789 29.9466 C.ar 0.0 **** 0.0
6663 C6663 23.2611 34.2583 29.8818 C.ar 0.0 **** 0.0
6664 C6664 23.042 35.0935 31.0534 C.2 0.0 **** 0.367
6665 C6665 23.5223 34.9525 28.5769 C.3 0.0 **** -0.106
6666 C6666 22.8995 34.1718 27.423 C.3 0.0 **** -0.106
6667 C6667 23.3502 32.7357 27.4548 C.ar 0.0 **** 0.0
6668 C6668 23.53 32.1074 28.7119 C.ar 0.0 **** 0.2405
6669 N6669 23.908 30.8266 28.829 N.ar 0.0 **** -0.481
6670 C6670 24.0758 30.0959 27.7216 C.ar 0.0 **** 0.2405
6671 C6671 23.9281 30.6318 26.4244 C.ar 0.0 **** 0.0
6672 C6672 23.5736 31.9819 26.2909 C.ar 0.0 **** 0.0
6673 C6673 23.4054 32.6033 24.921 C.3 0.0 **** -0.106
6674 C6674 23.9966 31.7605 23.7856 C.3 0.0 **** -0.106
6675 C6675 23.6099 30.2912 23.9468 C.3 0.0 **** -0.106
6676 C6676 24.2004 29.7325 25.2409 C.3 0.0 **** -0.053
6677 C6677 23.7158 28.309 25.5219 C.3 0.0 **** -0.106
6678 C6678 24.242 27.7688 26.8285 C.ar 0.0 **** 0.0
6679 C6679 24.4182 28.6723 27.8973 C.ar 0.0 **** 0.0
6680 C6680 24.8612 28.1964 29.1388 C.ar 0.0 **** -0.1268
6681 C6681 25.1319 26.8435 29.3018 C.ar 0.0 **** -0.1268
6682 C6682 24.9537 25.9274 28.253 C.ar 0.0 **** 0.0
6683 C6683 24.4907 26.395 27.0049 C.ar 0.0 **** 0.0
6684 C6684 20.4887 43.7186 33.1907 C.3 0.0 **** -0.106
6685 C6685 19.012 43.5344 32.8067 C.3 0.0 **** -0.159
6686 C6686 20.3628 45.2552 35.6798 C.3 0.0 **** -0.159
6687 C6687 21.1194 40.8066 33.3258 C.3 0.0 **** -0.159
6688 C6688 21.2352 44.045 38.1837 C.3 0.0 **** -0.159
6689 C6689 22.2722 39.9146 40.8212 C.3 0.0 **** -0.159
6690 C6690 22.1914 37.0154 41.0328 C.3 0.0 **** -0.159
6691 O6691 22.8381 34.8471 39.5565 O.3 0.0 **** -0.452
6692 C6692 19.8684 30.8066 39.3484 C.3 0.0 **** -0.159
6693 C6693 19.0241 30.0767 36.6913 C.3 0.0 **** -0.159
6694 O6694 22.6093 31.1125 33.7451 O.3 0.0 **** -0.452
6695 O6695 22.6258 36.5767 33.3207 O.3 0.0 **** -0.452
6696 O6696 23.0873 36.3713 30.942 O.2 0.0 **** -0.419
6697 O6697 22.9826 30.948 31.3589 O.2 0.0 **** -0.419
6698 C6698 24.2458 25.4397 25.8598 C.3 0.0 **** -0.159
6699 C6699 25.2504 24.4676 28.4908 C.3 0.0 **** -0.159
6700 H6700 20.9474 39.0759 35.2845 H 0.0 **** 0.053
6701 H6701 22.6476 39.4196 35.1716 H 0.0 **** 0.053
6702 H6702 22.8289 41.664 38.6262 H 0.0 **** 0.053
6703 H6703 21.1455 41.5055 39.0489 H 0.0 **** 0.053
6704 H6704 22.1586 37.3518 35.0606 H 0.0 **** 0.1268
6705 H6705 21.0938 30.7768 35.1641 H 0.0 **** 0.053
6706 H6706 21.8398 30.5535 36.7435 H 0.0 **** 0.053
6707 H6707 19.2922 32.1515 36.2518 H 0.0 **** 0.053
6708 H6708 19.199 32.6385 38.455 H 0.0 **** 0.053
6709 H6709 22.0903 31.8147 38.7208 H 0.0 **** 0.053
6710 H6710 21.261 33.2552 39.3376 H 0.0 **** 0.053
6711 H6711 23.1472 35.9826 28.626 H 0.0 **** 0.053
6712 H6712 24.6167 35.0196 28.4298 H 0.0 **** 0.053
6713 H6713 23.152 34.6516 26.4694 H 0.0 **** 0.053
6714 H6714 21.7971 34.2092 27.511 H 0.0 **** 0.053
6715 H6715 22.3271 32.7622 24.739 H 0.0 **** 0.053
6716 H6716 23.8592 33.6063 24.9088 H 0.0 **** 0.053
6717 H6717 25.0962 31.8431 23.8034 H 0.0 **** 0.053
6718 H6718 23.6594 32.1574 22.8161 H 0.0 **** 0.053
6719 H6719 23.9578 29.6916 23.0907 H 0.0 **** 0.053
6720 H6720 22.5101 30.1987 23.985 H 0.0 **** 0.053
6721 H6721 25.3015 29.6835 25.1208 H 0.0 **** 0.053
6722 H6722 22.6085 28.3097 25.5441 H 0.0 **** 0.053
6723 H6723 24.0077 27.6649 24.6809 H 0.0 **** 0.053
6724 H6724 24.9666 28.9028 29.9622 H 0.0 **** 0.1268
6725 H6725 25.48 26.4736 30.2688 H 0.0 **** 0.1268
6726 H6726 21.1291 43.3144 32.3929 H 0.0 **** 0.053
6727 H6727 20.7235 44.7907 33.2383 H 0.0 **** 0.053
6728 H6728 18.3566 43.94 33.5925 H 0.0 **** 0.053
6729 H6729 18.7718 42.4663 32.6976 H 0.0 **** 0.053
6730 H6730 18.775 44.043 31.8593 H 0.0 **** 0.053
6731 H6731 19.9203 45.5566 36.6378 H 0.0 **** 0.053
6732 H6732 19.6108 45.438 34.9013 H 0.0 **** 0.053
6733 H6733 21.2099 45.9353 35.482 H 0.0 **** 0.053
6734 H6734 20.3794 39.9962 33.4325 H 0.0 **** 0.053
6735 H6735 22.0926 40.311 33.1751 H 0.0 **** 0.053
6736 H6736 20.8731 41.3549 32.4108 H 0.0 **** 0.053
6737 H6737 21.9233 43.6194 38.9245 H 0.0 **** 0.053
6738 H6738 20.2447 44.1211 38.6665 H 0.0 **** 0.053
6739 H6739 21.5706 45.0695 37.9735 H 0.0 **** 0.053
6740 H6740 22.9017 39.4503 41.5908 H 0.0 **** 0.053
6741 H6741 21.2751 40.0816 41.2657 H 0.0 **** 0.053
6742 H6742 22.6954 40.9029 40.6039 H 0.0 **** 0.053
6743 H6743 21.5488 36.1273 41.0094 H 0.0 **** 0.053
6744 H6744 21.7871 37.7014 41.7857 H 0.0 **** 0.053
6745 H6745 23.1826 36.6758 41.3722 H 0.0 **** 0.053
6746 H6746 23.1387 33.9583 39.3088 H 0.0 **** 0.41
6747 H6747 18.8722 30.3433 39.3592 H 0.0 **** 0.053
6748 H6748 20.0566 31.2359 40.3446 H 0.0 **** 0.053
6749 H6749 20.6119 30.0108 39.1816 H 0.0 **** 0.053
6750 H6750 18.8834 29.8199 35.6309 H 0.0 **** 0.053
6751 H6751 18.0302 30.1732 37.154 H 0.0 **** 0.053
6752 H6752 19.5416 29.2354 37.1761 H 0.0 **** 0.053
6753 H6753 22.7846 30.8025 32.7369 H 0.0 **** 0.41
6754 H6754 22.835 36.7253 32.2885 H 0.0 **** 0.41
6755 H6755 23.2545 25.6034 25.4102 H 0.0 **** 0.053
6756 H6756 24.3017 24.3927 26.1791 H 0.0 **** 0.053
6757 H6757 24.9869 25.5819 25.0547 H 0.0 **** 0.053
6758 H6758 24.3498 23.8454 28.3596 H 0.0 **** 0.053
6759 H6759 25.6236 24.3092 29.5117 H 0.0 **** 0.053
6760 H6760 26.0068 24.0871 27.7858 H 0.0 **** 0.053
6761 C6761 10.8663 71.0071 61.0028 C.ar 0.0 **** 0.0
6762 C6762 10.8238 70.0583 59.9646 C.ar 0.0 **** 0.0
6763 C6763 11.8045 69.0487 59.8995 C.ar 0.0 **** 0.0
6764 C6764 12.8021 68.9846 60.8749 C.ar 0.0 **** 0.0
6765 C6765 12.8187 69.8974 61.9486 C.ar 0.0 **** 0.0
6766 C6766 11.835 70.8999 62.0249 C.ar 0.0 **** 0.0
6767 C6767 13.8793 67.9415 60.8192 C.3 0.0 **** -0.106
6768 C6768 13.9196 67.0704 59.5981 C.ar 0.0 **** 0.0
6769 C6769 12.933 67.1108 58.6384 C.ar 0.0 **** 0.0
6770 C6770 11.7604 68.0472 58.7717 C.3 0.0 **** -0.106
6771 C6771 13.0215 66.2824 57.4684 C.ar 0.0 **** 0.0
6772 C6772 14.1234 65.4621 57.2487 C.ar 0.0 **** 0.0
6773 C6773 15.1313 65.3614 58.2691 C.ar 0.0 **** 0.0
6774 C6774 15.0253 66.1773 59.4501 C.ar 0.0 **** 0.0
6775 C6775 15.9667 66.0658 60.4845 C.ar 0.0 **** -0.1268
6776 C6776 17.1127 65.2798 60.3757 C.ar 0.0 **** 0.0
6777 C6777 17.328 64.583 59.1291 C.ar 0.0 **** 0.0
6778 C6778 16.2466 64.4891 58.2179 C.ar 0.0 **** 0.042
6779 C6779 18.641 64.0799 58.8489 C.2 0.0 **** 0.0
6780 C6780 19.6025 64.0142 59.8484 C.2 0.0 **** 0.0
6781 C6781 19.2679 64.3676 61.1994 C.ar 0.0 **** 0.0
6782 C6782 18.0623 65.0845 61.4549 C.ar 0.0 **** 0.0
6783 C6783 21.0121 63.7436 59.3759 C.3 0.0 **** -0.106
6784 C6784 21.3453 64.7347 58.2427 C.ar 0.0 **** -0.053
6785 C6785 20.4099 64.4985 57.0287 C.ar 0.0 **** -0.053
6786 C6786 19.1211 63.7441 57.4559 C.3 0.0 **** -0.106
6787 C6787 17.8174 65.5548 62.7974 C.ar 0.0 **** 0.042
6788 C6788 18.7217 65.2627 63.8463 C.ar 0.0 **** 0.052
6789 C6789 19.8772 64.4829 63.6075 C.ar 0.0 **** 0.052
6790 C6790 20.1355 64.013 62.3027 C.ar 0.0 **** 0.042
6791 C6791 20.8041 64.1542 64.6733 C.2 0.0 **** 0.367
6792 C6792 20.5144 64.6613 66.031 C.ar 0.0 **** 0.0
6793 C6793 19.3891 65.4344 66.238 C.ar 0.0 **** 0.0
6794 C6794 18.4494 65.7468 65.1714 C.2 0.0 **** 0.367
6795 C6795 19.0749 65.9543 67.6106 C.3 0.0 **** -0.106
6796 C6796 20.3579 66.3367 68.3431 C.3 0.0 **** -0.106
6797 C6797 21.3336 65.1902 68.3298 C.ar 0.0 **** 0.0
6798 C6798 21.4009 64.3681 67.1779 C.ar 0.0 **** 0.2405
6799 N6799 22.256 63.3409 67.0755 N.ar 0.0 **** -0.481
6800 C6800 23.1138 63.1088 68.0749 C.ar 0.0 **** 0.2405
6801 C6801 23.1204 63.866 69.2658 C.ar 0.0 **** 0.0
6802 C6802 22.2014 64.9166 69.3998 C.ar 0.0 **** 0.0
6803 C6803 22.168 65.7561 70.6589 C.3 0.0 **** -0.106
6804 C6804 22.9292 65.1337 71.8345 C.3 0.0 **** -0.106
6805 C6805 24.286 64.6009 71.377 C.3 0.0 **** -0.106
6806 C6806 24.0922 63.4798 70.3567 C.3 0.0 **** -0.053
6807 C6807 25.4213 63.0174 69.7566 C.3 0.0 **** -0.106
6808 C6808 25.2383 61.9541 68.7022 C.ar 0.0 **** 0.0
6809 C6809 24.0872 62.0166 67.8894 C.ar 0.0 **** 0.0
6810 C6810 23.9089 61.0719 66.8698 C.ar 0.0 **** -0.1268
6811 C6811 24.8607 60.0786 66.6761 C.ar 0.0 **** -0.1268
6812 C6812 26.0174 60.0055 67.4684 C.ar 0.0 **** 0.0
6813 C6813 26.214 60.9634 68.4855 C.ar 0.0 **** 0.0
6814 C6814 11.8282 71.8835 63.1763 C.3 0.0 **** -0.106
6815 C6815 12.7861 73.062 62.9401 C.3 0.0 **** -0.159
6816 C6816 9.8708 72.1479 61.0149 C.3 0.0 **** -0.159
6817 C6817 13.9184 69.7652 62.9758 C.3 0.0 **** -0.159
6818 C6818 9.72966 70.1235 58.9228 C.3 0.0 **** -0.159
6819 C6819 11.904 66.3478 56.4513 C.3 0.0 **** -0.159
6820 C6820 14.2937 64.7821 55.9084 C.3 0.0 **** -0.159
6821 O6821 16.2338 63.4881 57.2725 O.3 0.0 **** -0.452
6822 C6822 21.0496 63.715 55.8781 C.3 0.0 **** -0.159
6823 C6823 22.8387 64.7056 57.9088 C.3 0.0 **** -0.159
6824 O6824 21.1707 63.2071 62.1015 O.3 0.0 **** -0.452
6825 O6825 16.7379 66.2729 63.0959 O.3 0.0 **** -0.452
6826 O6826 17.3969 66.434 65.4311 O.2 0.0 **** -0.419
6827 O6827 21.8392 63.4627 64.4141 O.2 0.0 **** -0.419
6828 C6828 27.4629 60.948 69.3362 C.3 0.0 **** -0.159
6829 C6829 27.024 58.9134 67.2045 C.3 0.0 **** -0.159
6830 H6830 14.8606 68.4363 60.9246 H 0.0 **** 0.053
6831 H6831 13.8123 67.3001 61.7196 H 0.0 **** 0.053
6832 H6832 10.8362 67.4443 58.869 H 0.0 **** 0.053
6833 H6833 11.6306 68.5843 57.8168 H 0.0 **** 0.053
6834 H6834 15.7961 66.5972 61.4065 H 0.0 **** 0.1268
6835 H6835 21.7394 63.8493 60.1812 H 0.0 **** 0.053
6836 H6836 21.109 62.7096 58.9961 H 0.0 **** 0.053
6837 H6837 21.1154 65.7362 58.6422 H 0.0 **** 0.053
6838 H6838 20.1015 65.482 56.6404 H 0.0 **** 0.053
6839 H6839 19.3564 62.6626 57.4184 H 0.0 **** 0.053
6840 H6840 18.3621 63.9383 56.692 H 0.0 **** 0.053
6841 H6841 18.378 66.7984 67.5342 H 0.0 **** 0.053
6842 H6842 18.5506 65.1593 68.1737 H 0.0 **** 0.053
6843 H6843 20.1224 66.6526 69.3669 H 0.0 **** 0.053
6844 H6844 20.8165 67.2106 67.8426 H 0.0 **** 0.053
6845 H6845 22.5939 66.7493 70.4284 H 0.0 **** 0.053
6846 H6846 21.1239 65.9424 70.9545 H 0.0 **** 0.053
6847 H6847 22.3407 64.2987 72.2502 H 0.0 **** 0.053
6848 H6848 23.0433 65.8782 72.637 H 0.0 **** 0.053
6849 H6849 24.876 64.229 72.2297 H 0.0 **** 0.053
6850 H6850 24.8663 65.4156 70.9089 H 0.0 **** 0.053
6851 H6851 23.6534 62.6092 70.8848 H 0.0 **** 0.053
6852 H6852 25.9321 63.8929 69.3106 H 0.0 **** 0.053
6853 H6853 26.07 62.6619 70.5692 H 0.0 **** 0.053
6854 H6854 23.0277 61.1498 66.233 H 0.0 **** 0.1268
6855 H6855 24.7198 59.3408 65.8831 H 0.0 **** 0.1268
6856 H6856 12.1014 71.3692 64.1095 H 0.0 **** 0.053
6857 H6857 10.8114 72.2656 63.3404 H 0.0 **** 0.053
6858 H6858 12.5223 73.5922 62.0123 H 0.0 **** 0.053
6859 H6859 13.8203 72.7029 62.8306 H 0.0 **** 0.053
6860 H6860 12.7537 73.7814 63.7731 H 0.0 **** 0.053
6861 H6861 9.5434 72.4058 59.9997 H 0.0 **** 0.053
6862 H6862 10.3008 73.0549 61.4593 H 0.0 **** 0.053
6863 H6863 8.9667 71.8959 61.5966 H 0.0 **** 0.053
6864 H6864 14.9079 69.8857 62.5045 H 0.0 **** 0.053
6865 H6865 13.9204 68.7624 63.4337 H 0.0 **** 0.053
6866 H6866 13.8477 70.505 63.7797 H 0.0 **** 0.053
6867 H6867 9.54302 69.1457 58.4617 H 0.0 **** 0.053
6868 H6868 9.98678 70.8231 58.1077 H 0.0 **** 0.053
6869 H6869 8.78169 70.469 59.3567 H 0.0 **** 0.053
6870 H6870 11.7685 65.3879 55.937 H 0.0 **** 0.053
6871 H6871 12.0998 67.1123 55.6787 H 0.0 **** 0.053
6872 H6872 10.9472 66.6057 56.9215 H 0.0 **** 0.053
6873 H6873 15.3408 64.8179 55.5853 H 0.0 **** 0.053
6874 H6874 13.6887 65.2735 55.1381 H 0.0 **** 0.053
6875 H6875 14.0124 63.7178 55.9412 H 0.0 **** 0.053
6876 H6876 16.9067 62.8333 57.5176 H 0.0 **** 0.41
6877 H6877 21.8983 64.2535 55.4343 H 0.0 **** 0.053
6878 H6878 20.3093 63.5302 55.0844 H 0.0 **** 0.053
6879 H6879 21.4139 62.7364 56.2297 H 0.0 **** 0.053
6880 H6880 23.4322 64.9635 58.7984 H 0.0 **** 0.053
6881 H6881 23.0864 65.4244 57.113 H 0.0 **** 0.053
6882 H6882 23.1538 63.7069 57.5712 H 0.0 **** 0.053
6883 H6883 21.6452 63.1706 63.059 H 0.0 **** 0.41
6884 H6884 16.8217 66.4646 64.1387 H 0.0 **** 0.41
6885 H6885 27.9234 61.9466 69.385 H 0.0 **** 0.053
6886 H6886 28.2142 60.2495 68.9503 H 0.0 **** 0.053
6887 H6887 27.236 60.6519 70.3747 H 0.0 **** 0.053
6888 H6888 28.0023 59.3277 66.9102 H 0.0 **** 0.053
6889 H6889 26.6793 58.2559 66.3949 H 0.0 **** 0.053
6890 H6890 27.1957 58.2947 68.0999 H 0.0 **** 0.053
6891 C6891 12.8414 51.2137 30.62 C.ar 0.0 **** 0.0
6892 C6892 14.1518 50.7495 30.4025 C.ar 0.0 **** 0.0
6893 C6893 14.9743 51.3947 29.4578 C.ar 0.0 **** 0.0
6894 C6894 14.4911 52.5013 28.7559 C.ar 0.0 **** 0.0
6895 C6895 13.1996 53.0059 29.0083 C.ar 0.0 **** 0.0
6896 C6896 12.3787 52.3729 29.959 C.ar 0.0 **** 0.0
6897 C6897 15.3291 53.1934 27.7212 C.3 0.0 **** -0.106
6898 C6898 16.643 52.5574 27.3741 C.ar 0.0 **** 0.0
6899 C6899 17.1392 51.4778 28.07 C.ar 0.0 **** 0.0
6900 C6900 16.3717 50.8776 29.2191 C.3 0.0 **** -0.106
6901 C6901 18.3873 50.8778 27.6892 C.ar 0.0 **** 0.0
6902 C6902 19.0976 51.3338 26.5833 C.ar 0.0 **** 0.0
6903 C6903 18.6258 52.498 25.884 C.ar 0.0 **** 0.0
6904 C6904 17.3857 53.1089 26.2849 C.ar 0.0 **** 0.0
6905 C6905 16.9242 54.274 25.6536 C.ar 0.0 **** -0.1268
6906 C6906 17.5499 54.8197 24.534 C.ar 0.0 **** 0.0
6907 C6907 18.7017 54.1249 24.0083 C.ar 0.0 **** 0.0
6908 C6908 19.3057 53.1251 24.8108 C.ar 0.0 **** 0.042
6909 C6909 19.1346 54.4354 22.6772 C.2 0.0 **** 0.0
6910 C6910 18.6458 55.5546 22.0165 C.2 0.0 **** 0.0
6911 C6911 17.7654 56.4667 22.6909 C.ar 0.0 **** 0.0
6912 C6912 17.1422 56.0634 23.9082 C.ar 0.0 **** 0.0
6913 C6913 18.9473 55.6178 20.5371 C.3 0.0 **** -0.106
6914 C6914 18.5356 54.2765 19.8977 C.ar 0.0 **** -0.053
6915 C6915 19.3854 53.1184 20.4818 C.ar 0.0 **** -0.053
6916 C6916 20.0026 53.5148 21.8509 C.3 0.0 **** -0.106
6917 C6917 16.1522 56.9366 24.4919 C.ar 0.0 **** 0.042
6918 C6918 15.8487 58.1876 23.9035 C.ar 0.0 **** 0.052
6919 C6919 16.5258 58.6218 22.7401 C.ar 0.0 **** 0.052
6920 C6920 17.4973 57.7838 22.1535 C.ar 0.0 **** 0.042
6921 C6921 16.2451 59.9094 22.135 C.2 0.0 **** 0.367
6922 C6922 15.2203 60.7679 22.7653 C.ar 0.0 **** 0.0
6923 C6923 14.5601 60.317 23.8912 C.ar 0.0 **** 0.0
6924 C6924 14.8571 59.033 24.5088 C.2 0.0 **** 0.367
6925 C6925 13.52 61.1764 24.5489 C.3 0.0 **** -0.106
6926 C6926 12.7176 61.9406 23.4994 C.3 0.0 **** -0.106
6927 C6927 13.6393 62.6915 22.5757 C.ar 0.0 **** 0.0
6928 C6928 14.8761 62.0989 22.2201 C.ar 0.0 **** 0.2405
6929 N6929 15.7442 62.6897 21.3868 N.ar 0.0 **** -0.481
6930 C6930 15.4145 63.8595 20.8291 C.ar 0.0 **** 0.2405
6931 C6931 14.2101 64.5332 21.125 C.ar 0.0 **** 0.0
6932 C6932 13.314 63.9432 22.0278 C.ar 0.0 **** 0.0
6933 C6933 12.0104 64.6277 22.379 C.3 0.0 **** -0.106
6934 C6934 11.9594 66.1033 21.968 C.3 0.0 **** -0.106
6935 C6935 12.4929 66.2865 20.5481 C.3 0.0 **** -0.106
6936 C6936 13.9646 65.8796 20.4844 C.3 0.0 **** -0.053
6937 C6937 14.502 65.9018 19.0522 C.3 0.0 **** -0.106
6938 C6938 15.9363 65.442 18.9679 C.ar 0.0 **** 0.0
6939 C6939 16.3648 64.4378 19.861 C.ar 0.0 **** 0.0
6940 C6940 17.6777 63.9545 19.7793 C.ar 0.0 **** -0.1268
6941 C6941 18.5461 64.4753 18.8281 C.ar 0.0 **** -0.1268
6942 C6942 18.1356 65.4682 17.9244 C.ar 0.0 **** 0.0
6943 C6943 16.8101 65.9477 17.9876 C.ar 0.0 **** 0.0
6944 C6944 10.9922 52.9059 30.2533 C.3 0.0 **** -0.106
6945 C6945 9.94808 52.3982 29.2463 C.3 0.0 **** -0.159
6946 C6946 11.9274 50.4595 31.5625 C.3 0.0 **** -0.159
6947 C6947 12.743 54.2128 28.2229 C.3 0.0 **** -0.159
6948 C6948 14.6739 49.5621 31.1799 C.3 0.0 **** -0.159
6949 C6949 18.9008 49.7058 28.4956 C.3 0.0 **** -0.159
6950 C6950 20.2811 50.5401 26.0758 C.3 0.0 **** -0.159
6951 O6951 20.6181 52.7714 24.5903 O.3 0.0 **** -0.452
6952 C6952 20.5266 52.6488 19.5739 C.3 0.0 **** -0.159
6953 C6953 18.5518 54.3682 18.37 C.3 0.0 **** -0.159
6954 O6954 18.1936 58.2327 21.1165 O.3 0.0 **** -0.452
6955 O6955 15.4953 56.6004 25.599 O.3 0.0 **** -0.452
6956 O6956 14.2421 58.6842 25.58 O.2 0.0 **** -0.419
6957 O6957 16.8655 60.2564 21.0808 O.2 0.0 **** -0.419
6958 C6958 16.3124 66.9866 17.0094 C.3 0.0 **** -0.159
6959 C6959 19.1173 65.9874 16.9035 C.3 0.0 **** -0.159
6960 H6960 14.7381 53.2963 26.7943 H 0.0 **** 0.053
6961 H6961 15.5053 54.2405 28.036 H 0.0 **** 0.053
6962 H6962 16.9624 51.0114 30.1466 H 0.0 **** 0.053
6963 H6963 16.3333 49.7837 29.0815 H 0.0 **** 0.053
6964 H6964 16.0593 54.7777 26.0531 H 0.0 **** 0.1268
6965 H6965 18.4176 56.4354 20.0477 H 0.0 **** 0.053
6966 H6966 20.0255 55.7896 20.3614 H 0.0 **** 0.053
6967 H6967 17.4917 54.1039 20.2074 H 0.0 **** 0.053
6968 H6968 18.7168 52.2612 20.6585 H 0.0 **** 0.053
6969 H6969 20.9558 54.0348 21.6334 H 0.0 **** 0.053
6970 H6970 20.2506 52.5878 22.3766 H 0.0 **** 0.053
6971 H6971 12.8774 60.5551 25.1854 H 0.0 **** 0.053
6972 H6972 14.0315 61.8939 25.2178 H 0.0 **** 0.053
6973 H6973 12.0058 62.6142 23.9923 H 0.0 **** 0.053
6974 H6974 12.115 61.2245 22.9091 H 0.0 **** 0.053
6975 H6975 11.1849 64.08 21.8895 H 0.0 **** 0.053
6976 H6976 11.8238 64.5409 23.4606 H 0.0 **** 0.053
6977 H6977 12.579 66.6973 22.6604 H 0.0 **** 0.053
6978 H6978 10.928 66.4768 22.0575 H 0.0 **** 0.053
6979 H6979 12.3812 67.3296 20.2121 H 0.0 **** 0.053
6980 H6980 11.9156 65.6548 19.85 H 0.0 **** 0.053
6981 H6981 14.5499 66.6226 21.063 H 0.0 **** 0.053
6982 H6982 13.8681 65.2443 18.4259 H 0.0 **** 0.053
6983 H6983 14.3874 66.9174 18.6486 H 0.0 **** 0.053
6984 H6984 17.9855 63.1596 20.4586 H 0.0 **** 0.1268
6985 H6985 19.5701 64.1004 18.7668 H 0.0 **** 0.1268
6986 H6986 11.0048 54.0057 30.2467 H 0.0 **** 0.053
6987 H6987 10.6872 52.6236 31.2703 H 0.0 **** 0.053
6988 H6988 9.91788 51.2979 29.2451 H 0.0 **** 0.053
6989 H6989 10.2063 52.7208 28.2267 H 0.0 **** 0.053
6990 H6990 8.94091 52.7735 29.4855 H 0.0 **** 0.053
6991 H6991 12.1849 49.3936 31.6043 H 0.0 **** 0.053
6992 H6992 10.8775 50.5294 31.2496 H 0.0 **** 0.053
6993 H6993 11.9882 50.8519 32.5928 H 0.0 **** 0.053
6994 H6994 12.7408 53.9958 27.1419 H 0.0 **** 0.053
6995 H6995 13.4304 55.0637 28.3603 H 0.0 **** 0.053
6996 H6996 11.7348 54.5447 28.4911 H 0.0 **** 0.053
6997 H6997 15.7683 49.5697 31.255 H 0.0 **** 0.053
6998 H6998 14.3877 48.6077 30.7034 H 0.0 **** 0.053
6999 H6999 14.274 49.5442 32.2026 H 0.0 **** 0.053
7000 H7000 19.9976 49.6721 28.507 H 0.0 **** 0.053
7001 H7001 18.5444 48.7431 28.0884 H 0.0 **** 0.053
7002 H7002 18.5635 49.7568 29.5381 H 0.0 **** 0.053
7003 H7003 20.282 50.5027 24.9801 H 0.0 **** 0.053
7004 H7004 20.2514 49.5091 26.446 H 0.0 **** 0.053
7005 H7005 21.2425 50.9866 26.3747 H 0.0 **** 0.053
7006 H7006 21.0198 53.4446 24.0183 H 0.0 **** 0.41
7007 H7007 20.1555 52.2297 18.6284 H 0.0 **** 0.053
7008 H7008 21.1229 51.8742 20.0804 H 0.0 **** 0.053
7009 H7009 21.2014 53.4859 19.3333 H 0.0 **** 0.053
7010 H7010 17.8633 55.1556 18.0291 H 0.0 **** 0.053
7011 H7011 18.2409 53.4192 17.9073 H 0.0 **** 0.053
7012 H7012 19.5565 54.6132 17.9945 H 0.0 **** 0.053
7013 H7013 17.7492 59.1839 20.9136 H 0.0 **** 0.41
7014 H7014 14.8515 57.4248 25.7913 H 0.0 **** 0.41
7015 H7015 15.3541 66.6837 16.5606 H 0.0 **** 0.053
7016 H7016 17.0256 67.1592 16.1952 H 0.0 **** 0.053
7017 H7017 16.1372 67.9548 17.5088 H 0.0 **** 0.053
7018 H7018 18.7762 65.7846 15.875 H 0.0 **** 0.053
7019 H7019 20.0989 65.5119 17.0329 H 0.0 **** 0.053
7020 H7020 19.2503 67.078 16.9865 H 0.0 **** 0.053
7021 C7021 35.984 23.0458 40.982 C.ar 0.0 **** 0.0
7022 C7022 35.9128 22.5314 39.6742 C.ar 0.0 **** 0.0
7023 C7023 34.9071 21.6021 39.3422 C.ar 0.0 **** 0.0
7024 C7024 33.9764 21.2104 40.3072 C.ar 0.0 **** 0.0
7025 C7025 34.0075 21.7632 41.6033 C.ar 0.0 **** 0.0
7026 C7026 35.0021 22.7004 41.9365 C.ar 0.0 **** 0.0
7027 C7027 32.9112 20.2003 39.9966 C.3 0.0 **** -0.106
7028 C7028 32.9823 19.5274 38.6573 C.ar 0.0 **** 0.0
7029 C7029 33.8826 19.9161 37.6907 C.ar 0.0 **** 0.0
7030 C7030 34.8508 21.0427 37.9419 C.3 0.0 **** -0.106
7031 C7031 33.9403 19.2283 36.4312 C.ar 0.0 **** 0.0
7032 C7032 33.1312 18.1259 36.1751 C.ar 0.0 **** 0.0
7033 C7033 32.1434 17.7458 37.1482 C.ar 0.0 **** 0.0
7034 C7034 32.0751 18.4538 38.3995 C.ar 0.0 **** 0.0
7035 C7035 31.0908 18.138 39.3483 C.ar 0.0 **** -0.1268
7036 C7036 30.2278 17.0532 39.2026 C.ar 0.0 **** 0.0
7037 C7037 30.391 16.2231 38.032 C.ar 0.0 **** 0.0
7038 C7038 31.191 16.7123 36.9694 C.ar 0.0 **** 0.042
7039 C7039 29.7905 14.9212 38.032 C.2 0.0 **** 0.0
7040 C7040 28.8551 14.5728 38.9971 C.2 0.0 **** 0.0
7041 C7041 28.4101 15.5428 39.9579 C.ar 0.0 **** 0.0
7042 C7042 29.1519 16.7485 40.127 C.ar 0.0 **** 0.0
7043 C7043 28.5133 13.1025 39.0685 C.3 0.0 **** -0.106
7044 C7044 29.8274 12.2994 39.143 C.ar 0.0 **** -0.053
7045 C7045 30.6589 12.5067 37.8507 C.ar 0.0 **** -0.053
7046 C7046 30.2299 13.8047 37.1133 C.3 0.0 **** -0.106
7047 C7047 28.772 17.6415 41.1954 C.ar 0.0 **** 0.042
7048 C7048 27.656 17.3571 42.0183 C.ar 0.0 **** 0.052
7049 C7049 26.8724 16.2005 41.7981 C.ar 0.0 **** 0.052
7050 C7050 27.2261 15.3144 40.759 C.ar 0.0 **** 0.042
7051 C7051 25.7123 15.9032 42.616 C.2 0.0 **** 0.367
7052 C7052 25.3641 16.8442 43.7012 C.ar 0.0 **** 0.0
7053 C7053 26.1526 17.9586 43.9086 C.ar 0.0 **** 0.0
7054 C7054 27.3049 18.266 43.0743 C.2 0.0 **** 0.367
7055 C7055 25.8123 18.9289 45.0021 C.3 0.0 **** -0.106
7056 C7056 25.273 18.1891 46.2231 C.3 0.0 **** -0.106
7057 C7057 24.1361 17.2836 45.8306 C.ar 0.0 **** 0.0
7058 C7058 24.194 16.6235 44.5784 C.ar 0.0 **** 0.2405
7059 N7059 23.2352 15.7843 44.162 N.ar 0.0 **** -0.481
7060 C7060 22.2074 15.5187 44.9753 C.ar 0.0 **** 0.2405
7061 C7061 22.0557 16.131 46.2378 C.ar 0.0 **** 0.0
7062 C7062 23.0322 17.0423 46.6649 C.ar 0.0 **** 0.0
7063 C7063 22.9129 17.7264 48.0098 C.3 0.0 **** -0.106
7064 C7064 21.5187 17.6144 48.6363 C.3 0.0 **** -0.106
7065 C7065 20.9889 16.1859 48.5213 C.3 0.0 **** -0.106
7066 C7066 20.8244 15.8044 47.0507 C.3 0.0 **** -0.053
7067 C7067 20.4407 14.3332 46.8816 C.3 0.0 **** -0.106
7068 C7068 20.3362 13.928 45.4322 C.ar 0.0 **** 0.0
7069 C7069 21.2145 14.533 44.5091 C.ar 0.0 **** 0.0
7070 C7070 21.176 14.1461 43.1627 C.ar 0.0 **** -0.1268
7071 C7071 20.268 13.1794 42.7489 C.ar 0.0 **** -0.1268
7072 C7072 19.3923 12.5591 43.6541 C.ar 0.0 **** 0.0
7073 C7073 19.4367 12.9295 45.0149 C.ar 0.0 **** 0.0
7074 C7074 35.0463 23.3147 43.3198 C.3 0.0 **** -0.106
7075 C7075 35.7755 22.4169 44.3319 C.3 0.0 **** -0.159
7076 C7076 37.1234 23.9677 41.3622 C.3 0.0 **** -0.159
7077 C7077 32.9647 21.3052 42.5956 C.3 0.0 **** -0.159
7078 C7078 36.913 22.9744 38.6301 C.3 0.0 **** -0.159
7079 C7079 34.9328 19.7039 35.3936 C.3 0.0 **** -0.159
7080 C7080 33.3765 17.2898 34.9387 C.3 0.0 **** -0.159
7081 O7081 31.0166 16.2153 35.6971 O.3 0.0 **** -0.452
7082 C7082 30.5728 11.3507 36.8489 C.3 0.0 **** -0.159
7083 C7083 29.557 10.8349 39.4961 C.3 0.0 **** -0.159
7084 O7084 26.4368 14.2797 40.4982 O.3 0.0 **** -0.452
7085 O7085 29.4512 18.7586 41.4419 O.3 0.0 **** -0.452
7086 O7086 27.9763 19.3392 43.2861 O.2 0.0 **** -0.419
7087 O7087 25.0427 14.8451 42.3949 O.2 0.0 **** -0.419
7088 C7088 18.5413 12.2601 46.0318 C.3 0.0 **** -0.159
7089 C7089 18.4364 11.506 43.1513 C.3 0.0 **** -0.159
7090 H7090 32.9211 19.42 40.7775 H 0.0 **** 0.053
7091 H7091 31.9162 20.6728 40.1123 H 0.0 **** 0.053
7092 H7092 34.6222 21.8682 37.2394 H 0.0 **** 0.053
7093 H7093 35.86 20.7102 37.6451 H 0.0 **** 0.053
7094 H7094 30.9855 18.7625 40.2203 H 0.0 **** 0.1268
7095 H7095 27.8917 12.87 39.9334 H 0.0 **** 0.053
7096 H7096 27.9431 12.7865 38.1752 H 0.0 **** 0.053
7097 H7097 30.4016 12.7394 39.9749 H 0.0 **** 0.053
7098 H7098 31.7145 12.6272 38.141 H 0.0 **** 0.053
7099 H7099 29.3782 13.5343 36.4594 H 0.0 **** 0.053
7100 H7100 31.059 14.0983 36.4625 H 0.0 **** 0.053
7101 H7101 26.6945 19.5346 45.245 H 0.0 **** 0.053
7102 H7102 25.0423 19.6268 44.6227 H 0.0 **** 0.053
7103 H7103 24.9661 18.9106 46.9903 H 0.0 **** 0.053
7104 H7104 26.0839 17.5826 46.6691 H 0.0 **** 0.053
7105 H7105 23.6608 17.2861 48.6937 H 0.0 **** 0.053
7106 H7106 23.1881 18.7881 47.9131 H 0.0 **** 0.053
7107 H7107 20.8264 18.2939 48.1118 H 0.0 **** 0.053
7108 H7108 21.5576 17.9417 49.6863 H 0.0 **** 0.053
7109 H7109 20.0255 16.0752 49.0437 H 0.0 **** 0.053
7110 H7110 21.7 15.4868 48.9959 H 0.0 **** 0.053
7111 H7111 19.9935 16.4075 46.6321 H 0.0 **** 0.053
7112 H7112 21.2046 13.708 47.3836 H 0.0 **** 0.053
7113 H7113 19.4957 14.1524 47.4124 H 0.0 **** 0.053
7114 H7114 21.8794 14.6034 42.4669 H 0.0 **** 0.1268
7115 H7115 20.2364 12.8803 41.6989 H 0.0 **** 0.1268
7116 H7116 34.024 23.5129 43.6742 H 0.0 **** 0.053
7117 H7117 35.5374 24.2967 43.2813 H 0.0 **** 0.053
7118 H7118 36.8037 22.2139 43.9953 H 0.0 **** 0.053
7119 H7119 35.2637 21.4477 44.4272 H 0.0 **** 0.053
7120 H7120 35.8216 22.8856 45.3272 H 0.0 **** 0.053
7121 H7121 38.0205 23.7652 40.7635 H 0.0 **** 0.053
7122 H7122 37.4024 23.8515 42.4175 H 0.0 **** 0.053
7123 H7123 36.8598 25.0289 41.2087 H 0.0 **** 0.053
7124 H7124 33.0389 20.2182 42.7646 H 0.0 **** 0.053
7125 H7125 31.945 21.4845 42.2167 H 0.0 **** 0.053
7126 H7126 33.0546 21.7939 43.5711 H 0.0 **** 0.053
7127 H7127 36.5182 22.8676 37.6121 H 0.0 **** 0.053
7128 H7128 37.8431 22.381 38.6817 H 0.0 **** 0.053
7129 H7129 37.1948 24.0274 38.7649 H 0.0 **** 0.053
7130 H7130 34.5679 19.5273 34.3739 H 0.0 **** 0.053
7131 H7131 35.9041 19.1876 35.4915 H 0.0 **** 0.053
7132 H7132 35.1305 20.7785 35.4895 H 0.0 **** 0.053
7133 H7133 33.2819 16.2217 35.1676 H 0.0 **** 0.053
7134 H7134 34.3841 17.4593 34.5425 H 0.0 **** 0.053
7135 H7135 32.6506 17.5041 34.1387 H 0.0 **** 0.053
7136 H7136 30.1813 15.7217 35.6781 H 0.0 **** 0.41
7137 H7137 30.9835 10.418 37.2594 H 0.0 **** 0.053
7138 H7138 31.1326 11.5969 35.9334 H 0.0 **** 0.053
7139 H7139 29.526 11.1637 36.5605 H 0.0 **** 0.053
7140 H7140 29.0383 10.7668 40.4639 H 0.0 **** 0.053
7141 H7141 30.4926 10.26 39.5691 H 0.0 **** 0.053
7142 H7142 28.9222 10.3513 38.7387 H 0.0 **** 0.053
7143 H7143 25.6945 14.3356 41.2658 H 0.0 **** 0.41
7144 H7144 28.9447 19.2063 42.2631 H 0.0 **** 0.41
7145 H7145 19.1158 11.9271 46.9096 H 0.0 **** 0.053
7146 H7146 18.0276 11.3864 45.6147 H 0.0 **** 0.053
7147 H7147 17.7684 12.9546 46.403 H 0.0 **** 0.053
7148 H7148 18.6265 10.5285 43.6243 H 0.0 **** 0.053
7149 H7149 18.5356 11.3796 42.0647 H 0.0 **** 0.053
7150 H7150 17.3897 11.7694 43.3723 H 0.0 **** 0.053
7151 C7151 61.494 20.6003 62.9456 C.ar 0.0 **** 0.0
7152 C7152 60.3854 19.734 62.9306 C.ar 0.0 **** 0.0
7153 C7153 59.0856 20.2592 63.0726 C.ar 0.0 **** 0.0
7154 C7154 58.9038 21.6372 63.2094 C.ar 0.0 **** 0.0
7155 C7155 60.0049 22.516 63.1696 C.ar 0.0 **** 0.0
7156 C7156 61.3035 21.9979 63.016 C.ar 0.0 **** 0.0
7157 C7157 57.5365 22.2275 63.393 C.3 0.0 **** -0.106
7158 C7158 56.3986 21.2652 63.5686 C.ar 0.0 **** 0.0
7159 C7159 56.5606 19.9062 63.4182 C.ar 0.0 **** 0.0
7160 C7160 57.9049 19.3196 63.0735 C.3 0.0 **** -0.106
7161 C7161 55.4537 19.0142 63.6232 C.ar 0.0 **** 0.0
7162 C7162 54.2106 19.4904 64.0274 C.ar 0.0 **** 0.0
7163 C7163 54.0079 20.9102 64.1285 C.ar 0.0 **** 0.0
7164 C7164 55.1155 21.8003 63.8994 C.ar 0.0 **** 0.0
7165 C7165 54.9373 23.1914 63.9429 C.ar 0.0 **** -0.1268
7166 C7166 53.7389 23.7831 64.3389 C.ar 0.0 **** 0.0
7167 C7167 52.6626 22.9072 64.739 C.ar 0.0 **** 0.0
7168 C7168 52.7689 21.5287 64.4278 C.ar 0.0 **** 0.042
7169 C7169 51.5741 23.4649 65.4872 C.2 0.0 **** 0.0
7170 C7170 51.4144 24.8405 65.5868 C.2 0.0 **** 0.0
7171 C7171 52.2878 25.7248 64.8677 C.ar 0.0 **** 0.0
7172 C7172 53.5009 25.214 64.3197 C.ar 0.0 **** 0.0
7173 C7173 50.4177 25.3047 66.6234 C.3 0.0 **** -0.106
7174 C7174 50.7438 24.608 67.9598 C.ar 0.0 **** -0.053
7175 C7175 50.5702 23.0732 67.823 C.ar 0.0 **** -0.053
7176 C7176 50.6381 22.6344 66.3346 C.3 0.0 **** -0.106
7177 C7177 54.4305 26.1465 63.7283 C.ar 0.0 **** 0.042
7178 C7178 54.1215 27.525 63.6418 C.ar 0.0 **** 0.052
7179 C7179 52.8828 28.0185 64.1136 C.ar 0.0 **** 0.052
7180 C7180 51.9597 27.1242 64.695 C.ar 0.0 **** 0.042
7181 C7181 52.5384 29.4236 64.0137 C.2 0.0 **** 0.367
7182 C7182 53.5235 30.3418 63.4046 C.ar 0.0 **** 0.0
7183 C7183 54.7331 29.841 62.9656 C.ar 0.0 **** 0.0
7184 C7184 55.0692 28.4273 63.0484 C.2 0.0 **** 0.367
7185 C7185 55.7444 30.7565 62.3393 C.3 0.0 **** -0.106
7186 C7186 55.7351 32.116 63.0327 C.3 0.0 **** -0.106
7187 C7187 54.3391 32.6782 63.0708 C.ar 0.0 **** 0.0
7188 C7188 53.2525 31.7881 63.2557 C.ar 0.0 **** 0.2405
7189 N7189 51.9813 32.208 63.3231 N.ar 0.0 **** -0.481
7190 C7190 51.7273 33.5196 63.263 C.ar 0.0 **** 0.2405
7191 C7191 52.7394 34.4847 63.0726 C.ar 0.0 **** 0.0
7192 C7192 54.0683 34.052 62.959 C.ar 0.0 **** 0.0
7193 C7193 55.1887 35.0483 62.7517 C.3 0.0 **** -0.106
7194 C7194 54.7053 36.439 62.3259 C.3 0.0 **** -0.106
7195 C7195 53.5162 36.8807 63.1775 C.3 0.0 **** -0.106
7196 C7196 52.3349 35.9362 62.9588 C.3 0.0 **** -0.053
7197 C7197 51.1719 36.2479 63.9024 C.3 0.0 **** -0.106
7198 C7198 50.0235 35.2833 63.7396 C.ar 0.0 **** 0.0
7199 C7199 50.3232 33.9433 63.4166 C.ar 0.0 **** 0.0
7200 C7200 49.2835 33.0105 63.3035 C.ar 0.0 **** -0.1268
7201 C7201 47.9692 33.4156 63.5004 C.ar 0.0 **** -0.1268
7202 C7202 47.6517 34.7424 63.8318 C.ar 0.0 **** 0.0
7203 C7203 48.6937 35.6844 63.9655 C.ar 0.0 **** 0.0
7204 C7204 62.499 22.9256 62.9593 C.3 0.0 **** -0.106
7205 C7205 62.9935 23.3233 64.3592 C.3 0.0 **** -0.159
7206 C7206 62.8936 20.0251 62.8918 C.3 0.0 **** -0.159
7207 C7207 59.7375 23.9959 63.3115 C.3 0.0 **** -0.159
7208 C7208 60.5894 18.2449 62.7636 C.3 0.0 **** -0.159
7209 C7209 55.676 17.5309 63.428 C.3 0.0 **** -0.159
7210 C7210 53.1383 18.5127 64.4541 C.3 0.0 **** -0.159
7211 O7211 51.6328 20.7538 64.3572 O.3 0.0 **** -0.452
7212 C7212 49.265 22.5277 68.4113 C.3 0.0 **** -0.159
7213 C7213 49.9573 25.2358 69.1129 C.3 0.0 **** -0.159
7214 O7214 50.7639 27.5753 65.0531 O.3 0.0 **** -0.452
7215 O7215 55.603 25.7458 63.2436 O.3 0.0 **** -0.452
7216 O7216 56.1914 28.0113 62.5848 O.2 0.0 **** -0.419
7217 O7217 51.4204 29.8295 64.4632 O.2 0.0 **** -0.419
7218 C7218 48.4027 37.1138 64.3603 C.3 0.0 **** -0.159
7219 C7219 46.208 35.1233 64.0474 C.3 0.0 **** -0.159
7220 H7220 57.5547 22.9053 64.2642 H 0.0 **** 0.053
7221 H7221 57.3133 22.9012 62.5428 H 0.0 **** 0.053
7222 H7222 57.8352 18.837 62.0789 H 0.0 **** 0.053
7223 H7223 58.1095 18.4833 63.7633 H 0.0 **** 0.053
7224 H7224 55.7519 23.8325 63.6481 H 0.0 **** 0.1268
7225 H7225 50.4432 26.3863 66.7579 H 0.0 **** 0.053
7226 H7226 49.3855 25.0479 66.3208 H 0.0 **** 0.053
7227 H7227 51.8132 24.8004 68.1458 H 0.0 **** 0.053
7228 H7228 51.4085 22.5879 68.3473 H 0.0 **** 0.053
7229 H7229 49.6142 22.7341 65.9248 H 0.0 **** 0.053
7230 H7230 50.8917 21.5701 66.3204 H 0.0 **** 0.053
7231 H7231 56.7355 30.2865 62.3695 H 0.0 **** 0.053
7232 H7232 55.4858 30.8844 61.2713 H 0.0 **** 0.053
7233 H7233 56.4296 32.7974 62.5259 H 0.0 **** 0.053
7234 H7234 56.1089 31.9995 64.0677 H 0.0 **** 0.053
7235 H7235 55.7629 35.1297 63.6922 H 0.0 **** 0.053
7236 H7236 55.8979 34.6609 62.0038 H 0.0 **** 0.053
7237 H7237 54.3943 36.41 61.2683 H 0.0 **** 0.053
7238 H7238 55.5359 37.1574 62.3979 H 0.0 **** 0.053
7239 H7239 53.2158 37.9129 62.9372 H 0.0 **** 0.053
7240 H7240 53.797 36.8626 64.2454 H 0.0 **** 0.053
7241 H7241 51.9641 36.0866 61.9247 H 0.0 **** 0.053
7242 H7242 51.5413 36.2064 64.9456 H 0.0 **** 0.053
7243 H7243 50.8466 37.2834 63.7306 H 0.0 **** 0.053
7244 H7244 49.5335 31.9734 63.0798 H 0.0 **** 0.1268
7245 H7245 47.159 32.6889 63.4092 H 0.0 **** 0.1268
7246 H7246 62.2437 23.8307 62.3889 H 0.0 **** 0.053
7247 H7247 63.3189 22.4513 62.4027 H 0.0 **** 0.053
7248 H7248 63.2598 22.4282 64.9419 H 0.0 **** 0.053
7249 H7249 62.2028 23.8519 64.9122 H 0.0 **** 0.053
7250 H7250 63.877 23.9781 64.3041 H 0.0 **** 0.053
7251 H7251 62.9313 19.0191 63.3287 H 0.0 **** 0.053
7252 H7252 63.6082 20.6481 63.4453 H 0.0 **** 0.053
7253 H7253 63.2639 19.9459 61.8546 H 0.0 **** 0.053
7254 H7254 59.2543 24.2133 64.2784 H 0.0 **** 0.053
7255 H7255 59.0396 24.3531 62.5364 H 0.0 **** 0.053
7256 H7256 60.6457 24.6047 63.2564 H 0.0 **** 0.053
7257 H7257 59.7032 17.7538 62.343 H 0.0 **** 0.053
7258 H7258 60.8051 17.7541 63.7292 H 0.0 **** 0.053
7259 H7259 61.434 18.0275 62.096 H 0.0 **** 0.053
7260 H7260 54.7655 17.028 63.0784 H 0.0 **** 0.053
7261 H7261 55.9867 17.038 64.3661 H 0.0 **** 0.053
7262 H7262 56.4625 17.3363 62.6886 H 0.0 **** 0.053
7263 H7263 52.6058 18.8823 65.3383 H 0.0 **** 0.053
7264 H7264 53.572 17.5387 64.7073 H 0.0 **** 0.053
7265 H7265 52.378 18.3591 63.6722 H 0.0 **** 0.053
7266 H7266 50.865 21.3466 64.3278 H 0.0 **** 0.41
7267 H7267 49.2036 22.687 69.4966 H 0.0 **** 0.053
7268 H7268 49.1825 21.4467 68.2192 H 0.0 **** 0.053
7269 H7269 48.3945 23.0172 67.9458 H 0.0 **** 0.053
7270 H7270 50.1962 26.3063 69.1976 H 0.0 **** 0.053
7271 H7271 50.1994 24.7551 70.0729 H 0.0 **** 0.053
7272 H7272 48.8724 25.1441 68.954 H 0.0 **** 0.053
7273 H7273 50.8293 28.6257 64.864 H 0.0 **** 0.41
7274 H7274 56.0588 26.6326 62.8735 H 0.0 **** 0.41
7275 H7275 49.055 37.4394 65.185 H 0.0 **** 0.053
7276 H7276 47.3631 37.248 64.6806 H 0.0 **** 0.053
7277 H7277 48.5838 37.8057 63.5201 H 0.0 **** 0.053
7278 H7278 46.033 35.4786 65.0762 H 0.0 **** 0.053
7279 H7279 45.5496 34.2618 63.8719 H 0.0 **** 0.053
7280 H7280 45.8976 35.9362 63.3717 H 0.0 **** 0.053
7281 C7281 45.9195 49.6545 65.4592 C.ar 0.0 **** 0.0
7282 C7282 45.7319 50.3228 64.2353 C.ar 0.0 **** 0.0
7283 C7283 44.437 50.719 63.8463 C.ar 0.0 **** 0.0
7284 C7284 43.35 50.4623 64.685 C.ar 0.0 **** 0.0
7285 C7285 43.5376 49.8432 65.9371 C.ar 0.0 **** 0.0
7286 C7286 44.8299 49.4564 66.3356 C.ar 0.0 **** 0.0
7287 C7287 41.9539 50.8432 64.2885 C.3 0.0 **** -0.106
7288 C7288 41.7631 51.3747 62.8983 C.ar 0.0 **** 0.0
7289 C7289 42.8268 51.6494 62.0682 C.ar 0.0 **** 0.0
7290 C7290 44.2444 51.4188 62.5234 C.3 0.0 **** -0.106
7291 C7291 42.6031 52.1296 60.7332 C.ar 0.0 **** 0.0
7292 C7292 41.3155 52.2791 60.2282 C.ar 0.0 **** 0.0
7293 C7293 40.1948 52.0564 61.1009 C.ar 0.0 **** 0.0
7294 C7294 40.4262 51.5972 62.4452 C.ar 0.0 **** 0.0
7295 C7295 39.3562 51.4178 63.335 C.ar 0.0 **** -0.1268
7296 C7296 38.0242 51.535 62.9412 C.ar 0.0 **** 0.0
7297 C7297 37.7625 51.8286 61.5516 C.ar 0.0 **** 0.0
7298 C7298 38.8404 52.2724 60.7455 C.ar 0.0 **** 0.042
7299 C7299 36.4426 51.5936 61.0434 C.2 0.0 **** 0.0
7300 C7300 35.382 51.3594 61.9084 C.2 0.0 **** 0.0
7301 C7301 35.5756 51.4365 63.3291 C.ar 0.0 **** 0.0
7302 C7302 36.9013 51.4317 63.8539 C.ar 0.0 **** 0.0
7303 C7303 34.1174 50.8457 61.26 C.3 0.0 **** -0.106
7304 C7304 34.4813 49.6432 60.3662 C.ar 0.0 **** -0.053
7305 C7305 35.4256 50.0904 59.2204 C.ar 0.0 **** -0.053
7306 C7306 36.1374 51.4252 59.573 C.3 0.0 **** -0.106
7307 C7307 37.07 51.3638 65.2858 C.ar 0.0 **** 0.042
7308 C7308 35.9494 51.3605 66.1505 C.ar 0.0 **** 0.052
7309 C7309 34.6365 51.4463 65.6316 C.ar 0.0 **** 0.052
7310 C7310 34.4492 51.5138 64.2351 C.ar 0.0 **** 0.042
7311 C7311 33.4767 51.4668 66.5019 C.2 0.0 **** 0.367
7312 C7312 33.6981 51.3909 67.9613 C.ar 0.0 **** 0.0
7313 C7313 34.9876 51.2912 68.4451 C.ar 0.0 **** 0.0
7314 C7314 36.1516 51.2908 67.5713 C.2 0.0 **** 0.367
7315 C7315 35.2334 51.2184 69.9241 C.3 0.0 **** -0.106
7316 C7316 34.1412 50.3999 70.6068 C.3 0.0 **** -0.106
7317 C7317 32.7799 50.9254 70.2363 C.ar 0.0 **** 0.0
7318 C7318 32.5741 51.4133 68.9222 C.ar 0.0 **** 0.2405
7319 N7319 31.3883 51.8781 68.5043 N.ar 0.0 **** -0.481
7320 C7320 30.3445 51.837 69.3394 C.ar 0.0 **** 0.2405
7321 C7321 30.4494 51.3765 70.6693 C.ar 0.0 **** 0.0
7322 C7322 31.6955 50.927 71.1291 C.ar 0.0 **** 0.0
7323 C7323 31.8591 50.4258 72.5479 C.3 0.0 **** -0.106
7324 C7324 30.6929 50.7969 73.4705 C.3 0.0 **** -0.106
7325 C7325 29.355 50.5375 72.7798 C.3 0.0 **** -0.106
7326 C7326 29.2199 51.4296 71.5464 C.3 0.0 **** -0.053
7327 C7327 27.9648 51.0988 70.7368 C.3 0.0 **** -0.106
7328 C7328 27.8523 51.9301 69.483 C.ar 0.0 **** 0.0
7329 C7329 29.0421 52.288 68.8151 C.ar 0.0 **** 0.0
7330 C7330 28.9717 53.0204 67.6224 C.ar 0.0 **** -0.1268
7331 C7331 27.7336 53.3949 67.1154 C.ar 0.0 **** -0.1268
7332 C7332 26.5381 53.0401 67.7604 C.ar 0.0 **** 0.0
7333 C7333 26.5989 52.2873 68.9522 C.ar 0.0 **** 0.0
7334 C7334 45.0546 48.8002 67.6817 C.3 0.0 **** -0.106
7335 C7335 44.7848 47.2876 67.6436 C.3 0.0 **** -0.159
7336 C7336 47.2958 49.1431 65.8291 C.3 0.0 **** -0.159
7337 C7337 42.3212 49.6054 66.8007 C.3 0.0 **** -0.159
7338 C7338 46.9165 50.6135 63.3413 C.3 0.0 **** -0.159
7339 C7339 43.8035 52.4353 59.8653 C.3 0.0 **** -0.159
7340 C7340 41.1185 52.564 58.7558 C.3 0.0 **** -0.159
7341 O7341 38.586 52.9871 59.5963 O.3 0.0 **** -0.452
7342 C7342 34.7356 50.2734 57.8649 C.3 0.0 **** -0.159
7343 C7343 33.2244 48.9039 59.9012 C.3 0.0 **** -0.159
7344 O7344 33.2228 51.6855 63.7573 O.3 0.0 **** -0.452
7345 O7345 38.2776 51.3051 65.8411 O.3 0.0 **** -0.452
7346 O7346 37.3292 51.2395 68.0793 O.2 0.0 **** -0.419
7347 O7347 32.3124 51.5301 65.995 O.2 0.0 **** -0.419
7348 C7348 25.3373 51.8484 69.6589 C.3 0.0 **** -0.159
7349 C7349 25.2215 53.4624 67.1573 C.3 0.0 **** -0.159
7350 H7350 41.2948 49.967 64.418 H 0.0 **** 0.053
7351 H7351 41.5565 51.5784 65.0151 H 0.0 **** 0.053
7352 H7352 44.767 52.3949 62.5594 H 0.0 **** 0.053
7353 H7353 44.778 50.8581 61.7373 H 0.0 **** 0.053
7354 H7354 39.5669 51.1922 64.3675 H 0.0 **** 0.1268
7355 H7355 33.3749 50.5424 61.9985 H 0.0 **** 0.053
7356 H7356 33.645 51.6306 60.6406 H 0.0 **** 0.053
7357 H7357 35.052 48.9528 61.009 H 0.0 **** 0.053
7358 H7358 36.2065 49.3225 59.1037 H 0.0 **** 0.053
7359 H7359 35.4578 52.2421 59.2612 H 0.0 **** 0.053
7360 H7360 37.0331 51.4912 58.948 H 0.0 **** 0.053
7361 H7361 36.2332 50.807 70.1116 H 0.0 **** 0.053
7362 H7362 35.2321 52.2477 70.3295 H 0.0 **** 0.053
7363 H7363 34.2935 50.4082 71.6932 H 0.0 **** 0.053
7364 H7364 34.2232 49.344 70.2864 H 0.0 **** 0.053
7365 H7365 31.9715 49.3269 72.5198 H 0.0 **** 0.053
7366 H7366 32.7998 50.8095 72.9722 H 0.0 **** 0.053
7367 H7367 30.758 51.8669 73.7297 H 0.0 **** 0.053
7368 H7368 30.7717 50.2322 74.4118 H 0.0 **** 0.053
7369 H7369 28.5115 50.72 73.4642 H 0.0 **** 0.053
7370 H7370 29.2981 49.4802 72.4658 H 0.0 **** 0.053
7371 H7371 29.1169 52.4779 71.8925 H 0.0 **** 0.053
7372 H7372 27.9915 50.0256 70.4647 H 0.0 **** 0.053
7373 H7373 27.0846 51.2326 71.3809 H 0.0 **** 0.053
7374 H7374 29.8986 53.2661 67.1042 H 0.0 **** 0.1268
7375 H7375 27.6794 53.9683 66.1873 H 0.0 **** 0.1268
7376 H7376 44.4097 49.2695 68.4392 H 0.0 **** 0.053
7377 H7377 46.0835 48.9799 68.0223 H 0.0 **** 0.053
7378 H7378 45.4275 46.8009 66.8941 H 0.0 **** 0.053
7379 H7379 43.7406 47.0887 67.3597 H 0.0 **** 0.053
7380 H7380 44.9749 46.819 68.6217 H 0.0 **** 0.053
7381 H7381 47.8898 48.9075 64.9369 H 0.0 **** 0.053
7382 H7382 47.2383 48.2285 66.4335 H 0.0 **** 0.053
7383 H7383 47.8649 49.8865 66.4145 H 0.0 **** 0.053
7384 H7384 41.598 48.9533 66.2835 H 0.0 **** 0.053
7385 H7385 41.7867 50.547 67.008 H 0.0 **** 0.053
7386 H7386 42.5594 49.1327 67.759 H 0.0 **** 0.053
7387 H7387 46.7326 51.4709 62.6821 H 0.0 **** 0.053
7388 H7388 47.1571 49.7517 62.6937 H 0.0 **** 0.053
7389 H7389 47.8176 50.8369 63.9282 H 0.0 **** 0.053
7390 H7390 43.593 53.2442 59.1543 H 0.0 **** 0.053
7391 H7391 44.1186 51.5537 59.2797 H 0.0 **** 0.053
7392 H7392 44.6665 52.7446 60.4675 H 0.0 **** 0.053
7393 H7393 40.279 51.9823 58.3569 H 0.0 **** 0.053
7394 H7394 42.0127 52.2989 58.1805 H 0.0 **** 0.053
7395 H7395 40.8854 53.6229 58.5628 H 0.0 **** 0.053
7396 H7396 37.6593 53.2742 59.6188 H 0.0 **** 0.41
7397 H7397 34.3162 49.3314 57.4852 H 0.0 **** 0.053
7398 H7398 35.4521 50.6532 57.1203 H 0.0 **** 0.053
7399 H7399 33.9149 51.0044 57.9421 H 0.0 **** 0.053
7400 H7400 32.6507 48.5465 60.7691 H 0.0 **** 0.053
7401 H7401 33.4781 48.0332 59.2777 H 0.0 **** 0.053
7402 H7402 32.5686 49.5616 59.3113 H 0.0 **** 0.053
7403 H7403 32.6095 51.6502 64.6324 H 0.0 **** 0.41
7404 H7404 38.0916 51.2722 66.8878 H 0.0 **** 0.41
7405 H7405 25.3688 50.7747 69.8992 H 0.0 **** 0.053
7406 H7406 24.4423 52.0315 69.0533 H 0.0 **** 0.053
7407 H7407 25.2072 52.384 70.6148 H 0.0 **** 0.053
7408 H7408 24.6052 52.591 66.8814 H 0.0 **** 0.053
7409 H7409 25.3846 54.0604 66.2504 H 0.0 **** 0.053
7410 H7410 24.6263 54.064 67.8629 H 0.0 **** 0.053
7411 C7411 42.2436 44.4555 11.5666 C.ar 0.0 **** 0.0
7412 C7412 41.6721 43.3901 10.8468 C.ar 0.0 **** 0.0
7413 C7413 40.5036 42.7677 11.3289 C.ar 0.0 **** 0.0
7414 C7414 39.9095 43.2228 12.5082 C.ar 0.0 **** 0.0
7415 C7415 40.4445 44.3249 13.2049 C.ar 0.0 **** 0.0
7416 C7416 41.6041 44.9575 12.7214 C.ar 0.0 **** 0.0
7417 C7417 38.6823 42.5638 13.0662 C.3 0.0 **** -0.106
7418 C7418 38.2128 41.3126 12.3839 C.ar 0.0 **** 0.0
7419 C7419 38.7776 40.8633 11.2113 C.ar 0.0 **** 0.0
7420 C7420 39.9092 41.6141 10.5589 C.3 0.0 **** -0.106
7421 C7421 38.3206 39.6449 10.6034 C.ar 0.0 **** 0.0
7422 C7422 37.339 38.8641 11.2053 C.ar 0.0 **** 0.0
7423 C7423 36.6958 39.3495 12.396 C.ar 0.0 **** 0.0
7424 C7424 37.1428 40.583 12.9879 C.ar 0.0 **** 0.0
7425 C7425 36.5028 41.1066 14.1216 C.ar 0.0 **** -0.1268
7426 C7426 35.5102 40.4126 14.8114 C.ar 0.0 **** 0.0
7427 C7427 35.1634 39.0943 14.3344 C.ar 0.0 **** 0.0
7428 C7428 35.6152 38.7061 13.0485 C.ar 0.0 **** 0.042
7429 C7429 34.4371 38.2228 15.2111 C.2 0.0 **** 0.0
7430 C7430 33.8441 38.7142 16.3665 C.2 0.0 **** 0.0
7431 C7431 33.8753 40.1205 16.6547 C.ar 0.0 **** 0.0
7432 C7432 34.7781 40.9597 15.9381 C.ar 0.0 **** 0.0
7433 C7433 33.3617 37.6674 17.3438 C.3 0.0 **** -0.106
7434 C7434 34.5107 36.671 17.5977 C.ar 0.0 **** -0.053
7435 C7435 34.8788 35.9285 16.2872 C.ar 0.0 **** -0.053
7436 C7436 34.3961 36.7217 15.042 C.3 0.0 **** -0.106
7437 C7437 34.8964 42.3402 16.3426 C.ar 0.0 **** 0.042
7438 C7438 34.0953 42.8633 17.3856 C.ar 0.0 **** 0.052
7439 C7439 33.1426 42.0498 18.042 C.ar 0.0 **** 0.052
7440 C7440 33.0106 40.6977 17.6621 C.ar 0.0 **** 0.042
7441 C7441 32.297 42.5729 19.0976 C.2 0.0 **** 0.367
7442 C7442 32.4566 43.9914 19.481 C.ar 0.0 **** 0.0
7443 C7443 33.4043 44.7629 18.8379 C.ar 0.0 **** 0.0
7444 C7444 34.2384 44.2418 17.7651 C.2 0.0 **** 0.367
7445 C7445 33.5778 46.2069 19.2093 C.3 0.0 **** -0.106
7446 C7446 33.3906 46.3976 20.7118 C.3 0.0 **** -0.106
7447 C7447 32.0824 45.802 21.1594 C.ar 0.0 **** 0.0
7448 C7448 31.6315 44.6097 20.5412 C.ar 0.0 **** 0.2405
7449 N7449 30.4898 44.0026 20.8949 N.ar 0.0 **** -0.481
7450 C7450 29.7701 44.51 21.9014 C.ar 0.0 **** 0.2405
7451 C7451 30.1309 45.6967 22.5747 C.ar 0.0 **** 0.0
7452 C7452 31.3018 46.3621 22.184 C.ar 0.0 **** 0.0
7453 C7453 31.7296 47.6396 22.874 C.3 0.0 **** -0.106
7454 C7454 30.6249 48.2827 23.7195 C.3 0.0 **** -0.106
7455 C7455 29.9098 47.2293 24.5641 C.3 0.0 **** -0.106
7456 C7456 29.2134 46.2148 23.6579 C.3 0.0 **** -0.053
7457 C7457 28.611 45.0561 24.4547 C.3 0.0 **** -0.106
7458 C7458 27.9748 44.0157 23.5666 C.ar 0.0 **** 0.0
7459 C7459 28.5613 43.7694 22.3076 C.ar 0.0 **** 0.0
7460 C7460 28.0236 42.7772 21.4768 C.ar 0.0 **** -0.1268
7461 C7461 26.914 42.0538 21.896 C.ar 0.0 **** -0.1268
7462 C7462 26.322 42.2777 23.1491 C.ar 0.0 **** 0.0
7463 C7463 26.8679 43.2623 23.9997 C.ar 0.0 **** 0.0
7464 C7464 42.1885 46.1503 13.4486 C.3 0.0 **** -0.106
7465 C7465 43.0947 45.7321 14.6174 C.3 0.0 **** -0.159
7466 C7466 43.5521 45.0573 11.0994 C.3 0.0 **** -0.159
7467 C7467 39.7464 44.7737 14.4671 C.3 0.0 **** -0.159
7468 C7468 42.3111 42.9152 9.56105 C.3 0.0 **** -0.159
7469 C7469 38.9587 39.2019 9.30565 C.3 0.0 **** -0.159
7470 C7470 37.0459 37.4828 10.663 C.3 0.0 **** -0.159
7471 O7471 34.9615 37.7035 12.3677 O.3 0.0 **** -0.452
7472 C7472 34.3145 34.5079 16.1832 C.3 0.0 **** -0.159
7473 C7473 34.1904 35.7526 18.7795 C.3 0.0 **** -0.159
7474 O7474 32.0545 39.9631 18.217 O.3 0.0 **** -0.452
7475 O7475 35.7554 43.1664 15.7513 O.3 0.0 **** -0.452
7476 O7476 35.0728 45.0169 17.1734 O.2 0.0 **** -0.419
7477 O7477 31.463 41.8046 19.6728 O.2 0.0 **** -0.419
7478 C7478 26.2887 43.5099 25.3734 C.3 0.0 **** -0.159
7479 C7479 25.1267 41.4531 23.5579 C.3 0.0 **** -0.159
7480 H7480 38.8545 42.3337 14.1321 H 0.0 **** 0.053
7481 H7481 37.8529 43.2974 13.0882 H 0.0 **** 0.053
7482 H7482 39.565 41.9855 9.57365 H 0.0 **** 0.053
7483 H7483 40.7088 40.8959 10.3101 H 0.0 **** 0.053
7484 H7484 36.7772 42.0889 14.47 H 0.0 **** 0.1268
7485 H7485 33.0427 38.108 18.2886 H 0.0 **** 0.053
7486 H7486 32.4891 37.122 16.9386 H 0.0 **** 0.053
7487 H7487 35.3822 37.2835 17.8819 H 0.0 **** 0.053
7488 H7488 35.9768 35.8632 16.2299 H 0.0 **** 0.053
7489 H7489 33.347 36.4191 14.8571 H 0.0 **** 0.053
7490 H7490 34.9886 36.3791 14.1883 H 0.0 **** 0.053
7491 H7491 34.5599 46.5592 18.8695 H 0.0 **** 0.053
7492 H7492 32.8208 46.8013 18.664 H 0.0 **** 0.053
7493 H7493 33.454 47.4637 20.9628 H 0.0 **** 0.053
7494 H7494 34.2199 45.899 21.2485 H 0.0 **** 0.053
7495 H7495 32.6012 47.4157 23.5152 H 0.0 **** 0.053
7496 H7496 32.0893 48.3639 22.1269 H 0.0 **** 0.053
7497 H7497 29.8892 48.7648 23.0542 H 0.0 **** 0.053
7498 H7498 31.0557 49.0745 24.3508 H 0.0 **** 0.053
7499 H7499 29.1721 47.6929 25.2382 H 0.0 **** 0.053
7500 H7500 30.6437 46.7003 25.1974 H 0.0 **** 0.053
7501 H7501 28.3742 46.7307 23.149 H 0.0 **** 0.053
7502 H7502 29.4129 44.5851 25.056 H 0.0 **** 0.053
7503 H7503 27.8845 45.4621 25.1722 H 0.0 **** 0.053
7504 H7504 28.5044 42.5804 20.5186 H 0.0 **** 0.1268
7505 H7505 26.4935 41.2826 21.2468 H 0.0 **** 0.1268
7506 H7506 41.3788 46.7937 13.8233 H 0.0 **** 0.053
7507 H7507 42.759 46.7765 12.7492 H 0.0 **** 0.053
7508 H7508 43.9151 45.0921 14.2583 H 0.0 **** 0.053
7509 H7509 42.5255 45.1514 15.3586 H 0.0 **** 0.053
7510 H7510 43.5319 46.6075 15.1223 H 0.0 **** 0.053
7511 H7511 44.1623 44.3218 10.56 H 0.0 **** 0.053
7512 H7512 44.1523 45.4237 11.9424 H 0.0 **** 0.053
7513 H7513 43.3898 45.9109 10.4182 H 0.0 **** 0.053
7514 H7514 39.7339 43.9631 15.2143 H 0.0 **** 0.053
7515 H7515 38.6905 45.0243 14.2735 H 0.0 **** 0.053
7516 H7516 40.2205 45.6421 14.9357 H 0.0 **** 0.053
7517 H7517 41.587 42.4225 8.90037 H 0.0 **** 0.053
7518 H7518 43.1207 42.1893 9.75436 H 0.0 **** 0.053
7519 H7519 42.7536 43.7495 9.00024 H 0.0 **** 0.053
7520 H7520 38.253 38.6433 8.67792 H 0.0 **** 0.053
7521 H7521 39.8322 38.5497 9.48242 H 0.0 **** 0.053
7522 H7522 39.3124 40.0584 8.71885 H 0.0 **** 0.053
7523 H7523 36.8983 36.768 11.4812 H 0.0 **** 0.053
7524 H7524 37.8746 37.1184 10.0455 H 0.0 **** 0.053
7525 H7525 36.1269 37.4585 10.0565 H 0.0 **** 0.053
7526 H7526 34.1128 37.5426 12.8098 H 0.0 **** 0.41
7527 H7527 34.7168 33.8464 16.9627 H 0.0 **** 0.053
7528 H7528 34.5605 34.0706 15.2032 H 0.0 **** 0.053
7529 H7529 33.2169 34.5179 16.2786 H 0.0 **** 0.053
7530 H7530 34.0228 36.3482 19.6892 H 0.0 **** 0.053
7531 H7531 35.0147 35.051 18.9779 H 0.0 **** 0.053
7532 H7532 33.2818 35.1611 18.5918 H 0.0 **** 0.053
7533 H7533 31.6269 40.6216 18.9428 H 0.0 **** 0.41
7534 H7534 35.6159 44.0984 16.2443 H 0.0 **** 0.41
7535 H7535 27.0774 43.5233 26.1411 H 0.0 **** 0.053
7536 H7536 25.5578 42.7434 25.6553 H 0.0 **** 0.053
7537 H7537 25.7807 44.4882 25.4231 H 0.0 **** 0.053
7538 H7538 25.3385 40.8527 24.4579 H 0.0 **** 0.053
7539 H7539 24.8381 40.7636 22.753 H 0.0 **** 0.053
7540 H7540 24.2577 42.0878 23.7946 H 0.0 **** 0.053
7541 C7541 45.0912 23.468 30.1182 C.ar 0.0 **** 0.0
7542 C7542 46.1337 22.5299 30.0038 C.ar 0.0 **** 0.0
7543 C7543 46.6621 22.2231 28.7341 C.ar 0.0 **** 0.0
7544 C7544 46.1609 22.8644 27.5991 C.ar 0.0 **** 0.0
7545 C7545 45.1553 23.8454 27.7117 C.ar 0.0 **** 0.0
7546 C7546 44.6327 24.1641 28.9781 C.ar 0.0 **** 0.0
7547 C7547 46.6794 22.5397 26.2289 C.3 0.0 **** -0.106
7548 C7548 47.6486 21.3993 26.1213 C.ar 0.0 **** 0.0
7549 C7549 48.1643 20.7709 27.2327 C.ar 0.0 **** 0.0
7550 C7550 47.7675 21.2023 28.6206 C.3 0.0 **** -0.106
7551 C7551 49.0674 19.6634 27.0891 C.ar 0.0 **** 0.0
7552 C7552 49.402 19.1653 25.8339 C.ar 0.0 **** 0.0
7553 C7553 48.9221 19.848 24.6631 C.ar 0.0 **** 0.0
7554 C7554 48.0355 20.9718 24.8139 C.ar 0.0 **** 0.0
7555 C7555 47.5898 21.6879 23.6926 C.ar 0.0 **** -0.1268
7556 C7556 47.8576 21.2813 22.3865 C.ar 0.0 **** 0.0
7557 C7557 48.6038 20.0577 22.2084 C.ar 0.0 **** 0.0
7558 C7558 49.2706 19.5092 23.3323 C.ar 0.0 **** 0.042
7559 C7559 48.5778 19.4261 20.9215 C.2 0.0 **** 0.0
7560 C7560 48.0885 20.101 19.8111 C.2 0.0 **** 0.0
7561 C7561 47.6825 21.4741 19.9192 C.ar 0.0 **** 0.0
7562 C7562 47.4769 22.0414 21.2109 C.ar 0.0 **** 0.0
7563 C7563 47.8456 19.2475 18.588 C.3 0.0 **** -0.106
7564 C7564 47.0042 18.0248 19.0058 C.ar 0.0 **** -0.053
7565 C7565 47.7904 17.1504 20.0167 C.ar 0.0 **** -0.053
7566 C7566 48.9166 17.9694 20.7051 C.3 0.0 **** -0.106
7567 C7567 46.931 23.375 21.2936 C.ar 0.0 **** 0.042
7568 C7568 46.6605 24.1236 20.1232 C.ar 0.0 **** 0.052
7569 C7569 46.9403 23.5898 18.8437 C.ar 0.0 **** 0.052
7570 C7570 47.4743 22.2882 18.7404 C.ar 0.0 **** 0.042
7571 C7571 46.6911 24.3495 17.6338 C.2 0.0 **** 0.367
7572 C7572 46.1274 25.7092 17.7674 C.ar 0.0 **** 0.0
7573 C7573 45.8468 26.2041 19.0257 C.ar 0.0 **** 0.0
7574 C7574 46.116 25.4482 20.2399 C.2 0.0 **** 0.367
7575 C7575 45.2791 27.5847 19.1824 C.3 0.0 **** -0.106
7576 C7576 44.3008 27.8909 18.0518 C.3 0.0 **** -0.106
7577 C7577 44.9461 27.641 16.7148 C.ar 0.0 **** 0.0
7578 C7578 45.849 26.5567 16.5878 C.ar 0.0 **** 0.2405
7579 N7579 46.4497 26.252 15.4288 N.ar 0.0 **** -0.481
7580 C7580 46.1519 26.9645 14.3369 C.ar 0.0 **** 0.2405
7581 C7581 45.2715 28.0671 14.3622 C.ar 0.0 **** 0.0
7582 C7582 44.6702 28.4198 15.5789 C.ar 0.0 **** 0.0
7583 C7583 43.7204 29.5958 15.6574 C.3 0.0 **** -0.106
7584 C7584 43.7843 30.5216 14.4378 C.3 0.0 **** -0.106
7585 C7585 43.7966 29.7092 13.1439 C.3 0.0 **** -0.106
7586 C7586 45.0521 28.8401 13.0823 C.3 0.0 **** -0.053
7587 C7587 45.0353 27.8966 11.8782 C.3 0.0 **** -0.106
7588 C7588 46.2399 26.9893 11.8405 C.ar 0.0 **** 0.0
7589 C7589 46.7774 26.5485 13.0678 C.ar 0.0 **** 0.0
7590 C7590 47.8676 25.6679 13.0685 C.ar 0.0 **** -0.1268
7591 C7591 48.4139 25.2462 11.8627 C.ar 0.0 **** -0.1268
7592 C7592 47.8871 25.6662 10.631 C.ar 0.0 **** 0.0
7593 C7593 46.7782 26.5385 10.6209 C.ar 0.0 **** 0.0
7594 C7594 43.56 25.2232 29.1222 C.3 0.0 **** -0.106
7595 C7595 42.1527 24.6656 28.8563 C.3 0.0 **** -0.159
7596 C7596 44.4591 23.7227 31.4702 C.3 0.0 **** -0.159
7597 C7597 44.6661 24.5091 26.4459 C.3 0.0 **** -0.159
7598 C7598 46.6835 21.8535 31.2395 C.3 0.0 **** -0.159
7599 C7599 49.6224 19.0175 28.3391 C.3 0.0 **** -0.159
7600 C7600 50.1664 17.8647 25.7253 C.3 0.0 **** -0.159
7601 O7601 50.3331 18.6532 23.1467 O.3 0.0 **** -0.452
7602 C7602 48.4293 15.8975 19.4091 C.3 0.0 **** -0.159
7603 C7603 46.4874 17.2686 17.7796 C.3 0.0 **** -0.159
7604 O7604 47.8194 21.8267 17.5447 O.3 0.0 **** -0.452
7605 O7605 46.6667 23.9462 22.4658 O.3 0.0 **** -0.452
7606 O7606 45.8751 25.9756 21.3849 O.2 0.0 **** -0.419
7607 O7607 46.9426 23.8278 16.5019 O.2 0.0 **** -0.419
7608 C7608 46.1528 26.9847 9.31945 C.3 0.0 **** -0.159
7609 C7609 48.5121 25.1656 9.35261 C.3 0.0 **** -0.159
7610 H7610 45.8232 22.3308 25.5639 H 0.0 **** 0.053
7611 H7611 47.1369 23.4469 25.7881 H 0.0 **** 0.053
7612 H7612 48.6651 21.5926 29.1394 H 0.0 **** 0.053
7613 H7613 47.4916 20.3054 29.2008 H 0.0 **** 0.053
7614 H7614 47.028 22.5955 23.8411 H 0.0 **** 0.1268
7615 H7615 47.3273 19.7984 17.8028 H 0.0 **** 0.053
7616 H7616 48.8014 18.9009 18.153 H 0.0 **** 0.053
7617 H7617 46.1279 18.4306 19.5375 H 0.0 **** 0.053
7618 H7618 47.0908 16.8278 20.8038 H 0.0 **** 0.053
7619 H7619 49.8036 17.911 20.0447 H 0.0 **** 0.053
7620 H7620 49.1703 17.4545 21.6366 H 0.0 **** 0.053
7621 H7621 44.8094 27.6801 20.1695 H 0.0 **** 0.053
7622 H7622 46.1135 28.3106 19.156 H 0.0 **** 0.053
7623 H7623 43.9425 28.9241 18.1388 H 0.0 **** 0.053
7624 H7624 43.4113 27.2406 18.1537 H 0.0 **** 0.053
7625 H7625 42.6922 29.2078 15.7722 H 0.0 **** 0.053
7626 H7626 43.9219 30.1767 16.5708 H 0.0 **** 0.053
7627 H7627 44.7047 31.1273 14.4864 H 0.0 **** 0.053
7628 H7628 42.936 31.2223 14.4604 H 0.0 **** 0.053
7629 H7629 43.7561 30.3662 12.2607 H 0.0 **** 0.053
7630 H7630 42.9064 29.0566 13.1067 H 0.0 **** 0.053
7631 H7631 45.9262 29.5108 12.9579 H 0.0 **** 0.053
7632 H7632 44.1145 27.2829 11.922 H 0.0 **** 0.053
7633 H7633 44.9631 28.4973 10.9609 H 0.0 **** 0.053
7634 H7634 48.2544 25.3153 14.0246 H 0.0 **** 0.1268
7635 H7635 49.2654 24.5621 11.8639 H 0.0 **** 0.1268
7636 H7636 43.7616 26.0562 28.4328 H 0.0 **** 0.053
7637 H7637 43.5956 25.6621 30.1287 H 0.0 **** 0.053
7638 H7638 41.9322 23.8341 29.5432 H 0.0 **** 0.053
7639 H7639 42.0804 24.2727 27.8312 H 0.0 **** 0.053
7640 H7640 41.3806 25.4395 28.9878 H 0.0 **** 0.053
7641 H7641 44.5239 22.8383 32.1167 H 0.0 **** 0.053
7642 H7642 43.3964 23.9817 31.3773 H 0.0 **** 0.053
7643 H7643 44.9529 24.5545 32.0026 H 0.0 **** 0.053
7644 H7644 44.2386 23.7633 25.7555 H 0.0 **** 0.053
7645 H7645 45.4944 24.989 25.8992 H 0.0 **** 0.053
7646 H7646 43.8958 25.2657 26.6266 H 0.0 **** 0.053
7647 H7647 47.7154 21.5102 31.0949 H 0.0 **** 0.053
7648 H7648 46.0833 20.9695 31.5192 H 0.0 **** 0.053
7649 H7649 46.6804 22.5315 32.1036 H 0.0 **** 0.053
7650 H7650 50.6263 18.6076 28.1709 H 0.0 **** 0.053
7651 H7651 48.9813 18.1893 28.6894 H 0.0 **** 0.053
7652 H7652 49.6958 19.7365 29.1642 H 0.0 **** 0.053
7653 H7653 49.7679 17.2471 24.9117 H 0.0 **** 0.053
7654 H7654 50.0917 17.2856 26.6527 H 0.0 **** 0.053
7655 H7655 51.2333 18.0245 25.5034 H 0.0 **** 0.053
7656 H7656 50.6141 18.7179 22.2201 H 0.0 **** 0.41
7657 H7657 47.6767 15.2013 19.014 H 0.0 **** 0.053
7658 H7658 49.0222 15.365 20.1687 H 0.0 **** 0.053
7659 H7659 49.1082 16.1684 18.5847 H 0.0 **** 0.053
7660 H7660 45.8716 17.9327 17.1552 H 0.0 **** 0.053
7661 H7661 45.8705 16.405 18.0709 H 0.0 **** 0.053
7662 H7662 47.317 16.8967 17.1599 H 0.0 **** 0.053
7663 H7663 47.5056 22.6033 16.8801 H 0.0 **** 0.41
7664 H7664 46.2895 24.9091 22.2174 H 0.0 **** 0.41
7665 H7665 45.0602 26.853 9.33741 H 0.0 **** 0.053
7666 H7666 46.545 26.4256 8.46224 H 0.0 **** 0.053
7667 H7667 46.3404 28.0558 9.13191 H 0.0 **** 0.053
7668 H7668 47.7951 24.5794 8.75459 H 0.0 **** 0.053
7669 H7669 49.3755 24.5221 9.56936 H 0.0 **** 0.053
7670 H7670 48.8546 25.9969 8.71573 H 0.0 **** 0.053
7671 C7671 5.36648 33.8201 41.7031 C.ar 0.0 **** 0.0
7672 C7672 6.2162 32.7243 41.4641 C.ar 0.0 **** 0.0
7673 C7673 5.98231 31.5012 42.1235 C.ar 0.0 **** 0.0
7674 C7674 4.89884 31.378 42.9962 C.ar 0.0 **** 0.0
7675 C7675 4.01118 32.4539 43.198 C.ar 0.0 **** 0.0
7676 C7676 4.23321 33.6733 42.533 C.ar 0.0 **** 0.0
7677 C7677 4.63819 30.0999 43.7379 C.3 0.0 **** -0.106
7678 C7678 5.67052 29.0182 43.612 C.ar 0.0 **** 0.0
7679 C7679 6.73306 29.1193 42.7421 C.ar 0.0 **** 0.0
7680 C7680 6.9103 30.3378 41.874 C.3 0.0 **** -0.106
7681 C7681 7.71728 28.0758 42.671 C.ar 0.0 **** 0.0
7682 C7682 7.65357 26.9676 43.5098 C.ar 0.0 **** 0.0
7683 C7683 6.51847 26.8165 44.3792 C.ar 0.0 **** 0.0
7684 C7684 5.52335 27.8552 44.4292 C.ar 0.0 **** 0.0
7685 C7685 4.38049 27.7141 45.231 C.ar 0.0 **** -0.1268
7686 C7686 4.20942 26.6495 46.1142 C.ar 0.0 **** 0.0
7687 C7687 5.27674 25.681 46.2066 C.ar 0.0 **** 0.0
7688 C7688 6.27931 25.6904 45.205 C.ar 0.0 **** 0.042
7689 C7689 5.30355 24.8042 47.3407 C.2 0.0 **** 0.0
7690 C7690 4.20058 24.6939 48.1769 C.2 0.0 **** 0.0
7691 C7691 2.98428 25.3914 47.8669 C.ar 0.0 **** 0.0
7692 C7692 3.0069 26.4365 46.8974 C.ar 0.0 **** 0.0
7693 C7693 4.44509 23.9716 49.4815 C.3 0.0 **** -0.106
7694 C7694 5.68887 24.5868 50.1538 C.ar 0.0 **** -0.053
7695 C7695 6.94422 24.3617 49.2719 C.ar 0.0 **** -0.053
7696 C7696 6.54663 24.0764 47.7977 C.3 0.0 **** -0.106
7697 C7697 1.80904 27.2188 46.7066 C.ar 0.0 **** 0.042
7698 C7698 0.624275 26.9202 47.4212 C.ar 0.0 **** 0.052
7699 C7699 0.580036 25.8324 48.3239 C.ar 0.0 **** 0.052
7700 C7700 1.73963 25.0546 48.525 C.ar 0.0 **** 0.042
7701 C7701 -0.630377 25.4967 49.0486 C.2 0.0 **** 0.367
7702 C7702 -1.8312 26.3287 48.8243 C.ar 0.0 **** 0.0
7703 C7703 -1.76075 27.3958 47.9508 C.ar 0.0 **** 0.0
7704 C7704 -0.550922 27.7193 47.2092 C.2 0.0 **** 0.367
7705 C7705 -2.97091 28.2493 47.7056 C.3 0.0 **** -0.106
7706 C7706 -3.77158 28.4224 48.9932 C.3 0.0 **** -0.106
7707 C7707 -4.07995 27.0823 49.6059 C.ar 0.0 **** 0.0
7708 C7708 -3.10974 26.0539 49.515 C.ar 0.0 **** 0.2405
7709 N7709 -3.29539 24.8396 50.0517 N.ar 0.0 **** -0.481
7710 C7710 -4.41552 24.5996 50.7417 C.ar 0.0 **** 0.2405
7711 C7711 -5.44427 25.5554 50.8825 C.ar 0.0 **** 0.0
7712 C7712 -5.27769 26.815 50.2892 C.ar 0.0 **** 0.0
7713 C7713 -6.35353 27.8728 50.4102 C.3 0.0 **** -0.106
7714 C7714 -7.70383 27.3263 50.8865 C.3 0.0 **** -0.106
7715 C7715 -7.51446 26.3737 52.0659 C.3 0.0 **** -0.106
7716 C7716 -6.69487 25.1588 51.6323 C.3 0.0 **** -0.053
7717 C7717 -6.35037 24.2508 52.8143 C.3 0.0 **** -0.106
7718 C7718 -5.48849 23.0807 52.4097 C.ar 0.0 **** 0.0
7719 C7719 -4.54575 23.276 51.3787 C.ar 0.0 **** 0.0
7720 C7720 -3.69718 22.2235 51.0096 C.ar 0.0 **** -0.1268
7721 C7721 -3.79916 20.9971 51.6544 C.ar 0.0 **** -0.1268
7722 C7722 -4.72443 20.7862 52.689 C.ar 0.0 **** 0.0
7723 C7723 -5.57039 21.8457 53.0794 C.ar 0.0 **** 0.0
7724 C7724 3.28508 34.838 42.7273 C.3 0.0 **** -0.106
7725 C7725 3.61143 35.6491 43.9912 C.3 0.0 **** -0.159
7726 C7726 5.67739 35.1598 41.0701 C.3 0.0 **** -0.159
7727 C7727 2.8528 32.2503 44.1459 C.3 0.0 **** -0.159
7728 C7728 7.37628 32.8603 40.5036 C.3 0.0 **** -0.159
7729 C7729 8.85604 28.2231 41.6865 C.3 0.0 **** -0.159
7730 C7730 8.82087 26.0076 43.5699 C.3 0.0 **** -0.159
7731 O7731 7.02558 24.5565 44.9736 O.3 0.0 **** -0.452
7732 C7732 7.85161 23.2194 49.7399 C.3 0.0 **** -0.159
7733 C7733 5.83108 24.0985 51.5974 C.3 0.0 **** -0.159
7734 O7734 1.66845 23.9815 49.3028 O.3 0.0 **** -0.452
7735 O7735 1.77477 28.2408 45.8554 O.3 0.0 **** -0.452
7736 O7736 -0.555903 28.697 46.3777 O.2 0.0 **** -0.419
7737 O7737 -0.624525 24.5197 49.8622 O.2 0.0 **** -0.419
7738 C7738 -6.55341 21.6769 54.2148 C.3 0.0 **** -0.159
7739 C7739 -4.78206 19.4378 53.363 C.3 0.0 **** -0.159
7740 H7740 4.50617 30.33 44.8096 H 0.0 **** 0.053
7741 H7741 3.65236 29.6969 43.4341 H 0.0 **** 0.053
7742 H7742 6.81828 30.0322 40.8132 H 0.0 **** 0.053
7743 H7743 7.95427 30.6831 41.9636 H 0.0 **** 0.053
7744 H7744 3.59534 28.4486 45.1562 H 0.0 **** 0.1268
7745 H7745 3.59042 24.0448 50.1544 H 0.0 **** 0.053
7746 H7746 4.61992 22.8935 49.3085 H 0.0 **** 0.053
7747 H7747 5.50494 25.6732 50.189 H 0.0 **** 0.053
7748 H7748 7.53593 25.2907 49.2788 H 0.0 **** 0.053
7749 H7749 6.3621 22.9872 47.7214 H 0.0 **** 0.053
7750 H7750 7.4181 24.3029 47.1761 H 0.0 **** 0.053
7751 H7751 -2.6623 29.2128 47.2808 H 0.0 **** 0.053
7752 H7752 -3.59998 27.7527 46.943 H 0.0 **** 0.053
7753 H7753 -4.68689 28.9916 48.7891 H 0.0 **** 0.053
7754 H7754 -3.18168 29.0235 49.711 H 0.0 **** 0.053
7755 H7755 -6.00214 28.6502 51.1125 H 0.0 **** 0.053
7756 H7756 -6.48407 28.3834 49.4435 H 0.0 **** 0.053
7757 H7757 -8.18838 26.7787 50.0609 H 0.0 **** 0.053
7758 H7758 -8.36834 28.1624 51.1522 H 0.0 **** 0.053
7759 H7759 -8.48419 26.0424 52.4699 H 0.0 **** 0.053
7760 H7760 -6.98132 26.8936 52.8814 H 0.0 **** 0.053
7761 H7761 -7.31354 24.5614 50.9326 H 0.0 **** 0.053
7762 H7762 -5.81958 24.8509 53.5789 H 0.0 **** 0.053
7763 H7763 -7.285 23.9112 53.2818 H 0.0 **** 0.053
7764 H7764 -2.95596 22.3984 50.2298 H 0.0 **** 0.1268
7765 H7765 -3.13957 20.1763 51.3643 H 0.0 **** 0.1268
7766 H7766 2.24922 34.4721 42.7826 H 0.0 **** 0.053
7767 H7767 3.31465 35.4992 41.8504 H 0.0 **** 0.053
7768 H7768 4.64381 36.0287 43.949 H 0.0 **** 0.053
7769 H7769 3.53058 35.0164 44.8876 H 0.0 **** 0.053
7770 H7770 2.93021 36.5064 44.1077 H 0.0 **** 0.053
7771 H7771 6.75406 35.2815 40.8961 H 0.0 **** 0.053
7772 H7772 5.35379 35.9929 41.7075 H 0.0 **** 0.053
7773 H7773 5.17255 35.2789 40.0953 H 0.0 **** 0.053
7774 H7774 3.21614 32.0074 45.1582 H 0.0 **** 0.053
7775 H7775 2.22631 31.3979 43.8358 H 0.0 **** 0.053
7776 H7776 2.20809 33.1308 44.2333 H 0.0 **** 0.053
7777 H7777 7.67435 31.893 40.0804 H 0.0 **** 0.053
7778 H7778 8.26641 33.2856 41.0002 H 0.0 **** 0.053
7779 H7779 7.12754 33.5239 39.6646 H 0.0 **** 0.053
7780 H7780 9.20315 27.2485 41.3208 H 0.0 **** 0.053
7781 H7781 9.72354 28.7345 42.1398 H 0.0 **** 0.053
7782 H7782 8.55726 28.814 40.812 H 0.0 **** 0.053
7783 H7783 9.01745 25.7001 44.6038 H 0.0 **** 0.053
7784 H7784 9.7333 26.4725 43.1797 H 0.0 **** 0.053
7785 H7785 8.63252 25.0847 42.9992 H 0.0 **** 0.053
7786 H7786 6.58879 23.8123 45.4175 H 0.0 **** 0.41
7787 H7787 8.27958 23.4134 50.7331 H 0.0 **** 0.053
7788 H7788 8.68233 23.0775 49.0315 H 0.0 **** 0.053
7789 H7789 7.29 22.2728 49.7904 H 0.0 **** 0.053
7790 H7790 4.93723 24.3676 52.1795 H 0.0 **** 0.053
7791 H7791 6.70687 24.5484 52.0892 H 0.0 **** 0.053
7792 H7792 5.94478 23.005 51.6406 H 0.0 **** 0.053
7793 H7793 0.670051 24.0181 49.6837 H 0.0 **** 0.41
7794 H7794 0.780523 28.6128 45.9208 H 0.0 **** 0.41
7795 H7795 -6.4779 22.5074 54.9332 H 0.0 **** 0.053
7796 H7796 -6.39104 20.7419 54.7631 H 0.0 **** 0.053
7797 H7797 -7.59333 21.6698 53.8459 H 0.0 **** 0.053
7798 H7798 -4.53776 19.5112 54.4355 H 0.0 **** 0.053
7799 H7799 -4.06751 18.7429 52.9014 H 0.0 **** 0.053
7800 H7800 -5.7875 18.9925 53.2943 H 0.0 **** 0.053
7801 C7801 54.7073 53.5549 8.49392 C.ar 0.0 **** 0.0
7802 C7802 54.2021 53.4187 7.18774 C.ar 0.0 **** 0.0
7803 C7803 54.2588 54.5103 6.29868 C.ar 0.0 **** 0.0
7804 C7804 54.8318 55.7149 6.71256 C.ar 0.0 **** 0.0
7805 C7805 55.3899 55.8414 8.00051 C.ar 0.0 **** 0.0
7806 C7806 55.3466 54.751 8.88788 C.ar 0.0 **** 0.0
7807 C7807 54.8815 56.9066 5.80208 C.3 0.0 **** -0.106
7808 C7808 54.1619 56.7905 4.49047 C.ar 0.0 **** 0.0
7809 C7809 53.6088 55.6044 4.06257 C.ar 0.0 **** 0.0
7810 C7810 53.6976 54.3592 4.90614 C.3 0.0 **** -0.106
7811 C7811 52.902 55.5396 2.81394 C.ar 0.0 **** 0.0
7812 C7812 52.7128 56.6759 2.0339 C.ar 0.0 **** 0.0
7813 C7813 53.3364 57.9078 2.43494 C.ar 0.0 **** 0.0
7814 C7814 54.0629 57.9607 3.67631 C.ar 0.0 **** 0.0
7815 C7815 54.7228 59.1346 4.07045 C.ar 0.0 **** -0.1268
7816 C7816 54.6027 60.3345 3.37157 C.ar 0.0 **** 0.0
7817 C7817 53.7389 60.3491 2.21422 C.ar 0.0 **** 0.0
7818 C7818 53.31 59.1076 1.68198 C.ar 0.0 **** 0.042
7819 C7819 53.3069 61.6173 1.70353 C.2 0.0 **** 0.0
7820 C7820 53.9122 62.7937 2.12472 C.2 0.0 **** 0.0
7821 C7821 55.0398 62.7503 3.01271 C.ar 0.0 **** 0.0
7822 C7822 55.3326 61.5417 3.71016 C.ar 0.0 **** 0.0
7823 C7823 53.1915 64.0663 1.74446 C.3 0.0 **** -0.106
7824 C7824 51.7129 63.9323 2.16039 C.ar 0.0 **** -0.053
7825 C7825 51.0354 62.7791 1.37586 C.ar 0.0 **** -0.053
7826 C7826 52.0925 61.786 0.820122 C.3 0.0 **** -0.106
7827 C7827 56.3791 61.5616 4.70398 C.ar 0.0 **** 0.042
7828 C7828 57.1351 62.7347 4.9402 C.ar 0.0 **** 0.052
7829 C7829 56.8972 63.9104 4.19095 C.ar 0.0 **** 0.052
7830 C7830 55.879 63.9125 3.21448 C.ar 0.0 **** 0.042
7831 C7831 57.6757 65.1154 4.40257 C.2 0.0 **** 0.367
7832 C7832 58.734 65.0901 5.43393 C.ar 0.0 **** 0.0
7833 C7833 58.9382 63.9364 6.16488 C.ar 0.0 **** 0.0
7834 C7834 58.1693 62.7217 5.9376 C.2 0.0 **** 0.367
7835 C7835 60.0116 63.8892 7.21298 C.3 0.0 **** -0.106
7836 C7836 60.1098 65.229 7.937 C.3 0.0 **** -0.106
7837 C7837 60.2679 66.3522 6.94709 C.ar 0.0 **** 0.0
7838 C7838 59.5807 66.2706 5.71087 C.ar 0.0 **** 0.2405
7839 N7839 59.6497 67.2363 4.78372 N.ar 0.0 **** -0.481
7840 C7840 60.3526 68.3424 5.05011 C.ar 0.0 **** 0.2405
7841 C7841 61.0777 68.5153 6.24847 C.ar 0.0 **** 0.0
7842 C7842 61.0458 67.4925 7.20726 C.ar 0.0 **** 0.0
7843 C7843 61.8088 67.63 8.50726 C.3 0.0 **** -0.106
7844 C7844 62.8498 68.7547 8.49439 C.3 0.0 **** -0.106
7845 C7845 62.2632 70.0257 7.88215 C.3 0.0 **** -0.106
7846 C7846 61.8878 69.7791 6.42139 C.3 0.0 **** -0.053
7847 C7847 61.1577 70.9761 5.80937 C.3 0.0 **** -0.106
7848 C7848 60.7263 70.7215 4.38636 C.ar 0.0 **** 0.0
7849 C7849 60.3405 69.4113 4.03418 C.ar 0.0 **** 0.0
7850 C7850 59.8902 69.1494 2.73315 C.ar 0.0 **** -0.1268
7851 C7851 59.8377 70.1788 1.80156 C.ar 0.0 **** -0.1268
7852 C7852 60.2083 71.4911 2.13556 C.ar 0.0 **** 0.0
7853 C7853 60.6458 71.7674 3.44825 C.ar 0.0 **** 0.0
7854 C7854 55.9506 54.8625 10.272 C.3 0.0 **** -0.106
7855 C7855 54.9872 55.515 11.2761 C.3 0.0 **** -0.159
7856 C7856 54.5563 52.4135 9.47724 C.3 0.0 **** -0.159
7857 C7857 56.0047 57.1679 8.38057 C.3 0.0 **** -0.159
7858 C7858 53.5999 52.1053 6.74134 C.3 0.0 **** -0.159
7859 C7859 52.3282 54.21 2.37722 C.3 0.0 **** -0.159
7860 C7860 51.7746 56.6213 0.848739 C.3 0.0 **** -0.159
7861 O7861 52.8972 59.0317 0.370506 O.3 0.0 **** -0.452
7862 C7862 50.1631 63.237 0.202592 C.3 0.0 **** -0.159
7863 C7863 50.9903 65.2779 2.06158 C.3 0.0 **** -0.159
7864 O7864 55.7199 64.9874 2.45226 O.3 0.0 **** -0.452
7865 O7865 56.671 60.4838 5.42735 O.3 0.0 **** -0.452
7866 O7866 58.4318 61.6653 6.61758 O.2 0.0 **** -0.419
7867 O7867 57.4205 66.1561 3.71813 O.2 0.0 **** -0.419
7868 C7868 61.0163 73.1723 3.86402 C.3 0.0 **** -0.159
7869 C7869 60.1184 72.5721 1.08726 C.3 0.0 **** -0.159
7870 H7870 54.4814 57.7836 6.34044 H 0.0 **** 0.053
7871 H7871 55.9387 57.1766 5.61261 H 0.0 **** 0.053
7872 H7872 54.2996 53.6056 4.36124 H 0.0 **** 0.053
7873 H7873 52.6938 53.906 4.96862 H 0.0 **** 0.053
7874 H7874 55.3586 59.1102 4.94037 H 0.0 **** 0.1268
7875 H7875 53.6297 64.9418 2.22417 H 0.0 **** 0.053
7876 H7876 53.2491 64.2413 0.654044 H 0.0 **** 0.053
7877 H7877 51.7251 63.6411 3.22358 H 0.0 **** 0.053
7878 H7878 50.396 62.2201 2.07714 H 0.0 **** 0.053
7879 H7879 52.4243 62.1861 -0.157663 H 0.0 **** 0.053
7880 H7880 51.5793 60.8392 0.626665 H 0.0 **** 0.053
7881 H7881 59.8142 63.0613 7.90556 H 0.0 **** 0.053
7882 H7882 60.9748 63.6656 6.71683 H 0.0 **** 0.053
7883 H7883 60.9396 65.2051 8.6541 H 0.0 **** 0.053
7884 H7884 59.1887 65.392 8.52815 H 0.0 **** 0.053
7885 H7885 61.0833 67.8086 9.32137 H 0.0 **** 0.053
7886 H7886 62.3012 66.6763 8.75267 H 0.0 **** 0.053
7887 H7887 63.7205 68.4402 7.89509 H 0.0 **** 0.053
7888 H7888 63.2116 68.9356 9.51787 H 0.0 **** 0.053
7889 H7889 62.975 70.8639 7.94619 H 0.0 **** 0.053
7890 H7890 61.3576 70.3229 8.44002 H 0.0 **** 0.053
7891 H7891 62.8256 69.6413 5.84618 H 0.0 **** 0.053
7892 H7892 60.2675 71.2021 6.42816 H 0.0 **** 0.053
7893 H7893 61.8107 71.8575 5.87351 H 0.0 **** 0.053
7894 H7894 59.5702 68.1377 2.48428 H 0.0 **** 0.1268
7895 H7895 59.4894 69.9736 0.786903 H 0.0 **** 0.1268
7896 H7896 56.8838 55.443 10.2276 H 0.0 **** 0.053
7897 H7897 56.2423 53.8685 10.6378 H 0.0 **** 0.053
7898 H7898 54.0494 54.942 11.3377 H 0.0 **** 0.053
7899 H7899 54.7283 56.5351 10.9557 H 0.0 **** 0.053
7900 H7900 55.4291 55.5681 12.2833 H 0.0 **** 0.053
7901 H7901 53.6712 51.8047 9.2529 H 0.0 **** 0.053
7902 H7902 54.4486 52.7786 10.5069 H 0.0 **** 0.053
7903 H7903 55.4307 51.7395 9.45924 H 0.0 **** 0.053
7904 H7904 55.2533 57.9734 8.33234 H 0.0 **** 0.053
7905 H7905 56.8034 57.4556 7.67726 H 0.0 **** 0.053
7906 H7906 56.4248 57.1738 9.3915 H 0.0 **** 0.053
7907 H7907 53.6491 51.9802 5.65254 H 0.0 **** 0.053
7908 H7908 52.5364 52.0278 7.02942 H 0.0 **** 0.053
7909 H7909 54.1195 51.2504 7.19456 H 0.0 **** 0.053
7910 H7910 52.3088 54.1173 1.28398 H 0.0 **** 0.053
7911 H7911 51.2938 54.0735 2.7392 H 0.0 **** 0.053
7912 H7912 52.917 53.3707 2.76704 H 0.0 **** 0.053
7913 H7913 51.1683 57.533 0.791466 H 0.0 **** 0.053
7914 H7914 51.0905 55.7687 0.927287 H 0.0 **** 0.053
7915 H7915 52.3144 56.5435 -0.10808 H 0.0 **** 0.053
7916 H7916 53.1719 59.8463 -0.0796448 H 0.0 **** 0.41
7917 H7917 49.3095 63.8434 0.535527 H 0.0 **** 0.053
7918 H7918 49.7707 62.3655 -0.343892 H 0.0 **** 0.053
7919 H7919 50.752 63.8393 -0.507571 H 0.0 **** 0.053
7920 H7920 51.4801 66.0209 2.70842 H 0.0 **** 0.053
7921 H7921 49.9387 65.1931 2.37488 H 0.0 **** 0.053
7922 H7922 51.0052 65.6655 1.03193 H 0.0 **** 0.053
7923 H7923 56.4222 65.6841 2.85793 H 0.0 **** 0.41
7924 H7924 57.472 60.7903 6.05644 H 0.0 **** 0.41
7925 H7925 60.5201 73.4523 4.80579 H 0.0 **** 0.053
7926 H7926 60.7387 73.9121 3.10454 H 0.0 **** 0.053
7927 H7927 62.1021 73.265 4.03738 H 0.0 **** 0.053
7928 H7928 59.4056 73.3605 1.3797 H 0.0 **** 0.053
7929 H7929 59.7843 72.1547 0.127763 H 0.0 **** 0.053
7930 H7930 61.0911 73.0644 0.927574 H 0.0 **** 0.053
7931 C7931 7.40417 51.8894 28.1406 C.ar 0.0 **** 0.0
7932 C7932 6.10867 51.8986 28.6897 C.ar 0.0 **** 0.0
7933 C7933 5.41827 50.6842 28.8731 C.ar 0.0 **** 0.0
7934 C7934 6.02988 49.4775 28.5257 C.ar 0.0 **** 0.0
7935 C7935 7.34796 49.4559 28.0272 C.ar 0.0 **** 0.0
7936 C7936 8.04606 50.6646 27.8534 C.ar 0.0 **** 0.0
7937 C7937 5.31236 48.1686 28.6794 C.3 0.0 **** -0.106
7938 C7938 3.86794 48.2283 29.0814 C.ar 0.0 **** 0.0
7939 C7939 3.25808 49.4084 29.4438 C.ar 0.0 **** 0.0
7940 C7940 4.0224 50.7067 29.4457 C.3 0.0 **** -0.106
7941 C7941 1.86544 49.4302 29.7943 C.ar 0.0 **** 0.0
7942 C7942 1.08794 48.2785 29.727 C.ar 0.0 **** 0.0
7943 C7943 1.72213 47.0275 29.411 C.ar 0.0 **** 0.0
7944 C7944 3.12344 47.0086 29.0829 C.ar 0.0 **** 0.0
7945 C7945 3.78069 45.7975 28.818 C.ar 0.0 **** -0.1268
7946 C7946 3.1053 44.5821 28.7203 C.ar 0.0 **** 0.0
7947 C7947 1.66981 44.6019 28.8774 C.ar 0.0 **** 0.0
7948 C7948 1.06961 45.7699 29.4104 C.ar 0.0 **** 0.042
7949 C7949 0.920192 43.4663 28.4256 C.2 0.0 **** 0.0
7950 C7950 1.56066 42.2765 28.106 C.2 0.0 **** 0.0
7951 C7951 2.97568 42.139 28.3077 C.ar 0.0 **** 0.0
7952 C7952 3.7662 43.3055 28.5245 C.ar 0.0 **** 0.0
7953 C7953 0.713757 41.2593 27.3769 C.3 0.0 **** -0.106
7954 C7954 0.0391565 41.9558 26.178 C.ar 0.0 **** -0.053
7955 C7955 -0.919842 43.0695 26.6723 C.ar 0.0 **** -0.053
7956 C7956 -0.557784 43.5179 28.1147 C.3 0.0 **** -0.106
7957 C7957 5.20104 43.159 28.5803 C.ar 0.0 **** 0.042
7958 C7958 5.80597 41.8833 28.4804 C.ar 0.0 **** 0.052
7959 C7959 5.01599 40.7179 28.3458 C.ar 0.0 **** 0.052
7960 C7960 3.61159 40.8386 28.2894 C.ar 0.0 **** 0.042
7961 C7961 5.61575 39.4001 28.2643 C.2 0.0 **** 0.367
7962 C7962 7.08919 39.2995 28.3214 C.ar 0.0 **** 0.0
7963 C7963 7.84153 40.4516 28.4367 C.ar 0.0 **** 0.0
7964 C7964 7.23731 41.7718 28.5384 C.2 0.0 **** 0.367
7965 C7965 9.33889 40.3698 28.5017 C.3 0.0 **** -0.106
7966 C7966 9.85285 39.2608 27.5879 C.3 0.0 **** -0.106
7967 C7967 9.15376 37.9624 27.891 C.ar 0.0 **** 0.0
7968 C7968 7.78445 37.9959 28.2531 C.ar 0.0 **** 0.2405
7969 N7969 7.08229 36.8851 28.5176 N.ar 0.0 **** -0.481
7970 C7970 7.67833 35.6949 28.389 C.ar 0.0 **** 0.2405
7971 C7971 9.03905 35.5568 28.041 C.ar 0.0 **** 0.0
7972 C7972 9.79314 36.7148 27.803 C.ar 0.0 **** 0.0
7973 C7973 11.2567 36.6187 27.4291 C.3 0.0 **** -0.106
7974 C7974 11.8716 35.2407 27.6968 C.3 0.0 **** -0.106
7975 C7975 10.9431 34.1311 27.2056 C.3 0.0 **** -0.106
7976 C7976 9.62748 34.1662 27.9824 C.3 0.0 **** -0.053
7977 C7977 8.60783 33.1718 27.4241 C.3 0.0 **** -0.106
7978 C7978 7.28313 33.2405 28.1427 C.ar 0.0 **** 0.0
7979 C7979 6.84946 34.4965 28.6162 C.ar 0.0 **** 0.0
7980 C7980 5.60275 34.6044 29.2471 C.ar 0.0 **** -0.1268
7981 C7981 4.81173 33.4738 29.4089 C.ar 0.0 **** -0.1268
7982 C7982 5.22167 32.217 28.9361 C.ar 0.0 **** 0.0
7983 C7983 6.46744 32.1025 28.2835 C.ar 0.0 **** 0.0
7984 C7984 9.46698 50.6626 27.3299 C.3 0.0 **** -0.106
7985 C7985 9.52139 50.5935 25.7955 C.3 0.0 **** -0.159
7986 C7986 8.10435 53.2008 27.8535 C.3 0.0 **** -0.159
7987 C7987 7.95459 48.1162 27.6822 C.3 0.0 **** -0.159
7988 C7988 5.46054 53.2079 29.0803 C.3 0.0 **** -0.159
7989 C7989 1.2445 50.7472 30.2039 C.3 0.0 **** -0.159
7990 C7990 -0.413541 48.3803 29.8789 C.3 0.0 **** -0.159
7991 O7991 -0.171775 45.6923 30.0012 O.3 0.0 **** -0.452
7992 C7992 -2.40173 42.6808 26.6626 C.3 0.0 **** -0.159
7993 C7993 -0.605692 40.9327 25.2399 C.3 0.0 **** -0.159
7994 O7994 2.87141 39.7375 28.2545 O.3 0.0 **** -0.452
7995 O7995 6.00165 44.2111 28.7296 O.3 0.0 **** -0.452
7996 O7996 7.98476 42.8045 28.6875 O.2 0.0 **** -0.419
7997 O7997 4.8709 38.3786 28.129 O.2 0.0 **** -0.419
7998 C7998 6.9317 30.7782 27.7227 C.3 0.0 **** -0.159
7999 C7999 4.31595 31.026 29.1274 C.3 0.0 **** -0.159
8000 H8000 5.38531 47.6084 27.7308 H 0.0 **** 0.053
8001 H8001 5.86316 47.5336 29.4005 H 0.0 **** 0.053
8002 H8002 4.07188 51.086 30.4854 H 0.0 **** 0.053
8003 H8003 3.42541 51.4655 28.912 H 0.0 **** 0.053
8004 H8004 4.85152 45.7994 28.6961 H 0.0 **** 0.1268
8005 H8005 1.30506 40.4138 27.0248 H 0.0 **** 0.053
8006 H8006 -0.0653263 40.8447 28.0432 H 0.0 **** 0.053
8007 H8007 0.852433 42.4488 25.6204 H 0.0 **** 0.053
8008 H8008 -0.793368 43.944 26.0148 H 0.0 **** 0.053
8009 H8009 -1.0845 42.8306 28.8049 H 0.0 **** 0.053
8010 H8010 -0.983102 44.5153 28.2617 H 0.0 **** 0.053
8011 H8011 9.77257 41.3453 28.248 H 0.0 **** 0.053
8012 H8012 9.632 40.1537 29.5463 H 0.0 **** 0.053
8013 H8013 10.9407 39.1659 27.6927 H 0.0 **** 0.053
8014 H8014 9.66214 39.5394 26.5341 H 0.0 **** 0.053
8015 H8015 11.3609 36.867 26.3575 H 0.0 **** 0.053
8016 H8016 11.8302 37.3881 27.969 H 0.0 **** 0.053
8017 H8017 12.0324 35.1163 28.7807 H 0.0 **** 0.053
8018 H8018 12.8591 35.1763 27.2152 H 0.0 **** 0.053
8019 H8019 11.4129 33.1409 27.3154 H 0.0 **** 0.053
8020 H8020 10.7295 34.274 26.1316 H 0.0 **** 0.053
8021 H8021 9.83957 33.8624 29.0275 H 0.0 **** 0.053
8022 H8022 8.45413 33.3881 26.349 H 0.0 **** 0.053
8023 H8023 9.03547 32.161 27.478 H 0.0 **** 0.053
8024 H8024 5.27016 35.5865 29.5833 H 0.0 **** 0.1268
8025 H8025 3.84147 33.558 29.9032 H 0.0 **** 0.1268
8026 H8026 10.0217 49.8137 27.7559 H 0.0 **** 0.053
8027 H8027 9.99763 51.5606 27.6748 H 0.0 **** 0.053
8028 H8028 8.97581 51.4408 25.3526 H 0.0 **** 0.053
8029 H8029 9.04453 49.6705 25.4335 H 0.0 **** 0.053
8030 H8030 10.5588 50.617 25.4271 H 0.0 **** 0.053
8031 H8031 7.38502 54.0021 27.6419 H 0.0 **** 0.053
8032 H8032 8.76978 53.1218 26.9839 H 0.0 **** 0.053
8033 H8033 8.72081 53.5312 28.7078 H 0.0 **** 0.053
8034 H8034 7.363 47.6104 26.9013 H 0.0 **** 0.053
8035 H8035 7.95107 47.4388 28.552 H 0.0 **** 0.053
8036 H8036 8.98323 48.1911 27.3151 H 0.0 **** 0.053
8037 H8037 4.69657 53.0724 29.8559 H 0.0 **** 0.053
8038 H8038 4.96599 53.689 28.2178 H 0.0 **** 0.053
8039 H8039 6.19948 53.9223 29.4676 H 0.0 **** 0.053
8040 H8040 0.429238 50.6033 30.9241 H 0.0 **** 0.053
8041 H8041 0.827917 51.289 29.3364 H 0.0 **** 0.053
8042 H8042 1.98195 51.4108 30.6717 H 0.0 **** 0.053
8043 H8043 -0.921468 47.7273 29.1594 H 0.0 **** 0.053
8044 H8044 -0.758377 49.4054 29.7021 H 0.0 **** 0.053
8045 H8045 -0.754265 48.0692 30.8789 H 0.0 **** 0.053
8046 H8046 -0.373565 44.7559 30.1569 H 0.0 **** 0.41
8047 H8047 -2.76698 42.4736 25.6473 H 0.0 **** 0.053
8048 H8048 -3.01199 43.4933 27.0863 H 0.0 **** 0.053
8049 H8049 -2.57141 41.781 27.2754 H 0.0 **** 0.053
8050 H8050 0.152482 40.2282 24.8669 H 0.0 **** 0.053
8051 H8051 -1.07318 41.4221 24.3721 H 0.0 **** 0.053
8052 H8052 -1.38225 40.3495 25.757 H 0.0 **** 0.053
8053 H8053 3.59661 38.954 28.1947 H 0.0 **** 0.41
8054 H8054 6.98359 43.8027 28.7437 H 0.0 **** 0.41
8055 H8055 7.27738 30.8856 26.6833 H 0.0 **** 0.053
8056 H8056 6.13596 30.0246 27.7365 H 0.0 **** 0.053
8057 H8057 7.78143 30.3751 28.2999 H 0.0 **** 0.053
8058 H8058 4.00317 30.5966 28.1614 H 0.0 **** 0.053
8059 H8059 3.40975 31.3127 29.678 H 0.0 **** 0.053
8060 H8060 4.81762 30.2205 29.6873 H 0.0 **** 0.053
8061 C8061 43.7489 57.8931 63.7615 C.ar 0.0 **** 0.0
8062 C8062 43.6794 58.0996 65.1517 C.ar 0.0 **** 0.0
8063 C8063 42.513 58.6496 65.7194 C.ar 0.0 **** 0.0
8064 C8064 41.4265 58.9698 64.9022 C.ar 0.0 **** 0.0
8065 C8065 41.4678 58.7143 63.5169 C.ar 0.0 **** 0.0
8066 C8066 42.6253 58.1543 62.9468 C.ar 0.0 **** 0.0
8067 C8067 40.1807 59.5849 65.4692 C.3 0.0 **** -0.106
8068 C8068 40.2126 59.9719 66.9186 C.ar 0.0 **** 0.0
8069 C8069 41.2692 59.6461 67.7392 C.ar 0.0 **** 0.0
8070 C8070 42.4557 58.884 67.2089 C.3 0.0 **** -0.106
8071 C8071 41.2769 60.0597 69.1146 C.ar 0.0 **** 0.0
8072 C8072 40.2504 60.8395 69.6377 C.ar 0.0 **** 0.0
8073 C8073 39.1109 61.1356 68.8126 C.ar 0.0 **** 0.0
8074 C8074 39.0987 60.6986 67.4412 C.ar 0.0 **** 0.0
8075 C8075 37.9806 60.9301 66.6257 C.ar 0.0 **** -0.1268
8076 C8076 36.8958 61.7012 67.0396 C.ar 0.0 **** 0.0
8077 C8077 36.9618 62.2943 68.3547 C.ar 0.0 **** 0.0
8078 C8078 37.9555 61.8284 69.2513 C.ar 0.0 **** 0.042
8079 C8079 36.0629 63.3679 68.6628 C.2 0.0 **** 0.0
8080 C8080 34.9824 63.6462 67.8364 C.2 0.0 **** 0.0
8081 C8081 34.6991 62.8056 66.7072 C.ar 0.0 **** 0.0
8082 C8082 35.6945 61.8934 66.2492 C.ar 0.0 **** 0.0
8083 C8083 34.2849 64.9604 68.1008 C.3 0.0 **** -0.106
8084 C8084 35.3482 66.076 68.1479 C.ar 0.0 **** -0.053
8085 C8085 36.3252 65.8388 69.3284 C.ar 0.0 **** -0.053
8086 C8086 36.3008 64.3538 69.7832 C.3 0.0 **** -0.106
8087 C8087 35.4446 61.1641 65.029 C.ar 0.0 **** 0.042
8088 C8088 34.2193 61.3064 64.3349 C.ar 0.0 **** 0.052
8089 C8089 33.2006 62.1512 64.8337 C.ar 0.0 **** 0.052
8090 C8090 33.4241 62.873 66.0249 C.ar 0.0 **** 0.042
8091 C8091 31.9301 62.2933 64.1491 C.2 0.0 **** 0.367
8092 C8092 31.721 61.5302 62.9008 C.ar 0.0 **** 0.0
8093 C8093 32.7354 60.724 62.4234 C.ar 0.0 **** 0.0
8094 C8094 34.0025 60.567 63.1221 C.2 0.0 **** 0.367
8095 C8095 32.5404 59.9369 61.1602 C.3 0.0 **** -0.106
8096 C8096 31.7214 60.739 60.1528 C.3 0.0 **** -0.106
8097 C8097 30.4401 61.2202 60.7798 C.ar 0.0 **** 0.0
8098 C8098 30.454 61.6092 62.1421 C.ar 0.0 **** 0.2405
8099 N8099 29.3631 62.0693 62.7706 N.ar 0.0 **** -0.481
8100 C8100 28.2284 62.2149 62.078 C.ar 0.0 **** 0.2405
8101 C8101 28.1112 61.8489 60.7201 C.ar 0.0 **** 0.0
8102 C8102 29.2358 61.3273 60.0647 C.ar 0.0 **** 0.0
8103 C8103 29.1597 60.9182 58.6094 C.3 0.0 **** -0.106
8104 C8104 27.7272 60.7863 58.0809 C.3 0.0 **** -0.106
8105 C8105 26.8765 61.9749 58.5257 C.3 0.0 **** -0.106
8106 C8106 26.7653 61.9991 60.0497 C.3 0.0 **** -0.053
8107 C8107 26.0501 63.2553 60.5503 C.3 0.0 **** -0.106
8108 C8108 25.989 63.3218 62.0562 C.ar 0.0 **** 0.0
8109 C8109 27.0734 62.7947 62.7883 C.ar 0.0 **** 0.0
8110 C8110 27.0704 62.8816 64.187 C.ar 0.0 **** -0.1268
8111 C8111 25.9969 63.4759 64.8386 C.ar 0.0 **** -0.1268
8112 C8112 24.913 64.0147 64.1272 C.ar 0.0 **** 0.0
8113 C8113 24.9162 63.9477 62.7178 C.ar 0.0 **** 0.0
8114 C8114 42.686 57.8613 61.4623 C.3 0.0 **** -0.106
8115 C8115 43.0719 59.1012 60.6401 C.3 0.0 **** -0.159
8116 C8116 45.0378 57.3946 63.1429 C.3 0.0 **** -0.159
8117 C8117 40.2541 59.0735 62.6923 C.3 0.0 **** -0.159
8118 C8118 44.8532 57.7331 66.0318 C.3 0.0 **** -0.159
8119 C8119 42.4507 59.6618 69.9816 C.3 0.0 **** -0.159
8120 C8120 40.4004 61.4466 71.015 C.3 0.0 **** -0.159
8121 O8121 37.7874 61.9987 70.6074 O.3 0.0 **** -0.452
8122 C8122 36.0546 66.7086 70.5602 C.3 0.0 **** -0.159
8123 C8123 34.694 67.4596 68.1332 C.3 0.0 **** -0.159
8124 O8124 32.4337 63.593 66.5371 O.3 0.0 **** -0.452
8125 O8125 36.3504 60.3346 64.5174 O.3 0.0 **** -0.452
8126 O8126 34.8933 59.7702 62.6542 O.2 0.0 **** -0.419
8127 O8127 31.0457 63.0744 64.6227 O.2 0.0 **** -0.419
8128 C8128 23.7906 64.55 61.909 C.3 0.0 **** -0.159
8129 C8129 23.7807 64.6604 64.8863 C.3 0.0 **** -0.159
8130 H8130 39.9238 60.4804 64.8769 H 0.0 **** 0.053
8131 H8131 39.3258 58.9027 65.2951 H 0.0 **** 0.053
8132 H8132 42.5053 57.9045 67.724 H 0.0 **** 0.053
8133 H8133 43.376 59.4016 67.5286 H 0.0 **** 0.053
8134 H8134 37.9486 60.4866 65.6439 H 0.0 **** 0.1268
8135 H8135 33.5452 65.1908 67.3337 H 0.0 **** 0.053
8136 H8136 33.743 64.9323 69.0643 H 0.0 **** 0.053
8137 H8137 35.9303 65.9757 67.217 H 0.0 **** 0.053
8138 H8138 37.3453 66.0576 68.9752 H 0.0 **** 0.053
8139 H8139 35.4756 64.2571 70.5152 H 0.0 **** 0.053
8140 H8140 37.2352 64.1624 70.3194 H 0.0 **** 0.053
8141 H8141 33.5168 59.6428 60.7549 H 0.0 **** 0.053
8142 H8142 32.0054 59.0015 61.4105 H 0.0 **** 0.053
8143 H8143 31.5289 60.1306 59.2605 H 0.0 **** 0.053
8144 H8144 32.3119 61.612 59.8159 H 0.0 **** 0.053
8145 H8145 29.7074 61.6653 58.007 H 0.0 **** 0.053
8146 H8146 29.6951 59.9676 58.4614 H 0.0 **** 0.053
8147 H8147 27.2765 59.8594 58.4736 H 0.0 **** 0.053
8148 H8148 27.7443 60.6966 56.9842 H 0.0 **** 0.053
8149 H8149 25.8698 61.9329 58.0805 H 0.0 **** 0.053
8150 H8150 27.3452 62.9151 58.1852 H 0.0 **** 0.053
8151 H8151 26.152 61.1295 60.3613 H 0.0 **** 0.053
8152 H8152 26.5854 64.1449 60.1649 H 0.0 **** 0.053
8153 H8153 25.0432 63.2861 60.1114 H 0.0 **** 0.053
8154 H8154 27.9279 62.4938 64.7369 H 0.0 **** 0.1268
8155 H8155 25.9937 63.5408 65.9289 H 0.0 **** 0.1268
8156 H8156 41.7145 57.4787 61.1163 H 0.0 **** 0.053
8157 H8157 43.4045 57.0538 61.2659 H 0.0 **** 0.053
8158 H8158 44.0461 59.4935 60.9697 H 0.0 **** 0.053
8159 H8159 42.3311 59.9026 60.7792 H 0.0 **** 0.053
8160 H8160 43.1359 58.869 59.5657 H 0.0 **** 0.053
8161 H8161 45.9109 57.6999 63.7333 H 0.0 **** 0.053
8162 H8162 45.1771 57.7875 62.1273 H 0.0 **** 0.053
8163 H8163 45.0588 56.2928 63.0728 H 0.0 **** 0.053
8164 H8164 40.0426 60.1534 62.7607 H 0.0 **** 0.053
8165 H8165 39.3509 58.5631 63.0653 H 0.0 **** 0.053
8166 H8166 40.3673 58.8298 61.631 H 0.0 **** 0.053
8167 H8167 44.5438 57.5282 67.0643 H 0.0 **** 0.053
8168 H8168 45.5997 58.5461 66.0718 H 0.0 **** 0.053
8169 H8169 45.3706 56.8386 65.6597 H 0.0 **** 0.053
8170 H8170 42.1531 59.5302 71.0296 H 0.0 **** 0.053
8171 H8171 43.2515 60.4219 69.9579 H 0.0 **** 0.053
8172 H8172 42.896 58.7172 69.6462 H 0.0 **** 0.053
8173 H8173 40.025 62.4766 71.028 H 0.0 **** 0.053
8174 H8174 41.452 61.4697 71.3225 H 0.0 **** 0.053
8175 H8175 39.8295 60.8955 71.7788 H 0.0 **** 0.053
8176 H8176 36.8623 62.2438 70.768 H 0.0 **** 0.41
8177 H8177 36.1823 67.7785 70.3456 H 0.0 **** 0.053
8178 H8178 36.7428 66.439 71.3762 H 0.0 **** 0.053
8179 H8179 35.0265 66.5553 70.9258 H 0.0 **** 0.053
8180 H8180 34.084 67.582 67.2259 H 0.0 **** 0.053
8181 H8181 35.4483 68.2608 68.148 H 0.0 **** 0.053
8182 H8182 34.0356 67.6001 69.0035 H 0.0 **** 0.053
8183 H8183 31.6577 63.5002 65.8074 H 0.0 **** 0.41
8184 H8184 35.893 59.9438 63.6403 H 0.0 **** 0.41
8185 H8185 24.1788 65.1892 61.1014 H 0.0 **** 0.053
8186 H8186 23.1205 65.1584 62.5271 H 0.0 **** 0.053
8187 H8187 23.1798 63.7668 61.4282 H 0.0 **** 0.053
8188 H8188 23.6787 65.7277 64.6297 H 0.0 **** 0.053
8189 H8189 23.9496 64.5889 65.9693 H 0.0 **** 0.053
8190 H8190 22.8144 64.1832 64.6572 H 0.0 **** 0.053
8191 C8191 65.854 60.4659 75.3479 C.ar 0.0 **** 0.0
8192 C8192 64.8194 59.5234 75.4937 C.ar 0.0 **** 0.0
8193 C8193 64.9745 58.2271 74.9638 C.ar 0.0 **** 0.0
8194 C8194 66.1604 57.8795 74.3129 C.ar 0.0 **** 0.0
8195 C8195 67.2226 58.8003 74.2118 C.ar 0.0 **** 0.0
8196 C8196 67.0774 60.0919 74.7496 C.ar 0.0 **** 0.0
8197 C8197 66.3474 56.518 73.7105 C.3 0.0 **** -0.106
8198 C8198 65.1566 55.605 73.711 C.ar 0.0 **** 0.0
8199 C8199 63.9882 55.9277 74.3643 C.ar 0.0 **** 0.0
8200 C8200 63.8516 57.2298 75.1097 C.3 0.0 **** -0.106
8201 C8201 62.8595 55.0408 74.3175 C.ar 0.0 **** 0.0
8202 C8202 62.8973 53.8659 73.5735 C.ar 0.0 **** 0.0
8203 C8203 64.1286 53.4838 72.937 C.ar 0.0 **** 0.0
8204 C8204 65.2636 54.3662 73.0067 C.ar 0.0 **** 0.0
8205 C8205 66.4923 53.9989 72.4374 C.ar 0.0 **** -0.1268
8206 C8206 66.6489 52.8481 71.6666 C.ar 0.0 **** 0.0
8207 C8207 65.4788 52.0327 71.4397 C.ar 0.0 **** 0.0
8208 C8208 64.3322 52.268 72.2388 C.ar 0.0 **** 0.042
8209 C8209 65.5144 51.0728 70.3753 C.2 0.0 **** 0.0
8210 C8210 66.7149 50.7384 69.7631 C.2 0.0 **** 0.0
8211 C8211 67.9514 51.2847 70.2472 C.ar 0.0 **** 0.0
8212 C8212 67.9216 52.4031 71.1309 C.ar 0.0 **** 0.0
8213 C8213 66.5914 49.9463 68.4821 C.3 0.0 **** -0.106
8214 C8214 65.5898 50.6672 67.5576 C.ar 0.0 **** -0.053
8215 C8215 64.1822 50.6959 68.2073 C.ar 0.0 **** -0.053
8216 C8216 64.2724 50.4875 69.7438 C.3 0.0 **** -0.106
8217 C8217 69.1736 53.0254 71.4895 C.ar 0.0 **** 0.042
8218 C8218 70.4042 52.5045 71.023 C.ar 0.0 **** 0.052
8219 C8219 70.4371 51.3467 70.2115 C.ar 0.0 **** 0.052
8220 C8220 69.2249 50.7227 69.8494 C.ar 0.0 **** 0.042
8221 C8221 71.6888 50.7847 69.7419 C.2 0.0 **** 0.367
8222 C8222 72.9455 51.4585 70.1309 C.ar 0.0 **** 0.0
8223 C8223 72.8889 52.5969 70.9104 C.ar 0.0 **** 0.0
8224 C8224 71.633 53.1482 71.3973 C.2 0.0 **** 0.367
8225 C8225 74.1543 53.2924 71.3203 C.3 0.0 **** -0.106
8226 C8226 75.1813 53.2403 70.1926 C.3 0.0 **** -0.106
8227 C8227 75.3831 51.8222 69.7293 C.ar 0.0 **** 0.0
8228 C8228 74.2669 50.95 69.7036 C.ar 0.0 **** 0.2405
8229 N8229 74.3553 49.6797 69.2847 N.ar 0.0 **** -0.481
8230 C8230 75.5277 49.2277 68.8269 C.ar 0.0 **** 0.2405
8231 C8231 76.6985 50.0157 68.8187 C.ar 0.0 **** 0.0
8232 C8232 76.6257 51.333 69.2939 C.ar 0.0 **** 0.0
8233 C8233 77.8544 52.2169 69.3075 C.3 0.0 **** -0.106
8234 C8234 79.1675 51.4491 69.1202 C.3 0.0 **** -0.106
8235 C8235 79.0412 50.433 67.9862 C.3 0.0 **** -0.106
8236 C8236 77.9843 49.3859 68.3356 C.3 0.0 **** -0.053
8237 C8237 77.7142 48.4352 67.168 C.3 0.0 **** -0.106
8238 C8238 76.628 47.4355 67.4786 C.ar 0.0 **** 0.0
8239 C8239 75.5628 47.8485 68.306 C.ar 0.0 **** 0.0
8240 C8240 74.5135 46.96 68.5771 C.ar 0.0 **** -0.1268
8241 C8241 74.5373 45.6799 68.0376 C.ar 0.0 **** -0.1268
8242 C8242 75.5836 45.2536 67.2043 C.ar 0.0 **** 0.0
8243 C8243 76.6352 46.1476 66.9114 C.ar 0.0 **** 0.0
8244 C8244 68.2106 61.0925 74.6616 C.3 0.0 **** -0.106
8245 C8245 68.2335 61.828 73.3123 C.3 0.0 **** -0.159
8246 C8246 65.6462 61.8857 75.8309 C.3 0.0 **** -0.159
8247 C8247 68.482 58.3564 73.5057 C.3 0.0 **** -0.159
8248 C8248 63.5458 59.902 76.2159 C.3 0.0 **** -0.159
8249 C8249 61.6042 55.4296 75.0665 C.3 0.0 **** -0.159
8250 C8250 61.6256 53.0755 73.3594 C.3 0.0 **** -0.159
8251 O8251 63.3938 51.273 72.3984 O.3 0.0 **** -0.452
8252 C8252 63.2059 49.6542 67.6516 C.3 0.0 **** -0.159
8253 C8253 65.6254 50.0798 66.1448 C.3 0.0 **** -0.159
8254 O8254 69.2648 49.5865 69.1644 O.3 0.0 **** -0.452
8255 O8255 69.2159 54.1028 72.269 O.3 0.0 **** -0.452
8256 O8256 71.6435 54.1844 72.1547 O.2 0.0 **** -0.419
8257 O8257 71.6745 49.7509 69.0018 O.2 0.0 **** -0.419
8258 C8258 77.7615 45.7461 65.9873 C.3 0.0 **** -0.159
8259 C8259 75.5507 43.8568 66.6354 C.3 0.0 **** -0.159
8260 H8260 66.6951 56.6336 72.669 H 0.0 **** 0.053
8261 H8261 67.1934 56.0101 74.2133 H 0.0 **** 0.053
8262 H8262 63.7124 57.0077 76.186 H 0.0 **** 0.053
8263 H8263 62.9034 57.7073 74.8099 H 0.0 **** 0.053
8264 H8264 67.3553 54.6211 72.6096 H 0.0 **** 0.1268
8265 H8265 67.5501 49.8415 67.9736 H 0.0 **** 0.053
8266 H8266 66.2277 48.922 68.6855 H 0.0 **** 0.053
8267 H8267 65.94 51.7104 67.4907 H 0.0 **** 0.053
8268 H8268 63.7486 51.6938 68.0359 H 0.0 **** 0.053
8269 H8269 64.2734 49.394 69.9187 H 0.0 **** 0.053
8270 H8270 63.3518 50.8858 70.1808 H 0.0 **** 0.053
8271 H8271 73.9274 54.3227 71.6222 H 0.0 **** 0.053
8272 H8272 74.5601 52.7816 72.2138 H 0.0 **** 0.053
8273 H8273 76.1236 53.6926 70.5257 H 0.0 **** 0.053
8274 H8274 74.8218 53.8527 69.344 H 0.0 **** 0.053
8275 H8275 77.7512 52.9715 68.507 H 0.0 **** 0.053
8276 H8276 77.8929 52.7865 70.2489 H 0.0 **** 0.053
8277 H8277 79.414 50.9134 70.0521 H 0.0 **** 0.053
8278 H8278 79.987 52.1587 68.9301 H 0.0 **** 0.053
8279 H8279 80.0042 49.9366 67.7871 H 0.0 **** 0.053
8280 H8280 78.7414 50.949 67.0569 H 0.0 **** 0.053
8281 H8281 78.3754 48.7715 69.1716 H 0.0 **** 0.053
8282 H8282 77.4202 49.0343 66.2842 H 0.0 **** 0.053
8283 H8283 78.6527 47.9299 66.9007 H 0.0 **** 0.053
8284 H8284 73.6846 47.3031 69.1962 H 0.0 **** 0.1268
8285 H8285 73.7207 44.9869 68.2516 H 0.0 **** 0.1268
8286 H8286 69.1728 60.5831 74.8188 H 0.0 **** 0.053
8287 H8287 68.1316 61.825 75.4764 H 0.0 **** 0.053
8288 H8288 67.2791 62.3493 73.142 H 0.0 **** 0.053
8289 H8289 68.3701 61.1147 72.4859 H 0.0 **** 0.053
8290 H8290 69.0468 62.5691 73.2705 H 0.0 **** 0.053
8291 H8291 64.5868 62.1701 75.7974 H 0.0 **** 0.053
8292 H8292 66.1973 62.6073 75.2139 H 0.0 **** 0.053
8293 H8293 65.9881 62.0179 76.8724 H 0.0 **** 0.053
8294 H8294 68.2655 58.0792 72.4607 H 0.0 **** 0.053
8295 H8295 68.909 57.4555 73.9764 H 0.0 **** 0.053
8296 H8296 69.2584 59.128 73.4843 H 0.0 **** 0.053
8297 H8297 63.036 59.0259 76.6355 H 0.0 **** 0.053
8298 H8298 62.8294 60.4019 75.5401 H 0.0 **** 0.053
8299 H8299 63.7446 60.5951 77.0444 H 0.0 **** 0.053
8300 H8300 61.0554 54.5481 75.4212 H 0.0 **** 0.053
8301 H8301 60.9155 56.015 74.4321 H 0.0 **** 0.053
8302 H8302 61.8345 56.0471 75.9433 H 0.0 **** 0.053
8303 H8303 61.5652 52.7095 72.3277 H 0.0 **** 0.053
8304 H8304 60.741 53.6945 73.5473 H 0.0 **** 0.053
8305 H8305 61.5706 52.1885 74.01 H 0.0 **** 0.053
8306 H8306 63.7821 50.4397 72.0879 H 0.0 **** 0.41
8307 H8307 62.9895 49.8185 66.587 H 0.0 **** 0.053
8308 H8308 62.254 49.6909 68.2035 H 0.0 **** 0.053
8309 H8309 63.6173 48.6381 67.7623 H 0.0 **** 0.053
8310 H8310 66.6363 50.1707 65.7206 H 0.0 **** 0.053
8311 H8311 64.9258 50.6023 65.4748 H 0.0 **** 0.053
8312 H8312 65.356 49.013 66.1481 H 0.0 **** 0.053
8313 H8313 70.3076 49.4512 68.9709 H 0.0 **** 0.41
8314 H8314 70.2514 54.3263 72.3639 H 0.0 **** 0.41
8315 H8315 77.9377 46.5134 65.218 H 0.0 **** 0.053
8316 H8316 77.5556 44.7985 65.4763 H 0.0 **** 0.053
8317 H8317 78.7092 45.6269 66.5398 H 0.0 **** 0.053
8318 H8318 75.5084 43.8699 65.5339 H 0.0 **** 0.053
8319 H8319 74.6703 43.3105 67.0 H 0.0 **** 0.053
8320 H8320 76.4499 43.2841 66.9136 H 0.0 **** 0.053
8321 C8321 13.49 0.289353 5.31601 C.ar 0.0 **** 0.0
8322 C8322 13.5536 -1.04243 5.76572 C.ar 0.0 **** 0.0
8323 C8323 14.3708 -1.37075 6.86564 C.ar 0.0 **** 0.0
8324 C8324 15.0986 -0.370469 7.5141 C.ar 0.0 **** 0.0
8325 C8325 14.9968 0.974188 7.1044 C.ar 0.0 **** 0.0
8326 C8326 14.1732 1.30913 6.01446 C.ar 0.0 **** 0.0
8327 C8327 16.0017 -0.689529 8.66914 C.3 0.0 **** -0.106
8328 C8328 16.198 -2.14032 8.99806 C.ar 0.0 **** 0.0
8329 C8329 15.4739 -3.13469 8.37936 C.ar 0.0 **** 0.0
8330 C8330 14.4459 -2.805 7.32839 C.3 0.0 **** -0.106
8331 C8331 15.7108 -4.5145 8.69995 C.ar 0.0 **** 0.0
8332 C8332 16.7068 -4.88416 9.59821 C.ar 0.0 **** 0.0
8333 C8333 17.4291 -3.8572 10.2988 C.ar 0.0 **** 0.0
8334 C8334 17.1709 -2.47537 9.98965 C.ar 0.0 **** 0.0
8335 C8335 17.8244 -1.45045 10.6906 C.ar 0.0 **** -0.1268
8336 C8336 18.8422 -1.69974 11.6097 C.ar 0.0 **** 0.0
8337 C8337 19.2374 -3.07411 11.8112 C.ar 0.0 **** 0.0
8338 C8338 18.3919 -4.09532 11.3105 C.ar 0.0 **** 0.042
8339 C8339 20.4953 -3.3339 12.4483 C.2 0.0 **** 0.0
8340 C8340 21.1826 -2.31818 13.0993 C.2 0.0 **** 0.0
8341 C8341 20.6002 -1.01119 13.2194 C.ar 0.0 **** 0.0
8342 C8342 19.4815 -0.66826 12.4047 C.ar 0.0 **** 0.0
8343 C8343 22.6105 -2.63891 13.476 C.3 0.0 **** -0.106
8344 C8344 23.3311 -3.19193 12.2301 C.ar 0.0 **** -0.053
8345 C8345 22.6756 -4.52138 11.7749 C.ar 0.0 **** -0.053
8346 C8346 21.2301 -4.64906 12.3287 C.3 0.0 **** -0.106
8347 C8347 19.0038 0.693412 12.4365 C.ar 0.0 **** 0.042
8348 C8348 19.5928 1.65058 13.2969 C.ar 0.0 **** 0.052
8349 C8349 20.6505 1.28884 14.1634 C.ar 0.0 **** 0.052
8350 C8350 21.1324 -0.0368909 14.1484 C.ar 0.0 **** 0.042
8351 C8351 21.2522 2.24927 15.0681 C.2 0.0 **** 0.367
8352 C8352 20.7331 3.63306 15.0626 C.ar 0.0 **** 0.0
8353 C8353 19.7109 3.96818 14.1968 C.ar 0.0 **** 0.0
8354 C8354 19.0947 2.99828 13.3036 C.2 0.0 **** 0.367
8355 C8355 19.1665 5.36688 14.1801 C.3 0.0 **** -0.106
8356 C8356 20.2879 6.37865 14.3986 C.3 0.0 **** -0.106
8357 C8357 21.069 6.03917 15.64 C.ar 0.0 **** 0.0
8358 C8358 21.2822 4.67492 15.9571 C.ar 0.0 **** 0.2405
8359 N8359 21.9845 4.28671 17.0309 N.ar 0.0 **** -0.481
8360 C8360 22.5485 5.21728 17.8084 C.ar 0.0 **** 0.2405
8361 C8361 22.3883 6.60083 17.5807 C.ar 0.0 **** 0.0
8362 C8362 21.6205 7.01734 16.4837 C.ar 0.0 **** 0.0
8363 C8363 21.4177 8.49007 16.1991 C.3 0.0 **** -0.106
8364 C8364 21.7932 9.40161 17.3725 C.3 0.0 **** -0.106
8365 C8365 23.1299 8.97722 17.9789 C.3 0.0 **** -0.106
8366 C8366 23.0193 7.56672 18.5566 C.3 0.0 **** -0.053
8367 C8367 24.3718 7.03959 19.0394 C.3 0.0 **** -0.106
8368 C8368 24.2878 5.62425 19.5547 C.ar 0.0 **** 0.0
8369 C8369 23.3745 4.74562 18.9353 C.ar 0.0 **** 0.0
8370 C8370 23.3037 3.41142 19.3582 C.ar 0.0 **** -0.1268
8371 C8371 24.1248 2.97021 20.3884 C.ar 0.0 **** -0.1268
8372 C8372 25.0466 3.82688 21.0109 C.ar 0.0 **** 0.0
8373 C8373 25.1374 5.16712 20.5792 C.ar 0.0 **** 0.0
8374 C8374 14.0411 2.74929 5.56548 C.3 0.0 **** -0.106
8375 C8375 15.1839 3.17392 4.6296 C.3 0.0 **** -0.159
8376 C8376 12.6893 0.622362 4.07486 C.3 0.0 **** -0.159
8377 C8377 15.8015 2.00818 7.85625 C.3 0.0 **** -0.159
8378 C8378 12.7482 -2.11656 5.06971 C.3 0.0 **** -0.159
8379 C8379 14.8773 -5.57001 8.00803 C.3 0.0 **** -0.159
8380 C8380 17.0825 -6.34254 9.73911 C.3 0.0 **** -0.159
8381 O8381 18.4554 -5.36113 11.8488 O.3 0.0 **** -0.452
8382 C8382 23.4454 -5.781 12.1848 C.3 0.0 **** -0.159
8383 C8383 24.8419 -3.27519 12.461 C.3 0.0 **** -0.159
8384 O8384 22.062 -0.39417 15.0259 O.3 0.0 **** -0.452
8385 O8385 17.9969 1.09472 11.665 O.3 0.0 **** -0.452
8386 O8386 18.1184 3.35595 12.5511 O.2 0.0 **** -0.419
8387 O8387 22.2111 1.88759 15.8207 O.2 0.0 **** -0.419
8388 C8388 26.1428 6.11424 21.1923 C.3 0.0 **** -0.159
8389 C8389 25.9226 3.29004 22.1154 C.3 0.0 **** -0.159
8390 H8390 16.9923 -0.239378 8.48215 H 0.0 **** 0.053
8391 H8391 15.6402 -0.159157 9.57167 H 0.0 **** 0.053
8392 H8392 13.4485 -3.10969 7.70195 H 0.0 **** 0.053
8393 H8393 14.6158 -3.45764 6.45528 H 0.0 **** 0.053
8394 H8394 17.5233 -0.429006 10.5246 H 0.0 **** 0.1268
8395 H8395 23.1409 -1.76186 13.8475 H 0.0 **** 0.053
8396 H8396 22.6452 -3.39458 14.2827 H 0.0 **** 0.053
8397 H8397 23.1592 -2.4525 11.4307 H 0.0 **** 0.053
8398 H8398 22.6064 -4.5078 10.6757 H 0.0 **** 0.053
8399 H8399 21.3128 -5.09637 13.3384 H 0.0 **** 0.053
8400 H8400 20.7018 -5.36907 11.6965 H 0.0 **** 0.053
8401 H8401 18.6319 5.54293 13.2381 H 0.0 **** 0.053
8402 H8402 18.4203 5.46108 14.9913 H 0.0 **** 0.053
8403 H8403 19.8706 7.39188 14.4504 H 0.0 **** 0.053
8404 H8404 20.9676 6.36334 13.5255 H 0.0 **** 0.053
8405 H8405 22.0208 8.76147 15.3139 H 0.0 **** 0.053
8406 H8406 20.3706 8.67306 15.9121 H 0.0 **** 0.053
8407 H8407 21.0134 9.33716 18.1497 H 0.0 **** 0.053
8408 H8408 21.8239 10.448 17.033 H 0.0 **** 0.053
8409 H8409 23.4499 9.67722 18.7669 H 0.0 **** 0.053
8410 H8410 23.9109 8.98495 17.1982 H 0.0 **** 0.053
8411 H8411 22.3528 7.61122 19.4415 H 0.0 **** 0.053
8412 H8412 25.0896 7.08175 18.1971 H 0.0 **** 0.053
8413 H8413 24.7599 7.71935 19.8106 H 0.0 **** 0.053
8414 H8414 22.6121 2.7383 18.8515 H 0.0 **** 0.1268
8415 H8415 24.0671 1.93104 20.7196 H 0.0 **** 0.1268
8416 H8416 14.0175 3.41384 6.44168 H 0.0 **** 0.053
8417 H8417 13.078 2.89994 5.05879 H 0.0 **** 0.053
8418 H8418 15.2176 2.52223 3.74314 H 0.0 **** 0.053
8419 H8419 16.1544 3.08448 5.14005 H 0.0 **** 0.053
8420 H8420 15.063 4.21488 4.2916 H 0.0 **** 0.053
8421 H8421 12.6434 -0.230557 3.38586 H 0.0 **** 0.053
8422 H8422 13.1293 1.46362 3.52364 H 0.0 **** 0.053
8423 H8423 11.6496 0.900924 4.32106 H 0.0 **** 0.053
8424 H8424 16.8795 1.78699 7.78893 H 0.0 **** 0.053
8425 H8425 15.557 2.00214 8.93122 H 0.0 **** 0.053
8426 H8426 15.6531 3.02571 7.48057 H 0.0 **** 0.053
8427 H8427 12.5365 -2.96497 5.73222 H 0.0 **** 0.053
8428 H8428 13.2815 -2.51716 4.18938 H 0.0 **** 0.053
8429 H8429 11.7844 -1.72873 4.71349 H 0.0 **** 0.053
8430 H8430 14.7295 -6.45081 8.64557 H 0.0 **** 0.053
8431 H8431 15.3508 -5.91484 7.07188 H 0.0 **** 0.053
8432 H8432 13.8842 -5.18733 7.74225 H 0.0 **** 0.053
8433 H8433 18.1702 -6.45724 9.81679 H 0.0 **** 0.053
8434 H8434 16.746 -6.92127 8.87152 H 0.0 **** 0.053
8435 H8435 16.6541 -6.79858 10.6454 H 0.0 **** 0.053
8436 H8436 18.9549 -5.3108 12.6793 H 0.0 **** 0.41
8437 H8437 24.4404 -5.82529 11.7211 H 0.0 **** 0.053
8438 H8438 22.8885 -6.6825 11.886 H 0.0 **** 0.053
8439 H8439 23.5776 -5.817 13.2781 H 0.0 **** 0.053
8440 H8440 25.2456 -2.27965 12.6979 H 0.0 **** 0.053
8441 H8441 25.3644 -3.65188 11.5686 H 0.0 **** 0.053
8442 H8442 25.0821 -3.94485 13.3003 H 0.0 **** 0.053
8443 H8443 22.2941 0.521586 15.5267 H 0.0 **** 0.41
8444 H8444 17.8653 2.12216 11.9064 H 0.0 **** 0.41
8445 H8445 26.7158 6.64349 20.4157 H 0.0 **** 0.053
8446 H8446 26.8565 5.59264 21.8403 H 0.0 **** 0.053
8447 H8447 25.6443 6.88754 21.8015 H 0.0 **** 0.053
8448 H8448 26.9907 3.34799 21.8486 H 0.0 **** 0.053
8449 H8449 25.6837 2.2382 22.323 H 0.0 **** 0.053
8450 H8450 25.7952 3.8618 23.0486 H 0.0 **** 0.053
8451 C8451 44.549 53.3973 42.3004 C.ar 0.0 **** 0.0
8452 C8452 45.3041 52.8377 43.3475 C.ar 0.0 **** 0.0
8453 C8453 46.4842 52.1254 43.0554 C.ar 0.0 **** 0.0
8454 C8454 46.9071 51.994 41.7308 C.ar 0.0 **** 0.0
8455 C8455 46.186 52.5989 40.6817 C.ar 0.0 **** 0.0
8456 C8456 45.0138 53.3212 40.969 C.ar 0.0 **** 0.0
8457 C8457 48.1421 51.2166 41.3814 C.3 0.0 **** -0.106
8458 C8458 48.8139 50.4705 42.4966 C.ar 0.0 **** 0.0
8459 C8459 48.4187 50.6054 43.8086 C.ar 0.0 **** 0.0
8460 C8460 47.2768 51.5137 44.1843 C.3 0.0 **** -0.106
8461 C8461 49.0673 49.852 44.8452 C.ar 0.0 **** 0.0
8462 C8462 50.069 48.9334 44.5483 C.ar 0.0 **** 0.0
8463 C8463 50.5359 48.8258 43.1928 C.ar 0.0 **** 0.0
8464 C8464 49.897 49.6007 42.1617 C.ar 0.0 **** 0.0
8465 C8465 50.3618 49.5537 40.8386 C.ar 0.0 **** -0.1268
8466 C8466 51.3562 48.6698 40.4228 C.ar 0.0 **** 0.0
8467 C8467 51.8946 47.7603 41.4069 C.ar 0.0 **** 0.0
8468 C8468 51.6151 48.0091 42.7738 C.ar 0.0 **** 0.042
8469 C8469 52.628 46.617 40.9476 C.2 0.0 **** 0.0
8470 C8470 53.0479 46.5288 39.6271 C.2 0.0 **** 0.0
8471 C8471 52.8296 47.6229 38.7231 C.ar 0.0 **** 0.0
8472 C8472 51.9101 48.6517 39.0821 C.ar 0.0 **** 0.0
8473 C8473 53.5502 45.1705 39.1955 C.3 0.0 **** -0.106
8474 C8474 52.5029 44.1128 39.5976 C.ar 0.0 **** -0.053
8475 C8475 52.3487 44.0671 41.1398 C.ar 0.0 **** -0.053
8476 C8476 52.8552 45.3835 41.7904 C.3 0.0 **** -0.106
8477 C8477 51.5976 49.6629 38.1006 C.ar 0.0 **** 0.042
8478 C8478 52.2305 49.6675 36.8346 C.ar 0.0 **** 0.052
8479 C8479 53.2021 48.6926 36.5094 C.ar 0.0 **** 0.052
8480 C8480 53.5227 47.6953 37.4542 C.ar 0.0 **** 0.042
8481 C8481 53.8778 48.6936 35.2262 C.2 0.0 **** 0.367
8482 C8482 53.5221 49.7458 34.2513 C.ar 0.0 **** 0.0
8483 C8483 52.5589 50.6778 34.5838 C.ar 0.0 **** 0.0
8484 C8484 51.896 50.6874 35.8794 C.2 0.0 **** 0.367
8485 C8485 52.1877 51.7574 33.6093 C.3 0.0 **** -0.106
8486 C8486 52.2072 51.2177 32.1819 C.3 0.0 **** -0.106
8487 C8487 53.5257 50.5531 31.8882 C.ar 0.0 **** 0.0
8488 C8488 54.1663 49.827 32.9225 C.ar 0.0 **** 0.2405
8489 N8489 55.3304 49.188 32.7391 N.ar 0.0 **** -0.481
8490 C8490 55.888 49.1918 31.5236 C.ar 0.0 **** 0.2405
8491 C8491 55.332 49.8915 30.4314 C.ar 0.0 **** 0.0
8492 C8492 54.1359 50.5977 30.6238 C.ar 0.0 **** 0.0
8493 C8493 53.5016 51.3653 29.4839 C.3 0.0 **** -0.106
8494 C8494 54.44 51.586 28.2925 C.3 0.0 **** -0.106
8495 C8495 55.1859 50.2979 27.9476 C.3 0.0 **** -0.106
8496 C8496 56.0767 49.8788 29.1166 C.3 0.0 **** -0.053
8497 C8497 56.7277 48.5151 28.8782 C.3 0.0 **** -0.106
8498 C8498 57.5601 48.0613 30.0517 C.ar 0.0 **** 0.0
8499 C8499 57.1287 48.4143 31.3474 C.ar 0.0 **** 0.0
8500 C8500 57.8527 47.97 32.462 C.ar 0.0 **** -0.1268
8501 C8501 58.9921 47.196 32.2802 C.ar 0.0 **** -0.1268
8502 C8502 59.432 46.8264 30.9992 C.ar 0.0 **** 0.0
8503 C8503 58.6989 47.2542 29.8721 C.ar 0.0 **** 0.0
8504 C8504 44.2307 53.9882 39.8577 C.3 0.0 **** -0.106
8505 C8505 43.2702 53.0141 39.1573 C.3 0.0 **** -0.159
8506 C8506 43.2314 54.0767 42.6084 C.3 0.0 **** -0.159
8507 C8507 46.7045 52.4279 39.2732 C.3 0.0 **** -0.159
8508 C8508 44.8493 53.0002 44.7806 C.3 0.0 **** -0.159
8509 C8509 48.6108 50.0482 46.2738 C.3 0.0 **** -0.159
8510 C8510 50.5678 47.9969 45.6263 C.3 0.0 **** -0.159
8511 O8511 52.4407 47.4904 43.7462 O.3 0.0 **** -0.452
8512 C8512 53.0781 42.9017 41.8159 C.3 0.0 **** -0.159
8513 C8513 52.8108 42.7607 38.9498 C.3 0.0 **** -0.159
8514 O8514 54.4985 46.8384 37.1803 O.3 0.0 **** -0.452
8515 O8515 50.7108 50.6229 38.3502 O.3 0.0 **** -0.452
8516 O8516 51.0394 51.6042 36.1497 O.2 0.0 **** -0.419
8517 O8517 54.7348 47.7907 34.9672 O.2 0.0 **** -0.419
8518 C8518 59.1119 46.8471 28.4766 C.3 0.0 **** -0.159
8519 C8519 60.6685 45.9733 30.862 C.3 0.0 **** -0.159
8520 H8520 47.8958 50.4965 40.5816 H 0.0 **** 0.053
8521 H8521 48.8768 51.8947 40.905 H 0.0 **** 0.053
8522 H8522 47.6693 52.3285 44.824 H 0.0 **** 0.053
8523 H8523 46.5915 50.959 44.8475 H 0.0 **** 0.053
8524 H8524 49.9456 50.2338 40.1136 H 0.0 **** 0.1268
8525 H8525 53.7252 45.1233 38.1204 H 0.0 **** 0.053
8526 H8526 54.5139 44.9332 39.6833 H 0.0 **** 0.053
8527 H8527 51.5443 44.4668 39.1839 H 0.0 **** 0.053
8528 H8528 51.2758 43.9774 41.3721 H 0.0 **** 0.053
8529 H8529 53.9447 45.2636 41.9482 H 0.0 **** 0.053
8530 H8530 52.39 45.4582 42.778 H 0.0 **** 0.053
8531 H8531 51.209 52.1751 33.8773 H 0.0 **** 0.053
8532 H8532 52.921 52.5804 33.7034 H 0.0 **** 0.053
8533 H8533 51.9994 52.0294 31.4738 H 0.0 **** 0.053
8534 H8534 51.3924 50.479 32.0606 H 0.0 **** 0.053
8535 H8535 52.6037 50.8153 29.1489 H 0.0 **** 0.053
8536 H8536 53.1352 52.3376 29.8481 H 0.0 **** 0.053
8537 H8537 55.1765 52.3665 28.5468 H 0.0 **** 0.053
8538 H8538 53.8635 51.9556 27.431 H 0.0 **** 0.053
8539 H8539 55.7982 50.423 27.0405 H 0.0 **** 0.053
8540 H8540 54.4596 49.4916 27.7429 H 0.0 **** 0.053
8541 H8541 56.8967 50.6199 29.2042 H 0.0 **** 0.053
8542 H8542 55.9307 47.7712 28.6838 H 0.0 **** 0.053
8543 H8543 57.3313 48.5683 27.9616 H 0.0 **** 0.053
8544 H8544 57.4913 48.2286 33.4573 H 0.0 **** 0.1268
8545 H8545 59.5576 46.8525 33.1491 H 0.0 **** 0.1268
8546 H8546 44.9224 54.4178 39.1181 H 0.0 **** 0.053
8547 H8547 43.6624 54.8402 40.2552 H 0.0 **** 0.053
8548 H8548 42.5659 52.5796 39.8831 H 0.0 **** 0.053
8549 H8549 43.828 52.1821 38.7023 H 0.0 **** 0.053
8550 H8550 42.69 53.517 38.368 H 0.0 **** 0.053
8551 H8551 42.7632 53.6559 43.5073 H 0.0 **** 0.053
8552 H8552 42.5155 53.963 41.784 H 0.0 **** 0.053
8553 H8553 43.3601 55.1594 42.7825 H 0.0 **** 0.053
8554 H8554 46.7374 51.361 38.9972 H 0.0 **** 0.053
8555 H8555 47.7389 52.7977 39.1794 H 0.0 **** 0.053
8556 H8556 46.0922 52.94 38.524 H 0.0 **** 0.053
8557 H8557 45.6846 52.9229 45.4876 H 0.0 **** 0.053
8558 H8558 44.1127 52.2271 45.0625 H 0.0 **** 0.053
8559 H8559 44.3707 53.9754 44.9421 H 0.0 **** 0.053
8560 H8560 49.4323 49.8964 46.9854 H 0.0 **** 0.053
8561 H8561 47.8042 49.3442 46.5446 H 0.0 **** 0.053
8562 H8562 48.2199 51.0602 46.4354 H 0.0 **** 0.053
8563 H8563 50.7165 46.9875 45.2249 H 0.0 **** 0.053
8564 H8564 49.8488 47.9269 46.4504 H 0.0 **** 0.053
8565 H8565 51.5374 48.3152 46.0404 H 0.0 **** 0.053
8566 H8566 53.2559 47.1845 43.3179 H 0.0 **** 0.41
8567 H8567 52.6808 41.9275 41.4994 H 0.0 **** 0.053
8568 H8568 52.9784 42.9725 42.91 H 0.0 **** 0.053
8569 H8569 54.1533 42.9248 41.5762 H 0.0 **** 0.053
8570 H8570 52.8217 42.8579 37.854 H 0.0 **** 0.053
8571 H8571 52.0563 42.0057 39.218 H 0.0 **** 0.053
8572 H8572 53.7944 42.3811 39.2643 H 0.0 **** 0.053
8573 H8573 54.777 47.0927 36.1798 H 0.0 **** 0.41
8574 H8574 50.6957 51.2125 37.4652 H 0.0 **** 0.41
8575 H8575 58.2569 46.4494 27.9088 H 0.0 **** 0.053
8576 H8576 59.8948 46.0802 28.4872 H 0.0 **** 0.053
8577 H8577 59.4984 47.709 27.9063 H 0.0 **** 0.053
8578 H8578 60.4411 45.0056 30.3854 H 0.0 **** 0.053
8579 H8579 61.1094 45.7686 31.847 H 0.0 **** 0.053
8580 H8580 61.4331 46.4643 30.2388 H 0.0 **** 0.053
8581 C8581 61.6206 2.75712 35.8339 C.ar 0.0 **** 0.0
8582 C8582 62.3647 1.71277 36.4132 C.ar 0.0 **** 0.0
8583 C8583 62.2223 1.43099 37.7864 C.ar 0.0 **** 0.0
8584 C8584 61.3311 2.17743 38.5605 C.ar 0.0 **** 0.0
8585 C8585 60.5417 3.18804 37.9758 C.ar 0.0 **** 0.0
8586 C8586 60.6712 3.46538 36.603 C.ar 0.0 **** 0.0
8587 C8587 61.177 1.92434 40.0315 C.3 0.0 **** -0.106
8588 C8588 62.123 0.940401 40.6548 C.ar 0.0 **** 0.0
8589 C8589 62.9935 0.185128 39.9013 C.ar 0.0 **** 0.0
8590 C8590 63.0385 0.320849 38.4015 C.3 0.0 **** -0.106
8591 C8591 63.9047 -0.725258 40.5366 C.ar 0.0 **** 0.0
8592 C8592 63.9691 -0.829577 41.9224 C.ar 0.0 **** 0.0
8593 C8593 63.0256 -0.0949975 42.7208 C.ar 0.0 **** 0.0
8594 C8594 62.0993 0.798647 42.0765 C.ar 0.0 **** 0.0
8595 C8595 61.1351 1.49171 42.8241 C.ar 0.0 **** -0.1268
8596 C8596 61.1048 1.46733 44.2174 C.ar 0.0 **** 0.0
8597 C8597 62.1328 0.711625 44.894 C.ar 0.0 **** 0.0
8598 C8598 62.9149 -0.190095 44.13 C.ar 0.0 **** 0.042
8599 C8599 62.3532 0.960091 46.2888 C.2 0.0 **** 0.0
8600 C8600 61.4361 1.69165 47.0314 C.2 0.0 **** 0.0
8601 C8601 60.2088 2.13547 46.4325 C.ar 0.0 **** 0.0
8602 C8602 60.0758 2.10969 45.0132 C.ar 0.0 **** 0.0
8603 C8603 61.9094 2.12888 48.3983 C.3 0.0 **** -0.106
8604 C8604 63.2841 2.80987 48.2436 C.ar 0.0 **** -0.053
8605 C8605 64.329 1.79748 47.7073 C.ar 0.0 **** -0.053
8606 C8606 63.6349 0.599337 47.0035 C.3 0.0 **** -0.106
8607 C8607 58.8935 2.69354 44.4261 C.ar 0.0 **** 0.042
8608 C8608 57.8651 3.2263 45.2396 C.ar 0.0 **** 0.052
8609 C8609 57.962 3.17875 46.6498 C.ar 0.0 **** 0.052
8610 C8610 59.1091 2.6122 47.2442 C.ar 0.0 **** 0.042
8611 C8611 56.9092 3.69903 47.5005 C.2 0.0 **** 0.367
8612 C8612 55.7191 4.29149 46.8546 C.ar 0.0 **** 0.0
8613 C8613 55.6529 4.34218 45.4762 C.ar 0.0 **** 0.0
8614 C8614 56.7014 3.80165 44.6237 C.2 0.0 **** 0.367
8615 C8615 54.4503 4.93511 44.8015 C.3 0.0 **** -0.106
8616 C8616 53.9297 6.13129 45.5934 C.3 0.0 **** -0.106
8617 C8617 53.7008 5.75117 47.032 C.ar 0.0 **** 0.0
8618 C8618 54.595 4.83871 47.6446 C.ar 0.0 **** 0.2405
8619 N8619 54.4757 4.46447 48.9262 N.ar 0.0 **** -0.481
8620 C8620 53.5078 5.00665 49.673 C.ar 0.0 **** 0.2405
8621 C8621 52.5637 5.91804 49.1537 C.ar 0.0 **** 0.0
8622 C8622 52.6546 6.28391 47.8031 C.ar 0.0 **** 0.0
8623 C8623 51.6642 7.25622 47.1991 C.3 0.0 **** -0.106
8624 C8624 50.417 7.48009 48.0612 C.3 0.0 **** -0.106
8625 C8625 50.8028 7.68352 49.5255 C.3 0.0 **** -0.106
8626 C8626 51.4742 6.42359 50.0708 C.3 0.0 **** -0.053
8627 C8627 52.0142 6.63132 51.4869 C.3 0.0 **** -0.106
8628 C8628 52.7344 5.41464 52.0131 C.ar 0.0 **** 0.0
8629 C8629 53.4589 4.62432 51.0964 C.ar 0.0 **** 0.0
8630 C8630 54.1774 3.51342 51.5586 C.ar 0.0 **** -0.1268
8631 C8631 54.1612 3.19581 52.911 C.ar 0.0 **** -0.1268
8632 C8632 53.454 3.97548 53.84 C.ar 0.0 **** 0.0
8633 C8633 52.7425 5.10623 53.3861 C.ar 0.0 **** 0.0
8634 C8634 59.8243 4.53937 35.953 C.3 0.0 **** -0.106
8635 C8635 60.426 5.94224 36.1321 C.3 0.0 **** -0.159
8636 C8636 61.8478 3.12156 34.382 C.3 0.0 **** -0.159
8637 C8637 59.5892 3.94965 38.8672 C.3 0.0 **** -0.159
8638 C8638 63.3139 0.897167 35.5643 C.3 0.0 **** -0.159
8639 C8639 64.8287 -1.54728 39.6658 C.3 0.0 **** -0.159
8640 C8640 65.0888 -1.62071 42.5613 C.3 0.0 **** -0.159
8641 O8641 63.5578 -1.23596 44.7537 O.3 0.0 **** -0.452
8642 C8642 65.269 1.23023 48.7759 C.3 0.0 **** -0.159
8643 C8643 63.6936 3.52074 49.5357 C.3 0.0 **** -0.159
8644 O8644 59.1552 2.48754 48.5648 O.3 0.0 **** -0.452
8645 O8645 58.7276 2.74902 43.1071 O.3 0.0 **** -0.452
8646 O8646 56.5665 3.8374 43.3479 O.2 0.0 **** -0.419
8647 O8647 57.0414 3.65049 48.7642 O.2 0.0 **** -0.419
8648 C8648 52.0004 5.99746 54.355 C.3 0.0 **** -0.159
8649 C8649 53.4826 3.59131 55.2985 C.3 0.0 **** -0.159
8650 H8650 61.2701 2.88362 40.57 H 0.0 **** 0.053
8651 H8651 60.1362 1.60805 40.2397 H 0.0 **** 0.053
8652 H8652 62.7254 -0.641175 37.9502 H 0.0 **** 0.053
8653 H8653 64.0913 0.4322 38.0912 H 0.0 **** 0.053
8654 H8654 60.3783 2.05719 42.3053 H 0.0 **** 0.1268
8655 H8655 61.2095 2.81845 48.8708 H 0.0 **** 0.053
8656 H8656 62.0065 1.2619 49.0779 H 0.0 **** 0.053
8657 H8657 63.1509 3.58296 47.469 H 0.0 **** 0.053
8658 H8658 64.9439 2.31122 46.9516 H 0.0 **** 0.053
8659 H8659 63.399 -0.141643 47.7919 H 0.0 **** 0.053
8660 H8660 64.3725 0.141601 46.3374 H 0.0 **** 0.053
8661 H8661 54.7031 5.20478 43.7683 H 0.0 **** 0.053
8662 H8662 53.6639 4.15917 44.744 H 0.0 **** 0.053
8663 H8663 53.0136 6.5158 45.1283 H 0.0 **** 0.053
8664 H8664 54.6727 6.95002 45.5472 H 0.0 **** 0.053
8665 H8665 52.177 8.22118 47.0352 H 0.0 **** 0.053
8666 H8666 51.3621 6.90725 46.1995 H 0.0 **** 0.053
8667 H8667 49.7576 6.59927 47.9861 H 0.0 **** 0.053
8668 H8668 49.85 8.34073 47.6752 H 0.0 **** 0.053
8669 H8669 49.9218 7.92994 50.139 H 0.0 **** 0.053
8670 H8670 51.5068 8.53026 49.6098 H 0.0 **** 0.053
8671 H8671 50.7068 5.62542 50.129 H 0.0 **** 0.053
8672 H8672 52.7086 7.49399 51.4782 H 0.0 **** 0.053
8673 H8673 51.1798 6.91267 52.1444 H 0.0 **** 0.053
8674 H8674 54.754 2.9286 50.8419 H 0.0 **** 0.1268
8675 H8675 54.7191 2.32822 53.2702 H 0.0 **** 0.1268
8676 H8676 58.8076 4.51924 36.3724 H 0.0 **** 0.053
8677 H8677 59.7025 4.32744 34.8819 H 0.0 **** 0.053
8678 H8678 61.4424 5.98161 35.7113 H 0.0 **** 0.053
8679 H8679 60.5025 6.19608 37.1999 H 0.0 **** 0.053
8680 H8680 59.8136 6.71043 35.6347 H 0.0 **** 0.053
8681 H8681 62.8718 2.88694 34.0647 H 0.0 **** 0.053
8682 H8682 61.6888 4.19317 34.2045 H 0.0 **** 0.053
8683 H8683 61.1633 2.57398 33.7106 H 0.0 **** 0.053
8684 H8684 60.1381 4.46779 39.6709 H 0.0 **** 0.053
8685 H8685 58.8825 3.27024 39.3716 H 0.0 **** 0.053
8686 H8686 59.0077 4.70547 38.3296 H 0.0 **** 0.053
8687 H8687 63.4857 -0.101474 35.9847 H 0.0 **** 0.053
8688 H8688 64.3002 1.38602 35.4748 H 0.0 **** 0.053
8689 H8689 62.9272 0.762995 34.5451 H 0.0 **** 0.053
8690 H8690 65.0598 -2.5172 40.124 H 0.0 **** 0.053
8691 H8691 65.7874 -1.02955 39.4858 H 0.0 **** 0.053
8692 H8692 64.3832 -1.74662 38.6835 H 0.0 **** 0.053
8693 H8693 65.4764 -1.10031 43.445 H 0.0 **** 0.053
8694 H8694 65.9214 -1.75913 41.8623 H 0.0 **** 0.053
8695 H8695 64.7566 -2.61351 42.9031 H 0.0 **** 0.053
8696 H8696 63.1914 -1.32487 45.6479 H 0.0 **** 0.41
8697 H8697 65.8934 2.01074 49.2321 H 0.0 **** 0.053
8698 H8698 65.9358 0.473502 48.3345 H 0.0 **** 0.053
8699 H8699 64.6944 0.741632 49.5791 H 0.0 **** 0.053
8700 H8700 62.9444 4.27971 49.8058 H 0.0 **** 0.053
8701 H8701 64.6658 4.02469 49.4261 H 0.0 **** 0.053
8702 H8702 63.7734 2.81257 50.374 H 0.0 **** 0.053
8703 H8703 58.255 2.96435 48.8897 H 0.0 **** 0.41
8704 H8704 57.7808 3.21485 42.974 H 0.0 **** 0.41
8705 H8705 52.2482 7.0572 54.1905 H 0.0 **** 0.053
8706 H8706 52.2345 5.75512 55.3979 H 0.0 **** 0.053
8707 H8707 50.9082 5.90354 54.2289 H 0.0 **** 0.053
8708 H8708 53.9386 4.3825 55.916 H 0.0 **** 0.053
8709 H8709 54.0646 2.67145 55.4456 H 0.0 **** 0.053
8710 H8710 52.468 3.42272 55.6936 H 0.0 **** 0.053
8711 C8711 -6.23241 11.7445 30.8717 C.ar 0.0 **** 0.0
8712 C8712 -6.72732 12.7135 31.7639 C.ar 0.0 **** 0.0
8713 C8713 -5.95093 13.1043 32.8729 C.ar 0.0 **** 0.0
8714 C8714 -4.68803 12.5414 33.0704 C.ar 0.0 **** 0.0
8715 C8715 -4.16259 11.6116 32.1507 C.ar 0.0 **** 0.0
8716 C8716 -4.92861 11.227 31.0355 C.ar 0.0 **** 0.0
8717 C8717 -3.8475 12.912 34.2569 C.3 0.0 **** -0.106
8718 C8718 -4.48188 13.7965 35.2897 C.ar 0.0 **** 0.0
8719 C8719 -5.71806 14.3723 35.0994 C.ar 0.0 **** 0.0
8720 C8720 -6.49872 14.1307 33.8337 C.3 0.0 **** -0.106
8721 C8721 -6.30563 15.1897 36.1239 C.ar 0.0 **** 0.0
8722 C8722 -5.67083 15.3776 37.3475 C.ar 0.0 **** 0.0
8723 C8723 -4.35314 14.8352 37.5391 C.ar 0.0 **** 0.0
8724 C8724 -3.75992 14.0359 36.4994 C.ar 0.0 **** 0.0
8725 C8725 -2.45686 13.534 36.6374 C.ar 0.0 **** -0.1268
8726 C8726 -1.72587 13.6564 37.8178 C.ar 0.0 **** 0.0
8727 C8727 -2.36772 14.3076 38.9357 C.ar 0.0 **** 0.0
8728 C8728 -3.55671 15.0396 38.6928 C.ar 0.0 **** 0.042
8729 C8729 -1.80675 14.126 40.2426 C.2 0.0 **** 0.0
8730 C8730 -0.540208 13.5793 40.3999 C.2 0.0 **** 0.0
8731 C8731 0.262412 13.2688 39.2504 C.ar 0.0 **** 0.0
8732 C8732 -0.35112 13.2167 37.9645 C.ar 0.0 **** 0.0
8733 C8733 -0.178885 13.1745 41.8103 C.3 0.0 **** -0.106
8734 C8734 -1.31833 12.3022 42.3744 C.ar 0.0 **** -0.053
8735 C8735 -2.63095 13.1229 42.4633 C.ar 0.0 **** -0.053
8736 C8736 -2.58394 14.3547 41.5183 C.3 0.0 **** -0.106
8737 C8737 0.440797 12.7625 36.8465 C.ar 0.0 **** 0.042
8738 C8738 1.8074 12.4323 37.0101 C.ar 0.0 **** 0.052
8739 C8739 2.43567 12.5613 38.2706 C.ar 0.0 **** 0.052
8740 C8740 1.67997 13.0037 39.3766 C.ar 0.0 **** 0.042
8741 C8741 3.83998 12.2492 38.4537 C.2 0.0 **** 0.367
8742 C8742 4.60988 11.7837 37.2812 C.ar 0.0 **** 0.0
8743 C8743 3.97224 11.6495 36.0637 C.ar 0.0 **** 0.0
8744 C8744 2.56766 11.982 35.8771 C.2 0.0 **** 0.367
8745 C8745 4.73816 11.1832 34.8599 C.3 0.0 **** -0.106
8746 C8746 5.76474 10.1262 35.2572 C.3 0.0 **** -0.106
8747 C8747 6.63276 10.6305 36.3791 C.ar 0.0 **** 0.0
8748 C8748 6.04776 11.4507 37.3752 C.ar 0.0 **** 0.2405
8749 N8749 6.74394 11.9235 38.4187 N.ar 0.0 **** -0.481
8750 C8750 8.02668 11.5711 38.5559 C.ar 0.0 **** 0.2405
8751 C8751 8.70133 10.7651 37.6141 C.ar 0.0 **** 0.0
8752 C8752 7.99279 10.2999 36.4971 C.ar 0.0 **** 0.0
8753 C8753 8.67289 9.4343 35.4582 C.3 0.0 **** -0.106
8754 C8754 10.2024 9.44266 35.5551 C.3 0.0 **** -0.106
8755 C8755 10.6517 9.28754 37.0071 C.3 0.0 **** -0.106
8756 C8756 10.1682 10.4772 37.8356 C.3 0.0 **** -0.053
8757 C8757 10.4631 10.2934 39.3254 C.3 0.0 **** -0.106
8758 C8758 9.93507 11.4323 40.162 C.ar 0.0 **** 0.0
8759 C8759 8.73421 12.0519 39.7572 C.ar 0.0 **** 0.0
8760 C8760 8.19112 13.0821 40.5366 C.ar 0.0 **** -0.1268
8761 C8761 8.84462 13.4896 41.693 C.ar 0.0 **** -0.1268
8762 C8762 10.0355 12.8791 42.1173 C.ar 0.0 **** 0.0
8763 C8763 10.5798 11.8287 41.3483 C.ar 0.0 **** 0.0
8764 C8764 -4.37804 10.2382 30.0294 C.3 0.0 **** -0.106
8765 C8765 -4.58257 8.78125 30.4741 C.3 0.0 **** -0.159
8766 C8766 -7.1082 11.2551 29.7377 C.3 0.0 **** -0.159
8767 C8767 -2.78579 11.0501 32.4172 C.3 0.0 **** -0.159
8768 C8768 -8.08795 13.3317 31.5329 C.3 0.0 **** -0.159
8769 C8769 -7.65698 15.8163 35.8612 C.3 0.0 **** -0.159
8770 C8770 -6.41508 16.0487 38.4804 C.3 0.0 **** -0.159
8771 O8771 -3.94356 16.027 39.5713 O.3 0.0 **** -0.452
8772 C8772 -2.97005 13.6265 43.8699 C.3 0.0 **** -0.159
8773 C8773 -0.899216 11.6308 43.6844 C.3 0.0 **** -0.159
8774 O8774 2.2939 13.2097 40.5352 O.3 0.0 **** -0.452
8775 O8775 -0.0813415 12.6414 35.6288 O.3 0.0 **** -0.452
8776 O8776 2.03815 11.879 34.7124 O.2 0.0 **** -0.419
8777 O8777 4.36361 12.3644 39.6067 O.2 0.0 **** -0.419
8778 C8778 11.8376 11.1154 41.7876 C.3 0.0 **** -0.159
8779 C8779 10.6949 13.3533 43.3885 C.3 0.0 **** -0.159
8780 H8780 -3.50593 11.9876 34.7546 H 0.0 **** 0.053
8781 H8781 -2.90808 13.3817 33.9054 H 0.0 **** 0.053
8782 H8782 -6.60994 15.0939 33.298 H 0.0 **** 0.053
8783 H8783 -7.53159 13.8551 34.1063 H 0.0 **** 0.053
8784 H8784 -1.99344 13.0441 35.7966 H 0.0 **** 0.1268
8785 H8785 0.759714 12.6211 41.8478 H 0.0 **** 0.053
8786 H8786 -0.0475564 14.0638 42.4543 H 0.0 **** 0.053
8787 H8787 -1.48172 11.5042 41.6315 H 0.0 **** 0.053
8788 H8788 -3.45808 12.4796 42.1238 H 0.0 **** 0.053
8789 H8789 -2.09591 15.1726 42.0832 H 0.0 **** 0.053
8790 H8790 -3.61762 14.6607 41.331 H 0.0 **** 0.053
8791 H8791 4.03937 10.8122 34.0996 H 0.0 **** 0.053
8792 H8792 5.25677 12.0542 34.4169 H 0.0 **** 0.053
8793 H8793 6.36285 9.84067 34.383 H 0.0 **** 0.053
8794 H8794 5.2367 9.21192 35.5884 H 0.0 **** 0.053
8795 H8795 8.30226 8.39918 35.5684 H 0.0 **** 0.053
8796 H8796 8.36682 9.75312 34.4498 H 0.0 **** 0.053
8797 H8797 10.5883 10.3986 35.1634 H 0.0 **** 0.053
8798 H8798 10.6176 8.64399 34.9219 H 0.0 **** 0.053
8799 H8799 11.7479 9.20652 37.0783 H 0.0 **** 0.053
8800 H8800 10.2275 8.35977 37.43 H 0.0 **** 0.053
8801 H8801 10.7261 11.3753 37.5019 H 0.0 **** 0.053
8802 H8802 10.002 9.34491 39.6634 H 0.0 **** 0.053
8803 H8803 11.5474 10.1744 39.4578 H 0.0 **** 0.053
8804 H8804 7.24871 13.5324 40.2249 H 0.0 **** 0.1268
8805 H8805 8.42246 14.2946 42.2985 H 0.0 **** 0.1268
8806 H8806 -3.30637 10.4261 29.8678 H 0.0 **** 0.053
8807 H8807 -4.85226 10.392 29.0505 H 0.0 **** 0.053
8808 H8808 -5.65178 8.57427 30.6341 H 0.0 **** 0.053
8809 H8809 -4.06529 8.59203 31.4265 H 0.0 **** 0.053
8810 H8810 -4.19973 8.07265 29.7232 H 0.0 **** 0.053
8811 H8811 -8.17301 11.3248 29.9939 H 0.0 **** 0.053
8812 H8812 -6.90027 10.206 29.4902 H 0.0 **** 0.053
8813 H8813 -6.95349 11.8449 28.8172 H 0.0 **** 0.053
8814 H8814 -2.76277 10.5169 33.382 H 0.0 **** 0.053
8815 H8815 -2.03409 11.8527 32.4959 H 0.0 **** 0.053
8816 H8816 -2.4514 10.3468 31.6477 H 0.0 **** 0.053
8817 H8817 -8.17199 14.3233 31.9946 H 0.0 **** 0.053
8818 H8818 -8.89452 12.707 31.9561 H 0.0 **** 0.053
8819 H8819 -8.2995 13.4486 30.4615 H 0.0 **** 0.053
8820 H8820 -7.76755 16.774 36.3853 H 0.0 **** 0.053
8821 H8821 -8.48179 15.1608 36.1921 H 0.0 **** 0.053
8822 H8822 -7.80994 16.0081 34.7921 H 0.0 **** 0.053
8823 H8823 -6.21427 15.5409 39.4311 H 0.0 **** 0.053
8824 H8824 -7.49727 16.0239 38.3096 H 0.0 **** 0.053
8825 H8825 -6.11112 17.0985 38.6158 H 0.0 **** 0.053
8826 H8826 -3.19167 16.2256 40.1517 H 0.0 **** 0.41
8827 H8827 -3.14784 12.8002 44.5719 H 0.0 **** 0.053
8828 H8828 -3.87505 14.2528 43.8429 H 0.0 **** 0.053
8829 H8829 -2.14906 14.2425 44.2705 H 0.0 **** 0.053
8830 H8830 -0.0112449 11.0019 43.5221 H 0.0 **** 0.053
8831 H8831 -1.70176 10.9918 44.0829 H 0.0 **** 0.053
8832 H8832 -0.648267 12.3762 44.4537 H 0.0 **** 0.053
8833 H8833 3.29462 12.8842 40.3459 H 0.0 **** 0.41
8834 H8834 0.724135 12.3022 35.0227 H 0.0 **** 0.41
8835 H8835 11.7057 10.023 41.7602 H 0.0 **** 0.053
8836 H8836 12.1331 11.3932 42.8059 H 0.0 **** 0.053
8837 H8837 12.6844 11.3498 41.1201 H 0.0 **** 0.053
8838 H8838 10.7436 12.5505 44.1425 H 0.0 **** 0.053
8839 H8839 10.1363 14.1923 43.8252 H 0.0 **** 0.053
8840 H8840 11.7298 13.686 43.2091 H 0.0 **** 0.053
8841 C8841 23.2815 54.1237 55.697 C.ar 0.0 **** 0.0
8842 C8842 24.1265 53.3219 56.4864 C.ar 0.0 **** 0.0
8843 C8843 25.4425 53.0592 56.0571 C.ar 0.0 **** 0.0
8844 C8844 25.9065 53.6101 54.8605 C.ar 0.0 **** 0.0
8845 C8845 25.0845 54.4591 54.0926 C.ar 0.0 **** 0.0
8846 C8846 23.7739 54.7343 54.5226 C.ar 0.0 **** 0.0
8847 C8847 27.2919 53.3264 54.3585 C.3 0.0 **** -0.106
8848 C8848 28.097 52.3149 55.1201 C.ar 0.0 **** 0.0
8849 C8849 27.6594 51.778 56.3101 C.ar 0.0 **** 0.0
8850 C8850 26.3345 52.1832 56.9021 C.3 0.0 **** -0.106
8851 C8851 28.4449 50.79 56.9954 C.ar 0.0 **** 0.0
8852 C8852 29.6345 50.3135 56.4537 C.ar 0.0 **** 0.0
8853 C8853 30.1364 50.9075 55.2445 C.ar 0.0 **** 0.0
8854 C8854 29.3553 51.9138 54.5744 C.ar 0.0 **** 0.0
8855 C8855 29.8409 52.5463 53.4198 C.ar 0.0 **** -0.1268
8856 C8856 31.0173 52.151 52.7853 C.ar 0.0 **** 0.0
8857 C8857 31.7321 51.0276 53.3444 C.ar 0.0 **** 0.0
8858 C8858 31.3802 50.5892 54.6454 C.ar 0.0 **** 0.042
8859 C8859 32.7142 50.3727 52.5306 C.2 0.0 **** 0.0
8860 C8860 33.1654 50.959 51.3557 C.2 0.0 **** 0.0
8861 C8861 32.719 52.2721 50.9837 C.ar 0.0 **** 0.0
8862 C8862 31.5834 52.8342 51.6374 C.ar 0.0 **** 0.0
8863 C8863 33.9712 50.058 50.4488 C.3 0.0 **** -0.106
8864 C8864 33.1857 48.7477 50.2401 C.ar 0.0 **** -0.053
8865 C8865 33.02 47.999 51.5878 C.ar 0.0 **** -0.053
8866 C8866 33.2022 48.9661 52.7895 C.3 0.0 **** -0.106
8867 C8867 31.0653 54.0901 51.1498 C.ar 0.0 **** 0.042
8868 C8868 31.7018 54.7758 50.0877 C.ar 0.0 **** 0.052
8869 C8869 32.8754 54.2565 49.4932 C.ar 0.0 **** 0.052
8870 C8870 33.3987 53.0304 49.9548 C.ar 0.0 **** 0.042
8871 C8871 33.5546 54.955 48.4191 C.2 0.0 **** 0.367
8872 C8872 32.9851 56.2356 47.9498 C.ar 0.0 **** 0.0
8873 C8873 31.8295 56.7158 48.5336 C.ar 0.0 **** 0.0
8874 C8874 31.16 56.0235 49.6249 C.2 0.0 **** 0.367
8875 C8875 31.2386 58.017 48.0746 C.3 0.0 **** -0.106
8876 C8876 31.4047 58.1757 46.5659 C.3 0.0 **** -0.106
8877 C8877 32.8447 57.9828 46.1714 C.ar 0.0 **** 0.0
8878 C8878 33.6162 57.0182 46.8653 C.ar 0.0 **** 0.2405
8879 N8879 34.8982 56.7688 46.563 N.ar 0.0 **** -0.481
8880 C8880 35.4607 57.4167 45.5373 C.ar 0.0 **** 0.2405
8881 C8881 34.7785 58.4004 44.7898 C.ar 0.0 **** 0.0
8882 C8882 33.4499 58.6984 45.1252 C.ar 0.0 **** 0.0
8883 C8883 32.6768 59.7471 44.3548 C.3 0.0 **** -0.106
8884 C8884 33.5602 60.6497 43.4866 C.3 0.0 **** -0.106
8885 C8885 34.5857 59.8201 42.7155 C.3 0.0 **** -0.106
8886 C8886 35.5286 59.1145 43.6894 C.3 0.0 **** -0.053
8887 C8887 36.4771 58.1531 42.971 C.3 0.0 **** -0.106
8888 C8888 37.371 57.4036 43.9275 C.ar 0.0 **** 0.0
8889 C8889 36.8487 57.0579 45.1914 C.ar 0.0 **** 0.0
8890 C8890 37.636 56.3213 46.0867 C.ar 0.0 **** -0.1268
8891 C8891 38.9246 55.948 45.7256 C.ar 0.0 **** -0.1268
8892 C8892 39.4587 56.2744 44.469 C.ar 0.0 **** 0.0
8893 C8893 38.6666 57.0002 43.5543 C.ar 0.0 **** 0.0
8894 C8894 22.8783 55.6529 53.7181 C.3 0.0 **** -0.106
8895 C8895 22.1769 54.9179 52.5649 C.3 0.0 **** -0.159
8896 C8896 21.8388 54.3234 56.1108 C.3 0.0 **** -0.159
8897 C8897 25.652 55.0312 52.8148 C.3 0.0 **** -0.159
8898 C8898 23.6225 52.7442 57.7899 C.3 0.0 **** -0.159
8899 C8899 27.9318 50.2435 58.309 C.3 0.0 **** -0.159
8900 C8900 30.3151 49.1173 57.0811 C.3 0.0 **** -0.159
8901 O8901 32.2857 49.87 55.3931 O.3 0.0 **** -0.452
8902 C8902 33.9841 46.8245 51.7835 C.3 0.0 **** -0.159
8903 C8903 33.8044 47.9088 49.1194 C.3 0.0 **** -0.159
8904 O8904 34.5485 52.5927 49.4569 O.3 0.0 **** -0.452
8905 O8905 29.9792 54.6464 51.6798 O.3 0.0 **** -0.452
8906 O8906 30.1127 56.5388 50.1586 O.2 0.0 **** -0.419
8907 O8907 34.599 54.447 47.9015 O.2 0.0 **** -0.419
8908 C8908 39.1849 57.3388 42.1758 C.3 0.0 **** -0.159
8909 C8909 40.8592 55.8314 44.1254 C.3 0.0 **** -0.159
8910 H8910 27.2297 52.9987 53.3061 H 0.0 **** 0.053
8911 H8911 27.8607 54.275 54.3033 H 0.0 **** 0.053
8912 H8912 26.5202 52.6932 57.8678 H 0.0 **** 0.053
8913 H8913 25.7824 51.2703 57.1831 H 0.0 **** 0.053
8914 H8914 29.293 53.3789 53.0099 H 0.0 **** 0.1268
8915 H8915 34.1704 50.524 49.4835 H 0.0 **** 0.053
8916 H8916 34.9552 49.8257 50.8968 H 0.0 **** 0.053
8917 H8917 32.1787 49.0506 49.9088 H 0.0 **** 0.053
8918 H8918 31.9919 47.6064 51.6348 H 0.0 **** 0.053
8919 H8919 34.2875 49.0067 53.0055 H 0.0 **** 0.053
8920 H8920 32.7156 48.5055 53.6545 H 0.0 **** 0.053
8921 H8921 30.1861 58.0719 48.3802 H 0.0 **** 0.053
8922 H8922 31.7635 58.8413 48.5931 H 0.0 **** 0.053
8923 H8923 31.0294 59.1573 46.251 H 0.0 **** 0.053
8924 H8924 30.7817 57.421 46.0494 H 0.0 **** 0.053
8925 H8925 31.9335 59.2354 43.717 H 0.0 **** 0.053
8926 H8926 32.0924 60.3665 45.0527 H 0.0 **** 0.053
8927 H8927 34.0952 61.367 44.1313 H 0.0 **** 0.053
8928 H8928 32.9293 61.2386 42.8038 H 0.0 **** 0.053
8929 H8929 35.1686 60.4494 42.0245 H 0.0 **** 0.053
8930 H8930 34.0657 59.0603 42.1056 H 0.0 **** 0.053
8931 H8931 36.1566 59.8871 44.1773 H 0.0 **** 0.053
8932 H8932 35.8738 57.4295 42.3886 H 0.0 **** 0.053
8933 H8933 37.0681 58.7219 42.2398 H 0.0 **** 0.053
8934 H8934 37.2084 56.0388 47.0487 H 0.0 **** 0.1268
8935 H8935 39.5388 55.3765 46.4249 H 0.0 **** 0.1268
8936 H8936 23.4663 56.4911 53.316 H 0.0 **** 0.053
8937 H8937 22.1242 56.1124 54.3716 H 0.0 **** 0.053
8938 H8938 21.578 54.079 52.9511 H 0.0 **** 0.053
8939 H8939 22.9172 54.4992 51.867 H 0.0 **** 0.053
8940 H8940 21.5108 55.5912 52.0032 H 0.0 **** 0.053
8941 H8941 21.4636 53.467 56.6853 H 0.0 **** 0.053
8942 H8942 21.1816 54.445 55.2399 H 0.0 **** 0.053
8943 H8943 21.7145 55.2209 56.7419 H 0.0 **** 0.053
8944 H8944 25.9317 54.2243 52.1175 H 0.0 **** 0.053
8945 H8945 26.5763 55.6006 53.0066 H 0.0 **** 0.053
8946 H8946 24.9518 55.6885 52.2892 H 0.0 **** 0.053
8947 H8947 24.4414 52.5304 58.4879 H 0.0 **** 0.053
8948 H8948 23.0766 51.7975 57.6299 H 0.0 **** 0.053
8949 H8949 22.9316 53.4331 58.2942 H 0.0 **** 0.053
8950 H8950 28.7541 49.9597 58.9779 H 0.0 **** 0.053
8951 H8951 27.3022 49.3484 58.1604 H 0.0 **** 0.053
8952 H8952 27.3179 50.982 58.8391 H 0.0 **** 0.053
8953 H8953 30.6967 48.4388 56.309 H 0.0 **** 0.053
8954 H8954 29.6172 48.5516 57.7087 H 0.0 **** 0.053
8955 H8955 31.1796 49.4054 57.6997 H 0.0 **** 0.053
8956 H8956 33.1562 49.9513 54.9722 H 0.0 **** 0.41
8957 H8957 33.8246 46.0317 51.0398 H 0.0 **** 0.053
8958 H8958 33.8524 46.3857 52.7846 H 0.0 **** 0.053
8959 H8959 35.0297 47.1624 51.7017 H 0.0 **** 0.053
8960 H8960 33.8113 48.478 48.178 H 0.0 **** 0.053
8961 H8961 33.2373 46.9804 48.9527 H 0.0 **** 0.053
8962 H8962 34.8432 47.632 49.3536 H 0.0 **** 0.053
8963 H8963 34.7787 53.3105 48.6986 H 0.0 **** 0.41
8964 H8964 29.8451 55.5492 51.1339 H 0.0 **** 0.41
8965 H8965 38.4528 57.0714 41.3987 H 0.0 **** 0.053
8966 H8966 40.1217 56.8168 41.9495 H 0.0 **** 0.053
8967 H8967 39.3745 58.4211 42.0743 H 0.0 **** 0.053
8968 H8968 40.8663 55.1483 43.2602 H 0.0 **** 0.053
8969 H8969 41.3184 55.3058 44.9736 H 0.0 **** 0.053
8970 H8970 41.5022 56.6865 43.8623 H 0.0 **** 0.053
8971 C8971 37.1912 73.0208 13.9593 C.ar 0.0 **** 0.0
8972 C8972 36.4693 71.9166 14.4486 C.ar 0.0 **** 0.0
8973 C8973 37.1419 70.7111 14.7312 C.ar 0.0 **** 0.0
8974 C8974 38.5228 70.6244 14.541 C.ar 0.0 **** 0.0
8975 C8975 39.2609 71.7428 14.1042 C.ar 0.0 **** 0.0
8976 C8976 38.5961 72.9521 13.8321 C.ar 0.0 **** 0.0
8977 C8977 39.266 69.3474 14.8029 C.3 0.0 **** -0.106
8978 C8978 38.4427 68.1375 15.1345 C.ar 0.0 **** 0.0
8979 C8979 37.0837 68.2126 15.3425 C.ar 0.0 **** 0.0
8980 C8980 36.3554 69.5273 15.2383 C.3 0.0 **** -0.106
8981 C8981 36.3247 67.0274 15.6291 C.ar 0.0 **** 0.0
8982 C8982 36.9281 65.7741 15.6522 C.ar 0.0 **** 0.0
8983 C8983 38.3549 65.685 15.4989 C.ar 0.0 **** 0.0
8984 C8984 39.1132 66.8795 15.2346 C.ar 0.0 **** 0.0
8985 C8985 40.5115 66.8314 15.1286 C.ar 0.0 **** -0.1268
8986 C8986 41.2243 65.6336 15.1327 C.ar 0.0 **** 0.0
8987 C8987 40.4675 64.4071 15.2256 C.ar 0.0 **** 0.0
8988 C8988 39.1043 64.4873 15.6048 C.ar 0.0 **** 0.042
8989 C8989 41.1149 63.1793 14.8661 C.2 0.0 **** 0.0
8990 C8990 42.4927 63.1266 14.703 C.2 0.0 **** 0.0
8991 C8991 43.2993 64.2822 14.9782 C.ar 0.0 **** 0.0
8992 C8992 42.6727 65.5568 15.1027 C.ar 0.0 **** 0.0
8993 C8993 43.0212 61.8697 14.0513 C.3 0.0 **** -0.106
8994 C8994 42.2214 61.618 12.7573 C.ar 0.0 **** -0.053
8995 C8995 40.7287 61.3604 13.0886 C.ar 0.0 **** -0.053
8996 C8996 40.3626 61.9241 14.489 C.3 0.0 **** -0.106
8997 C8997 43.5135 66.7225 15.2347 C.ar 0.0 **** 0.042
8998 C8998 44.9222 66.5995 15.2975 C.ar 0.0 **** 0.052
8999 C8999 45.5387 65.3274 15.2546 C.ar 0.0 **** 0.052
9000 C9000 44.7354 64.1749 15.126 C.ar 0.0 **** 0.042
9001 C9001 46.9787 65.179 15.3399 C.2 0.0 **** 0.367
9002 C9002 47.7995 66.4012 15.47 C.ar 0.0 **** 0.0
9003 C9003 47.1776 67.6338 15.4935 C.ar 0.0 **** 0.0
9004 C9004 45.731 67.7799 15.4278 C.2 0.0 **** 0.367
9005 C9005 47.9934 68.8863 15.6304 C.3 0.0 **** -0.106
9006 C9006 49.306 68.7548 14.863 C.3 0.0 **** -0.106
9007 C9007 50.0325 67.5015 15.273 C.ar 0.0 **** 0.0
9008 C9008 49.2739 66.3426 15.5709 C.ar 0.0 **** 0.2405
9009 N9009 49.8425 65.1807 15.9224 N.ar 0.0 **** -0.481
9010 C9010 51.1766 65.0926 15.9471 C.ar 0.0 **** 0.2405
9011 C9011 52.0189 66.1916 15.674 C.ar 0.0 **** 0.0
9012 C9012 51.4329 67.4227 15.346 C.ar 0.0 **** 0.0
9013 C9013 52.2938 68.6312 15.0471 C.3 0.0 **** -0.106
9014 C9014 53.7535 68.4715 15.4863 C.3 0.0 **** -0.106
9015 C9015 54.2929 67.1018 15.0774 C.3 0.0 **** -0.106
9016 C9016 53.513 65.9971 15.7894 C.3 0.0 **** -0.053
9017 C9017 53.9156 64.6056 15.2976 C.3 0.0 **** -0.106
9018 C9018 53.1088 63.5092 15.9477 C.ar 0.0 **** 0.0
9019 C9019 51.7607 63.7765 16.2655 C.ar 0.0 **** 0.0
9020 C9020 50.9695 62.7656 16.8277 C.ar 0.0 **** -0.1268
9021 C9021 51.5221 61.5152 17.0755 C.ar 0.0 **** -0.1268
9022 C9022 52.8588 61.227 16.7575 C.ar 0.0 **** 0.0
9023 C9023 53.6576 62.2333 16.1745 C.ar 0.0 **** 0.0
9024 C9024 39.3719 74.1687 13.3727 C.3 0.0 **** -0.106
9025 C9025 39.6328 74.1543 11.8582 C.3 0.0 **** -0.159
9026 C9026 36.4524 74.2818 13.5638 C.3 0.0 **** -0.159
9027 C9027 40.7531 71.5847 13.9303 C.3 0.0 **** -0.159
9028 C9028 34.9772 72.0242 14.6693 C.3 0.0 **** -0.159
9029 C9029 34.8375 67.1628 15.8689 C.3 0.0 **** -0.159
9030 C9030 36.0685 64.5319 15.7284 C.3 0.0 **** -0.159
9031 O9031 38.4793 63.3867 16.1472 O.3 0.0 **** -0.452
9032 C9032 40.3175 59.8849 13.0575 C.3 0.0 **** -0.159
9033 C9033 42.8803 60.529 11.9073 C.3 0.0 **** -0.159
9034 O9034 45.3106 62.9798 15.1774 O.3 0.0 **** -0.452
9035 O9035 42.9978 67.947 15.3047 O.3 0.0 **** -0.452
9036 O9036 45.2052 68.9487 15.4974 O.2 0.0 **** -0.419
9037 O9037 47.4948 64.0183 15.2828 O.2 0.0 **** -0.419
9038 C9038 55.0896 61.9564 15.7786 C.3 0.0 **** -0.159
9039 C9039 53.4021 59.8476 17.0362 C.3 0.0 **** -0.159
9040 H9040 39.8904 69.1114 13.9235 H 0.0 **** 0.053
9041 H9041 40.0051 69.515 15.6105 H 0.0 **** 0.053
9042 H9042 35.9372 69.7793 16.2326 H 0.0 **** 0.053
9043 H9043 35.4656 69.3855 14.6016 H 0.0 **** 0.053
9044 H9044 41.0623 67.7547 15.0529 H 0.0 **** 0.1268
9045 H9045 44.0831 61.9476 13.817 H 0.0 **** 0.053
9046 H9046 42.9089 60.9995 14.7244 H 0.0 **** 0.053
9047 H9047 42.2713 62.5591 12.1854 H 0.0 **** 0.053
9048 H9048 40.1177 61.8994 12.3475 H 0.0 **** 0.053
9049 H9049 40.6082 61.1346 15.2256 H 0.0 **** 0.053
9050 H9050 39.2774 62.0626 14.5104 H 0.0 **** 0.053
9051 H9051 47.4045 69.7484 15.2927 H 0.0 **** 0.053
9052 H9052 48.2073 69.0484 16.7037 H 0.0 **** 0.053
9053 H9053 49.9225 69.6479 15.0235 H 0.0 **** 0.053
9054 H9054 49.0911 68.7125 13.7783 H 0.0 **** 0.053
9055 H9055 52.2553 68.8279 13.9605 H 0.0 **** 0.053
9056 H9056 51.8617 69.5237 15.5256 H 0.0 **** 0.053
9057 H9057 53.8177 68.5663 16.5832 H 0.0 **** 0.053
9058 H9058 54.3599 69.2832 15.0567 H 0.0 **** 0.053
9059 H9059 55.3652 67.0097 15.3122 H 0.0 **** 0.053
9060 H9060 54.1851 66.9709 13.9862 H 0.0 **** 0.053
9061 H9061 53.7611 66.0451 16.869 H 0.0 **** 0.053
9062 H9062 53.7751 64.5635 14.1999 H 0.0 **** 0.053
9063 H9063 54.9906 64.4659 15.4773 H 0.0 **** 0.053
9064 H9064 49.9226 62.9797 17.0427 H 0.0 **** 0.1268
9065 H9065 50.9058 60.7286 17.5164 H 0.0 **** 0.1268
9066 H9066 40.3299 74.2267 13.9102 H 0.0 **** 0.053
9067 H9067 38.8302 75.0858 13.642 H 0.0 **** 0.053
9068 H9068 38.6829 74.1031 11.3045 H 0.0 **** 0.053
9069 H9069 40.225 73.2708 11.5768 H 0.0 **** 0.053
9070 H9070 40.1763 75.0554 11.5338 H 0.0 **** 0.053
9071 H9071 35.428 74.0614 13.2374 H 0.0 **** 0.053
9072 H9072 36.9535 74.8014 12.7367 H 0.0 **** 0.053
9073 H9073 36.3822 74.9954 14.4034 H 0.0 **** 0.053
9074 H9074 40.9776 70.8054 13.1834 H 0.0 **** 0.053
9075 H9075 41.2328 71.255 14.8665 H 0.0 **** 0.053
9076 H9076 41.2479 72.5041 13.6013 H 0.0 **** 0.053
9077 H9077 34.6209 71.3098 15.4217 H 0.0 **** 0.053
9078 H9078 34.4142 71.8251 13.7401 H 0.0 **** 0.053
9079 H9079 34.6927 73.0292 15.0091 H 0.0 **** 0.053
9080 H9080 34.4689 66.3988 16.5651 H 0.0 **** 0.053
9081 H9081 34.2623 67.0615 14.9317 H 0.0 **** 0.053
9082 H9082 34.5866 68.1422 16.2941 H 0.0 **** 0.053
9083 H9083 36.4543 63.7515 15.0618 H 0.0 **** 0.053
9084 H9084 35.0368 64.7482 15.4287 H 0.0 **** 0.053
9085 H9085 36.05 64.0981 16.7405 H 0.0 **** 0.053
9086 H9086 39.1624 62.7429 16.3932 H 0.0 **** 0.41
9087 H9087 40.4267 59.4475 12.0555 H 0.0 **** 0.053
9088 H9088 39.2663 59.7752 13.3656 H 0.0 **** 0.053
9089 H9089 40.9335 59.2951 13.7551 H 0.0 **** 0.053
9090 H9090 43.9076 60.8217 11.6442 H 0.0 **** 0.053
9091 H9091 42.3244 60.3573 10.9731 H 0.0 **** 0.053
9092 H9092 42.9307 59.5733 12.4502 H 0.0 **** 0.053
9093 H9093 46.3534 63.2097 15.2325 H 0.0 **** 0.41
9094 H9094 43.84 68.5889 15.4041 H 0.0 **** 0.41
9095 H9095 55.2895 62.2911 14.7492 H 0.0 **** 0.053
9096 H9096 55.3335 60.8896 15.8389 H 0.0 **** 0.053
9097 H9097 55.7967 62.4966 16.431 H 0.0 **** 0.053
9098 H9098 53.7224 59.3443 16.1092 H 0.0 **** 0.053
9099 H9099 52.6381 59.2194 17.514 H 0.0 **** 0.053
9100 H9100 54.2809 59.884 17.6998 H 0.0 **** 0.053
9101 C9101 -2.702 56.3574 2.99104 C.ar 0.0 **** 0.0
9102 C9102 -3.37933 57.0484 4.01268 C.ar 0.0 **** 0.0
9103 C9103 -3.10359 58.4119 4.23636 C.ar 0.0 **** 0.0
9104 C9104 -2.17344 59.0741 3.43199 C.ar 0.0 **** 0.0
9105 C9105 -1.53217 58.4032 2.37137 C.ar 0.0 **** 0.0
9106 C9106 -1.81271 57.0451 2.13618 C.ar 0.0 **** 0.0
9107 C9107 -1.83352 60.5175 3.6618 C.3 0.0 **** -0.106
9108 C9108 -2.42455 61.17 4.8769 C.ar 0.0 **** 0.0
9109 C9109 -3.35602 60.535 5.66757 C.ar 0.0 **** 0.0
9110 C9110 -3.82217 59.1388 5.34637 C.3 0.0 **** -0.106
9111 C9111 -3.87725 61.181 6.83967 C.ar 0.0 **** 0.0
9112 C9112 -3.42011 62.4342 7.23449 C.ar 0.0 **** 0.0
9113 C9113 -2.49474 63.1367 6.38752 C.ar 0.0 **** 0.0
9114 C9114 -1.99339 62.493 5.20178 C.ar 0.0 **** 0.0
9115 C9115 -1.12754 63.1712 4.33038 C.ar 0.0 **** -0.1268
9116 C9116 -0.600561 64.428 4.62267 C.ar 0.0 **** 0.0
9117 C9117 -0.955922 65.0223 5.89006 C.ar 0.0 **** 0.0
9118 C9118 -2.03162 64.4557 6.61827 C.ar 0.0 **** 0.042
9119 C9119 -0.161625 66.1121 6.37708 C.2 0.0 **** 0.0
9120 C9120 0.740682 66.7588 5.54319 C.2 0.0 **** 0.0
9121 C9121 0.827749 66.4021 4.15501 C.ar 0.0 **** 0.0
9122 C9122 0.233578 65.1854 3.70867 C.ar 0.0 **** 0.0
9123 C9123 1.71382 67.6854 6.23456 C.3 0.0 **** -0.106
9124 C9124 2.36867 66.9213 7.40282 C.ar 0.0 **** -0.053
9125 C9125 1.29937 66.5253 8.45358 C.ar 0.0 **** -0.053
9126 C9126 -0.123152 66.5265 7.82984 C.3 0.0 **** -0.106
9127 C9127 0.456613 64.7758 2.3427 C.ar 0.0 **** 0.042
9128 C9128 1.19744 65.5887 1.45177 C.ar 0.0 **** 0.052
9129 C9129 1.71841 66.834 1.8738 C.ar 0.0 **** 0.052
9130 C9130 1.51176 67.2535 3.20474 C.ar 0.0 **** 0.042
9131 C9131 2.46087 67.6912 0.969993 C.2 0.0 **** 0.367
9132 C9132 2.668 67.2284 -0.418273 C.ar 0.0 **** 0.0
9133 C9133 2.16455 66.0018 -0.804124 C.ar 0.0 **** 0.0
9134 C9134 1.40255 65.1516 0.0984859 C.2 0.0 **** 0.367
9135 C9135 2.35986 65.5166 -2.21105 C.3 0.0 **** -0.106
9136 C9136 3.73387 65.9288 -2.73181 C.3 0.0 **** -0.106
9137 C9137 3.9396 67.4102 -2.55966 C.ar 0.0 **** 0.0
9138 C9138 3.4063 68.0414 -1.4088 C.ar 0.0 **** 0.2405
9139 N9139 3.56269 69.3508 -1.16824 N.ar 0.0 **** -0.481
9140 C9140 4.28978 70.0842 -2.0179 C.ar 0.0 **** 0.2405
9141 C9141 4.85563 69.5501 -3.19531 C.ar 0.0 **** 0.0
9142 C9142 4.66239 68.1902 -3.47732 C.ar 0.0 **** 0.0
9143 C9143 5.24744 67.5714 -4.72868 C.3 0.0 **** -0.106
9144 C9144 5.70987 68.6002 -5.76625 C.3 0.0 **** -0.106
9145 C9145 6.50153 69.7227 -5.09714 C.3 0.0 **** -0.106
9146 C9146 5.6084 70.4819 -4.1166 C.3 0.0 **** -0.053
9147 C9147 6.39532 71.5176 -3.31142 C.3 0.0 **** -0.106
9148 C9148 5.53749 72.2305 -2.29572 C.ar 0.0 **** 0.0
9149 C9149 4.49957 71.5034 -1.67628 C.ar 0.0 **** 0.0
9150 C9150 3.71321 72.1213 -0.694555 C.ar 0.0 **** -0.1268
9151 C9151 3.95638 73.4447 -0.348593 C.ar 0.0 **** -0.1268
9152 C9152 4.99059 74.182 -0.946861 C.ar 0.0 **** 0.0
9153 C9153 5.79888 73.5622 -1.92328 C.ar 0.0 **** 0.0
9154 C9154 -1.14309 56.3088 0.994875 C.3 0.0 **** -0.106
9155 C9155 0.253088 55.7916 1.376 C.3 0.0 **** -0.159
9156 C9156 -2.92746 54.8704 2.81696 C.3 0.0 **** -0.159
9157 C9157 -0.545846 59.1811 1.53237 C.3 0.0 **** -0.159
9158 C9158 -4.39853 56.3288 4.86729 C.3 0.0 **** -0.159
9159 C9159 -4.91269 60.4513 7.66615 C.3 0.0 **** -0.159
9160 C9160 -3.81672 62.9825 8.58725 C.3 0.0 **** -0.159
9161 O9161 -2.69958 65.2145 7.55323 O.3 0.0 **** -0.452
9162 C9162 1.26579 67.4238 9.69401 C.3 0.0 **** -0.159
9163 C9163 3.55856 67.6993 7.96979 C.3 0.0 **** -0.159
9164 O9164 1.92325 68.4611 3.57069 O.3 0.0 **** -0.452
9165 O9165 -0.0256221 63.6278 1.87391 O.3 0.0 **** -0.452
9166 O9166 0.921368 64.0406 -0.327439 O.2 0.0 **** -0.419
9167 O9167 2.92534 68.7968 1.39273 O.2 0.0 **** -0.419
9168 C9168 6.94874 74.3039 -2.56473 C.3 0.0 **** -0.159
9169 C9169 5.21778 75.6116 -0.522572 C.3 0.0 **** -0.159
9170 H9170 -0.735535 60.6216 3.71188 H 0.0 **** 0.053
9171 H9171 -2.11073 61.1044 2.76445 H 0.0 **** 0.053
9172 H9172 -4.90291 59.1738 5.10566 H 0.0 **** 0.053
9173 H9173 -3.77226 58.5324 6.26661 H 0.0 **** 0.053
9174 H9174 -0.8657 62.712 3.39115 H 0.0 **** 0.1268
9175 H9175 2.48537 68.0473 5.55461 H 0.0 **** 0.053
9176 H9176 1.19517 68.5791 6.62861 H 0.0 **** 0.053
9177 H9177 2.76129 65.9873 6.96834 H 0.0 **** 0.053
9178 H9178 1.51216 65.4965 8.78455 H 0.0 **** 0.053
9179 H9179 -0.505702 67.5628 7.90806 H 0.0 **** 0.053
9180 H9180 -0.756445 65.8976 8.46273 H 0.0 **** 0.053
9181 H9181 2.215 64.4296 -2.24935 H 0.0 **** 0.053
9182 H9182 1.57361 65.9645 -2.84745 H 0.0 **** 0.053
9183 H9183 3.84048 65.6272 -3.78112 H 0.0 **** 0.053
9184 H9184 4.51536 65.385 -2.16792 H 0.0 **** 0.053
9185 H9185 6.10084 66.933 -4.43699 H 0.0 **** 0.053
9186 H9186 4.51198 66.8923 -5.18706 H 0.0 **** 0.053
9187 H9187 4.82908 69.0356 -6.26712 H 0.0 **** 0.053
9188 H9188 6.30731 68.0994 -6.54302 H 0.0 **** 0.053
9189 H9189 6.91084 70.4213 -5.84397 H 0.0 **** 0.053
9190 H9190 7.35772 69.2956 -4.54569 H 0.0 **** 0.053
9191 H9191 4.84885 71.0356 -4.70466 H 0.0 **** 0.053
9192 H9192 7.22864 71.0045 -2.79297 H 0.0 **** 0.053
9193 H9193 6.85712 72.2297 -4.00934 H 0.0 **** 0.053
9194 H9194 2.9327 71.538 -0.206144 H 0.0 **** 0.1268
9195 H9195 3.34134 73.9267 0.414486 H 0.0 **** 0.1268
9196 H9196 -1.06386 56.9691 0.118744 H 0.0 **** 0.053
9197 H9197 -1.76921 55.4666 0.669969 H 0.0 **** 0.053
9198 H9198 0.190907 55.1231 2.2483 H 0.0 **** 0.053
9199 H9199 0.913249 56.6281 1.64968 H 0.0 **** 0.053
9200 H9200 0.718739 55.2378 0.545952 H 0.0 **** 0.053
9201 H9201 -3.19914 54.3916 3.76632 H 0.0 **** 0.053
9202 H9202 -2.02684 54.366 2.44329 H 0.0 **** 0.053
9203 H9203 -3.74064 54.6609 2.1 H 0.0 **** 0.053
9204 H9204 0.283621 59.5563 2.15436 H 0.0 **** 0.053
9205 H9205 -1.01601 60.0718 1.08409 H 0.0 **** 0.053
9206 H9206 -0.105377 58.5876 0.724764 H 0.0 **** 0.053
9207 H9207 -5.1353 57.0192 5.29627 H 0.0 **** 0.053
9208 H9208 -3.91994 55.7997 5.71038 H 0.0 **** 0.053
9209 H9209 -4.95069 55.5773 4.28704 H 0.0 **** 0.053
9210 H9210 -5.60421 61.1486 8.1557 H 0.0 **** 0.053
9211 H9211 -4.44533 59.8387 8.45725 H 0.0 **** 0.053
9212 H9212 -5.5139 59.7725 7.04895 H 0.0 **** 0.053
9213 H9213 -2.96433 63.4726 9.07237 H 0.0 **** 0.053
9214 H9214 -4.16416 62.1819 9.24995 H 0.0 **** 0.053
9215 H9215 -4.61309 63.7397 8.51391 H 0.0 **** 0.053
9216 H9216 -2.4518 66.1433 7.42041 H 0.0 **** 0.41
9217 H9217 2.2031 67.3735 10.265 H 0.0 **** 0.053
9218 H9218 0.442813 67.1232 10.3606 H 0.0 **** 0.053
9219 H9219 1.0975 68.4745 9.40822 H 0.0 **** 0.053
9220 H9220 4.31029 67.8695 7.18479 H 0.0 **** 0.053
9221 H9221 4.04207 67.1507 8.79222 H 0.0 **** 0.053
9222 H9222 3.24701 68.6811 8.35661 H 0.0 **** 0.053
9223 H9223 2.42804 68.8243 2.70088 H 0.0 **** 0.41
9224 H9224 0.284768 63.6004 0.856996 H 0.0 **** 0.41
9225 H9225 7.87093 73.7034 -2.54326 H 0.0 **** 0.053
9226 H9226 7.1552 75.2557 -2.06189 H 0.0 **** 0.053
9227 H9227 6.73945 74.5266 -3.62503 H 0.0 **** 0.053
9228 H9228 6.21746 75.7474 -0.0781195 H 0.0 **** 0.053
9229 H9229 4.47259 75.9173 0.224253 H 0.0 **** 0.053
9230 H9230 5.1516 76.3039 -1.37716 H 0.0 **** 0.053
9231 C9231 30.9189 74.123 32.0843 C.ar 0.0 **** 0.0
9232 C9232 30.6235 72.8368 31.596 C.ar 0.0 **** 0.0
9233 C9233 31.6721 71.9726 31.2231 C.ar 0.0 **** 0.0
9234 C9234 32.9981 72.3903 31.357 C.ar 0.0 **** 0.0
9235 C9235 33.3031 73.6557 31.8973 C.ar 0.0 **** 0.0
9236 C9236 32.2604 74.5177 32.2822 C.ar 0.0 **** 0.0
9237 C9237 34.138 71.5074 30.9413 C.3 0.0 **** -0.106
9238 C9238 33.7862 70.2255 30.2453 C.ar 0.0 **** 0.0
9239 C9239 32.4846 69.7934 30.1229 C.ar 0.0 **** 0.0
9240 C9240 31.3438 70.6022 30.6835 C.3 0.0 **** -0.106
9241 C9241 32.1849 68.5751 29.4238 C.ar 0.0 **** 0.0
9242 C9242 33.188 67.8314 28.8106 C.ar 0.0 **** 0.0
9243 C9243 34.5574 68.2347 28.9815 C.ar 0.0 **** 0.0
9244 C9244 34.853 69.4447 29.7029 C.ar 0.0 **** 0.0
9245 C9245 36.181 69.8382 29.9278 C.ar 0.0 **** -0.1268
9246 C9246 37.2674 69.1741 29.3607 C.ar 0.0 **** 0.0
9247 C9247 36.9862 68.0556 28.4915 C.ar 0.0 **** 0.0
9248 C9248 35.6771 67.5126 28.4996 C.ar 0.0 **** 0.042
9249 C9249 38.0255 67.5945 27.6181 C.2 0.0 **** 0.0
9250 C9250 39.3365 68.0174 27.7923 C.2 0.0 **** 0.0
9251 C9251 39.6853 68.8549 28.9053 C.ar 0.0 **** 0.0
9252 C9252 38.6515 69.5099 29.6367 C.ar 0.0 **** 0.0
9253 C9253 40.2776 67.6991 26.6537 C.3 0.0 **** -0.106
9254 C9254 39.6297 68.1749 25.3379 C.ar 0.0 **** -0.053
9255 C9255 38.3178 67.3927 25.0703 C.ar 0.0 **** -0.053
9256 C9256 37.7634 66.7684 26.3801 C.3 0.0 **** -0.106
9257 C9257 39.0304 70.458 30.6569 C.ar 0.0 **** 0.042
9258 C9258 40.3925 70.6896 30.9643 C.ar 0.0 **** 0.052
9259 C9259 41.4152 69.9797 30.2932 C.ar 0.0 **** 0.052
9260 C9260 41.0667 69.0482 29.2927 C.ar 0.0 **** 0.042
9261 C9261 42.8153 70.1866 30.6092 C.2 0.0 **** 0.367
9262 C9262 43.1557 71.1706 31.6581 C.ar 0.0 **** 0.0
9263 C9263 42.142 71.8642 32.289 C.ar 0.0 **** 0.0
9264 C9264 40.7363 71.6411 31.9846 C.2 0.0 **** 0.367
9265 C9265 42.4671 72.8638 33.3605 C.3 0.0 **** -0.106
9266 C9266 43.7506 73.6149 33.0179 C.3 0.0 **** -0.106
9267 C9267 44.8651 72.6463 32.724 C.ar 0.0 **** 0.0
9268 C9268 44.5564 71.4392 32.0496 C.ar 0.0 **** 0.2405
9269 N9269 45.4916 70.5334 31.7305 N.ar 0.0 **** -0.481
9270 C9270 46.7721 70.7958 32.0133 C.ar 0.0 **** 0.2405
9271 C9271 47.1798 71.9657 32.6891 C.ar 0.0 **** 0.0
9272 C9272 46.204 72.9001 33.0644 C.ar 0.0 **** 0.0
9273 C9273 46.5912 74.1691 33.7931 C.3 0.0 **** -0.106
9274 C9274 48.0099 74.1385 34.3719 C.3 0.0 **** -0.106
9275 C9275 48.9983 73.5827 33.3479 C.3 0.0 **** -0.106
9276 C9276 48.6464 72.1339 33.0121 C.3 0.0 **** -0.053
9277 C9277 49.5151 71.5828 31.88 C.3 0.0 **** -0.106
9278 C9278 49.1357 70.1739 31.4965 C.ar 0.0 **** 0.0
9279 C9279 47.7761 69.8073 31.5778 C.ar 0.0 **** 0.0
9280 C9280 47.3824 68.5209 31.1851 C.ar 0.0 **** -0.1268
9281 C9281 48.3346 67.6174 30.7299 C.ar 0.0 **** -0.1268
9282 C9282 49.6909 67.9665 30.6328 C.ar 0.0 **** 0.0
9283 C9283 50.0936 69.2655 31.0089 C.ar 0.0 **** 0.0
9284 C9284 32.5667 75.8769 32.8753 C.3 0.0 **** -0.106
9285 C9285 32.8318 76.9369 31.7944 C.3 0.0 **** -0.159
9286 C9286 29.79 75.0842 32.391 C.3 0.0 **** -0.159
9287 C9287 34.7581 74.0408 32.0257 C.3 0.0 **** -0.159
9288 C9288 29.1857 72.3853 31.4714 C.3 0.0 **** -0.159
9289 C9289 30.7417 68.1316 29.3319 C.3 0.0 **** -0.159
9290 C9290 32.8161 66.6867 27.8946 C.3 0.0 **** -0.159
9291 O9291 35.4707 66.2187 28.0763 O.3 0.0 **** -0.452
9292 C9292 38.4487 66.2693 24.0369 C.3 0.0 **** -0.159
9293 C9293 40.6363 68.1395 24.1855 C.3 0.0 **** -0.159
9294 O9294 42.0228 68.3196 28.73 O.3 0.0 **** -0.452
9295 O9295 38.1185 71.1421 31.3429 O.3 0.0 **** -0.452
9296 O9296 39.8344 72.2836 32.6336 O.2 0.0 **** -0.419
9297 O9297 43.7051 69.5389 29.9724 O.2 0.0 **** -0.419
9298 C9298 51.5359 69.6985 30.8832 C.3 0.0 **** -0.159
9299 C9299 50.6792 66.9493 30.1188 C.3 0.0 **** -0.159
9300 H9300 34.8145 72.0833 30.286 H 0.0 **** 0.053
9301 H9301 34.7635 71.2792 31.8263 H 0.0 **** 0.053
9302 H9302 30.8537 70.0141 31.4841 H 0.0 **** 0.053
9303 H9303 30.5663 70.6969 29.9065 H 0.0 **** 0.053
9304 H9304 36.375 70.6791 30.5733 H 0.0 **** 0.1268
9305 H9305 41.2476 68.1805 26.7799 H 0.0 **** 0.053
9306 H9306 40.4697 66.6118 26.5931 H 0.0 **** 0.053
9307 H9307 39.3534 69.2293 25.5031 H 0.0 **** 0.053
9308 H9308 37.5646 68.1072 24.7024 H 0.0 **** 0.053
9309 H9309 38.2618 65.7872 26.5026 H 0.0 **** 0.053
9310 H9310 36.6981 66.5745 26.2226 H 0.0 **** 0.053
9311 H9311 41.6175 73.5441 33.4998 H 0.0 **** 0.053
9312 H9312 42.5997 72.3215 34.3156 H 0.0 **** 0.053
9313 H9313 44.0144 74.2949 33.8374 H 0.0 **** 0.053
9314 H9314 43.5753 74.2488 32.1281 H 0.0 **** 0.053
9315 H9315 46.4975 75.0177 33.0915 H 0.0 **** 0.053
9316 H9316 45.8694 74.3701 34.5998 H 0.0 **** 0.053
9317 H9317 48.0257 73.495 35.2673 H 0.0 **** 0.053
9318 H9318 48.2988 75.1495 34.6967 H 0.0 **** 0.053
9319 H9319 50.0326 73.6362 33.723 H 0.0 **** 0.053
9320 H9320 48.9543 74.1859 32.4239 H 0.0 **** 0.053
9321 H9321 48.851 71.5158 33.9096 H 0.0 **** 0.053
9322 H9322 49.4094 72.2445 30.9982 H 0.0 **** 0.053
9323 H9323 50.5692 71.6399 32.1849 H 0.0 **** 0.053
9324 H9324 46.3246 68.2618 31.2284 H 0.0 **** 0.1268
9325 H9325 48.0276 66.614 30.4267 H 0.0 **** 0.1268
9326 H9326 33.4384 75.8064 33.5424 H 0.0 **** 0.053
9327 H9327 31.7359 76.2059 33.5144 H 0.0 **** 0.053
9328 H9328 31.9654 77.0249 31.1211 H 0.0 **** 0.053
9329 H9329 33.6983 76.6524 31.179 H 0.0 **** 0.053
9330 H9330 33.0293 77.9251 32.2381 H 0.0 **** 0.053
9331 H9331 28.9108 74.8836 31.7657 H 0.0 **** 0.053
9332 H9332 30.0864 76.126 32.2124 H 0.0 **** 0.053
9333 H9333 29.4662 75.0125 33.4442 H 0.0 **** 0.053
9334 H9334 35.2486 74.0442 31.0383 H 0.0 **** 0.053
9335 H9335 35.3132 73.3109 32.6377 H 0.0 **** 0.053
9336 H9336 34.9038 75.0326 32.4658 H 0.0 **** 0.053
9337 H9337 29.0938 71.2927 31.5083 H 0.0 **** 0.053
9338 H9338 28.7375 72.7169 30.518 H 0.0 **** 0.053
9339 H9339 28.5644 72.7952 32.2791 H 0.0 **** 0.053
9340 H9340 30.6562 67.0383 29.2931 H 0.0 **** 0.053
9341 H9341 30.2479 68.5343 28.4299 H 0.0 **** 0.053
9342 H9342 30.1599 68.4756 30.1958 H 0.0 **** 0.053
9343 H9343 33.4572 66.6774 27.0052 H 0.0 **** 0.053
9344 H9344 31.777 66.7741 27.5574 H 0.0 **** 0.053
9345 H9345 32.94 65.706 28.3801 H 0.0 **** 0.053
9346 H9346 36.3332 65.7768 28.0258 H 0.0 **** 0.41
9347 H9347 38.7142 66.6531 23.0422 H 0.0 **** 0.053
9348 H9348 37.499 65.7195 23.9488 H 0.0 **** 0.053
9349 H9349 39.2247 65.5492 24.342 H 0.0 **** 0.053
9350 H9350 41.4992 68.7824 24.4147 H 0.0 **** 0.053
9351 H9351 40.1852 68.4956 23.247 H 0.0 **** 0.053
9352 H9352 41.012 67.1198 24.0136 H 0.0 **** 0.053
9353 H9353 42.9189 68.7113 29.1623 H 0.0 **** 0.41
9354 H9354 38.6822 71.7434 32.0152 H 0.0 **** 0.41
9355 H9355 51.6169 70.6672 30.3668 H 0.0 **** 0.053
9356 H9356 52.1367 68.9697 30.3273 H 0.0 **** 0.053
9357 H9357 52.0029 69.8273 31.8747 H 0.0 **** 0.053
9358 H9358 51.1647 67.291 29.1899 H 0.0 **** 0.053
9359 H9359 50.1781 65.9953 29.9059 H 0.0 **** 0.053
9360 H9360 51.4829 66.7599 30.8482 H 0.0 **** 0.053
9361 C9361 56.3696 11.2843 24.2325 C.ar 0.0 **** 0.0
9362 C9362 57.355 11.7907 25.1 C.ar 0.0 **** 0.0
9363 C9363 57.8803 13.0803 24.8847 C.ar 0.0 **** 0.0
9364 C9364 57.4078 13.8551 23.823 C.ar 0.0 **** 0.0
9365 C9365 56.3817 13.3766 22.9836 C.ar 0.0 **** 0.0
9366 C9366 55.8454 12.0947 23.2015 C.ar 0.0 **** 0.0
9367 C9367 57.9663 15.2201 23.5466 C.3 0.0 **** -0.106
9368 C9368 59.1473 15.6502 24.3663 C.ar 0.0 **** 0.0
9369 C9369 59.6115 14.9047 25.4269 C.ar 0.0 **** 0.0
9370 C9370 58.9498 13.6066 25.81 C.3 0.0 **** -0.106
9371 C9371 60.7631 15.3345 26.1698 C.ar 0.0 **** 0.0
9372 C9372 61.4671 16.4788 25.8084 C.ar 0.0 **** 0.0
9373 C9373 60.9602 17.3013 24.7436 C.ar 0.0 **** 0.0
9374 C9374 59.7921 16.8768 24.0176 C.ar 0.0 **** 0.0
9375 C9375 59.2457 17.6816 23.0063 C.ar 0.0 **** -0.1268
9376 C9376 59.8649 18.8466 22.5568 C.ar 0.0 **** 0.0
9377 C9377 61.1302 19.2032 23.1548 C.ar 0.0 **** 0.0
9378 C9378 61.5196 18.5405 24.3454 C.ar 0.0 **** 0.042
9379 C9379 61.9564 20.1604 22.4789 C.2 0.0 **** 0.0
9380 C9380 61.4472 20.9263 21.4387 C.2 0.0 **** 0.0
9381 C9381 60.0592 20.833 21.0829 C.ar 0.0 **** 0.0
9382 C9382 59.2864 19.738 21.5691 C.ar 0.0 **** 0.0
9383 C9383 62.4736 21.6801 20.6252 C.3 0.0 **** -0.106
9384 C9384 63.5798 20.6933 20.2007 C.ar 0.0 **** -0.053
9385 C9385 64.3134 20.1377 21.4487 C.ar 0.0 **** -0.053
9386 C9386 63.4415 20.2949 22.7245 C.3 0.0 **** -0.106
9387 C9387 57.9357 19.5848 21.0836 C.ar 0.0 **** 0.042
9388 C9388 57.3721 20.529 20.1924 C.ar 0.0 **** 0.052
9389 C9389 58.113 21.6586 19.7736 C.ar 0.0 **** 0.052
9390 C9390 59.4349 21.8276 20.2364 C.ar 0.0 **** 0.042
9391 C9391 57.5456 22.6487 18.8788 C.2 0.0 **** 0.367
9392 C9392 56.1604 22.4479 18.4041 C.ar 0.0 **** 0.0
9393 C9393 55.4613 21.3294 18.8129 C.ar 0.0 **** 0.0
9394 C9394 56.0251 20.3469 19.7268 C.2 0.0 **** 0.367
9395 C9395 54.0516 21.1104 18.3461 C.3 0.0 **** -0.106
9396 C9396 53.8898 21.5744 16.9013 C.3 0.0 **** -0.106
9397 C9397 54.3743 22.9913 16.7458 C.ar 0.0 **** 0.0
9398 C9398 55.5004 23.4109 17.4963 C.ar 0.0 **** 0.2405
9399 N9399 56.009 24.6474 17.4008 N.ar 0.0 **** -0.481
9400 C9400 55.4675 25.5062 16.5304 C.ar 0.0 **** 0.2405
9401 C9401 54.3404 25.1861 15.7437 C.ar 0.0 **** 0.0
9402 C9402 53.7753 23.9087 15.8669 C.ar 0.0 **** 0.0
9403 C9403 52.5646 23.5186 15.0464 C.3 0.0 **** -0.106
9404 C9404 51.8474 24.71 14.4021 C.3 0.0 **** -0.106
9405 C9405 52.8547 25.6653 13.7641 C.3 0.0 **** -0.106
9406 C9406 53.7722 26.2523 14.836 C.3 0.0 **** -0.053
9407 C9407 54.8934 27.0971 14.2281 C.3 0.0 **** -0.106
9408 C9408 55.8428 27.6313 15.2718 C.ar 0.0 **** 0.0
9409 C9409 56.1044 26.8302 16.403 C.ar 0.0 **** 0.0
9410 C9410 57.0167 27.2754 17.3691 C.ar 0.0 **** -0.1268
9411 C9411 57.6461 28.5036 17.209 C.ar 0.0 **** -0.1268
9412 C9412 57.4061 29.3107 16.0856 C.ar 0.0 **** 0.0
9413 C9413 56.5027 28.8621 15.0989 C.ar 0.0 **** 0.0
9414 C9414 54.7348 11.5664 22.3181 C.3 0.0 **** -0.106
9415 C9415 55.2706 10.9486 21.0168 C.3 0.0 **** -0.159
9416 C9416 55.8784 9.86281 24.4069 C.3 0.0 **** -0.159
9417 C9417 55.9084 14.27 21.8612 C.3 0.0 **** -0.159
9418 C9418 57.8482 10.9527 26.2581 C.3 0.0 **** -0.159
9419 C9419 61.2242 14.4922 27.3384 C.3 0.0 **** -0.159
9420 C9420 62.7981 16.7754 26.4629 C.3 0.0 **** -0.159
9421 O9421 62.4361 19.1295 25.1876 O.3 0.0 **** -0.452
9422 C9422 65.6715 20.7893 21.7284 C.3 0.0 **** -0.159
9423 C9423 64.4997 21.3184 19.1492 C.3 0.0 **** -0.159
9424 O9424 60.0937 22.9337 19.9138 O.3 0.0 **** -0.452
9425 O9425 57.1756 18.5585 21.4563 O.3 0.0 **** -0.452
9426 O9426 55.3134 19.3488 20.107 O.2 0.0 **** -0.419
9427 O9427 58.25 23.6426 18.5143 O.2 0.0 **** -0.419
9428 C9428 56.244 29.6785 13.8538 C.3 0.0 **** -0.159
9429 C9429 58.1279 30.6291 15.9571 C.3 0.0 **** -0.159
9430 H9430 58.2436 15.2826 22.4798 H 0.0 **** 0.053
9431 H9431 57.1597 15.9718 23.6512 H 0.0 **** 0.053
9432 H9432 58.5184 13.7159 26.8244 H 0.0 **** 0.053
9433 H9433 59.7314 12.8377 25.9327 H 0.0 **** 0.053
9434 H9434 58.3042 17.3989 22.5645 H 0.0 **** 0.1268
9435 H9435 62.034 22.1411 19.7405 H 0.0 **** 0.053
9436 H9436 62.923 22.4984 21.218 H 0.0 **** 0.053
9437 H9437 63.0599 19.8464 19.7234 H 0.0 **** 0.053
9438 H9438 64.4787 19.0598 21.2944 H 0.0 **** 0.053
9439 H9439 63.6394 21.3084 23.1242 H 0.0 **** 0.053
9440 H9440 63.8117 19.5765 23.4621 H 0.0 **** 0.053
9441 H9441 53.782 20.0541 18.4711 H 0.0 **** 0.053
9442 H9442 53.3731 21.6909 18.9991 H 0.0 **** 0.053
9443 H9443 52.8423 21.4713 16.5919 H 0.0 **** 0.053
9444 H9444 54.4794 20.9134 16.2381 H 0.0 **** 0.053
9445 H9445 52.8879 22.8135 14.2594 H 0.0 **** 0.053
9446 H9446 51.8547 22.9577 15.6737 H 0.0 **** 0.053
9447 H9447 51.2791 25.2555 15.1738 H 0.0 **** 0.053
9448 H9448 51.1186 24.3467 13.6618 H 0.0 **** 0.053
9449 H9449 52.3452 26.4795 13.2249 H 0.0 **** 0.053
9450 H9450 53.4687 25.1191 13.0263 H 0.0 **** 0.053
9451 H9451 53.1654 26.927 15.4731 H 0.0 **** 0.053
9452 H9452 55.455 26.4733 13.5056 H 0.0 **** 0.053
9453 H9453 54.4435 27.914 13.647 H 0.0 **** 0.053
9454 H9454 57.2283 26.6329 18.2238 H 0.0 **** 0.1268
9455 H9455 58.3548 28.8514 17.9637 H 0.0 **** 0.1268
9456 H9456 54.0304 12.3763 22.0776 H 0.0 **** 0.053
9457 H9457 54.1435 10.8173 22.8624 H 0.0 **** 0.053
9458 H9458 55.9729 10.1309 21.2398 H 0.0 **** 0.053
9459 H9459 55.818 11.7006 20.4292 H 0.0 **** 0.053
9460 H9460 54.4553 10.547 20.3952 H 0.0 **** 0.053
9461 H9461 56.6508 9.22282 24.852 H 0.0 **** 0.053
9462 H9462 55.595 9.41238 23.4467 H 0.0 **** 0.053
9463 H9463 54.9931 9.81359 25.0649 H 0.0 **** 0.053
9464 H9464 56.7365 14.4993 21.1704 H 0.0 **** 0.053
9465 H9465 55.5549 15.2414 22.2442 H 0.0 **** 0.053
9466 H9466 55.1024 13.8258 21.2682 H 0.0 **** 0.053
9467 H9467 58.2512 11.5709 27.0699 H 0.0 **** 0.053
9468 H9468 58.6518 10.2622 25.9461 H 0.0 **** 0.053
9469 H9469 57.0421 10.3384 26.6815 H 0.0 **** 0.053
9470 H9470 61.6955 15.1047 28.1174 H 0.0 **** 0.053
9471 H9471 61.9598 13.7299 27.0266 H 0.0 **** 0.053
9472 H9472 60.3869 13.9576 27.8034 H 0.0 **** 0.053
9473 H9473 63.5204 17.1425 25.7242 H 0.0 **** 0.053
9474 H9474 63.2192 15.875 26.9242 H 0.0 **** 0.053
9475 H9475 62.7184 17.5548 27.237 H 0.0 **** 0.053
9476 H9476 62.5306 20.0595 24.9272 H 0.0 **** 0.41
9477 H9477 66.3909 20.6072 20.9182 H 0.0 **** 0.053
9478 H9478 66.1 20.3923 22.6616 H 0.0 **** 0.053
9479 H9479 65.5623 21.8791 21.848 H 0.0 **** 0.053
9480 H9480 63.9189 21.6114 18.262 H 0.0 **** 0.053
9481 H9481 65.2807 20.6126 18.8282 H 0.0 **** 0.053
9482 H9482 64.9982 22.2189 19.5382 H 0.0 **** 0.053
9483 H9483 59.4206 23.4389 19.2543 H 0.0 **** 0.41
9484 H9484 56.2499 18.7129 20.9557 H 0.0 **** 0.41
9485 H9485 56.3272 29.0593 12.9476 H 0.0 **** 0.053
9486 H9486 56.9473 30.5135 13.7565 H 0.0 **** 0.053
9487 H9487 55.2246 30.1011 13.857 H 0.0 **** 0.053
9488 H9488 58.7723 30.6517 15.0629 H 0.0 **** 0.053
9489 H9489 58.7629 30.8104 16.8348 H 0.0 **** 0.053
9490 H9490 57.4226 31.4704 15.8637 H 0.0 **** 0.053
9491 C9491 76.6762 17.6791 40.1165 C.ar 0.0 **** 0.0
9492 C9492 75.9697 18.8852 39.955 C.ar 0.0 **** 0.0
9493 C9493 74.9621 19.2341 40.876 C.ar 0.0 **** 0.0
9494 C9494 74.6825 18.3902 41.9533 C.ar 0.0 **** 0.0
9495 C9495 75.4235 17.2081 42.1528 C.ar 0.0 **** 0.0
9496 C9496 76.4386 16.8612 41.2431 C.ar 0.0 **** 0.0
9497 C9497 73.5958 18.7159 42.9355 C.3 0.0 **** -0.106
9498 C9498 72.7337 19.9044 42.6262 C.ar 0.0 **** 0.0
9499 C9499 73.009 20.7545 41.5786 C.ar 0.0 **** 0.0
9500 C9500 74.198 20.5209 40.6832 C.3 0.0 **** -0.106
9501 C9501 72.1435 21.8653 41.2959 C.ar 0.0 **** 0.0
9502 C9502 70.984 22.0806 42.034 C.ar 0.0 **** 0.0
9503 C9503 70.7147 21.2402 43.169 C.ar 0.0 **** 0.0
9504 C9504 71.5985 20.1423 43.4609 C.ar 0.0 **** 0.0
9505 C9505 71.3892 19.3349 44.5893 C.ar 0.0 **** -0.1268
9506 C9506 70.2615 19.4545 45.3997 C.ar 0.0 **** 0.0
9507 C9507 69.273 20.439 45.0265 C.ar 0.0 **** 0.0
9508 C9508 69.6292 21.4149 44.0625 C.ar 0.0 **** 0.042
9509 C9509 67.9629 20.3393 45.6004 C.2 0.0 **** 0.0
9510 C9510 67.7258 19.5028 46.683 C.2 0.0 **** 0.0
9511 C9511 68.81 18.7914 47.2995 C.ar 0.0 **** 0.0
9512 C9512 70.0559 18.6879 46.6142 C.ar 0.0 **** 0.0
9513 C9513 66.2703 19.2642 47.012 C.3 0.0 **** -0.106
9514 C9514 65.5401 18.8475 45.7195 C.ar 0.0 **** -0.053
9515 C9515 65.5847 19.9983 44.6811 C.ar 0.0 **** -0.053
9516 C9516 66.7399 20.9882 44.9946 C.3 0.0 **** -0.106
9517 C9517 71.0828 17.8488 47.1841 C.ar 0.0 **** 0.042
9518 C9518 70.8805 17.191 48.421 C.ar 0.0 **** 0.052
9519 C9519 69.6739 17.3587 49.1394 C.ar 0.0 **** 0.052
9520 C9520 68.6572 18.1747 48.6003 C.ar 0.0 **** 0.042
9521 C9521 69.4563 16.7111 50.4186 C.2 0.0 **** 0.367
9522 C9522 70.5344 15.8579 50.9609 C.ar 0.0 **** 0.0
9523 C9523 71.6977 15.6952 50.2348 C.ar 0.0 **** 0.0
9524 C9524 71.9224 16.3617 48.9606 C.2 0.0 **** 0.367
9525 C9525 72.8062 14.837 50.7711 C.3 0.0 **** -0.106
9526 C9526 72.2364 13.6246 51.5021 C.3 0.0 **** -0.106
9527 C9527 71.2381 14.058 52.5423 C.ar 0.0 **** 0.0
9528 C9528 70.401 15.166 52.2611 C.ar 0.0 **** 0.2405
9529 N9529 69.4717 15.603 53.1227 N.ar 0.0 **** -0.481
9530 C9530 69.2902 14.9426 54.2713 C.ar 0.0 **** 0.2405
9531 C9531 70.0777 13.833 54.6459 C.ar 0.0 **** 0.0
9532 C9532 71.0805 13.3937 53.7698 C.ar 0.0 **** 0.0
9533 C9533 71.9527 12.2095 54.1277 C.3 0.0 **** -0.106
9534 C9534 71.8804 11.8161 55.6072 C.3 0.0 **** -0.106
9535 C9535 70.4309 11.7969 56.0899 C.3 0.0 **** -0.106
9536 C9536 69.8277 13.1978 55.9941 C.3 0.0 **** -0.053
9537 C9537 68.3337 13.2002 56.3231 C.3 0.0 **** -0.106
9538 C9538 67.7127 14.5666 56.1715 C.ar 0.0 **** 0.0
9539 C9539 68.2073 15.4113 55.1558 C.ar 0.0 **** 0.0
9540 C9540 67.6222 16.6692 54.9572 C.ar 0.0 **** -0.1268
9541 C9541 66.5694 17.0756 55.7674 C.ar 0.0 **** -0.1268
9542 C9542 66.057 16.2455 56.7771 C.ar 0.0 **** 0.0
9543 C9543 66.6281 14.9701 56.9723 C.ar 0.0 **** 0.0
9544 C9544 77.254 15.6014 41.4456 C.3 0.0 **** -0.106
9545 C9545 76.5472 14.3553 40.8891 C.3 0.0 **** -0.159
9546 C9546 77.6889 17.2597 39.072 C.3 0.0 **** -0.159
9547 C9547 75.0779 16.3464 43.3444 C.3 0.0 **** -0.159
9548 C9548 76.291 19.8023 38.7963 C.3 0.0 **** -0.159
9549 C9549 72.4976 22.7823 40.1464 C.3 0.0 **** -0.159
9550 C9550 69.9829 23.1145 41.5685 C.3 0.0 **** -0.159
9551 O9551 68.9412 22.6065 44.0089 O.3 0.0 **** -0.452
9552 C9552 64.2895 20.8102 44.5781 C.3 0.0 **** -0.159
9553 C9553 64.1352 18.3235 46.0267 C.3 0.0 **** -0.159
9554 O9554 67.5647 18.4017 49.319 O.3 0.0 **** -0.452
9555 O9555 72.2503 17.6669 46.5726 O.3 0.0 **** -0.452
9556 O9556 73.041 16.2081 48.3501 O.2 0.0 **** -0.419
9557 O9557 68.3514 16.8759 51.0258 O.2 0.0 **** -0.419
9558 C9558 66.0832 14.0271 58.0199 C.3 0.0 **** -0.159
9559 C9559 64.9036 16.7333 57.618 C.3 0.0 **** -0.159
9560 H9560 72.9419 17.8336 43.0494 H 0.0 **** 0.053
9561 H9561 74.0404 18.8429 43.9418 H 0.0 **** 0.053
9562 H9562 74.8995 21.3704 40.7989 H 0.0 **** 0.053
9563 H9563 73.8651 20.5894 39.6337 H 0.0 **** 0.053
9564 H9564 72.1323 18.5996 44.8514 H 0.0 **** 0.1268
9565 H9565 66.1452 18.4905 47.7698 H 0.0 **** 0.053
9566 H9566 65.802 20.181 47.4159 H 0.0 **** 0.053
9567 H9567 66.1218 18.0089 45.3028 H 0.0 **** 0.053
9568 H9568 65.789 19.5571 43.6928 H 0.0 **** 0.053
9569 H9569 66.3413 21.7262 45.7175 H 0.0 **** 0.053
9570 H9570 66.9657 21.528 44.07 H 0.0 **** 0.053
9571 H9571 73.4759 14.5458 49.9521 H 0.0 **** 0.053
9572 H9572 73.4085 15.443 51.4738 H 0.0 **** 0.053
9573 H9573 73.0518 13.0401 51.946 H 0.0 **** 0.053
9574 H9574 71.736 12.9609 50.7718 H 0.0 **** 0.053
9575 H9575 71.6495 11.3503 53.5026 H 0.0 **** 0.053
9576 H9576 72.9981 12.421 53.8544 H 0.0 **** 0.053
9577 H9577 72.4459 12.5477 56.2082 H 0.0 **** 0.053
9578 H9578 72.3622 10.8376 55.7537 H 0.0 **** 0.053
9579 H9579 70.3614 11.4329 57.1272 H 0.0 **** 0.053
9580 H9580 69.8393 11.1079 55.4616 H 0.0 **** 0.053
9581 H9581 70.3281 13.8376 56.7488 H 0.0 **** 0.053
9582 H9582 67.8213 12.4869 55.6484 H 0.0 **** 0.053
9583 H9583 68.1969 12.814 57.3427 H 0.0 **** 0.053
9584 H9584 67.998 17.2992 54.1509 H 0.0 **** 0.1268
9585 H9585 66.1157 18.0572 55.6141 H 0.0 **** 0.1268
9586 H9586 77.4623 15.4584 42.5162 H 0.0 **** 0.053
9587 H9587 78.2379 15.7077 40.9685 H 0.0 **** 0.053
9588 H9588 76.337 14.4793 39.8157 H 0.0 **** 0.053
9589 H9589 75.5836 14.1991 41.3965 H 0.0 **** 0.053
9590 H9590 77.1608 13.4506 41.0211 H 0.0 **** 0.053
9591 H9591 77.435 17.661 38.0827 H 0.0 **** 0.053
9592 H9592 77.7429 16.1674 38.977 H 0.0 **** 0.053
9593 H9593 78.704 17.6168 39.3196 H 0.0 **** 0.053
9594 H9594 74.0322 16.0019 43.2856 H 0.0 **** 0.053
9595 H9595 75.158 16.914 44.2861 H 0.0 **** 0.053
9596 H9596 75.7101 15.4567 43.43 H 0.0 **** 0.053
9597 H9597 76.0177 20.8433 39.0088 H 0.0 **** 0.053
9598 H9598 75.7493 19.5047 37.881 H 0.0 **** 0.053
9599 H9599 77.3627 19.7859 38.5561 H 0.0 **** 0.053
9600 H9600 72.1563 23.8092 40.3282 H 0.0 **** 0.053
9601 H9601 72.0407 22.4445 39.1995 H 0.0 **** 0.053
9602 H9602 73.5815 22.8212 39.9827 H 0.0 **** 0.053
9603 H9603 68.9581 22.743 41.6866 H 0.0 **** 0.053
9604 H9604 70.1311 23.3574 40.5103 H 0.0 **** 0.053
9605 H9605 70.0464 24.0483 42.149 H 0.0 **** 0.053
9606 H9606 68.4175 22.689 44.8218 H 0.0 **** 0.41
9607 H9607 63.4456 20.1979 44.2315 H 0.0 **** 0.053
9608 H9608 64.4182 21.6456 43.8728 H 0.0 **** 0.053
9609 H9609 64.0201 21.2378 45.5572 H 0.0 **** 0.053
9610 H9610 64.192 17.4577 46.703 H 0.0 **** 0.053
9611 H9611 63.6152 18.0069 45.1099 H 0.0 **** 0.053
9612 H9612 63.5191 19.0931 46.5153 H 0.0 **** 0.053
9613 H9613 67.7051 17.7874 50.1829 H 0.0 **** 0.41
9614 H9614 72.7952 17.0212 47.2186 H 0.0 **** 0.41
9615 H9615 65.9082 13.0246 57.6003 H 0.0 **** 0.053
9616 H9616 65.1373 14.3848 58.4425 H 0.0 **** 0.053
9617 H9617 66.7942 13.9022 58.8545 H 0.0 **** 0.053
9618 H9618 64.016 16.0903 57.4988 H 0.0 **** 0.053
9619 H9619 64.6202 17.7552 57.3319 H 0.0 **** 0.053
9620 H9620 65.1553 16.7343 58.6907 H 0.0 **** 0.053
9621 C9621 22.2805 43.772 57.3396 C.ar 0.0 **** 0.0
9622 C9622 22.7326 43.3027 56.0925 C.ar 0.0 **** 0.0
9623 C9623 21.8157 42.7393 55.1831 C.ar 0.0 **** 0.0
9624 C9624 20.4614 42.6661 55.5168 C.ar 0.0 **** 0.0
9625 C9625 19.9927 43.1845 56.7407 C.ar 0.0 **** 0.0
9626 C9626 20.9021 43.7588 57.6471 C.ar 0.0 **** 0.0
9627 C9627 19.4626 42.0451 54.5851 C.3 0.0 **** -0.106
9628 C9628 20.0035 41.3803 53.3534 C.ar 0.0 **** 0.0
9629 C9629 21.3328 41.4604 53.0034 C.ar 0.0 **** 0.0
9630 C9630 22.3139 42.2225 53.8558 C.3 0.0 **** -0.106
9631 C9631 21.819 40.7859 51.8323 C.ar 0.0 **** 0.0
9632 C9632 20.9777 39.9962 51.0549 C.ar 0.0 **** 0.0
9633 C9633 19.5757 39.9521 51.3704 C.ar 0.0 **** 0.0
9634 C9634 19.0906 40.649 52.5326 C.ar 0.0 **** 0.0
9635 C9635 17.7213 40.6646 52.8387 C.ar 0.0 **** -0.1268
9636 C9636 16.7856 39.9091 52.1341 C.ar 0.0 **** 0.0
9637 C9637 17.2746 39.0666 51.0679 C.ar 0.0 **** 0.0
9638 C9638 18.5972 39.2735 50.6028 C.ar 0.0 **** 0.042
9639 C9639 16.4217 38.0223 50.5803 C.2 0.0 **** 0.0
9640 C9640 15.0754 37.9916 50.9186 C.2 0.0 **** 0.0
9641 C9641 14.4984 39.0556 51.6912 C.ar 0.0 **** 0.0
9642 C9642 15.3564 39.9643 52.3774 C.ar 0.0 **** 0.0
9643 C9643 14.3529 36.7059 50.5893 C.3 0.0 **** -0.106
9644 C9644 15.1731 35.5276 51.152 C.ar 0.0 **** -0.053
9645 C9645 16.5583 35.4565 50.4589 C.ar 0.0 **** -0.053
9646 C9646 16.9327 36.8213 49.8187 C.3 0.0 **** -0.106
9647 C9647 14.7577 40.9349 53.2621 C.ar 0.0 **** 0.042
9648 C9648 13.3519 41.0217 53.4016 C.ar 0.0 **** 0.052
9649 C9649 12.4986 40.1727 52.659 C.ar 0.0 **** 0.052
9650 C9650 13.0631 39.217 51.7883 C.ar 0.0 **** 0.042
9651 C9651 11.0555 40.2612 52.7711 C.2 0.0 **** 0.367
9652 C9652 10.4878 41.2674 53.6929 C.ar 0.0 **** 0.0
9653 C9653 11.3398 42.0748 54.4202 C.ar 0.0 **** 0.0
9654 C9654 12.7875 41.9984 54.2917 C.2 0.0 **** 0.367
9655 C9655 10.7825 43.1063 55.3575 C.3 0.0 **** -0.106
9656 C9656 9.5257 42.5796 56.0445 C.3 0.0 **** -0.106
9657 C9657 8.53775 42.0803 55.0241 C.ar 0.0 **** 0.0
9658 C9658 9.02801 41.4319 53.8637 C.ar 0.0 **** 0.2405
9659 N9659 8.21659 40.9389 52.9174 N.ar 0.0 **** -0.481
9660 C9660 6.89311 41.0156 53.0933 C.ar 0.0 **** 0.2405
9661 C9661 6.30748 41.6482 54.2107 C.ar 0.0 **** 0.0
9662 C9662 7.14798 42.2041 55.1858 C.ar 0.0 **** 0.0
9663 C9663 6.56768 42.8949 56.4012 C.3 0.0 **** -0.106
9664 C9664 5.07898 43.2327 56.2654 C.3 0.0 **** -0.106
9665 C9665 4.30663 42.0457 55.692 C.3 0.0 **** -0.106
9666 C9666 4.80024 41.7316 54.2802 C.3 0.0 **** -0.053
9667 C9667 4.16298 40.4576 53.7225 C.3 0.0 **** -0.106
9668 C9668 4.68874 40.102 52.354 C.ar 0.0 **** 0.0
9669 C9669 6.03807 40.3943 52.0649 C.ar 0.0 **** 0.0
9670 C9670 6.57161 40.0354 50.8197 C.ar 0.0 **** -0.1268
9671 C9671 5.76537 39.4054 49.8799 C.ar 0.0 **** -0.1268
9672 C9672 4.42296 39.0976 50.1523 C.ar 0.0 **** 0.0
9673 C9673 3.88246 39.439 51.4102 C.ar 0.0 **** 0.0
9674 C9674 20.4176 44.3317 58.9624 C.3 0.0 **** -0.106
9675 C9675 20.2632 43.2521 60.0454 C.3 0.0 **** -0.159
9676 C9676 23.2811 44.2861 58.353 C.3 0.0 **** -0.159
9677 C9677 18.5144 43.084 57.0346 C.3 0.0 **** -0.159
9678 C9678 24.1977 43.4024 55.7311 C.3 0.0 **** -0.159
9679 C9679 23.2834 40.9189 51.4781 C.3 0.0 **** -0.159
9680 C9680 21.5654 39.1217 49.9697 C.3 0.0 **** -0.159
9681 O9681 18.9518 38.8536 49.3402 O.3 0.0 **** -0.452
9682 C9682 16.6683 34.3844 49.3699 C.3 0.0 **** -0.159
9683 C9683 14.3701 34.2256 51.1015 C.3 0.0 **** -0.159
9684 O9684 12.2591 38.4853 51.0268 O.3 0.0 **** -0.452
9685 O9685 15.5011 41.7797 53.9719 O.3 0.0 **** -0.452
9686 O9686 13.5297 42.8038 54.9608 O.2 0.0 **** -0.419
9687 O9687 10.3237 39.4695 52.0971 O.2 0.0 **** -0.419
9688 C9688 2.45458 39.0913 51.7624 C.3 0.0 **** -0.159
9689 C9689 3.59794 38.4005 49.0992 C.3 0.0 **** -0.159
9690 H9690 18.8652 41.3043 55.1449 H 0.0 **** 0.053
9691 H9691 18.7182 42.8091 54.287 H 0.0 **** 0.053
9692 H9692 22.7049 43.0757 53.2674 H 0.0 **** 0.053
9693 H9693 23.1989 41.5861 54.0255 H 0.0 **** 0.053
9694 H9694 17.3721 41.293 53.6416 H 0.0 **** 0.1268
9695 H9695 13.3464 36.6851 51.0077 H 0.0 **** 0.053
9696 H9696 14.2432 36.5843 49.4956 H 0.0 **** 0.053
9697 H9697 15.3509 35.7653 52.2137 H 0.0 **** 0.053
9698 H9698 17.3137 35.2369 51.2298 H 0.0 **** 0.053
9699 H9699 16.485 36.833 48.806 H 0.0 **** 0.053
9700 H9700 18.0196 36.8348 49.6938 H 0.0 **** 0.053
9701 H9701 11.5531 43.4017 56.0807 H 0.0 **** 0.053
9702 H9702 10.5324 44.0113 54.7723 H 0.0 **** 0.053
9703 H9703 9.09002 43.3636 56.6761 H 0.0 **** 0.053
9704 H9704 9.80147 41.7485 56.721 H 0.0 **** 0.053
9705 H9705 6.71886 42.2422 57.2799 H 0.0 **** 0.053
9706 H9706 7.13527 43.8142 56.6134 H 0.0 **** 0.053
9707 H9707 4.96004 44.0952 55.5884 H 0.0 **** 0.053
9708 H9708 4.67724 43.5341 57.2447 H 0.0 **** 0.053
9709 H9709 3.22402 42.2479 55.6704 H 0.0 **** 0.053
9710 H9710 4.46053 41.1586 56.3315 H 0.0 **** 0.053
9711 H9711 4.4934 42.5658 53.6174 H 0.0 **** 0.053
9712 H9712 4.36702 39.6239 54.4224 H 0.0 **** 0.053
9713 H9713 3.07196 40.5874 53.7061 H 0.0 **** 0.053
9714 H9714 7.62297 40.2438 50.6216 H 0.0 **** 0.1268
9715 H9715 6.1809 39.1285 48.9085 H 0.0 **** 0.1268
9716 H9716 19.4559 44.845 58.8155 H 0.0 **** 0.053
9717 H9717 21.1115 45.107 59.315 H 0.0 **** 0.053
9718 H9718 21.2195 42.7324 60.2097 H 0.0 **** 0.053
9719 H9719 19.5275 42.4956 59.7342 H 0.0 **** 0.053
9720 H9720 19.9337 43.685 61.0027 H 0.0 **** 0.053
9721 H9721 24.2608 43.8077 58.2282 H 0.0 **** 0.053
9722 H9722 22.9513 44.0907 59.3816 H 0.0 **** 0.053
9723 H9723 23.4344 45.3756 58.2603 H 0.0 **** 0.053
9724 H9724 18.1906 42.0301 57.0468 H 0.0 **** 0.053
9725 H9725 17.9156 43.5762 56.2506 H 0.0 **** 0.053
9726 H9726 18.2363 43.5219 57.9986 H 0.0 **** 0.053
9727 H9727 24.3521 43.4232 54.6452 H 0.0 **** 0.053
9728 H9728 24.7718 42.5448 56.1245 H 0.0 **** 0.053
9729 H9729 24.6527 44.3121 56.1456 H 0.0 **** 0.053
9730 H9730 23.4439 40.864 50.3939 H 0.0 **** 0.053
9731 H9731 23.8896 40.1215 51.9431 H 0.0 **** 0.053
9732 H9732 23.6948 41.8756 51.8224 H 0.0 **** 0.053
9733 H9733 21.0783 38.1395 49.9567 H 0.0 **** 0.053
9734 H9734 22.6374 38.9616 50.1307 H 0.0 **** 0.053
9735 H9735 21.4277 39.5527 48.9656 H 0.0 **** 0.053
9736 H9736 18.1389 38.6503 48.8508 H 0.0 **** 0.41
9737 H9737 16.543 33.3709 49.775 H 0.0 **** 0.053
9738 H9738 17.653 34.4376 48.8804 H 0.0 **** 0.053
9739 H9739 15.9009 34.5382 48.5944 H 0.0 **** 0.053
9740 H9740 13.4422 34.3285 51.6835 H 0.0 **** 0.053
9741 H9741 14.9432 33.3839 51.5189 H 0.0 **** 0.053
9742 H9742 14.0932 33.966 50.0688 H 0.0 **** 0.053
9743 H9743 11.2818 38.776 51.3485 H 0.0 **** 0.41
9744 H9744 14.7989 42.3674 54.513 H 0.0 **** 0.41
9745 H9745 2.39619 38.5959 52.7436 H 0.0 **** 0.053
9746 H9746 1.99943 38.4243 51.0212 H 0.0 **** 0.053
9747 H9747 1.82635 39.9962 51.8256 H 0.0 **** 0.053
9748 H9748 3.2479 37.4146 49.4469 H 0.0 **** 0.053
9749 H9749 4.18692 38.2458 48.1851 H 0.0 **** 0.053
9750 H9750 2.70074 38.983 48.8353 H 0.0 **** 0.053
9751 C9751 58.2472 5.52655 11.2086 C.ar 0.0 **** 0.0
9752 C9752 59.3121 6.36485 11.5868 C.ar 0.0 **** 0.0
9753 C9753 60.4032 6.54617 10.7139 C.ar 0.0 **** 0.0
9754 C9754 60.4134 5.90759 9.47177 C.ar 0.0 **** 0.0
9755 C9755 59.325 5.11099 9.06304 C.ar 0.0 **** 0.0
9756 C9756 58.2279 4.93631 9.92568 C.ar 0.0 **** 0.0
9757 C9757 61.5729 6.05436 8.53059 C.3 0.0 **** -0.106
9758 C9758 62.7745 6.79322 9.04218 C.ar 0.0 **** 0.0
9759 C9759 62.7712 7.44238 10.2565 C.ar 0.0 **** 0.0
9760 C9760 61.5486 7.43279 11.1368 C.3 0.0 **** -0.106
9761 C9761 63.9507 8.11439 10.7256 C.ar 0.0 **** 0.0
9762 C9762 65.1351 8.0835 9.9964 C.ar 0.0 **** 0.0
9763 C9763 65.1383 7.46385 8.69904 C.ar 0.0 **** 0.0
9764 C9764 63.9462 6.81173 8.22441 C.ar 0.0 **** 0.0
9765 C9765 63.9038 6.24093 6.94328 C.ar 0.0 **** -0.1268
9766 C9766 65.0282 6.14812 6.12478 C.ar 0.0 **** 0.0
9767 C9767 66.2787 6.64393 6.65015 C.ar 0.0 **** 0.0
9768 C9768 66.2437 7.45341 7.81291 C.ar 0.0 **** 0.042
9769 C9769 67.4949 6.2385 6.00814 C.2 0.0 **** 0.0
9770 C9770 67.4677 5.62194 4.76438 C.2 0.0 **** 0.0
9771 C9771 66.2251 5.46078 4.06306 C.ar 0.0 **** 0.0
9772 C9772 64.9982 5.63444 4.76833 C.ar 0.0 **** 0.0
9773 C9773 68.7676 4.98845 4.3257 C.3 0.0 **** -0.106
9774 C9774 69.2804 4.08712 5.4668 C.ar 0.0 **** -0.053
9775 C9775 69.5954 4.9377 6.72444 C.ar 0.0 **** -0.053
9776 C9776 68.8475 6.29831 6.67948 C.3 0.0 **** -0.106
9777 C9777 63.7657 5.32695 4.08306 C.ar 0.0 **** 0.042
9778 C9778 63.7697 4.91899 2.72771 C.ar 0.0 **** 0.052
9779 C9779 64.982 4.82448 2.0055 C.ar 0.0 **** 0.052
9780 C9780 66.1981 5.12073 2.65618 C.ar 0.0 **** 0.042
9781 C9781 65.005 4.42989 0.61024 C.2 0.0 **** 0.367
9782 C9782 63.7187 4.12053 -0.0486176 C.ar 0.0 **** 0.0
9783 C9783 62.5487 4.20364 0.680144 C.ar 0.0 **** 0.0
9784 C9784 62.5254 4.61901 2.07484 C.2 0.0 **** 0.367
9785 C9785 61.2319 3.8986 0.027506 C.3 0.0 **** -0.106
9786 C9786 61.3824 2.75106 -0.967238 C.3 0.0 **** -0.106
9787 C9787 62.4964 3.0386 -1.9383 C.ar 0.0 **** 0.0
9788 C9788 63.6482 3.71772 -1.46987 C.ar 0.0 **** 0.2405
9789 N9789 64.6934 3.99349 -2.26252 N.ar 0.0 **** -0.481
9790 C9790 64.6747 3.57125 -3.53129 C.ar 0.0 **** 0.2405
9791 C9791 63.5716 2.89401 -4.09363 C.ar 0.0 **** 0.0
9792 C9792 62.4559 2.63759 -3.28384 C.ar 0.0 **** 0.0
9793 C9793 61.2476 1.91643 -3.84155 C.3 0.0 **** -0.106
9794 C9794 61.2245 1.84625 -5.37235 C.3 0.0 **** -0.106
9795 C9795 62.5964 1.44904 -5.91485 C.3 0.0 **** -0.106
9796 C9796 63.6311 2.51463 -5.55516 C.3 0.0 **** -0.053
9797 C9797 65.048 2.08966 -5.9451 C.3 0.0 **** -0.106
9798 C9798 66.0865 3.10576 -5.53894 C.ar 0.0 **** 0.0
9799 C9799 65.8758 3.82985 -4.34689 C.ar 0.0 **** 0.0
9800 C9800 66.8427 4.74821 -3.91593 C.ar 0.0 **** -0.1268
9801 C9801 67.9926 4.94372 -4.67064 C.ar 0.0 **** -0.1268
9802 C9802 68.2248 4.22587 -5.85463 C.ar 0.0 **** 0.0
9803 C9803 67.2651 3.28606 -6.2865 C.ar 0.0 **** 0.0
9804 C9804 57.0434 4.09369 9.50119 C.3 0.0 **** -0.106
9805 C9805 57.2765 2.59516 9.75054 C.3 0.0 **** -0.159
9806 C9806 57.1242 5.25584 12.1874 C.3 0.0 **** -0.159
9807 C9807 59.3945 4.45833 7.70248 C.3 0.0 **** -0.159
9808 C9808 59.2849 7.06729 12.9257 C.3 0.0 **** -0.159
9809 C9809 63.8928 8.8296 12.0571 C.3 0.0 **** -0.159
9810 C9810 66.4115 8.6008 10.6216 C.3 0.0 **** -0.159
9811 O9811 67.2894 8.30753 8.08348 O.3 0.0 **** -0.452
9812 C9812 71.0843 5.23037 6.93554 C.3 0.0 **** -0.159
9813 C9813 70.4364 3.2036 4.99183 C.3 0.0 **** -0.159
9814 O9814 67.3228 5.11876 1.9514 O.3 0.0 **** -0.452
9815 O9815 62.5884 5.41813 4.6961 O.3 0.0 **** -0.452
9816 O9816 61.4037 4.72016 2.69049 O.2 0.0 **** -0.419
9817 O9817 66.1175 4.34283 0.000634943 O.2 0.0 **** -0.419
9818 C9818 67.4911 2.46169 -7.53275 C.3 0.0 **** -0.159
9819 C9819 69.4976 4.46922 -6.62689 C.3 0.0 **** -0.159
9820 H9820 61.8963 5.05054 8.20398 H 0.0 **** 0.053
9821 H9821 61.2242 6.53352 7.59495 H 0.0 **** 0.053
9822 H9822 61.1756 8.47128 11.2346 H 0.0 **** 0.053
9823 H9823 61.8564 7.16119 12.1609 H 0.0 **** 0.053
9824 H9824 62.9648 5.86877 6.5674 H 0.0 **** 0.1268
9825 H9825 68.6471 4.39757 3.41746 H 0.0 **** 0.053
9826 H9826 69.5268 5.76078 4.10198 H 0.0 **** 0.053
9827 H9827 68.4401 3.42163 5.72464 H 0.0 **** 0.053
9828 H9828 69.2281 4.38984 7.60653 H 0.0 **** 0.053
9829 H9829 69.4899 6.99766 6.10988 H 0.0 **** 0.053
9830 H9830 68.7904 6.67226 7.70618 H 0.0 **** 0.053
9831 H9831 60.4812 3.67943 0.797248 H 0.0 **** 0.053
9832 H9832 60.8868 4.80555 -0.503744 H 0.0 **** 0.053
9833 H9833 60.4309 2.58021 -1.48573 H 0.0 **** 0.053
9834 H9834 61.6115 1.81912 -0.416362 H 0.0 **** 0.053
9835 H9835 61.2282 0.893003 -3.42535 H 0.0 **** 0.053
9836 H9836 60.3263 2.40038 -3.48192 H 0.0 **** 0.053
9837 H9837 60.9533 2.83461 -5.77962 H 0.0 **** 0.053
9838 H9838 60.4469 1.13908 -5.69855 H 0.0 **** 0.053
9839 H9839 62.5684 1.31259 -7.00755 H 0.0 **** 0.053
9840 H9840 62.9056 0.485243 -5.47317 H 0.0 **** 0.053
9841 H9841 63.3949 3.42979 -6.13484 H 0.0 **** 0.053
9842 H9842 65.2732 1.12012 -5.45955 H 0.0 **** 0.053
9843 H9843 65.0755 1.90672 -7.02826 H 0.0 **** 0.053
9844 H9844 66.6777 5.2801 -2.97896 H 0.0 **** 0.1268
9845 H9845 68.7445 5.66171 -4.33585 H 0.0 **** 0.1268
9846 H9846 56.8287 4.25985 8.43527 H 0.0 **** 0.053
9847 H9847 56.1393 4.41717 10.035 H 0.0 **** 0.053
9848 H9848 57.4866 2.41033 10.8151 H 0.0 **** 0.053
9849 H9849 58.1456 2.23907 9.17764 H 0.0 **** 0.053
9850 H9850 56.3992 1.9965 9.46012 H 0.0 **** 0.053
9851 H9851 57.4707 5.329 13.2261 H 0.0 **** 0.053
9852 H9852 56.7049 4.25018 12.0535 H 0.0 **** 0.053
9853 H9853 56.2946 5.97453 12.0675 H 0.0 **** 0.053
9854 H9854 60.2624 3.78132 7.63925 H 0.0 **** 0.053
9855 H9855 59.5349 5.20707 6.90561 H 0.0 **** 0.053
9856 H9856 58.5034 3.86976 7.46137 H 0.0 **** 0.053
9857 H9857 59.8969 7.97784 12.924 H 0.0 **** 0.053
9858 H9858 59.6704 6.41846 13.7321 H 0.0 **** 0.053
9859 H9859 58.2636 7.35777 13.2063 H 0.0 **** 0.053
9860 H9860 64.5632 9.69803 12.0792 H 0.0 **** 0.053
9861 H9861 64.1841 8.16539 12.8899 H 0.0 **** 0.053
9862 H9862 62.8805 9.19128 12.2753 H 0.0 **** 0.053
9863 H9863 67.2555 7.94364 10.381 H 0.0 **** 0.053
9864 H9864 66.3243 8.64766 11.713 H 0.0 **** 0.053
9865 H9865 66.6804 9.60337 10.2536 H 0.0 **** 0.053
9866 H9866 67.8325 8.38227 7.28277 H 0.0 **** 0.41
9867 H9867 71.6646 4.31319 7.10654 H 0.0 **** 0.053
9868 H9868 71.2237 5.89029 7.8057 H 0.0 **** 0.053
9869 H9869 71.5081 5.74219 6.05667 H 0.0 **** 0.053
9870 H9870 70.1115 2.57135 4.15222 H 0.0 **** 0.053
9871 H9871 70.795 2.54429 5.79676 H 0.0 **** 0.053
9872 H9872 71.2879 3.80953 4.64768 H 0.0 **** 0.053
9873 H9873 67.0084 4.78537 0.985327 H 0.0 **** 0.41
9874 H9874 61.8766 5.14404 3.95485 H 0.0 **** 0.41
9875 H9875 67.3087 1.39322 -7.34146 H 0.0 **** 0.053
9876 H9876 68.5134 2.56549 -7.91412 H 0.0 **** 0.053
9877 H9877 66.8025 2.76158 -8.34117 H 0.0 **** 0.053
9878 H9878 70.1149 3.55777 -6.68643 H 0.0 **** 0.053
9879 H9879 70.0989 5.25264 -6.14604 H 0.0 **** 0.053
9880 H9880 69.2902 4.78258 -7.66262 H 0.0 **** 0.053
9881 C9881 36.6605 14.7521 60.6873 C.ar 0.0 **** 0.0
9882 C9882 37.8835 14.1197 60.3969 C.ar 0.0 **** 0.0
9883 C9883 38.1088 12.7992 60.8338 C.ar 0.0 **** 0.0
9884 C9884 37.1113 12.1196 61.5365 C.ar 0.0 **** 0.0
9885 C9885 35.8634 12.7267 61.7826 C.ar 0.0 **** 0.0
9886 C9886 35.6289 14.0405 61.3382 C.ar 0.0 **** 0.0
9887 C9887 37.3288 10.7239 62.0426 C.3 0.0 **** -0.106
9888 C9888 38.7074 10.1519 61.8882 C.ar 0.0 **** 0.0
9889 C9889 39.6942 10.803 61.1824 C.ar 0.0 **** 0.0
9890 C9890 39.4307 12.1367 60.5329 C.3 0.0 **** -0.106
9891 C9891 41.0106 10.2375 61.0813 C.ar 0.0 **** 0.0
9892 C9892 41.3369 9.05214 61.7324 C.ar 0.0 **** 0.0
9893 C9893 40.303 8.32843 62.4212 C.ar 0.0 **** 0.0
9894 C9894 38.9798 8.88937 62.4995 C.ar 0.0 **** 0.0
9895 C9895 37.9387 8.18439 63.1226 C.ar 0.0 **** -0.1268
9896 C9896 38.1468 6.99006 63.8104 C.ar 0.0 **** 0.0
9897 C9897 39.5006 6.49369 63.8912 C.ar 0.0 **** 0.0
9898 C9898 40.4759 7.0633 63.0351 C.ar 0.0 **** 0.042
9899 C9899 39.8025 5.49785 64.8776 C.2 0.0 **** 0.0
9900 C9900 38.784 4.82948 65.5438 C.2 0.0 **** 0.0
9901 C9901 37.4121 5.06389 65.1909 C.ar 0.0 **** 0.0
9902 C9902 37.0803 6.20073 64.397 C.ar 0.0 **** 0.0
9903 C9903 39.2155 4.02422 66.7475 C.3 0.0 **** -0.106
9904 C9904 40.0783 4.92551 67.6535 C.ar 0.0 **** -0.053
9905 C9905 41.3705 5.35491 66.9117 C.ar 0.0 **** -0.053
9906 C9906 41.2024 5.2188 65.3736 C.3 0.0 **** -0.106
9907 C9907 35.6851 6.4972 64.1759 C.ar 0.0 **** 0.042
9908 C9908 34.6722 5.64952 64.6849 C.ar 0.0 **** 0.052
9909 C9909 35.0048 4.47807 65.4041 C.ar 0.0 **** 0.052
9910 C9910 36.3624 4.16948 65.6313 C.ar 0.0 **** 0.042
9911 C9911 33.9823 3.58523 65.9143 C.2 0.0 **** 0.367
9912 C9912 32.5669 3.93181 65.6673 C.ar 0.0 **** 0.0
9913 C9913 32.2648 5.0889 64.9769 C.ar 0.0 **** 0.0
9914 C9914 33.2925 5.97358 64.4482 C.2 0.0 **** 0.367
9915 C9915 30.8337 5.45539 64.7113 C.3 0.0 **** -0.106
9916 C9916 29.9559 5.07452 65.9002 C.3 0.0 **** -0.106
9917 C9917 30.1613 3.62833 66.2646 C.ar 0.0 **** 0.0
9918 C9918 31.46 3.07493 66.1446 C.ar 0.0 **** 0.2405
9919 N9919 31.7334 1.80316 66.4684 N.ar 0.0 **** -0.481
9920 C9920 30.7584 1.03752 66.97 C.ar 0.0 **** 0.2405
9921 C9921 29.4314 1.49377 67.121 C.ar 0.0 **** 0.0
9922 C9922 29.1261 2.80997 66.7459 C.ar 0.0 **** 0.0
9923 C9923 27.7172 3.34488 66.8866 C.3 0.0 **** -0.106
9924 C9924 26.6631 2.25391 67.1045 C.3 0.0 **** -0.106
9925 C9925 27.1413 1.24183 68.1444 C.3 0.0 **** -0.106
9926 C9926 28.3944 0.525867 67.6418 C.3 0.0 **** -0.053
9927 C9927 28.9975 -0.38793 68.7102 C.3 0.0 **** -0.106
9928 C9928 30.2703 -1.05279 68.2479 C.ar 0.0 **** 0.0
9929 C9929 31.1196 -0.331299 67.3831 C.ar 0.0 **** 0.0
9930 C9930 32.3321 -0.900779 66.9713 C.ar 0.0 **** -0.1268
9931 C9931 32.6807 -2.17212 67.4099 C.ar 0.0 **** -0.1268
9932 C9932 31.8534 -2.90196 68.2781 C.ar 0.0 **** 0.0
9933 C9933 30.6393 -2.32896 68.7122 C.ar 0.0 **** 0.0
9934 C9934 34.2912 14.7068 61.5825 C.3 0.0 **** -0.106
9935 C9935 34.2004 15.3327 62.9833 C.3 0.0 **** -0.159
9936 C9936 36.4588 16.2027 60.3031 C.3 0.0 **** -0.159
9937 C9937 34.8241 11.9321 62.5379 C.3 0.0 **** -0.159
9938 C9938 38.9515 14.8559 59.6196 C.3 0.0 **** -0.159
9939 C9939 42.056 10.9804 60.2794 C.3 0.0 **** -0.159
9940 C9940 42.7811 8.60693 61.7953 C.3 0.0 **** -0.159
9941 O9941 41.6183 6.35606 62.7336 O.3 0.0 **** -0.452
9942 C9942 42.6236 4.57133 67.3154 C.3 0.0 **** -0.159
9943 C9943 40.3162 4.26879 69.0153 C.3 0.0 **** -0.159
9944 O9944 36.6717 3.02435 66.2268 O.3 0.0 **** -0.452
9945 O9945 35.3032 7.56981 63.4876 O.3 0.0 **** -0.452
9946 O9946 32.9537 7.01337 63.7764 O.2 0.0 **** -0.419
9947 O9947 34.3227 2.54964 66.5689 O.2 0.0 **** -0.419
9948 C9948 29.7366 -3.06078 69.6783 C.3 0.0 **** -0.159
9949 C9949 32.2888 -4.27281 68.7329 C.3 0.0 **** -0.159
9950 H9950 37.0554 10.6855 63.1116 H 0.0 **** 0.053
9951 H9951 36.5986 10.044 61.5618 H 0.0 **** 0.053
9952 H9952 39.5273 12.0204 59.4355 H 0.0 **** 0.053
9953 H9953 40.2494 12.8254 60.8023 H 0.0 **** 0.053
9954 H9954 36.9346 8.57078 63.0598 H 0.0 **** 0.1268
9955 H9955 38.3629 3.64574 67.3117 H 0.0 **** 0.053
9956 H9956 39.8079 3.14238 66.4402 H 0.0 **** 0.053
9957 H9957 39.4823 5.83687 67.8256 H 0.0 **** 0.053
9958 H9958 41.5502 6.41948 67.1297 H 0.0 **** 0.053
9959 H9959 41.4634 4.17426 65.1146 H 0.0 **** 0.053
9960 H9960 41.9503 5.86626 64.906 H 0.0 **** 0.053
9961 H9961 30.7649 6.52486 64.4756 H 0.0 **** 0.053
9962 H9962 30.4944 4.90911 63.8112 H 0.0 **** 0.053
9963 H9963 28.9044 5.2858 65.6697 H 0.0 **** 0.053
9964 H9964 30.2209 5.70934 66.7669 H 0.0 **** 0.053
9965 H9965 27.6951 4.05324 67.7344 H 0.0 **** 0.053
9966 H9966 27.4536 3.93822 65.9974 H 0.0 **** 0.053
9967 H9967 26.4801 1.72706 66.1531 H 0.0 **** 0.053
9968 H9968 25.7103 2.71497 67.4058 H 0.0 **** 0.053
9969 H9969 26.3568 0.502426 68.3707 H 0.0 **** 0.053
9970 H9970 27.3803 1.76359 69.0879 H 0.0 **** 0.053
9971 H9971 28.1005 -0.11979 66.7897 H 0.0 **** 0.053
9972 H9972 29.2059 0.215096 69.6154 H 0.0 **** 0.053
9973 H9973 28.2447 -1.13341 69.0019 H 0.0 **** 0.053
9974 H9974 32.9897 -0.319846 66.3247 H 0.0 **** 0.1268
9975 H9975 33.6244 -2.61667 67.0863 H 0.0 **** 0.1268
9976 H9976 33.4797 13.9756 61.4534 H 0.0 **** 0.053
9977 H9977 34.1106 15.4804 60.8237 H 0.0 **** 0.053
9978 H9978 35.0026 16.0726 63.1269 H 0.0 **** 0.053
9979 H9979 34.3217 14.562 63.7591 H 0.0 **** 0.053
9980 H9980 33.2326 15.8343 63.1392 H 0.0 **** 0.053
9981 H9981 37.4102 16.7493 60.2848 H 0.0 **** 0.053
9982 H9982 35.7987 16.7204 61.0112 H 0.0 **** 0.053
9983 H9983 36.005 16.3014 59.3013 H 0.0 **** 0.053
9984 H9984 35.1941 11.6609 63.5405 H 0.0 **** 0.053
9985 H9985 34.6001 10.9799 62.0293 H 0.0 **** 0.053
9986 H9986 33.8825 12.4738 62.6732 H 0.0 **** 0.053
9987 H9987 39.6282 14.1672 59.0986 H 0.0 **** 0.053
9988 H9988 39.5739 15.4845 60.2809 H 0.0 **** 0.053
9989 H9989 38.5121 15.5203 58.8634 H 0.0 **** 0.053
9990 H9990 42.7772 10.2928 59.8198 H 0.0 **** 0.053
9991 H9991 42.6264 11.6867 60.9081 H 0.0 **** 0.053
9992 H9992 41.6011 11.5665 59.4715 H 0.0 **** 0.053
9993 H9993 43.0219 8.21045 62.7887 H 0.0 **** 0.053
9994 H9994 43.4599 9.4436 61.5951 H 0.0 **** 0.053
9995 H9995 43.0021 7.80334 61.0754 H 0.0 **** 0.053
9996 H9996 41.4825 5.43421 63.0046 H 0.0 **** 0.41
9997 H9997 42.8832 4.72467 68.3719 H 0.0 **** 0.053
9998 H9998 43.4832 4.88487 66.7031 H 0.0 **** 0.053
9999 H9999 42.4751 3.49145 67.1548 H 0.0 **** 0.053
10000 H10000 39.3562 4.07041 69.5146 H 0.0 **** 0.053
10001 H10001 40.9161 4.91524 69.6737 H 0.0 **** 0.053
10002 H10002 40.8459 3.31016 68.9102 H 0.0 **** 0.053
10003 H10003 35.7182 2.61275 66.4813 H 0.0 **** 0.41
10004 H10004 34.2407 7.52263 63.4826 H 0.0 **** 0.41
10005 H10005 29.4394 -2.4107 70.5154 H 0.0 **** 0.053
10006 H10006 30.2197 -3.95044 70.0984 H 0.0 **** 0.053
10007 H10007 28.8056 -3.38931 69.1855 H 0.0 **** 0.053
10008 H10008 32.4223 -4.3125 69.8265 H 0.0 **** 0.053
10009 H10009 33.2437 -4.55071 68.2665 H 0.0 **** 0.053
10010 H10010 31.5435 -5.0419 68.4741 H 0.0 **** 0.053
10011 C10011 13.0771 16.0633 33.1999 C.ar 0.0 **** 0.0
10012 C10012 12.2826 15.0001 32.7327 C.ar 0.0 **** 0.0
10013 C10013 12.3235 13.7549 33.3907 C.ar 0.0 **** 0.0
10014 C10014 13.1383 13.588 34.5128 C.ar 0.0 **** 0.0
10015 C10015 13.8944 14.6639 35.0197 C.ar 0.0 **** 0.0
10016 C10016 13.8479 15.9125 34.3736 C.ar 0.0 **** 0.0
10017 C10017 13.2291 12.2673 35.2193 C.3 0.0 **** -0.106
10018 C10018 12.524 11.1058 34.5827 C.ar 0.0 **** 0.0
10019 C10019 11.7035 11.2597 33.4877 C.ar 0.0 **** 0.0
10020 C10020 11.4813 12.616 32.8705 C.3 0.0 **** -0.106
10021 C10021 11.0687 10.1194 32.888 C.ar 0.0 **** 0.0
10022 C10022 11.3051 8.83246 33.3605 C.ar 0.0 **** 0.0
10023 C10023 12.1089 8.66025 34.5401 C.ar 0.0 **** 0.0
10024 C10024 12.7239 9.80971 35.1502 C.ar 0.0 **** 0.0
10025 C10025 13.4733 9.67971 36.3293 C.ar 0.0 **** -0.1268
10026 C10026 13.7791 8.4418 36.8922 C.ar 0.0 **** 0.0
10027 C10027 13.3154 7.26157 36.201 C.ar 0.0 **** 0.0
10028 C10028 12.342 7.41955 35.1832 C.ar 0.0 **** 0.042
10029 C10029 13.9106 6.00032 36.5337 C.2 0.0 **** 0.0
10030 C10030 14.7009 5.8673 37.6676 C.2 0.0 **** 0.0
10031 C10031 14.8615 6.9711 38.5719 C.ar 0.0 **** 0.0
10032 C10032 14.4845 8.27962 38.1496 C.ar 0.0 **** 0.0
10033 C10033 15.4975 4.58627 37.7566 C.3 0.0 **** -0.106
10034 C10034 16.2583 4.3919 36.4296 C.ar 0.0 **** -0.053
10035 C10035 15.2591 4.22072 35.2563 C.ar 0.0 **** -0.053
10036 C10036 13.8633 4.79467 35.6238 C.3 0.0 **** -0.106
10037 C10037 14.7878 9.39252 39.0172 C.ar 0.0 **** 0.042
10038 C10038 15.3917 9.18585 40.2806 C.ar 0.0 **** 0.052
10039 C10039 15.692 7.87979 40.7325 C.ar 0.0 **** 0.052
10040 C10040 15.4036 6.77788 39.9002 C.ar 0.0 **** 0.042
10041 C10041 16.2902 7.64578 42.0326 C.2 0.0 **** 0.367
10042 C10042 16.587 8.81623 42.8849 C.ar 0.0 **** 0.0
10043 C10043 16.3004 10.0834 42.4168 C.ar 0.0 **** 0.0
10044 C10044 15.6818 10.3153 41.12 C.2 0.0 **** 0.367
10045 C10045 16.5895 11.2843 43.2696 C.3 0.0 **** -0.106
10046 C10046 17.8806 11.081 44.0574 C.3 0.0 **** -0.106
10047 C10047 17.8334 9.78394 44.8203 C.ar 0.0 **** 0.0
10048 C10048 17.1895 8.6698 44.2276 C.ar 0.0 **** 0.2405
10049 N10049 17.1217 7.47366 44.8289 N.ar 0.0 **** -0.481
10050 C10050 17.7248 7.30659 46.0108 C.ar 0.0 **** 0.2405
10051 C10051 18.3849 8.35581 46.6854 C.ar 0.0 **** 0.0
10052 C10052 18.4253 9.62176 46.0837 C.ar 0.0 **** 0.0
10053 C10053 19.1193 10.7794 46.7687 C.3 0.0 **** -0.106
10054 C10054 19.4141 10.5303 48.2519 C.3 0.0 **** -0.106
10055 C10055 19.9993 9.13414 48.4585 C.3 0.0 **** -0.106
10056 C10056 18.981 8.07233 48.0448 C.3 0.0 **** -0.053
10057 C10057 19.5745 6.66312 48.0906 C.3 0.0 **** -0.106
10058 C10058 18.5983 5.61155 47.6246 C.ar 0.0 **** 0.0
10059 C10059 17.6902 5.95587 46.6016 C.ar 0.0 **** 0.0
10060 C10060 16.8008 4.98942 46.1128 C.ar 0.0 **** -0.1268
10061 C10061 16.8151 3.70671 46.6463 C.ar 0.0 **** -0.1268
10062 C10062 17.7176 3.34221 47.658 C.ar 0.0 **** 0.0
10063 C10063 18.6289 4.30384 48.1435 C.ar 0.0 **** 0.0
10064 C10064 14.6438 17.0844 34.9087 C.3 0.0 **** -0.106
10065 C10065 16.1026 17.0658 34.4255 C.3 0.0 **** -0.159
10066 C10066 13.1058 17.3687 32.4334 C.3 0.0 **** -0.159
10067 C10067 14.7456 14.4191 36.2434 C.3 0.0 **** -0.159
10068 C10068 11.389 15.1943 31.5282 C.3 0.0 **** -0.159
10069 C10069 10.1612 10.3408 31.6984 C.3 0.0 **** -0.159
10070 C10070 10.8076 7.64279 32.5699 C.3 0.0 **** -0.159
10071 O10071 11.5462 6.35389 34.8264 O.3 0.0 **** -0.452
10072 C10072 15.062 2.77239 34.7973 C.3 0.0 **** -0.159
10073 C10073 17.2948 3.27217 36.5495 C.3 0.0 **** -0.159
10074 O10074 15.603 5.55053 40.3644 O.3 0.0 **** -0.452
10075 O10075 14.5098 10.6448 38.6641 O.3 0.0 **** -0.452
10076 O10076 15.3982 11.5126 40.7547 O.2 0.0 **** -0.419
10077 O10077 16.5583 6.45706 42.3957 O.2 0.0 **** -0.419
10078 C10078 19.6452 3.94558 49.2031 C.3 0.0 **** -0.159
10079 C10079 17.6975 1.93104 48.1907 C.3 0.0 **** -0.159
10080 H10080 14.2935 12.0013 35.3426 H 0.0 **** 0.053
10081 H10081 12.8673 12.3849 36.2594 H 0.0 **** 0.053
10082 H10082 10.4127 12.8849 32.9838 H 0.0 **** 0.053
10083 H10083 11.6221 12.5319 31.7795 H 0.0 **** 0.053
10084 H10084 13.8186 10.5693 36.8302 H 0.0 **** 0.1268
10085 H10085 16.2048 4.60286 38.586 H 0.0 **** 0.053
10086 H10086 14.8322 3.71924 37.9257 H 0.0 **** 0.053
10087 H10087 16.8065 5.33267 36.2571 H 0.0 **** 0.053
10088 H10088 15.6376 4.8004 34.3997 H 0.0 **** 0.053
10089 H10089 13.3118 3.98659 36.1426 H 0.0 **** 0.053
10090 H10090 13.3375 4.99698 34.6859 H 0.0 **** 0.053
10091 H10091 16.6292 12.1822 42.6401 H 0.0 **** 0.053
10092 H10092 15.7463 11.4254 43.9717 H 0.0 **** 0.053
10093 H10093 18.0477 11.9348 44.7257 H 0.0 **** 0.053
10094 H10094 18.736 11.0595 43.3558 H 0.0 **** 0.053
10095 H10095 20.0644 10.9861 46.2348 H 0.0 **** 0.053
10096 H10096 18.513 11.6923 46.6629 H 0.0 **** 0.053
10097 H10097 18.4784 10.613 48.8296 H 0.0 **** 0.053
10098 H10098 20.0954 11.3078 48.6293 H 0.0 **** 0.053
10099 H10099 20.2939 8.97705 49.5082 H 0.0 **** 0.053
10100 H10100 20.9088 9.01792 47.8431 H 0.0 **** 0.053
10101 H10101 18.1458 8.09748 48.7737 H 0.0 **** 0.053
10102 H10102 20.4763 6.63757 47.4483 H 0.0 **** 0.053
10103 H10103 19.918 6.45864 49.1141 H 0.0 **** 0.053
10104 H10104 16.1238 5.26348 45.3037 H 0.0 **** 0.1268
10105 H10105 16.1197 2.9547 46.267 H 0.0 **** 0.1268
10106 H10106 14.6208 17.0816 36.0084 H 0.0 **** 0.053
10107 H10107 14.1712 18.0299 34.6093 H 0.0 **** 0.053
10108 H10108 16.1438 17.075 33.3256 H 0.0 **** 0.053
10109 H10109 16.6103 16.1509 34.7655 H 0.0 **** 0.053
10110 H10110 16.6635 17.9355 34.8018 H 0.0 **** 0.053
10111 H10111 12.9079 17.2117 31.3655 H 0.0 **** 0.053
10112 H10112 14.0822 17.8638 32.5148 H 0.0 **** 0.053
10113 H10113 12.3471 18.0789 32.8063 H 0.0 **** 0.053
10114 H10114 15.4936 13.6334 36.0465 H 0.0 **** 0.053
10115 H10115 14.1377 14.0546 37.0878 H 0.0 **** 0.053
10116 H10116 15.288 15.3101 36.5758 H 0.0 **** 0.053
10117 H10117 10.5424 14.4966 31.5284 H 0.0 **** 0.053
10118 H10118 11.9403 15.0357 30.5843 H 0.0 **** 0.053
10119 H10119 10.9769 16.2117 31.4935 H 0.0 **** 0.053
10120 H10120 9.35734 9.59492 31.6585 H 0.0 **** 0.053
10121 H10121 10.7159 10.2807 30.7454 H 0.0 **** 0.053
10122 H10122 9.68892 11.3303 31.7319 H 0.0 **** 0.053
10123 H10123 11.5605 6.84598 32.5527 H 0.0 **** 0.053
10124 H10124 10.592 7.92204 31.5324 H 0.0 **** 0.053
10125 H10125 9.89647 7.20335 33.0054 H 0.0 **** 0.053
10126 H10126 11.6364 5.66894 35.5079 H 0.0 **** 0.41
10127 H10127 15.9882 2.33679 34.3979 H 0.0 **** 0.053
10128 H10128 14.2938 2.72288 34.0102 H 0.0 **** 0.053
10129 H10129 14.7232 2.142 35.6351 H 0.0 **** 0.053
10130 H10130 18.0159 3.5055 37.3469 H 0.0 **** 0.053
10131 H10131 17.8544 3.14066 35.6111 H 0.0 **** 0.053
10132 H10132 16.819 2.3112 36.796 H 0.0 **** 0.053
10133 H10133 16.0492 5.71781 41.3216 H 0.0 **** 0.41
10134 H10134 14.8315 11.235 39.4884 H 0.0 **** 0.41
10135 H10135 20.6546 4.27543 48.9138 H 0.0 **** 0.053
10136 H10136 19.6838 2.86576 49.3868 H 0.0 **** 0.053
10137 H10137 19.4131 4.43812 50.1629 H 0.0 **** 0.053
10138 H10138 18.6554 1.41657 48.0089 H 0.0 **** 0.053
10139 H10139 16.9035 1.34567 47.7075 H 0.0 **** 0.053
10140 H10140 17.5256 1.91047 49.2788 H 0.0 **** 0.053
10141 C10141 14.1268 43.7529 68.3453 C.ar 0.0 **** 0.0
10142 C10142 13.7057 43.2785 67.0894 C.ar 0.0 **** 0.0
10143 C10143 12.3327 43.2595 66.7736 C.ar 0.0 **** 0.0
10144 C10144 11.3994 43.7278 67.7012 C.ar 0.0 **** 0.0
10145 C10145 11.8177 44.256 68.9391 C.ar 0.0 **** 0.0
10146 C10146 13.1881 44.2883 69.2545 C.ar 0.0 **** 0.0
10147 C10147 9.92783 43.694 67.4098 C.3 0.0 **** -0.106
10148 C10148 9.50046 43.0044 66.1475 C.ar 0.0 **** 0.0
10149 C10149 10.4097 42.5546 65.2164 C.ar 0.0 **** 0.0
10150 C10150 11.8903 42.7317 65.4309 C.3 0.0 **** -0.106
10151 C10151 9.96329 41.8728 64.0337 C.ar 0.0 **** 0.0
10152 C10152 8.61465 41.6035 63.8236 C.ar 0.0 **** 0.0
10153 C10153 7.64801 42.1202 64.754 C.ar 0.0 **** 0.0
10154 C10154 8.1005 42.8228 65.9259 C.ar 0.0 **** 0.0
10155 C10155 7.18029 43.3805 66.8265 C.ar 0.0 **** -0.1268
10156 C10156 5.80593 43.1739 66.7204 C.ar 0.0 **** 0.0
10157 C10157 5.33925 42.3279 65.647 C.ar 0.0 **** 0.0
10158 C10158 6.24369 42.0078 64.6039 C.ar 0.0 **** 0.042
10159 C10159 4.00756 41.8023 65.7247 C.2 0.0 **** 0.0
10160 C10160 3.10061 42.305 66.6481 C.2 0.0 **** 0.0
10161 C10161 3.45679 43.42 67.4798 C.ar 0.0 **** 0.0
10162 C10162 4.82677 43.7994 67.5892 C.ar 0.0 **** 0.0
10163 C10163 1.8416 41.4896 66.831 C.3 0.0 **** -0.106
10164 C10164 2.24289 40.0208 67.0744 C.ar 0.0 **** -0.053
10165 C10165 2.97346 39.4494 65.8318 C.ar 0.0 **** -0.053
10166 C10166 3.54702 40.5906 64.9479 C.3 0.0 **** -0.106
10167 C10167 5.17837 44.827 68.5398 C.ar 0.0 **** 0.042
10168 C10168 4.18287 45.4828 69.3029 C.ar 0.0 **** 0.052
10169 C10169 2.81581 45.1614 69.1353 C.ar 0.0 **** 0.052
10170 C10170 2.4503 44.16 68.2113 C.ar 0.0 **** 0.042
10171 C10171 1.77936 45.8373 69.8915 C.2 0.0 **** 0.367
10172 C10172 2.1872 46.8798 70.8565 C.ar 0.0 **** 0.0
10173 C10173 3.52869 47.166 71.0157 C.ar 0.0 **** 0.0
10174 C10174 4.56625 46.5007 70.2417 C.2 0.0 **** 0.367
10175 C10175 3.96252 48.2251 71.9869 C.3 0.0 **** -0.106
10176 C10176 3.07657 48.205 73.2293 C.3 0.0 **** -0.106
10177 C10177 1.62407 48.2859 72.8418 C.ar 0.0 **** 0.0
10178 C10178 1.19695 47.6247 71.6638 C.ar 0.0 **** 0.2405
10179 N10179 -0.0810251 47.6286 71.2592 N.ar 0.0 **** -0.481
10180 C10180 -0.99973 48.2364 72.0174 C.ar 0.0 **** 0.2405
10181 C10181 -0.673494 48.9285 73.2033 C.ar 0.0 **** 0.0
10182 C10182 0.667024 48.9657 73.6131 C.ar 0.0 **** 0.0
10183 C10183 1.06724 49.6971 74.8764 C.3 0.0 **** -0.106
10184 C10184 -0.0137678 50.6442 75.4085 C.3 0.0 **** -0.106
10185 C10185 -1.38256 49.9657 75.389 C.3 0.0 **** -0.106
10186 C10186 -1.78181 49.6317 73.9521 C.3 0.0 **** -0.053
10187 C10187 -3.07475 48.8162 73.8934 C.3 0.0 **** -0.106
10188 C10188 -3.44648 48.4265 72.4842 C.ar 0.0 **** 0.0
10189 C10189 -2.40384 48.1524 71.5745 C.ar 0.0 **** 0.0
10190 C10190 -2.71399 47.7428 70.2707 C.ar 0.0 **** -0.1268
10191 C10191 -4.04283 47.6205 69.8842 C.ar 0.0 **** -0.1268
10192 C10192 -5.09429 47.8796 70.7777 C.ar 0.0 **** 0.0
10193 C10193 -4.79112 48.2751 72.0977 C.ar 0.0 **** 0.0
10194 C10194 13.6593 44.862 70.5743 C.3 0.0 **** -0.106
10195 C10195 13.5822 43.8354 71.7154 C.3 0.0 **** -0.159
10196 C10196 15.5922 43.6807 68.7193 C.3 0.0 **** -0.159
10197 C10197 10.7577 44.7566 69.8918 C.3 0.0 **** -0.159
10198 C10198 14.7238 42.7903 66.0834 C.3 0.0 **** -0.159
10199 C10199 10.9983 41.414 63.0307 C.3 0.0 **** -0.159
10200 C10200 8.20251 40.6893 62.6912 C.3 0.0 **** -0.159
10201 O10201 5.76014 41.6207 63.3741 O.3 0.0 **** -0.452
10202 C10202 2.10361 38.5594 64.9382 C.3 0.0 **** -0.159
10203 C10203 1.04293 39.1937 67.5418 C.3 0.0 **** -0.159
10204 O10204 1.16253 43.9255 67.9916 O.3 0.0 **** -0.452
10205 O10205 6.44285 45.1947 68.7297 O.3 0.0 **** -0.452
10206 O10206 5.79438 46.838 70.4007 O.2 0.0 **** -0.419
10207 O10207 0.562823 45.5086 69.722 O.2 0.0 **** -0.419
10208 C10208 -5.88935 48.5254 73.1052 C.3 0.0 **** -0.159
10209 C10209 -6.5184 47.7175 70.3073 C.3 0.0 **** -0.159
10210 H10210 9.40712 43.2172 68.2586 H 0.0 **** 0.053
10211 H10211 9.53267 44.7286 67.409 H 0.0 **** 0.053
10212 H10212 12.2844 43.3999 64.6401 H 0.0 **** 0.053
10213 H10213 12.3899 41.7668 65.2399 H 0.0 **** 0.053
10214 H10214 7.54399 44.004 67.6268 H 0.0 **** 0.1268
10215 H10215 1.24086 41.849 67.6667 H 0.0 **** 0.053
10216 H10216 1.19996 41.548 65.9322 H 0.0 **** 0.053
10217 H10217 2.97201 40.0417 67.901 H 0.0 **** 0.053
10218 H10218 3.82555 38.8474 66.1849 H 0.0 **** 0.053
10219 H10219 2.7354 40.9027 64.2622 H 0.0 **** 0.053
10220 H10220 4.34286 40.1581 64.3341 H 0.0 **** 0.053
10221 H10221 5.02215 48.0854 72.2354 H 0.0 **** 0.053
10222 H10222 3.87994 49.21 71.4898 H 0.0 **** 0.053
10223 H10223 3.35961 49.0241 73.902 H 0.0 **** 0.053
10224 H10224 3.25255 47.2657 73.7871 H 0.0 **** 0.053
10225 H10225 1.31472 48.9483 75.6505 H 0.0 **** 0.053
10226 H10226 1.99645 50.2612 74.7016 H 0.0 **** 0.053
10227 H10227 -0.0543655 51.5457 74.7745 H 0.0 **** 0.053
10228 H10228 0.252133 50.9761 76.4236 H 0.0 **** 0.053
10229 H10229 -2.15147 50.6068 75.8485 H 0.0 **** 0.053
10230 H10230 -1.3424 49.0315 75.9765 H 0.0 **** 0.053
10231 H10231 -1.97433 50.5855 73.4205 H 0.0 **** 0.053
10232 H10232 -2.94506 47.9022 74.5051 H 0.0 **** 0.053
10233 H10233 -3.87841 49.3952 74.3692 H 0.0 **** 0.053
10234 H10234 -1.89722 47.5088 69.5879 H 0.0 **** 0.1268
10235 H10235 -4.284 47.304 68.867 H 0.0 **** 0.1268
10236 H10236 13.0583 45.746 70.834 H 0.0 **** 0.053
10237 H10237 14.6909 45.2278 70.4802 H 0.0 **** 0.053
10238 H10238 14.1842 42.946 71.4742 H 0.0 **** 0.053
10239 H10239 12.545 43.4996 71.8633 H 0.0 **** 0.053
10240 H10240 13.9499 44.2576 72.6636 H 0.0 **** 0.053
10241 H10241 16.0966 42.8507 68.2083 H 0.0 **** 0.053
10242 H10242 15.7271 43.5296 69.7983 H 0.0 **** 0.053
10243 H10243 16.1296 44.6066 68.4492 H 0.0 **** 0.053
10244 H10244 10.0654 43.9435 70.1661 H 0.0 **** 0.053
10245 H10245 10.1371 45.5393 69.4254 H 0.0 **** 0.053
10246 H10246 11.1708 45.1608 70.8216 H 0.0 **** 0.053
10247 H10247 14.352 42.8645 65.054 H 0.0 **** 0.053
10248 H10248 14.9906 41.7326 66.2569 H 0.0 **** 0.053
10249 H10249 15.6545 43.3707 66.1397 H 0.0 **** 0.053
10250 H10250 10.6 41.4174 62.0082 H 0.0 **** 0.053
10251 H10251 11.3486 40.389 63.246 H 0.0 **** 0.053
10252 H10252 11.8825 42.063 63.0403 H 0.0 **** 0.053
10253 H10253 7.40143 40.0125 63.011 H 0.0 **** 0.053
10254 H10254 9.04534 40.0751 62.3547 H 0.0 **** 0.053
10255 H10255 7.81406 41.2468 61.8245 H 0.0 **** 0.053
10256 H10256 4.81432 41.8351 63.3409 H 0.0 **** 0.41
10257 H10257 1.76432 37.6552 65.4622 H 0.0 **** 0.053
10258 H10258 2.66827 38.2462 64.0465 H 0.0 **** 0.053
10259 H10259 1.21217 39.1077 64.5937 H 0.0 **** 0.053
10260 H10260 0.631185 39.613 68.4717 H 0.0 **** 0.053
10261 H10261 1.3267 38.1481 67.7352 H 0.0 **** 0.053
10262 H10262 0.240704 39.1916 66.7888 H 0.0 **** 0.053
10263 H10263 0.671571 44.5636 68.6951 H 0.0 **** 0.41
10264 H10264 6.39328 45.9596 69.4671 H 0.0 **** 0.41
10265 H10265 -5.69148 47.9953 74.0493 H 0.0 **** 0.053
10266 H10266 -6.86828 48.1997 72.7353 H 0.0 **** 0.053
10267 H10267 -5.96763 49.5977 73.3536 H 0.0 **** 0.053
10268 H10268 -7.04773 46.9394 70.8816 H 0.0 **** 0.053
10269 H10269 -6.54623 47.4314 69.2472 H 0.0 **** 0.053
10270 H10270 -7.09377 48.6495 70.4268 H 0.0 **** 0.053
10271 C10271 25.2826 63.9998 41.3503 C.ar 0.0 **** 0.0
10272 C10272 26.6601 63.8693 41.0945 C.ar 0.0 **** 0.0
10273 C10273 27.1308 62.7754 40.3415 C.ar 0.0 **** 0.0
10274 C10274 26.2267 61.8371 39.8384 C.ar 0.0 **** 0.0
10275 C10275 24.8409 61.9913 40.0433 C.ar 0.0 **** 0.0
10276 C10276 24.3647 63.088 40.7841 C.ar 0.0 **** 0.0
10277 C10277 26.6962 60.6442 39.0586 C.3 0.0 **** -0.106
10278 C10278 28.1787 60.4297 38.971 C.ar 0.0 **** 0.0
10279 C10279 29.0806 61.3552 39.4463 C.ar 0.0 **** 0.0
10280 C10280 28.6118 62.635 40.0884 C.3 0.0 **** -0.106
10281 C10281 30.4922 61.101 39.3711 C.ar 0.0 **** 0.0
10282 C10282 30.9816 59.8998 38.8681 C.ar 0.0 **** 0.0
10283 C10283 30.0573 58.9498 38.311 C.ar 0.0 **** 0.0
10284 C10284 28.6449 59.2206 38.3688 C.ar 0.0 **** 0.0
10285 C10285 27.7218 58.336 37.7906 C.ar 0.0 **** -0.1268
10286 C10286 28.0946 57.1017 37.261 C.ar 0.0 **** 0.0
10287 C10287 29.4882 56.7326 37.3461 C.ar 0.0 **** 0.0
10288 C10288 30.4296 57.7393 37.6759 C.ar 0.0 **** 0.042
10289 C10289 29.84 55.3555 37.1578 C.2 0.0 **** 0.0
10290 C10290 28.9204 54.4543 36.6382 C.2 0.0 **** 0.0
10291 C10291 27.6306 54.9078 36.1994 C.ar 0.0 **** 0.0
10292 C10292 27.1763 56.2019 36.5888 C.ar 0.0 **** 0.0
10293 C10293 29.303 52.997 36.7548 C.3 0.0 **** -0.106
10294 C10294 29.7086 52.7147 38.2154 C.ar 0.0 **** -0.053
10295 C10295 30.964 53.542 38.5949 C.ar 0.0 **** -0.053
10296 C10296 31.1399 54.7572 37.6435 C.3 0.0 **** -0.106
10297 C10297 25.8228 56.5797 36.2594 C.ar 0.0 **** 0.042
10298 C10298 24.9856 55.7117 35.5184 C.ar 0.0 **** 0.052
10299 C10299 25.4641 54.461 35.0634 C.ar 0.0 **** 0.052
10300 C10300 26.7841 54.0723 35.3741 C.ar 0.0 **** 0.042
10301 C10301 24.6292 53.5673 34.284 C.2 0.0 **** 0.367
10302 C10302 23.2487 53.9947 33.9746 C.ar 0.0 **** 0.0
10303 C10303 22.7971 55.2128 34.4428 C.ar 0.0 **** 0.0
10304 C10304 23.6426 56.1173 35.208 C.2 0.0 **** 0.367
10305 C10305 21.4001 55.667 34.1347 C.3 0.0 **** -0.106
10306 C10306 20.437 54.4833 34.1572 C.3 0.0 **** -0.106
10307 C10307 20.9357 53.3815 33.2607 C.ar 0.0 **** 0.0
10308 C10308 22.3311 53.1502 33.1796 C.ar 0.0 **** 0.2405
10309 N10309 22.8567 52.1764 32.4229 N.ar 0.0 **** -0.481
10310 C10310 22.0354 51.3587 31.7557 C.ar 0.0 **** 0.2405
10311 C10311 20.6325 51.5115 31.7662 C.ar 0.0 **** 0.0
10312 C10312 20.0752 52.5532 32.5215 C.ar 0.0 **** 0.0
10313 C10313 18.5762 52.7594 32.5628 C.3 0.0 **** -0.106
10314 C10314 17.8199 52.0023 31.4657 C.3 0.0 **** -0.106
10315 C10315 18.3323 50.5677 31.349 C.3 0.0 **** -0.106
10316 C10316 19.8013 50.5682 30.9278 C.3 0.0 **** -0.053
10317 C10317 20.4008 49.1608 30.9443 C.3 0.0 **** -0.106
10318 C10318 21.8673 49.1552 30.5908 C.ar 0.0 **** 0.0
10319 C10319 22.6519 50.2552 30.996 C.ar 0.0 **** 0.0
10320 C10320 24.0268 50.2609 30.7247 C.ar 0.0 **** -0.1268
10321 C10321 24.6011 49.1898 30.0515 C.ar 0.0 **** -0.1268
10322 C10322 23.8388 48.0818 29.6485 C.ar 0.0 **** 0.0
10323 C10323 22.4571 48.0595 29.9336 C.ar 0.0 **** 0.0
10324 C10324 22.8788 63.2781 41.0061 C.3 0.0 **** -0.106
10325 C10325 22.3576 62.4519 42.1926 C.3 0.0 **** -0.159
10326 C10326 24.7901 65.1205 42.2413 C.3 0.0 **** -0.159
10327 C10327 23.917 60.9469 39.4622 C.3 0.0 **** -0.159
10328 C10328 27.6306 64.8994 41.6271 C.3 0.0 **** -0.159
10329 C10329 31.4444 62.1558 39.8891 C.3 0.0 **** -0.159
10330 C10330 32.4509 59.5717 39.0139 C.3 0.0 **** -0.159
10331 O10331 31.7525 57.5788 37.3288 O.3 0.0 **** -0.452
10332 C10332 32.274 52.7477 38.5845 C.3 0.0 **** -0.159
10333 C10333 29.8388 51.2109 38.4685 C.3 0.0 **** -0.159
10334 O10334 27.2578 52.9399 34.8691 O.3 0.0 **** -0.452
10335 O10335 25.3173 57.7515 36.6357 O.3 0.0 **** -0.452
10336 O10336 23.1831 57.2563 35.5806 O.2 0.0 **** -0.419
10337 O10337 25.0925 52.445 33.9064 O.2 0.0 **** -0.419
10338 C10338 21.605 46.8702 29.5548 C.3 0.0 **** -0.159
10339 C10339 24.5178 46.9408 28.9327 C.3 0.0 **** -0.159
10340 H10340 26.2392 59.7353 39.4877 H 0.0 **** 0.053
10341 H10341 26.2756 60.6895 38.035 H 0.0 **** 0.053
10342 H10342 28.9471 63.4867 39.4645 H 0.0 **** 0.053
10343 H10343 29.1548 62.7693 41.0393 H 0.0 **** 0.053
10344 H10344 26.684 58.6222 37.7405 H 0.0 **** 0.1268
10345 H10345 28.4848 52.3365 36.4671 H 0.0 **** 0.053
10346 H10346 30.152 52.7577 36.0879 H 0.0 **** 0.053
10347 H10347 28.8749 53.0833 38.8353 H 0.0 **** 0.053
10348 H10348 30.8152 53.9393 39.6113 H 0.0 **** 0.053
10349 H10349 31.7084 54.3956 36.7647 H 0.0 **** 0.053
10350 H10350 31.7704 55.4867 38.1608 H 0.0 **** 0.053
10351 H10351 21.1033 56.4518 34.8419 H 0.0 **** 0.053
10352 H10352 21.3963 56.1276 33.1289 H 0.0 **** 0.053
10353 H10353 19.4325 54.8148 33.8666 H 0.0 **** 0.053
10354 H10354 20.3541 54.1008 35.1922 H 0.0 **** 0.053
10355 H10355 18.2063 52.4393 33.5536 H 0.0 **** 0.053
10356 H10356 18.3462 53.8339 32.4933 H 0.0 **** 0.053
10357 H10357 17.969 52.5131 30.4997 H 0.0 **** 0.053
10358 H10358 16.7403 52.0239 31.6783 H 0.0 **** 0.053
10359 H10359 17.7381 49.9903 30.6231 H 0.0 **** 0.053
10360 H10360 18.2391 50.0595 32.3251 H 0.0 **** 0.053
10361 H10361 19.8569 50.9332 29.8823 H 0.0 **** 0.053
10362 H10362 20.2651 48.7299 31.9555 H 0.0 **** 0.053
10363 H10363 19.8254 48.5247 30.2574 H 0.0 **** 0.053
10364 H10364 24.624 51.1056 31.068 H 0.0 **** 0.1268
10365 H10365 25.6721 49.1961 29.8377 H 0.0 **** 0.1268
10366 H10366 22.3262 63.0031 40.0957 H 0.0 **** 0.053
10367 H10367 22.6551 64.3406 41.1736 H 0.0 **** 0.053
10368 H10368 22.8963 62.7199 43.1143 H 0.0 **** 0.053
10369 H10369 22.5212 61.3782 42.0169 H 0.0 **** 0.053
10370 H10370 21.2816 62.6176 42.3579 H 0.0 **** 0.053
10371 H10371 25.5517 65.4146 42.9746 H 0.0 **** 0.053
10372 H10372 23.8934 64.8266 42.8023 H 0.0 **** 0.053
10373 H10373 24.5305 66.0221 41.6592 H 0.0 **** 0.053
10374 H10374 24.142 59.9519 39.8804 H 0.0 **** 0.053
10375 H10375 24.0513 60.8552 38.3718 H 0.0 **** 0.053
10376 H10376 22.8593 61.1513 39.6574 H 0.0 **** 0.053
10377 H10377 28.5509 64.9428 41.0315 H 0.0 **** 0.053
10378 H10378 27.9274 64.6775 42.6676 H 0.0 **** 0.053
10379 H10379 27.1899 65.9054 41.6254 H 0.0 **** 0.053
10380 H10380 32.3946 62.1475 39.3403 H 0.0 **** 0.053
10381 H10381 31.6782 62.0048 40.9578 H 0.0 **** 0.053
10382 H10382 31.0195 63.1625 39.7936 H 0.0 **** 0.053
10383 H10383 32.5881 58.5185 39.2861 H 0.0 **** 0.053
10384 H10384 32.9149 60.1828 39.7964 H 0.0 **** 0.053
10385 H10385 33.0089 59.7284 38.0774 H 0.0 **** 0.053
10386 H10386 31.8105 56.85 36.6908 H 0.0 **** 0.41
10387 H10387 32.2739 51.9427 39.3323 H 0.0 **** 0.053
10388 H10388 33.125 53.4127 38.7983 H 0.0 **** 0.053
10389 H10389 32.4451 52.2934 37.5955 H 0.0 **** 0.053
10390 H10390 28.8849 50.7057 38.2559 H 0.0 **** 0.053
10391 H10391 30.1102 51.0016 39.5143 H 0.0 **** 0.053
10392 H10392 30.6091 50.7618 37.8239 H 0.0 **** 0.053
10393 H10393 26.4132 52.5224 34.3636 H 0.0 **** 0.41
10394 H10394 24.3255 57.753 36.2516 H 0.0 **** 0.41
10395 H10395 20.9921 46.5332 30.4047 H 0.0 **** 0.053
10396 H10396 22.211 46.0209 29.2192 H 0.0 **** 0.053
10397 H10397 20.9057 47.1226 28.7394 H 0.0 **** 0.053
10398 H10398 24.4413 46.0017 29.5051 H 0.0 **** 0.053
10399 H10399 25.584 47.1575 28.7818 H 0.0 **** 0.053
10400 H10400 24.0629 46.7519 27.9471 H 0.0 **** 0.053
10401 C10401 48.7968 51.9452 28.9809 C.3 0.0 **** -0.106
10402 C10402 50.2357 51.6027 28.5303 C.3 0.0 **** -0.106
10403 C10403 50.9886 52.8922 28.764 C.ar 0.0 **** 0.0
10404 C10404 50.0481 53.9704 28.8251 C.ar 0.0 **** 0.0
10405 C10405 48.6392 53.4531 28.6618 C.3 0.0 **** -0.106
10406 C10406 50.4739 55.2595 29.0167 C.ar 0.0 **** 0.042
10407 C10407 51.875 55.5441 29.1696 C.ar 0.0 **** 0.0
10408 C10408 52.8209 54.4344 29.109 C.ar 0.0 **** 0.0
10409 C10409 52.3333 53.1039 28.901 C.ar 0.0 **** -0.1268
10410 C10410 54.1802 54.7037 29.2595 C.ar 0.0 **** -0.1268
10411 C10411 54.6695 56.0114 29.4723 C.ar 0.0 **** 0.0
10412 C10412 53.7146 57.1083 29.5361 C.ar 0.0 **** 0.0
10413 C10413 52.3393 56.8375 29.378 C.ar 0.0 **** -0.1268
10414 C10414 54.1884 58.4088 29.7602 C.2 0.0 **** -0.1268
10415 C10415 55.5501 58.6871 29.9295 C.2 0.0 **** 0.0
10416 C10416 56.5152 57.593 29.8524 C.2 0.0 **** 0.0
10417 C10417 56.0358 56.2924 29.6256 C.2 0.0 **** -0.1268
10418 C10418 57.8929 57.8592 30.0101 C.2 0.0 **** -0.1268
10419 C10419 58.3563 59.1484 30.2567 C.2 0.0 **** 0.2405
10420 C10420 57.4032 60.2492 30.3576 C.2 0.0 **** 0.0
10421 C10421 56.0393 59.9984 30.1873 C.2 0.0 **** 0.042
10422 C10422 57.8915 61.5595 30.6466 C.2 0.0 **** -0.1268
10423 C10423 59.2334 61.7239 30.8097 C.2 0.0 **** 0.0
10424 C10424 60.1014 60.575 30.6744 C.2 0.0 **** 0.2405
10425 N10425 59.7129 59.3475 30.4126 N.2 0.0 **** -0.481
10426 C10426 61.475 61.0216 30.9079 C.ar 0.0 **** 0.0
10427 C10427 61.4523 62.4163 31.208 C.ar 0.0 **** 0.0
10428 C10428 60.0392 62.9531 31.1389 C.3 0.0 **** -0.106
10429 C10429 62.6119 63.0844 31.5207 C.ar 0.0 **** -0.1268
10430 C10430 63.8437 62.3812 31.5303 C.ar 0.0 **** 0.0
10431 C10431 63.8732 60.9807 31.1881 C.ar 0.0 **** 0.0
10432 C10432 62.6627 60.3136 30.8854 C.ar 0.0 **** -0.1268
10433 C10433 65.1188 60.2886 31.1836 C.ar 0.0 **** -0.1268
10434 C10434 66.2844 60.935 31.5236 C.ar 0.0 **** 0.0
10435 C10435 66.2283 62.3018 31.9041 C.ar 0.0 **** 0.0
10436 C10436 65.0569 63.0176 31.9001 C.ar 0.0 **** -0.1268
10437 C10437 67.5898 62.8304 32.266 C.3 0.0 **** -0.053
10438 C10438 68.4348 62.6128 31.0091 C.2 0.0 **** 0.0
10439 C10439 68.6586 61.2069 30.6939 C.2 0.0 **** 0.0
10440 C10440 67.6943 60.3107 31.5759 C.3 0.0 **** 0.0
10441 C10441 68.615 63.693 30.183 C.2 0.0 **** 0.0265
10442 C10442 69.5034 63.7641 29.0023 C.2 0.0 **** 0.367
10443 C10443 70.7184 62.9104 29.0058 C.2 0.0 **** 0.052
10444 C10444 70.7787 61.5503 29.4032 C.2 0.0 **** 0.0
10445 C10445 69.627 60.7468 29.8384 C.2 0.0 **** 0.0
10446 C10446 72.031 60.8808 29.2889 C.2 0.0 **** 0.0
10447 C10447 72.2067 59.4163 29.6445 C.3 0.0 **** -0.106
10448 C10448 70.9267 58.6678 30.0326 C.3 0.0 **** -0.106
10449 C10449 69.7474 59.3329 29.3198 C.3 0.0 **** -0.106
10450 C10450 71.867 63.5529 28.5261 C.2 0.0 **** -0.1268
10451 C10451 73.0967 62.914 28.4642 C.2 0.0 **** 0.0
10452 C10452 73.1749 61.566 28.8427 C.2 0.0 **** 0.0
10453 C10453 74.478 60.8274 28.7739 C.3 0.0 **** -0.106
10454 C10454 75.6828 61.6042 28.3258 C.ar 0.0 **** 0.0
10455 C10455 75.6049 62.9499 27.9688 C.ar 0.0 **** 0.0
10456 C10456 74.2959 63.6909 27.9919 C.3 0.0 **** -0.106
10457 C10457 76.7702 63.6406 27.5775 C.ar 0.0 **** 0.0
10458 C10458 77.9983 62.9785 27.5475 C.ar 0.0 **** 0.0
10459 C10459 78.0743 61.612 27.893 C.ar 0.0 **** 0.0
10460 C10460 76.9198 60.929 28.2787 C.ar 0.0 **** 0.0
10461 C10461 76.9401 59.4716 28.6483 C.3 0.0 **** -0.106
10462 C10462 78.275 58.7967 28.5968 C.ar 0.0 **** 0.0
10463 C10463 79.4185 59.4744 28.2262 C.ar 0.0 **** 0.0
10464 C10464 79.4133 60.9243 27.8376 C.3 0.0 **** -0.106
10465 C10465 80.6501 58.7648 28.2121 C.ar 0.0 **** 0.1137
10466 N10466 80.8019 57.4941 28.5272 N.ar 0.0 **** -0.481
10467 C10467 79.6764 56.8055 28.8957 C.ar 0.0 **** 0.2405
10468 C10468 78.3833 57.4189 28.9439 C.ar 0.0 **** 0.0
10469 C10469 77.2739 56.6252 29.3343 C.ar 0.0 **** -0.1268
10470 C10470 77.439 55.2939 29.6592 C.ar 0.0 **** -0.1268
10471 C10471 78.7177 54.675 29.6171 C.ar 0.0 **** 0.0
10472 C10472 79.8103 55.4367 29.2384 C.ar 0.0 **** -0.1268
10473 C10473 79.2737 63.6824 27.1748 C.3 0.0 **** -0.106
10474 C10474 79.1641 65.1323 26.7918 C.ar 0.0 **** 0.0
10475 C10475 77.9269 65.7858 26.8052 C.ar 0.0 **** 0.0
10476 C10476 76.6541 65.093 27.2064 C.3 0.0 **** -0.106
10477 C10477 77.8503 67.1294 26.4381 C.ar 0.0 **** -0.1268
10478 C10478 78.9815 67.8458 26.0506 C.ar 0.0 **** 0.042
10479 C10479 80.2505 67.205 26.0186 C.ar 0.0 **** 0.052
10480 C10480 80.3179 65.8411 26.4056 C.ar 0.0 **** 0.0
10481 C10481 81.6391 65.1036 26.3985 C.3 0.0 **** -0.106
10482 C10482 82.8589 66.0196 26.3958 C.3 0.0 **** -0.106
10483 C10483 82.704 67.0739 25.3023 C.3 0.0 **** -0.086
10484 C10484 81.4678 67.9291 25.5495 C.2 0.0 **** 0.347
10485 O10485 49.6148 56.3323 29.0836 O.3 0.0 **** -0.452
10486 O10486 55.1956 61.0756 30.2882 O.3 0.0 **** -0.452
10487 C10487 67.5735 58.8151 31.2895 C.3 0.0 **** -0.159
10488 O10488 67.9847 64.8891 30.3895 O.3 0.0 **** -0.4365
10489 O10489 69.3387 64.6411 28.1511 O.2 0.0 **** -0.419
10490 O10490 78.8742 69.1541 25.6804 O.3 0.0 **** -0.452
10491 O10491 81.5046 69.1406 25.3593 O.2 0.0 **** -0.419
10492 C10492 78.8555 53.22 29.9776 C.3 0.0 **** -0.159
10493 C10493 68.1385 61.9413 33.3426 C.2 0.0 **** 0.0
10494 C10494 68.23 60.601 32.9949 C.2 0.0 **** 0.0
10495 C10495 68.7905 59.684 33.9367 C.2 0.0 **** 0.042
10496 C10496 69.1219 60.1523 35.234 C.2 0.0 **** 0.052
10497 C10497 68.9661 61.5175 35.58 C.2 0.0 **** 0.052
10498 C10498 68.5011 62.4319 34.6179 C.2 0.0 **** 0.042
10499 C10499 69.2618 61.9833 36.92 C.2 0.0 **** 0.367
10500 C10500 69.6766 61.0045 37.9326 C.ar 0.0 **** 0.0
10501 C10501 69.8406 59.691 37.6033 C.ar 0.0 **** 0.0
10502 C10502 69.603 59.2168 36.2322 C.2 0.0 **** 0.367
10503 C10503 70.2686 58.6654 38.6039 C.3 0.0 **** -0.106
10504 C10504 70.3676 59.164 40.018 C.2 0.0 **** 0.0
10505 C10505 70.1781 60.4542 40.3459 C.2 0.0 **** 0.0
10506 C10506 69.8873 61.5153 39.3214 C.3 0.0 **** -0.106
10507 C10507 70.2437 60.9467 41.7711 C.3 0.0 **** -0.106
10508 C10508 70.1729 59.8148 42.8007 C.3 0.0 **** -0.106
10509 C10509 71.1104 58.6737 42.3961 C.3 0.0 **** -0.106
10510 C10510 70.6918 58.1009 41.038 C.3 0.0 **** -0.106
10511 O10511 68.3604 63.7357 34.8896 O.3 0.0 **** -0.452
10512 O10512 69.0003 58.4001 33.6265 O.3 0.0 **** -0.452
10513 O10513 69.1494 63.2068 37.2274 O.2 0.0 **** -0.419
10514 O10514 69.8029 57.9956 35.9512 O.2 0.0 **** -0.419
10515 H10515 69.5782 57.8031 38.5464 H 0.0 **** 0.053
10516 H10516 71.2354 58.2328 38.2797 H 0.0 **** 0.053
10517 H10517 70.6937 62.2744 39.3088 H 0.0 **** 0.053
10518 H10518 68.9977 62.1015 39.619 H 0.0 **** 0.053
10519 H10519 71.1765 61.5265 41.9082 H 0.0 **** 0.053
10520 H10520 69.4232 61.6665 41.9376 H 0.0 **** 0.053
10521 H10521 69.139 59.4331 42.8467 H 0.0 **** 0.053
10522 H10522 70.4242 60.1945 43.8027 H 0.0 **** 0.053
10523 H10523 71.1186 57.8799 43.1591 H 0.0 **** 0.053
10524 H10524 72.1394 59.0639 42.3223 H 0.0 **** 0.053
10525 H10525 69.8102 57.4424 41.1573 H 0.0 **** 0.053
10526 H10526 71.4883 57.4514 40.6342 H 0.0 **** 0.053
10527 H10527 68.6504 63.8223 35.8685 H 0.0 **** 0.41
10528 H10528 69.3753 57.9802 34.4929 H 0.0 **** 0.41
10529 H10529 48.7178 51.8033 30.0692 H 0.0 **** 0.053
10530 H10530 48.0298 51.3241 28.4988 H 0.0 **** 0.053
10531 H10531 50.6677 50.7462 29.0666 H 0.0 **** 0.053
10532 H10532 50.2503 51.357 27.4536 H 0.0 **** 0.053
10533 H10533 48.2886 53.5956 27.6231 H 0.0 **** 0.053
10534 H10534 47.9057 53.9446 29.3235 H 0.0 **** 0.053
10535 H10535 53.0495 52.2813 28.8575 H 0.0 **** 0.1268
10536 H10536 54.8934 53.8774 29.2106 H 0.0 **** 0.1268
10537 H10537 51.6264 57.6612 29.4294 H 0.0 **** 0.1268
10538 H10538 53.4332 59.2008 29.8002 H 0.0 **** 0.1268
10539 H10539 56.7555 55.4725 29.5698 H 0.0 **** 0.1268
10540 H10540 57.1864 62.3866 30.735 H 0.0 **** 0.1268
10541 H10541 59.9404 63.7307 30.3626 H 0.0 **** 0.053
10542 H10542 59.7282 63.413 32.0915 H 0.0 **** 0.053
10543 H10543 62.6059 64.1483 31.7695 H 0.0 **** 0.1268
10544 H10544 62.6641 59.2488 30.6454 H 0.0 **** 0.1268
10545 H10545 65.1099 59.2334 30.9126 H 0.0 **** 0.1268
10546 H10546 65.0392 64.0671 32.2069 H 0.0 **** 0.1268
10547 H10547 67.5818 63.8711 32.6067 H 0.0 **** 0.053
10548 H10548 72.9643 59.3208 30.4406 H 0.0 **** 0.053
10549 H10549 72.6502 58.915 28.766 H 0.0 **** 0.053
10550 H10550 70.7585 58.7095 31.12 H 0.0 **** 0.053
10551 H10551 71.0167 57.6066 29.7552 H 0.0 **** 0.053
10552 H10552 68.828 58.7613 29.407 H 0.0 **** 0.053
10553 H10553 69.9798 59.3953 28.2425 H 0.0 **** 0.053
10554 H10554 71.7715 64.5921 28.2063 H 0.0 **** 0.1268
10555 H10555 74.6874 60.3815 29.764 H 0.0 **** 0.053
10556 H10556 74.3505 59.9448 28.1181 H 0.0 **** 0.053
10557 H10557 74.0837 64.0884 26.9817 H 0.0 **** 0.053
10558 H10558 74.398 64.5931 28.622 H 0.0 **** 0.053
10559 H10559 76.5205 59.3406 29.663 H 0.0 **** 0.053
10560 H10560 76.2372 58.9181 27.9975 H 0.0 **** 0.053
10561 H10561 79.8327 61.0196 26.818 H 0.0 **** 0.053
10562 H10562 80.1339 61.468 28.477 H 0.0 **** 0.053
10563 H10563 81.559 59.305 27.9178 H 0.0 **** 0.1268
10564 H10564 76.2792 57.0711 29.3775 H 0.0 **** 0.1268
10565 H10565 76.5724 54.6989 29.9567 H 0.0 **** 0.1268
10566 H10566 80.8108 55.0031 29.1901 H 0.0 **** 0.1268
10567 H10567 79.9802 63.5794 28.0205 H 0.0 **** 0.053
10568 H10568 79.768 63.1299 26.3541 H 0.0 **** 0.053
10569 H10569 75.9214 65.2055 26.3853 H 0.0 **** 0.053
10570 H10570 76.2021 65.6498 28.0483 H 0.0 **** 0.053
10571 H10571 76.8791 67.6348 26.4497 H 0.0 **** 0.1268
10572 H10572 81.6885 64.423 27.2612 H 0.0 **** 0.053
10573 H10573 81.6689 64.4515 25.5043 H 0.0 **** 0.053
10574 H10574 83.7761 65.4297 26.2499 H 0.0 **** 0.053
10575 H10575 82.9446 66.5199 27.3747 H 0.0 **** 0.053
10576 H10576 82.5798 66.5732 24.3241 H 0.0 **** 0.053
10577 H10577 83.5662 67.7496 25.2277 H 0.0 **** 0.053
10578 H10578 48.7088 56.0022 28.9708 H 0.0 **** 0.41
10579 H10579 54.2788 60.7757 30.1881 H 0.0 **** 0.41
10580 H10580 68.5295 58.2939 31.3338 H 0.0 **** 0.053
10581 H10581 67.0952 58.6553 30.315 H 0.0 **** 0.053
10582 H10582 66.9263 58.3749 32.0591 H 0.0 **** 0.053
10583 H10583 67.2003 64.7521 30.945 H 0.0 **** 0.41
10584 H10584 77.9354 69.4019 25.7271 H 0.0 **** 0.41
10585 H10585 79.8983 52.8862 29.8946 H 0.0 **** 0.053
10586 H10586 78.2368 52.5926 29.3163 H 0.0 **** 0.053
10587 H10587 78.5133 53.036 31.0087 H 0.0 **** 0.053
10588 H10588 58.6181 57.0479 29.945 H 0.0 **** 0.1268
10589 C10589 57.2011 51.5382 31.8195 C.3 0.0 **** -0.106
10590 C10590 58.3898 52.1082 31.0116 C.3 0.0 **** -0.106
10591 C10591 57.8028 53.3324 30.3475 C.ar 0.0 **** 0.0
10592 C10592 56.3765 53.2056 30.3257 C.ar 0.0 **** 0.0
10593 C10593 55.9499 51.918 30.9884 C.3 0.0 **** -0.106
10594 C10594 55.5964 54.1818 29.7615 C.ar 0.0 **** 0.042
10595 C10595 56.203 55.3543 29.1919 C.ar 0.0 **** 0.0
10596 C10596 57.6575 55.4712 29.2253 C.ar 0.0 **** 0.0
10597 C10597 58.4346 54.4248 29.819 C.ar 0.0 **** -0.1268
10598 C10598 58.2512 56.607 28.6774 C.ar 0.0 **** -0.1268
10599 C10599 57.4925 57.6472 28.0965 C.ar 0.0 **** 0.0
10600 C10600 56.0425 57.5204 28.0749 C.ar 0.0 **** 0.0
10601 C10601 55.4411 56.3685 28.6237 C.ar 0.0 **** -0.1268
10602 C10602 55.279 58.5532 27.5125 C.2 0.0 **** -0.1268
10603 C10603 55.865 59.7056 26.975 C.2 0.0 **** 0.0
10604 C10604 57.3204 59.8329 26.9806 C.2 0.0 **** 0.0
10605 C10605 58.0808 58.7946 27.543 C.2 0.0 **** -0.1268
10606 C10606 57.9269 60.984 26.4322 C.2 0.0 **** -0.1268
10607 C10607 57.1636 62.0178 25.8971 C.2 0.0 **** 0.2405
10608 C10608 55.7077 61.9155 25.903 C.2 0.0 **** 0.0
10609 C10609 55.0986 60.7733 26.4291 C.2 0.0 **** 0.042
10610 C10610 54.9382 63.0002 25.3832 C.2 0.0 **** -0.1268
10611 C10611 55.6028 64.0847 24.8969 C.2 0.0 **** 0.0
10612 C10612 57.0489 64.0875 24.9183 C.2 0.0 **** 0.2405
10613 N10613 57.8105 63.1236 25.3843 N.2 0.0 **** -0.481
10614 C10614 57.5025 65.3602 24.3566 C.ar 0.0 **** 0.0
10615 C10615 56.3563 66.1397 24.019 C.ar 0.0 **** 0.0
10616 C10616 55.0852 65.3734 24.3139 C.3 0.0 **** -0.106
10617 C10617 56.4971 67.4106 23.5152 C.ar 0.0 **** -0.1268
10618 C10618 57.7962 67.9445 23.3166 C.ar 0.0 **** 0.0
10619 C10619 58.9557 67.1426 23.6199 C.ar 0.0 **** 0.0
10620 C10620 58.7821 65.8432 24.1521 C.ar 0.0 **** -0.1268
10621 C10621 60.2557 67.6828 23.3995 C.ar 0.0 **** -0.1268
10622 C10622 60.4145 68.9639 22.9246 C.ar 0.0 **** 0.0
10623 C10623 59.2614 69.7547 22.6774 C.ar 0.0 **** 0.0
10624 C10624 57.9884 69.2709 22.8506 C.ar 0.0 **** -0.1268
10625 C10625 59.6293 71.1299 22.1899 C.3 0.0 **** -0.053
10626 C10626 60.4462 70.8833 20.9199 C.2 0.0 **** 0.0
10627 C10627 61.7247 70.2274 21.1678 C.2 0.0 **** 0.0
10628 C10628 61.7545 69.6793 22.6544 C.3 0.0 **** 0.0
10629 C10629 59.791 71.0099 19.7215 C.2 0.0 **** 0.0265
10630 C10630 60.3983 70.9657 18.3732 C.2 0.0 **** 0.367
10631 C10631 61.8065 71.4175 18.2402 C.2 0.0 **** 0.052
10632 C10632 62.8738 71.0824 19.1119 C.2 0.0 **** 0.0
10633 C10633 62.7648 70.1892 20.2745 C.2 0.0 **** 0.0
10634 C10634 64.1719 71.5737 18.7905 C.2 0.0 **** 0.0
10635 C10635 65.3959 71.2469 19.6254 C.3 0.0 **** -0.106
10636 C10636 65.1709 70.2632 20.7791 C.3 0.0 **** -0.106
10637 C10637 64.0087 69.3415 20.4037 C.3 0.0 **** -0.106
10638 C10638 62.0455 72.2111 17.1109 C.2 0.0 **** -0.1268
10639 C10639 63.3002 72.7309 16.8282 C.2 0.0 **** 0.0
10640 C10640 64.3708 72.4026 17.6722 C.2 0.0 **** 0.0
10641 C10641 65.7493 72.9241 17.396 C.3 0.0 **** -0.106
10642 C10642 65.9128 73.8343 16.2125 C.ar 0.0 **** 0.0
10643 C10643 64.8419 74.1741 15.3868 C.ar 0.0 **** 0.0
10644 C10644 63.4628 73.6233 15.6273 C.3 0.0 **** -0.106
10645 C10645 65.0435 75.0518 14.3018 C.ar 0.0 **** 0.0
10646 C10646 66.312 75.5786 14.0553 C.ar 0.0 **** 0.0
10647 C10647 67.3995 75.2214 14.8813 C.ar 0.0 **** 0.0
10648 C10648 67.199 74.3512 15.9541 C.ar 0.0 **** 0.0
10649 C10649 68.3219 73.9295 16.8608 C.3 0.0 **** -0.106
10650 C10650 69.6674 74.5111 16.5587 C.ar 0.0 **** 0.0
10651 C10651 69.864 75.3801 15.5049 C.ar 0.0 **** 0.0
10652 C10652 68.7581 75.7978 14.5798 C.3 0.0 **** -0.106
10653 C10653 71.1704 75.8972 15.29 C.ar 0.0 **** 0.1137
10654 N10654 72.2314 75.617 16.0199 N.ar 0.0 **** -0.481
10655 C10655 72.0546 74.7542 17.0692 C.ar 0.0 **** 0.2405
10656 C10656 70.7832 74.1719 17.3776 C.ar 0.0 **** 0.0
10657 C10657 70.6967 73.286 18.4826 C.ar 0.0 **** -0.1268
10658 C10658 71.8125 72.9935 19.2407 C.ar 0.0 **** -0.1268
10659 C10659 73.0789 73.5671 18.9453 C.ar 0.0 **** 0.0
10660 C10660 73.1791 74.434 17.8704 C.ar 0.0 **** -0.1268
10661 C10661 66.5679 76.5481 12.9347 C.3 0.0 **** -0.106
10662 C10662 65.3983 76.8978 12.0569 C.ar 0.0 **** 0.0
10663 C10663 64.1328 76.3514 12.2973 C.ar 0.0 **** 0.0
10664 C10664 63.8667 75.4051 13.435 C.3 0.0 **** -0.106
10665 C10665 63.0654 76.6854 11.4637 C.ar 0.0 **** -0.1268
10666 C10666 63.2257 77.5535 10.3849 C.ar 0.0 **** 0.042
10667 C10667 64.5024 78.1165 10.111 C.ar 0.0 **** 0.052
10668 C10668 65.5782 77.7786 10.973 C.ar 0.0 **** 0.0
10669 C10669 66.9601 78.3486 10.7389 C.3 0.0 **** -0.106
10670 C10670 66.9754 79.5887 9.85068 C.3 0.0 **** -0.106
10671 C10671 66.1664 79.3201 8.5839 C.3 0.0 **** -0.086
10672 C10672 64.7174 78.9995 8.92772 C.2 0.0 **** 0.347
10673 O10673 54.223 54.1115 29.7134 O.3 0.0 **** -0.452
10674 O10674 53.7275 60.7352 26.4002 O.3 0.0 **** -0.452
10675 C10675 62.8921 68.7647 23.1044 C.3 0.0 **** -0.159
10676 O10676 58.4439 71.2317 19.6405 O.3 0.0 **** -0.4365
10677 O10677 59.6974 70.7516 17.3814 O.2 0.0 **** -0.419
10678 O10678 62.1678 77.849 9.57625 O.3 0.0 **** -0.452
10679 O10679 63.8039 79.4546 8.2467 O.2 0.0 **** -0.419
10680 C10680 74.272 73.2214 19.7958 C.3 0.0 **** -0.159
10681 C10681 60.548 71.7313 23.2121 C.2 0.0 **** 0.0
10682 C10682 61.698 70.9955 23.4602 C.2 0.0 **** 0.0
10683 C10683 62.6603 71.5146 24.3804 C.2 0.0 **** 0.042
10684 C10684 62.3528 72.7 25.0961 C.2 0.0 **** 0.052
10685 C10685 61.1444 73.4021 24.8624 C.2 0.0 **** 0.052
10686 C10686 60.2441 72.9353 23.8879 C.2 0.0 **** 0.042
10687 C10687 60.8127 74.5867 25.6283 C.2 0.0 **** 0.367
10688 C10688 61.728 75.0197 26.6914 C.ar 0.0 **** 0.0
10689 C10689 62.8989 74.356 26.9134 C.ar 0.0 **** 0.0
10690 C10690 63.2756 73.1892 26.1021 C.2 0.0 **** 0.367
10691 C10691 63.8604 74.7702 27.9812 C.3 0.0 **** -0.106
10692 C10692 63.3759 75.8779 28.8735 C.2 0.0 **** 0.0
10693 C10693 62.2082 76.513 28.6707 C.2 0.0 **** 0.0
10694 C10694 61.3043 76.1946 27.5125 C.3 0.0 **** -0.106
10695 C10695 61.7073 77.6017 29.5883 C.3 0.0 **** -0.106
10696 C10696 62.4478 77.6444 30.9284 C.3 0.0 **** -0.106
10697 C10697 63.9585 77.5425 30.7004 C.3 0.0 **** -0.106
10698 C10698 64.3022 76.2157 30.0154 C.3 0.0 **** -0.106
10699 O10699 59.1012 73.5773 23.6139 O.3 0.0 **** -0.452
10700 O10700 63.8334 70.9063 24.5865 O.3 0.0 **** -0.452
10701 O10701 59.7465 75.2329 25.4056 O.2 0.0 **** -0.419
10702 O10702 64.3902 72.6192 26.3094 O.2 0.0 **** -0.419
10703 H10703 64.1293 73.8809 28.5815 H 0.0 **** 0.053
10704 H10704 64.8211 75.0505 27.5065 H 0.0 **** 0.053
10705 H10705 61.1945 77.0766 26.8517 H 0.0 **** 0.053
10706 H10706 60.2718 76.0201 27.8691 H 0.0 **** 0.053
10707 H10707 61.7994 78.5767 29.0726 H 0.0 **** 0.053
10708 H10708 60.6251 77.4581 29.7542 H 0.0 **** 0.053
10709 H10709 62.1187 76.7945 31.5498 H 0.0 **** 0.053
10710 H10710 62.1933 78.565 31.4756 H 0.0 **** 0.053
10711 H10711 64.5085 77.6357 31.6497 H 0.0 **** 0.053
10712 H10712 64.281 78.3768 30.055 H 0.0 **** 0.053
10713 H10713 64.2758 75.3889 30.7507 H 0.0 **** 0.053
10714 H10714 65.3396 76.2369 29.6377 H 0.0 **** 0.053
10715 H10715 59.1039 74.3803 24.2504 H 0.0 **** 0.41
10716 H10716 64.2992 71.4766 25.3114 H 0.0 **** 0.41
10717 H10717 57.1492 52.0506 32.792 H 0.0 **** 0.053
10718 H10718 57.2787 50.4585 32.0058 H 0.0 **** 0.053
10719 H10719 59.2698 52.3319 31.6308 H 0.0 **** 0.053
10720 H10720 58.7074 51.3858 30.2387 H 0.0 **** 0.053
10721 H10721 55.7361 51.1411 30.2315 H 0.0 **** 0.053
10722 H10722 55.0478 52.0185 31.6157 H 0.0 **** 0.053
10723 H10723 59.5215 54.5224 29.8388 H 0.0 **** 0.1268
10724 H10724 59.3398 56.6978 28.6955 H 0.0 **** 0.1268
10725 H10725 54.3543 56.2782 28.6087 H 0.0 **** 0.1268
10726 H10726 54.1929 58.4133 27.5189 H 0.0 **** 0.1268
10727 H10727 59.1693 58.8887 27.5502 H 0.0 **** 0.1268
10728 H10728 53.8496 62.9381 25.3933 H 0.0 **** 0.1268
10729 H10729 54.4947 65.2034 23.3977 H 0.0 **** 0.053
10730 H10730 54.4326 65.9168 25.0171 H 0.0 **** 0.053
10731 H10731 55.6274 68.0245 23.2691 H 0.0 **** 0.1268
10732 H10732 59.6488 65.2308 24.4076 H 0.0 **** 0.1268
10733 H10733 61.112 67.0497 23.6302 H 0.0 **** 0.1268
10734 H10734 57.1168 69.904 22.6622 H 0.0 **** 0.1268
10735 H10735 58.7669 71.7852 22.0287 H 0.0 **** 0.053
10736 H10736 65.8446 72.1825 19.9998 H 0.0 **** 0.053
10737 H10737 66.1535 70.8183 18.9455 H 0.0 **** 0.053
10738 H10738 64.9202 70.7958 21.7097 H 0.0 **** 0.053
10739 H10739 66.0923 69.6913 20.9666 H 0.0 **** 0.053
10740 H10740 63.8943 68.509 21.0918 H 0.0 **** 0.053
10741 H10741 64.2149 68.9049 19.411 H 0.0 **** 0.053
10742 H10742 61.2017 72.424 16.452 H 0.0 **** 0.1268
10743 H10743 66.1222 73.4411 18.2996 H 0.0 **** 0.053
10744 H10744 66.4385 72.0643 17.2909 H 0.0 **** 0.053
10745 H10745 63.1286 73.0711 14.7291 H 0.0 **** 0.053
10746 H10746 62.7455 74.4595 15.7137 H 0.0 **** 0.053
10747 H10747 68.0632 74.1714 17.9084 H 0.0 **** 0.053
10748 H10748 68.4029 72.8262 16.856 H 0.0 **** 0.053
10749 H10749 69.0453 75.5371 13.5434 H 0.0 **** 0.053
10750 H10750 68.6968 76.9023 14.5724 H 0.0 **** 0.053
10751 H10751 71.3252 76.5888 14.4519 H 0.0 **** 0.1268
10752 H10752 69.7386 72.8301 18.7357 H 0.0 **** 0.1268
10753 H10753 71.7261 72.3083 20.0871 H 0.0 **** 0.1268
10754 H10754 74.1317 74.8965 17.6055 H 0.0 **** 0.1268
10755 H10755 66.9863 77.4741 13.3734 H 0.0 **** 0.053
10756 H10756 67.3904 76.165 12.3025 H 0.0 **** 0.053
10757 H10757 63.4223 74.4796 13.0231 H 0.0 **** 0.053
10758 H10758 63.0642 75.8313 14.0654 H 0.0 **** 0.053
10759 H10759 62.0778 76.2538 11.6565 H 0.0 **** 0.1268
10760 H10760 67.435 78.5781 11.7041 H 0.0 **** 0.053
10761 H10761 67.5881 77.5612 10.2792 H 0.0 **** 0.053
10762 H10762 68.0114 79.8682 9.60702 H 0.0 **** 0.053
10763 H10763 66.5281 80.4364 10.3958 H 0.0 **** 0.053
10764 H10764 66.5907 78.4464 8.05526 H 0.0 **** 0.053
10765 H10765 66.1627 80.1672 7.88538 H 0.0 **** 0.053
10766 H10766 53.9476 53.2801 30.1321 H 0.0 **** 0.41
10767 H10767 53.4203 59.9172 26.8209 H 0.0 **** 0.41
10768 H10768 63.877 69.2112 22.9697 H 0.0 **** 0.053
10769 H10769 62.8329 67.803 22.5795 H 0.0 **** 0.053
10770 H10770 62.7658 68.5714 24.1776 H 0.0 **** 0.053
10771 H10771 58.0182 70.956 20.4684 H 0.0 **** 0.41
10772 H10772 61.3994 77.3449 9.89309 H 0.0 **** 0.41
10773 H10773 75.175 73.7372 19.4433 H 0.0 **** 0.053
10774 H10774 74.4633 72.1365 19.7792 H 0.0 **** 0.053
10775 H10775 74.1001 73.5019 20.8474 H 0.0 **** 0.053
10776 H10776 59.0127 61.0804 26.426 H 0.0 **** 0.1268
10777 C10777 43.8296 -1.53226 71.918 C.3 0.0 **** -0.106
10778 C10778 44.1445 -0.487136 70.823 C.3 0.0 **** -0.106
10779 C10779 43.7794 -1.20426 69.5436 C.ar 0.0 **** 0.0
10780 C10780 43.7687 -2.61449 69.7928 C.ar 0.0 **** 0.0
10781 C10781 44.0978 -2.89853 71.2385 C.3 0.0 **** -0.106
10782 C10782 43.479 -3.49989 68.7869 C.ar 0.0 **** 0.042
10783 C10783 43.1711 -3.02061 67.4667 C.ar 0.0 **** 0.0
10784 C10784 43.1821 -1.5806 67.2293 C.ar 0.0 **** 0.0
10785 C10785 43.4962 -0.69146 68.3072 C.ar 0.0 **** -0.1268
10786 C10786 42.8815 -1.1098 65.9522 C.ar 0.0 **** -0.1268
10787 C10787 42.5634 -1.97865 64.8851 C.ar 0.0 **** 0.0
10788 C10788 42.5507 -3.41233 65.1371 C.ar 0.0 **** 0.0
10789 C10789 42.8606 -3.89007 66.4277 C.ar 0.0 **** -0.1268
10790 C10790 42.2234 -4.28321 64.0881 C.2 0.0 **** -0.1268
10791 C10791 41.9034 -3.81921 62.8065 C.2 0.0 **** 0.0
10792 C10792 41.9282 -2.38242 62.5429 C.2 0.0 **** 0.0
10793 C10793 42.2588 -1.51435 63.5964 C.2 0.0 **** -0.1268
10794 C10794 41.6187 -1.89954 61.2526 C.2 0.0 **** -0.1268
10795 C10795 41.2705 -2.76656 60.2208 C.2 0.0 **** 0.2405
10796 C10796 41.2205 -4.20319 60.4733 C.2 0.0 **** 0.0
10797 C10797 41.5405 -4.69194 61.7426 C.2 0.0 **** 0.042
10798 C10798 40.8267 -5.07608 59.4141 C.2 0.0 **** -0.1268
10799 C10799 40.5198 -4.52471 58.2074 C.2 0.0 **** 0.0
10800 C10800 40.6148 -3.09039 58.0482 C.2 0.0 **** 0.2405
10801 N10801 40.9678 -2.23719 58.9829 N.2 0.0 **** -0.481
10802 C10802 40.2226 -2.76521 56.6766 C.ar 0.0 **** 0.0
10803 C10803 39.8666 -3.97487 56.0091 C.ar 0.0 **** 0.0
10804 C10804 40.0571 -5.16442 56.9247 C.3 0.0 **** -0.106
10805 C10805 39.4081 -3.95128 54.7137 C.ar 0.0 **** -0.1268
10806 C10806 39.3024 -2.71224 54.0314 C.ar 0.0 **** 0.0
10807 C10807 39.6999 -1.49332 54.6914 C.ar 0.0 **** 0.0
10808 C10808 40.1536 -1.54433 56.0307 C.ar 0.0 **** -0.1268
10809 C10809 39.6064 -0.256455 53.9901 C.ar 0.0 **** -0.1268
10810 C10810 39.121 -0.211568 52.7039 C.ar 0.0 **** 0.0
10811 C10811 38.6898 -1.41606 52.088 C.ar 0.0 **** 0.0
10812 C10812 38.783 -2.63465 52.7131 C.ar 0.0 **** -0.1268
10813 C10813 38.1676 -1.16934 50.6985 C.3 0.0 **** -0.053
10814 C10814 39.3394 -0.525261 49.9547 C.2 0.0 **** 0.0
10815 C10815 39.6903 0.798448 50.4555 C.2 0.0 **** 0.0
10816 C10816 38.9513 1.05147 51.8343 C.3 0.0 **** 0.0
10817 C10817 40.0953 -1.34249 49.1532 C.2 0.0 **** 0.0265
10818 C10818 41.1745 -0.924171 48.2319 C.2 0.0 **** 0.367
10819 C10819 41.0832 0.434942 47.6409 C.2 0.0 **** 0.052
10820 C10820 40.7407 1.62315 48.3354 C.2 0.0 **** 0.0
10821 C10821 40.461 1.70728 49.7762 C.2 0.0 **** 0.0
10822 C10822 40.7547 2.84604 47.6046 C.2 0.0 **** 0.0
10823 C10823 40.4464 4.18396 48.2503 C.3 0.0 **** -0.106
10824 C10824 40.2243 4.15532 49.7666 C.3 0.0 **** -0.106
10825 C10825 41.025 2.98758 50.3466 C.3 0.0 **** -0.106
10826 C10826 41.4144 0.48779 46.2808 C.2 0.0 **** -0.1268
10827 C10827 41.3772 1.67193 45.5592 C.2 0.0 **** 0.0
10828 C10828 41.0512 2.85933 46.2302 C.2 0.0 **** 0.0
10829 C10829 41.0177 4.16686 45.4969 C.3 0.0 **** -0.106
10830 C10830 41.3059 4.13325 44.0232 C.ar 0.0 **** 0.0
10831 C10831 41.6107 2.94763 43.3557 C.ar 0.0 **** 0.0
10832 C10832 41.6902 1.63572 44.0876 C.3 0.0 **** -0.106
10833 C10833 41.8503 2.96635 41.9663 C.ar 0.0 **** 0.0
10834 C10834 41.7826 4.16894 41.2615 C.ar 0.0 **** 0.0
10835 C10835 41.4904 5.37163 41.9403 C.ar 0.0 **** 0.0
10836 C10836 41.255 5.35198 43.3159 C.ar 0.0 **** 0.0
10837 C10837 40.9484 6.60317 44.0915 C.3 0.0 **** -0.106
10838 C10838 40.8917 7.87236 43.3003 C.ar 0.0 **** 0.0
10839 C10839 41.1135 7.89065 41.9384 C.ar 0.0 **** 0.0
10840 C10840 41.4377 6.65399 41.1517 C.3 0.0 **** -0.106
10841 C10841 41.0317 9.1354 41.2569 C.ar 0.0 **** 0.1137
10842 N10842 40.7579 10.2959 41.8185 N.ar 0.0 **** -0.481
10843 C10843 40.5368 10.2963 43.1705 C.ar 0.0 **** 0.2405
10844 C10844 40.5951 9.10142 43.9575 C.ar 0.0 **** 0.0
10845 C10845 40.3551 9.19964 45.3525 C.ar 0.0 **** -0.1268
10846 C10846 40.0728 10.4187 45.9352 C.ar 0.0 **** -0.1268
10847 C10847 40.0101 11.6107 45.1637 C.ar 0.0 **** 0.0
10848 C10848 40.2414 11.5309 43.8009 C.ar 0.0 **** -0.1268
10849 C10849 41.9919 4.2331 39.7738 C.3 0.0 **** -0.106
10850 C10850 42.3212 2.94233 39.0765 C.ar 0.0 **** 0.0
10851 C10851 42.4066 1.74269 39.7916 C.ar 0.0 **** 0.0
10852 C10852 42.1684 1.66989 41.2744 C.3 0.0 **** -0.106
10853 C10853 42.7214 0.559635 39.1228 C.ar 0.0 **** -0.1268
10854 C10854 42.9595 0.538719 37.7495 C.ar 0.0 **** 0.042
10855 C10855 42.8888 1.74432 36.9988 C.ar 0.0 **** 0.052
10856 C10856 42.5561 2.9396 37.6881 C.ar 0.0 **** 0.0
10857 C10857 42.4594 4.25449 36.9457 C.3 0.0 **** -0.106
10858 C10858 42.2974 4.10235 35.4365 C.3 0.0 **** -0.106
10859 C10859 43.3546 3.13819 34.9036 C.3 0.0 **** -0.086
10860 C10860 43.1989 1.76264 35.5395 C.2 0.0 **** 0.347
10861 O10861 43.4544 -4.86344 68.9703 O.3 0.0 **** -0.452
10862 O10862 41.4803 -6.05181 61.9144 O.3 0.0 **** -0.452
10863 C10863 39.3128 2.27299 52.6771 C.3 0.0 **** -0.159
10864 O10864 39.9033 -2.69532 49.094 O.3 0.0 **** -0.4365
10865 O10865 41.9995 -1.74574 47.8255 O.2 0.0 **** -0.419
10866 O10866 43.282 -0.629974 37.1247 O.3 0.0 **** -0.452
10867 O10867 43.3319 0.748449 34.862 O.2 0.0 **** -0.419
10868 C10868 39.7004 12.9208 45.8373 C.3 0.0 **** -0.159
10869 C10869 37.0798 -0.142301 50.8098 C.2 0.0 **** 0.0
10870 C10870 37.4737 1.05722 51.3856 C.2 0.0 **** 0.0
10871 C10871 36.5198 2.11648 51.4864 C.2 0.0 **** 0.042
10872 C10872 35.1763 1.86621 51.106 C.2 0.0 **** 0.052
10873 C10873 34.7896 0.612141 50.5718 C.2 0.0 **** 0.052
10874 C10874 35.754 -0.395152 50.389 C.2 0.0 **** 0.042
10875 C10875 33.4075 0.344785 50.2278 C.2 0.0 **** 0.367
10876 C10876 32.4009 1.38027 50.4921 C.ar 0.0 **** 0.0
10877 C10877 32.7679 2.59417 50.9944 C.ar 0.0 **** 0.0
10878 C10878 34.1754 2.89922 51.2901 C.2 0.0 **** 0.367
10879 C10879 31.7738 3.67677 51.2703 C.3 0.0 **** -0.106
10880 C10880 30.3369 3.27833 51.0846 C.2 0.0 **** 0.0
10881 C10881 29.9749 2.07123 50.6157 C.2 0.0 **** 0.0
10882 C10882 30.977 1.02975 50.2023 C.3 0.0 **** -0.106
10883 C10883 28.5305 1.66063 50.4627 C.3 0.0 **** -0.106
10884 C10884 27.5634 2.57539 51.2203 C.3 0.0 **** -0.106
10885 C10885 27.9185 4.04344 50.9685 C.3 0.0 **** -0.106
10886 C10886 29.3358 4.33897 51.4701 C.3 0.0 **** -0.106
10887 O10887 35.4423 -1.58773 49.8655 O.3 0.0 **** -0.452
10888 O10888 36.8619 3.32842 51.9367 O.3 0.0 **** -0.452
10889 O10889 33.0608 -0.765003 49.7256 O.2 0.0 **** -0.419
10890 O10890 34.4867 4.052 51.7196 O.2 0.0 **** -0.419
10891 H10891 31.939 4.05797 52.2955 H 0.0 **** 0.053
10892 H10892 32.0155 4.55251 50.6367 H 0.0 **** 0.053
10893 H10893 30.8741 0.798037 49.1242 H 0.0 **** 0.053
10894 H10894 30.7473 0.0628731 50.6882 H 0.0 **** 0.053
10895 H10895 28.2736 1.64525 49.3862 H 0.0 **** 0.053
10896 H10896 28.4182 0.617399 50.8065 H 0.0 **** 0.053
10897 H10897 27.6402 2.36602 52.3006 H 0.0 **** 0.053
10898 H10898 26.5254 2.36432 50.9212 H 0.0 **** 0.053
10899 H10899 27.1936 4.71431 51.4552 H 0.0 **** 0.053
10900 H10900 27.8694 4.2436 49.8849 H 0.0 **** 0.053
10901 H10901 29.336 4.44399 52.5719 H 0.0 **** 0.053
10902 H10902 29.6833 5.31349 51.0843 H 0.0 **** 0.053
10903 H10903 34.4359 -1.52765 49.6822 H 0.0 **** 0.41
10904 H10904 35.9805 3.86756 51.9302 H 0.0 **** 0.41
10905 H10905 42.7622 -1.46957 72.1781 H 0.0 **** 0.053
10906 H10906 44.4142 -1.3901 72.837 H 0.0 **** 0.053
10907 H10907 43.6041 0.460441 70.9571 H 0.0 **** 0.053
10908 H10908 45.2237 -0.251732 70.8189 H 0.0 **** 0.053
10909 H10909 45.1599 -3.18503 71.3485 H 0.0 **** 0.053
10910 H10910 43.4943 -3.70948 71.6807 H 0.0 **** 0.053
10911 H10911 43.5014 0.383601 68.1187 H 0.0 **** 0.1268
10912 H10912 42.8925 -0.0329662 65.7675 H 0.0 **** 0.1268
10913 H10913 42.8471 -4.96456 66.6138 H 0.0 **** 0.1268
10914 H10914 42.2269 -5.35232 64.3253 H 0.0 **** 0.1268
10915 H10915 42.2758 -0.439421 63.4021 H 0.0 **** 0.1268
10916 H10916 40.7756 -6.15003 59.5959 H 0.0 **** 0.1268
10917 H10917 40.8052 -5.86809 56.5219 H 0.0 **** 0.053
10918 H10918 39.1225 -5.73436 57.0564 H 0.0 **** 0.053
10919 H10919 39.1155 -4.86858 54.1971 H 0.0 **** 0.1268
10920 H10920 40.4379 -0.628821 56.5526 H 0.0 **** 0.1268
10921 H10921 39.9221 0.646052 54.5125 H 0.0 **** 0.1268
10922 H10922 38.4347 -3.54658 52.2203 H 0.0 **** 0.1268
10923 H10923 37.785 -2.06931 50.2056 H 0.0 **** 0.053
10924 H10924 39.5816 4.6448 47.7437 H 0.0 **** 0.053
10925 H10925 41.2956 4.8567 48.0356 H 0.0 **** 0.053
10926 H10926 39.1591 4.01478 50.0077 H 0.0 **** 0.053
10927 H10927 40.5365 5.11423 50.2074 H 0.0 **** 0.053
10928 H10928 41.0573 2.99922 51.4321 H 0.0 **** 0.053
10929 H10929 42.0691 3.07202 49.9984 H 0.0 **** 0.053
10930 H10930 41.6972 -0.445453 45.7904 H 0.0 **** 0.1268
10931 H10931 40.0316 4.64051 45.6582 H 0.0 **** 0.053
10932 H10932 41.7206 4.86652 45.9886 H 0.0 **** 0.053
10933 H10933 42.6987 1.20236 43.9515 H 0.0 **** 0.053
10934 H10934 41.0146 0.906551 43.6046 H 0.0 **** 0.053
10935 H10935 39.9888 6.48147 44.6272 H 0.0 **** 0.053
10936 H10936 41.6912 6.72346 44.9026 H 0.0 **** 0.053
10937 H10937 42.4039 6.80619 40.6341 H 0.0 **** 0.053
10938 H10938 40.7049 6.55147 40.3294 H 0.0 **** 0.053
10939 H10939 41.2077 9.1485 40.1737 H 0.0 **** 0.1268
10940 H10940 40.395 8.30263 45.972 H 0.0 **** 0.1268
10941 H10941 39.8917 10.4742 47.011 H 0.0 **** 0.1268
10942 H10942 40.2055 12.4205 43.1695 H 0.0 **** 0.1268
10943 H10943 41.0833 4.6731 39.32 H 0.0 **** 0.053
10944 H10944 42.7805 4.97503 39.5487 H 0.0 **** 0.053
10945 H10945 43.0547 1.20776 41.7484 H 0.0 **** 0.053
10946 H10946 41.354 0.945876 41.4637 H 0.0 **** 0.053
10947 H10947 42.7877 -0.375607 39.6881 H 0.0 **** 0.1268
10948 H10948 41.6263 4.84821 37.35 H 0.0 **** 0.053
10949 H10949 43.3731 4.84239 37.1585 H 0.0 **** 0.053
10950 H10950 42.3738 5.08424 34.9458 H 0.0 **** 0.053
10951 H10951 41.2943 3.70281 35.2133 H 0.0 **** 0.053
10952 H10952 44.3611 3.51819 35.1598 H 0.0 **** 0.053
10953 H10953 43.3112 3.00771 33.8143 H 0.0 **** 0.053
10954 H10954 43.6738 -5.04812 69.8978 H 0.0 **** 0.41
10955 H10955 41.6868 -6.26811 62.8369 H 0.0 **** 0.41
10956 H10956 39.1932 3.213 52.139 H 0.0 **** 0.053
10957 H10957 40.3372 2.17804 53.0587 H 0.0 **** 0.053
10958 H10958 38.6334 2.30192 53.5389 H 0.0 **** 0.053
10959 H10959 39.4375 -2.99327 49.8921 H 0.0 **** 0.41
10960 H10960 43.3213 -1.32867 37.7994 H 0.0 **** 0.41
10961 H10961 39.6903 13.7476 45.1147 H 0.0 **** 0.053
10962 H10962 40.4481 13.1481 46.6139 H 0.0 **** 0.053
10963 H10963 38.7187 12.8842 46.3365 H 0.0 **** 0.053
10964 H10964 41.644 -0.829106 61.0482 H 0.0 **** 0.1268
10965 C10965 22.7819 52.0507 57.3255 C.3 0.0 **** -0.106
10966 C10966 23.3317 52.9132 56.166 C.3 0.0 **** -0.106
10967 C10967 22.1005 53.6164 55.6425 C.ar 0.0 **** 0.0
10968 C10968 20.9409 52.8866 56.0592 C.ar 0.0 **** 0.0
10969 C10969 21.339 51.6911 56.8907 C.3 0.0 **** -0.106
10970 C10970 19.6853 53.3065 55.703 C.ar 0.0 **** 0.042
10971 C10971 19.5166 54.4955 54.9122 C.ar 0.0 **** 0.0
10972 C10972 20.7076 55.2307 54.4986 C.ar 0.0 **** 0.0
10973 C10973 22.0006 54.7531 54.8878 C.ar 0.0 **** -0.1268
10974 C10974 20.5503 56.3857 53.7344 C.ar 0.0 **** -0.1268
10975 C10975 19.2791 56.8682 53.3523 C.ar 0.0 **** 0.0
10976 C10976 18.0993 56.1283 53.7762 C.ar 0.0 **** 0.0
10977 C10977 18.2577 54.9559 54.5446 C.ar 0.0 **** -0.1268
10978 C10978 16.8318 56.6056 53.4135 C.2 0.0 **** -0.1268
10979 C10979 16.6627 57.774 52.6606 C.2 0.0 **** 0.0
10980 C10980 17.843 58.5136 52.2197 C.2 0.0 **** 0.0
10981 C10981 19.1104 58.0301 52.5837 C.2 0.0 **** -0.1268
10982 C10982 17.6893 59.6876 51.4504 C.2 0.0 **** -0.1268
10983 C10983 16.4282 60.171 51.1135 C.2 0.0 **** 0.2405
10984 C10984 15.2387 59.4554 51.5642 C.2 0.0 **** 0.0
10985 C10985 15.3806 58.284 52.3125 C.2 0.0 **** 0.042
10986 C10986 13.9522 59.984 51.2408 C.2 0.0 **** -0.1268
10987 C10987 13.8941 61.1358 50.5168 C.2 0.0 **** 0.0
10988 C10988 15.1283 61.7646 50.1007 C.2 0.0 **** 0.2405
10989 N10989 16.3386 61.3291 50.3684 N.2 0.0 **** -0.481
10990 C10990 14.7846 62.9776 49.358 C.ar 0.0 **** 0.0
10991 C10991 13.3641 63.109 49.3388 C.ar 0.0 **** 0.0
10992 C10992 12.7116 61.9411 50.0459 C.3 0.0 **** -0.106
10993 C10993 12.7692 64.1967 48.7457 C.ar 0.0 **** -0.1268
10994 C10994 13.5773 65.1896 48.135 C.ar 0.0 **** 0.0
10995 C10995 15.0113 65.0377 48.1186 C.ar 0.0 **** 0.0
10996 C10996 15.5985 63.916 48.7503 C.ar 0.0 **** -0.1268
10997 C10997 15.8121 66.0324 47.4865 C.ar 0.0 **** -0.1268
10998 C10998 15.2347 67.1423 46.9149 C.ar 0.0 **** 0.0
10999 C10999 13.825 67.2977 46.9832 C.ar 0.0 **** 0.0
11000 C11000 13.0095 66.3555 47.5591 C.ar 0.0 **** -0.1268
11001 C11001 13.3786 68.5783 46.3312 C.3 0.0 **** -0.053
11002 C11002 13.8809 68.4729 44.8899 C.2 0.0 **** 0.0
11003 C11003 15.3345 68.4907 44.7768 C.2 0.0 **** 0.0
11004 C11004 15.9756 68.2995 46.2134 C.3 0.0 **** 0.0
11005 C11005 12.9741 68.0771 43.9398 C.2 0.0 **** 0.0265
11006 C11006 13.1847 68.0455 42.4759 C.2 0.0 **** 0.367
11007 C11007 14.1398 69.0252 41.8991 C.2 0.0 **** 0.052
11008 C11008 15.4154 69.3528 42.4255 C.2 0.0 **** 0.0
11009 C11009 16.0209 68.7363 43.6149 C.2 0.0 **** 0.0
11010 C11010 16.2128 70.2845 41.7005 C.2 0.0 **** 0.0
11011 C11011 17.6088 70.6799 42.1441 C.3 0.0 **** -0.106
11012 C11012 18.1556 69.9319 43.365 C.3 0.0 **** -0.106
11013 C11013 17.5057 68.5474 43.41 C.3 0.0 **** -0.106
11014 C11014 13.6995 69.616 40.7078 C.2 0.0 **** -0.1268
11015 C11015 14.4561 70.5615 40.031 C.2 0.0 **** 0.0
11016 C11016 15.7246 70.8913 40.5297 C.2 0.0 **** 0.0
11017 C11017 16.5872 71.8928 39.8218 C.3 0.0 **** -0.106
11018 C11018 16.0152 72.5438 38.5951 C.ar 0.0 **** 0.0
11019 C11019 14.7455 72.2275 38.1132 C.ar 0.0 **** 0.0
11020 C11020 13.8874 71.1932 38.7891 C.3 0.0 **** -0.106
11021 C11021 14.2449 72.8849 36.9706 C.ar 0.0 **** 0.0
11022 C11022 15.0188 73.8493 36.3238 C.ar 0.0 **** 0.0
11023 C11023 16.3107 74.1574 36.8019 C.ar 0.0 **** 0.0
11024 C11024 16.8057 73.505 37.9321 C.ar 0.0 **** 0.0
11025 C11025 18.1774 73.7866 38.48 C.3 0.0 **** -0.106
11026 C11026 18.9778 74.8221 37.7539 C.ar 0.0 **** 0.0
11027 C11027 18.4845 75.4754 36.643 C.ar 0.0 **** 0.0
11028 C11028 17.1247 75.1941 36.0728 C.3 0.0 **** -0.106
11029 C11029 19.3027 76.4536 36.0153 C.ar 0.0 **** 0.1137
11030 N11030 20.5129 76.8001 36.4056 N.ar 0.0 **** -0.481
11031 C11031 21.0191 76.16 37.506 C.ar 0.0 **** 0.2405
11032 C11032 20.2837 75.157 38.2157 C.ar 0.0 **** 0.0
11033 C11033 20.8909 74.5457 39.343 C.ar 0.0 **** -0.1268
11034 C11034 22.1603 74.9103 39.7442 C.ar 0.0 **** -0.1268
11035 C11035 22.8986 75.906 39.049 C.ar 0.0 **** 0.0
11036 C11036 22.3192 76.5121 37.9471 C.ar 0.0 **** -0.1268
11037 C11037 14.5128 74.6043 35.1259 C.3 0.0 **** -0.106
11038 C11038 13.142 74.2445 34.6237 C.ar 0.0 **** 0.0
11039 C11039 12.3784 73.2628 35.2649 C.ar 0.0 **** 0.0
11040 C11040 12.869 72.5272 36.481 C.3 0.0 **** -0.106
11041 C11041 11.1125 72.9414 34.7748 C.ar 0.0 **** -0.1268
11042 C11042 10.5828 73.5736 33.6511 C.ar 0.0 **** 0.042
11043 C11043 11.3401 74.5684 32.9737 C.ar 0.0 **** 0.052
11044 C11044 12.6217 74.8953 33.4885 C.ar 0.0 **** 0.0
11045 C11045 13.4749 75.9491 32.8168 C.3 0.0 **** -0.106
11046 C11046 12.6944 76.8832 31.8975 C.3 0.0 **** -0.106
11047 C11047 11.8245 76.0595 30.9509 C.3 0.0 **** -0.086
11048 C11048 10.8245 75.2177 31.7332 C.2 0.0 **** 0.347
11049 O11049 18.5379 52.6445 56.0754 O.3 0.0 **** -0.452
11050 O11050 14.2248 57.6549 52.7009 O.3 0.0 **** -0.452
11051 C11051 17.479 68.0664 46.3496 C.3 0.0 **** -0.159
11052 O11052 11.7049 67.678 44.2567 O.3 0.0 **** -0.4365
11053 O11053 12.4479 67.3681 41.7553 O.2 0.0 **** -0.419
11054 O11054 9.34904 73.2271 33.1841 O.3 0.0 **** -0.452
11055 O11055 9.67018 75.0981 31.3352 O.2 0.0 **** -0.419
11056 C11056 24.2809 76.2743 39.5178 C.3 0.0 **** -0.159
11057 C11057 14.1274 69.697 46.9933 C.2 0.0 **** 0.0
11058 C11058 15.509 69.589 46.9236 C.2 0.0 **** 0.0
11059 C11059 16.3086 70.6346 47.48 C.2 0.0 **** 0.042
11060 C11060 15.6675 71.6836 48.1876 C.2 0.0 **** 0.052
11061 C11061 14.2555 71.7395 48.2905 C.2 0.0 **** 0.052
11062 C11062 13.4711 70.7565 47.6607 C.2 0.0 **** 0.042
11063 C11063 13.6064 72.7868 49.0532 C.2 0.0 **** 0.367
11064 C11064 14.4407 73.7631 49.7646 C.ar 0.0 **** 0.0
11065 C11065 15.8002 73.7227 49.6598 C.ar 0.0 **** 0.0
11066 C11066 16.4682 72.702 48.8393 C.2 0.0 **** 0.367
11067 C11067 16.6837 74.7033 50.3628 C.3 0.0 **** -0.106
11068 C11068 15.9712 75.6408 51.2963 C.2 0.0 **** 0.0
11069 C11069 14.6324 75.6608 51.42 C.2 0.0 **** 0.0
11070 C11070 13.7313 74.7727 50.6082 C.3 0.0 **** -0.106
11071 C11071 13.9208 76.5792 52.3835 C.3 0.0 **** -0.106
11072 C11072 14.8556 77.1879 53.4332 C.3 0.0 **** -0.106
11073 C11073 16.1332 77.705 52.7661 C.3 0.0 **** -0.106
11074 C11074 16.8784 76.5525 52.0847 C.3 0.0 **** -0.106
11075 O11075 12.1329 70.7799 47.7088 O.3 0.0 **** -0.452
11076 O11076 17.6402 70.6412 47.3563 O.3 0.0 **** -0.452
11077 O11077 12.3439 72.8566 49.1268 O.2 0.0 **** -0.419
11078 O11078 17.7326 72.7174 48.7323 O.2 0.0 **** -0.419
11079 H11079 17.4727 74.1469 50.9028 H 0.0 **** 0.053
11080 H11080 17.2554 75.2747 49.6055 H 0.0 **** 0.053
11081 H11081 13.0664 75.3796 49.963 H 0.0 **** 0.053
11082 H11082 13.0206 74.2415 51.2688 H 0.0 **** 0.053
11083 H11083 13.4196 77.3825 51.8104 H 0.0 **** 0.053
11084 H11084 13.1073 76.018 52.8759 H 0.0 **** 0.053
11085 H11085 15.1225 76.413 54.1714 H 0.0 **** 0.053
11086 H11086 14.3423 77.9941 53.9792 H 0.0 **** 0.053
11087 H11087 16.7876 78.2027 53.4984 H 0.0 **** 0.053
11088 H11088 15.8621 78.4588 52.0078 H 0.0 **** 0.053
11089 H11089 17.4196 75.9497 52.8388 H 0.0 **** 0.053
11090 H11090 17.6596 76.9466 51.411 H 0.0 **** 0.053
11091 H11091 11.915 71.6098 48.2689 H 0.0 **** 0.41
11092 H11092 17.9461 71.4816 47.8738 H 0.0 **** 0.41
11093 H11093 22.7344 52.6638 58.2381 H 0.0 **** 0.053
11094 H11094 23.3966 51.166 57.5399 H 0.0 **** 0.053
11095 H11095 24.1261 53.606 56.4773 H 0.0 **** 0.053
11096 H11096 23.7515 52.2666 55.375 H 0.0 **** 0.053
11097 H11097 21.336 50.7707 56.2783 H 0.0 **** 0.053
11098 H11098 20.6765 51.5098 57.7543 H 0.0 **** 0.053
11099 H11099 22.8846 55.3107 54.5732 H 0.0 **** 0.1268
11100 H11100 21.4386 56.9377 53.4182 H 0.0 **** 0.1268
11101 H11101 17.3716 54.4058 54.8631 H 0.0 **** 0.1268
11102 H11102 15.9746 56.016 53.7551 H 0.0 **** 0.1268
11103 H11103 19.9943 58.5828 52.2569 H 0.0 **** 0.1268
11104 H11104 13.0574 59.4627 51.5823 H 0.0 **** 0.1268
11105 H11105 12.0664 61.3643 49.3617 H 0.0 **** 0.053
11106 H11106 12.0732 62.2724 50.8817 H 0.0 **** 0.053
11107 H11107 11.6834 64.3181 48.7396 H 0.0 **** 0.1268
11108 H11108 16.6834 63.7964 48.7662 H 0.0 **** 0.1268
11109 H11109 16.8916 65.8854 47.4831 H 0.0 **** 0.1268
11110 H11110 11.9271 66.5039 47.6074 H 0.0 **** 0.1268
11111 H11111 12.3002 68.7555 46.4013 H 0.0 **** 0.053
11112 H11112 17.645 71.7694 42.3127 H 0.0 **** 0.053
11113 H11113 18.2885 70.4995 41.2924 H 0.0 **** 0.053
11114 H11114 17.9194 70.4695 44.2966 H 0.0 **** 0.053
11115 H11115 19.2517 69.8588 43.2976 H 0.0 **** 0.053
11116 H11116 17.9633 67.8928 44.146 H 0.0 **** 0.053
11117 H11117 17.6442 68.0638 42.4274 H 0.0 **** 0.053
11118 H11118 12.7228 69.3168 40.3233 H 0.0 **** 0.1268
11119 H11119 16.8823 72.6798 40.5403 H 0.0 **** 0.053
11120 H11120 17.5491 71.4105 39.5619 H 0.0 **** 0.053
11121 H11121 13.6429 70.3927 38.0659 H 0.0 **** 0.053
11122 H11122 12.908 71.6391 39.041 H 0.0 **** 0.053
11123 H11123 18.0984 74.0861 39.5415 H 0.0 **** 0.053
11124 H11124 18.7597 72.8465 38.5126 H 0.0 **** 0.053
11125 H11125 17.2396 74.8924 35.0143 H 0.0 **** 0.053
11126 H11126 16.5557 76.1414 36.0224 H 0.0 **** 0.053
11127 H11127 18.9089 76.9729 35.1323 H 0.0 **** 0.1268
11128 H11128 20.3497 73.7786 39.8985 H 0.0 **** 0.1268
11129 H11129 22.6113 74.4276 40.6143 H 0.0 **** 0.1268
11130 H11130 22.8498 77.2803 37.3818 H 0.0 **** 0.1268
11131 H11131 14.5433 75.6845 35.3653 H 0.0 **** 0.053
11132 H11132 15.2381 74.501 34.2974 H 0.0 **** 0.053
11133 H11133 12.8226 71.4413 36.2748 H 0.0 **** 0.053
11134 H11134 12.1401 72.6768 37.2992 H 0.0 **** 0.053
11135 H11135 10.5204 72.1718 35.2804 H 0.0 **** 0.1268
11136 H11136 14.0058 76.5378 33.5794 H 0.0 **** 0.053
11137 H11137 14.265 75.4376 32.2339 H 0.0 **** 0.053
11138 H11138 13.3865 77.5298 31.3373 H 0.0 **** 0.053
11139 H11139 12.0506 77.5417 32.5038 H 0.0 **** 0.053
11140 H11140 12.4649 75.3711 30.3686 H 0.0 **** 0.053
11141 H11141 11.2571 76.6742 30.2398 H 0.0 **** 0.053
11142 H11142 18.7927 51.8708 56.6036 H 0.0 **** 0.41
11143 H11143 14.4468 56.8799 53.2397 H 0.0 **** 0.41
11144 H11144 18.0761 68.859 45.8992 H 0.0 **** 0.053
11145 H11145 17.7499 67.093 45.9217 H 0.0 **** 0.053
11146 H11146 17.7217 68.0435 47.42 H 0.0 **** 0.053
11147 H11147 11.6719 67.4074 45.1886 H 0.0 **** 0.41
11148 H11148 9.00714 72.5111 33.7457 H 0.0 **** 0.41
11149 H11149 24.7234 77.0518 38.881 H 0.0 **** 0.053
11150 H11150 24.9456 75.3957 39.505 H 0.0 **** 0.053
11151 H11151 24.2587 76.6461 40.5548 H 0.0 **** 0.053
11152 H11152 18.5667 60.2387 51.1115 H 0.0 **** 0.1268
11153 C11153 40.9715 50.9989 43.0249 C.3 0.0 **** -0.106
11154 C11154 42.2881 51.8081 43.0733 C.3 0.0 **** -0.106
11155 C11155 43.3289 50.7588 43.3899 C.ar 0.0 **** 0.0
11156 C11156 42.6767 49.6227 43.9684 C.ar 0.0 **** 0.0
11157 C11157 41.1858 49.8489 44.0408 C.3 0.0 **** -0.106
11158 C11158 43.4003 48.5269 44.3625 C.ar 0.0 **** 0.042
11159 C11159 44.8274 48.5009 44.1893 C.ar 0.0 **** 0.0
11160 C11160 45.4772 49.6646 43.5945 C.ar 0.0 **** 0.0
11161 C11161 44.6838 50.7907 43.2027 C.ar 0.0 **** -0.1268
11162 C11162 46.8602 49.6441 43.4213 C.ar 0.0 **** -0.1268
11163 C11163 47.6497 48.5352 43.7978 C.ar 0.0 **** 0.0
11164 C11164 46.988 47.379 44.3847 C.ar 0.0 **** 0.0
11165 C11165 45.5893 47.4011 44.566 C.ar 0.0 **** -0.1268
11166 C11166 47.7606 46.2674 44.75 C.2 0.0 **** -0.1268
11167 C11167 49.1479 46.2305 44.5644 C.2 0.0 **** 0.0
11168 C11168 49.8202 47.393 43.9891 C.2 0.0 **** 0.0
11169 C11169 49.0421 48.5049 43.627 C.2 0.0 **** -0.1268
11170 C11170 51.2202 47.3755 43.8059 C.2 0.0 **** -0.1268
11171 C11171 51.9798 46.2602 44.1475 C.2 0.0 **** 0.2405
11172 C11172 51.3206 45.0828 44.7037 C.2 0.0 **** 0.0
11173 C11173 49.9378 45.0964 44.9035 C.2 0.0 **** 0.042
11174 C11174 52.1092 43.9338 45.0152 C.2 0.0 **** -0.1268
11175 C11175 53.4498 43.9923 44.7833 C.2 0.0 **** 0.0
11176 C11176 54.015 45.2097 44.2447 C.2 0.0 **** 0.2405
11177 N11177 53.3431 46.2958 43.9364 N.2 0.0 **** -0.481
11178 C11178 55.4541 45.0014 44.0819 C.ar 0.0 **** 0.0
11179 C11179 55.7673 43.67 44.4882 C.ar 0.0 **** 0.0
11180 C11180 54.5266 42.9579 44.9814 C.3 0.0 **** -0.106
11181 C11181 57.0517 43.1912 44.389 C.ar 0.0 **** -0.1268
11182 C11182 58.0767 44.0358 43.891 C.ar 0.0 **** 0.0
11183 C11183 57.7691 45.3943 43.5178 C.ar 0.0 **** 0.0
11184 C11184 56.4354 45.8568 43.6152 C.ar 0.0 **** -0.1268
11185 C11185 58.8102 46.2393 43.0356 C.ar 0.0 **** -0.1268
11186 C11186 60.095 45.7666 42.9015 C.ar 0.0 **** 0.0
11187 C11187 60.3683 44.4123 43.2287 C.ar 0.0 **** 0.0
11188 C11188 59.405 43.5668 43.7202 C.ar 0.0 **** -0.1268
11189 C11189 61.8146 44.069 42.9948 C.3 0.0 **** -0.053
11190 C11190 62.5912 45.047 43.8788 C.2 0.0 **** 0.0
11191 C11191 62.4706 46.437 43.4551 C.2 0.0 **** 0.0
11192 C11192 61.3115 46.5604 42.3816 C.3 0.0 **** 0.0
11193 C11193 63.0335 44.5783 45.0897 C.2 0.0 **** 0.0265
11194 C11194 63.9215 45.2837 46.0396 C.2 0.0 **** 0.367
11195 C11195 64.8938 46.255 45.4774 C.2 0.0 **** 0.052
11196 C11196 64.6203 47.2213 44.476 C.2 0.0 **** 0.0
11197 C11197 63.3053 47.4478 43.8589 C.2 0.0 **** 0.0
11198 C11198 65.6743 48.1027 44.0992 C.2 0.0 **** 0.0
11199 C11199 65.4879 49.2017 43.07 C.3 0.0 **** -0.106
11200 C11200 64.062 49.3783 42.5362 C.3 0.0 **** -0.106
11201 C11201 63.0839 48.9233 43.6213 C.3 0.0 **** -0.106
11202 C11202 66.1672 46.186 46.0568 C.2 0.0 **** -0.1268
11203 C11203 67.2063 47.011 45.6519 C.2 0.0 **** 0.0
11204 C11204 66.9533 47.9801 44.6704 C.2 0.0 **** 0.0
11205 C11205 68.0395 48.908 44.2149 C.3 0.0 **** -0.106
11206 C11206 69.3997 48.7214 44.8238 C.ar 0.0 **** 0.0
11207 C11207 69.6522 47.7438 45.7854 C.ar 0.0 **** 0.0
11208 C11208 68.5613 46.8352 46.2827 C.3 0.0 **** -0.106
11209 C11209 70.953 47.5939 46.3088 C.ar 0.0 **** 0.0
11210 C11210 71.9846 48.4225 45.8654 C.ar 0.0 **** 0.0
11211 C11211 71.7252 49.4231 44.9041 C.ar 0.0 **** 0.0
11212 C11212 70.4369 49.5715 44.3879 C.ar 0.0 **** 0.0
11213 C11213 70.1013 50.6254 43.3693 C.3 0.0 **** -0.106
11214 C11214 71.2337 51.4975 42.925 C.ar 0.0 **** 0.0
11215 C11215 72.5099 51.3439 43.4269 C.ar 0.0 **** 0.0
11216 C11216 72.8584 50.3088 44.4566 C.3 0.0 **** -0.106
11217 C11217 73.5333 52.2056 42.9466 C.ar 0.0 **** 0.1137
11218 N11218 73.3709 53.1558 42.0479 N.ar 0.0 **** -0.481
11219 C11219 72.1095 53.3234 41.5404 C.ar 0.0 **** 0.2405
11220 C11220 71.0029 52.5136 41.9529 C.ar 0.0 **** 0.0
11221 C11221 69.7315 52.7625 41.3742 C.ar 0.0 **** -0.1268
11222 C11222 69.5672 53.7619 40.4365 C.ar 0.0 **** -0.1268
11223 C11223 70.6586 54.5704 40.0178 C.ar 0.0 **** 0.0
11224 C11224 71.9057 54.3392 40.5731 C.ar 0.0 **** -0.1268
11225 C11225 73.3952 48.2751 46.3651 C.3 0.0 **** -0.106
11226 C11226 73.6424 47.2155 47.4029 C.ar 0.0 **** 0.0
11227 C11227 72.6 46.4006 47.8579 C.ar 0.0 **** 0.0
11228 C11228 71.1945 46.5251 47.3384 C.3 0.0 **** -0.106
11229 C11229 72.8533 45.4299 48.8271 C.ar 0.0 **** -0.1268
11230 C11230 74.1272 45.2493 49.3637 C.ar 0.0 **** 0.042
11231 C11231 75.2037 46.0694 48.9271 C.ar 0.0 **** 0.052
11232 C11232 74.9362 47.0455 47.932 C.ar 0.0 **** 0.0
11233 C11233 76.0398 47.9458 47.421 C.3 0.0 **** -0.106
11234 C11234 77.4449 47.4253 47.7067 C.3 0.0 **** -0.106
11235 C11235 77.5578 47.0409 49.1801 C.3 0.0 **** -0.086
11236 C11236 76.5634 45.9404 49.5276 C.2 0.0 **** 0.347
11237 O11237 42.8257 47.4093 44.9232 O.3 0.0 **** -0.452
11238 O11238 49.3791 43.9615 45.4348 O.3 0.0 **** -0.452
11239 C11239 60.8348 47.9406 41.9334 C.3 0.0 **** -0.159
11240 O11240 62.7097 43.3351 45.5591 O.3 0.0 **** -0.4365
11241 O11241 63.9802 44.9277 47.2188 O.2 0.0 **** -0.419
11242 O11242 74.3423 44.3037 50.3227 O.3 0.0 **** -0.452
11243 O11243 76.8936 45.0177 50.2657 O.2 0.0 **** -0.419
11244 C11244 70.4376 55.6511 38.9935 C.3 0.0 **** -0.159
11245 C11245 62.1239 44.4037 41.5655 C.2 0.0 **** 0.0
11246 C11246 61.891 45.7267 41.2179 C.2 0.0 **** 0.0
11247 C11247 62.206 46.1539 39.8911 C.2 0.0 **** 0.042
11248 C11248 62.6312 45.1875 38.9438 C.2 0.0 **** 0.052
11249 C11249 62.8077 43.8309 39.3127 C.2 0.0 **** 0.052
11250 C11250 62.5849 43.4357 40.644 C.2 0.0 **** 0.042
11251 C11251 63.1973 42.8382 38.3315 C.2 0.0 **** 0.367
11252 C11252 63.3554 43.2525 36.932 C.ar 0.0 **** 0.0
11253 C11253 63.1993 44.5589 36.572 C.ar 0.0 **** 0.0
11254 C11254 62.8642 45.5861 37.5691 C.2 0.0 **** 0.367
11255 C11255 63.3591 45.0214 35.1589 C.3 0.0 **** -0.106
11256 C11256 63.5651 43.9238 34.1536 C.2 0.0 **** 0.0
11257 C11257 63.691 42.6325 34.5068 C.2 0.0 **** 0.0
11258 C11258 63.6731 42.1801 35.9403 C.3 0.0 **** -0.106
11259 C11259 63.8632 41.5276 33.493 C.3 0.0 **** -0.106
11260 C11260 63.513 41.9625 32.0667 C.3 0.0 **** -0.106
11261 C11261 64.1495 43.3203 31.7574 C.3 0.0 **** -0.106
11262 C11262 63.6149 44.387 32.7188 C.3 0.0 **** -0.106
11263 O11263 62.7618 42.1707 41.0465 O.3 0.0 **** -0.452
11264 O11264 62.1013 47.4354 39.523 O.3 0.0 **** -0.452
11265 O11265 63.3819 41.6293 38.6611 O.2 0.0 **** -0.419
11266 O11266 62.7649 46.7981 37.2066 O.2 0.0 **** -0.419
11267 H11267 62.481 45.6358 34.8848 H 0.0 **** 0.053
11268 H11268 64.1949 45.7469 35.1137 H 0.0 **** 0.053
11269 H11269 64.6393 41.7116 36.2118 H 0.0 **** 0.053
11270 H11270 62.9495 41.3539 36.0724 H 0.0 **** 0.053
11271 H11271 64.9074 41.1631 33.533 H 0.0 **** 0.053
11272 H11272 63.2399 40.6674 33.794 H 0.0 **** 0.053
11273 H11273 62.4171 42.0485 31.9745 H 0.0 **** 0.053
11274 H11274 63.8412 41.1998 31.3441 H 0.0 **** 0.053
11275 H11275 63.9598 43.6171 30.7141 H 0.0 **** 0.053
11276 H11276 65.2429 43.2399 31.8784 H 0.0 **** 0.053
11277 H11277 62.5994 44.7024 32.4118 H 0.0 **** 0.053
11278 H11278 64.2337 45.2997 32.6607 H 0.0 **** 0.053
11279 H11279 63.0568 41.6753 40.1995 H 0.0 **** 0.41
11280 H11280 62.3571 47.441 38.522 H 0.0 **** 0.41
11281 H11281 40.8525 50.5662 42.0201 H 0.0 **** 0.053
11282 H11282 40.0807 51.6027 43.2447 H 0.0 **** 0.053
11283 H11283 42.4961 52.3572 42.1443 H 0.0 **** 0.053
11284 H11284 42.2509 52.5493 43.8913 H 0.0 **** 0.053
11285 H11285 40.8878 50.1676 45.0565 H 0.0 **** 0.053
11286 H11286 40.5881 48.9557 43.7912 H 0.0 **** 0.053
11287 H11287 45.18 51.6556 42.7588 H 0.0 **** 0.1268
11288 H11288 47.3526 50.5142 42.9807 H 0.0 **** 0.1268
11289 H11289 45.0964 46.532 45.0031 H 0.0 **** 0.1268
11290 H11290 47.2192 45.4219 45.1873 H 0.0 **** 0.1268
11291 H11291 49.5425 49.3744 43.1945 H 0.0 **** 0.1268
11292 H11292 51.6245 43.0453 45.4209 H 0.0 **** 0.1268
11293 H11293 54.6246 42.6626 46.0398 H 0.0 **** 0.053
11294 H11294 54.329 42.0355 44.4106 H 0.0 **** 0.053
11295 H11295 57.3013 42.1681 44.6801 H 0.0 **** 0.1268
11296 H11296 56.181 46.8754 43.3165 H 0.0 **** 0.1268
11297 H11297 58.5483 47.2629 42.7697 H 0.0 **** 0.1268
11298 H11298 59.6394 42.5249 43.9555 H 0.0 **** 0.1268
11299 H11299 62.0561 43.0198 43.1952 H 0.0 **** 0.053
11300 H11300 66.1939 49.047 42.2367 H 0.0 **** 0.053
11301 H11301 65.8034 50.1501 43.5399 H 0.0 **** 0.053
11302 H11302 63.9007 48.7725 41.631 H 0.0 **** 0.053
11303 H11303 63.8946 50.4306 42.2606 H 0.0 **** 0.053
11304 H11304 62.0529 49.1732 43.3885 H 0.0 **** 0.053
11305 H11305 63.3325 49.4494 44.5594 H 0.0 **** 0.053
11306 H11306 66.3283 45.4453 46.8422 H 0.0 **** 0.1268
11307 H11307 68.1274 48.8405 43.1146 H 0.0 **** 0.053
11308 H11308 67.7071 49.9507 44.3811 H 0.0 **** 0.053
11309 H11309 68.4591 46.953 47.3778 H 0.0 **** 0.053
11310 H11310 68.874 45.7833 46.1514 H 0.0 **** 0.053
11311 H11311 69.655 50.1494 42.4766 H 0.0 **** 0.053
11312 H11312 69.2903 51.2685 43.7601 H 0.0 **** 0.053
11313 H11313 73.296 50.8173 45.3366 H 0.0 **** 0.053
11314 H11314 73.6844 49.6833 44.0688 H 0.0 **** 0.053
11315 H11315 74.548 52.082 43.346 H 0.0 **** 0.1268
11316 H11316 68.874 52.1584 41.6739 H 0.0 **** 0.1268
11317 H11317 68.5803 53.9389 40.0029 H 0.0 **** 0.1268
11318 H11318 72.7719 54.9366 40.283 H 0.0 **** 0.1268
11319 H11319 74.0494 48.0917 45.4914 H 0.0 **** 0.053
11320 H11320 73.7472 49.2487 46.7539 H 0.0 **** 0.053
11321 H11321 70.5168 46.6828 48.1984 H 0.0 **** 0.053
11322 H11322 70.8843 45.5461 46.9277 H 0.0 **** 0.053
11323 H11323 72.0333 44.796 49.1797 H 0.0 **** 0.1268
11324 H11324 75.9166 48.1063 46.3397 H 0.0 **** 0.053
11325 H11325 75.9176 48.9437 47.8846 H 0.0 **** 0.053
11326 H11326 78.1933 48.1857 47.4375 H 0.0 **** 0.053
11327 H11327 77.6418 46.538 47.0825 H 0.0 **** 0.053
11328 H11328 77.3235 47.9203 49.8083 H 0.0 **** 0.053
11329 H11329 78.5583 46.6849 49.4587 H 0.0 **** 0.053
11330 H11330 41.8677 47.5565 44.9778 H 0.0 **** 0.41
11331 H11331 48.4178 44.0747 45.4941 H 0.0 **** 0.41
11332 H11332 61.6359 48.5572 41.5266 H 0.0 **** 0.053
11333 H11333 60.3393 48.4568 42.7652 H 0.0 **** 0.053
11334 H11334 60.0945 47.7996 41.1351 H 0.0 **** 0.053
11335 H11335 61.9114 43.0148 45.1088 H 0.0 **** 0.41
11336 H11336 73.4909 43.877 50.518 H 0.0 **** 0.41
11337 H11337 71.3693 56.19 38.7758 H 0.0 **** 0.053
11338 H11338 69.6904 56.3792 39.3477 H 0.0 **** 0.053
11339 H11339 70.0533 55.2278 38.0515 H 0.0 **** 0.053
11340 H11340 51.728 48.2434 43.385 H 0.0 **** 0.1268
11341 C11341 58.14 62.0589 73.3709 C.3 0.0 **** -0.106
11342 C11342 59.108 62.576 72.2817 C.3 0.0 **** -0.106
11343 C11343 58.8224 61.671 71.1055 C.ar 0.0 **** 0.0
11344 C11344 58.1904 60.4784 71.5844 C.ar 0.0 **** 0.0
11345 C11345 58.0051 60.5428 73.0813 C.3 0.0 **** -0.106
11346 C11346 57.8359 59.4782 70.7164 C.ar 0.0 **** 0.042
11347 C11347 58.0859 59.6197 69.3075 C.ar 0.0 **** 0.0
11348 C11348 58.7269 60.8425 68.8341 C.ar 0.0 **** 0.0
11349 C11349 59.0864 61.8594 69.7763 C.ar 0.0 **** -0.1268
11350 C11350 58.9692 60.9867 67.469 C.ar 0.0 **** -0.1268
11351 C11351 58.6115 59.9925 66.5318 C.ar 0.0 **** 0.0
11352 C11352 57.9678 58.7803 67.017 C.ar 0.0 **** 0.0
11353 C11353 57.7276 58.6308 68.3989 C.ar 0.0 **** -0.1268
11354 C11354 57.5966 57.7925 66.0936 C.2 0.0 **** -0.1268
11355 C11355 57.8202 57.9355 64.7189 C.2 0.0 **** 0.0
11356 C11356 58.4787 59.1432 64.2267 C.2 0.0 **** 0.0
11357 C11357 58.8506 60.1287 65.1559 C.2 0.0 **** -0.1268
11358 C11358 58.7213 59.2973 62.8443 C.2 0.0 **** -0.1268
11359 C11359 58.3289 58.3247 61.9289 C.2 0.0 **** 0.2405
11360 C11360 57.6509 57.122 62.4022 C.2 0.0 **** 0.0
11361 C11361 57.4206 56.9531 63.77 C.2 0.0 **** 0.042
11362 C11362 57.2228 56.1508 61.447 C.2 0.0 **** -0.1268
11363 C11363 57.4739 56.3903 60.1302 C.2 0.0 **** 0.0
11364 C11364 58.1671 57.604 59.7588 C.2 0.0 **** 0.2405
11365 N11365 58.5827 58.5339 60.5887 N.2 0.0 **** -0.481
11366 C11366 58.2945 57.6187 58.3012 C.ar 0.0 **** 0.0
11367 C11367 57.6676 56.4475 57.7806 C.ar 0.0 **** 0.0
11368 C11368 57.1336 55.5853 58.9035 C.3 0.0 **** -0.106
11369 C11369 57.5976 56.2345 56.4247 C.ar 0.0 **** -0.1268
11370 C11370 58.1676 57.1828 55.5371 C.ar 0.0 **** 0.0
11371 C11371 58.8366 58.3467 56.0635 C.ar 0.0 **** 0.0
11372 C11372 58.8806 58.5495 57.4631 C.ar 0.0 **** -0.1268
11373 C11373 59.4213 59.2835 55.1629 C.ar 0.0 **** -0.1268
11374 C11374 59.3337 59.101 53.8024 C.ar 0.0 **** 0.0
11375 C11375 58.6295 57.9739 53.3026 C.ar 0.0 **** 0.0
11376 C11376 58.071 57.0311 54.1296 C.ar 0.0 **** -0.1268
11377 C11377 58.6155 57.9544 51.7981 C.3 0.0 **** -0.053
11378 C11378 60.0924 57.9389 51.3987 C.2 0.0 **** 0.0
11379 C11379 60.802 59.1652 51.7434 C.2 0.0 **** 0.0
11380 C11380 59.9038 60.0363 52.7159 C.3 0.0 **** 0.0
11381 C11381 60.6366 56.7246 51.0655 C.2 0.0 **** 0.0265
11382 C11382 61.9867 56.4834 50.5111 C.2 0.0 **** 0.367
11383 C11383 62.5942 57.562 49.6911 C.2 0.0 **** 0.052
11384 C11384 62.5892 58.946 50.0009 C.2 0.0 **** 0.0
11385 C11385 62.0138 59.5359 51.2184 C.2 0.0 **** 0.0
11386 C11386 63.2705 59.8271 49.1126 C.2 0.0 **** 0.0
11387 C11387 63.3674 61.3205 49.3622 C.3 0.0 **** -0.106
11388 C11388 62.7791 61.8125 50.6893 C.3 0.0 **** -0.106
11389 C11389 62.8766 60.6752 51.7082 C.3 0.0 **** -0.106
11390 C11390 63.2491 57.1028 48.5411 C.2 0.0 **** -0.1268
11391 C11391 63.8677 57.9681 47.6507 C.2 0.0 **** 0.0
11392 C11392 63.8828 59.3391 47.9446 C.2 0.0 **** 0.0
11393 C11393 64.5565 60.3109 47.0225 C.3 0.0 **** -0.106
11394 C11394 65.1677 59.7541 45.7686 C.ar 0.0 **** 0.0
11395 C11395 65.1338 58.3925 45.4702 C.ar 0.0 **** 0.0
11396 C11396 64.4992 57.4016 46.4076 C.3 0.0 **** -0.106
11397 C11397 65.7016 57.9233 44.2679 C.ar 0.0 **** 0.0
11398 C11398 66.2964 58.8199 43.3792 C.ar 0.0 **** 0.0
11399 C11399 66.3454 60.1962 43.6891 C.ar 0.0 **** 0.0
11400 C11400 65.7843 60.6592 44.8804 C.ar 0.0 **** 0.0
11401 C11401 65.8156 62.1122 45.2659 C.3 0.0 **** -0.106
11402 C11402 66.4682 63.0398 44.2893 C.ar 0.0 **** 0.0
11403 C11403 67.0132 62.584 43.1064 C.ar 0.0 **** 0.0
11404 C11404 67.006 61.1352 42.714 C.3 0.0 **** -0.106
11405 C11405 67.6064 63.53 42.2268 C.ar 0.0 **** 0.1137
11406 N11406 67.6843 64.8279 42.4425 N.ar 0.0 **** -0.481
11407 C11407 67.1498 65.2974 43.6132 C.ar 0.0 **** 0.2405
11408 C11408 66.5292 64.4349 44.5732 C.ar 0.0 **** 0.0
11409 C11409 66.006 65.0112 45.7596 C.ar 0.0 **** -0.1268
11410 C11410 66.0943 66.3707 45.9813 C.ar 0.0 **** -0.1268
11411 C11411 66.706 67.2366 45.0348 C.ar 0.0 **** 0.0
11412 C11412 67.2208 66.6891 43.8718 C.ar 0.0 **** -0.1268
11413 C11413 66.8802 58.3724 42.0677 C.3 0.0 **** -0.106
11414 C11414 66.8336 56.8995 41.7692 C.ar 0.0 **** 0.0
11415 C11415 66.2532 56.0028 42.6729 C.ar 0.0 **** 0.0
11416 C11416 65.6415 56.4504 43.9715 C.3 0.0 **** -0.106
11417 C11417 66.2293 54.6399 42.3765 C.ar 0.0 **** -0.1268
11418 C11418 66.7762 54.1402 41.1956 C.ar 0.0 **** 0.042
11419 C11419 67.3809 55.027 40.263 C.ar 0.0 **** 0.052
11420 C11420 67.3887 56.4127 40.5701 C.ar 0.0 **** 0.0
11421 C11421 68.0118 57.4087 39.6166 C.3 0.0 **** -0.106
11422 C11422 68.1874 56.8794 38.1967 C.3 0.0 **** -0.106
11423 C11423 68.8718 55.5152 38.2409 C.3 0.0 **** -0.086
11424 C11424 68.0285 54.5142 39.0205 C.2 0.0 **** 0.347
11425 O11425 57.2267 58.3128 71.1215 O.3 0.0 **** -0.452
11426 O11426 56.7844 55.799 64.1516 O.3 0.0 **** -0.452
11427 C11427 60.4961 61.268 53.398 C.3 0.0 **** -0.159
11428 O11428 59.9448 55.5511 51.1876 O.3 0.0 **** -0.4365
11429 O11429 62.4909 55.3594 50.5666 O.2 0.0 **** -0.419
11430 O11430 66.7538 52.8007 40.9397 O.3 0.0 **** -0.452
11431 O11431 67.9134 53.3592 38.6233 O.2 0.0 **** -0.419
11432 C11432 66.7835 68.7137 45.3147 C.3 0.0 **** -0.159
11433 C11433 58.035 59.2608 51.3434 C.2 0.0 **** 0.0
11434 C11434 58.7143 60.3837 51.7943 C.2 0.0 **** 0.0
11435 C11435 58.2674 61.6731 51.3701 C.2 0.0 **** 0.042
11436 C11436 57.0776 61.7671 50.6035 C.2 0.0 **** 0.052
11437 C11437 56.3725 60.6051 50.2031 C.2 0.0 **** 0.052
11438 C11438 56.8699 59.3349 50.546 C.2 0.0 **** 0.042
11439 C11439 55.1328 60.7068 49.4598 C.2 0.0 **** 0.367
11440 C11440 54.5888 62.0399 49.1725 C.ar 0.0 **** 0.0
11441 C11441 55.2686 63.1626 49.544 C.ar 0.0 **** 0.0
11442 C11442 56.5579 63.0724 50.2446 C.2 0.0 **** 0.367
11443 C11443 54.7515 64.5375 49.2632 C.3 0.0 **** -0.106
11444 C11444 53.3715 64.5854 48.6705 C.2 0.0 **** 0.0
11445 C11445 52.6905 63.477 48.3305 C.2 0.0 **** 0.0
11446 C11446 53.2655 62.0961 48.4799 C.3 0.0 **** -0.106
11447 C11447 51.2908 63.5261 47.7676 C.3 0.0 **** -0.106
11448 C11448 50.61 64.883 47.9705 C.3 0.0 **** -0.106
11449 C11449 51.5695 66.0163 47.5968 C.3 0.0 **** -0.106
11450 C11450 52.812 65.9751 48.4925 C.3 0.0 **** -0.106
11451 O11451 56.2528 58.2074 50.1702 O.3 0.0 **** -0.452
11452 O11452 58.9375 62.7867 51.6853 O.3 0.0 **** -0.452
11453 O11453 54.5122 59.6713 49.0769 O.2 0.0 **** -0.419
11454 O11454 57.1826 64.1366 50.5407 O.2 0.0 **** -0.419
11455 H11455 54.7912 65.1295 50.1968 H 0.0 **** 0.053
11456 H11456 55.4718 65.0615 48.6048 H 0.0 **** 0.053
11457 H11457 53.3534 61.6031 47.492 H 0.0 **** 0.053
11458 H11458 52.5568 61.4426 49.0225 H 0.0 **** 0.053
11459 H11459 51.3283 63.2777 46.6897 H 0.0 **** 0.053
11460 H11460 50.6912 62.7243 48.2333 H 0.0 **** 0.053
11461 H11461 50.3233 64.9881 49.0305 H 0.0 **** 0.053
11462 H11462 49.685 64.9382 47.3765 H 0.0 **** 0.053
11463 H11463 51.0737 66.9962 47.6766 H 0.0 **** 0.053
11464 H11464 51.8779 65.8931 46.5449 H 0.0 **** 0.053
11465 H11465 52.5772 66.394 49.4897 H 0.0 **** 0.053
11466 H11466 53.6026 66.6271 48.0812 H 0.0 **** 0.053
11467 H11467 55.4343 58.5306 49.6453 H 0.0 **** 0.41
11468 H11468 58.3751 63.5531 51.2803 H 0.0 **** 0.41
11469 H11469 57.1573 62.5346 73.2333 H 0.0 **** 0.053
11470 H11470 58.4817 62.2698 74.3933 H 0.0 **** 0.053
11471 H11471 58.9735 63.642 72.0501 H 0.0 **** 0.053
11472 H11472 60.1552 62.4403 72.6059 H 0.0 **** 0.053
11473 H11473 58.8013 59.9764 73.5984 H 0.0 **** 0.053
11474 H11474 57.0393 60.1369 73.4275 H 0.0 **** 0.053
11475 H11475 59.5652 62.7699 69.4115 H 0.0 **** 0.1268
11476 H11476 59.4529 61.898 67.1094 H 0.0 **** 0.1268
11477 H11477 57.2423 57.7228 68.7586 H 0.0 **** 0.1268
11478 H11478 57.1156 56.8989 66.5052 H 0.0 **** 0.1268
11479 H11479 59.3412 61.0336 64.7897 H 0.0 **** 0.1268
11480 H11480 56.7056 55.2541 61.7897 H 0.0 **** 0.1268
11481 H11481 57.6158 54.5931 58.9149 H 0.0 **** 0.053
11482 H11482 56.0491 55.4111 58.8066 H 0.0 **** 0.053
11483 H11483 57.1049 55.3506 56.0125 H 0.0 **** 0.1268
11484 H11484 59.3639 59.436 57.8777 H 0.0 **** 0.1268
11485 H11485 59.9271 60.1484 55.591 H 0.0 **** 0.1268
11486 H11486 57.5253 56.177 53.7192 H 0.0 **** 0.1268
11487 H11487 58.0442 57.122 51.3738 H 0.0 **** 0.053
11488 H11488 62.9142 61.8637 48.5159 H 0.0 **** 0.053
11489 H11489 64.438 61.5902 49.335 H 0.0 **** 0.053
11490 H11490 61.7224 62.099 50.5715 H 0.0 **** 0.053
11491 H11491 63.3247 62.7053 51.0309 H 0.0 **** 0.053
11492 H11492 62.6371 60.995 52.7181 H 0.0 **** 0.053
11493 H11493 63.9193 60.3135 51.7301 H 0.0 **** 0.053
11494 H11494 63.2515 56.0275 48.3533 H 0.0 **** 0.1268
11495 H11495 63.8335 61.1013 46.748 H 0.0 **** 0.053
11496 H11496 65.3313 60.8598 47.5915 H 0.0 **** 0.053
11497 H11497 65.2517 56.6477 46.7057 H 0.0 **** 0.053
11498 H11498 63.7347 56.8199 45.8613 H 0.0 **** 0.053
11499 H11499 64.7856 62.4685 45.4525 H 0.0 **** 0.053
11500 H11500 66.3153 62.2209 46.247 H 0.0 **** 0.053
11501 H11501 68.0494 60.8096 42.5408 H 0.0 **** 0.053
11502 H11502 66.525 61.036 41.7228 H 0.0 **** 0.053
11503 H11503 68.039 63.1664 41.286 H 0.0 **** 0.1268
11504 H11504 65.5294 64.3734 46.5053 H 0.0 **** 0.1268
11505 H11505 65.6863 66.7956 46.9013 H 0.0 **** 0.1268
11506 H11506 67.7009 67.3155 43.1178 H 0.0 **** 0.1268
11507 H11507 66.3669 58.9265 41.2587 H 0.0 **** 0.053
11508 H11508 67.9275 58.7208 41.9976 H 0.0 **** 0.053
11509 H11509 66.1214 55.8895 44.7954 H 0.0 **** 0.053
11510 H11510 64.5876 56.1159 43.9966 H 0.0 **** 0.053
11511 H11511 65.7746 53.9433 43.0882 H 0.0 **** 0.1268
11512 H11512 67.4105 58.3296 39.5971 H 0.0 **** 0.053
11513 H11513 68.9983 57.7073 40.0207 H 0.0 **** 0.053
11514 H11514 68.7679 57.5941 37.5943 H 0.0 **** 0.053
11515 H11515 67.1993 56.776 37.7185 H 0.0 **** 0.053
11516 H11516 69.8467 55.6096 38.7542 H 0.0 **** 0.053
11517 H11517 69.0552 55.0909 37.245 H 0.0 **** 0.053
11518 H11518 57.1141 58.3493 72.0851 H 0.0 **** 0.41
11519 H11519 56.6491 55.8097 65.1118 H 0.0 **** 0.41
11520 H11520 60.8989 61.994 52.6922 H 0.0 **** 0.053
11521 H11521 61.2669 60.966 54.1182 H 0.0 **** 0.053
11522 H11522 59.6914 61.7659 53.9543 H 0.0 **** 0.053
11523 H11523 59.215 55.6675 51.8172 H 0.0 **** 0.41
11524 H11524 66.3416 52.3579 41.7006 H 0.0 **** 0.41
11525 H11525 67.2844 69.2482 44.4967 H 0.0 **** 0.053
11526 H11526 67.3388 68.9068 46.2465 H 0.0 **** 0.053
11527 H11527 65.7771 69.1428 45.4448 H 0.0 **** 0.053
11528 H11528 59.2199 60.1924 62.4724 H 0.0 **** 0.1268
11529 C11529 0.536062 36.4845 17.2817 C.3 0.0 **** -0.106
11530 C11530 1.84075 37.2212 17.6634 C.3 0.0 **** -0.106
11531 C11531 2.8414 36.0987 17.8152 C.ar 0.0 **** 0.0
11532 C11532 2.13073 34.8731 18.0246 C.ar 0.0 **** 0.0
11533 C11533 0.640731 35.1146 17.9977 C.3 0.0 **** -0.106
11534 C11534 2.80772 33.6949 18.2071 C.ar 0.0 **** 0.042
11535 C11535 4.24513 33.674 18.1799 C.ar 0.0 **** 0.0
11536 C11536 4.95516 34.9303 17.9614 C.ar 0.0 **** 0.0
11537 C11537 4.20852 36.1391 17.7815 C.ar 0.0 **** -0.1268
11538 C11538 6.34863 34.9158 17.931 C.ar 0.0 **** -0.1268
11539 C11539 7.09301 33.7275 18.1001 C.ar 0.0 **** 0.0
11540 C11540 6.37206 32.4806 18.3116 C.ar 0.0 **** 0.0
11541 C11541 4.96205 32.4952 18.3485 C.ar 0.0 **** -0.1268
11542 C11542 7.10088 31.293 18.4674 C.2 0.0 **** -0.1268
11543 C11543 8.5 31.2656 18.4215 C.2 0.0 **** 0.0
11544 C11544 9.23025 32.5154 18.2238 C.2 0.0 **** 0.0
11545 C11545 8.49571 33.7027 18.0705 C.2 0.0 **** -0.1268
11546 C11546 10.6417 32.5058 18.1862 C.2 0.0 **** -0.1268
11547 C11547 11.3602 31.3206 18.3169 C.2 0.0 **** 0.2405
11548 C11548 10.6449 30.0608 18.4939 C.2 0.0 **** 0.0
11549 C11549 9.24871 30.062 18.5483 C.2 0.0 **** 0.042
11550 C11550 11.3952 28.8497 18.5904 C.2 0.0 **** -0.1268
11551 C11551 12.7528 28.9273 18.5185 C.2 0.0 **** 0.0
11552 C11552 13.3728 30.2241 18.3589 C.2 0.0 **** 0.2405
11553 N11553 12.7381 31.3704 18.262 N.2 0.0 **** -0.481
11554 C11554 14.8209 30.0236 18.2978 C.ar 0.0 **** 0.0
11555 C11555 15.0883 28.6253 18.3917 C.ar 0.0 **** 0.0
11556 C11556 13.8018 27.8474 18.5636 C.3 0.0 **** -0.106
11557 C11557 16.3756 28.1512 18.309 C.ar 0.0 **** -0.1268
11558 C11558 17.4482 29.0645 18.1432 C.ar 0.0 **** 0.0
11559 C11559 17.1828 30.4808 18.0885 C.ar 0.0 **** 0.0
11560 C11560 15.8467 30.9408 18.1603 C.ar 0.0 **** -0.1268
11561 C11561 18.2699 31.3901 17.9397 C.ar 0.0 **** -0.1268
11562 C11562 19.5612 30.9306 17.8249 C.ar 0.0 **** 0.0
11563 C11563 19.7974 29.5305 17.8329 C.ar 0.0 **** 0.0
11564 C11564 18.7868 28.6163 17.9985 C.ar 0.0 **** -0.1268
11565 C11565 21.26 29.2165 17.6706 C.3 0.0 **** -0.053
11566 C11566 21.9394 29.9256 18.8439 C.2 0.0 **** 0.0
11567 C11567 21.8654 31.3798 18.7675 C.2 0.0 **** 0.0
11568 C11568 20.8265 31.7948 17.6451 C.3 0.0 **** 0.0
11569 C11569 22.2507 29.1616 19.9398 C.2 0.0 **** 0.0265
11570 C11570 23.0337 29.5874 21.1205 C.2 0.0 **** 0.367
11571 C11571 24.0608 30.6406 20.9188 C.2 0.0 **** 0.052
11572 C11572 23.8956 31.8307 20.1652 C.2 0.0 **** 0.0
11573 C11573 22.6534 32.2373 19.4921 C.2 0.0 **** 0.0
11574 C11574 24.9841 32.749 20.1283 C.2 0.0 **** 0.0
11575 C11575 24.9086 34.0721 19.3896 C.3 0.0 **** -0.106
11576 C11576 23.5473 34.4129 18.7732 C.3 0.0 **** -0.106
11577 C11577 22.4595 33.7313 19.6059 C.3 0.0 **** -0.106
11578 C11578 25.2657 30.3969 21.5903 C.2 0.0 **** -0.1268
11579 C11579 26.3425 31.2679 21.5108 C.2 0.0 **** 0.0
11580 C11580 26.1954 32.4552 20.7792 C.2 0.0 **** 0.0
11581 C11581 27.3245 33.437 20.6812 C.3 0.0 **** -0.106
11582 C11582 28.6125 33.0698 21.3609 C.ar 0.0 **** 0.0
11583 C11583 28.7611 31.8792 22.0712 C.ar 0.0 **** 0.0
11584 C11584 27.6229 30.9058 22.2137 C.3 0.0 **** -0.106
11585 C11585 29.999 31.5701 22.6715 C.ar 0.0 **** 0.0
11586 C11586 31.0723 32.4542 22.555 C.ar 0.0 **** 0.0
11587 C11587 30.9169 33.6672 21.85 C.ar 0.0 **** 0.0
11588 C11588 29.6906 33.9727 21.2575 C.ar 0.0 **** 0.0
11589 C11589 29.4655 35.2535 20.5027 C.3 0.0 **** -0.106
11590 C11590 30.6392 36.1773 20.4064 C.ar 0.0 **** 0.0
11591 C11591 31.855 35.8707 20.9826 C.ar 0.0 **** 0.0
11592 C11592 32.0918 34.6049 21.754 C.3 0.0 **** -0.106
11593 C11593 32.9241 36.7961 20.8379 C.ar 0.0 **** 0.1137
11594 N11594 32.8585 37.9423 20.1907 N.ar 0.0 **** -0.481
11595 C11595 31.658 38.2635 19.6141 C.ar 0.0 **** 0.2405
11596 C11596 30.5134 37.4072 19.6978 C.ar 0.0 **** 0.0
11597 C11597 29.3105 37.825 19.0717 C.ar 0.0 **** -0.1268
11598 C11598 29.2472 39.0285 18.3988 C.ar 0.0 **** -0.1268
11599 C11599 30.3773 39.8854 18.3073 C.ar 0.0 **** 0.0
11600 C11600 31.5585 39.4912 18.9128 C.ar 0.0 **** -0.1268
11601 C11601 32.422 32.1504 23.1443 C.3 0.0 **** -0.106
11602 C11602 32.5572 30.8618 23.9072 C.ar 0.0 **** 0.0
11603 C11603 31.4719 29.9883 24.0371 C.ar 0.0 **** 0.0
11604 C11604 30.1293 30.2746 23.4235 C.3 0.0 **** -0.106
11605 C11605 31.6205 28.8025 24.7565 C.ar 0.0 **** -0.1268
11606 C11606 32.8303 28.4612 25.3592 C.ar 0.0 **** 0.042
11607 C11607 33.9475 29.3343 25.2517 C.ar 0.0 **** 0.052
11608 C11608 33.7876 30.5321 24.5073 C.ar 0.0 **** 0.0
11609 C11609 34.9398 31.5004 24.3508 C.3 0.0 **** -0.106
11610 C11610 36.3064 30.8879 24.641 C.3 0.0 **** -0.106
11611 C11611 36.2624 30.1498 25.9769 C.3 0.0 **** -0.086
11612 C11612 35.236 29.0248 25.9375 C.2 0.0 **** 0.347
11613 O11613 2.17622 32.4896 18.4118 O.3 0.0 **** -0.452
11614 O11614 8.636 28.8468 18.722 O.3 0.0 **** -0.452
11615 C11615 20.4009 33.2552 17.5061 C.3 0.0 **** -0.159
11616 O11616 21.8782 27.8503 20.0511 O.3 0.0 **** -0.4365
11617 O11617 22.967 28.9507 22.1745 O.2 0.0 **** -0.419
11618 O11618 32.942 27.3032 26.071 O.3 0.0 **** -0.452
11619 O11619 35.4855 27.9403 26.454 O.2 0.0 **** -0.419
11620 C11620 30.2668 41.1906 17.5654 C.3 0.0 **** -0.159
11621 C11621 21.7191 29.8842 16.408 C.2 0.0 **** 0.0
11622 C11622 21.5253 31.2578 16.3769 C.2 0.0 **** 0.0
11623 C11623 21.9793 31.9897 15.2365 C.2 0.0 **** 0.042
11624 C11624 22.5016 31.2751 14.1281 C.2 0.0 **** 0.052
11625 C11625 22.6371 29.8652 14.1658 C.2 0.0 **** 0.052
11626 C11626 22.2743 29.1607 15.3277 C.2 0.0 **** 0.042
11627 C11627 23.1275 29.1343 13.0146 C.2 0.0 **** 0.367
11628 C11628 23.4332 29.8759 11.7849 C.ar 0.0 **** 0.0
11629 C11629 23.317 31.2344 11.7456 C.ar 0.0 **** 0.0
11630 C11630 22.8791 31.9933 12.9262 C.2 0.0 **** 0.367
11631 C11631 23.6258 32.026 10.515 C.3 0.0 **** -0.106
11632 C11632 23.9363 31.2044 9.29578 C.2 0.0 **** 0.0
11633 C11633 24.0231 29.863 9.32928 C.2 0.0 **** 0.0
11634 C11634 23.8533 29.0724 10.5966 C.3 0.0 **** -0.106
11635 C11635 24.3008 29.0373 8.09664 C.3 0.0 **** -0.106
11636 C11636 24.1039 29.8191 6.79426 C.3 0.0 **** -0.106
11637 C11637 24.7706 31.1937 6.89757 C.3 0.0 **** -0.106
11638 C11638 24.1381 32.0049 8.03315 C.3 0.0 **** -0.106
11639 O11639 22.4066 27.8312 15.4205 O.3 0.0 **** -0.452
11640 O11640 21.9151 33.3247 15.1884 O.3 0.0 **** -0.452
11641 O11641 23.2753 27.877 13.0517 O.2 0.0 **** -0.419
11642 O11642 22.8197 33.2595 12.8668 O.2 0.0 **** -0.419
11643 H11643 22.7822 32.7123 10.313 H 0.0 **** 0.053
11644 H11644 24.4623 32.7175 10.7366 H 0.0 **** 0.053
11645 H11645 24.7849 28.5256 10.8411 H 0.0 **** 0.053
11646 H11646 23.1192 28.2589 10.4452 H 0.0 **** 0.053
11647 H11647 25.3347 28.6462 8.15178 H 0.0 **** 0.053
11648 H11648 23.6485 28.1466 8.10992 H 0.0 **** 0.053
11649 H11649 23.024 29.9546 6.61454 H 0.0 **** 0.053
11650 H11650 24.5061 29.2492 5.94287 H 0.0 **** 0.053
11651 H11651 24.6925 31.743 5.9465 H 0.0 **** 0.053
11652 H11652 25.845 31.0565 7.10614 H 0.0 **** 0.053
11653 H11653 23.161 32.4134 7.71154 H 0.0 **** 0.053
11654 H11654 24.7601 32.8869 8.26651 H 0.0 **** 0.053
11655 H11655 22.7893 27.5517 14.512 H 0.0 **** 0.41
11656 H11656 22.2754 33.5696 14.2515 H 0.0 **** 0.41
11657 H11657 0.523692 36.3158 16.1944 H 0.0 **** 0.053
11658 H11658 -0.372615 37.0394 17.5518 H 0.0 **** 0.053
11659 H11659 2.14632 37.9763 16.9256 H 0.0 **** 0.053
11660 H11660 1.71772 37.7391 18.6313 H 0.0 **** 0.053
11661 H11661 0.237108 35.1814 19.0248 H 0.0 **** 0.053
11662 H11662 0.072109 34.3267 17.475 H 0.0 **** 0.053
11663 H11663 4.74955 37.073 17.6187 H 0.0 **** 0.1268
11664 H11664 6.88561 35.854 17.7723 H 0.0 **** 0.1268
11665 H11665 4.42503 31.5588 18.504 H 0.0 **** 0.1268
11666 H11666 6.51553 30.3808 18.624 H 0.0 **** 0.1268
11667 H11667 9.03976 34.6381 17.9203 H 0.0 **** 0.1268
11668 H11668 10.8696 27.902 18.7116 H 0.0 **** 0.1268
11669 H11669 13.787 27.2982 19.5203 H 0.0 **** 0.053
11670 H11670 13.665 27.0995 17.7651 H 0.0 **** 0.053
11671 H11671 16.5923 27.0816 18.3618 H 0.0 **** 0.1268
11672 H11672 15.6261 32.008 18.0987 H 0.0 **** 0.1268
11673 H11673 18.0383 32.4543 17.9101 H 0.0 **** 0.1268
11674 H11674 18.9942 27.5427 17.9913 H 0.0 **** 0.1268
11675 H11675 21.4781 28.1441 17.6286 H 0.0 **** 0.053
11676 H11676 25.6988 34.1082 18.6208 H 0.0 **** 0.053
11677 H11677 25.1733 34.8667 20.1095 H 0.0 **** 0.053
11678 H11678 23.4823 34.0531 17.7345 H 0.0 **** 0.053
11679 H11679 23.4108 35.5048 18.751 H 0.0 **** 0.053
11680 H11680 21.4592 34.0586 19.3379 H 0.0 **** 0.053
11681 H11681 22.6078 34.0035 20.6654 H 0.0 **** 0.053
11682 H11682 25.3422 29.4817 22.1801 H 0.0 **** 0.1268
11683 H11683 27.5283 33.64 19.6134 H 0.0 **** 0.053
11684 H11684 26.9772 34.4153 21.0654 H 0.0 **** 0.053
11685 H11685 27.4055 30.7532 23.2874 H 0.0 **** 0.053
11686 H11686 27.9469 29.9105 21.8588 H 0.0 **** 0.053
11687 H11687 29.1158 35.0241 19.4791 H 0.0 **** 0.053
11688 H11688 28.6182 35.8022 20.9553 H 0.0 **** 0.053
11689 H11689 32.4342 34.8693 22.7726 H 0.0 **** 0.053
11690 H11690 32.9537 34.0722 21.3102 H 0.0 **** 0.053
11691 H11691 33.8908 36.5507 21.296 H 0.0 **** 0.1268
11692 H11692 28.4257 37.1891 19.1231 H 0.0 **** 0.1268
11693 H11693 28.3118 39.3333 17.9239 H 0.0 **** 0.1268
11694 H11694 32.451 40.1181 18.8698 H 0.0 **** 0.1268
11695 H11695 33.1649 32.1701 22.3241 H 0.0 **** 0.053
11696 H11696 32.7317 32.9886 23.796 H 0.0 **** 0.053
11697 H11697 29.3646 30.2341 24.2218 H 0.0 **** 0.053
11698 H11698 29.8636 29.4356 22.7538 H 0.0 **** 0.053
11699 H11699 30.7673 28.1237 24.8554 H 0.0 **** 0.1268
11700 H11700 34.9319 31.9253 23.3362 H 0.0 **** 0.053
11701 H11701 34.77 32.3564 25.032 H 0.0 **** 0.053
11702 H11702 37.0796 31.6707 24.6465 H 0.0 **** 0.053
11703 H11703 36.5676 30.1765 23.8402 H 0.0 **** 0.053
11704 H11704 35.9636 30.8536 26.7759 H 0.0 **** 0.053
11705 H11705 37.2276 29.7094 26.2597 H 0.0 **** 0.053
11706 H11706 1.21789 32.6446 18.4028 H 0.0 **** 0.41
11707 H11707 7.67391 28.9677 18.7087 H 0.0 **** 0.41
11708 H11708 21.2411 33.9311 17.3488 H 0.0 **** 0.053
11709 H11709 19.8206 33.564 18.3846 H 0.0 **** 0.053
11710 H11710 19.7492 33.3349 16.6264 H 0.0 **** 0.053
11711 H11711 21.1317 27.6723 19.4563 H 0.0 **** 0.41
11712 H11712 32.0744 26.8647 26.0664 H 0.0 **** 0.41
11713 H11713 31.2167 41.7412 17.5844 H 0.0 **** 0.053
11714 H11714 29.4869 41.829 18.0104 H 0.0 **** 0.053
11715 H11715 29.9841 41.0226 16.5137 H 0.0 **** 0.053
11716 H11716 11.192 33.4365 18.0475 H 0.0 **** 0.1268
11717 C11717 10.5401 -7.91357 2.07654 C.3 0.0 **** -0.106
11718 C11718 9.6716 -6.65403 1.85314 C.3 0.0 **** -0.106
11719 C11719 10.5996 -5.52162 2.2285 C.ar 0.0 **** 0.0
11720 C11720 11.6504 -6.04058 3.05154 C.ar 0.0 **** 0.0
11721 C11721 11.4878 -7.52953 3.24049 C.3 0.0 **** -0.106
11722 C11722 12.6264 -5.2129 3.54363 C.ar 0.0 **** 0.042
11723 C11723 12.6123 -3.80992 3.22935 C.ar 0.0 **** 0.0
11724 C11724 11.5373 -3.29666 2.38612 C.ar 0.0 **** 0.0
11725 C11725 10.5345 -4.19546 1.89854 C.ar 0.0 **** -0.1268
11726 C11726 11.52 -1.93793 2.07554 C.ar 0.0 **** -0.1268
11727 C11727 12.5086 -1.04558 2.54571 C.ar 0.0 **** 0.0
11728 C11728 13.5782 -1.57181 3.38126 C.ar 0.0 **** 0.0
11729 C11729 13.5933 -2.94557 3.70107 C.ar 0.0 **** -0.1268
11730 C11730 14.5722 -0.697087 3.8426 C.2 0.0 **** -0.1268
11731 C11731 14.573 0.665883 3.52211 C.2 0.0 **** 0.0
11732 C11732 13.4946 1.20331 2.69581 C.2 0.0 **** 0.0
11733 C11733 12.5001 0.323472 2.23805 C.2 0.0 **** -0.1268
11734 C11734 13.4753 2.57784 2.37315 C.2 0.0 **** -0.1268
11735 C11735 14.4777 3.43769 2.81321 C.2 0.0 **** 0.2405
11736 C11736 15.5733 2.91239 3.6219 C.2 0.0 **** 0.0
11737 C11737 15.5928 1.55674 3.95972 C.2 0.0 **** 0.042
11738 C11738 16.6124 3.80031 4.03507 C.2 0.0 **** -0.1268
11739 C11739 16.5296 5.10622 3.65822 C.2 0.0 **** 0.0
11740 C11740 15.3962 5.53726 2.87004 C.2 0.0 **** 0.2405
11741 N11741 14.4126 4.76961 2.45831 N.2 0.0 **** -0.481
11742 C11742 15.5591 6.96505 2.59488 C.ar 0.0 **** 0.0
11743 C11743 16.7847 7.40154 3.18058 C.ar 0.0 **** 0.0
11744 C11744 17.4614 6.26222 3.91123 C.3 0.0 **** -0.106
11745 C11745 17.2106 8.69936 3.02854 C.ar 0.0 **** -0.1268
11746 C11746 16.4148 9.61526 2.29381 C.ar 0.0 **** 0.0
11747 C11747 15.1566 9.18561 1.73546 C.ar 0.0 **** 0.0
11748 C11748 14.7495 7.83976 1.89355 C.ar 0.0 **** -0.1268
11749 C11749 14.357 10.1191 1.01452 C.ar 0.0 **** -0.1268
11750 C11750 14.7827 11.4135 0.827175 C.ar 0.0 **** 0.0
11751 C11751 16.0464 11.8046 1.34333 C.ar 0.0 **** 0.0
11752 C11752 16.8411 10.9493 2.06537 C.ar 0.0 **** -0.1268
11753 C11753 16.3541 13.2416 1.01995 C.3 0.0 **** -0.053
11754 C11754 15.2029 14.0326 1.64445 C.2 0.0 **** 0.0
11755 C11755 13.9132 13.7819 1.01192 C.2 0.0 **** 0.0
11756 C11756 14.0315 12.521 0.0594172 C.3 0.0 **** 0.0
11757 C11757 15.4357 14.6171 2.8634 C.2 0.0 **** 0.0265
11758 C11758 14.5361 15.5429 3.58592 C.2 0.0 **** 0.367
11759 C11759 13.6292 16.3921 2.77278 C.2 0.0 **** 0.052
11760 C11760 12.8627 15.9626 1.65953 C.2 0.0 **** 0.0
11761 C11761 12.809 14.5831 1.15394 C.2 0.0 **** 0.0
11762 C11762 12.0085 16.9163 1.03466 C.2 0.0 **** 0.0
11763 C11763 11.1119 16.5621 -0.136907 C.3 0.0 **** -0.106
11764 C11764 11.0985 15.0836 -0.540958 C.3 0.0 **** -0.106
11765 C11765 11.4083 14.2443 0.700313 C.3 0.0 **** -0.106
11766 C11766 13.5363 17.7164 3.21977 C.2 0.0 **** -0.1268
11767 C11767 12.7432 18.6564 2.57811 C.2 0.0 **** 0.0
11768 C11768 11.9695 18.2489 1.48186 C.2 0.0 **** 0.0
11769 C11769 11.0816 19.2242 0.768607 C.3 0.0 **** -0.106
11770 C11770 11.0952 20.6452 1.2549 C.ar 0.0 **** 0.0
11771 C11771 11.8806 21.0508 2.33318 C.ar 0.0 **** 0.0
11772 C11772 12.7428 20.0735 3.08464 C.3 0.0 **** -0.106
11773 C11773 11.8756 22.4022 2.73576 C.ar 0.0 **** 0.0
11774 C11774 11.086 23.3309 2.05648 C.ar 0.0 **** 0.0
11775 C11775 10.2782 22.917 0.975455 C.ar 0.0 **** 0.0
11776 C11776 10.2828 21.5787 0.578928 C.ar 0.0 **** 0.0
11777 C11777 9.436 21.0802 -0.55919 C.3 0.0 **** -0.106
11778 C11778 8.5988 22.106 -1.25696 C.ar 0.0 **** 0.0
11779 C11779 8.60227 23.4313 -0.87234 C.ar 0.0 **** 0.0
11780 C11780 9.4281 23.9425 0.272153 C.3 0.0 **** -0.106
11781 C11781 7.78682 24.3461 -1.59239 C.ar 0.0 **** 0.1137
11782 N11782 7.01309 24.0377 -2.61378 N.ar 0.0 **** -0.481
11783 C11783 6.99612 22.7258 -3.00779 C.ar 0.0 **** 0.2405
11784 C11784 7.77623 21.7185 -2.35413 C.ar 0.0 **** 0.0
11785 C11785 7.69185 20.3845 -2.83031 C.ar 0.0 **** -0.1268
11786 C11786 6.87655 20.0673 -3.89798 C.ar 0.0 **** -0.1268
11787 C11787 6.09955 21.059 -4.55583 C.ar 0.0 **** 0.0
11788 C11788 6.17165 22.3656 -4.103 C.ar 0.0 **** -0.1268
11789 C11789 11.0772 24.789 2.42394 C.3 0.0 **** -0.106
11790 C11790 11.9306 25.202 3.59103 C.ar 0.0 **** 0.0
11791 C11791 12.7054 24.2627 4.28045 C.ar 0.0 **** 0.0
11792 C11792 12.7398 22.8093 3.89687 C.3 0.0 **** -0.106
11793 C11793 13.4827 24.6695 5.36499 C.ar 0.0 **** -0.1268
11794 C11794 13.5069 25.9974 5.78835 C.ar 0.0 **** 0.042
11795 C11795 12.7223 26.9719 5.11247 C.ar 0.0 **** 0.052
11796 C11796 11.9447 26.5483 4.00319 C.ar 0.0 **** 0.0
11797 C11797 11.0926 27.5374 3.23834 C.3 0.0 **** -0.106
11798 C11798 11.4879 28.9943 3.45812 C.3 0.0 **** -0.106
11799 C11799 11.6089 29.2708 4.95485 C.3 0.0 **** -0.086
11800 C11800 12.6807 28.3878 5.58105 C.2 0.0 **** 0.347
11801 O11801 13.6582 -5.65757 4.33802 O.3 0.0 **** -0.452
11802 O11802 16.6459 1.12609 4.72649 O.3 0.0 **** -0.452
11803 C11803 12.7729 11.9148 -0.558471 C.3 0.0 **** -0.159
11804 O11804 16.5946 14.4211 3.56279 O.3 0.0 **** -0.4365
11805 O11805 14.6821 15.7359 4.79513 O.2 0.0 **** -0.419
11806 O11806 14.2632 26.3636 6.86264 O.3 0.0 **** -0.452
11807 O11807 13.4466 28.8459 6.42294 O.2 0.0 **** -0.419
11808 C11808 5.22174 20.672 -5.71595 C.3 0.0 **** -0.159
11809 C11809 16.2539 13.3918 -0.469359 C.2 0.0 **** 0.0
11810 C11810 15.0226 13.0411 -1.0045 C.2 0.0 **** 0.0
11811 C11811 14.8137 13.2007 -2.40916 C.2 0.0 **** 0.042
11812 C11812 15.9061 13.5966 -3.22292 C.2 0.0 **** 0.052
11813 C11813 17.1695 13.8956 -2.65544 C.2 0.0 **** 0.052
11814 C11814 17.3417 13.8259 -1.26128 C.2 0.0 **** 0.042
11815 C11815 18.2952 14.2547 -3.49431 C.2 0.0 **** 0.367
11816 C11816 18.119 14.2524 -4.95183 C.ar 0.0 **** 0.0
11817 C11817 16.9024 13.9779 -5.50433 C.ar 0.0 **** 0.0
11818 C11818 15.7374 13.6722 -4.66124 C.2 0.0 **** 0.367
11819 C11819 16.681 13.9728 -6.98327 C.3 0.0 **** -0.106
11820 C11820 17.923 14.1542 -7.8094 C.2 0.0 **** 0.0
11821 C11821 19.1273 14.397 -7.26282 C.2 0.0 **** 0.0
11822 C11822 19.3283 14.5444 -5.78034 C.3 0.0 **** -0.106
11823 C11823 20.3795 14.5445 -8.09254 C.3 0.0 **** -0.106
11824 C11824 20.2123 14.0334 -9.52673 C.3 0.0 **** -0.106
11825 C11825 18.898 14.5477 -10.1207 C.3 0.0 **** -0.106
11826 C11826 17.7099 14.0378 -9.29831 C.3 0.0 **** -0.106
11827 O11827 18.5092 14.1224 -0.676007 O.3 0.0 **** -0.452
11828 O11828 13.6206 12.9781 -2.97094 O.3 0.0 **** -0.452
11829 O11829 19.4195 14.5483 -2.99067 O.2 0.0 **** -0.419
11830 O11830 14.6114 13.46 -5.2066 O.2 0.0 **** -0.419
11831 H11831 16.1659 13.0345 -7.26216 H 0.0 **** 0.053
11832 H11832 15.9343 14.7514 -7.23453 H 0.0 **** 0.053
11833 H11833 19.6961 15.5604 -5.53736 H 0.0 **** 0.053
11834 H11834 20.1539 13.8921 -5.43897 H 0.0 **** 0.053
11835 H11835 20.6808 15.6094 -8.10195 H 0.0 **** 0.053
11836 H11836 21.2048 14.01 -7.59026 H 0.0 **** 0.053
11837 H11837 20.1965 12.9305 -9.51721 H 0.0 **** 0.053
11838 H11838 21.0703 14.341 -10.1437 H 0.0 **** 0.053
11839 H11839 18.7934 14.2412 -11.1731 H 0.0 **** 0.053
11840 H11840 18.9035 15.6506 -10.1027 H 0.0 **** 0.053
11841 H11841 17.5013 12.9794 -9.54564 H 0.0 **** 0.053
11842 H11842 16.7916 14.5873 -9.57048 H 0.0 **** 0.053
11843 H11843 19.1272 14.3678 -1.45559 H 0.0 **** 0.41
11844 H11844 13.7737 13.1373 -3.98028 H 0.0 **** 0.41
11845 H11845 11.1433 -8.09853 1.17499 H 0.0 **** 0.053
11846 H11846 9.95151 -8.81723 2.28523 H 0.0 **** 0.053
11847 H11847 9.27986 -6.57113 0.829623 H 0.0 **** 0.053
11848 H11848 8.80415 -6.66213 2.53687 H 0.0 **** 0.053
11849 H11849 11.015 -7.7504 4.21512 H 0.0 **** 0.053
11850 H11850 12.4384 -8.08849 3.20556 H 0.0 **** 0.053
11851 H11851 9.73512 -3.80108 1.26859 H 0.0 **** 0.1268
11852 H11852 10.7151 -1.54728 1.44836 H 0.0 **** 0.1268
11853 H11853 14.3978 -3.33703 4.3247 H 0.0 **** 0.1268
11854 H11854 15.3558 -1.13837 4.46752 H 0.0 **** 0.1268
11855 H11855 11.694 0.722881 1.61818 H 0.0 **** 0.1268
11856 H11856 17.441 3.41524 4.63021 H 0.0 **** 0.1268
11857 H11857 17.5663 6.47894 4.98782 H 0.0 **** 0.053
11858 H11858 18.4762 6.07226 3.52434 H 0.0 **** 0.053
11859 H11859 18.1555 9.04174 3.45707 H 0.0 **** 0.1268
11860 H11860 13.8106 7.4922 1.45891 H 0.0 **** 0.1268
11861 H11861 13.4078 9.76686 0.611991 H 0.0 **** 0.1268
11862 H11862 17.8149 11.2725 2.44384 H 0.0 **** 0.1268
11863 H11863 17.3406 13.569 1.36462 H 0.0 **** 0.053
11864 H11864 11.3724 17.1948 -1.00217 H 0.0 **** 0.053
11865 H11865 10.0831 16.858 0.134499 H 0.0 **** 0.053
11866 H11866 11.8572 14.8775 -1.31193 H 0.0 **** 0.053
11867 H11867 10.1182 14.8225 -0.967605 H 0.0 **** 0.053
11868 H11868 11.2522 13.1819 0.538074 H 0.0 **** 0.053
11869 H11869 10.7183 14.5455 1.50756 H 0.0 **** 0.053
11870 H11870 14.1232 17.9991 4.09563 H 0.0 **** 0.1268
11871 H11871 11.3318 19.2119 -0.308459 H 0.0 **** 0.053
11872 H11872 10.0432 18.8416 0.793988 H 0.0 **** 0.053
11873 H11873 12.4447 20.0678 4.14982 H 0.0 **** 0.053
11874 H11874 13.7852 20.4405 3.09708 H 0.0 **** 0.053
11875 H11875 10.0786 20.5835 -1.30961 H 0.0 **** 0.053
11876 H11876 8.77576 20.2694 -0.197669 H 0.0 **** 0.053
11877 H11877 8.75602 24.4271 1.00568 H 0.0 **** 0.053
11878 H11878 10.0698 24.7672 -0.0908516 H 0.0 **** 0.053
11879 H11879 7.79097 25.4 -1.28592 H 0.0 **** 0.1268
11880 H11880 8.27666 19.6005 -2.34732 H 0.0 **** 0.1268
11881 H11881 6.82433 19.0344 -4.24965 H 0.0 **** 0.1268
11882 H11882 5.59134 23.1595 -4.57644 H 0.0 **** 0.1268
11883 H11883 11.3753 25.3683 1.52921 H 0.0 **** 0.053
11884 H11884 10.0356 25.1119 2.60779 H 0.0 **** 0.053
11885 H11885 12.4705 22.2071 4.78487 H 0.0 **** 0.053
11886 H11886 13.7884 22.5263 3.68813 H 0.0 **** 0.053
11887 H11887 14.0861 23.9296 5.90092 H 0.0 **** 0.1268
11888 H11888 11.1254 27.3024 2.16422 H 0.0 **** 0.053
11889 H11889 10.0372 27.3947 3.54093 H 0.0 **** 0.053
11890 H11890 10.7493 29.6626 2.99052 H 0.0 **** 0.053
11891 H11891 12.4582 29.1889 2.97203 H 0.0 **** 0.053
11892 H11892 10.6475 29.04 5.45012 H 0.0 **** 0.053
11893 H11893 11.863 30.3144 5.18269 H 0.0 **** 0.053
11894 H11894 13.5505 -6.61374 4.46706 H 0.0 **** 0.41
11895 H11895 16.571 0.169351 4.86604 H 0.0 **** 0.41
11896 H11896 12.1968 12.6319 -1.14275 H 0.0 **** 0.053
11897 H11897 12.1468 11.4674 0.22372 H 0.0 **** 0.053
11898 H11898 13.084 11.1132 -1.24089 H 0.0 **** 0.053
11899 H11899 17.0255 13.6064 3.25727 H 0.0 **** 0.41
11900 H11900 14.6911 25.5642 7.21335 H 0.0 **** 0.41
11901 H11901 4.68344 21.5417 -6.11547 H 0.0 **** 0.053
11902 H11902 4.48093 19.9157 -5.41099 H 0.0 **** 0.053
11903 H11903 5.81792 20.229 -6.52977 H 0.0 **** 0.053
11904 H11904 12.6685 2.98584 1.76411 H 0.0 **** 0.1268
11905 C11905 37.3312 63.5109 18.7813 C.3 0.0 **** 0.054
11906 C11906 36.8647 64.0643 20.1482 C.3 0.0 **** -0.106
11907 C11907 38.0675 64.2682 21.0923 C.3 0.0 **** -0.053
11908 C11908 39.0325 63.0815 20.9368 C.3 0.0 **** -0.053
11909 C11909 39.534 63.0184 19.4707 C.3 0.0 **** 0.054
11910 O11910 38.7218 63.7714 18.5617 O.3 0.0 **** -0.32
11911 C11911 38.3676 61.7613 21.3805 C.3 0.0 **** -0.053
11912 C11912 37.4427 61.9496 22.6169 C.3 0.0 **** 0.107
11913 C11913 37.8412 63.1808 23.4129 C.3 0.0 **** -0.106
11914 C11914 37.6423 64.4545 22.5713 C.3 0.0 **** -0.106
11915 O11915 37.5033 60.823 23.5052 O.3 0.0 **** -0.32
11916 C11916 37.4553 59.562 22.8164 C.3 0.0 **** 0.107
11917 C11917 38.8121 59.3458 22.1226 C.3 0.0 **** -0.053
11918 C11918 39.4286 60.7146 21.7092 C.3 0.0 **** -0.106
11919 C11919 38.7842 58.3373 21.0222 C.2 0.0 **** 0.0
11920 C11920 37.6156 57.7733 20.5356 C.2 0.0 **** 0.0
11921 C11921 36.3209 58.2332 20.9707 C.2 0.0 **** 0.0
11922 C11922 36.2312 59.4249 21.8973 C.3 0.0 **** -0.053
11923 C11923 35.1517 57.7245 20.4327 C.2 0.0 **** 0.0
11924 C11924 35.2092 56.6679 19.4503 C.2 0.0 **** 0.0
11925 C11925 36.501 56.1964 19.0657 C.2 0.0 **** 0.232
11926 C11926 37.6716 56.712 19.5491 C.2 0.0 **** 0.0
11927 C11927 39.0007 56.1973 19.0579 C.3 0.0 **** -0.106
11928 C11928 40.1077 56.422 20.0885 C.3 0.0 **** -0.106
11929 C11929 40.1262 57.8925 20.5126 C.3 0.0 **** -0.106
11930 O11930 36.6081 55.1886 18.1265 O.3 0.0 **** -0.464
11931 C11931 35.4867 54.5525 17.652 C.2 0.0 **** 0.232
11932 C11932 34.1905 55.0056 17.9575 C.2 0.0 **** 0.0
11933 C11933 34.0615 56.1248 18.8601 C.2 0.0 **** 0.0
11934 C11934 34.9166 59.472 22.6395 C.2 0.0 **** 0.0
11935 C11935 33.7247 59.1802 21.8473 C.2 0.0 **** 0.0
11936 C11936 33.8375 58.2518 20.8104 C.2 0.0 **** 0.0
11937 C11937 32.463 59.7458 22.3213 C.2 0.0 **** 0.0
11938 C11938 32.3114 59.9917 23.6553 C.2 0.0 **** 0.0
11939 C11939 33.446 59.8311 24.6136 C.3 0.0 **** -0.106
11940 C11940 34.7879 59.7657 23.9527 C.2 0.0 **** -0.1268
11941 C11941 30.9863 60.4736 24.1762 C.3 0.0 **** -0.106
11942 C11942 29.8451 59.9186 23.3189 C.3 0.0 **** -0.106
11943 C11943 30.1085 60.2276 21.8656 C.2 0.0 **** 0.0
11944 C11944 31.3791 60.1611 21.4018 C.2 0.0 **** 0.0
11945 C11945 31.7537 60.6523 20.0225 C.3 0.0 **** -0.106
11946 C11946 30.6104 61.3668 19.293 C.3 0.0 **** -0.053
11947 C11947 29.306 60.5924 19.5125 C.3 0.0 **** -0.106
11948 C11948 28.9434 60.6033 20.9974 C.3 0.0 **** -0.106
11949 C11949 32.7937 56.6769 19.2406 C.2 0.0 **** -0.012
11950 C11950 32.6944 57.6715 20.1823 C.2 0.0 **** -0.1268
11951 C11951 33.1117 54.2754 17.3966 C.2 0.0 **** 0.0
11952 C11952 31.7486 54.6832 17.6246 C.2 0.0 **** -0.012
11953 S11953 31.3092 56.1567 18.4741 S.2 0.0 **** 0.024
11954 C11954 30.7001 53.9569 17.1205 C.2 0.0 **** -0.1268
11955 C11955 30.9177 52.778 16.3599 C.2 0.0 **** 0.0
11956 C11956 32.2536 52.3542 16.0821 C.2 0.0 **** 0.0
11957 C11957 33.3485 53.1069 16.5892 C.2 0.0 **** 0.0
11958 C11958 32.4611 51.1917 15.2943 C.2 0.0 **** 0.0
11959 C11959 31.3427 50.4387 14.8217 C.2 0.0 **** 0.0
11960 C11960 30.0062 50.848 15.1752 C.2 0.0 **** 0.0
11961 C11961 29.8332 52.0383 15.8985 C.2 0.0 **** -0.1268
11962 C11962 28.9103 50.0224 14.785 C.2 0.0 **** 0.0
11963 C11963 29.1366 48.9472 13.9467 C.2 0.0 **** 0.042
11964 C11964 30.429 48.5702 13.4735 C.2 0.0 **** 0.0
11965 C11965 31.5387 49.3001 13.9846 C.2 0.0 **** 0.0
11966 C11966 34.6913 52.6904 16.2978 C.2 0.0 **** 0.0
11967 C11967 35.7359 53.453 16.86 C.2 0.0 **** -0.1268
11968 C11968 33.7993 50.7855 14.9768 C.2 0.0 **** 0.0
11969 C11969 34.9164 51.5248 15.4687 C.2 0.0 **** 0.0
11970 C11970 32.8762 48.9077 13.6454 C.2 0.0 **** 0.0
11971 C11971 33.9843 49.6352 14.1524 C.2 0.0 **** 0.0
11972 C11972 30.6474 47.4899 12.5437 C.2 0.0 **** 0.0
11973 C11973 31.9855 47.0838 12.2596 C.2 0.0 **** 0.0
11974 C11974 33.091 47.7803 12.8096 C.2 0.0 **** 0.0
11975 O11975 28.0438 48.1642 13.6428 O.3 0.0 **** -0.202
11976 C11976 26.8821 48.869 13.1205 C.3 0.0 **** 0.107
11977 C11977 26.6 50.1692 13.914 C.3 0.0 **** -0.053
11978 C11978 27.4446 50.1236 15.1955 C.3 0.0 **** 0.107
11979 C11979 25.0982 50.3592 14.1597 C.3 0.0 **** -0.106
11980 C11980 24.3343 49.9817 12.8861 C.3 0.0 **** -0.106
11981 C11981 24.3844 48.4659 12.6719 C.3 0.0 **** 0.134
11982 C11982 25.7432 47.8511 13.1481 C.3 0.0 **** -0.053
11983 C11983 26.0909 46.6218 12.2922 C.3 0.0 **** -0.106
11984 C11984 24.8441 45.8077 11.9503 C.3 0.0 **** -0.106
11985 C11985 23.8583 46.674 11.1168 C.3 0.0 **** 0.081
11986 N11986 24.0414 48.1229 11.2911 N.3 0.0 **** -0.727
11987 C11987 36.2277 51.0565 15.1027 C.2 0.0 **** 0.042
11988 C11988 36.4039 49.9096 14.3439 C.2 0.0 **** 0.042
11989 C11989 35.2994 49.1862 13.8241 C.2 0.0 **** 0.0
11990 O11990 37.645 49.4096 14.0236 O.3 0.0 **** -0.202
11991 C11991 38.7369 49.956 14.7949 C.3 0.0 **** 0.107
11992 C11992 38.5588 51.4647 14.8261 C.3 0.0 **** 0.107
11993 O11993 37.3318 51.7665 15.5186 O.3 0.0 **** -0.202
11994 C11994 38.5746 52.0907 13.4159 C.3 0.0 **** -0.106
11995 C11995 39.398 51.2642 12.4044 C.3 0.0 **** -0.106
11996 C11996 40.5647 50.5594 13.1055 C.3 0.0 **** -0.106
11997 C11997 40.0492 49.5307 14.1328 C.3 0.0 **** -0.106
11998 C11998 34.4206 47.3485 12.4897 C.2 0.0 **** 0.0
11999 C11999 35.5003 48.0587 13.0143 C.2 0.0 **** -0.1268
12000 C12000 32.2038 45.9721 11.3984 C.2 0.0 **** 0.0
12001 C12001 33.5417 45.5485 11.1275 C.2 0.0 **** 0.042
12002 C12002 34.6197 46.2105 11.6466 C.2 0.0 **** -0.1268
12003 C12003 31.1298 45.2967 10.7996 C.2 0.0 **** 0.0
12004 C12004 29.8229 45.7525 11.0161 C.2 0.0 **** 0.0
12005 C12005 29.6088 46.8204 11.8681 C.2 0.0 **** -0.1268
12006 O12006 33.7769 44.4511 10.3132 O.3 0.0 **** -0.0685
12007 C12007 32.7299 43.7363 9.77793 C.2 0.0 **** 0.0265
12008 C12008 31.3994 44.1432 9.9756 C.2 0.0 **** 0.0
12009 C12009 28.6421 45.1381 10.3123 C.3 0.0 **** -0.053
12010 C12010 28.9143 43.7324 9.72857 C.3 0.0 **** -0.053
12011 C12011 30.351 43.4059 9.41843 C.2 0.0 **** 0.0
12012 C12012 28.0704 43.4666 8.46766 C.3 0.0 **** -0.053
12013 C12013 26.6643 44.023 8.65934 C.3 0.0 **** -0.106
12014 C12014 26.7241 45.5696 8.72465 C.3 0.0 **** -0.106
12015 C12015 28.0891 46.0782 9.22587 C.3 0.0 **** -0.106
12016 C12016 30.6183 42.2612 8.65232 C.2 0.0 **** 0.0
12017 C12017 31.9614 41.8122 8.50653 C.2 0.0 **** 0.0
12018 C12018 33.0433 42.5664 9.0603 C.2 0.0 **** 0.0
12019 C12019 28.2167 42.0217 8.07582 C.2 0.0 **** 0.0
12020 C12020 29.5402 41.4997 8.08227 C.2 0.0 **** 0.0
12021 C12021 30.9555 61.5948 17.8063 C.3 0.0 **** -0.053
12022 C12022 30.8944 60.3037 16.9798 C.3 0.0 **** -0.159
12023 C12023 30.051 62.6654 17.1873 C.3 0.0 **** -0.159
12024 O12024 27.0483 51.2165 16.0258 O.3 0.0 **** -0.57
12025 C12025 34.3846 42.0922 8.88686 C.2 0.0 **** -0.1268
12026 C12026 34.6314 40.918 8.2314 C.2 0.0 **** -0.1268
12027 C12027 33.5679 40.1138 7.70277 C.2 0.0 **** 0.0
12028 C12028 32.2209 40.5796 7.84512 C.2 0.0 **** 0.0
12029 C12029 31.1468 39.7919 7.35262 C.2 0.0 **** 0.0
12030 C12030 31.405 38.5518 6.72266 C.2 0.0 **** 0.0
12031 C12031 32.7554 38.0963 6.57947 C.2 0.0 **** 0.0
12032 C12032 33.8052 38.8885 7.07133 C.2 0.0 **** -0.1268
12033 C12033 32.9966 36.8407 5.94074 C.2 0.0 **** -0.1268
12034 C12034 31.959 36.079 5.47224 C.2 0.0 **** -0.1268
12035 C12035 30.6048 36.5147 5.60161 C.2 0.0 **** 0.0
12036 C12036 30.3276 37.7595 6.22674 C.2 0.0 **** 0.0
12037 C12037 28.9789 38.2117 6.34963 C.2 0.0 **** 0.0
12038 C12038 28.7231 39.4653 6.97422 C.2 0.0 **** 0.0
12039 C12039 29.7981 40.252 7.47784 C.2 0.0 **** 0.0
12040 C12040 27.902 37.4282 5.83861 C.2 0.0 **** 0.0
12041 C12041 28.2175 36.1772 5.23931 C.2 0.0 **** -0.1268
12042 C12042 29.5213 35.7407 5.12913 C.2 0.0 **** -0.1268
12043 C12043 27.1765 41.2381 7.62918 C.2 0.0 **** -0.1268
12044 C12044 27.3873 39.934 7.10938 C.2 0.0 **** 0.0
12045 C12045 26.5456 37.9137 5.98992 C.2 0.0 **** 0.052
12046 C12046 26.3017 39.1127 6.67315 C.2 0.0 **** 0.0
12047 C12047 24.8956 39.5798 6.9772 C.3 0.0 **** -0.106
12048 C12048 23.9039 38.4236 7.01889 C.3 0.0 **** -0.106
12049 C12049 23.9826 37.676 5.69827 C.3 0.0 **** -0.086
12050 C12050 25.3915 37.2145 5.34684 C.2 0.0 **** 0.347
12051 O12051 25.5126 36.3262 4.50188 O.2 0.0 **** -0.419
12052 H12052 36.7991 63.9888 17.9475 H 0.0 **** 0.053
12053 H12053 37.1498 62.4191 18.7208 H 0.0 **** 0.053
12054 H12054 36.3421 65.025 20.023 H 0.0 **** 0.053
12055 H12055 36.1454 63.364 20.6015 H 0.0 **** 0.053
12056 H12056 38.5943 65.1719 20.7527 H 0.0 **** 0.053
12057 H12057 39.9043 63.2512 21.5905 H 0.0 **** 0.053
12058 H12058 39.5726 61.9608 19.1353 H 0.0 **** 0.053
12059 H12059 40.541 63.4481 19.3747 H 0.0 **** 0.053
12060 H12060 37.7659 61.3891 20.5359 H 0.0 **** 0.053
12061 H12061 36.3941 62.0728 22.2835 H 0.0 **** 0.053
12062 H12062 38.8969 63.0746 23.7103 H 0.0 **** 0.053
12063 H12063 37.2492 63.2283 24.3381 H 0.0 **** 0.053
12064 H12064 38.2141 65.2766 23.0273 H 0.0 **** 0.053
12065 H12065 36.5821 64.7549 22.6044 H 0.0 **** 0.053
12066 H12066 37.3404 58.8135 23.6142 H 0.0 **** 0.053
12067 H12067 39.4982 58.9396 22.8904 H 0.0 **** 0.053
12068 H12068 40.109 60.5828 20.8549 H 0.0 **** 0.053
12069 H12069 40.0332 61.1009 22.5449 H 0.0 **** 0.053
12070 H12070 36.2163 60.2934 21.2079 H 0.0 **** 0.053
12071 H12071 38.916 55.1333 18.7943 H 0.0 **** 0.053
12072 H12072 39.2685 56.7235 18.122 H 0.0 **** 0.053
12073 H12073 41.0828 56.1236 19.6741 H 0.0 **** 0.053
12074 H12074 39.9152 55.7947 20.9739 H 0.0 **** 0.053
12075 H12075 40.4281 58.5115 19.644 H 0.0 **** 0.053
12076 H12076 40.8902 58.0712 21.2881 H 0.0 **** 0.053
12077 H12077 33.2897 58.9201 25.2325 H 0.0 **** 0.053
12078 H12078 33.416 60.6564 25.3517 H 0.0 **** 0.053
12079 H12079 35.6635 59.9663 24.5678 H 0.0 **** 0.1268
12080 H12080 30.8699 60.1812 25.232 H 0.0 **** 0.053
12081 H12081 30.9647 61.5821 24.1501 H 0.0 **** 0.053
12082 H12082 28.8763 60.3418 23.6269 H 0.0 **** 0.053
12083 H12083 29.7803 58.8232 23.4659 H 0.0 **** 0.053
12084 H12084 32.615 61.3367 20.123 H 0.0 **** 0.053
12085 H12085 32.1235 59.8233 19.4 H 0.0 **** 0.053
12086 H12086 30.4807 62.3619 19.7582 H 0.0 **** 0.053
12087 H12087 29.4465 59.5501 19.1824 H 0.0 **** 0.053
12088 H12088 28.4871 61.0189 18.9131 H 0.0 **** 0.053
12089 H12089 28.108 59.9093 21.2026 H 0.0 **** 0.053
12090 H12090 28.5699 61.6042 21.2895 H 0.0 **** 0.053
12091 H12091 31.7056 58.0082 20.4928 H 0.0 **** 0.1268
12092 H12092 29.6704 54.271 17.3061 H 0.0 **** 0.1268
12093 H12093 28.8335 52.4192 16.0824 H 0.0 **** 0.1268
12094 H12094 36.7699 53.1901 16.6915 H 0.0 **** 0.1268
12095 H12095 27.1071 49.1213 12.0673 H 0.0 **** 0.053
12096 H12096 26.961 51.0256 13.3223 H 0.0 **** 0.053
12097 H12097 27.191 49.1751 15.7125 H 0.0 **** 0.053
12098 H12098 24.7707 49.7209 14.9982 H 0.0 **** 0.053
12099 H12099 24.906 51.3969 14.4602 H 0.0 **** 0.053
12100 H12100 24.8023 50.4848 12.0207 H 0.0 **** 0.053
12101 H12101 23.2867 50.3117 12.9113 H 0.0 **** 0.053
12102 H12102 23.5969 48.0119 13.2976 H 0.0 **** 0.053
12103 H12103 25.627 47.531 14.1975 H 0.0 **** 0.053
12104 H12104 26.5548 46.9674 11.3523 H 0.0 **** 0.053
12105 H12105 26.8458 46.0084 12.8027 H 0.0 **** 0.053
12106 H12106 24.3635 45.4768 12.8848 H 0.0 **** 0.053
12107 H12107 25.116 44.8975 11.3922 H 0.0 **** 0.053
12108 H12108 22.82 46.4217 11.3913 H 0.0 **** 0.053
12109 H12109 23.9664 46.4542 10.0443 H 0.0 **** 0.053
12110 H12110 24.7782 48.4583 10.6694 H 0.0 **** 0.353
12111 H12111 38.6562 49.5616 15.8215 H 0.0 **** 0.053
12112 H12112 39.3408 51.9045 15.4613 H 0.0 **** 0.053
12113 H12113 37.5342 52.1815 13.0714 H 0.0 **** 0.053
12114 H12114 38.9772 53.1108 13.5 H 0.0 **** 0.053
12115 H12115 39.7659 51.9204 11.6021 H 0.0 **** 0.053
12116 H12116 38.7515 50.5064 11.9376 H 0.0 **** 0.053
12117 H12117 41.185 51.3164 13.6154 H 0.0 **** 0.053
12118 H12118 41.2185 50.0581 12.3768 H 0.0 **** 0.053
12119 H12119 40.8034 49.36 14.9155 H 0.0 **** 0.053
12120 H12120 39.8641 48.5595 13.6487 H 0.0 **** 0.053
12121 H12121 36.516 47.7379 12.7882 H 0.0 **** 0.1268
12122 H12122 35.6325 45.8775 11.417 H 0.0 **** 0.1268
12123 H12123 28.592 47.1418 12.0301 H 0.0 **** 0.1268
12124 H12124 27.8364 45.0307 11.0545 H 0.0 **** 0.053
12125 H12125 28.5899 42.9894 10.4842 H 0.0 **** 0.053
12126 H12126 28.5438 44.0364 7.64277 H 0.0 **** 0.053
12127 H12127 26.2481 43.6096 9.59383 H 0.0 **** 0.053
12128 H12128 25.9955 43.7094 7.84514 H 0.0 **** 0.053
12129 H12129 25.9334 45.934 9.39558 H 0.0 **** 0.053
12130 H12130 26.5186 45.9927 7.72935 H 0.0 **** 0.053
12131 H12131 27.9988 47.0965 9.63331 H 0.0 **** 0.053
12132 H12132 28.8173 46.1374 8.40153 H 0.0 **** 0.053
12133 H12133 31.9946 61.9706 17.7771 H 0.0 **** 0.053
12134 H12134 31.2763 60.4788 15.9628 H 0.0 **** 0.053
12135 H12135 29.8547 59.9532 16.8887 H 0.0 **** 0.053
12136 H12136 31.4832 59.4886 17.4275 H 0.0 **** 0.053
12137 H12137 30.1116 63.6102 17.7502 H 0.0 **** 0.053
12138 H12138 28.9995 62.3367 17.1894 H 0.0 **** 0.053
12139 H12139 30.3333 62.867 16.1428 H 0.0 **** 0.053
12140 H12140 27.4686 51.0894 16.8903 H 0.0 **** 0.41
12141 H12141 35.2044 42.6822 9.29631 H 0.0 **** 0.1268
12142 H12142 35.6558 40.5622 8.10796 H 0.0 **** 0.1268
12143 H12143 34.8327 38.5336 6.96474 H 0.0 **** 0.1268
12144 H12144 34.0289 36.5015 5.83727 H 0.0 **** 0.1268
12145 H12145 32.1489 35.1173 4.99164 H 0.0 **** 0.1268
12146 H12146 27.4062 35.5689 4.85437 H 0.0 **** 0.1268
12147 H12147 29.7298 34.7733 4.66735 H 0.0 **** 0.1268
12148 H12148 26.1719 41.6525 7.63739 H 0.0 **** 0.1268
12149 H12149 24.8919 40.1072 7.94142 H 0.0 **** 0.053
12150 H12150 24.5731 40.3163 6.21704 H 0.0 **** 0.053
12151 H12151 22.8848 38.7939 7.20807 H 0.0 **** 0.053
12152 H12152 24.1713 37.7493 7.84883 H 0.0 **** 0.053
12153 H12153 23.6603 38.3412 4.87586 H 0.0 **** 0.053
12154 H12154 23.3341 36.7894 5.65717 H 0.0 **** 0.053
12155 C12155 30.4051 18.1317 20.7526 C.3 0.0 **** 0.054
12156 C12156 29.9066 16.6934 20.4789 C.3 0.0 **** -0.106
12157 C12157 30.7603 15.6654 21.2499 C.3 0.0 **** -0.053
12158 C12158 32.2374 16.085 21.1752 C.3 0.0 **** -0.053
12159 C12159 32.4055 17.4835 21.824 C.3 0.0 **** 0.054
12160 O12160 31.1702 18.1962 21.9611 O.3 0.0 **** -0.32
12161 C12161 32.7522 16.054 19.7206 C.3 0.0 **** -0.053
12162 C12162 32.1632 14.8652 18.9085 C.3 0.0 **** 0.107
12163 C12163 31.7158 13.7439 19.8308 C.3 0.0 **** -0.106
12164 C12164 30.5625 14.2169 20.7344 C.3 0.0 **** -0.106
12165 O12165 33.1246 14.3149 17.9947 O.3 0.0 **** -0.32
12166 C12166 33.8563 15.3223 17.2759 C.3 0.0 **** 0.107
12167 C12167 34.8535 15.9738 18.2506 C.3 0.0 **** -0.053
12168 C12168 34.2757 15.9652 19.6964 C.3 0.0 **** -0.106
12169 C12169 35.3603 17.3069 17.8091 C.2 0.0 **** 0.0
12170 C12170 34.8516 17.9913 16.7168 C.2 0.0 **** 0.0
12171 C12171 33.6889 17.5187 16.0083 C.2 0.0 **** 0.0
12172 C12172 32.9453 16.3092 16.5288 C.3 0.0 **** -0.053
12173 C12173 33.1335 18.2376 14.9642 C.2 0.0 **** 0.0
12174 C12174 33.7521 19.4657 14.524 C.2 0.0 **** 0.0
12175 C12175 34.9286 19.8932 15.2112 C.2 0.0 **** 0.232
12176 C12176 35.4718 19.2248 16.2732 C.2 0.0 **** 0.0
12177 C12177 36.6878 19.7644 16.9824 C.3 0.0 **** -0.106
12178 C12178 37.473 18.6528 17.6796 C.3 0.0 **** -0.106
12179 C12179 36.5342 17.8444 18.5782 C.3 0.0 **** -0.106
12180 O12180 35.5552 21.0638 14.8287 O.3 0.0 **** -0.464
12181 C12181 35.1315 21.7537 13.7189 C.2 0.0 **** 0.232
12182 C12182 33.9523 21.4075 13.0345 C.2 0.0 **** 0.0
12183 C12183 33.2275 20.2429 13.4842 C.2 0.0 **** 0.0
12184 C12184 32.1024 15.6549 15.4599 C.2 0.0 **** 0.0
12185 C12185 31.3412 16.5602 14.6031 C.2 0.0 **** 0.0
12186 C12186 31.9015 17.8028 14.3002 C.2 0.0 **** 0.0
12187 C12187 30.1347 16.0196 13.9797 C.2 0.0 **** 0.0
12188 C12188 30.0659 14.6793 13.7308 C.2 0.0 **** 0.0
12189 C12189 31.1259 13.7406 14.2066 C.3 0.0 **** -0.106
12190 C12190 32.0134 14.3203 15.2639 C.2 0.0 **** -0.1268
12191 C12191 28.88 14.1199 12.9958 C.3 0.0 **** -0.106
12192 C12192 28.3265 15.1566 12.0139 C.3 0.0 **** -0.106
12193 C12193 28.0712 16.4546 12.7401 C.2 0.0 **** 0.0
12194 C12194 28.94 16.8491 13.7011 C.2 0.0 **** 0.0
12195 C12195 28.6486 18.0203 14.6106 C.3 0.0 **** -0.106
12196 C12196 27.2346 18.589 14.4465 C.3 0.0 **** -0.053
12197 C12197 26.886 18.6598 12.9556 C.3 0.0 **** -0.106
12198 C12198 26.8548 17.2499 12.3658 C.3 0.0 **** -0.106
12199 C12199 32.0115 19.7962 12.8688 C.2 0.0 **** -0.012
12200 C12200 31.3999 18.6263 13.2475 C.2 0.0 **** -0.1268
12201 C12201 33.6103 22.2037 11.9117 C.2 0.0 **** 0.0
12202 C12202 32.4032 21.9479 11.1674 C.2 0.0 **** -0.012
12203 S12203 31.2061 20.7549 11.6464 S.2 0.0 **** 0.024
12204 C12204 32.0887 22.6868 10.0556 C.2 0.0 **** -0.1268
12205 C12205 32.9395 23.7264 9.59602 C.2 0.0 **** 0.0
12206 C12206 34.1306 24.0358 10.3218 C.2 0.0 **** 0.0
12207 C12207 34.46 23.2844 11.4834 C.2 0.0 **** 0.0
12208 C12208 34.9587 25.0977 9.87228 C.2 0.0 **** 0.0
12209 C12209 34.6183 25.8174 8.68597 C.2 0.0 **** 0.0
12210 C12210 33.4485 25.4391 7.93273 C.2 0.0 **** 0.0
12211 C12211 32.6155 24.4299 8.4401 C.2 0.0 **** -0.1268
12212 C12212 33.1872 26.0982 6.69495 C.2 0.0 **** 0.0
12213 C12213 33.9602 27.1838 6.32867 C.2 0.0 **** 0.042
12214 C12214 35.0578 27.6706 7.09976 C.2 0.0 **** 0.0
12215 C12215 35.414 26.9206 8.25562 C.2 0.0 **** 0.0
12216 C12216 35.6489 23.6045 12.222 C.2 0.0 **** 0.0
12217 C12217 35.9446 22.8001 13.342 C.2 0.0 **** -0.1268
12218 C12218 36.1331 25.4404 10.6205 C.2 0.0 **** 0.0
12219 C12219 36.4851 24.7058 11.7923 C.2 0.0 **** 0.0
12220 C12220 36.575 27.2804 9.01755 C.2 0.0 **** 0.0
12221 C12221 36.9311 26.5351 10.1717 C.2 0.0 **** 0.0
12222 C12222 35.8145 28.8459 6.74543 C.2 0.0 **** 0.0
12223 C12223 36.9939 29.1564 7.48604 C.2 0.0 **** 0.0
12224 C12224 37.3764 28.3784 8.6077 C.2 0.0 **** 0.0
12225 O12225 33.6849 27.7482 5.10177 O.3 0.0 **** -0.202
12226 C12226 32.297 28.1215 4.8705 C.3 0.0 **** 0.107
12227 C12227 31.3219 27.0208 5.35801 C.3 0.0 **** -0.053
12228 C12228 32.1486 25.7561 5.63134 C.3 0.0 **** 0.107
12229 C12229 30.1708 26.8149 4.36596 C.3 0.0 **** -0.106
12230 C12230 29.6952 28.1827 3.8651 C.3 0.0 **** -0.106
12231 C12231 30.7464 28.7981 2.93656 C.3 0.0 **** 0.134
12232 C12232 32.2037 28.4338 3.37795 C.3 0.0 **** -0.053
12233 C12233 33.1662 29.5716 2.99866 C.3 0.0 **** -0.106
12234 C12234 32.798 30.1894 1.65073 C.3 0.0 **** -0.106
12235 C12235 31.3737 30.8081 1.72322 C.3 0.0 **** 0.081
12236 N12236 30.5267 30.2366 2.78123 N.3 0.0 **** -0.727
12237 C12237 37.676 25.1135 12.4912 C.2 0.0 **** 0.042
12238 C12238 38.4757 26.1449 12.0233 C.2 0.0 **** 0.042
12239 C12239 38.1173 26.9012 10.8775 C.2 0.0 **** 0.0
12240 O12240 39.6462 26.521 12.6408 O.3 0.0 **** -0.202
12241 C12241 40.1575 25.572 13.6018 C.3 0.0 **** 0.107
12242 C12242 38.9924 25.1414 14.4769 C.3 0.0 **** 0.107
12243 O12243 38.0271 24.4607 13.6516 O.3 0.0 **** -0.202
12244 C12244 38.35 26.3251 15.2299 C.3 0.0 **** -0.106
12245 C12245 39.3445 27.4769 15.492 C.3 0.0 **** -0.106
12246 C12246 40.7638 26.9315 15.6858 C.3 0.0 **** -0.106
12247 C12247 41.2731 26.2523 14.3979 C.3 0.0 **** -0.106
12248 C12248 38.5622 28.7309 9.3333 C.2 0.0 **** 0.0
12249 C12249 38.913 27.9749 10.4517 C.2 0.0 **** -0.1268
12250 C12250 37.783 30.2743 7.09496 C.2 0.0 **** 0.0
12251 C12251 38.9765 30.577 7.82063 C.2 0.0 **** 0.042
12252 C12252 39.3587 29.8396 8.90691 C.2 0.0 **** -0.1268
12253 C12253 37.4005 31.0918 6.02084 C.2 0.0 **** 0.0
12254 C12254 36.198 30.8309 5.35102 C.2 0.0 **** 0.0
12255 C12255 35.4408 29.7336 5.71793 C.2 0.0 **** -0.1268
12256 O12256 39.7749 31.6451 7.44034 O.3 0.0 **** -0.0685
12257 C12257 39.4486 32.4107 6.34448 C.2 0.0 **** 0.0265
12258 C12258 38.2604 32.1825 5.62957 C.2 0.0 **** 0.0
12259 C12259 35.6817 31.7385 4.26625 C.3 0.0 **** -0.053
12260 C12260 36.7555 32.6668 3.65319 C.3 0.0 **** -0.053
12261 C12261 37.9453 32.9754 4.52275 C.2 0.0 **** 0.0
12262 C12262 36.1482 33.9965 3.16748 C.3 0.0 **** -0.053
12263 C12263 34.8022 33.7375 2.50043 C.3 0.0 **** -0.106
12264 C12264 33.7839 33.2509 3.56151 C.3 0.0 **** -0.106
12265 C12265 34.4716 32.5567 4.75235 C.3 0.0 **** -0.106
12266 C12266 38.8065 34.0083 4.12246 C.2 0.0 **** 0.0
12267 C12267 40.0408 34.1974 4.80623 C.2 0.0 **** 0.0
12268 C12268 40.3673 33.4013 5.94887 C.2 0.0 **** 0.0
12269 C12269 37.1904 34.758 2.39524 C.2 0.0 **** 0.0
12270 C12270 38.4852 34.8217 2.98132 C.2 0.0 **** 0.0
12271 C12271 27.0878 19.9366 15.184 C.3 0.0 **** -0.053
12272 C12272 27.8096 21.0851 14.4673 C.3 0.0 **** -0.159
12273 C12273 25.6127 20.2893 15.4014 C.3 0.0 **** -0.159
12274 O12274 31.2424 24.6827 5.891 O.3 0.0 **** -0.57
12275 C12275 41.6135 33.6239 6.62078 C.2 0.0 **** -0.1268
12276 C12276 42.4979 34.5596 6.16094 C.2 0.0 **** -0.1268
12277 C12277 42.223 35.3441 4.99208 C.2 0.0 **** 0.0
12278 C12278 40.9737 35.154 4.31766 C.2 0.0 **** 0.0
12279 C12279 40.6855 35.8998 3.14406 C.2 0.0 **** 0.0
12280 C12280 41.6277 36.8283 2.64236 C.2 0.0 **** 0.0
12281 C12281 42.872 37.0163 3.32637 C.2 0.0 **** 0.0
12282 C12282 43.1399 36.2711 4.48593 C.2 0.0 **** -0.1268
12283 C12283 43.8115 37.9584 2.80421 C.2 0.0 **** -0.1268
12284 C12284 43.5347 38.6721 1.66836 C.2 0.0 **** -0.1268
12285 C12285 42.2992 38.503 0.971671 C.2 0.0 **** 0.0
12286 C12286 41.3397 37.5789 1.46419 C.2 0.0 **** 0.0
12287 C12287 40.0956 37.4112 0.783888 C.2 0.0 **** 0.0
12288 C12288 39.1451 36.4841 1.29749 C.2 0.0 **** 0.0
12289 C12289 39.4364 35.7278 2.46854 C.2 0.0 **** 0.0
12290 C12290 39.7996 38.1739 -0.384686 C.2 0.0 **** 0.0
12291 C12291 40.7945 39.0728 -0.860048 C.2 0.0 **** -0.1268
12292 C12292 41.998 39.2264 -0.203984 C.2 0.0 **** -0.1268
12293 C12293 36.9303 35.4568 1.23778 C.2 0.0 **** -0.1268
12294 C12294 37.9006 36.2995 0.634577 C.2 0.0 **** 0.0
12295 C12295 38.5316 37.9703 -1.05469 C.2 0.0 **** 0.052
12296 C12296 37.6363 37.001 -0.582521 C.2 0.0 **** 0.0
12297 C12297 36.3698 36.6584 -1.33506 C.3 0.0 **** -0.106
12298 C12298 36.4781 36.9868 -2.8191 C.3 0.0 **** -0.106
12299 C12299 36.845 38.4546 -2.96027 C.3 0.0 **** -0.086
12300 C12300 38.1022 38.8411 -2.19115 C.2 0.0 **** 0.347
12301 O12301 38.6706 39.888 -2.50552 O.2 0.0 **** -0.419
12302 H12302 29.5692 18.8319 20.8866 H 0.0 **** 0.053
12303 H12303 31.0237 18.4967 19.9084 H 0.0 **** 0.053
12304 H12304 28.8538 16.5808 20.78 H 0.0 **** 0.053
12305 H12305 29.9555 16.4875 19.3979 H 0.0 **** 0.053
12306 H12306 30.4527 15.7172 22.3045 H 0.0 **** 0.053
12307 H12307 32.8362 15.3634 21.7556 H 0.0 **** 0.053
12308 H12308 33.1126 18.0912 21.2215 H 0.0 **** 0.053
12309 H12309 32.8025 17.4041 22.8458 H 0.0 **** 0.053
12310 H12310 32.4542 16.9994 19.2398 H 0.0 **** 0.053
12311 H12311 31.2872 15.2091 18.3253 H 0.0 **** 0.053
12312 H12312 32.5796 13.4296 20.4387 H 0.0 **** 0.053
12313 H12313 31.4103 12.8743 19.2316 H 0.0 **** 0.053
12314 H12314 30.4674 13.5241 21.5839 H 0.0 **** 0.053
12315 H12315 29.6128 14.1611 20.1773 H 0.0 **** 0.053
12316 H12316 34.4181 14.7656 16.5114 H 0.0 **** 0.053
12317 H12317 35.7379 15.3093 18.2885 H 0.0 **** 0.053
12318 H12318 34.7129 16.7848 20.2857 H 0.0 **** 0.053
12319 H12319 34.5646 15.0243 20.1908 H 0.0 **** 0.053
12320 H12320 32.2259 16.7361 17.2568 H 0.0 **** 0.053
12321 H12321 37.3236 20.3117 16.2717 H 0.0 **** 0.053
12322 H12322 36.3661 20.5058 17.7382 H 0.0 **** 0.053
12323 H12323 38.3019 19.079 18.2652 H 0.0 **** 0.053
12324 H12324 37.9099 17.9833 16.9211 H 0.0 **** 0.053
12325 H12325 36.1827 18.4941 19.4047 H 0.0 **** 0.053
12326 H12326 37.0697 17.0092 19.0605 H 0.0 **** 0.053
12327 H12327 31.7431 13.4023 13.3452 H 0.0 **** 0.053
12328 H12328 30.6487 12.8087 14.5678 H 0.0 **** 0.053
12329 H12329 32.5875 13.6272 15.8766 H 0.0 **** 0.1268
12330 H12330 29.1652 13.1914 12.4759 H 0.0 **** 0.053
12331 H12331 28.0932 13.8447 13.7274 H 0.0 **** 0.053
12332 H12332 27.399 14.7983 11.5406 H 0.0 **** 0.053
12333 H12333 29.0621 15.3169 11.2022 H 0.0 **** 0.053
12334 H12334 28.7972 17.6907 15.6545 H 0.0 **** 0.053
12335 H12335 29.3858 18.8237 14.461 H 0.0 **** 0.053
12336 H12336 26.5269 17.8785 14.9131 H 0.0 **** 0.053
12337 H12337 27.6551 19.2527 12.4341 H 0.0 **** 0.053
12338 H12338 25.9203 19.1642 12.7986 H 0.0 **** 0.053
12339 H12339 26.7787 17.2869 11.2638 H 0.0 **** 0.053
12340 H12340 25.9443 16.7174 12.7035 H 0.0 **** 0.053
12341 H12341 30.5187 18.2902 12.7016 H 0.0 **** 0.1268
12342 H12342 31.1748 22.4791 9.49435 H 0.0 **** 0.1268
12343 H12343 31.6763 24.204 7.94504 H 0.0 **** 0.1268
12344 H12344 36.8288 22.9772 13.9365 H 0.0 **** 0.1268
12345 H12345 32.1165 29.0525 5.43985 H 0.0 **** 0.053
12346 H12346 30.8911 27.3367 6.32147 H 0.0 **** 0.053
12347 H12347 32.7073 25.5312 4.69937 H 0.0 **** 0.053
12348 H12348 30.5128 26.2006 3.51535 H 0.0 **** 0.053
12349 H12349 29.3638 26.2543 4.85456 H 0.0 **** 0.053
12350 H12350 29.5415 28.8519 4.73096 H 0.0 **** 0.053
12351 H12351 28.7326 28.1257 3.33864 H 0.0 **** 0.053
12352 H12352 30.6037 28.3633 1.93247 H 0.0 **** 0.053
12353 H12353 32.5073 27.519 2.84125 H 0.0 **** 0.053
12354 H12354 33.107 30.3553 3.77345 H 0.0 **** 0.053
12355 H12355 34.2023 29.2069 3.00578 H 0.0 **** 0.053
12356 H12356 32.8344 29.4076 0.875174 H 0.0 **** 0.053
12357 H12357 33.5326 30.9583 1.36273 H 0.0 **** 0.053
12358 H12358 30.8597 30.6696 0.75695 H 0.0 **** 0.053
12359 H12359 31.4346 31.8924 1.89876 H 0.0 **** 0.053
12360 H12360 30.7166 30.7027 3.66933 H 0.0 **** 0.353
12361 H12361 40.534 24.6974 13.0456 H 0.0 **** 0.053
12362 H12362 39.338 24.3689 15.1785 H 0.0 **** 0.053
12363 H12363 37.5005 26.688 14.6334 H 0.0 **** 0.053
12364 H12364 37.9405 25.9449 16.1772 H 0.0 **** 0.053
12365 H12365 39.0241 28.0493 16.3749 H 0.0 **** 0.053
12366 H12366 39.3408 28.1667 14.6351 H 0.0 **** 0.053
12367 H12367 40.7563 26.202 16.5138 H 0.0 **** 0.053
12368 H12368 41.4578 27.7324 15.9804 H 0.0 **** 0.053
12369 H12369 42.0449 25.5058 14.638 H 0.0 **** 0.053
12370 H12370 41.7396 26.9917 13.7289 H 0.0 **** 0.053
12371 H12371 39.8154 28.2241 11.0078 H 0.0 **** 0.1268
12372 H12372 40.2669 30.0956 9.45359 H 0.0 **** 0.1268
12373 H12373 34.5272 29.5458 5.17617 H 0.0 **** 0.1268
12374 H12374 35.3042 31.0984 3.45421 H 0.0 **** 0.053
12375 H12375 37.1593 32.1606 2.75378 H 0.0 **** 0.053
12376 H12376 35.9584 34.6083 4.07245 H 0.0 **** 0.053
12377 H12377 34.9411 32.9748 1.71543 H 0.0 **** 0.053
12378 H12378 34.4211 34.6414 2.00437 H 0.0 **** 0.053
12379 H12379 33.0793 32.5502 3.09167 H 0.0 **** 0.053
12380 H12380 33.1907 34.1032 3.92709 H 0.0 **** 0.053
12381 H12381 33.7666 31.8932 5.27567 H 0.0 **** 0.053
12382 H12382 34.8149 33.2929 5.49629 H 0.0 **** 0.053
12383 H12383 27.5551 19.8059 16.1771 H 0.0 **** 0.053
12384 H12384 27.7987 21.9938 15.0878 H 0.0 **** 0.053
12385 H12385 27.3055 21.3246 13.5183 H 0.0 **** 0.053
12386 H12386 28.8586 20.8447 14.2366 H 0.0 **** 0.053
12387 H12387 25.0892 19.4882 15.9466 H 0.0 **** 0.053
12388 H12388 25.0998 20.434 14.4372 H 0.0 **** 0.053
12389 H12389 25.509 21.2227 15.9754 H 0.0 **** 0.053
12390 H12390 31.7614 23.8637 5.90518 H 0.0 **** 0.41
12391 H12391 41.8464 33.0255 7.50135 H 0.0 **** 0.1268
12392 H12392 43.4467 34.7192 6.67632 H 0.0 **** 0.1268
12393 H12393 44.0928 36.4141 5.00021 H 0.0 **** 0.1268
12394 H12394 44.7574 38.0938 3.33176 H 0.0 **** 0.1268
12395 H12395 44.2593 39.3851 1.27022 H 0.0 **** 0.1268
12396 H12396 40.584 39.6522 -1.75253 H 0.0 **** 0.1268
12397 H12397 42.7426 39.9219 -0.597209 H 0.0 **** 0.1268
12398 H12398 35.937 35.3909 0.802029 H 0.0 **** 0.1268
12399 H12399 36.1526 35.5888 -1.20622 H 0.0 **** 0.053
12400 H12400 35.514 37.206 -0.896705 H 0.0 **** 0.053
12401 H12401 35.5333 36.7598 -3.33609 H 0.0 **** 0.053
12402 H12402 37.2629 36.3583 -3.27087 H 0.0 **** 0.053
12403 H12403 36.029 39.0814 -2.55521 H 0.0 **** 0.053
12404 H12404 36.9955 38.7706 -4.00235 H 0.0 **** 0.053
12405 C12405 61.8079 18.2959 68.9716 C.3 0.0 **** 0.054
12406 C12406 61.5058 18.4933 70.4757 C.3 0.0 **** -0.106
12407 C12407 62.2154 17.4144 71.3196 C.3 0.0 **** -0.053
12408 C12408 62.105 16.0616 70.5977 C.3 0.0 **** -0.053
12409 C12409 62.7916 16.1641 69.211 C.3 0.0 **** 0.054
12410 O12410 62.9918 17.5147 68.7768 O.3 0.0 **** -0.32
12411 C12411 60.634 15.6087 70.4855 C.3 0.0 **** -0.053
12412 C12412 59.8049 15.9676 71.7517 C.3 0.0 **** 0.107
12413 C12413 60.7058 16.1347 72.9635 C.3 0.0 **** -0.106
12414 C12414 61.6615 17.3253 72.7647 C.3 0.0 **** -0.106
12415 O12415 58.8429 14.9488 72.0662 O.3 0.0 **** -0.32
12416 C12416 58.1322 14.4722 70.9109 C.3 0.0 **** 0.107
12417 C12417 59.0934 13.5958 70.0879 C.3 0.0 **** -0.053
12418 C12418 60.5565 14.1024 70.2521 C.3 0.0 **** -0.106
12419 C12419 58.6775 13.3962 68.6681 C.2 0.0 **** 0.0
12420 C12420 57.6246 14.0788 68.0799 C.2 0.0 **** 0.0
12421 C12421 56.9405 15.1438 68.769 C.2 0.0 **** 0.0
12422 C12422 57.4471 15.5976 70.1196 C.3 0.0 **** -0.053
12423 C12423 55.9385 15.8774 68.158 C.2 0.0 **** 0.0
12424 C12424 55.5169 15.5465 66.8173 C.2 0.0 **** 0.0
12425 C12425 56.1778 14.4593 66.169 C.2 0.0 **** 0.232
12426 C12426 57.1997 13.7476 66.7336 C.2 0.0 **** 0.0
12427 C12427 57.8849 12.6444 65.9678 C.3 0.0 **** -0.106
12428 C12428 58.5204 11.6178 66.9061 C.3 0.0 **** -0.106
12429 C12429 59.4238 12.3314 67.9147 C.3 0.0 **** -0.106
12430 O12430 55.8117 14.1064 64.8842 O.3 0.0 **** -0.464
12431 C12431 54.7387 14.7077 64.2723 C.2 0.0 **** 0.232
12432 C12432 54.0832 15.8143 64.8419 C.2 0.0 **** 0.0
12433 C12433 54.5199 16.2619 66.143 C.2 0.0 **** 0.0
12434 C12434 56.3866 16.3262 70.9106 C.2 0.0 **** 0.0
12435 C12435 55.5844 17.2926 70.165 C.2 0.0 **** 0.0
12436 C12436 55.3023 17.0164 68.8257 C.2 0.0 **** 0.0
12437 C12437 54.9846 18.3829 70.9318 C.2 0.0 **** 0.0
12438 C12438 54.6962 18.1799 72.2504 C.2 0.0 **** 0.0
12439 C12439 55.1069 16.9295 72.9568 C.3 0.0 **** -0.106
12440 C12440 56.1519 16.1421 72.2291 C.2 0.0 **** -0.1268
12441 C12441 53.9837 19.2506 73.0285 C.3 0.0 **** -0.106
12442 C12442 53.0536 20.0462 72.108 C.3 0.0 **** -0.106
12443 C12443 53.8283 20.5384 70.9101 C.2 0.0 **** 0.0
12444 C12444 54.7719 19.7344 70.365 C.2 0.0 **** 0.0
12445 C12445 55.727 20.2283 69.3031 C.3 0.0 **** -0.106
12446 C12446 55.6277 21.7352 69.04 C.3 0.0 **** -0.053
12447 C12447 54.1521 22.1487 69.0085 C.3 0.0 **** -0.106
12448 C12448 53.5197 21.9077 70.3791 C.3 0.0 **** -0.106
12449 C12449 53.9314 17.3809 66.8202 C.2 0.0 **** -0.012
12450 C12450 54.2931 17.7194 68.101 C.2 0.0 **** -0.1268
12451 C12451 52.9979 16.3586 64.1087 C.2 0.0 **** 0.0
12452 C12452 52.2863 17.5137 64.5943 C.2 0.0 **** -0.012
12453 S12453 52.7671 18.4157 66.023 S.2 0.0 **** 0.024
12454 C12454 51.2093 18.0186 63.9116 C.2 0.0 **** -0.1268
12455 C12455 50.7547 17.4222 62.7061 C.2 0.0 **** 0.0
12456 C12456 51.45 16.2946 62.1709 C.2 0.0 **** 0.0
12457 C12457 52.5759 15.7706 62.8639 C.2 0.0 **** 0.0
12458 C12458 51.0069 15.7247 60.9485 C.2 0.0 **** 0.0
12459 C12459 49.8557 16.2539 60.2883 C.2 0.0 **** 0.0
12460 C12460 49.1301 17.3473 60.8856 C.2 0.0 **** 0.0
12461 C12461 49.6328 17.9307 62.0589 C.2 0.0 **** -0.1268
12462 C12462 47.923 17.7885 60.2667 C.2 0.0 **** 0.0
12463 C12463 47.5656 17.2742 59.0347 C.2 0.0 **** 0.042
12464 C12464 48.3148 16.2732 58.347 C.2 0.0 **** 0.0
12465 C12465 49.4341 15.7235 59.0328 C.2 0.0 **** 0.0
12466 C12466 53.2844 14.647 62.3191 C.2 0.0 **** 0.0
12467 C12467 54.3682 14.1463 63.0699 C.2 0.0 **** -0.1268
12468 C12468 51.7263 14.6196 60.385 C.2 0.0 **** 0.0
12469 C12469 52.8621 14.0766 61.0569 C.2 0.0 **** 0.0
12470 C12470 50.1681 14.6344 58.4555 C.2 0.0 **** 0.0
12471 C12471 51.2858 14.0858 59.1368 C.2 0.0 **** 0.0
12472 C12472 47.9727 15.793 57.0309 C.2 0.0 **** 0.0
12473 C12473 48.6833 14.6765 56.4975 C.2 0.0 **** 0.0
12474 C12474 49.7667 14.0965 57.2044 C.2 0.0 **** 0.0
12475 O12475 46.3668 17.7088 58.5116 O.3 0.0 **** -0.202
12476 C12476 46.1934 19.1519 58.4325 C.3 0.0 **** 0.107
12477 C12477 46.6782 19.8559 59.7245 C.3 0.0 **** -0.053
12478 C12478 46.8841 18.7734 60.7938 C.3 0.0 **** 0.107
12479 C12479 45.7188 20.9764 60.1438 C.3 0.0 **** -0.106
12480 C12480 45.2772 21.7463 58.8947 C.3 0.0 **** -0.106
12481 C12481 44.3341 20.8838 58.0505 C.3 0.0 **** 0.134
12482 C12482 44.7154 19.3665 58.1113 C.3 0.0 **** -0.053
12483 C12483 44.3403 18.6784 56.7882 C.3 0.0 **** -0.106
12484 C12484 43.0254 19.2197 56.2296 C.3 0.0 **** -0.106
12485 C12485 43.1644 20.7379 55.9254 C.3 0.0 **** 0.081
12486 N12486 44.2314 21.4049 56.6868 N.3 0.0 **** -0.727
12487 C12487 53.5336 12.9707 60.4251 C.2 0.0 **** 0.042
12488 C12488 53.0721 12.4229 59.2381 C.2 0.0 **** 0.042
12489 C12489 51.9631 12.9757 58.5469 C.2 0.0 **** 0.0
12490 O12490 53.662 11.3336 58.6395 O.3 0.0 **** -0.202
12491 C12491 54.5753 10.5984 59.4827 C.3 0.0 **** 0.107
12492 C12492 55.4746 11.6129 60.1689 C.3 0.0 **** 0.107
12493 O12493 54.6607 12.4461 61.0171 O.3 0.0 **** -0.202
12494 C12494 56.2852 12.4584 59.1646 C.3 0.0 **** -0.106
12495 C12495 56.5503 11.717 57.8364 C.3 0.0 **** -0.106
12496 C12496 56.6798 10.2086 58.0762 C.3 0.0 **** -0.106
12497 C12497 55.355 9.61925 58.6026 C.3 0.0 **** -0.106
12498 C12498 50.4633 12.9832 56.6283 C.2 0.0 **** 0.0
12499 C12499 51.5452 12.439 57.3203 C.2 0.0 **** -0.1268
12500 C12500 48.3016 14.1541 55.23 C.2 0.0 **** 0.0
12501 C12501 48.9965 13.0227 54.701 C.2 0.0 **** 0.042
12502 C12502 50.0458 12.453 55.3674 C.2 0.0 **** -0.1268
12503 C12503 47.2669 14.7404 54.4856 C.2 0.0 **** 0.0
12504 C12504 46.6294 15.8871 54.977 C.2 0.0 **** 0.0
12505 C12505 46.9865 16.3836 56.2173 C.2 0.0 **** -0.1268
12506 O12506 48.6237 12.4805 53.4804 O.3 0.0 **** -0.0685
12507 C12507 47.5638 13.0019 52.7744 C.2 0.0 **** 0.0265
12508 C12508 46.8818 14.1432 53.2298 C.2 0.0 **** 0.0
12509 C12509 45.5914 16.6234 54.1725 C.3 0.0 **** -0.053
12510 C12510 44.9726 15.7918 53.0252 C.3 0.0 **** -0.053
12511 C12511 45.8115 14.6598 52.4946 C.2 0.0 **** 0.0
12512 C12512 44.5492 16.6819 51.8414 C.3 0.0 **** -0.053
12513 C12513 43.9193 17.969 52.3611 C.3 0.0 **** -0.106
12514 C12514 44.9977 18.8212 53.0757 C.3 0.0 **** -0.106
12515 C12515 46.1427 17.9578 53.6382 C.3 0.0 **** -0.106
12516 C12516 45.4156 14.0495 51.2948 C.2 0.0 **** 0.0
12517 C12517 46.0637 12.8562 50.8672 C.2 0.0 **** 0.0
12518 C12518 47.1693 12.3264 51.604 C.2 0.0 **** 0.0
12519 C12519 43.7672 15.8526 50.86 C.2 0.0 **** 0.0
12520 C12520 44.3118 14.5778 50.5399 C.2 0.0 **** 0.0
12521 C12521 56.4116 22.1313 67.7712 C.3 0.0 **** -0.053
12522 C12522 55.7078 21.6937 66.48 C.3 0.0 **** -0.159
12523 C12523 56.6887 23.6379 67.741 C.3 0.0 **** -0.159
12524 O12524 47.1398 19.4246 62.0393 O.3 0.0 **** -0.57
12525 C12525 47.8063 11.129 51.1409 C.2 0.0 **** -0.1268
12526 C12526 47.347 10.478 50.0298 C.2 0.0 **** -0.1268
12527 C12527 46.2131 10.9561 49.2928 C.2 0.0 **** 0.0
12528 C12528 45.5748 12.1634 49.7248 C.2 0.0 **** 0.0
12529 C12529 44.4354 12.6465 49.0283 C.2 0.0 **** 0.0
12530 C12530 43.9322 11.9393 47.9112 C.2 0.0 **** 0.0
12531 C12531 44.5802 10.7359 47.4826 C.2 0.0 **** 0.0
12532 C12532 45.7063 10.2734 48.1823 C.2 0.0 **** -0.1268
12533 C12533 44.0571 10.0349 46.3522 C.2 0.0 **** -0.1268
12534 C12534 42.954 10.4987 45.6857 C.2 0.0 **** -0.1268
12535 C12535 42.2936 11.6978 46.0936 C.2 0.0 **** 0.0
12536 C12536 42.7884 12.4233 47.2099 C.2 0.0 **** 0.0
12537 C12537 42.1447 13.6304 47.6187 C.2 0.0 **** 0.0
12538 C12538 42.6601 14.3457 48.7366 C.2 0.0 **** 0.0
12539 C12539 43.7965 13.8575 49.4426 C.2 0.0 **** 0.0
12540 C12540 41.0111 14.1245 46.9075 C.2 0.0 **** 0.0
12541 C12541 40.5315 13.3586 45.8089 C.2 0.0 **** -0.1268
12542 C12542 41.1519 12.189 45.4218 C.2 0.0 **** -0.1268
12543 C12543 42.6415 16.2977 50.204 C.2 0.0 **** -0.1268
12544 C12544 42.0333 15.549 49.1624 C.2 0.0 **** 0.0
12545 C12545 40.3774 15.3472 47.3567 C.2 0.0 **** 0.052
12546 C12546 40.8482 16.0013 48.5032 C.2 0.0 **** 0.0
12547 C12547 40.1277 17.1966 49.0859 C.3 0.0 **** -0.106
12548 C12548 38.6519 17.2172 48.707 C.3 0.0 **** -0.106
12549 C12549 38.5448 17.1706 47.1918 C.3 0.0 **** -0.086
12550 C12550 39.2837 15.9929 46.5686 C.2 0.0 **** 0.347
12551 O12551 38.9837 15.6683 45.4186 O.2 0.0 **** -0.419
12552 H12552 61.9914 19.2537 68.4659 H 0.0 **** 0.053
12553 H12553 60.9555 17.8005 68.465 H 0.0 **** 0.053
12554 H12554 61.8378 19.4869 70.8138 H 0.0 **** 0.053
12555 H12555 60.4178 18.4446 70.6409 H 0.0 **** 0.053
12556 H12556 63.2807 17.6847 71.3587 H 0.0 **** 0.053
12557 H12557 62.6424 15.3031 71.1913 H 0.0 **** 0.053
12558 H12558 62.1853 15.6235 68.4543 H 0.0 **** 0.053
12559 H12559 63.7966 15.7197 69.2296 H 0.0 **** 0.053
12560 H12560 60.1932 16.1161 69.6124 H 0.0 **** 0.053
12561 H12561 59.2621 16.9182 71.5856 H 0.0 **** 0.053
12562 H12562 61.2746 15.2014 73.104 H 0.0 **** 0.053
12563 H12563 60.09 16.275 73.8634 H 0.0 **** 0.053
12564 H12564 62.4915 17.2404 73.4821 H 0.0 **** 0.053
12565 H12565 61.1347 18.2634 73.0053 H 0.0 **** 0.053
12566 H12566 57.3325 13.8368 71.319 H 0.0 **** 0.053
12567 H12567 59.0811 12.5914 70.5528 H 0.0 **** 0.053
12568 H12568 61.1565 13.8233 69.3732 H 0.0 **** 0.053
12569 H12569 61.0113 13.6043 71.1228 H 0.0 **** 0.053
12570 H12570 58.2116 16.3614 69.8706 H 0.0 **** 0.053
12571 H12571 57.171 12.165 65.2826 H 0.0 **** 0.053
12572 H12572 58.6738 13.0842 65.3286 H 0.0 **** 0.053
12573 H12573 59.0914 10.8741 66.3295 H 0.0 **** 0.053
12574 H12574 57.7272 11.0806 67.4508 H 0.0 **** 0.053
12575 H12575 60.2815 12.7783 67.373 H 0.0 **** 0.053
12576 H12576 59.8616 11.6149 68.6301 H 0.0 **** 0.053
12577 H12577 54.2153 16.2893 73.1375 H 0.0 **** 0.053
12578 H12578 55.4542 17.1872 73.9765 H 0.0 **** 0.053
12579 H12579 56.7232 15.4126 72.8007 H 0.0 **** 0.1268
12580 H12580 53.4257 18.7983 73.8639 H 0.0 **** 0.053
12581 H12581 54.7319 19.9334 73.4801 H 0.0 **** 0.053
12582 H12582 52.6003 20.8962 72.6416 H 0.0 **** 0.053
12583 H12583 52.2235 19.3925 71.7776 H 0.0 **** 0.053
12584 H12584 56.7545 19.9736 69.6189 H 0.0 **** 0.053
12585 H12585 55.5783 19.6815 68.3595 H 0.0 **** 0.053
12586 H12586 56.0949 22.2602 69.894 H 0.0 **** 0.053
12587 H12587 53.6243 21.5413 68.2551 H 0.0 **** 0.053
12588 H12588 54.0431 23.2038 68.7144 H 0.0 **** 0.053
12589 H12589 52.4224 22.0327 70.3326 H 0.0 **** 0.053
12590 H12590 53.8704 22.6731 71.0987 H 0.0 **** 0.053
12591 H12591 53.7664 18.5316 68.6014 H 0.0 **** 0.1268
12592 H12592 50.6724 18.8901 64.2931 H 0.0 **** 0.1268
12593 H12593 49.1623 18.8207 62.465 H 0.0 **** 0.1268
12594 H12594 54.9384 13.2962 62.7254 H 0.0 **** 0.1268
12595 H12595 46.7974 19.5006 57.5739 H 0.0 **** 0.053
12596 H12596 47.6648 20.3054 59.5291 H 0.0 **** 0.053
12597 H12597 45.9275 18.2167 60.8742 H 0.0 **** 0.053
12598 H12598 44.8385 20.5471 60.6522 H 0.0 **** 0.053
12599 H12599 46.216 21.6289 60.8726 H 0.0 **** 0.053
12600 H12600 46.1682 22.0026 58.2935 H 0.0 **** 0.053
12601 H12601 44.7813 22.6956 59.1399 H 0.0 **** 0.053
12602 H12602 43.3221 20.9716 58.4816 H 0.0 **** 0.053
12603 H12603 44.1404 18.8997 58.9291 H 0.0 **** 0.053
12604 H12604 45.1409 18.8697 56.053 H 0.0 **** 0.053
12605 H12605 44.3017 17.5894 56.9274 H 0.0 **** 0.053
12606 H12606 42.2249 19.0511 56.9676 H 0.0 **** 0.053
12607 H12607 42.7375 18.6736 55.317 H 0.0 **** 0.053
12608 H12608 42.2118 21.2488 56.1456 H 0.0 **** 0.053
12609 H12609 43.3718 20.8979 54.8569 H 0.0 **** 0.053
12610 H12610 45.1269 21.2821 56.2126 H 0.0 **** 0.353
12611 H12611 53.9798 10.0694 60.2454 H 0.0 **** 0.053
12612 H12612 56.1397 11.0865 60.8682 H 0.0 **** 0.053
12613 H12613 55.7288 13.3876 58.974 H 0.0 **** 0.053
12614 H12614 57.2332 12.7423 59.6447 H 0.0 **** 0.053
12615 H12615 57.4608 12.1152 57.3651 H 0.0 **** 0.053
12616 H12616 55.7161 11.898 57.1425 H 0.0 **** 0.053
12617 H12617 57.4842 10.0314 58.8106 H 0.0 **** 0.053
12618 H12618 56.9763 9.68623 57.1548 H 0.0 **** 0.053
12619 H12619 55.5459 8.69989 59.176 H 0.0 **** 0.053
12620 H12620 54.6945 9.34387 57.7661 H 0.0 **** 0.053
12621 H12621 52.0787 11.5876 56.9006 H 0.0 **** 0.1268
12622 H12622 50.5699 11.5977 54.9396 H 0.0 **** 0.1268
12623 H12623 46.4697 17.2582 56.5796 H 0.0 **** 0.1268
12624 H12624 44.7726 16.8902 54.858 H 0.0 **** 0.053
12625 H12625 44.0448 15.3266 53.4139 H 0.0 **** 0.053
12626 H12626 45.4788 16.9599 51.3048 H 0.0 **** 0.053
12627 H12627 43.1066 17.7046 53.0588 H 0.0 **** 0.053
12628 H12628 43.4648 18.5495 51.5457 H 0.0 **** 0.053
12629 H12629 44.5297 19.3817 53.8972 H 0.0 **** 0.053
12630 H12630 45.4093 19.5645 52.3757 H 0.0 **** 0.053
12631 H12631 46.668 18.4877 54.4471 H 0.0 **** 0.053
12632 H12632 46.8977 17.7471 52.8642 H 0.0 **** 0.053
12633 H12633 57.3841 21.6087 67.8245 H 0.0 **** 0.053
12634 H12634 56.3566 21.87 65.6088 H 0.0 **** 0.053
12635 H12635 54.784 22.2733 66.3291 H 0.0 **** 0.053
12636 H12636 55.435 20.6275 66.4894 H 0.0 **** 0.053
12637 H12637 57.2255 23.961 68.6469 H 0.0 **** 0.053
12638 H12638 55.747 24.2069 67.6843 H 0.0 **** 0.053
12639 H12639 57.2948 23.9119 66.8641 H 0.0 **** 0.053
12640 H12640 47.111 18.7459 62.7312 H 0.0 **** 0.41
12641 H12641 48.6594 10.7421 51.6979 H 0.0 **** 0.1268
12642 H12642 47.8355 9.56418 49.6869 H 0.0 **** 0.1268
12643 H12643 46.1929 9.35202 47.8548 H 0.0 **** 0.1268
12644 H12644 44.557 9.11835 46.0339 H 0.0 **** 0.1268
12645 H12645 42.5546 9.95503 44.8272 H 0.0 **** 0.1268
12646 H12646 39.6651 13.72 45.2654 H 0.0 **** 0.1268
12647 H12647 40.7563 11.622 44.5764 H 0.0 **** 0.1268
12648 H12648 42.237 17.2715 50.4665 H 0.0 **** 0.1268
12649 H12649 40.23 17.1805 50.1801 H 0.0 **** 0.053
12650 H12650 40.6111 18.1301 48.7407 H 0.0 **** 0.053
12651 H12651 38.1596 18.1131 49.1148 H 0.0 **** 0.053
12652 H12652 38.1549 16.3366 49.1459 H 0.0 **** 0.053
12653 H12653 38.9962 18.0831 46.7601 H 0.0 **** 0.053
12654 H12654 37.5088 17.1302 46.8267 H 0.0 **** 0.053
12655 C12655 10.5625 50.8538 18.5847 C.3 0.0 **** 0.054
12656 C12656 9.58808 49.9043 17.8489 C.3 0.0 **** -0.106
12657 C12657 9.61365 48.4988 18.4843 C.3 0.0 **** -0.053
12658 C12658 11.0664 48.1313 18.8279 C.3 0.0 **** -0.053
12659 C12659 11.6299 49.1634 19.8389 C.3 0.0 **** 0.054
12660 O12660 10.8645 50.3731 19.8991 O.3 0.0 **** -0.32
12661 C12661 11.9322 48.0337 17.5541 C.3 0.0 **** -0.053
12662 C12662 11.1576 47.4122 16.3569 C.3 0.0 **** 0.107
12663 C12663 10.0001 46.5563 16.8423 C.3 0.0 **** -0.106
12664 C12664 8.96204 47.4216 17.5799 C.3 0.0 **** -0.106
12665 O12665 12.0029 46.5776 15.5499 O.3 0.0 **** -0.32
12666 C12666 13.2867 47.1679 15.2853 C.3 0.0 **** 0.107
12667 C12667 14.1165 47.1046 16.5801 C.3 0.0 **** -0.053
12668 C12668 13.1827 47.2007 17.8223 C.3 0.0 **** -0.106
12669 C12669 15.2706 48.0509 16.6156 C.2 0.0 **** 0.0
12670 C12670 15.4815 49.0309 15.6588 C.2 0.0 **** 0.0
12671 C12671 14.5102 49.2962 14.6276 C.2 0.0 **** 0.0
12672 C12672 13.1874 48.5639 14.65 C.3 0.0 **** -0.053
12673 C12673 14.6822 50.3229 13.7156 C.2 0.0 **** 0.0
12674 C12674 15.8834 51.1234 13.748 C.2 0.0 **** 0.0
12675 C12675 16.8528 50.8152 14.7502 C.2 0.0 **** 0.232
12676 C12676 16.6874 49.8356 15.6898 C.2 0.0 **** 0.0
12677 C12677 17.7331 49.601 16.7501 C.3 0.0 **** -0.106
12678 C12678 17.6866 48.1674 17.28 C.3 0.0 **** -0.106
12679 C12679 16.2615 47.8279 17.7232 C.3 0.0 **** -0.106
12680 O12680 18.0175 51.555 14.8237 O.3 0.0 **** -0.464
12681 C12681 18.3078 52.4995 13.8693 C.2 0.0 **** 0.232
12682 C12682 17.3714 52.8784 12.8904 C.2 0.0 **** 0.0
12683 C12683 16.106 52.1841 12.8617 C.2 0.0 **** 0.0
12684 C12684 12.5152 48.5599 13.2975 C.2 0.0 **** 0.0
12685 C12685 12.5393 49.8252 12.5682 C.2 0.0 **** 0.0
12686 C12686 13.6557 50.6496 12.7219 C.2 0.0 **** 0.0
12687 C12687 11.4748 50.0432 11.5905 C.2 0.0 **** 0.0
12688 C12688 10.898 48.9604 10.9924 C.2 0.0 **** 0.0
12689 C12689 11.2275 47.5661 11.4152 C.3 0.0 **** -0.106
12690 C12690 11.9077 47.4853 12.7466 C.2 0.0 **** -0.1268
12691 C12691 9.87673 49.1663 9.90883 C.3 0.0 **** -0.106
12692 C12692 10.1725 50.4565 9.13865 C.3 0.0 **** -0.106
12693 C12693 10.3112 51.6037 10.1091 C.2 0.0 **** 0.0
12694 C12694 10.923 51.3858 11.2975 C.2 0.0 **** 0.0
12695 C12695 10.9187 52.419 12.4004 C.3 0.0 **** -0.106
12696 C12696 10.0314 53.6328 12.1021 C.3 0.0 **** -0.053
12697 C12697 10.2268 54.0578 10.6425 C.3 0.0 **** -0.106
12698 C12698 9.75529 52.94 9.71246 C.3 0.0 **** -0.106
12699 C12699 15.0727 52.4864 11.914 C.2 0.0 **** -0.012
12700 C12700 13.9222 51.7402 11.8401 C.2 0.0 **** -0.1268
12701 C12701 17.7815 53.875 11.9683 C.2 0.0 **** 0.0
12702 C12702 16.8801 54.3528 10.9507 C.2 0.0 **** -0.012
12703 S12703 15.1956 53.8661 10.8448 S.2 0.0 **** 0.024
12704 C12704 17.2846 55.2852 10.0298 C.2 0.0 **** -0.1268
12705 C12705 18.6035 55.8107 10.0427 C.2 0.0 **** 0.0
12706 C12706 19.521 55.3891 11.0535 C.2 0.0 **** 0.0
12707 C12707 19.1081 54.4322 12.0212 C.2 0.0 **** 0.0
12708 C12708 20.8276 55.9437 11.077 C.2 0.0 **** 0.0
12709 C12709 21.2246 56.882 10.0755 C.2 0.0 **** 0.0
12710 C12710 20.303 57.2375 9.02521 C.2 0.0 **** 0.0
12711 C12711 18.9978 56.723 9.06895 C.2 0.0 **** -0.1268
12712 C12712 20.7554 58.0909 7.9756 C.2 0.0 **** 0.0
12713 C12713 22.0006 58.6828 8.07244 C.2 0.0 **** 0.042
12714 C12714 22.9042 58.454 9.15294 C.2 0.0 **** 0.0
12715 C12715 22.5164 57.4858 10.1212 C.2 0.0 **** 0.0
12716 C12716 20.0245 54.0193 13.0465 C.2 0.0 **** 0.0
12717 C12717 19.5726 53.0391 13.9542 C.2 0.0 **** -0.1268
12718 C12718 21.7387 55.5561 12.1143 C.2 0.0 **** 0.0
12719 C12719 21.3494 54.6011 13.1007 C.2 0.0 **** 0.0
12720 C12720 23.4198 57.1178 11.173 C.2 0.0 **** 0.0
12721 C12721 23.0345 56.1538 12.1408 C.2 0.0 **** 0.0
12722 C12722 24.1719 59.1294 9.28108 C.2 0.0 **** 0.0
12723 C12723 25.0754 58.7127 10.3038 C.2 0.0 **** 0.0
12724 C12724 24.7078 57.7116 11.2379 C.2 0.0 **** 0.0
12725 O12725 22.396 59.4606 7.00557 O.3 0.0 **** -0.202
12726 C12726 21.4644 60.5025 6.59843 C.3 0.0 **** 0.107
12727 C12727 20.0051 59.983 6.57031 C.3 0.0 **** -0.053
12728 C12728 20.0555 58.4516 6.66907 C.3 0.0 **** 0.107
12729 C12729 19.249 60.5074 5.34354 C.3 0.0 **** -0.106
12730 C12730 19.6097 61.9812 5.12944 C.3 0.0 **** -0.106
12731 C12731 21.0529 62.103 4.63087 C.3 0.0 **** 0.134
12732 C12732 21.9824 61.0074 5.25284 C.3 0.0 **** -0.053
12733 C12733 23.4143 61.5511 5.39008 C.3 0.0 **** -0.106
12734 C12734 23.7923 62.4365 4.2038 C.3 0.0 **** -0.106
12735 C12735 22.8458 63.6681 4.13961 C.3 0.0 **** 0.081
12736 N12736 21.5545 63.4656 4.81389 N.3 0.0 **** -0.727
12737 C12737 22.3186 54.2673 14.1117 C.2 0.0 **** 0.042
12738 C12738 23.5933 54.8123 14.1041 C.2 0.0 **** 0.042
12739 C12739 23.979 55.7858 13.1466 C.2 0.0 **** 0.0
12740 O12740 24.5563 54.472 15.0259 O.3 0.0 **** -0.202
12741 C12741 24.2704 53.2807 15.7905 C.3 0.0 **** 0.107
12742 C12742 22.8299 53.3809 16.2634 C.3 0.0 **** 0.107
12743 O12743 21.9682 53.3843 15.1085 O.3 0.0 **** -0.202
12744 C12744 22.5838 54.6199 17.1495 C.3 0.0 **** -0.106
12745 C12745 23.8521 55.0777 17.9019 C.3 0.0 **** -0.106
12746 C12746 24.7452 53.8775 18.2354 C.3 0.0 **** -0.106
12747 C12747 25.2674 53.2057 16.9488 C.3 0.0 **** -0.106
12748 C12748 25.6399 57.3296 12.2587 C.2 0.0 **** 0.0
12749 C12749 25.2563 56.3637 13.1889 C.2 0.0 **** -0.1268
12750 C12750 26.3561 59.3273 10.389 C.2 0.0 **** 0.0
12751 C12751 27.2726 58.8987 11.3985 C.2 0.0 **** 0.042
12752 C12752 26.9336 57.9372 12.3097 C.2 0.0 **** -0.1268
12753 C12753 26.7268 60.3561 9.51002 C.2 0.0 **** 0.0
12754 C12754 25.8041 60.8178 8.56226 C.2 0.0 **** 0.0
12755 C12755 24.5668 60.208 8.46619 C.2 0.0 **** -0.1268
12756 O12756 28.5357 59.4647 11.4827 O.3 0.0 **** -0.0685
12757 C12757 28.9373 60.4237 10.5814 C.2 0.0 **** 0.0265
12758 C12758 28.055 60.9122 9.60255 C.2 0.0 **** 0.0
12759 C12759 26.1053 61.992 7.66912 C.3 0.0 **** -0.053
12760 C12760 27.6097 62.3305 7.5543 C.3 0.0 **** -0.053
12761 C12761 28.4815 61.8904 8.70025 C.2 0.0 **** 0.0
12762 C12762 27.838 63.8353 7.31738 C.3 0.0 **** -0.053
12763 C12763 26.7946 64.3699 6.34314 C.3 0.0 **** -0.106
12764 C12764 25.3956 64.3251 7.00705 C.3 0.0 **** -0.106
12765 C12765 25.3009 63.2349 8.09119 C.3 0.0 **** -0.106
12766 C12766 29.788 62.3974 8.76947 C.2 0.0 **** 0.0
12767 C12767 30.7012 61.8564 9.71824 C.2 0.0 **** 0.0
12768 C12768 30.272 60.8652 10.6559 C.2 0.0 **** 0.0
12769 C12769 29.2904 64.0668 7.00241 C.2 0.0 **** 0.0
12770 C12770 30.2289 63.4008 7.83887 C.2 0.0 **** 0.0
12771 C12771 10.28 54.767 13.1185 C.3 0.0 **** -0.053
12772 C12772 11.6176 55.4831 12.8908 C.3 0.0 **** -0.159
12773 C12773 9.12828 55.7774 13.1113 C.3 0.0 **** -0.159
12774 O12774 18.7362 57.9503 6.44736 O.3 0.0 **** -0.57
12775 C12775 31.2138 60.3486 11.6046 C.2 0.0 **** -0.1268
12776 C12776 32.5149 60.7683 11.5972 C.2 0.0 **** -0.1268
12777 C12777 32.9905 61.7273 10.6425 C.2 0.0 **** 0.0
12778 C12778 32.0613 62.2735 9.69913 C.2 0.0 **** 0.0
12779 C12779 32.51 63.2066 8.72712 C.2 0.0 **** 0.0
12780 C12780 33.8694 63.5967 8.69021 C.2 0.0 **** 0.0
12781 C12781 34.7905 63.0497 9.64099 C.2 0.0 **** 0.0
12782 C12782 34.3294 62.1292 10.5957 C.2 0.0 **** -0.1268
12783 C12783 36.16 63.4554 9.58776 C.2 0.0 **** -0.1268
12784 C12784 36.5924 64.3504 8.64534 C.2 0.0 **** -0.1268
12785 C12785 35.691 64.9107 7.68935 C.2 0.0 **** 0.0
12786 C12786 34.3218 64.5342 7.71517 C.2 0.0 **** 0.0
12787 C12787 33.4088 65.098 6.77324 C.2 0.0 **** 0.0
12788 C12788 32.0392 64.7118 6.82001 C.2 0.0 **** 0.0
12789 C12789 31.5893 63.7685 7.78752 C.2 0.0 **** 0.0
12790 C12790 33.8568 66.0487 5.80876 C.2 0.0 **** 0.0
12791 C12791 35.2393 66.3837 5.79983 C.2 0.0 **** -0.1268
12792 C12792 36.1194 65.8313 6.70688 C.2 0.0 **** -0.1268
12793 C12793 29.737 64.9435 6.0392 C.2 0.0 **** -0.1268
12794 C12794 31.113 65.2589 5.88997 C.2 0.0 **** 0.0
12795 C12795 32.9045 66.5923 4.86222 C.2 0.0 **** 0.052
12796 C12796 31.5755 66.1476 4.87033 C.2 0.0 **** 0.0
12797 C12797 30.588 66.5818 3.81004 C.3 0.0 **** -0.106
12798 C12798 31.2803 66.9989 2.51825 C.3 0.0 **** -0.106
12799 C12799 32.2845 68.0922 2.84327 C.3 0.0 **** -0.086
12800 C12800 33.2785 67.6981 3.92869 C.2 0.0 **** 0.347
12801 O12801 34.3183 68.3521 4.02221 O.2 0.0 **** -0.419
12802 H12802 10.1288 51.8538 18.7211 H 0.0 **** 0.053
12803 H12803 11.5044 50.9659 18.0111 H 0.0 **** 0.053
12804 H12804 8.55947 50.2945 17.8863 H 0.0 **** 0.053
12805 H12805 9.86949 49.8416 16.7858 H 0.0 **** 0.053
12806 H12806 9.05421 48.5619 19.429 H 0.0 **** 0.053
12807 H12807 11.0719 47.1398 19.3108 H 0.0 **** 0.053
12808 H12808 12.6799 49.4086 19.5748 H 0.0 **** 0.053
12809 H12809 11.6154 48.7667 20.8638 H 0.0 **** 0.053
12810 H12810 12.2488 49.0542 17.2854 H 0.0 **** 0.053
12811 H12811 10.7518 48.2184 15.7157 H 0.0 **** 0.053
12812 H12812 10.4011 45.7783 17.5119 H 0.0 **** 0.053
12813 H12813 9.54047 46.0397 15.9875 H 0.0 **** 0.053
12814 H12814 8.31369 46.7666 18.181 H 0.0 **** 0.053
12815 H12815 8.30867 47.9186 16.844 H 0.0 **** 0.053
12816 H12816 13.7469 46.5082 14.5352 H 0.0 **** 0.053
12817 H12817 14.5543 46.0889 16.6252 H 0.0 **** 0.053
12818 H12818 13.7339 47.6099 18.6819 H 0.0 **** 0.053
12819 H12819 12.8564 46.1869 18.1031 H 0.0 **** 0.053
12820 H12820 12.548 49.1957 15.2994 H 0.0 **** 0.053
12821 H12821 18.7295 49.8438 16.3535 H 0.0 **** 0.053
12822 H12822 17.5598 50.3006 17.5897 H 0.0 **** 0.053
12823 H12823 18.394 48.0445 18.1143 H 0.0 **** 0.053
12824 H12824 17.9898 47.4724 16.4802 H 0.0 **** 0.053
12825 H12825 16.0007 48.4546 18.5996 H 0.0 **** 0.053
12826 H12826 16.1935 46.7832 18.071 H 0.0 **** 0.053
12827 H12827 11.8611 47.0783 10.6419 H 0.0 **** 0.053
12828 H12828 10.301 46.9591 11.4146 H 0.0 **** 0.053
12829 H12829 11.8951 46.5265 13.2622 H 0.0 **** 0.1268
12830 H12830 9.86397 48.2944 9.23537 H 0.0 **** 0.053
12831 H12831 8.86776 49.2293 10.3648 H 0.0 **** 0.053
12832 H12832 9.37775 50.6725 8.40761 H 0.0 **** 0.053
12833 H12833 11.1119 50.3307 8.56662 H 0.0 **** 0.053
12834 H12834 10.5772 51.929 13.3297 H 0.0 **** 0.053
12835 H12835 11.9421 52.7591 12.6207 H 0.0 **** 0.053
12836 H12836 8.97692 53.3172 12.2112 H 0.0 **** 0.053
12837 H12837 11.2975 54.2491 10.4638 H 0.0 **** 0.053
12838 H12838 9.68597 54.992 10.4267 H 0.0 **** 0.053
12839 H12839 10.0458 53.1506 8.66699 H 0.0 **** 0.053
12840 H12840 8.64873 52.8946 9.70437 H 0.0 **** 0.053
12841 H12841 13.1986 51.9614 11.0559 H 0.0 **** 0.1268
12842 H12842 16.5952 55.6347 9.2578 H 0.0 **** 0.1268
12843 H12843 18.2587 57.0611 8.34943 H 0.0 **** 0.1268
12844 H12844 20.2131 52.674 14.7435 H 0.0 **** 0.1268
12845 H12845 21.5512 61.3179 7.34077 H 0.0 **** 0.053
12846 H12846 19.4871 60.3457 7.47245 H 0.0 **** 0.053
12847 H12847 20.7119 58.0991 5.84671 H 0.0 **** 0.053
12848 H12848 19.5251 59.9189 4.45177 H 0.0 **** 0.053
12849 H12849 18.1708 60.367 5.49187 H 0.0 **** 0.053
12850 H12850 19.5119 62.5209 6.08875 H 0.0 **** 0.053
12851 H12851 18.9357 62.4797 4.41952 H 0.0 **** 0.053
12852 H12852 21.0476 61.9297 3.5411 H 0.0 **** 0.053
12853 H12853 21.9963 60.1403 4.57088 H 0.0 **** 0.053
12854 H12854 23.4748 62.1535 6.31285 H 0.0 **** 0.053
12855 H12855 24.1224 60.7207 5.5155 H 0.0 **** 0.053
12856 H12856 23.7136 61.8473 3.27613 H 0.0 **** 0.053
12857 H12857 24.8405 62.766 4.28404 H 0.0 **** 0.053
12858 H12858 22.6481 63.9292 3.08614 H 0.0 **** 0.053
12859 H12859 23.3248 64.5449 4.60028 H 0.0 **** 0.053
12860 H12860 21.6488 63.6569 5.81211 H 0.0 **** 0.353
12861 H12861 24.3695 52.4141 15.1157 H 0.0 **** 0.053
12862 H12862 22.5625 52.4567 16.7951 H 0.0 **** 0.053
12863 H12863 22.2129 55.4309 16.5062 H 0.0 **** 0.053
12864 H12864 21.7796 54.3772 17.8595 H 0.0 **** 0.053
12865 H12865 23.5657 55.6154 18.8177 H 0.0 **** 0.053
12866 H12866 24.4182 55.7803 17.2727 H 0.0 **** 0.053
12867 H12867 24.1608 53.1501 18.8246 H 0.0 **** 0.053
12868 H12868 25.5947 54.1802 18.8651 H 0.0 **** 0.053
12869 H12869 25.5119 52.1501 17.1399 H 0.0 **** 0.053
12870 H12870 26.1937 53.6923 16.6066 H 0.0 **** 0.053
12871 H12871 25.956 56.0562 13.9644 H 0.0 **** 0.1268
12872 H12872 27.6441 57.6338 13.0793 H 0.0 **** 0.1268
12873 H12873 23.8806 60.572 7.71787 H 0.0 **** 0.1268
12874 H12874 25.7525 61.7353 6.6586 H 0.0 **** 0.053
12875 H12875 28.0007 61.8099 6.65737 H 0.0 **** 0.053
12876 H12876 27.6722 64.3388 8.29117 H 0.0 **** 0.053
12877 H12877 26.8136 63.747 5.43265 H 0.0 **** 0.053
12878 H12878 27.0274 65.3982 6.03219 H 0.0 **** 0.053
12879 H12879 24.6354 64.136 6.23601 H 0.0 **** 0.053
12880 H12880 25.1627 65.3049 7.4516 H 0.0 **** 0.053
12881 H12881 24.2523 62.9509 8.26647 H 0.0 **** 0.053
12882 H12882 25.6887 63.5997 9.0555 H 0.0 **** 0.053
12883 H12883 10.3107 54.295 14.1176 H 0.0 **** 0.053
12884 H12884 11.8216 56.1882 13.7105 H 0.0 **** 0.053
12885 H12885 11.5908 56.061 11.9541 H 0.0 **** 0.053
12886 H12886 12.4647 54.7832 12.8269 H 0.0 **** 0.053
12887 H12887 8.16447 55.2822 13.3088 H 0.0 **** 0.053
12888 H12888 9.05654 56.2804 12.1337 H 0.0 **** 0.053
12889 H12889 9.27935 56.556 13.8744 H 0.0 **** 0.053
12890 H12890 18.8051 56.9875 6.3544 H 0.0 **** 0.41
12891 H12891 30.8739 59.6069 12.3273 H 0.0 **** 0.1268
12892 H12892 33.2264 60.366 12.3205 H 0.0 **** 0.1268
12893 H12893 35.0373 61.7108 11.3146 H 0.0 **** 0.1268
12894 H12894 36.8546 63.0323 10.3157 H 0.0 **** 0.1268
12895 H12895 37.6412 64.651 8.60507 H 0.0 **** 0.1268
12896 H12896 35.5933 67.0995 5.06564 H 0.0 **** 0.1268
12897 H12897 37.1757 66.1063 6.6708 H 0.0 **** 0.1268
12898 H12898 29.0052 65.4381 5.40615 H 0.0 **** 0.1268
12899 H12899 29.8906 65.7568 3.60805 H 0.0 **** 0.053
12900 H12900 29.9764 67.4221 4.18965 H 0.0 **** 0.053
12901 H12901 30.5429 67.3415 1.77663 H 0.0 **** 0.053
12902 H12902 31.8005 66.1263 2.09028 H 0.0 **** 0.053
12903 H12903 31.7516 68.9847 3.2203 H 0.0 **** 0.053
12904 H12904 32.8711 68.421 1.97377 H 0.0 **** 0.053
12905 C12905 52.8681 52.1408 20.1653 C.3 0.0 **** 0.054
12906 C12906 52.7732 50.979 21.1819 C.3 0.0 **** -0.106
12907 C12907 51.6046 51.2079 22.1627 C.3 0.0 **** -0.053
12908 C12908 51.567 52.693 22.5583 C.3 0.0 **** -0.053
12909 C12909 51.3492 53.5557 21.2881 C.3 0.0 **** 0.054
12910 O12910 51.6295 52.8527 20.0715 O.3 0.0 **** -0.32
12911 C12911 52.8446 53.098 23.3234 C.3 0.0 **** -0.053
12912 C12912 53.3454 51.9758 24.2771 C.3 0.0 **** 0.107
12913 C12913 52.2123 51.0377 24.6568 C.3 0.0 **** -0.106
12914 C12914 51.6866 50.2966 23.4139 C.3 0.0 **** -0.106
12915 O12915 53.8879 52.5121 25.4937 O.3 0.0 **** -0.32
12916 C12916 54.7504 53.6411 25.2739 C.3 0.0 **** 0.107
12917 C12917 53.871 54.8464 24.8959 C.3 0.0 **** -0.053
12918 C12918 52.5996 54.3668 24.1356 C.3 0.0 **** -0.106
12919 C12919 54.6058 55.9505 24.2106 C.2 0.0 **** 0.0
12920 C12920 55.9192 55.8403 23.7824 C.2 0.0 **** 0.0
12921 C12921 56.628 54.587 23.846 C.2 0.0 **** 0.0
12922 C12922 55.8933 53.3424 24.2907 C.3 0.0 **** -0.053
12923 C12923 57.9136 54.4547 23.3511 C.2 0.0 **** 0.0
12924 C12924 58.5981 55.6023 22.804 C.2 0.0 **** 0.0
12925 C12925 57.8936 56.8443 22.7909 C.2 0.0 **** 0.232
12926 C12926 56.6081 56.9919 23.2329 C.2 0.0 **** 0.0
12927 C12927 55.9103 58.325 23.1406 C.3 0.0 **** -0.106
12928 C12928 54.7968 58.4514 24.181 C.3 0.0 **** -0.106
12929 C12929 53.8576 57.2473 24.0795 C.3 0.0 **** -0.106
12930 O12930 58.5053 57.9706 22.2746 O.3 0.0 **** -0.464
12931 C12931 59.8233 57.9362 21.8887 C.2 0.0 **** 0.232
12932 C12932 60.55 56.733 21.8339 C.2 0.0 **** 0.0
12933 C12933 59.8924 55.5261 22.2753 C.2 0.0 **** 0.0
12934 C12934 56.8361 52.2672 24.777 C.2 0.0 **** 0.0
12935 C12935 58.0341 52.0547 23.9689 C.2 0.0 **** 0.0
12936 C12936 58.603 53.1614 23.3356 C.2 0.0 **** 0.0
12937 C12937 58.6494 50.7306 24.0376 C.2 0.0 **** 0.0
12938 C12938 58.4926 49.9895 25.173 C.2 0.0 **** 0.0
12939 C12939 57.5958 50.4368 26.2806 C.3 0.0 **** -0.106
12940 C12940 56.6344 51.5125 25.8802 C.2 0.0 **** -0.1268
12941 C12941 59.204 48.6719 25.3045 C.3 0.0 **** -0.106
12942 C12942 60.5262 48.7029 24.5324 C.3 0.0 **** -0.106
12943 C12943 60.2726 49.1508 23.1139 C.2 0.0 **** 0.0
12944 C12944 59.3493 50.1151 22.8868 C.2 0.0 **** 0.0
12945 C12945 58.8909 50.4706 21.4913 C.3 0.0 **** -0.106
12946 C12946 59.4396 49.5359 20.4073 C.3 0.0 **** -0.053
12947 C12947 60.9186 49.2471 20.6875 C.3 0.0 **** -0.106
12948 C12948 61.0556 48.4977 22.0128 C.3 0.0 **** -0.106
12949 C12949 60.5298 54.2413 22.2607 C.2 0.0 **** -0.012
12950 C12950 59.9197 53.1284 22.7849 C.2 0.0 **** -0.1268
12951 C12951 61.8992 56.8225 21.4056 C.2 0.0 **** 0.0
12952 C12952 62.7137 55.6401 21.2846 C.2 0.0 **** -0.012
12953 S12953 62.0947 54.0119 21.5121 S.2 0.0 **** 0.024
12954 C12954 64.0309 55.7245 20.9122 C.2 0.0 **** -0.1268
12955 C12955 64.6404 56.9767 20.6358 C.2 0.0 **** 0.0
12956 C12956 63.8619 58.1723 20.7121 C.2 0.0 **** 0.0
12957 C12957 62.4916 58.0951 21.0848 C.2 0.0 **** 0.0
12958 C12958 64.4721 59.4163 20.4033 C.2 0.0 **** 0.0
12959 C12959 65.8578 59.4676 20.0592 C.2 0.0 **** 0.0
12960 C12960 66.6381 58.2552 20.0582 C.2 0.0 **** 0.0
12961 C12961 65.99 57.0345 20.3025 C.2 0.0 **** -0.1268
12962 C12962 68.0416 58.3432 19.8186 C.2 0.0 **** 0.0
12963 C12963 68.5893 59.553 19.4359 C.2 0.0 **** 0.042
12964 C12964 67.8362 60.7583 19.3085 C.2 0.0 **** 0.0
12965 C12965 66.4675 60.7049 19.6949 C.2 0.0 **** 0.0
12966 C12966 61.7046 59.2943 21.147 C.2 0.0 **** 0.0
12967 C12967 60.363 59.1607 21.5606 C.2 0.0 **** -0.1268
12968 C12968 63.685 60.6146 20.437 C.2 0.0 **** 0.0
12969 C12969 62.3067 60.5656 20.8035 C.2 0.0 **** 0.0
12970 C12970 65.6749 61.9005 19.7037 C.2 0.0 **** 0.0
12971 C12971 64.3093 61.8494 20.0869 C.2 0.0 **** 0.0
12972 C12972 68.4022 61.9997 18.8414 C.2 0.0 **** 0.0
12973 C12973 67.6119 63.1859 18.9062 C.2 0.0 **** 0.0
12974 C12974 66.2628 63.1405 19.3395 C.2 0.0 **** 0.0
12975 O12975 69.9563 59.5813 19.2626 O.3 0.0 **** -0.202
12976 C12976 70.5055 58.5692 18.372 C.3 0.0 **** 0.107
12977 C12977 69.8711 57.1794 18.6287 C.3 0.0 **** -0.053
12978 C12978 69.104 57.2572 19.9564 C.3 0.0 **** 0.107
12979 C12979 70.9249 56.0663 18.578 C.3 0.0 **** -0.106
12980 C12980 71.8814 56.3397 17.4126 C.3 0.0 **** -0.106
12981 C12981 72.7731 57.5428 17.7345 C.3 0.0 **** 0.134
12982 C12982 72.018 58.6226 18.58 C.3 0.0 **** -0.053
12983 C12983 72.5637 60.0221 18.2506 C.3 0.0 **** -0.106
12984 C12984 74.0753 59.9953 18.0304 C.3 0.0 **** -0.106
12985 C12985 74.418 59.0808 16.8208 C.3 0.0 **** 0.081
12986 N12986 73.3854 58.0782 16.5178 N.3 0.0 **** -0.727
12987 C12987 61.583 61.8103 20.8094 C.2 0.0 **** 0.042
12988 C12988 62.2059 63.0141 20.5178 C.2 0.0 **** 0.042
12989 C12989 63.5673 63.0689 20.1218 C.2 0.0 **** 0.0
12990 O12990 61.5525 64.2239 20.5669 O.3 0.0 **** -0.202
12991 C12991 60.283 64.2004 21.2549 C.3 0.0 **** 0.107
12992 C12992 59.5149 62.9917 20.7469 C.3 0.0 **** 0.107
12993 O12993 60.24 61.8017 21.1132 O.3 0.0 **** -0.202
12994 C12994 59.2631 63.0484 19.2257 C.3 0.0 **** -0.106
12995 C12995 59.2045 64.4928 18.6831 C.3 0.0 **** -0.106
12996 C12996 58.634 65.4444 19.7407 C.3 0.0 **** -0.106
12997 C12997 59.5614 65.5196 20.9711 C.3 0.0 **** -0.106
12998 C12998 65.4982 64.3532 19.3785 C.2 0.0 **** 0.0
12999 C12999 64.1639 64.2914 19.7798 C.2 0.0 **** -0.1268
13000 C13000 68.1901 64.4256 18.5135 C.2 0.0 **** 0.0
13001 C13001 67.4093 65.6198 18.5965 C.2 0.0 **** 0.042
13002 C13002 66.1057 65.594 19.0088 C.2 0.0 **** -0.1268
13003 C13003 69.5062 64.4918 18.0322 C.2 0.0 **** 0.0
13004 C13004 70.2485 63.3119 17.8922 C.2 0.0 **** 0.0
13005 C13005 69.6941 62.1097 18.2917 C.2 0.0 **** -0.1268
13006 O13006 67.9609 66.8424 18.2449 O.3 0.0 **** -0.0685
13007 C13007 69.2731 66.9306 17.8399 C.2 0.0 **** 0.0265
13008 C13008 70.0653 65.7788 17.6956 C.2 0.0 **** 0.0
13009 C13009 71.6228 63.308 17.2772 C.3 0.0 **** -0.053
13010 C13010 72.308 64.6939 17.2499 C.3 0.0 **** -0.053
13011 C13011 71.3942 65.8902 17.2776 C.2 0.0 **** 0.0
13012 C13012 73.2597 64.8346 16.047 C.3 0.0 **** -0.053
13013 C13013 74.0226 63.532 15.8356 C.3 0.0 **** -0.106
13014 C13014 73.0396 62.4245 15.3805 C.3 0.0 **** -0.106
13015 C13015 71.6023 62.6858 15.8692 C.3 0.0 **** -0.106
13016 C13016 71.9441 67.1489 16.9915 C.2 0.0 **** 0.0
13017 C13017 71.1622 68.3202 17.2002 C.2 0.0 **** 0.0
13018 C13018 69.7969 68.2176 17.614 C.2 0.0 **** 0.0
13019 C13019 74.0496 66.1063 16.1933 C.2 0.0 **** 0.0
13020 C13020 73.3124 67.2648 16.5655 C.2 0.0 **** 0.0
13021 C13021 59.1731 50.1026 18.997 C.3 0.0 **** -0.053
13022 C13022 60.0775 51.2945 18.6574 C.3 0.0 **** -0.159
13023 C13023 59.3078 49.0121 17.9291 C.3 0.0 **** -0.159
13024 O13024 68.6812 55.9369 20.3014 O.3 0.0 **** -0.57
13025 C13025 69.0343 69.4159 17.8053 C.2 0.0 **** -0.1268
13026 C13026 69.6075 70.6446 17.6291 C.2 0.0 **** -0.1268
13027 C13027 70.9859 70.7854 17.2582 C.2 0.0 **** 0.0
13028 C13028 71.761 69.6008 17.0401 C.2 0.0 **** 0.0
13029 C13029 73.1344 69.7105 16.6957 C.2 0.0 **** 0.0
13030 C13030 73.7357 70.9846 16.5673 C.2 0.0 **** 0.0
13031 C13031 72.9516 72.164 16.7816 C.2 0.0 **** 0.0
13032 C13032 71.5949 72.0369 17.1204 C.2 0.0 **** -0.1268
13033 C13033 73.5766 73.4424 16.6478 C.2 0.0 **** -0.1268
13034 C13034 74.903 73.5463 16.3221 C.2 0.0 **** -0.1268
13035 C13035 75.7032 72.3839 16.1011 C.2 0.0 **** 0.0
13036 C13036 75.1147 71.0969 16.2207 C.2 0.0 **** 0.0
13037 C13037 75.9013 69.9281 15.9889 C.2 0.0 **** 0.0
13038 C13038 75.2906 68.6475 16.1081 C.2 0.0 **** 0.0
13039 C13039 73.916 68.5352 16.4634 C.2 0.0 **** 0.0
13040 C13040 77.2762 70.0397 15.6254 C.2 0.0 **** 0.0
13041 C13041 77.8355 71.3447 15.5374 C.2 0.0 **** -0.1268
13042 C13042 77.0739 72.471 15.7693 C.2 0.0 **** -0.1268
13043 C13043 75.3892 66.2168 15.895 C.2 0.0 **** -0.1268
13044 C13044 76.0558 67.4701 15.8839 C.2 0.0 **** 0.0
13045 C13045 78.0461 68.8321 15.4076 C.2 0.0 **** 0.052
13046 C13046 77.453 67.5773 15.6016 C.2 0.0 **** 0.0
13047 C13047 78.2587 66.2995 15.525 C.3 0.0 **** -0.106
13048 C13048 79.7361 66.5351 15.8139 C.3 0.0 **** -0.106
13049 C13049 80.251 67.5917 14.8507 C.3 0.0 **** -0.086
13050 C13050 79.4443 68.8839 14.8817 C.2 0.0 **** 0.347
13051 O13051 79.964 69.8985 14.4145 O.2 0.0 **** -0.419
13052 H13052 53.0843 51.776 19.1518 H 0.0 **** 0.053
13053 H13053 53.6739 52.8453 20.4532 H 0.0 **** 0.053
13054 H13054 52.6229 50.0188 20.6651 H 0.0 **** 0.053
13055 H13055 53.7207 50.8997 21.7381 H 0.0 **** 0.053
13056 H13056 50.6766 50.9858 21.6158 H 0.0 **** 0.053
13057 H13057 50.7097 52.8539 23.2333 H 0.0 **** 0.053
13058 H13058 51.9864 54.4632 21.3404 H 0.0 **** 0.053
13059 H13059 50.3013 53.8744 21.1971 H 0.0 **** 0.053
13060 H13060 53.6276 53.3113 22.5783 H 0.0 **** 0.053
13061 H13061 54.1358 51.3846 23.7754 H 0.0 **** 0.053
13062 H13062 51.4095 51.6335 25.1203 H 0.0 **** 0.053
13063 H13063 52.5637 50.3247 25.4164 H 0.0 **** 0.053
13064 H13064 50.6947 49.8779 23.641 H 0.0 **** 0.053
13065 H13065 52.3442 49.4402 23.1913 H 0.0 **** 0.053
13066 H13066 55.2138 53.8318 26.2531 H 0.0 **** 0.053
13067 H13067 53.4961 55.2738 25.8457 H 0.0 **** 0.053
13068 H13068 52.2218 55.1679 23.4832 H 0.0 **** 0.053
13069 H13069 51.8067 54.1482 24.8681 H 0.0 **** 0.053
13070 H13070 55.4503 52.9494 23.3531 H 0.0 **** 0.053
13071 H13071 56.6424 59.1388 23.2441 H 0.0 **** 0.053
13072 H13072 55.4725 58.4346 22.1303 H 0.0 **** 0.053
13073 H13073 54.2426 59.3913 24.0362 H 0.0 **** 0.053
13074 H13074 55.2406 58.4775 25.1895 H 0.0 **** 0.053
13075 H13075 53.3305 57.286 23.1051 H 0.0 **** 0.053
13076 H13076 53.0687 57.2946 24.8491 H 0.0 **** 0.053
13077 H13077 58.207 50.7842 27.1427 H 0.0 **** 0.053
13078 H13078 57.0521 49.5596 26.6829 H 0.0 **** 0.053
13079 H13079 55.7593 51.6669 26.5092 H 0.0 **** 0.1268
13080 H13080 59.3695 48.44 26.3688 H 0.0 **** 0.053
13081 H13081 58.5577 47.8658 24.9014 H 0.0 **** 0.053
13082 H13082 61.0108 47.7141 24.5368 H 0.0 **** 0.053
13083 H13083 61.2214 49.4054 25.0312 H 0.0 **** 0.053
13084 H13084 57.7865 50.4489 21.4758 H 0.0 **** 0.053
13085 H13085 59.1559 51.5104 21.2464 H 0.0 **** 0.053
13086 H13086 58.8996 48.5737 20.4839 H 0.0 **** 0.053
13087 H13087 61.4653 50.2019 20.754 H 0.0 **** 0.053
13088 H13088 61.3703 48.6666 19.8685 H 0.0 **** 0.053
13089 H13089 62.1156 48.4331 22.3194 H 0.0 **** 0.053
13090 H13090 60.7224 47.4485 21.8916 H 0.0 **** 0.053
13091 H13091 60.4719 52.1895 22.8182 H 0.0 **** 0.1268
13092 H13092 64.6413 54.8222 20.8311 H 0.0 **** 0.1268
13093 H13093 66.5367 56.1021 20.2014 H 0.0 **** 0.1268
13094 H13094 59.7168 60.0224 21.6409 H 0.0 **** 0.1268
13095 H13095 70.2776 58.8934 17.3393 H 0.0 **** 0.053
13096 H13096 69.1276 56.9829 17.8398 H 0.0 **** 0.053
13097 H13097 69.8249 57.6104 20.7225 H 0.0 **** 0.053
13098 H13098 71.4868 56.0371 19.5273 H 0.0 **** 0.053
13099 H13099 70.4248 55.0947 18.4782 H 0.0 **** 0.053
13100 H13100 71.2918 56.5594 16.5042 H 0.0 **** 0.053
13101 H13101 72.512 55.4722 17.1744 H 0.0 **** 0.053
13102 H13102 73.61 57.1836 18.3576 H 0.0 **** 0.053
13103 H13103 72.2006 58.4132 19.6476 H 0.0 **** 0.053
13104 H13104 72.0792 60.3798 17.3257 H 0.0 **** 0.053
13105 H13105 72.2837 60.7315 19.0411 H 0.0 **** 0.053
13106 H13106 74.5648 59.6188 18.9429 H 0.0 **** 0.053
13107 H13107 74.4605 61.0131 17.8589 H 0.0 **** 0.053
13108 H13108 75.3669 58.5519 17.0131 H 0.0 **** 0.053
13109 H13109 74.5684 59.6845 15.9135 H 0.0 **** 0.053
13110 H13110 72.6595 58.4919 15.9313 H 0.0 **** 0.353
13111 H13111 60.4843 64.074 22.3317 H 0.0 **** 0.053
13112 H13112 58.5685 62.9105 21.3003 H 0.0 **** 0.053
13113 H13113 60.0676 62.4895 18.7259 H 0.0 **** 0.053
13114 H13114 58.3227 62.5181 19.0157 H 0.0 **** 0.053
13115 H13115 58.5962 64.5201 17.7672 H 0.0 **** 0.053
13116 H13116 60.2181 64.8247 18.4136 H 0.0 **** 0.053
13117 H13117 57.6376 65.0823 20.0469 H 0.0 **** 0.053
13118 H13118 58.4871 66.4527 19.3266 H 0.0 **** 0.053
13119 H13119 58.9895 65.8116 21.8645 H 0.0 **** 0.053
13120 H13120 60.3387 66.2851 20.8237 H 0.0 **** 0.053
13121 H13121 63.5726 65.2047 19.8236 H 0.0 **** 0.1268
13122 H13122 65.5245 66.5157 19.053 H 0.0 **** 0.1268
13123 H13123 70.2921 61.2181 18.188 H 0.0 **** 0.1268
13124 H13124 72.2546 62.6457 17.8886 H 0.0 **** 0.053
13125 H13125 72.9384 64.7717 18.1581 H 0.0 **** 0.053
13126 H13126 72.6218 64.9948 15.1544 H 0.0 **** 0.053
13127 H13127 74.5104 63.2535 16.7852 H 0.0 **** 0.053
13128 H13128 74.8206 63.6524 15.0892 H 0.0 **** 0.053
13129 H13129 73.383 61.4549 15.7678 H 0.0 **** 0.053
13130 H13130 73.0451 62.3498 14.2822 H 0.0 **** 0.053
13131 H13131 71.0226 61.7506 15.89 H 0.0 **** 0.053
13132 H13132 71.0689 63.3663 15.1867 H 0.0 **** 0.053
13133 H13133 58.1256 50.4555 18.9909 H 0.0 **** 0.053
13134 H13134 59.7679 51.7546 17.707 H 0.0 **** 0.053
13135 H13135 61.1219 50.9655 18.5429 H 0.0 **** 0.053
13136 H13136 60.0564 52.074 19.4341 H 0.0 **** 0.053
13137 H13137 58.6375 48.1642 18.1409 H 0.0 **** 0.053
13138 H13138 60.3394 48.6273 17.8921 H 0.0 **** 0.053
13139 H13139 59.064 49.4039 16.9298 H 0.0 **** 0.053
13140 H13140 68.3402 55.9707 21.2084 H 0.0 **** 0.41
13141 H13141 67.9896 69.3283 18.1031 H 0.0 **** 0.1268
13142 H13142 69.0204 71.552 17.7814 H 0.0 **** 0.1268
13143 H13143 71.0032 72.9394 17.2885 H 0.0 **** 0.1268
13144 H13144 72.9712 74.3353 16.8141 H 0.0 **** 0.1268
13145 H13145 75.3767 74.5255 16.2284 H 0.0 **** 0.1268
13146 H13146 78.8821 71.4418 15.2697 H 0.0 **** 0.1268
13147 H13147 77.5345 73.4586 15.6977 H 0.0 **** 0.1268
13148 H13148 75.9366 65.3196 15.6186 H 0.0 **** 0.1268
13149 H13149 77.8511 65.5733 16.2422 H 0.0 **** 0.053
13150 H13150 78.1459 65.8453 14.5223 H 0.0 **** 0.053
13151 H13151 80.3039 65.5971 15.7187 H 0.0 **** 0.053
13152 H13152 79.8485 66.887 16.8525 H 0.0 **** 0.053
13153 H13153 80.187 67.2113 13.8144 H 0.0 **** 0.053
13154 H13154 81.3022 67.8645 15.0203 H 0.0 **** 0.053
13155 C13155 21.164 62.8471 30.4694 C.3 0.0 **** 0.054
13156 C13156 20.6655 63.0131 31.9241 C.3 0.0 **** -0.106
13157 C13157 19.7979 64.2814 32.0609 C.3 0.0 **** -0.053
13158 C13158 20.4374 65.4156 31.2435 C.3 0.0 **** -0.053
13159 C13159 20.5046 64.9965 29.7519 C.3 0.0 **** 0.054
13160 O13160 20.3497 63.5861 29.5526 O.3 0.0 **** -0.32
13161 C13161 21.8251 65.792 31.8041 C.3 0.0 **** -0.053
13162 C13162 21.8734 65.731 33.3576 C.3 0.0 **** 0.107
13163 C13163 20.4839 65.8847 33.9524 C.3 0.0 **** -0.106
13164 C13164 19.5862 64.705 33.5369 C.3 0.0 **** -0.106
13165 O13165 22.6958 66.772 33.9073 O.3 0.0 **** -0.32
13166 C13166 23.9381 66.9368 33.2027 C.3 0.0 **** 0.107
13167 C13167 23.6346 67.6104 31.8524 C.3 0.0 **** -0.053
13168 C13168 22.2208 67.1944 31.3499 C.3 0.0 **** -0.106
13169 C13169 24.7116 67.4495 30.8312 C.2 0.0 **** 0.0
13170 C13170 25.8076 66.6193 31.0047 C.2 0.0 **** 0.0
13171 C13171 25.9103 65.737 32.1397 C.2 0.0 **** 0.0
13172 C13172 24.7523 65.6368 33.107 C.3 0.0 **** -0.053
13173 C13173 26.9662 64.8531 32.2783 C.2 0.0 **** 0.0
13174 C13174 28.0285 64.8386 31.3006 C.2 0.0 **** 0.0
13175 C13175 27.9292 65.7517 30.2072 C.2 0.0 **** 0.232
13176 C13176 26.8755 66.6037 30.0238 C.2 0.0 **** 0.0
13177 C13177 26.8146 67.5044 28.8164 C.3 0.0 **** -0.106
13178 C13178 25.9576 68.743 29.0801 C.3 0.0 **** -0.106
13179 C13179 24.5865 68.3175 29.6108 C.3 0.0 **** -0.106
13180 O13180 28.9196 65.7735 29.244 O.3 0.0 **** -0.464
13181 C13181 30.056 65.0159 29.3917 C.2 0.0 **** 0.232
13182 C13182 30.1862 64.0649 30.42 C.2 0.0 **** 0.0
13183 C13183 29.1134 63.957 31.3799 C.2 0.0 **** 0.0
13184 C13184 25.1781 65.0963 34.4515 C.2 0.0 **** 0.0
13185 C13185 26.0939 63.9588 34.4221 C.2 0.0 **** 0.0
13186 C13186 27.0274 63.895 33.3857 C.2 0.0 **** 0.0
13187 C13187 26.0825 63.0728 35.5846 C.2 0.0 **** 0.0
13188 C13188 25.7195 63.5826 36.7977 C.2 0.0 **** 0.0
13189 C13189 25.2011 64.9765 36.9363 C.3 0.0 **** -0.106
13190 C13190 24.7662 65.589 35.6411 C.2 0.0 **** -0.1268
13191 C13191 25.8026 62.7157 38.0229 C.3 0.0 **** -0.106
13192 C13192 26.938 61.6982 37.8775 C.3 0.0 **** -0.106
13193 C13193 26.7817 60.9491 36.5769 C.2 0.0 **** 0.0
13194 C13194 26.3479 61.6195 35.4831 C.2 0.0 **** 0.0
13195 C13195 25.9697 60.906 34.2056 C.3 0.0 **** -0.106
13196 C13196 25.9676 59.3784 34.3324 C.3 0.0 **** -0.053
13197 C13197 27.196 58.934 35.1341 C.3 0.0 **** -0.106
13198 C13198 27.1099 59.4849 36.5574 C.3 0.0 **** -0.106
13199 C13199 29.1317 63.0218 32.4672 C.2 0.0 **** -0.012
13200 C13200 28.1491 63.0129 33.4265 C.2 0.0 **** -0.1268
13201 C13201 31.4003 63.3329 30.4609 C.2 0.0 **** 0.0
13202 C13202 31.6126 62.3132 31.4566 C.2 0.0 **** -0.012
13203 S13203 30.3749 61.7966 32.5911 S.2 0.0 **** 0.024
13204 C13204 32.8007 61.6318 31.5279 C.2 0.0 **** -0.1268
13205 C13205 33.8638 61.9068 30.6279 C.2 0.0 **** 0.0
13206 C13206 33.6856 62.8874 29.6042 C.2 0.0 **** 0.0
13207 C13207 32.4531 63.591 29.5131 C.2 0.0 **** 0.0
13208 C13208 34.7432 63.1329 28.6895 C.2 0.0 **** 0.0
13209 C13209 35.9809 62.4316 28.822 C.2 0.0 **** 0.0
13210 C13210 36.1599 61.4985 29.9064 C.2 0.0 **** 0.0
13211 C13211 35.0728 61.2294 30.7525 C.2 0.0 **** -0.1268
13212 C13212 37.4383 60.8912 30.0846 C.2 0.0 **** 0.0
13213 C13213 38.4186 61.0826 29.1294 C.2 0.0 **** 0.042
13214 C13214 38.25 61.9047 27.9752 C.2 0.0 **** 0.0
13215 C13215 37.0303 62.6312 27.8763 C.2 0.0 **** 0.0
13216 C13216 32.2677 64.5657 28.4753 C.2 0.0 **** 0.0
13217 C13217 31.04 65.2596 28.4587 C.2 0.0 **** -0.1268
13218 C13218 34.5548 64.0854 27.6342 C.2 0.0 **** 0.0
13219 C13219 33.3266 64.8025 27.5166 C.2 0.0 **** 0.0
13220 C13220 36.8337 63.5652 26.8053 C.2 0.0 **** 0.0
13221 C13221 35.6174 64.2896 26.7036 C.2 0.0 **** 0.0
13222 C13222 39.2531 62.0428 26.9485 C.2 0.0 **** 0.0
13223 C13223 39.0593 63.0135 25.9207 C.2 0.0 **** 0.0
13224 C13224 37.8647 63.7737 25.8517 C.2 0.0 **** 0.0
13225 O13225 39.6442 60.5051 29.3824 O.3 0.0 **** -0.202
13226 C13226 39.6257 59.0821 29.6885 C.3 0.0 **** 0.107
13227 C13227 38.4793 58.7245 30.6671 C.3 0.0 **** -0.053
13228 C13228 37.937 60.0387 31.2471 C.3 0.0 **** 0.107
13229 C13229 38.9424 57.7163 31.7257 C.3 0.0 **** -0.106
13230 C13230 39.82 56.6559 31.0523 C.3 0.0 **** -0.106
13231 C13231 41.1667 57.2648 30.6503 C.3 0.0 **** 0.134
13232 C13232 41.0255 58.7603 30.209 C.3 0.0 **** -0.053
13233 C13233 42.0902 59.0976 29.1519 C.3 0.0 **** -0.106
13234 C13234 43.418 58.4053 29.4549 C.3 0.0 **** -0.106
13235 C13235 43.2287 56.8625 29.4288 C.3 0.0 **** 0.081
13236 N13236 41.8433 56.4261 29.66 N.3 0.0 **** -0.727
13237 C13237 33.2128 65.738 26.4281 C.2 0.0 **** 0.042
13238 C13238 34.2659 65.9702 25.5567 C.2 0.0 **** 0.042
13239 C13239 35.4789 65.2395 25.6465 C.2 0.0 **** 0.0
13240 O13240 34.204 66.8958 24.5406 O.3 0.0 **** -0.202
13241 C13241 33.112 67.8355 24.6415 C.3 0.0 **** 0.107
13242 C13242 31.858 67.0398 24.9629 C.3 0.0 **** 0.107
13243 O13243 32.0285 66.4178 26.2514 O.3 0.0 **** -0.202
13244 C13244 31.5261 65.9958 23.8764 C.3 0.0 **** -0.106
13245 C13245 32.049 66.3991 22.4807 C.3 0.0 **** -0.106
13246 C13246 32.0366 67.9233 22.3188 C.3 0.0 **** -0.106
13247 C13247 33.0074 68.5904 23.3147 C.3 0.0 **** -0.106
13248 C13248 37.7032 64.7306 24.7958 C.2 0.0 **** 0.0
13249 C13249 36.512 65.4524 24.722 C.2 0.0 **** -0.1268
13250 C13250 40.079 63.2034 24.9464 C.2 0.0 **** 0.0
13251 C13251 39.8988 64.1892 23.9273 C.2 0.0 **** 0.042
13252 C13252 38.7517 64.9288 23.8435 C.2 0.0 **** -0.1268
13253 C13253 41.2489 62.4292 24.9605 C.2 0.0 **** 0.0
13254 C13254 41.3958 61.4209 25.922 C.2 0.0 **** 0.0
13255 C13255 40.4143 61.2488 26.8807 C.2 0.0 **** -0.1268
13256 O13256 40.8908 64.41 22.984 O.3 0.0 **** -0.0685
13257 C13257 42.0731 63.7074 23.0303 C.2 0.0 **** 0.0265
13258 C13258 42.2766 62.6944 23.983 C.2 0.0 **** 0.0
13259 C13259 42.5764 60.4864 25.9169 C.3 0.0 **** -0.053
13260 C13260 43.7864 60.9996 25.1025 C.3 0.0 **** -0.053
13261 C13261 43.4828 61.9892 24.0091 C.2 0.0 **** 0.0
13262 C13262 44.5993 59.839 24.4983 C.3 0.0 **** -0.053
13263 C13263 44.7058 58.7015 25.5075 C.3 0.0 **** -0.106
13264 C13264 43.3068 58.0745 25.7301 C.3 0.0 **** -0.106
13265 C13265 42.1697 59.0761 25.4528 C.3 0.0 **** -0.106
13266 C13266 44.4945 62.2804 23.0815 C.2 0.0 **** 0.0
13267 C13267 44.3141 63.3497 22.159 C.2 0.0 **** 0.0
13268 C13268 43.0786 64.069 22.1138 C.2 0.0 **** 0.0
13269 C13269 45.869 60.3863 23.9063 C.2 0.0 **** 0.0
13270 C13270 45.7373 61.5582 23.1104 C.2 0.0 **** 0.0
13271 C13271 25.8515 58.7054 32.9486 C.3 0.0 **** -0.053
13272 C13272 27.1483 58.7996 32.134 C.3 0.0 **** -0.159
13273 C13273 25.4117 57.2437 33.0804 C.3 0.0 **** -0.159
13274 O13274 37.0182 59.7155 32.2922 O.3 0.0 **** -0.57
13275 C13275 42.9257 65.1334 21.1663 C.2 0.0 **** -0.1268
13276 C13276 43.9547 65.4841 20.3372 C.2 0.0 **** -0.1268
13277 C13277 45.2221 64.8142 20.3864 C.2 0.0 **** 0.0
13278 C13278 45.3898 63.7327 21.3104 C.2 0.0 **** 0.0
13279 C13279 46.6415 63.0676 21.3974 C.2 0.0 **** 0.0
13280 C13280 47.7194 63.4703 20.5743 C.2 0.0 **** 0.0
13281 C13281 47.5411 64.5491 19.6491 C.2 0.0 **** 0.0
13282 C13282 46.2963 65.1947 19.5756 C.2 0.0 **** -0.1268
13283 C13283 48.6417 64.942 18.8262 C.2 0.0 **** -0.1268
13284 C13284 49.8503 64.3038 18.9161 C.2 0.0 **** -0.1268
13285 C13285 50.0499 63.2239 19.8294 C.2 0.0 **** 0.0
13286 C13286 48.9772 62.803 20.6597 C.2 0.0 **** 0.0
13287 C13287 49.1608 61.7159 21.5668 C.2 0.0 **** 0.0
13288 C13288 48.0709 61.3058 22.3859 C.2 0.0 **** 0.0
13289 C13289 46.8179 61.9781 22.3074 C.2 0.0 **** 0.0
13290 C13290 50.4131 61.0368 21.6407 C.2 0.0 **** 0.0
13291 C13291 51.47 61.5015 20.8096 C.2 0.0 **** -0.1268
13292 C13292 51.2905 62.5568 19.9399 C.2 0.0 **** -0.1268
13293 C13293 47.0947 59.7682 24.0127 C.2 0.0 **** -0.1268
13294 C13294 48.2324 60.2269 23.2981 C.2 0.0 **** 0.0
13295 C13295 50.5664 59.9445 22.5798 C.2 0.0 **** 0.052
13296 C13296 49.5097 59.5997 23.4334 C.2 0.0 **** 0.0
13297 C13297 49.6769 58.5643 24.5232 C.3 0.0 **** -0.106
13298 C13298 51.1305 58.4167 24.9557 C.3 0.0 **** -0.106
13299 C13299 51.9657 58.0917 23.7284 C.3 0.0 **** -0.086
13300 C13300 51.8 59.1007 22.5988 C.2 0.0 **** 0.347
13301 O13301 52.6638 59.1292 21.7209 O.2 0.0 **** -0.419
13302 H13302 21.1145 61.8 30.1409 H 0.0 **** 0.053
13303 H13303 22.216 63.184 30.3775 H 0.0 **** 0.053
13304 H13304 20.0728 62.1396 32.2362 H 0.0 **** 0.053
13305 H13305 21.5303 63.0741 32.6037 H 0.0 **** 0.053
13306 H13306 18.8218 64.0546 31.608 H 0.0 **** 0.053
13307 H13307 19.7942 66.3082 31.3203 H 0.0 **** 0.053
13308 H13308 21.4723 65.3225 29.3165 H 0.0 **** 0.053
13309 H13309 19.6925 65.4563 29.1714 H 0.0 **** 0.053
13310 H13310 22.5568 65.0775 31.3942 H 0.0 **** 0.053
13311 H13311 22.2862 64.7556 33.6804 H 0.0 **** 0.053
13312 H13312 20.0588 66.8377 33.5983 H 0.0 **** 0.053
13313 H13313 20.5576 65.952 35.0473 H 0.0 **** 0.053
13314 H13314 18.5341 64.9814 33.7026 H 0.0 **** 0.053
13315 H13315 19.7893 63.8408 34.1906 H 0.0 **** 0.053
13316 H13316 24.5203 67.6326 33.8245 H 0.0 **** 0.053
13317 H13317 23.563 68.697 32.0507 H 0.0 **** 0.053
13318 H13318 22.1705 67.2664 30.2534 H 0.0 **** 0.053
13319 H13319 21.4769 67.8997 31.7527 H 0.0 **** 0.053
13320 H13320 24.1049 64.8542 32.6619 H 0.0 **** 0.053
13321 H13321 27.8317 67.7858 28.5075 H 0.0 **** 0.053
13322 H13322 26.3821 66.942 27.9673 H 0.0 **** 0.053
13323 H13323 25.8519 69.3383 28.1603 H 0.0 **** 0.053
13324 H13324 26.4538 69.3769 29.8328 H 0.0 **** 0.053
13325 H13325 24.0463 67.7735 28.8103 H 0.0 **** 0.053
13326 H13326 23.9639 69.1966 29.8486 H 0.0 **** 0.053
13327 H13327 25.9736 65.6197 37.4127 H 0.0 **** 0.053
13328 H13328 24.3693 64.9824 37.6676 H 0.0 **** 0.053
13329 H13329 24.1003 66.449 35.688 H 0.0 **** 0.1268
13330 H13330 25.9426 63.3435 38.9173 H 0.0 **** 0.053
13331 H13331 24.8404 62.1811 38.1582 H 0.0 **** 0.053
13332 H13332 26.948 60.9924 38.7226 H 0.0 **** 0.053
13333 H13333 27.9078 62.232 37.891 H 0.0 **** 0.053
13334 H13334 24.9668 61.2545 33.9007 H 0.0 **** 0.053
13335 H13335 26.6346 61.2039 33.3806 H 0.0 **** 0.053
13336 H13336 25.0746 59.0877 34.9167 H 0.0 **** 0.053
13337 H13337 28.1041 59.3275 34.6486 H 0.0 **** 0.053
13338 H13338 27.282 57.8367 35.1505 H 0.0 **** 0.053
13339 H13339 28.0606 59.3257 37.0982 H 0.0 **** 0.053
13340 H13340 26.3483 58.9256 37.1352 H 0.0 **** 0.053
13341 H13341 28.2438 62.3338 34.2735 H 0.0 **** 0.1268
13342 H13342 32.9537 60.8661 32.2919 H 0.0 **** 0.1268
13343 H13343 35.1539 60.4534 31.5072 H 0.0 **** 0.1268
13344 H13344 30.8373 66.0144 27.7132 H 0.0 **** 0.1268
13345 H13345 39.4722 58.5503 28.7308 H 0.0 **** 0.053
13346 H13346 37.6592 58.2651 30.0926 H 0.0 **** 0.053
13347 H13347 38.8024 60.5749 31.6888 H 0.0 **** 0.053
13348 H13348 39.5159 58.2346 32.5133 H 0.0 **** 0.053
13349 H13349 38.0663 57.2723 32.215 H 0.0 **** 0.053
13350 H13350 39.3071 56.2831 30.1472 H 0.0 **** 0.053
13351 H13351 39.9926 55.7828 31.6963 H 0.0 **** 0.053
13352 H13352 41.8172 57.2597 31.5416 H 0.0 **** 0.053
13353 H13353 41.1907 59.3974 31.0944 H 0.0 **** 0.053
13354 H13354 41.7298 58.7532 28.1673 H 0.0 **** 0.053
13355 H13355 42.2117 60.1866 29.0734 H 0.0 **** 0.053
13356 H13356 43.7737 58.7284 30.4464 H 0.0 **** 0.053
13357 H13357 44.1877 58.7066 28.7265 H 0.0 **** 0.053
13358 H13358 43.8699 56.3973 30.1966 H 0.0 **** 0.053
13359 H13359 43.5461 56.4531 28.4583 H 0.0 **** 0.053
13360 H13360 41.3191 56.4519 28.7845 H 0.0 **** 0.353
13361 H13361 33.3306 68.519 25.4788 H 0.0 **** 0.053
13362 H13362 31.0201 67.736 25.1097 H 0.0 **** 0.053
13363 H13363 31.9655 65.0349 24.1812 H 0.0 **** 0.053
13364 H13364 30.4349 65.8599 23.856 H 0.0 **** 0.053
13365 H13365 31.4359 65.9207 21.7029 H 0.0 **** 0.053
13366 H13366 33.0795 66.0351 22.3558 H 0.0 **** 0.053
13367 H13367 31.0115 68.2928 22.4935 H 0.0 **** 0.053
13368 H13368 32.3034 68.2136 21.292 H 0.0 **** 0.053
13369 H13369 32.6957 69.6258 23.5182 H 0.0 **** 0.053
13370 H13370 34.0228 68.6386 22.8922 H 0.0 **** 0.053
13371 H13371 36.3778 66.1893 23.9316 H 0.0 **** 0.1268
13372 H13372 38.6301 65.6673 23.0503 H 0.0 **** 0.1268
13373 H13373 40.5587 60.476 27.6191 H 0.0 **** 0.1268
13374 H13374 42.9112 60.3741 26.9595 H 0.0 **** 0.053
13375 H13375 44.464 61.5227 25.8065 H 0.0 **** 0.053
13376 H13376 44.0188 59.4618 23.6323 H 0.0 **** 0.053
13377 H13377 45.1053 59.1075 26.4523 H 0.0 **** 0.053
13378 H13378 45.4108 57.9297 25.1674 H 0.0 **** 0.053
13379 H13379 43.231 57.7189 26.7674 H 0.0 **** 0.053
13380 H13380 43.1856 57.1938 25.0808 H 0.0 **** 0.053
13381 H13381 41.2479 58.7711 25.9708 H 0.0 **** 0.053
13382 H13382 41.925 59.111 24.3793 H 0.0 **** 0.053
13383 H13383 25.0618 59.2488 32.3981 H 0.0 **** 0.053
13384 H13384 26.987 58.433 31.1091 H 0.0 **** 0.053
13385 H13385 27.9352 58.1785 32.5892 H 0.0 **** 0.053
13386 H13386 27.5315 59.8293 32.0695 H 0.0 **** 0.053
13387 H13387 24.4624 57.1631 33.6332 H 0.0 **** 0.053
13388 H13388 26.1698 56.6553 33.6216 H 0.0 **** 0.053
13389 H13389 25.2759 56.78 32.0915 H 0.0 **** 0.053
13390 H13390 36.8039 60.5408 32.7537 H 0.0 **** 0.41
13391 H13391 41.9748 65.6644 21.126 H 0.0 **** 0.1268
13392 H13392 43.8309 66.299 19.6218 H 0.0 **** 0.1268
13393 H13393 46.1677 66.0206 18.8725 H 0.0 **** 0.1268
13394 H13394 48.4964 65.7659 18.125 H 0.0 **** 0.1268
13395 H13395 50.6895 64.6132 18.29 H 0.0 **** 0.1268
13396 H13396 52.4294 60.9981 20.863 H 0.0 **** 0.1268
13397 H13397 52.1235 62.8921 19.3183 H 0.0 **** 0.1268
13398 H13398 47.1766 58.8776 24.63 H 0.0 **** 0.1268
13399 H13399 49.0594 58.8478 25.387 H 0.0 **** 0.053
13400 H13400 49.2942 57.587 24.173 H 0.0 **** 0.053
13401 H13401 51.2287 57.6348 25.724 H 0.0 **** 0.053
13402 H13402 51.4718 59.3651 25.4019 H 0.0 **** 0.053
13403 H13403 51.6558 57.113 23.3176 H 0.0 **** 0.053
13404 H13404 53.0422 58.0173 23.938 H 0.0 **** 0.053
13405 C13405 16.1143 57.8578 63.1918 C.3 0.0 **** 0.054
13406 C13406 15.6049 58.4838 64.5113 C.3 0.0 **** -0.106
13407 C13407 15.4973 57.4127 65.6162 C.3 0.0 **** -0.053
13408 C13408 14.9252 56.1219 65.0077 C.3 0.0 **** -0.053
13409 C13409 15.8766 55.6166 63.8921 C.3 0.0 **** 0.054
13410 O13410 16.7907 56.6188 63.4308 O.3 0.0 **** -0.32
13411 C13411 13.4876 56.3396 64.4905 C.3 0.0 **** -0.053
13412 C13412 12.6632 57.2847 65.4108 C.3 0.0 **** 0.107
13413 C13413 13.2272 57.2997 66.8214 C.3 0.0 **** -0.106
13414 C13414 14.6514 57.8845 66.8264 C.3 0.0 **** -0.106
13415 O13415 11.2889 56.8778 65.4996 O.3 0.0 **** -0.32
13416 C13416 10.7257 56.5214 64.2258 C.3 0.0 **** 0.107
13417 C13417 11.3129 55.1612 63.8086 C.3 0.0 **** -0.053
13418 C13418 12.7574 55.0049 64.3683 C.3 0.0 **** -0.106
13419 C13419 11.1928 54.8627 62.3508 C.2 0.0 **** 0.0
13420 C13420 10.7612 55.7907 61.4165 C.2 0.0 **** 0.0
13421 C13421 10.5298 57.1673 61.7756 C.2 0.0 **** 0.0
13422 C13422 10.8641 57.634 63.1746 C.3 0.0 **** -0.053
13423 C13423 10.171 58.113 60.831 C.2 0.0 **** 0.0
13424 C13424 9.96518 57.719 59.4573 C.2 0.0 **** 0.0
13425 C13425 10.1569 56.342 59.1317 C.2 0.0 **** 0.232
13426 C13426 10.5538 55.3967 60.0365 C.2 0.0 **** 0.0
13427 C13427 10.7856 53.97 59.6081 C.3 0.0 **** -0.106
13428 C13428 10.6184 52.9969 60.7757 C.3 0.0 **** -0.106
13429 C13429 11.4919 53.4456 61.9497 C.3 0.0 **** -0.106
13430 O13430 9.9748 55.9167 57.8297 O.3 0.0 **** -0.464
13431 C13431 9.49291 56.7773 56.8734 C.2 0.0 **** 0.232
13432 C13432 9.33321 58.1521 57.1243 C.2 0.0 **** 0.0
13433 C13433 9.61662 58.6332 58.4556 C.2 0.0 **** 0.0
13434 C13434 10.1295 58.9012 63.5432 C.2 0.0 **** 0.0
13435 C13435 10.0822 59.9352 62.5127 C.2 0.0 **** 0.0
13436 C13436 10.0204 59.5288 61.1783 C.2 0.0 **** 0.0
13437 C13437 9.91644 61.3139 62.969 C.2 0.0 **** 0.0
13438 C13438 9.27056 61.5438 64.1493 C.2 0.0 **** 0.0
13439 C13439 8.85943 60.4227 65.0467 C.3 0.0 **** -0.106
13440 C13440 9.53824 59.1244 64.7382 C.2 0.0 **** -0.1268
13441 C13441 8.99722 62.9567 64.5837 C.3 0.0 **** -0.106
13442 C13442 8.80046 63.8592 63.3622 C.3 0.0 **** -0.106
13443 C13443 9.96873 63.6972 62.4209 C.2 0.0 **** 0.0
13444 C13444 10.5115 62.4675 62.2563 C.2 0.0 **** 0.0
13445 C13445 11.8022 62.2579 61.4986 C.3 0.0 **** -0.106
13446 C13446 12.4974 63.5634 61.0958 C.3 0.0 **** -0.053
13447 C13447 11.4504 64.5586 60.5833 C.3 0.0 **** -0.106
13448 C13448 10.4826 64.9157 61.7114 C.3 0.0 **** -0.106
13449 C13449 9.49473 60.0129 58.828 C.2 0.0 **** -0.012
13450 C13450 9.66724 60.4266 60.1261 C.2 0.0 **** -0.1268
13451 C13451 8.84165 58.9422 56.0539 C.2 0.0 **** 0.0
13452 C13452 8.6769 60.3658 56.2041 C.2 0.0 **** -0.012
13453 S13453 9.18486 61.2527 57.6328 S.2 0.0 **** 0.024
13454 C13454 8.16198 61.1287 55.1873 C.2 0.0 **** -0.1268
13455 C13455 7.77036 60.5456 53.9534 C.2 0.0 **** 0.0
13456 C13456 7.94583 59.1425 53.749 C.2 0.0 **** 0.0
13457 C13457 8.49077 58.344 54.792 C.2 0.0 **** 0.0
13458 C13458 7.58051 58.5741 52.5005 C.2 0.0 **** 0.0
13459 C13459 7.00901 59.3951 51.4805 C.2 0.0 **** 0.0
13460 C13460 6.77718 60.7947 51.7374 C.2 0.0 **** 0.0
13461 C13461 7.21085 61.3387 52.9564 C.2 0.0 **** -0.1268
13462 C13462 6.10675 61.572 50.7468 C.2 0.0 **** 0.0
13463 C13463 5.84282 61.0129 49.5107 C.2 0.0 **** 0.042
13464 C13464 6.15968 59.6645 49.1675 C.2 0.0 **** 0.0
13465 C13465 6.68844 58.8448 50.2038 C.2 0.0 **** 0.0
13466 C13466 8.68158 56.9365 54.5821 C.2 0.0 **** 0.0
13467 C13467 9.18855 56.1891 55.6653 C.2 0.0 **** -0.1268
13468 C13468 7.79367 57.1741 52.2746 C.2 0.0 **** 0.0
13469 C13469 8.34285 56.3501 53.3022 C.2 0.0 **** 0.0
13470 C13470 6.92484 57.4496 49.9681 C.2 0.0 **** 0.0
13471 C13471 7.45382 56.6306 50.9995 C.2 0.0 **** 0.0
13472 C13472 5.94444 59.1107 47.8536 C.2 0.0 **** 0.0
13473 C13473 6.13773 57.7111 47.6546 C.2 0.0 **** 0.0
13474 C13474 6.61672 56.885 48.7024 C.2 0.0 **** 0.0
13475 O13475 5.15422 61.8012 48.6141 O.3 0.0 **** -0.202
13476 C13476 5.71372 63.1225 48.3686 C.3 0.0 **** 0.107
13477 C13477 6.16221 63.8051 49.6849 C.3 0.0 **** -0.053
13478 C13478 5.5737 62.9975 50.8507 C.3 0.0 **** 0.107
13479 C13479 5.78613 65.2917 49.6996 C.3 0.0 **** -0.106
13480 C13480 6.06719 65.8895 48.3169 C.3 0.0 **** -0.106
13481 C13481 5.05098 65.3628 47.2991 C.3 0.0 **** 0.134
13482 C13482 4.63666 63.8826 47.5965 C.3 0.0 **** -0.053
13483 C13483 4.29595 63.1596 46.2828 C.3 0.0 **** -0.106
13484 C13484 3.56792 64.084 45.3084 C.3 0.0 **** -0.106
13485 C13485 4.48009 65.2872 44.9381 C.3 0.0 **** 0.081
13486 N13486 5.52731 65.5713 45.9311 N.3 0.0 **** -0.727
13487 C13487 8.53084 54.9557 52.9971 C.2 0.0 **** 0.042
13488 C13488 8.15229 54.4221 51.7748 C.2 0.0 **** 0.042
13489 C13489 7.63502 55.2389 50.7362 C.2 0.0 **** 0.0
13490 O13490 8.27128 53.0846 51.4749 O.3 0.0 **** -0.202
13491 C13491 8.50046 52.2257 52.613 C.3 0.0 **** 0.107
13492 C13492 9.58854 52.8704 53.4552 C.3 0.0 **** 0.107
13493 O13493 9.09978 54.1344 53.9446 O.3 0.0 **** -0.202
13494 C13494 10.9112 53.0436 52.6797 C.3 0.0 **** -0.106
13495 C13495 11.0891 51.9951 51.5602 C.3 0.0 **** -0.106
13496 C13496 10.4242 50.6703 51.9502 C.3 0.0 **** -0.106
13497 C13497 8.89802 50.8419 52.0947 C.3 0.0 **** -0.106
13498 C13498 6.8096 55.485 48.4584 C.2 0.0 **** 0.0
13499 C13499 7.3078 54.6876 49.4886 C.2 0.0 **** -0.1268
13500 C13500 5.85757 57.1479 46.378 C.2 0.0 **** 0.0
13501 C13501 6.02952 55.743 46.1796 C.2 0.0 **** 0.042
13502 C13502 6.49384 54.9319 47.1778 C.2 0.0 **** -0.1268
13503 C13503 5.43159 57.9503 45.309 C.2 0.0 **** 0.0
13504 C13504 5.32432 59.3357 45.4879 C.2 0.0 **** 0.0
13505 C13505 5.57759 59.881 46.7331 C.2 0.0 **** -0.1268
13506 O13506 5.7366 55.1686 44.952 O.3 0.0 **** -0.0685
13507 C13507 5.24941 55.9334 43.9169 C.2 0.0 **** 0.0265
13508 C13508 5.11018 57.3257 44.0486 C.2 0.0 **** 0.0
13509 C13509 4.98092 60.258 44.3484 C.3 0.0 **** -0.053
13510 C13510 4.32444 59.5529 43.139 C.3 0.0 **** -0.053
13511 C13511 4.61857 58.0845 42.983 C.2 0.0 **** 0.0
13512 C13512 4.66324 60.2618 41.8141 C.3 0.0 **** -0.053
13513 C13513 4.62283 61.7729 42.0107 C.3 0.0 **** -0.106
13514 C13514 5.77882 62.204 42.9476 C.3 0.0 **** -0.106
13515 C13515 6.20826 61.0722 43.9003 C.3 0.0 **** -0.106
13516 C13516 4.26878 57.4652 41.7736 C.2 0.0 **** 0.0
13517 C13517 4.34808 56.048 41.6623 C.2 0.0 **** 0.0
13518 C13518 4.86299 55.2627 42.7411 C.2 0.0 **** 0.0
13519 C13519 3.8311 59.665 40.7124 C.2 0.0 **** 0.0
13520 C13520 3.75895 58.2446 40.6783 C.2 0.0 **** 0.0
13521 C13521 13.6441 63.2981 60.0978 C.3 0.0 **** -0.053
13522 C13522 13.1367 62.9438 58.694 C.3 0.0 **** -0.159
13523 C13523 14.6045 64.49 60.0307 C.3 0.0 **** -0.159
13524 O13524 5.81351 63.7234 52.0575 O.3 0.0 **** -0.57
13525 C13525 4.93903 53.8391 42.593 C.2 0.0 **** -0.1268
13526 C13526 4.49566 53.2306 41.4518 C.2 0.0 **** -0.1268
13527 C13527 3.93216 53.983 40.3684 C.2 0.0 **** 0.0
13528 C13528 3.86682 55.409 40.4858 C.2 0.0 **** 0.0
13529 C13529 3.29175 56.1769 39.4387 C.2 0.0 **** 0.0
13530 C13530 2.78567 55.5369 38.2829 C.2 0.0 **** 0.0
13531 C13531 2.8603 54.1108 38.1715 C.2 0.0 **** 0.0
13532 C13532 3.43313 53.3674 39.2159 C.2 0.0 **** -0.1268
13533 C13533 2.34335 53.4821 36.9966 C.2 0.0 **** -0.1268
13534 C13534 1.78294 54.2237 35.9905 C.2 0.0 **** -0.1268
13535 C13535 1.70055 55.647 36.079 C.2 0.0 **** 0.0
13536 C13536 2.20836 56.3064 37.2299 C.2 0.0 **** 0.0
13537 C13537 2.14378 57.7297 37.3236 C.2 0.0 **** 0.0
13538 C13538 2.6639 58.3716 38.4831 C.2 0.0 **** 0.0
13539 C13539 3.23182 57.6026 39.5387 C.2 0.0 **** 0.0
13540 C13540 1.58222 58.5014 36.2634 C.2 0.0 **** 0.0
13541 C13541 1.06391 57.8038 35.1372 C.2 0.0 **** -0.1268
13542 C13542 1.12166 56.4282 35.0539 C.2 0.0 **** -0.1268
13543 C13543 3.2402 60.4024 39.7109 C.2 0.0 **** -0.1268
13544 C13544 2.60783 59.7878 38.5984 C.2 0.0 **** 0.0
13545 C13545 1.52418 59.9427 36.3972 C.2 0.0 **** 0.052
13546 C13546 1.97071 60.5564 37.5753 C.2 0.0 **** 0.0
13547 C13547 1.7951 62.04 37.8117 C.3 0.0 **** -0.106
13548 C13548 0.64085 62.617 37.0013 C.3 0.0 **** -0.106
13549 C13549 0.8777 62.2981 35.5345 C.3 0.0 **** -0.086
13550 C13550 1.08653 60.8133 35.2638 C.2 0.0 **** 0.347
13551 O13551 0.942863 60.413 34.1076 O.2 0.0 **** -0.419
13552 H13552 16.8435 58.508 62.6896 H 0.0 **** 0.053
13553 H13553 15.2721 57.6855 62.4921 H 0.0 **** 0.053
13554 H13554 16.2823 59.2818 64.8522 H 0.0 **** 0.053
13555 H13555 14.6209 58.9486 64.3411 H 0.0 **** 0.053
13556 H13556 16.5207 57.1954 65.9553 H 0.0 **** 0.053
13557 H13557 14.8822 55.3522 65.7964 H 0.0 **** 0.053
13558 H13558 15.2793 55.2444 63.0335 H 0.0 **** 0.053
13559 H13559 16.5127 54.7958 64.2518 H 0.0 **** 0.053
13560 H13560 13.5573 56.7878 63.4865 H 0.0 **** 0.053
13561 H13561 12.6946 58.3165 65.0104 H 0.0 **** 0.053
13562 H13562 13.232 56.2663 67.2038 H 0.0 **** 0.053
13563 H13563 12.564 57.8825 67.4767 H 0.0 **** 0.053
13564 H13564 15.1491 57.6039 67.7667 H 0.0 **** 0.053
13565 H13565 14.5964 58.9856 66.818 H 0.0 **** 0.053
13566 H13566 9.65017 56.3997 64.4216 H 0.0 **** 0.053
13567 H13567 10.7161 54.387 64.328 H 0.0 **** 0.053
13568 H13568 13.3361 54.3122 63.7394 H 0.0 **** 0.053
13569 H13569 12.7045 54.5583 65.3737 H 0.0 **** 0.053
13570 H13570 11.9341 57.9174 63.1085 H 0.0 **** 0.053
13571 H13571 10.1098 53.7133 58.7797 H 0.0 **** 0.053
13572 H13572 11.812 53.8757 59.2056 H 0.0 **** 0.053
13573 H13573 10.881 51.9748 60.4629 H 0.0 **** 0.053
13574 H13574 9.56364 52.9876 61.0952 H 0.0 **** 0.053
13575 H13575 12.5575 53.3486 61.6601 H 0.0 **** 0.053
13576 H13576 11.3563 52.7819 62.8203 H 0.0 **** 0.053
13577 H13577 7.75624 60.2879 64.9991 H 0.0 **** 0.053
13578 H13578 9.04142 60.716 66.0991 H 0.0 **** 0.053
13579 H13579 9.54281 58.3606 65.514 H 0.0 **** 0.1268
13580 H13580 8.11538 62.9818 65.2437 H 0.0 **** 0.053
13581 H13581 9.85313 63.3264 65.1843 H 0.0 **** 0.053
13582 H13582 8.69813 64.914 63.6614 H 0.0 **** 0.053
13583 H13583 7.86093 63.5764 62.8494 H 0.0 **** 0.053
13584 H13584 12.4792 61.6569 62.1318 H 0.0 **** 0.053
13585 H13585 11.6332 61.6416 60.6025 H 0.0 **** 0.053
13586 H13586 12.9468 64.0031 62.0058 H 0.0 **** 0.053
13587 H13587 10.8871 64.0946 59.7572 H 0.0 **** 0.053
13588 H13588 11.9291 65.4663 60.185 H 0.0 **** 0.053
13589 H13589 9.62247 65.4911 61.3233 H 0.0 **** 0.053
13590 H13590 10.9789 65.5875 62.4387 H 0.0 **** 0.053
13591 H13591 9.49234 61.4732 60.3746 H 0.0 **** 0.1268
13592 H13592 8.03415 62.206 55.3149 H 0.0 **** 0.1268
13593 H13593 7.14246 62.4087 53.1261 H 0.0 **** 0.1268
13594 H13594 9.3463 55.124 55.5812 H 0.0 **** 0.1268
13595 H13595 6.59048 62.9816 47.709 H 0.0 **** 0.053
13596 H13596 7.25846 63.7286 49.7629 H 0.0 **** 0.053
13597 H13597 4.47841 62.9425 50.6814 H 0.0 **** 0.053
13598 H13598 4.71739 65.4068 49.9492 H 0.0 **** 0.053
13599 H13599 6.35069 65.8032 50.4894 H 0.0 **** 0.053
13600 H13600 7.08392 65.5984 47.9965 H 0.0 **** 0.053
13601 H13601 6.04277 66.9878 48.3213 H 0.0 **** 0.053
13602 H13602 4.13509 65.9711 47.3932 H 0.0 **** 0.053
13603 H13603 3.73765 63.8987 48.2358 H 0.0 **** 0.053
13604 H13604 5.23589 62.8222 45.813 H 0.0 **** 0.053
13605 H13605 3.71171 62.2532 46.4919 H 0.0 **** 0.053
13606 H13606 2.63821 64.4419 45.779 H 0.0 **** 0.053
13607 H13607 3.27409 63.5355 44.3992 H 0.0 **** 0.053
13608 H13608 3.86501 66.1948 44.8157 H 0.0 **** 0.053
13609 H13609 4.97903 65.1084 43.9741 H 0.0 **** 0.053
13610 H13610 6.33772 64.9737 45.7635 H 0.0 **** 0.353
13611 H13611 7.56706 52.1845 53.1988 H 0.0 **** 0.053
13612 H13612 9.74015 52.271 54.3641 H 0.0 **** 0.053
13613 H13613 10.9264 54.0573 52.2537 H 0.0 **** 0.053
13614 H13614 11.7396 52.9836 53.4006 H 0.0 **** 0.053
13615 H13615 12.16 51.8477 51.3575 H 0.0 **** 0.053
13616 H13616 10.6281 52.3667 50.6331 H 0.0 **** 0.053
13617 H13617 10.8523 50.3235 52.9064 H 0.0 **** 0.053
13618 H13618 10.6392 49.8871 51.2085 H 0.0 **** 0.053
13619 H13619 8.48906 50.0774 52.7721 H 0.0 **** 0.053
13620 H13620 8.39964 50.7083 51.1223 H 0.0 **** 0.053
13621 H13621 7.45113 53.6211 49.322 H 0.0 **** 0.1268
13622 H13622 6.62917 53.8644 47.001 H 0.0 **** 0.1268
13623 H13623 5.47271 60.9483 46.8484 H 0.0 **** 0.1268
13624 H13624 4.25544 60.9936 44.7281 H 0.0 **** 0.053
13625 H13625 3.22599 59.6314 43.2636 H 0.0 **** 0.053
13626 H13626 5.70803 59.9869 41.565 H 0.0 **** 0.053
13627 H13627 3.64635 62.0435 42.4472 H 0.0 **** 0.053
13628 H13628 4.70248 62.3034 41.0513 H 0.0 **** 0.053
13629 H13629 5.4595 63.0736 43.5392 H 0.0 **** 0.053
13630 H13630 6.64403 62.526 42.3479 H 0.0 **** 0.053
13631 H13631 6.71968 61.4814 44.7846 H 0.0 **** 0.053
13632 H13632 6.92671 60.3944 43.4126 H 0.0 **** 0.053
13633 H13633 14.2073 62.4303 60.487 H 0.0 **** 0.053
13634 H13634 13.9721 62.63 58.0502 H 0.0 **** 0.053
13635 H13635 12.6644 63.8195 58.2225 H 0.0 **** 0.053
13636 H13636 12.3947 62.131 58.7068 H 0.0 **** 0.053
13637 H13637 15.0047 64.7339 61.0275 H 0.0 **** 0.053
13638 H13638 14.0903 65.3843 59.644 H 0.0 **** 0.053
13639 H13639 15.4517 64.2789 59.3606 H 0.0 **** 0.053
13640 H13640 5.3057 63.2901 52.7607 H 0.0 **** 0.41
13641 H13641 5.34942 53.2498 43.4128 H 0.0 **** 0.1268
13642 H13642 4.55324 52.1455 41.3496 H 0.0 **** 0.1268
13643 H13643 3.48212 52.2798 39.1283 H 0.0 **** 0.1268
13644 H13644 2.40372 52.3949 36.9213 H 0.0 **** 0.1268
13645 H13645 1.3832 53.7372 35.0987 H 0.0 **** 0.1268
13646 H13646 0.627018 58.3795 34.3284 H 0.0 **** 0.1268
13647 H13647 0.710917 55.9225 34.1775 H 0.0 **** 0.1268
13648 H13648 3.30099 61.4863 39.7576 H 0.0 **** 0.1268
13649 H13649 1.62152 62.216 38.8826 H 0.0 **** 0.053
13650 H13650 2.72999 62.5733 37.555 H 0.0 **** 0.053
13651 H13651 0.556423 63.702 37.1655 H 0.0 **** 0.053
13652 H13652 -0.301974 62.156 37.3384 H 0.0 **** 0.053
13653 H13653 1.79535 62.8084 35.1877 H 0.0 **** 0.053
13654 H13654 0.0640559 62.6339 34.876 H 0.0 **** 0.053
13655 C13655 27.4565 5.91385 85.4614 C.3 0.0 **** 0.054
13656 C13656 26.7627 6.95765 86.3677 C.3 0.0 **** -0.106
13657 C13657 25.9595 6.2603 87.485 C.3 0.0 **** -0.053
13658 C13658 25.2454 5.03263 86.8964 C.3 0.0 **** -0.053
13659 C13659 26.302 4.04824 86.3311 C.3 0.0 **** 0.054
13660 O13660 27.585 4.6518 86.1251 O.3 0.0 **** -0.32
13661 C13661 24.2102 5.44869 85.8301 C.3 0.0 **** -0.053
13662 C13662 23.4708 6.76528 86.2036 C.3 0.0 **** 0.107
13663 C13663 23.5061 7.00319 87.7037 C.3 0.0 **** -0.106
13664 C13664 24.9543 7.21223 88.1824 C.3 0.0 **** -0.106
13665 O13665 22.0919 6.73484 85.8037 O.3 0.0 **** -0.32
13666 C13666 21.9035 6.21164 84.4779 C.3 0.0 **** 0.107
13667 C13667 22.1331 4.69053 84.5286 C.3 0.0 **** -0.053
13668 C13668 23.1798 4.3412 85.6271 C.3 0.0 **** -0.106
13669 C13669 22.4179 4.06896 83.2015 C.2 0.0 **** 0.0
13670 C13670 22.6401 4.8043 82.0481 C.2 0.0 **** 0.0
13671 C13671 22.751 6.24091 82.0821 C.2 0.0 **** 0.0
13672 C13672 22.7293 6.95403 83.4154 C.3 0.0 **** -0.053
13673 C13673 23.0468 6.97289 80.9454 C.2 0.0 **** 0.0
13674 C13674 23.1972 6.30369 79.6749 C.2 0.0 **** 0.0
13675 C13675 23.0398 4.88454 79.6558 C.2 0.0 **** 0.232
13676 C13676 22.7911 4.13386 80.7712 C.2 0.0 **** 0.0
13677 C13677 22.6878 2.63248 80.6818 C.3 0.0 **** -0.106
13678 C13678 21.8418 2.05727 81.8183 C.3 0.0 **** -0.106
13679 C13679 22.3683 2.56746 83.1618 C.3 0.0 **** -0.106
13680 O13680 23.1773 4.19853 78.4642 O.3 0.0 **** -0.464
13681 C13681 23.3408 4.87715 77.281 C.2 0.0 **** 0.232
13682 C13682 23.5509 6.26759 77.2452 C.2 0.0 **** 0.0
13683 C13683 23.5112 6.98907 78.495 C.2 0.0 **** 0.0
13684 C13684 22.3555 8.41086 83.2764 C.2 0.0 **** 0.0
13685 C13685 22.9846 9.12929 82.1712 C.2 0.0 **** 0.0
13686 C13686 23.2458 8.42406 80.9947 C.2 0.0 **** 0.0
13687 C13687 23.122 10.577 82.319 C.2 0.0 **** 0.0
13688 C13688 22.2279 11.2468 83.1031 C.2 0.0 **** 0.0
13689 C13689 21.2085 10.5224 83.9201 C.3 0.0 **** -0.106
13690 C13690 21.5028 9.06504 84.0964 C.2 0.0 **** -0.1268
13691 C13691 22.2879 12.7466 83.1838 C.3 0.0 **** -0.106
13692 C13692 22.8063 13.329 81.8657 C.3 0.0 **** -0.106
13693 C13693 24.1062 12.6588 81.4938 C.2 0.0 **** 0.0
13694 C13694 24.2535 11.3348 81.7371 C.2 0.0 **** 0.0
13695 C13695 25.5858 10.6374 81.5871 C.3 0.0 **** -0.106
13696 C13696 26.7509 11.5924 81.3039 C.3 0.0 **** -0.053
13697 C13697 26.3073 12.645 80.2818 C.3 0.0 **** -0.106
13698 C13698 25.1851 13.4976 80.8736 C.3 0.0 **** -0.106
13699 C13699 23.7159 8.40587 78.5837 C.2 0.0 **** -0.012
13700 C13700 23.5674 9.08237 79.7695 C.2 0.0 **** -0.1268
13701 C13701 23.7215 6.85337 75.9649 C.2 0.0 **** 0.0
13702 C13702 23.9761 8.26506 75.8286 C.2 0.0 **** -0.012
13703 S13703 24.2319 9.3381 77.1957 S.2 0.0 **** 0.024
13704 C13704 24.0995 8.8446 74.5916 C.2 0.0 **** -0.1268
13705 C13705 23.9784 8.07813 73.4027 C.2 0.0 **** 0.0
13706 C13706 23.7579 6.66928 73.491 C.2 0.0 **** 0.0
13707 C13707 23.6411 6.05582 74.7687 C.2 0.0 **** 0.0
13708 C13708 23.6696 5.90647 72.297 C.2 0.0 **** 0.0
13709 C13709 23.7622 6.55318 71.0264 C.2 0.0 **** 0.0
13710 C13710 23.9141 7.98561 70.9642 C.2 0.0 **** 0.0
13711 C13711 24.0651 8.70161 72.1618 C.2 0.0 **** -0.1268
13712 C13712 23.8952 8.6224 69.6878 C.2 0.0 **** 0.0
13713 C13713 23.8958 7.84731 68.5436 C.2 0.0 **** 0.042
13714 C13714 23.8644 6.4207 68.5534 C.2 0.0 **** 0.0
13715 C13715 23.7288 5.78956 69.8218 C.2 0.0 **** 0.0
13716 C13716 23.4346 4.63782 74.8587 C.2 0.0 **** 0.0
13717 C13717 23.287 4.09158 76.1505 C.2 0.0 **** -0.1268
13718 C13718 23.4907 4.48608 72.3801 C.2 0.0 **** 0.0
13719 C13719 23.3747 3.84385 73.6493 C.2 0.0 **** 0.0
13720 C13720 23.5753 4.36562 69.9044 C.2 0.0 **** 0.0
13721 C13721 23.4418 3.73381 71.1683 C.2 0.0 **** 0.0
13722 C13722 23.9358 5.61914 67.3568 C.2 0.0 **** 0.0
13723 C13723 23.7304 4.21064 67.4565 C.2 0.0 **** 0.0
13724 C13724 23.5448 3.58834 68.7167 C.2 0.0 **** 0.0
13725 O13725 23.8329 8.52271 67.3438 O.3 0.0 **** -0.202
13726 C13726 24.8302 9.56488 67.1477 C.3 0.0 **** 0.107
13727 C13727 25.0059 10.4321 68.4193 C.3 0.0 **** -0.053
13728 C13728 23.8388 10.1121 69.3645 C.3 0.0 **** 0.107
13729 C13729 25.138 11.9189 68.0677 C.3 0.0 **** -0.106
13730 C13730 26.0378 12.0606 66.8356 C.3 0.0 **** -0.106
13731 C13731 25.3079 11.551 65.5891 C.3 0.0 **** 0.134
13732 C13732 24.3719 10.3384 65.9126 C.3 0.0 **** -0.053
13733 C13733 24.2783 9.40827 64.6916 C.3 0.0 **** -0.106
13734 C13734 24.2495 10.2009 63.3858 C.3 0.0 **** -0.106
13735 C13735 25.564 11.0165 63.2324 C.3 0.0 **** 0.081
13736 N13736 26.2529 11.2849 64.5038 N.3 0.0 **** -0.727
13737 C13737 23.2016 2.41453 73.6498 C.2 0.0 **** 0.042
13738 C13738 23.1039 1.69421 72.4692 C.2 0.0 **** 0.042
13739 C13739 23.2496 2.3193 71.2038 C.2 0.0 **** 0.0
13740 O13740 22.8859 0.33613 72.4391 O.3 0.0 **** -0.202
13741 C13741 22.4379 -0.234352 73.6879 C.3 0.0 **** 0.107
13742 C13742 23.3276 0.323999 74.7858 C.3 0.0 **** 0.107
13743 O13743 23.1308 1.74979 74.8536 O.3 0.0 **** -0.202
13744 C13744 24.8154 -0.0268355 74.5762 C.3 0.0 **** -0.106
13745 C13745 25.0145 -1.33647 73.7828 C.3 0.0 **** -0.106
13746 C13746 23.8743 -2.32009 74.0692 C.3 0.0 **** -0.106
13747 C13747 22.5253 -1.75786 73.5757 C.3 0.0 **** -0.106
13748 C13748 23.3539 2.16817 68.7754 C.2 0.0 **** 0.0
13749 C13749 23.2003 1.56375 70.023 C.2 0.0 **** -0.1268
13750 C13750 23.7288 3.4253 66.2697 C.2 0.0 **** 0.0
13751 C13751 23.5026 2.01711 66.3624 C.2 0.0 **** 0.042
13752 C13752 23.3252 1.3998 67.5695 C.2 0.0 **** -0.1268
13753 C13753 23.9611 4.00739 65.0145 C.2 0.0 **** 0.0
13754 C13754 24.2451 5.37683 64.9325 C.2 0.0 **** 0.0
13755 C13755 24.2276 6.14389 66.0829 C.2 0.0 **** -0.1268
13756 O13756 23.4697 1.23677 65.2166 O.3 0.0 **** -0.0685
13757 C13757 23.6244 1.80686 63.9738 C.2 0.0 **** 0.0265
13758 C13758 23.898 3.17836 63.8352 C.2 0.0 **** 0.0
13759 C13759 24.6122 6.03364 63.6283 C.3 0.0 **** -0.053
13760 C13760 24.209 5.22222 62.3754 C.3 0.0 **** -0.053
13761 C13761 24.057 3.73616 62.5638 C.2 0.0 **** 0.0
13762 C13762 25.1761 5.46894 61.2021 C.3 0.0 **** -0.053
13763 C13763 25.5534 6.9447 61.144 C.3 0.0 **** -0.106
13764 C13764 26.4041 7.31066 62.3858 C.3 0.0 **** -0.106
13765 C13765 26.1093 6.38952 63.5848 C.3 0.0 **** -0.106
13766 C13766 23.9534 2.93187 61.4188 C.2 0.0 **** 0.0
13767 C13767 23.612 1.55655 61.5559 C.2 0.0 **** 0.0
13768 C13768 23.4608 0.971691 62.8524 C.2 0.0 **** 0.0
13769 C13769 24.6154 4.8284 59.962 C.2 0.0 **** 0.0
13770 C13770 24.1127 3.50574 60.1102 C.2 0.0 **** 0.0
13771 C13771 28.0178 10.8162 80.8871 C.3 0.0 **** -0.053
13772 C13772 27.923 10.2485 79.4649 C.3 0.0 **** -0.159
13773 C13773 29.2706 11.6866 81.0295 C.3 0.0 **** -0.159
13774 O13774 23.8794 11.0419 70.4483 O.3 0.0 **** -0.57
13775 C13775 23.1267 -0.418211 62.9557 C.2 0.0 **** -0.1268
13776 C13776 22.9207 -1.17265 61.8343 C.2 0.0 **** -0.1268
13777 C13777 23.0198 -0.608305 60.5194 C.2 0.0 **** 0.0
13778 C13778 23.3744 0.773597 60.392 C.2 0.0 **** 0.0
13779 C13779 23.4561 1.36449 59.1032 C.2 0.0 **** 0.0
13780 C13780 23.1892 0.59183 57.9485 C.2 0.0 **** 0.0
13781 C13781 22.8409 -0.790813 58.085 C.2 0.0 **** 0.0
13782 C13782 22.7659 -1.35889 59.3669 C.2 0.0 **** -0.1268
13783 C13783 22.5743 -1.55516 56.907 C.2 0.0 **** -0.1268
13784 C13784 22.647 -0.981986 55.6651 C.2 0.0 **** -0.1268
13785 C13785 22.9952 0.394066 55.5052 C.2 0.0 **** 0.0
13786 C13786 23.2714 1.18331 56.6532 C.2 0.0 **** 0.0
13787 C13787 23.6337 2.55639 56.505 C.2 0.0 **** 0.0
13788 C13788 23.9123 3.32843 57.6683 C.2 0.0 **** 0.0
13789 C13789 23.8211 2.74036 58.9622 C.2 0.0 **** 0.0
13790 C13790 23.7329 3.14435 55.2091 C.2 0.0 **** 0.0
13791 C13791 23.427 2.3281 54.0849 C.2 0.0 **** -0.1268
13792 C13792 23.0703 1.00396 54.2329 C.2 0.0 **** -0.1268
13793 C13793 24.6581 5.40603 58.7129 C.2 0.0 **** -0.1268
13794 C13794 24.2728 4.69841 57.5441 C.2 0.0 **** 0.0
13795 C13795 24.0933 4.54291 55.0973 C.2 0.0 **** 0.052
13796 C13796 24.2915 5.31091 56.2527 C.2 0.0 **** 0.0
13797 C13797 24.5268 6.80334 56.1816 C.3 0.0 **** -0.106
13798 C13798 23.9547 7.41386 54.908 C.3 0.0 **** -0.106
13799 C13799 24.553 6.68557 53.716 C.3 0.0 **** -0.086
13800 C13800 24.3583 5.17536 53.7691 C.2 0.0 **** 0.347
13801 O13801 24.4894 4.54061 52.7214 O.2 0.0 **** -0.419
13802 H13802 28.4774 6.22135 85.1969 H 0.0 **** 0.053
13803 H13803 26.8874 5.77572 84.5203 H 0.0 **** 0.053
13804 H13804 27.5033 7.63027 86.8268 H 0.0 **** 0.053
13805 H13805 26.0928 7.58505 85.7586 H 0.0 **** 0.053
13806 H13806 26.6863 5.89837 88.2267 H 0.0 **** 0.053
13807 H13807 24.7005 4.52202 87.7079 H 0.0 **** 0.053
13808 H13808 25.94 3.62386 85.3713 H 0.0 **** 0.053
13809 H13809 26.487 3.2184 87.0276 H 0.0 **** 0.053
13810 H13810 24.7488 5.59687 84.8804 H 0.0 **** 0.053
13811 H13811 23.959 7.62301 85.7018 H 0.0 **** 0.053
13812 H13812 23.0555 6.1307 88.2038 H 0.0 **** 0.053
13813 H13813 22.8834 7.87432 87.9529 H 0.0 **** 0.053
13814 H13814 24.994 7.0693 89.2727 H 0.0 **** 0.053
13815 H13815 25.2572 8.25511 87.9924 H 0.0 **** 0.053
13816 H13816 20.8446 6.40428 84.2509 H 0.0 **** 0.053
13817 H13817 21.1848 4.2396 84.8787 H 0.0 **** 0.053
13818 H13818 23.6838 3.39389 85.3848 H 0.0 **** 0.053
13819 H13819 22.6561 4.19083 86.5844 H 0.0 **** 0.053
13820 H13820 23.7913 6.94728 83.7345 H 0.0 **** 0.053
13821 H13821 22.2826 2.34282 79.7016 H 0.0 **** 0.053
13822 H13822 23.7035 2.19658 80.7334 H 0.0 **** 0.053
13823 H13823 21.8555 0.9571 81.7867 H 0.0 **** 0.053
13824 H13824 20.7958 2.38171 81.6952 H 0.0 **** 0.053
13825 H13825 23.3803 2.14835 83.3317 H 0.0 **** 0.053
13826 H13826 21.7474 2.19912 83.9959 H 0.0 **** 0.053
13827 H13827 20.2021 10.6476 83.4631 H 0.0 **** 0.053
13828 H13828 21.1122 11.0213 84.9042 H 0.0 **** 0.053
13829 H13829 21.0063 8.54531 84.9141 H 0.0 **** 0.1268
13830 H13830 21.2928 13.1486 83.4328 H 0.0 **** 0.053
13831 H13831 22.9649 13.0413 84.0113 H 0.0 **** 0.053
13832 H13832 22.9499 14.418 81.943 H 0.0 **** 0.053
13833 H13833 22.0534 13.158 81.0722 H 0.0 **** 0.053
13834 H13834 25.7855 10.0734 82.5157 H 0.0 **** 0.053
13835 H13835 25.5392 9.87243 80.7971 H 0.0 **** 0.053
13836 H13836 26.986 12.1284 82.2424 H 0.0 **** 0.053
13837 H13837 25.9355 12.1347 79.3782 H 0.0 **** 0.053
13838 H13838 27.1528 13.28 79.9756 H 0.0 **** 0.053
13839 H13839 24.7329 14.1437 80.0991 H 0.0 **** 0.053
13840 H13840 25.5962 14.1935 81.6307 H 0.0 **** 0.053
13841 H13841 23.6608 10.1681 79.7736 H 0.0 **** 0.1268
13842 H13842 24.2847 9.91725 74.4999 H 0.0 **** 0.1268
13843 H13843 24.2868 9.76386 72.1327 H 0.0 **** 0.1268
13844 H13844 23.1177 3.03425 76.2917 H 0.0 **** 0.1268
13845 H13845 25.784 9.05578 66.914 H 0.0 **** 0.053
13846 H13846 25.9291 10.1183 68.9321 H 0.0 **** 0.053
13847 H13847 22.9052 10.2792 68.7884 H 0.0 **** 0.053
13848 H13848 24.1422 12.3456 67.8577 H 0.0 **** 0.053
13849 H13849 25.538 12.4642 68.9319 H 0.0 **** 0.053
13850 H13850 26.9552 11.4633 66.9867 H 0.0 **** 0.053
13851 H13851 26.3626 13.0968 66.6696 H 0.0 **** 0.053
13852 H13852 24.6559 12.3638 65.2258 H 0.0 **** 0.053
13853 H13853 23.3656 10.7307 66.1373 H 0.0 **** 0.053
13854 H13854 25.1627 8.74809 64.6836 H 0.0 **** 0.053
13855 H13855 23.4026 8.75154 64.7843 H 0.0 **** 0.053
13856 H13856 23.3804 10.878 63.3955 H 0.0 **** 0.053
13857 H13857 24.1179 9.52594 62.525 H 0.0 **** 0.053
13858 H13858 25.3462 11.9829 62.747 H 0.0 **** 0.053
13859 H13859 26.2718 10.4846 62.5793 H 0.0 **** 0.053
13860 H13860 26.8391 10.4886 64.7574 H 0.0 **** 0.353
13861 H13861 21.4007 0.0989679 73.859 H 0.0 **** 0.053
13862 H13862 22.9693 -0.0429383 75.7582 H 0.0 **** 0.053
13863 H13863 25.2921 0.811263 74.0474 H 0.0 **** 0.053
13864 H13864 25.2918 -0.0976962 75.565 H 0.0 **** 0.053
13865 H13865 25.9863 -1.78205 74.0412 H 0.0 **** 0.053
13866 H13866 25.0319 -1.11371 72.7057 H 0.0 **** 0.053
13867 H13867 23.8259 -2.5043 75.1562 H 0.0 **** 0.053
13868 H13868 24.0645 -3.29402 73.5947 H 0.0 **** 0.053
13869 H13869 21.6942 -2.2045 74.1416 H 0.0 **** 0.053
13870 H13870 22.3646 -2.01124 72.5165 H 0.0 **** 0.053
13871 H13871 23.0452 0.487686 70.0839 H 0.0 **** 0.1268
13872 H13872 23.1661 0.322032 67.6181 H 0.0 **** 0.1268
13873 H13873 24.4341 7.19848 65.9905 H 0.0 **** 0.1268
13874 H13874 24.0744 6.99285 63.5806 H 0.0 **** 0.053
13875 H13875 23.2169 5.58997 62.0454 H 0.0 **** 0.053
13876 H13876 26.0998 4.89833 61.4266 H 0.0 **** 0.053
13877 H13877 24.6265 7.5426 61.1171 H 0.0 **** 0.053
13878 H13878 26.112 7.179 60.2267 H 0.0 **** 0.053
13879 H13879 26.1988 8.3523 62.6705 H 0.0 **** 0.053
13880 H13880 27.4743 7.25331 62.1343 H 0.0 **** 0.053
13881 H13881 26.3983 6.87563 64.5289 H 0.0 **** 0.053
13882 H13882 26.6952 5.45873 63.5233 H 0.0 **** 0.053
13883 H13883 28.1133 9.96718 81.5885 H 0.0 **** 0.053
13884 H13884 28.78 9.5912 79.2545 H 0.0 **** 0.053
13885 H13885 27.9382 11.0621 78.7234 H 0.0 **** 0.053
13886 H13886 27.0024 9.66731 79.3038 H 0.0 **** 0.053
13887 H13887 29.371 12.073 82.056 H 0.0 **** 0.053
13888 H13888 29.2263 12.5493 80.3457 H 0.0 **** 0.053
13889 H13889 30.1795 11.1161 80.7848 H 0.0 **** 0.053
13890 H13890 23.0568 10.9359 70.9505 H 0.0 **** 0.41
13891 H13891 23.0312 -0.860207 63.9474 H 0.0 **** 0.1268
13892 H13892 22.6621 -2.22935 61.9226 H 0.0 **** 0.1268
13893 H13893 22.494 -2.41217 59.4654 H 0.0 **** 0.1268
13894 H13894 22.3086 -2.60767 57.0212 H 0.0 **** 0.1268
13895 H13895 22.4352 -1.56914 54.7693 H 0.0 **** 0.1268
13896 H13896 23.4911 2.76647 53.0948 H 0.0 **** 0.1268
13897 H13897 22.8375 0.405347 53.3497 H 0.0 **** 0.1268
13898 H13898 25.0399 6.41926 58.6209 H 0.0 **** 0.1268
13899 H13899 24.0714 7.28188 57.0599 H 0.0 **** 0.053
13900 H13900 25.6114 7.01451 56.238 H 0.0 **** 0.053
13901 H13901 24.1687 8.49261 54.8655 H 0.0 **** 0.053
13902 H13902 22.8591 7.29275 54.911 H 0.0 **** 0.053
13903 H13903 25.6451 6.85639 53.6871 H 0.0 **** 0.053
13904 H13904 24.1564 7.02727 52.7494 H 0.0 **** 0.053
13905 C13905 26.0606 59.3228 39.5541 C.3 0.0 **** 0.054
13906 C13906 27.2763 58.7378 38.7978 C.3 0.0 **** -0.106
13907 C13907 27.0178 58.7273 37.277 C.3 0.0 **** -0.053
13908 C13908 25.5647 58.2961 37.0194 C.3 0.0 **** -0.053
13909 C13909 24.6033 59.3062 37.6978 C.3 0.0 **** 0.054
13910 O13910 25.2434 60.1189 38.6891 O.3 0.0 **** -0.32
13911 C13911 25.3198 56.8496 37.4985 C.3 0.0 **** -0.053
13912 C13912 26.5416 55.9233 37.2359 C.3 0.0 **** 0.107
13913 C13913 27.4057 56.467 36.1109 C.3 0.0 **** -0.106
13914 C13914 28.0151 57.8243 36.5069 C.3 0.0 **** -0.106
13915 O13915 26.1355 54.5965 36.8657 O.3 0.0 **** -0.32
13916 C13916 25.0699 54.0866 37.685 C.3 0.0 **** 0.107
13917 C13917 23.7729 54.8136 37.2871 C.3 0.0 **** -0.053
13918 C13918 24.0928 56.2603 36.8082 C.3 0.0 **** -0.106
13919 C13919 22.69 54.7407 38.3121 C.2 0.0 **** 0.0
13920 C13920 22.8798 54.2276 39.5853 C.2 0.0 **** 0.0
13921 C13921 24.1891 53.8535 40.0576 C.2 0.0 **** 0.0
13922 C13922 25.3955 54.123 39.1866 C.3 0.0 **** -0.053
13923 C13923 24.3941 53.411 41.3528 C.2 0.0 **** 0.0
13924 C13924 23.2731 53.2616 42.2504 C.2 0.0 **** 0.0
13925 C13925 21.9788 53.5959 41.7483 C.2 0.0 **** 0.232
13926 C13926 21.755 54.0767 40.488 C.2 0.0 **** 0.0
13927 C13927 20.3653 54.4569 40.0443 C.3 0.0 **** -0.106
13928 C13928 20.2173 54.3764 38.5245 C.3 0.0 **** -0.106
13929 C13929 21.3296 55.1867 37.8547 C.3 0.0 **** -0.106
13930 O13930 20.875 53.4724 42.5703 O.3 0.0 **** -0.464
13931 C13931 20.9927 52.9163 43.8209 C.2 0.0 **** 0.232
13932 C13932 22.2457 52.615 44.3848 C.2 0.0 **** 0.0
13933 C13933 23.4208 52.8332 43.5752 C.2 0.0 **** 0.0
13934 C13934 26.5756 53.2595 39.5647 C.2 0.0 **** 0.0
13935 C13935 26.832 53.1188 40.9957 C.2 0.0 **** 0.0
13936 C13936 25.7362 53.1135 41.861 C.2 0.0 **** 0.0
13937 C13937 28.2043 52.8088 41.3924 C.2 0.0 **** 0.0
13938 C13938 29.0047 52.1298 40.5198 C.2 0.0 **** 0.0
13939 C13939 28.5601 51.8247 39.1268 C.3 0.0 **** -0.106
13940 C13940 27.3837 52.6353 38.6788 C.2 0.0 **** -0.1268
13941 C13941 30.3827 51.7095 40.9486 C.3 0.0 **** -0.106
13942 C13942 30.4097 51.4357 42.4551 C.3 0.0 **** -0.106
13943 C13943 29.8476 52.6248 43.1949 C.2 0.0 **** 0.0
13944 C13944 28.7968 53.2914 42.6608 C.2 0.0 **** 0.0
13945 C13945 28.3111 54.6051 43.2284 C.3 0.0 **** -0.106
13946 C13946 29.2129 55.1685 44.3325 C.3 0.0 **** -0.053
13947 C13947 29.6419 54.0316 45.2667 C.3 0.0 **** -0.106
13948 C13948 30.4878 53.0201 44.4934 C.3 0.0 **** -0.106
13949 C13949 24.7501 52.5676 44.0436 C.2 0.0 **** -0.012
13950 C13950 25.8414 52.6827 43.2179 C.2 0.0 **** -0.1268
13951 C13951 22.2399 52.0576 45.689 C.2 0.0 **** 0.0
13952 C13952 23.4751 51.7475 46.3631 C.2 0.0 **** -0.012
13953 S13953 25.0578 52.1467 45.714 S.2 0.0 **** 0.024
13954 C13954 23.4755 51.1691 47.6067 C.2 0.0 **** -0.1268
13955 C13955 22.2625 50.8525 48.2732 C.2 0.0 **** 0.0
13956 C13956 21.0142 51.1719 47.6558 C.2 0.0 **** 0.0
13957 C13957 21.0023 51.7834 46.372 C.2 0.0 **** 0.0
13958 C13958 19.8072 50.8801 48.3439 C.2 0.0 **** 0.0
13959 C13959 19.8482 50.2396 49.6203 C.2 0.0 **** 0.0
13960 C13960 21.1184 49.8639 50.1897 C.2 0.0 **** 0.0
13961 C13961 22.2948 50.2264 49.5154 C.2 0.0 **** -0.1268
13962 C13962 21.1314 49.129 51.4122 C.2 0.0 **** 0.0
13963 C13963 19.9483 48.9371 52.1003 C.2 0.0 **** 0.042
13964 C13964 18.6787 49.3931 51.635 C.2 0.0 **** 0.0
13965 C13965 18.6441 49.9908 50.3439 C.2 0.0 **** 0.0
13966 C13966 19.7487 52.1186 45.7574 C.2 0.0 **** 0.0
13967 C13967 19.798 52.6868 44.4676 C.2 0.0 **** -0.1268
13968 C13968 18.5527 51.2369 47.7478 C.2 0.0 **** 0.0
13969 C13969 18.5116 51.8555 46.4624 C.2 0.0 **** 0.0
13970 C13970 17.3901 50.3703 49.7598 C.2 0.0 **** 0.0
13971 C13971 17.3533 50.9683 48.4731 C.2 0.0 **** 0.0
13972 C13972 17.46 49.2499 52.3925 C.2 0.0 **** 0.0
13973 C13973 16.2192 49.5866 51.7736 C.2 0.0 **** 0.0
13974 C13974 16.1815 50.1353 50.4669 C.2 0.0 **** 0.0
13975 O13975 20.0221 48.182 53.2509 O.3 0.0 **** -0.202
13976 C13976 21.0139 48.6071 54.228 C.3 0.0 **** 0.107
13977 C13977 22.3604 48.9692 53.5528 C.3 0.0 **** -0.053
13978 C13978 22.3088 48.4528 52.1077 C.3 0.0 **** 0.107
13979 C13979 23.5512 48.4439 54.3638 C.3 0.0 **** -0.106
13980 C13980 23.2803 48.6781 55.8537 C.3 0.0 **** -0.106
13981 C13981 22.1799 47.7321 56.3439 C.3 0.0 **** 0.134
13982 C13982 21.1005 47.467 55.2413 C.3 0.0 **** -0.053
13983 C13983 19.7323 47.2162 55.8967 C.3 0.0 **** -0.106
13984 C13984 19.8697 46.4089 57.1865 C.3 0.0 **** -0.106
13985 C13985 20.7259 47.1982 58.2165 C.3 0.0 **** 0.081
13986 N13986 21.6164 48.2 57.6109 N.3 0.0 **** -0.727
13987 C13987 17.2143 52.1876 45.9335 C.2 0.0 **** 0.042
13988 C13988 16.0495 51.8788 46.619 C.2 0.0 **** 0.042
13989 C13989 16.0814 51.2929 47.9109 C.2 0.0 **** 0.0
13990 O13990 14.7957 52.1364 46.1146 O.3 0.0 **** -0.202
13991 C13991 14.7599 52.439 44.703 C.3 0.0 **** 0.107
13992 C13992 15.8635 53.4465 44.4277 C.3 0.0 **** 0.107
13993 O13993 17.1317 52.8264 44.7165 O.3 0.0 **** -0.202
13994 C13994 15.6837 54.7532 45.2282 C.3 0.0 **** -0.106
13995 C13995 14.2061 55.0492 45.5648 C.3 0.0 **** -0.106
13996 C13996 13.2839 54.518 44.4616 C.3 0.0 **** -0.106
13997 C13997 13.3692 52.9808 44.3657 C.3 0.0 **** -0.106
13998 C13998 14.9149 50.4721 49.8848 C.2 0.0 **** 0.0
13999 C13999 14.8925 51.0373 48.6098 C.2 0.0 **** -0.1268
14000 C14000 15.0083 49.3793 52.4918 C.2 0.0 **** 0.0
14001 C14001 13.7616 49.6953 51.8683 C.2 0.0 **** 0.042
14002 C14002 13.7067 50.2285 50.6103 C.2 0.0 **** -0.1268
14003 C14003 15.0194 48.886 53.8051 C.2 0.0 **** 0.0
14004 C14004 16.2448 48.6365 54.4367 C.2 0.0 **** 0.0
14005 C14005 17.4209 48.8192 53.7328 C.2 0.0 **** -0.1268
14006 O14006 12.5682 49.476 52.5394 O.3 0.0 **** -0.0685
14007 C14007 12.5623 48.9252 53.8003 C.2 0.0 **** 0.0265
14008 C14008 13.7635 48.6438 54.4732 C.2 0.0 **** 0.0
14009 C14009 16.3213 48.2139 55.8798 C.3 0.0 **** -0.053
14010 C14010 14.9985 47.646 56.4441 C.3 0.0 **** -0.053
14011 C14011 13.735 48.0895 55.7558 C.2 0.0 **** 0.0
14012 C14012 14.8566 47.9258 57.9522 C.3 0.0 **** -0.053
14013 C14013 16.2009 47.7299 58.6436 C.3 0.0 **** -0.106
14014 C14014 17.1896 48.8256 58.1727 C.3 0.0 **** -0.106
14015 C14015 16.8433 49.3571 56.769 C.3 0.0 **** -0.106
14016 C14016 12.51 47.818 56.3836 C.2 0.0 **** 0.0
14017 C14017 11.2945 48.0421 55.677 C.2 0.0 **** 0.0
14018 C14018 11.3109 48.622 54.3697 C.2 0.0 **** 0.0
14019 C14019 13.6678 47.1709 58.4807 C.2 0.0 **** 0.0
14020 C14020 12.4797 47.2438 57.7014 C.2 0.0 **** 0.0
14021 C14021 28.5322 56.3473 45.0595 C.3 0.0 **** -0.053
14022 C14022 27.3994 55.8942 45.9897 C.3 0.0 **** -0.159
14023 C14023 29.5556 57.1824 45.836 C.3 0.0 **** -0.159
14024 O14024 23.6096 48.6042 51.5369 O.3 0.0 **** -0.57
14025 C14025 10.069 48.8439 53.6896 C.2 0.0 **** -0.1268
14026 C14026 8.88317 48.4774 54.2628 C.2 0.0 **** -0.1268
14027 C14027 8.83274 47.8525 55.5529 C.2 0.0 **** 0.0
14028 C14028 10.0602 47.6414 56.2603 C.2 0.0 **** 0.0
14029 C14029 10.0421 47.003 57.5287 C.2 0.0 **** 0.0
14030 C14030 8.81656 46.5774 58.093 C.2 0.0 **** 0.0
14031 C14031 7.59324 46.7978 57.3813 C.2 0.0 **** 0.0
14032 C14032 7.62971 47.4315 56.1288 C.2 0.0 **** -0.1268
14033 C14033 6.36512 46.3605 57.9672 C.2 0.0 **** -0.1268
14034 C14034 6.35008 45.7389 59.1877 C.2 0.0 **** -0.1268
14035 C14035 7.55738 45.5114 59.9164 C.2 0.0 **** 0.0
14036 C14036 8.79619 45.9367 59.3672 C.2 0.0 **** 0.0
14037 C14037 10.008 45.7268 60.0924 C.2 0.0 **** 0.0
14038 C14038 11.2385 46.1661 59.5268 C.2 0.0 **** 0.0
14039 C14039 11.2599 46.7974 58.2503 C.2 0.0 **** 0.0
14040 C14040 9.98682 45.1016 61.3745 C.2 0.0 **** 0.0
14041 C14041 8.72983 44.6694 61.8813 C.2 0.0 **** -0.1268
14042 C14042 7.56229 44.8676 61.1741 C.2 0.0 **** -0.1268
14043 C14043 13.6491 46.5194 59.6935 C.2 0.0 **** -0.1268
14044 C14044 12.4576 45.9651 60.2307 C.2 0.0 **** 0.0
14045 C14045 11.2367 44.896 62.0772 C.2 0.0 **** 0.052
14046 C14046 12.4481 45.2647 61.4767 C.2 0.0 **** 0.0
14047 C14047 13.7804 44.9366 62.1133 C.3 0.0 **** -0.106
14048 C14048 13.6884 43.7388 63.0507 C.3 0.0 **** -0.106
14049 C14049 12.6157 44.0232 64.0889 C.3 0.0 **** -0.086
14050 C14050 11.266 44.3848 63.4815 C.2 0.0 **** 0.347
14051 O14051 10.2689 44.2954 64.1995 O.2 0.0 **** -0.419
14052 H14052 26.3728 59.9877 40.3709 H 0.0 **** 0.053
14053 H14053 25.4464 58.5103 39.9916 H 0.0 **** 0.053
14054 H14054 28.1837 59.3267 39.0017 H 0.0 **** 0.053
14055 H14055 27.4714 57.7136 39.1531 H 0.0 **** 0.053
14056 H14056 27.1246 59.7636 36.9246 H 0.0 **** 0.053
14057 H14057 25.379 58.3227 35.9326 H 0.0 **** 0.053
14058 H14058 23.7574 58.7595 38.1647 H 0.0 **** 0.053
14059 H14059 24.1932 60.0184 36.9681 H 0.0 **** 0.053
14060 H14060 25.1226 56.8847 38.5818 H 0.0 **** 0.053
14061 H14061 27.1612 55.8541 38.1509 H 0.0 **** 0.053
14062 H14062 26.7778 56.5726 35.2115 H 0.0 **** 0.053
14063 H14063 28.195 55.7409 35.8692 H 0.0 **** 0.053
14064 H14064 28.3642 58.3375 35.5984 H 0.0 **** 0.053
14065 H14065 28.9062 57.6579 37.1343 H 0.0 **** 0.053
14066 H14066 24.9848 53.027 37.4028 H 0.0 **** 0.053
14067 H14067 23.3808 54.2929 36.3925 H 0.0 **** 0.053
14068 H14068 23.2209 56.9133 36.9618 H 0.0 **** 0.053
14069 H14069 24.2936 56.2418 35.7254 H 0.0 **** 0.053
14070 H14070 25.6862 55.1594 39.4534 H 0.0 **** 0.053
14071 H14071 19.624 53.82 40.548 H 0.0 **** 0.053
14072 H14072 20.1518 55.492 40.372 H 0.0 **** 0.053
14073 H14073 19.227 54.745 38.2163 H 0.0 **** 0.053
14074 H14074 20.2962 53.3246 38.2051 H 0.0 **** 0.053
14075 H14075 21.1816 56.2598 38.0899 H 0.0 **** 0.053
14076 H14076 21.2689 55.1096 36.756 H 0.0 **** 0.053
14077 H14077 28.3236 50.7415 39.036 H 0.0 **** 0.053
14078 H14078 29.4142 51.9642 38.4355 H 0.0 **** 0.053
14079 H14079 27.1998 52.7088 37.6083 H 0.0 **** 0.1268
14080 H14080 30.6988 50.8223 40.3768 H 0.0 **** 0.053
14081 H14081 31.1032 52.5166 40.7052 H 0.0 **** 0.053
14082 H14082 31.4334 51.2234 42.8009 H 0.0 **** 0.053
14083 H14083 29.8026 50.5355 42.6715 H 0.0 **** 0.053
14084 H14084 28.2399 55.3326 42.4001 H 0.0 **** 0.053
14085 H14085 27.2828 54.5097 43.609 H 0.0 **** 0.053
14086 H14086 30.1299 55.5608 43.8544 H 0.0 **** 0.053
14087 H14087 28.7425 53.5276 45.6567 H 0.0 **** 0.053
14088 H14088 30.2014 54.4201 46.1316 H 0.0 **** 0.053
14089 H14089 30.6608 52.1103 45.0968 H 0.0 **** 0.053
14090 H14090 31.4951 53.4375 44.2992 H 0.0 **** 0.053
14091 H14091 26.823 52.3996 43.5972 H 0.0 **** 0.1268
14092 H14092 24.4179 50.931 48.1052 H 0.0 **** 0.1268
14093 H14093 23.2604 50.0478 49.978 H 0.0 **** 0.1268
14094 H14094 18.8929 52.9528 43.9416 H 0.0 **** 0.1268
14095 H14095 20.603 49.5009 54.7337 H 0.0 **** 0.053
14096 H14096 22.4407 50.0666 53.4985 H 0.0 **** 0.053
14097 H14097 22.0691 47.3707 52.1627 H 0.0 **** 0.053
14098 H14098 23.691 47.3663 54.1716 H 0.0 **** 0.053
14099 H14099 24.469 48.9447 54.0307 H 0.0 **** 0.053
14100 H14100 22.9515 49.7227 56.002 H 0.0 **** 0.053
14101 H14101 24.1791 48.5422 56.4705 H 0.0 **** 0.053
14102 H14102 22.6486 46.7582 56.5662 H 0.0 **** 0.053
14103 H14103 21.3959 46.564 54.6806 H 0.0 **** 0.053
14104 H14104 19.2739 48.1907 56.1381 H 0.0 **** 0.053
14105 H14105 19.0569 46.7248 55.1832 H 0.0 **** 0.053
14106 H14106 20.3462 45.4425 56.9565 H 0.0 **** 0.053
14107 H14107 18.8782 46.1825 57.61 H 0.0 **** 0.053
14108 H14108 21.3435 46.4955 58.801 H 0.0 **** 0.053
14109 H14109 20.0769 47.7234 58.9329 H 0.0 **** 0.053
14110 H14110 21.1051 49.0688 57.45 H 0.0 **** 0.353
14111 H14111 14.975 51.5081 44.1522 H 0.0 **** 0.053
14112 H14112 15.903 53.648 43.3477 H 0.0 **** 0.053
14113 H14113 16.2725 54.6702 46.1532 H 0.0 **** 0.053
14114 H14114 16.1186 55.5754 44.6412 H 0.0 **** 0.053
14115 H14115 14.0667 56.1317 45.7001 H 0.0 **** 0.053
14116 H14116 13.9422 54.5632 46.5157 H 0.0 **** 0.053
14117 H14117 13.5818 54.9684 43.4993 H 0.0 **** 0.053
14118 H14118 12.2413 54.8198 44.6392 H 0.0 **** 0.053
14119 H14119 13.0916 52.6441 43.3557 H 0.0 **** 0.053
14120 H14120 12.6628 52.5095 45.0662 H 0.0 **** 0.053
14121 H14121 13.9382 51.29 48.1503 H 0.0 **** 0.1268
14122 H14122 12.7451 50.4735 50.1582 H 0.0 **** 0.1268
14123 H14123 18.3501 48.6052 54.2368 H 0.0 **** 0.1268
14124 H14124 17.0736 47.4133 55.9483 H 0.0 **** 0.053
14125 H14125 15.0348 46.5439 56.3327 H 0.0 **** 0.053
14126 H14126 14.5841 48.9958 58.0524 H 0.0 **** 0.053
14127 H14127 16.5824 46.7261 58.3902 H 0.0 **** 0.053
14128 H14128 16.0972 47.7659 59.7374 H 0.0 **** 0.053
14129 H14129 18.2083 48.413 58.1625 H 0.0 **** 0.053
14130 H14130 17.1903 49.6602 58.8906 H 0.0 **** 0.053
14131 H14131 17.7263 49.8144 56.2977 H 0.0 **** 0.053
14132 H14132 16.0764 50.1461 56.8217 H 0.0 **** 0.053
14133 H14133 28.0938 56.9914 44.2754 H 0.0 **** 0.053
14134 H14134 26.8522 56.7643 46.3825 H 0.0 **** 0.053
14135 H14135 27.8056 55.3407 46.8504 H 0.0 **** 0.053
14136 H14136 26.675 55.2385 45.4831 H 0.0 **** 0.053
14137 H14137 30.3572 57.5446 45.1731 H 0.0 **** 0.053
14138 H14138 30.0214 56.5843 46.6354 H 0.0 **** 0.053
14139 H14139 29.0785 58.054 46.3092 H 0.0 **** 0.053
14140 H14140 23.6089 48.1352 50.6883 H 0.0 **** 0.41
14141 H14141 10.0894 49.3029 52.7013 H 0.0 **** 0.1268
14142 H14142 7.94249 48.6461 53.7357 H 0.0 **** 0.1268
14143 H14143 6.69451 47.5917 55.5878 H 0.0 **** 0.1268
14144 H14144 5.43826 46.5319 57.4168 H 0.0 **** 0.1268
14145 H14145 5.40955 45.4006 59.627 H 0.0 **** 0.1268
14146 H14146 8.70221 44.1854 62.8516 H 0.0 **** 0.1268
14147 H14147 6.61382 44.5201 61.5892 H 0.0 **** 0.1268
14148 H14148 14.5679 46.4692 60.2716 H 0.0 **** 0.1268
14149 H14149 14.5169 44.7341 61.3231 H 0.0 **** 0.053
14150 H14150 14.155 45.8153 62.6718 H 0.0 **** 0.053
14151 H14151 14.6617 43.5428 63.5255 H 0.0 **** 0.053
14152 H14152 13.4179 42.844 62.4665 H 0.0 **** 0.053
14153 H14153 12.9187 44.888 64.7077 H 0.0 **** 0.053
14154 H14154 12.4433 43.187 64.7813 H 0.0 **** 0.053
14155 C14155 67.1066 52.9798 23.0234 C.3 0.0 **** 0.054
14156 C14156 65.9232 53.8948 22.6299 C.3 0.0 **** -0.106
14157 C14157 65.2422 54.475 23.8866 C.3 0.0 **** -0.053
14158 C14158 65.1517 53.3768 24.9587 C.3 0.0 **** -0.053
14159 C14159 66.581 52.8978 25.3227 C.3 0.0 **** 0.054
14160 O14160 67.5661 53.2647 24.3492 O.3 0.0 **** -0.32
14161 C14161 64.2512 52.2142 24.4903 C.3 0.0 **** -0.053
14162 C14162 63.024 52.7075 23.6717 C.3 0.0 **** 0.107
14163 C14163 62.6925 54.1524 24.0041 C.3 0.0 **** -0.106
14164 C14164 63.8474 55.0805 23.5855 C.3 0.0 **** -0.106
14165 O14165 61.8521 51.9227 23.9416 O.3 0.0 **** -0.32
14166 C14166 62.1169 50.5099 23.9694 C.3 0.0 **** 0.107
14167 C14167 62.8768 50.1928 25.2699 C.3 0.0 **** -0.053
14168 C14168 63.7571 51.4071 25.6878 C.3 0.0 **** -0.106
14169 C14169 63.6093 48.8922 25.2503 C.2 0.0 **** 0.0
14170 C14170 63.7535 48.1164 24.1111 C.2 0.0 **** 0.0
14171 C14171 63.3195 48.5884 22.8203 C.2 0.0 **** 0.0
14172 C14172 62.7918 49.9992 22.6866 C.3 0.0 **** -0.053
14173 C14173 63.5289 47.8488 21.6693 C.2 0.0 **** 0.0
14174 C14174 64.1461 46.5461 21.7508 C.2 0.0 **** 0.0
14175 C14175 64.5285 46.0787 23.0448 C.2 0.0 **** 0.232
14176 C14176 64.3729 46.8077 24.1911 C.2 0.0 **** 0.0
14177 C14177 64.8478 46.2691 25.5168 C.3 0.0 **** -0.106
14178 C14178 64.0793 46.8887 26.6846 C.3 0.0 **** -0.106
14179 C14179 64.1241 48.4149 26.5791 C.3 0.0 **** -0.106
14180 O14180 65.1256 44.8394 23.174 O.3 0.0 **** -0.464
14181 C14181 65.2426 44.0028 22.0906 C.2 0.0 **** 0.232
14182 C14182 64.9289 44.4277 20.7869 C.2 0.0 **** 0.0
14183 C14183 64.3971 45.7594 20.6201 C.2 0.0 **** 0.0
14184 C14184 61.9406 50.1745 21.4513 C.2 0.0 **** 0.0
14185 C14185 62.4528 49.5593 20.2296 C.2 0.0 **** 0.0
14186 C14186 63.167 48.3652 20.3463 C.2 0.0 **** 0.0
14187 C14187 62.018 50.146 18.9635 C.2 0.0 **** 0.0
14188 C14188 60.8123 50.7837 18.9127 C.2 0.0 **** 0.0
14189 C14189 59.9995 51.0179 20.1438 C.3 0.0 **** -0.106
14190 C14190 60.7717 50.8527 21.4158 C.2 0.0 **** -0.1268
14191 C14191 60.3001 51.3009 17.5975 C.3 0.0 **** -0.106
14192 C14192 60.8008 50.42 16.4491 C.3 0.0 **** -0.106
14193 C14193 62.3006 50.2791 16.5373 C.2 0.0 **** 0.0
14194 C14194 62.8774 50.169 17.7576 C.2 0.0 **** 0.0
14195 C14195 64.3759 50.2321 17.9425 C.3 0.0 **** -0.106
14196 C14196 65.1385 50.5932 16.6627 C.3 0.0 **** -0.053
14197 C14197 64.5348 49.8283 15.4795 C.3 0.0 **** -0.106
14198 C14198 63.0893 50.2744 15.2606 C.3 0.0 **** -0.106
14199 C14199 64.0458 46.3036 19.3404 C.2 0.0 **** -0.012
14200 C14200 63.4433 47.5318 19.2207 C.2 0.0 **** -0.1268
14201 C14201 65.1044 43.4783 19.7479 C.2 0.0 **** 0.0
14202 C14202 64.8419 43.831 18.3756 C.2 0.0 **** -0.012
14203 S14203 64.4285 45.4577 17.8572 S.2 0.0 **** 0.024
14204 C14204 64.9687 42.9053 17.3716 C.2 0.0 **** -0.1268
14205 C14205 65.3592 41.5682 17.6461 C.2 0.0 **** 0.0
14206 C14206 65.6605 41.1828 18.9885 C.2 0.0 **** 0.0
14207 C14207 65.5448 42.138 20.0358 C.2 0.0 **** 0.0
14208 C14208 66.0806 39.852 19.2487 C.2 0.0 **** 0.0
14209 C14209 66.1608 38.9056 18.1814 C.2 0.0 **** 0.0
14210 C14210 65.7834 39.3009 16.8472 C.2 0.0 **** 0.0
14211 C14211 65.4371 40.6405 16.6121 C.2 0.0 **** -0.1268
14212 C14212 65.7667 38.3131 15.8182 C.2 0.0 **** 0.0
14213 C14213 66.2631 37.0506 16.0824 C.2 0.0 **** 0.042
14214 C14214 66.7578 36.6452 17.358 C.2 0.0 **** 0.0
14215 C14215 66.6331 37.5812 18.4228 C.2 0.0 **** 0.0
14216 C14216 65.862 41.7557 21.3829 C.2 0.0 **** 0.0
14217 C14217 65.6907 42.7336 22.3846 C.2 0.0 **** -0.1268
14218 C14218 66.425 39.4711 20.5876 C.2 0.0 **** 0.0
14219 C14219 66.3222 40.4105 21.6569 C.2 0.0 **** 0.0
14220 C14220 67.0021 37.2064 19.7575 C.2 0.0 **** 0.0
14221 C14221 66.8804 38.1387 20.8207 C.2 0.0 **** 0.0
14222 C14222 67.3382 35.3487 17.6063 C.2 0.0 **** 0.0
14223 C14223 67.6511 34.9783 18.9483 C.2 0.0 **** 0.0
14224 C14224 67.479 35.8944 20.0165 C.2 0.0 **** 0.0
14225 O14225 66.178 36.1304 15.0599 O.3 0.0 **** -0.202
14226 C14226 66.7394 36.5455 13.7825 C.3 0.0 **** 0.107
14227 C14227 66.3463 38.0028 13.4338 C.3 0.0 **** -0.053
14228 C14228 65.2265 38.4246 14.396 C.3 0.0 **** 0.107
14229 C14229 65.9841 38.144 11.9503 C.3 0.0 **** -0.106
14230 C14230 66.9789 37.3303 11.1159 C.3 0.0 **** -0.106
14231 C14231 66.7305 35.8319 11.3141 C.3 0.0 **** 0.134
14232 C14232 66.2643 35.5028 12.772 C.3 0.0 **** -0.053
14233 C14233 66.7461 34.0983 13.1719 C.3 0.0 **** -0.106
14234 C14234 66.6684 33.1249 11.9969 C.3 0.0 **** -0.106
14235 C14235 67.5945 33.6093 10.846 C.3 0.0 **** 0.081
14236 N14236 67.8896 35.0497 10.882 N.3 0.0 **** -0.727
14237 C14237 66.6905 39.9534 22.9716 C.2 0.0 **** 0.042
14238 C14238 67.0838 38.6441 23.2018 C.2 0.0 **** 0.042
14239 C14239 67.2194 37.712 22.1406 C.2 0.0 **** 0.0
14240 O14240 67.3905 38.1659 24.4549 O.3 0.0 **** -0.202
14241 C14241 66.9624 39.008 25.5472 C.3 0.0 **** 0.107
14242 C14242 67.3657 40.4326 25.2057 C.3 0.0 **** 0.107
14243 O14243 66.6491 40.8404 24.024 O.3 0.0 **** -0.202
14244 C14244 68.8894 40.5863 25.0178 C.3 0.0 **** -0.106
14245 C14245 69.6989 39.5511 25.8285 C.3 0.0 **** -0.106
14246 C14246 68.9691 39.1923 27.1278 C.3 0.0 **** -0.106
14247 C14247 67.6235 38.4993 26.83 C.3 0.0 **** -0.106
14248 C14248 67.817 35.4877 21.3496 C.2 0.0 **** 0.0
14249 C14249 67.6698 36.4069 22.3882 C.2 0.0 **** -0.1268
14250 C14250 68.157 33.6735 19.2066 C.2 0.0 **** 0.0
14251 C14251 68.4521 33.2905 20.5516 C.2 0.0 **** 0.042
14252 C14252 68.2956 34.1622 21.5934 C.2 0.0 **** -0.1268
14253 C14253 68.3855 32.7644 18.1626 C.2 0.0 **** 0.0
14254 C14254 68.1554 33.1633 16.8395 C.2 0.0 **** 0.0
14255 C14255 67.6454 34.4241 16.5894 C.2 0.0 **** -0.1268
14256 O14256 68.9203 32.0152 20.8293 O.3 0.0 **** -0.0685
14257 C14257 69.0802 31.0908 19.8226 C.2 0.0 **** 0.0265
14258 C14258 68.8502 31.4356 18.4797 C.2 0.0 **** 0.0
14259 C14259 68.4882 32.2711 15.6732 C.3 0.0 **** -0.053
14260 C14260 68.65 30.7787 16.0438 C.3 0.0 **** -0.053
14261 C14261 69.0238 30.483 17.4721 C.2 0.0 **** 0.0
14262 C14262 69.6565 30.0685 15.119 C.3 0.0 **** -0.053
14263 C14263 69.4678 30.5472 13.6842 C.3 0.0 **** -0.106
14264 C14264 69.88 32.0367 13.5771 C.3 0.0 **** -0.106
14265 C14265 69.7297 32.7796 14.9182 C.3 0.0 **** -0.106
14266 C14266 69.4361 29.1805 17.7914 C.2 0.0 **** 0.0
14267 C14267 69.606 28.813 19.1563 C.2 0.0 **** 0.0
14268 C14268 69.4448 29.7831 20.1949 C.2 0.0 **** 0.0
14269 C14269 69.6095 28.5893 15.3877 C.2 0.0 **** 0.0
14270 C14270 69.6109 28.1986 16.7557 C.2 0.0 **** 0.0
14271 C14271 66.6555 50.3714 16.8376 C.3 0.0 **** -0.053
14272 C14272 67.0398 48.8861 16.8427 C.3 0.0 **** -0.159
14273 C14273 67.4507 51.1224 15.7647 C.3 0.0 **** -0.159
14274 O14274 64.7218 39.6882 13.9609 O.3 0.0 **** -0.57
14275 C14275 69.633 29.3829 21.5582 C.2 0.0 **** -0.1268
14276 C14276 69.9292 28.0854 21.8711 C.2 0.0 **** -0.1268
14277 C14277 70.0538 27.0771 20.8585 C.2 0.0 **** 0.0
14278 C14278 69.8918 27.4592 19.4876 C.2 0.0 **** 0.0
14279 C14279 69.9859 26.4771 18.4662 C.2 0.0 **** 0.0
14280 C14280 70.2396 25.126 18.8002 C.2 0.0 **** 0.0
14281 C14281 70.4059 24.7537 20.1733 C.2 0.0 **** 0.0
14282 C14282 70.3108 25.738 21.1701 C.2 0.0 **** -0.1268
14283 C14283 70.6611 23.3838 20.4912 C.2 0.0 **** -0.1268
14284 C14284 70.7449 22.4366 19.5053 C.2 0.0 **** -0.1268
14285 C14285 70.5852 22.7856 18.1294 C.2 0.0 **** 0.0
14286 C14286 70.3351 24.1382 17.7757 C.2 0.0 **** 0.0
14287 C14287 70.1872 24.5012 16.4027 C.2 0.0 **** 0.0
14288 C14288 69.9429 25.8636 16.0692 C.2 0.0 **** 0.0
14289 C14289 69.8382 26.8483 17.0927 C.2 0.0 **** 0.0
14290 C14290 70.2997 23.517 15.3763 C.2 0.0 **** 0.0
14291 C14291 70.5283 22.1696 15.7711 C.2 0.0 **** -0.1268
14292 C14292 70.6634 21.822 17.099 C.2 0.0 **** -0.1268
14293 C14293 69.6656 27.6279 14.4037 C.2 0.0 **** -0.1268
14294 C14294 69.79 26.247 14.7084 C.2 0.0 **** 0.0
14295 C14295 70.134 23.9198 13.9947 C.2 0.0 **** 0.052
14296 C14296 69.8194 25.2498 13.6846 C.2 0.0 **** 0.0
14297 C14297 69.4975 25.679 12.2704 C.3 0.0 **** -0.106
14298 C14298 68.9858 24.5211 11.4223 C.3 0.0 **** -0.106
14299 C14299 70.0185 23.4068 11.4582 C.3 0.0 **** -0.086
14300 C14300 70.3872 22.9683 12.8701 C.2 0.0 **** 0.347
14301 O14301 70.9331 21.8726 13.0087 O.2 0.0 **** -0.419
14302 H14302 67.9725 53.1311 22.3646 H 0.0 **** 0.053
14303 H14303 66.8119 51.9132 22.9599 H 0.0 **** 0.053
14304 H14304 66.2662 54.7253 21.9939 H 0.0 **** 0.053
14305 H14305 65.1939 53.3179 22.0395 H 0.0 **** 0.053
14306 H14306 65.9014 55.2651 24.2748 H 0.0 **** 0.053
14307 H14307 64.6936 53.8085 25.8643 H 0.0 **** 0.053
14308 H14308 66.5839 51.7947 25.4471 H 0.0 **** 0.053
14309 H14309 66.9269 53.352 26.2619 H 0.0 **** 0.053
14310 H14310 64.8624 51.5519 23.8565 H 0.0 **** 0.053
14311 H14311 63.2456 52.6396 22.5891 H 0.0 **** 0.053
14312 H14312 62.511 54.2258 25.0886 H 0.0 **** 0.053
14313 H14313 61.7585 54.4409 23.501 H 0.0 **** 0.053
14314 H14314 63.7355 56.0452 24.1028 H 0.0 **** 0.053
14315 H14315 63.7745 55.2939 22.5064 H 0.0 **** 0.053
14316 H14316 61.1228 50.0415 24.0149 H 0.0 **** 0.053
14317 H14317 62.114 50.1006 26.0667 H 0.0 **** 0.053
14318 H14318 64.6098 51.0679 26.2945 H 0.0 **** 0.053
14319 H14319 63.1591 52.0803 26.3221 H 0.0 **** 0.053
14320 H14320 63.7035 50.6052 22.5095 H 0.0 **** 0.053
14321 H14321 64.7655 45.1727 25.5265 H 0.0 **** 0.053
14322 H14322 65.9244 46.4957 25.6341 H 0.0 **** 0.053
14323 H14323 64.5026 46.5516 27.6431 H 0.0 **** 0.053
14324 H14324 63.0292 46.5563 26.6481 H 0.0 **** 0.053
14325 H14325 65.1695 48.753 26.7263 H 0.0 **** 0.053
14326 H14326 63.5403 48.8849 27.3885 H 0.0 **** 0.053
14327 H14327 59.1202 50.3365 20.1495 H 0.0 **** 0.053
14328 H14328 59.547 52.0276 20.0922 H 0.0 **** 0.053
14329 H14329 60.36 51.3019 22.318 H 0.0 **** 0.1268
14330 H14330 59.1994 51.3447 17.6151 H 0.0 **** 0.053
14331 H14331 60.6563 52.3407 17.45 H 0.0 **** 0.053
14332 H14332 60.5165 50.8426 15.4728 H 0.0 **** 0.053
14333 H14333 60.3235 49.4237 16.5211 H 0.0 **** 0.053
14334 H14334 64.5947 50.9778 18.7277 H 0.0 **** 0.053
14335 H14335 64.7605 49.2813 18.3418 H 0.0 **** 0.053
14336 H14336 64.9827 51.6707 16.4676 H 0.0 **** 0.053
14337 H14337 64.5501 48.7491 15.7034 H 0.0 **** 0.053
14338 H14338 65.128 49.9821 14.565 H 0.0 **** 0.053
14339 H14339 62.5819 49.6171 14.531 H 0.0 **** 0.053
14340 H14340 63.0685 51.2846 14.8072 H 0.0 **** 0.053
14341 H14341 63.128 47.8716 18.2344 H 0.0 **** 0.1268
14342 H14342 64.7595 43.1816 16.3356 H 0.0 **** 0.1268
14343 H14343 65.2535 40.9818 15.5981 H 0.0 **** 0.1268
14344 H14344 65.8996 42.5115 23.4207 H 0.0 **** 0.1268
14345 H14345 67.8391 36.4728 13.8771 H 0.0 **** 0.053
14346 H14346 67.2088 38.6567 13.6392 H 0.0 **** 0.053
14347 H14347 64.4201 37.6683 14.2999 H 0.0 **** 0.053
14348 H14348 64.9582 37.7763 11.7771 H 0.0 **** 0.053
14349 H14349 65.989 39.2057 11.6729 H 0.0 **** 0.053
14350 H14350 68.007 37.5724 11.4406 H 0.0 **** 0.053
14351 H14351 66.924 37.5702 10.0452 H 0.0 **** 0.053
14352 H14352 65.904 35.5369 10.6452 H 0.0 **** 0.053
14353 H14353 65.1614 35.5185 12.7924 H 0.0 **** 0.053
14354 H14354 67.7966 34.1677 13.5031 H 0.0 **** 0.053
14355 H14355 66.1726 33.7348 14.0355 H 0.0 **** 0.053
14356 H14356 65.6253 33.0665 11.647 H 0.0 **** 0.053
14357 H14357 66.9553 32.1097 12.3144 H 0.0 **** 0.053
14358 H14358 67.1296 33.3763 9.87307 H 0.0 **** 0.053
14359 H14359 68.5555 33.0746 10.8757 H 0.0 **** 0.053
14360 H14360 68.6703 35.2298 11.5146 H 0.0 **** 0.353
14361 H14361 65.8629 38.9488 25.6088 H 0.0 **** 0.053
14362 H14362 66.9953 41.1074 25.9906 H 0.0 **** 0.053
14363 H14363 69.1127 40.4848 23.9459 H 0.0 **** 0.053
14364 H14364 69.1676 41.6094 25.3102 H 0.0 **** 0.053
14365 H14365 70.7011 39.9502 26.0431 H 0.0 **** 0.053
14366 H14366 69.831 38.6381 25.2292 H 0.0 **** 0.053
14367 H14367 68.7927 40.1159 27.7053 H 0.0 **** 0.053
14368 H14368 69.5882 38.5402 27.7613 H 0.0 **** 0.053
14369 H14369 66.9263 38.6399 27.6694 H 0.0 **** 0.053
14370 H14370 67.7652 37.4143 26.7093 H 0.0 **** 0.053
14371 H14371 67.9134 36.1106 23.4072 H 0.0 **** 0.1268
14372 H14372 68.5383 33.853 22.6106 H 0.0 **** 0.1268
14373 H14373 67.4625 34.7009 15.5632 H 0.0 **** 0.1268
14374 H14374 67.6538 32.3393 14.9586 H 0.0 **** 0.053
14375 H14375 67.6712 30.2862 15.8775 H 0.0 **** 0.053
14376 H14376 70.6671 30.3869 15.4454 H 0.0 **** 0.053
14377 H14377 68.408 30.4156 13.4073 H 0.0 **** 0.053
14378 H14378 70.0595 29.9448 12.9804 H 0.0 **** 0.053
14379 H14379 69.2571 32.5305 12.8179 H 0.0 **** 0.053
14380 H14380 70.9228 32.1109 13.2321 H 0.0 **** 0.053
14381 H14381 69.6404 33.8641 14.754 H 0.0 **** 0.053
14382 H14382 70.6176 32.6343 15.5537 H 0.0 **** 0.053
14383 H14383 66.926 50.798 17.8208 H 0.0 **** 0.053
14384 H14384 68.1016 48.7638 17.1045 H 0.0 **** 0.053
14385 H14385 66.8906 48.446 15.8446 H 0.0 **** 0.053
14386 H14386 66.4443 48.2993 17.5585 H 0.0 **** 0.053
14387 H14387 67.2111 52.1975 15.7727 H 0.0 **** 0.053
14388 H14388 67.2186 50.7311 14.7613 H 0.0 **** 0.053
14389 H14389 68.5341 51.0089 15.9223 H 0.0 **** 0.053
14390 H14390 63.9186 39.8701 14.4728 H 0.0 **** 0.41
14391 H14391 69.526 30.1324 22.3422 H 0.0 **** 0.1268
14392 H14392 70.0663 27.7886 22.9124 H 0.0 **** 0.1268
14393 H14393 70.4326 25.4476 22.2159 H 0.0 **** 0.1268
14394 H14394 70.7853 23.1096 21.5404 H 0.0 **** 0.1268
14395 H14395 70.9329 21.3905 19.7548 H 0.0 **** 0.1268
14396 H14396 70.6076 21.411 14.9998 H 0.0 **** 0.1268
14397 H14397 70.8341 20.7777 17.3693 H 0.0 **** 0.1268
14398 H14398 69.6576 27.9457 13.3645 H 0.0 **** 0.1268
14399 H14399 68.7447 26.4791 12.2995 H 0.0 **** 0.053
14400 H14400 70.398 26.1143 11.7971 H 0.0 **** 0.053
14401 H14401 68.7916 24.8525 10.3909 H 0.0 **** 0.053
14402 H14402 68.0313 24.1621 11.8408 H 0.0 **** 0.053
14403 H14403 70.9563 23.7552 10.9871 H 0.0 **** 0.053
14404 H14404 69.7091 22.5047 10.9116 H 0.0 **** 0.053
14405 C14405 28.6049 36.2089 -1.39097 C.3 0.0 **** 0.054
14406 C14406 30.0553 36.1422 -0.857829 C.3 0.0 **** -0.106
14407 C14407 30.3096 34.8016 -0.138104 C.3 0.0 **** -0.053
14408 C14408 29.074 34.4432 0.70351 C.3 0.0 **** -0.053
14409 C14409 27.8432 34.3011 -0.229178 C.3 0.0 **** 0.054
14410 O14410 28.0357 34.9012 -1.51591 O.3 0.0 **** -0.32
14411 C14411 28.8399 35.4829 1.81974 C.3 0.0 **** -0.053
14412 C14412 30.1707 35.9982 2.43863 C.3 0.0 **** 0.107
14413 C14413 31.2923 34.9945 2.23171 C.3 0.0 **** -0.106
14414 C14414 31.5927 34.8235 0.731436 C.3 0.0 **** -0.106
14415 O14415 30.0496 36.225 3.85145 O.3 0.0 **** -0.32
14416 C14416 28.8349 36.9061 4.20843 C.3 0.0 **** 0.107
14417 C14417 27.6698 35.9109 4.06268 C.3 0.0 **** -0.053
14418 C14418 27.9743 34.8893 2.92784 C.3 0.0 **** -0.106
14419 C14419 26.3258 36.5519 3.95568 C.2 0.0 **** 0.0
14420 C14420 26.1428 37.9183 3.81436 C.2 0.0 **** 0.0
14421 C14421 27.2581 38.8098 3.618 C.2 0.0 **** 0.0
14422 C14422 28.6472 38.2341 3.45792 C.3 0.0 **** -0.053
14423 C14423 27.0747 40.1645 3.40205 C.2 0.0 **** 0.0
14424 C14424 25.7445 40.7255 3.42526 C.2 0.0 **** 0.0
14425 C14425 24.6572 39.8315 3.66522 C.2 0.0 **** 0.232
14426 C14426 24.8076 38.4834 3.83764 C.2 0.0 **** 0.0
14427 C14427 23.6068 37.5938 4.03612 C.3 0.0 **** -0.106
14428 C14428 23.9719 36.3141 4.78924 C.3 0.0 **** -0.106
14429 C14429 25.1501 35.6263 4.09551 C.3 0.0 **** -0.106
14430 O14430 23.3652 40.3204 3.6938 O.3 0.0 **** -0.464
14431 C14431 23.1263 41.671 3.61722 C.2 0.0 **** 0.232
14432 C14432 24.1511 42.5915 3.33238 C.2 0.0 **** 0.0
14433 C14433 25.4962 42.0847 3.19853 C.2 0.0 **** 0.0
14434 C14434 29.7233 39.25 3.75976 C.2 0.0 **** 0.0
14435 C14435 29.5122 40.5869 3.21049 C.2 0.0 **** 0.0
14436 C14436 28.201 41.0575 3.11574 C.2 0.0 **** 0.0
14437 C14437 30.7045 41.3989 2.97511 C.2 0.0 **** 0.0
14438 C14438 31.8125 41.1797 3.74152 C.2 0.0 **** 0.0
14439 C14439 31.8814 40.0438 4.70906 C.3 0.0 **** -0.106
14440 C14440 30.8371 38.9952 4.48218 C.2 0.0 **** -0.1268
14441 C14441 33.0115 42.0732 3.58711 C.3 0.0 **** -0.106
14442 C14442 32.5742 43.4827 3.17796 C.3 0.0 **** -0.106
14443 C14443 31.6797 43.4021 1.96527 C.2 0.0 **** 0.0
14444 C14444 30.7966 42.3799 1.8696 C.2 0.0 **** 0.0
14445 C14445 30.017 42.1125 0.602905 C.3 0.0 **** -0.106
14446 C14446 30.4447 42.9901 -0.578893 C.3 0.0 **** -0.053
14447 C14447 30.6626 44.4268 -0.0913207 C.3 0.0 **** -0.106
14448 C14448 31.8159 44.4618 0.911344 C.3 0.0 **** -0.106
14449 C14449 26.6201 42.9257 2.90442 C.2 0.0 **** -0.012
14450 C14450 27.9025 42.4347 2.88782 C.2 0.0 **** -0.1268
14451 C14451 23.7789 43.9584 3.26431 C.2 0.0 **** 0.0
14452 C14452 24.752 44.9719 2.94467 C.2 0.0 **** -0.012
14453 S14453 26.4086 44.6113 2.48481 S.2 0.0 **** 0.024
14454 C14454 24.4076 46.2992 2.91926 C.2 0.0 **** -0.1268
14455 C14455 23.084 46.7233 3.20899 C.2 0.0 **** 0.0
14456 C14456 22.0791 45.7502 3.4997 C.2 0.0 **** 0.0
14457 C14457 22.4223 44.3702 3.51619 C.2 0.0 **** 0.0
14458 C14458 20.7515 46.182 3.75716 C.2 0.0 **** 0.0
14459 C14459 20.441 47.5766 3.76194 C.2 0.0 **** 0.0
14460 C14460 21.4881 48.5415 3.5353 C.2 0.0 **** 0.0
14461 C14461 22.775 48.08 3.21784 C.2 0.0 **** -0.1268
14462 C14462 21.1788 49.9292 3.652 C.2 0.0 **** 0.0
14463 C14463 19.8631 50.3188 3.8167 C.2 0.0 **** 0.042
14464 C14464 18.7742 49.4034 3.92891 C.2 0.0 **** 0.0
14465 C14465 19.1 48.0185 3.9661 C.2 0.0 **** 0.0
14466 C14466 21.4099 43.3906 3.79327 C.2 0.0 **** 0.0
14467 C14467 21.8172 42.041 3.83509 C.2 0.0 **** -0.1268
14468 C14468 19.7299 45.2074 4.00775 C.2 0.0 **** 0.0
14469 C14469 20.0454 43.8157 4.02598 C.2 0.0 **** 0.0
14470 C14470 18.0725 47.0432 4.1917 C.2 0.0 **** 0.0
14471 C14471 18.3947 45.6614 4.22735 C.2 0.0 **** 0.0
14472 C14472 17.3973 49.8198 4.03029 C.2 0.0 **** 0.0
14473 C14473 16.3982 48.8388 4.30476 C.2 0.0 **** 0.0
14474 C14474 16.7312 47.4636 4.392 C.2 0.0 **** 0.0
14475 O14475 19.6365 51.67 3.96672 O.3 0.0 **** -0.202
14476 C14476 20.2048 52.5283 2.93739 C.3 0.0 **** 0.107
14477 C14477 21.6519 52.1069 2.57896 C.3 0.0 **** -0.053
14478 C14478 22.1291 51.1224 3.65632 C.3 0.0 **** 0.107
14479 C14479 22.5612 53.3286 2.39932 C.3 0.0 **** -0.106
14480 C14480 21.7961 54.409 1.62777 C.3 0.0 **** -0.106
14481 C14481 20.702 55.0132 2.51318 C.3 0.0 **** 0.134
14482 C14482 20.0756 53.9513 3.47806 C.3 0.0 **** -0.053
14483 C14483 18.6028 54.2974 3.75331 C.3 0.0 **** -0.106
14484 C14484 18.3961 55.8063 3.87398 C.3 0.0 **** -0.106
14485 C14485 18.7814 56.502 2.53817 C.3 0.0 **** 0.081
14486 N14486 19.7101 55.7234 1.70472 N.3 0.0 **** -0.727
14487 C14487 18.9644 42.8994 4.28002 C.2 0.0 **** 0.042
14488 C14488 17.679 43.3474 4.54297 C.2 0.0 **** 0.042
14489 C14489 17.3492 44.7267 4.49586 C.2 0.0 **** 0.0
14490 O14490 16.6385 42.4979 4.8408 O.3 0.0 **** -0.202
14491 C14491 17.0335 41.1526 5.18669 C.3 0.0 **** 0.107
14492 C14492 18.0541 40.7011 4.15552 C.3 0.0 **** 0.107
14493 O14493 19.2165 41.5459 4.26165 O.3 0.0 **** -0.202
14494 C14494 17.4866 40.7068 2.72075 C.3 0.0 **** -0.106
14495 C14495 15.9576 40.4953 2.68218 C.3 0.0 **** -0.106
14496 C14496 15.507 39.5982 3.84048 C.3 0.0 **** -0.106
14497 C14497 15.7801 40.2751 5.19939 C.3 0.0 **** -0.106
14498 C14498 15.6958 46.5074 4.65704 C.2 0.0 **** 0.0
14499 C14499 16.0311 45.1546 4.7128 C.2 0.0 **** -0.1268
14500 C14500 15.0481 49.2546 4.47674 C.2 0.0 **** 0.0
14501 C14501 14.0471 48.2783 4.77261 C.2 0.0 **** 0.042
14502 C14502 14.3498 46.9475 4.85693 C.2 0.0 **** -0.1268
14503 C14503 14.682 50.6025 4.34496 C.2 0.0 **** 0.0
14504 C14504 15.6534 51.5487 3.99288 C.2 0.0 **** 0.0
14505 C14505 16.9687 51.1484 3.84476 C.2 0.0 **** -0.1268
14506 O14506 12.7301 48.6643 4.97092 O.3 0.0 **** -0.0685
14507 C14507 12.3711 49.9916 4.9156 C.2 0.0 **** 0.0265
14508 C14508 13.3098 50.9821 4.57971 C.2 0.0 **** 0.0
14509 C14509 15.299 52.9879 3.72815 C.3 0.0 **** -0.053
14510 C14510 13.932 53.4201 4.30724 C.3 0.0 **** -0.053
14511 C14511 12.9229 52.3238 4.52376 C.2 0.0 **** 0.0
14512 C14512 13.2773 54.5249 3.45667 C.3 0.0 **** -0.053
14513 C14513 14.3352 55.5243 3.00333 C.3 0.0 **** -0.106
14514 C14514 15.3024 54.8378 2.00673 C.3 0.0 **** -0.106
14515 C14515 15.379 53.315 2.22595 C.3 0.0 **** -0.106
14516 C14516 11.5959 52.6908 4.7937 C.2 0.0 **** 0.0
14517 C14517 10.6609 51.6959 5.19732 C.2 0.0 **** 0.0
14518 C14518 11.0418 50.318 5.24439 C.2 0.0 **** 0.0
14519 C14519 12.0675 55.0486 4.18096 C.2 0.0 **** 0.0
14520 C14520 11.198 54.0714 4.74049 C.2 0.0 **** 0.0
14521 C14521 29.4441 42.8753 -1.74801 C.3 0.0 **** -0.053
14522 C14522 28.1241 43.6067 -1.47126 C.3 0.0 **** -0.159
14523 C14523 30.0643 43.375 -3.05687 C.3 0.0 **** -0.159
14524 O14524 23.5214 50.8795 3.44821 O.3 0.0 **** -0.57
14525 C14525 10.0736 49.3402 5.64511 C.2 0.0 **** -0.1268
14526 C14526 8.81116 49.7161 6.01135 C.2 0.0 **** -0.1268
14527 C14527 8.40872 51.0928 6.01915 C.2 0.0 **** 0.0
14528 C14528 9.35332 52.085 5.60099 C.2 0.0 **** 0.0
14529 C14529 8.98969 53.4576 5.62182 C.2 0.0 **** 0.0
14530 C14530 7.69908 53.8448 6.05298 C.2 0.0 **** 0.0
14531 C14531 6.75884 52.8455 6.46398 C.2 0.0 **** 0.0
14532 C14532 7.13499 51.4929 6.43595 C.2 0.0 **** -0.1268
14533 C14533 5.45999 53.2559 6.89682 C.2 0.0 **** -0.1268
14534 C14534 5.11313 54.5807 6.92266 C.2 0.0 **** -0.1268
14535 C14535 6.03354 55.594 6.51463 C.2 0.0 **** 0.0
14536 C14536 7.33173 55.2228 6.07395 C.2 0.0 **** 0.0
14537 C14537 8.25564 56.2258 5.65088 C.2 0.0 **** 0.0
14538 C14538 9.54987 55.8321 5.20711 C.2 0.0 **** 0.0
14539 C14539 9.91996 54.4569 5.19506 C.2 0.0 **** 0.0
14540 C14540 7.88332 57.6029 5.65518 C.2 0.0 **** 0.0
14541 C14541 6.58262 57.9371 6.12433 C.2 0.0 **** -0.1268
14542 C14542 5.69564 56.9657 6.53908 C.2 0.0 **** -0.1268
14543 C14543 11.7229 56.3805 4.23704 C.2 0.0 **** -0.1268
14544 C14544 10.4867 56.8145 4.78355 C.2 0.0 **** 0.0
14545 C14545 8.84989 58.5939 5.22867 C.2 0.0 **** 0.052
14546 C14546 10.145 58.2001 4.86584 C.2 0.0 **** 0.0
14547 C14547 11.2234 59.2138 4.5539 C.3 0.0 **** -0.106
14548 C14548 10.9572 60.5577 5.22095 C.3 0.0 **** -0.106
14549 C14549 9.58099 61.0408 4.79465 C.3 0.0 **** -0.086
14550 C14550 8.4731 60.0316 5.06923 C.2 0.0 **** 0.347
14551 O14551 7.31155 60.4419 5.08614 O.2 0.0 **** -0.419
14552 H14552 28.5619 36.6542 -2.39431 H 0.0 **** 0.053
14553 H14553 27.9708 36.821 -0.718761 H 0.0 **** 0.053
14554 H14554 30.7792 36.249 -1.6802 H 0.0 **** 0.053
14555 H14555 30.2304 36.9802 -0.164699 H 0.0 **** 0.053
14556 H14556 30.4159 34.0326 -0.91708 H 0.0 **** 0.053
14557 H14557 29.2513 33.4686 1.18833 H 0.0 **** 0.053
14558 H14558 26.9538 34.755 0.255889 H 0.0 **** 0.053
14559 H14559 27.621 33.2453 -0.438466 H 0.0 **** 0.053
14560 H14560 28.2974 36.3334 1.37663 H 0.0 **** 0.053
14561 H14561 30.4616 36.952 1.95754 H 0.0 **** 0.053
14562 H14562 30.9847 34.0343 2.67653 H 0.0 **** 0.053
14563 H14563 32.189 35.3278 2.77348 H 0.0 **** 0.053
14564 H14564 32.1631 33.894 0.58531 H 0.0 **** 0.053
14565 H14565 32.2427 35.6463 0.390826 H 0.0 **** 0.053
14566 H14566 28.9585 37.1559 5.27246 H 0.0 **** 0.053
14567 H14567 27.6481 35.3118 4.99313 H 0.0 **** 0.053
14568 H14568 27.0364 34.4969 2.50755 H 0.0 **** 0.053
14569 H14569 28.5181 34.0322 3.35539 H 0.0 **** 0.053
14570 H14570 28.7241 38.0317 2.37036 H 0.0 **** 0.053
14571 H14571 22.8131 38.1471 4.5584 H 0.0 **** 0.053
14572 H14572 23.1904 37.3228 3.0474 H 0.0 **** 0.053
14573 H14573 23.1034 35.64 4.84226 H 0.0 **** 0.053
14574 H14574 24.261 36.568 5.82198 H 0.0 **** 0.053
14575 H14575 24.8214 35.2746 3.09697 H 0.0 **** 0.053
14576 H14576 25.4596 34.7212 4.64515 H 0.0 **** 0.053
14577 H14577 31.8028 40.4302 5.74922 H 0.0 **** 0.053
14578 H14578 32.8946 39.5978 4.67218 H 0.0 **** 0.053
14579 H14579 31.0059 38.0122 4.91879 H 0.0 **** 0.1268
14580 H14580 33.5883 42.0918 4.52561 H 0.0 **** 0.053
14581 H14581 33.6828 41.6529 2.81082 H 0.0 **** 0.053
14582 H14582 33.4454 44.1215 2.96461 H 0.0 **** 0.053
14583 H14583 32.028 43.9518 4.01895 H 0.0 **** 0.053
14584 H14584 30.1437 41.0473 0.339148 H 0.0 **** 0.053
14585 H14585 28.9368 42.2334 0.776428 H 0.0 **** 0.053
14586 H14586 31.4209 42.6178 -0.942083 H 0.0 **** 0.053
14587 H14587 29.7435 44.7824 0.402442 H 0.0 **** 0.053
14588 H14588 30.8652 45.1044 -0.934899 H 0.0 **** 0.053
14589 H14589 31.8773 45.449 1.40468 H 0.0 **** 0.053
14590 H14590 32.7816 44.3388 0.383314 H 0.0 **** 0.053
14591 H14591 28.7308 43.1257 2.7322 H 0.0 **** 0.1268
14592 H14592 25.1553 47.0598 2.6833 H 0.0 **** 0.1268
14593 H14593 23.55 48.7873 2.93971 H 0.0 **** 0.1268
14594 H14594 21.1105 41.2528 4.04914 H 0.0 **** 0.1268
14595 H14595 19.5597 52.4279 2.04445 H 0.0 **** 0.053
14596 H14596 21.6295 51.5538 1.62643 H 0.0 **** 0.053
14597 H14597 21.9999 51.6307 4.63427 H 0.0 **** 0.053
14598 H14598 22.8687 53.7167 3.38551 H 0.0 **** 0.053
14599 H14599 23.4794 53.0268 1.87964 H 0.0 **** 0.053
14600 H14600 21.3289 53.9543 0.73542 H 0.0 **** 0.053
14601 H14601 22.4536 55.21 1.2632 H 0.0 **** 0.053
14602 H14602 21.1723 55.7803 3.15197 H 0.0 **** 0.053
14603 H14603 20.631 53.982 4.43079 H 0.0 **** 0.053
14604 H14604 17.9909 53.9238 2.91415 H 0.0 **** 0.053
14605 H14605 18.2528 53.7692 4.65065 H 0.0 **** 0.053
14606 H14606 19.0204 56.1899 4.69678 H 0.0 **** 0.053
14607 H14607 17.3503 56.0351 4.13424 H 0.0 **** 0.053
14608 H14608 19.2449 57.4804 2.75001 H 0.0 **** 0.053
14609 H14609 17.8828 56.6994 1.935 H 0.0 **** 0.053
14610 H14610 19.1909 55.0484 1.14186 H 0.0 **** 0.353
14611 H14611 17.5132 41.1858 6.17913 H 0.0 **** 0.053
14612 H14612 18.4223 39.7022 4.42976 H 0.0 **** 0.053
14613 H14613 17.7467 41.6684 2.25503 H 0.0 **** 0.053
14614 H14614 18.0001 39.921 2.14767 H 0.0 **** 0.053
14615 H14615 15.6685 40.0568 1.71579 H 0.0 **** 0.053
14616 H14616 15.4505 41.4679 2.76563 H 0.0 **** 0.053
14617 H14617 16.0533 38.641 3.78455 H 0.0 **** 0.053
14618 H14618 14.4377 39.3537 3.75782 H 0.0 **** 0.053
14619 H14619 15.8842 39.5176 5.99054 H 0.0 **** 0.053
14620 H14620 14.9376 40.9234 5.48523 H 0.0 **** 0.053
14621 H14621 15.258 44.4171 4.92223 H 0.0 **** 0.1268
14622 H14622 13.568 46.2181 5.07176 H 0.0 **** 0.1268
14623 H14623 17.6997 51.899 3.58877 H 0.0 **** 0.1268
14624 H14624 16.0676 53.6099 4.21188 H 0.0 **** 0.053
14625 H14625 14.1184 53.8634 5.30575 H 0.0 **** 0.053
14626 H14626 12.876 54.0309 2.5488 H 0.0 **** 0.053
14627 H14627 14.8819 55.8832 3.89192 H 0.0 **** 0.053
14628 H14628 13.8772 56.4055 2.53199 H 0.0 **** 0.053
14629 H14629 16.3061 55.271 2.12057 H 0.0 **** 0.053
14630 H14630 14.981 55.0435 0.974079 H 0.0 **** 0.053
14631 H14631 16.3142 52.9091 1.81155 H 0.0 **** 0.053
14632 H14632 14.5584 52.7974 1.70439 H 0.0 **** 0.053
14633 H14633 29.2202 41.7995 -1.86791 H 0.0 **** 0.053
14634 H14634 27.3903 43.3898 -2.26205 H 0.0 **** 0.053
14635 H14635 28.2832 44.696 -1.45498 H 0.0 **** 0.053
14636 H14636 27.6778 43.3202 -0.506821 H 0.0 **** 0.053
14637 H14637 30.9955 42.8336 -3.28703 H 0.0 **** 0.053
14638 H14638 30.304 44.4482 -2.99037 H 0.0 **** 0.053
14639 H14639 29.37 43.2421 -3.90046 H 0.0 **** 0.053
14640 H14640 23.8469 50.3879 4.21802 H 0.0 **** 0.41
14641 H14641 10.3668 48.2906 5.66085 H 0.0 **** 0.1268
14642 H14642 8.08168 48.965 6.31952 H 0.0 **** 0.1268
14643 H14643 6.41607 50.7355 6.75604 H 0.0 **** 0.1268
14644 H14644 4.7508 52.4872 7.20916 H 0.0 **** 0.1268
14645 H14645 4.12189 54.8887 7.26114 H 0.0 **** 0.1268
14646 H14646 6.29109 58.9818 6.13991 H 0.0 **** 0.1268
14647 H14647 4.70576 57.2557 6.89775 H 0.0 **** 0.1268
14648 H14648 12.4028 57.1124 3.80938 H 0.0 **** 0.1268
14649 H14649 12.1944 58.8202 4.88583 H 0.0 **** 0.053
14650 H14650 11.3007 59.3533 3.45898 H 0.0 **** 0.053
14651 H14651 11.7374 61.2856 4.9509 H 0.0 **** 0.053
14652 H14652 10.9879 60.4291 6.31532 H 0.0 **** 0.053
14653 H14653 9.57277 61.2208 3.70363 H 0.0 **** 0.053
14654 H14654 9.28111 61.9852 5.27066 H 0.0 **** 0.053
14655 C14655 53.8043 25.0722 51.7988 C.3 0.0 **** 0.054
14656 C14656 53.544 26.4174 51.0811 C.3 0.0 **** -0.106
14657 C14657 53.9844 26.3408 49.6046 C.3 0.0 **** -0.053
14658 C14658 55.3119 25.5704 49.5177 C.3 0.0 **** -0.053
14659 C14659 55.1078 24.1353 50.0689 C.3 0.0 **** 0.054
14660 O14660 53.9223 23.9965 50.8614 O.3 0.0 **** -0.32
14661 C14661 56.4407 26.3208 50.2557 C.3 0.0 **** -0.053
14662 C14662 56.339 27.8633 50.0823 C.3 0.0 **** 0.107
14663 C14663 55.56 28.2204 48.8278 C.3 0.0 **** -0.106
14664 C14664 54.1026 27.7374 48.9425 C.3 0.0 **** -0.106
14665 O14665 57.634 28.4747 49.975 O.3 0.0 **** -0.32
14666 C14666 58.5755 27.9674 50.9357 C.3 0.0 **** 0.107
14667 C14667 58.9846 26.5492 50.4994 C.3 0.0 **** -0.053
14668 C14668 57.8056 25.8542 49.7569 C.3 0.0 **** -0.106
14669 C14669 59.5862 25.7227 51.5873 C.2 0.0 **** 0.0
14670 C14670 59.6131 26.1156 52.916 C.2 0.0 **** 0.0
14671 C14671 58.9277 27.302 53.3631 C.2 0.0 **** 0.0
14672 C14672 58.0749 28.0778 52.3846 C.3 0.0 **** -0.053
14673 C14673 58.8895 27.6575 54.7001 C.2 0.0 **** 0.0
14674 C14674 59.5938 26.8629 55.6786 C.2 0.0 **** 0.0
14675 C14675 60.303 25.7163 55.2081 C.2 0.0 **** 0.232
14676 C14676 60.3201 25.3189 53.8999 C.2 0.0 **** 0.0
14677 C14677 61.0499 24.0667 53.4848 C.3 0.0 **** -0.106
14678 C14678 61.4668 24.1187 52.0146 C.3 0.0 **** -0.106
14679 C14679 60.2511 24.4494 51.1456 C.3 0.0 **** -0.106
14680 O14680 60.9899 24.9225 56.1066 O.3 0.0 **** -0.464
14681 C14681 61.1 25.2923 57.4251 C.2 0.0 **** 0.232
14682 C14682 60.384 26.3819 57.9532 C.2 0.0 **** 0.0
14683 C14683 59.5787 27.1643 57.0458 C.2 0.0 **** 0.0
14684 C14684 57.8462 29.5021 52.8325 C.2 0.0 **** 0.0
14685 C14685 57.532 29.6844 54.2472 C.2 0.0 **** 0.0
14686 C14686 58.1207 28.8145 55.1671 C.2 0.0 **** 0.0
14687 C14687 56.7711 30.88 54.6049 C.2 0.0 **** 0.0
14688 C14688 56.8765 31.9885 53.8154 C.2 0.0 **** 0.0
14689 C14689 57.6325 31.9617 52.5274 C.3 0.0 **** -0.106
14690 C14690 57.909 30.5805 52.0199 C.2 0.0 **** -0.1268
14691 C14691 56.186 33.2598 54.2235 C.3 0.0 **** -0.106
14692 C14692 56.1087 33.3556 55.75 C.3 0.0 **** -0.106
14693 C14693 55.4975 32.0926 56.3053 C.2 0.0 **** 0.0
14694 C14694 55.8089 30.9067 55.7302 C.2 0.0 **** 0.0
14695 C14695 55.0859 29.6292 56.0898 C.3 0.0 **** -0.106
14696 C14696 53.8865 29.8428 57.0202 C.3 0.0 **** -0.053
14697 C14697 54.2628 30.8536 58.1093 C.3 0.0 **** -0.106
14698 C14698 54.5615 32.2107 57.4724 C.3 0.0 **** -0.106
14699 C14699 58.8021 28.2934 57.469 C.2 0.0 **** -0.012
14700 C14700 58.1303 29.0837 56.5691 C.2 0.0 **** -0.1268
14701 C14701 60.5683 26.6571 59.3322 C.2 0.0 **** 0.0
14702 C14702 59.8518 27.7317 59.9712 C.2 0.0 **** -0.012
14703 S14703 58.6155 28.6839 59.1645 S.2 0.0 **** 0.024
14704 C14704 60.0576 28.0299 61.294 C.2 0.0 **** -0.1268
14705 C14705 60.9838 27.2952 62.0801 C.2 0.0 **** 0.0
14706 C14706 61.6928 26.2008 61.4961 C.2 0.0 **** 0.0
14707 C14707 61.4776 25.8747 60.1287 C.2 0.0 **** 0.0
14708 C14708 62.5934 25.4524 62.2988 C.2 0.0 **** 0.0
14709 C14709 62.8114 25.8199 63.6621 C.2 0.0 **** 0.0
14710 C14710 62.1367 26.9716 64.2074 C.2 0.0 **** 0.0
14711 C14711 61.2031 27.6489 63.4078 C.2 0.0 **** -0.1268
14712 C14712 62.4509 27.3851 65.536 C.2 0.0 **** 0.0
14713 C14713 63.2634 26.5878 66.3198 C.2 0.0 **** 0.042
14714 C14714 63.8617 25.3756 65.8627 C.2 0.0 **** 0.0
14715 C14715 63.6729 25.0425 64.4921 C.2 0.0 **** 0.0
14716 C14716 62.1782 24.7657 59.5451 C.2 0.0 **** 0.0
14717 C14717 61.9544 24.5144 58.1755 C.2 0.0 **** -0.1268
14718 C14718 63.2758 24.327 61.7296 C.2 0.0 **** 0.0
14719 C14719 63.0753 23.9747 60.3613 C.2 0.0 **** 0.0
14720 C14720 64.3365 23.9013 63.9306 C.2 0.0 **** 0.0
14721 C14721 64.1482 23.5661 62.5644 C.2 0.0 **** 0.0
14722 C14722 64.6507 24.5144 66.7085 C.2 0.0 **** 0.0
14723 C14723 65.3424 23.4141 66.1195 C.2 0.0 **** 0.0
14724 C14724 65.1938 23.1126 64.7423 C.2 0.0 **** 0.0
14725 O14725 63.5639 27.065 67.5774 O.3 0.0 **** -0.202
14726 C14726 62.4261 27.4467 68.4013 C.3 0.0 **** 0.107
14727 C14727 61.3792 28.2505 67.5903 C.3 0.0 **** -0.053
14728 C14728 62.0343 28.6596 66.2633 C.3 0.0 **** 0.107
14729 C14729 60.8246 29.426 68.4041 C.3 0.0 **** -0.106
14730 C14730 60.5816 28.963 69.8444 C.3 0.0 **** -0.106
14731 C14731 61.9182 28.7447 70.5599 C.3 0.0 **** 0.134
14732 C14732 63.0201 28.2002 69.5901 C.3 0.0 **** -0.053
14733 C14733 64.0045 27.3073 70.3637 C.3 0.0 **** -0.106
14734 C14734 64.2764 27.8566 71.7632 C.3 0.0 **** -0.106
14735 C14735 62.9568 27.8908 72.5842 C.3 0.0 **** 0.081
14736 N14736 61.7398 27.9247 71.7589 N.3 0.0 **** -0.727
14737 C14737 63.7927 22.8293 59.865 C.2 0.0 **** 0.042
14738 C14738 64.6778 22.1237 60.6656 C.2 0.0 **** 0.042
14739 C14739 64.8598 22.4469 62.0352 C.2 0.0 **** 0.0
14740 O14740 65.4159 21.0584 60.2037 O.3 0.0 **** -0.202
14741 C14741 65.4621 20.9301 58.766 C.3 0.0 **** 0.107
14742 C14742 64.0421 21.0946 58.2508 C.3 0.0 **** 0.107
14743 O14743 63.5936 22.4279 58.563 O.3 0.0 **** -0.202
14744 C14744 63.0798 20.0319 58.8213 C.3 0.0 **** -0.106
14745 C14745 63.796 18.7156 59.1932 C.3 0.0 **** -0.106
14746 C14746 64.9855 18.4653 58.2594 C.3 0.0 **** -0.106
14747 C14747 66.0574 19.5618 58.4274 C.3 0.0 **** -0.106
14748 C14748 65.8964 21.9904 64.191 C.2 0.0 **** 0.0
14749 C14749 65.7203 21.687 62.841 C.2 0.0 **** -0.1268
14750 C14750 66.1793 22.6043 66.9373 C.2 0.0 **** 0.0
14751 C14751 66.8907 21.5138 66.3478 C.2 0.0 **** 0.042
14752 C14752 66.7565 21.2064 65.0222 C.2 0.0 **** -0.1268
14753 C14753 66.3046 22.8487 68.3132 C.2 0.0 **** 0.0
14754 C14754 65.5578 23.8784 68.9004 C.2 0.0 **** 0.0
14755 C14755 64.7596 24.6779 68.1031 C.2 0.0 **** -0.1268
14756 O14756 67.7327 20.7283 67.1203 O.3 0.0 **** -0.0685
14757 C14757 67.9198 21.0022 68.4558 C.2 0.0 **** 0.0265
14758 C14758 67.2053 22.0325 69.0907 C.2 0.0 **** 0.0
14759 C14759 65.5659 24.1149 70.3874 C.3 0.0 **** -0.053
14760 C14760 66.7649 23.4739 71.1238 C.3 0.0 **** -0.053
14761 C14761 67.4063 22.2904 70.4494 C.2 0.0 **** 0.0
14762 C14762 66.3996 23.0748 72.5661 C.3 0.0 **** -0.053
14763 C14763 65.5245 24.1526 73.1953 C.3 0.0 **** -0.106
14764 C14764 64.1509 24.187 72.4798 C.3 0.0 **** -0.106
14765 C14765 64.2376 23.6751 71.0295 C.3 0.0 **** -0.106
14766 C14766 68.3147 21.5194 71.1905 C.2 0.0 **** 0.0
14767 C14767 69.0859 20.5193 70.5333 C.2 0.0 **** 0.0
14768 C14768 68.8786 20.2371 69.1465 C.2 0.0 **** 0.0
14769 C14769 67.6505 22.6605 73.2914 C.2 0.0 **** 0.0
14770 C14770 68.5252 21.7869 72.5874 C.2 0.0 **** 0.0
14771 C14771 53.3643 28.4997 57.5721 C.3 0.0 **** -0.053
14772 C14772 54.2907 27.8968 58.6361 C.3 0.0 **** -0.159
14773 C14773 51.943 28.6452 58.1256 C.3 0.0 **** -0.159
14774 O14774 61.1526 29.563 65.5944 O.3 0.0 **** -0.57
14775 C14775 69.6645 19.2169 68.5175 C.2 0.0 **** -0.1268
14776 C14776 70.6247 18.5423 69.219 C.2 0.0 **** -0.1268
14777 C14777 70.8902 18.8306 70.5987 C.2 0.0 **** 0.0
14778 C14778 70.1015 19.8309 71.2537 C.2 0.0 **** 0.0
14779 C14779 70.3589 20.1537 72.6124 C.2 0.0 **** 0.0
14780 C14780 71.3898 19.4898 73.318 C.2 0.0 **** 0.0
14781 C14781 72.1699 18.4867 72.6569 C.2 0.0 **** 0.0
14782 C14782 71.9009 18.1795 71.3135 C.2 0.0 **** -0.1268
14783 C14783 73.2073 17.8271 73.3859 C.2 0.0 **** -0.1268
14784 C14784 73.4587 18.1444 74.6945 C.2 0.0 **** -0.1268
14785 C14785 72.6916 19.1392 75.3745 C.2 0.0 **** 0.0
14786 C14786 71.6494 19.8121 74.683 C.2 0.0 **** 0.0
14787 C14787 70.8671 20.7986 75.3562 C.2 0.0 **** 0.0
14788 C14788 69.8232 21.4572 74.6467 C.2 0.0 **** 0.0
14789 C14789 69.5701 21.1422 73.2811 C.2 0.0 **** 0.0
14790 C14790 71.1147 21.1094 76.7263 C.2 0.0 **** 0.0
14791 C14791 72.1813 20.4306 77.3784 C.2 0.0 **** -0.1268
14792 C14792 72.9394 19.4834 76.7222 C.2 0.0 **** -0.1268
14793 C14793 67.9273 22.9956 74.5979 C.2 0.0 **** -0.1268
14794 C14794 69.0332 22.4448 75.2969 C.2 0.0 **** 0.0
14795 C14795 70.3078 22.123 77.3743 C.2 0.0 **** 0.052
14796 C14796 69.3336 22.817 76.644 C.2 0.0 **** 0.0
14797 C14797 68.5715 23.978 77.2432 C.3 0.0 **** -0.106
14798 C14798 69.3396 24.6432 78.3787 C.3 0.0 **** -0.106
14799 C14799 69.6736 23.5848 79.4167 C.3 0.0 **** -0.086
14800 C14800 70.4182 22.3863 78.8415 C.2 0.0 **** 0.347
14801 O14801 71.0268 21.6562 79.6252 O.2 0.0 **** -0.419
14802 H14802 52.9747 24.8016 52.4662 H 0.0 **** 0.053
14803 H14803 54.7281 25.1286 52.4087 H 0.0 **** 0.053
14804 H14804 52.4763 26.6819 51.1221 H 0.0 **** 0.053
14805 H14805 54.0941 27.2207 51.5964 H 0.0 **** 0.053
14806 H14806 53.2232 25.753 49.0713 H 0.0 **** 0.053
14807 H14807 55.6026 25.4922 48.4567 H 0.0 **** 0.053
14808 H14808 55.9892 23.8405 50.6759 H 0.0 **** 0.053
14809 H14809 54.9913 23.4076 49.2535 H 0.0 **** 0.053
14810 H14810 56.3621 26.0744 51.3266 H 0.0 **** 0.053
14811 H14811 55.8185 28.3037 50.9546 H 0.0 **** 0.053
14812 H14812 56.0571 27.7486 47.965 H 0.0 **** 0.053
14813 H14813 55.5991 29.3074 48.6672 H 0.0 **** 0.053
14814 H14814 53.653 27.718 47.9385 H 0.0 **** 0.053
14815 H14815 53.5201 28.4643 49.5322 H 0.0 **** 0.053
14816 H14816 59.4475 28.632 50.8481 H 0.0 **** 0.053
14817 H14817 59.7765 26.67 49.7355 H 0.0 **** 0.053
14818 H14818 57.8896 24.7612 49.8488 H 0.0 **** 0.053
14819 H14819 57.8697 26.0922 48.6834 H 0.0 **** 0.053
14820 H14820 57.0849 27.5822 52.4481 H 0.0 **** 0.053
14821 H14821 61.9204 23.907 54.1372 H 0.0 **** 0.053
14822 H14822 60.3875 23.1941 53.6401 H 0.0 **** 0.053
14823 H14823 61.9149 23.1607 51.7096 H 0.0 **** 0.053
14824 H14824 62.2298 24.9023 51.8788 H 0.0 **** 0.053
14825 H14825 59.5333 23.6064 51.1992 H 0.0 **** 0.053
14826 H14826 60.5353 24.5339 50.083 H 0.0 **** 0.053
14827 H14827 58.5901 32.5162 52.6417 H 0.0 **** 0.053
14828 H14828 57.0787 32.5505 51.7702 H 0.0 **** 0.053
14829 H14829 58.1617 30.4712 50.9665 H 0.0 **** 0.1268
14830 H14830 56.7144 34.127 53.7962 H 0.0 **** 0.053
14831 H14831 55.1617 33.2719 53.7986 H 0.0 **** 0.053
14832 H14832 55.5188 34.2314 56.0626 H 0.0 **** 0.053
14833 H14833 57.1291 33.4915 56.1574 H 0.0 **** 0.053
14834 H14834 54.7486 29.1495 55.1536 H 0.0 **** 0.053
14835 H14835 55.7775 28.904 56.5449 H 0.0 **** 0.053
14836 H14836 53.0712 30.2943 56.4245 H 0.0 **** 0.053
14837 H14837 55.1623 30.496 58.6366 H 0.0 **** 0.053
14838 H14838 53.4599 30.9473 58.8565 H 0.0 **** 0.053
14839 H14839 55.0012 32.9036 58.2128 H 0.0 **** 0.053
14840 H14840 53.6191 32.6922 57.1457 H 0.0 **** 0.053
14841 H14841 57.614 29.9732 56.9295 H 0.0 **** 0.1268
14842 H14842 59.5146 28.8517 61.7662 H 0.0 **** 0.1268
14843 H14843 60.6077 28.4509 63.833 H 0.0 **** 0.1268
14844 H14844 62.4569 23.7034 57.6691 H 0.0 **** 0.1268
14845 H14845 61.9676 26.5094 68.7684 H 0.0 **** 0.053
14846 H14846 60.5405 27.581 67.3409 H 0.0 **** 0.053
14847 H14847 62.9683 29.2008 66.5207 H 0.0 **** 0.053
14848 H14848 61.5438 30.2629 68.394 H 0.0 **** 0.053
14849 H14849 59.9054 29.7952 67.932 H 0.0 **** 0.053
14850 H14850 60.0201 28.0114 69.829 H 0.0 **** 0.053
14851 H14851 59.9735 29.676 70.4178 H 0.0 **** 0.053
14852 H14852 62.2717 29.7265 70.9185 H 0.0 **** 0.053
14853 H14853 63.572 29.0619 69.1778 H 0.0 **** 0.053
14854 H14854 63.5644 26.2998 70.46 H 0.0 **** 0.053
14855 H14855 64.9336 27.1857 69.7905 H 0.0 **** 0.053
14856 H14856 64.6966 28.8714 71.6755 H 0.0 **** 0.053
14857 H14857 65.0309 27.2431 72.281 H 0.0 **** 0.053
14858 H14858 62.9525 28.7762 73.2423 H 0.0 **** 0.053
14859 H14859 62.8881 27.0083 73.2376 H 0.0 **** 0.053
14860 H14860 61.4804 26.9772 71.4816 H 0.0 **** 0.353
14861 H14861 66.086 21.7502 58.3733 H 0.0 **** 0.053
14862 H14862 64.0543 21.0659 57.1519 H 0.0 **** 0.053
14863 H14863 62.5882 20.458 59.7078 H 0.0 **** 0.053
14864 H14864 62.2943 19.8468 58.074 H 0.0 **** 0.053
14865 H14865 63.0826 17.8797 59.1465 H 0.0 **** 0.053
14866 H14866 64.1617 18.777 60.2289 H 0.0 **** 0.053
14867 H14867 64.6248 18.4535 57.2166 H 0.0 **** 0.053
14868 H14868 65.4339 17.4785 58.4468 H 0.0 **** 0.053
14869 H14869 66.6592 19.6527 57.5109 H 0.0 **** 0.053
14870 H14870 66.7511 19.3034 59.2421 H 0.0 **** 0.053
14871 H14871 66.2539 20.8437 62.4053 H 0.0 **** 0.1268
14872 H14872 67.2994 20.3623 64.5955 H 0.0 **** 0.1268
14873 H14873 64.207 25.4735 68.5774 H 0.0 **** 0.1268
14874 H14874 65.6307 25.202 70.5469 H 0.0 **** 0.053
14875 H14875 67.5573 24.2446 71.2039 H 0.0 **** 0.053
14876 H14876 65.7903 22.1512 72.4954 H 0.0 **** 0.053
14877 H14877 66.0391 25.1236 73.097 H 0.0 **** 0.053
14878 H14878 65.3808 23.974 74.2704 H 0.0 **** 0.053
14879 H14879 63.7701 25.2181 72.4776 H 0.0 **** 0.053
14880 H14880 63.4237 23.5791 73.0399 H 0.0 **** 0.053
14881 H14881 63.3968 24.0575 70.4313 H 0.0 **** 0.053
14882 H14882 64.1703 22.5762 70.992 H 0.0 **** 0.053
14883 H14883 53.3253 27.8004 56.7169 H 0.0 **** 0.053
14884 H14884 53.9598 26.8824 58.905 H 0.0 **** 0.053
14885 H14885 54.2726 28.5063 59.5529 H 0.0 **** 0.053
14886 H14886 55.3361 27.8339 58.2978 H 0.0 **** 0.053
14887 H14887 51.2582 29.0443 57.3608 H 0.0 **** 0.053
14888 H14888 51.9278 29.3329 58.9861 H 0.0 **** 0.053
14889 H14889 51.5504 27.676 58.4688 H 0.0 **** 0.053
14890 H14890 61.6375 29.9359 64.8421 H 0.0 **** 0.41
14891 H14891 69.4877 18.9957 67.4651 H 0.0 **** 0.1268
14892 H14892 71.2217 17.7701 68.7306 H 0.0 **** 0.1268
14893 H14893 72.5027 17.418 70.8126 H 0.0 **** 0.1268
14894 H14894 73.7971 17.065 72.8733 H 0.0 **** 0.1268
14895 H14895 74.2573 17.6422 75.244 H 0.0 **** 0.1268
14896 H14896 72.3843 20.6645 78.418 H 0.0 **** 0.1268
14897 H14897 73.754 18.9832 77.2502 H 0.0 **** 0.1268
14898 H14898 67.2505 23.6689 75.117 H 0.0 **** 0.1268
14899 H14899 68.3606 24.7151 76.4556 H 0.0 **** 0.053
14900 H14900 67.5897 23.6291 77.6155 H 0.0 **** 0.053
14901 H14901 68.7496 25.4616 78.8184 H 0.0 **** 0.053
14902 H14902 70.2679 25.0817 77.9773 H 0.0 **** 0.053
14903 H14903 68.7394 23.1878 79.8553 H 0.0 **** 0.053
14904 H14904 70.2757 23.9662 80.2536 H 0.0 **** 0.053
14905 C14905 54.2387 5.17856 28.2432 C.3 0.0 **** 0.054
14906 C14906 53.0554 4.8859 27.2912 C.3 0.0 **** -0.106
14907 C14907 52.3134 3.60413 27.723 C.3 0.0 **** -0.053
14908 C14908 53.3459 2.54819 28.1503 C.3 0.0 **** -0.053
14909 C14909 54.1703 3.09289 29.3455 C.3 0.0 **** 0.054
14910 O14910 54.072 4.51387 29.5003 O.3 0.0 **** -0.32
14911 C14911 54.2441 2.13606 26.9649 C.3 0.0 **** -0.053
14912 C14912 53.46 2.06538 25.6234 C.3 0.0 **** 0.107
14913 C14913 51.9763 1.85129 25.8702 C.3 0.0 **** -0.106
14914 C14914 51.375 3.05523 26.618 C.3 0.0 **** -0.106
14915 O14915 53.9194 0.987691 24.7929 O.3 0.0 **** -0.32
14916 C14916 55.3529 0.892619 24.7388 C.3 0.0 **** 0.107
14917 C14917 55.8448 0.333802 26.0859 C.3 0.0 **** -0.053
14918 C14918 54.8917 0.780281 27.2333 C.3 0.0 **** -0.106
14919 C14919 57.2891 0.588864 26.3648 C.2 0.0 **** 0.0
14920 C14920 58.083 1.40953 25.5795 C.2 0.0 **** 0.0
14921 C14921 57.5241 2.19312 24.5067 C.2 0.0 **** 0.0
14922 C14922 56.0263 2.20214 24.2986 C.3 0.0 **** -0.053
14923 C14923 58.2995 3.06999 23.7684 C.2 0.0 **** 0.0
14924 C14924 59.7159 3.1754 24.0283 C.2 0.0 **** 0.0
14925 C14925 60.2572 2.35766 25.0663 C.2 0.0 **** 0.232
14926 C14926 59.5056 1.51642 25.839 C.2 0.0 **** 0.0
14927 C14927 60.1391 0.720935 26.952 C.3 0.0 **** -0.106
14928 C14928 59.3374 -0.541966 27.2689 C.3 0.0 **** -0.106
14929 C14929 57.8734 -0.173374 27.5206 C.3 0.0 **** -0.106
14930 O14930 61.6068 2.42518 25.3547 O.3 0.0 **** -0.464
14931 C14931 62.4523 3.17604 24.5746 C.2 0.0 **** 0.232
14932 C14932 61.9696 4.03726 23.5725 C.2 0.0 **** 0.0
14933 C14933 60.5475 4.05522 23.3249 C.2 0.0 **** 0.0
14934 C14934 55.6478 2.62975 22.9003 C.2 0.0 **** 0.0
14935 C14935 56.3805 3.77249 22.3612 C.2 0.0 **** 0.0
14936 C14936 57.7162 3.93104 22.7358 C.2 0.0 **** 0.0
14937 C14937 55.7103 4.55651 21.3255 C.2 0.0 **** 0.0
14938 C14938 54.7873 3.94296 20.5288 C.2 0.0 **** 0.0
14939 C14939 54.3466 2.53838 20.782 C.3 0.0 **** -0.106
14940 C14940 54.6949 2.03481 22.1483 C.2 0.0 **** -0.1268
14941 C14941 54.1649 4.70334 19.3913 C.3 0.0 **** -0.106
14942 C14942 55.1511 5.73795 18.8415 C.3 0.0 **** -0.106
14943 C14943 55.6682 6.59354 19.9719 C.2 0.0 **** 0.0
14944 C14944 55.914 6.01519 21.1715 C.2 0.0 **** 0.0
14945 C14945 56.2328 6.83164 22.4026 C.3 0.0 **** -0.106
14946 C14946 56.0853 8.34296 22.193 C.3 0.0 **** -0.053
14947 C14947 56.6788 8.72689 20.833 C.3 0.0 **** -0.106
14948 C14948 55.8812 8.0566 19.7145 C.3 0.0 **** -0.106
14949 C14949 59.9397 4.89488 22.3336 C.2 0.0 **** -0.012
14950 C14950 58.5994 4.81493 22.0453 C.2 0.0 **** -0.1268
14951 C14951 62.9387 4.77225 22.843 C.2 0.0 **** 0.0
14952 C14952 62.5393 5.70528 21.8202 C.2 0.0 **** -0.012
14953 S14953 60.8641 6.11441 21.485 S.2 0.0 **** 0.024
14954 C14954 63.4728 6.38714 21.0822 C.2 0.0 **** -0.1268
14955 C14955 64.8636 6.19756 21.2958 C.2 0.0 **** 0.0
14956 C14956 65.3047 5.30604 22.3214 C.2 0.0 **** 0.0
14957 C14957 64.3451 4.60347 23.1012 C.2 0.0 **** 0.0
14958 C14958 66.697 5.14704 22.5484 C.2 0.0 **** 0.0
14959 C14959 67.6393 5.8438 21.7311 C.2 0.0 **** 0.0
14960 C14960 67.1691 6.68283 20.657 C.2 0.0 **** 0.0
14961 C14961 65.7869 6.87094 20.5021 C.2 0.0 **** -0.1268
14962 C14962 68.1265 7.28241 19.7858 C.2 0.0 **** 0.0
14963 C14963 69.4721 7.1802 20.0843 C.2 0.0 **** 0.042
14964 C14964 69.9821 6.45779 21.2043 C.2 0.0 **** 0.0
14965 C14965 69.0387 5.73306 21.9854 C.2 0.0 **** 0.0
14966 C14966 64.7873 3.71894 24.1422 C.2 0.0 **** 0.0
14967 C14967 63.7919 3.01972 24.8558 C.2 0.0 **** -0.1268
14968 C14968 67.1448 4.28612 23.6042 C.2 0.0 **** 0.0
14969 C14969 66.2036 3.57232 24.405 C.2 0.0 **** 0.0
14970 C14970 69.4868 4.89191 23.0576 C.2 0.0 **** 0.0
14971 C14971 68.5478 4.16965 23.8391 C.2 0.0 **** 0.0
14972 C14972 71.3821 6.41481 21.5474 C.2 0.0 **** 0.0
14973 C14973 71.8116 5.53345 22.5841 C.2 0.0 **** 0.0
14974 C14974 70.8754 4.77289 23.3289 C.2 0.0 **** 0.0
14975 O14975 70.3466 7.74328 19.1801 O.3 0.0 **** -0.202
14976 C14976 70.0957 9.13502 18.8348 C.3 0.0 **** 0.107
14977 C14977 68.5885 9.39965 18.5936 C.3 0.0 **** -0.053
14978 C14978 67.89 8.03688 18.4813 C.3 0.0 **** 0.107
14979 C14979 68.369 10.3179 17.3851 C.3 0.0 **** -0.106
14980 C14980 69.414 11.4381 17.4153 C.3 0.0 **** -0.106
14981 C14981 70.7987 10.8757 17.0803 C.3 0.0 **** 0.134
14982 C14982 70.9895 9.422 17.6295 C.3 0.0 **** -0.053
14983 C14983 72.4679 9.18362 17.9791 C.3 0.0 **** -0.106
14984 C14984 73.3967 9.8577 16.9706 C.3 0.0 **** -0.106
14985 C14985 73.1708 11.3957 16.9884 C.3 0.0 **** 0.081
14986 N14986 71.8525 11.8005 17.4999 N.3 0.0 **** -0.727
14987 C14987 66.7312 2.73177 25.448 C.2 0.0 **** 0.042
14988 C14988 68.0961 2.58228 25.6399 C.2 0.0 **** 0.042
14989 C14989 69.0385 3.31183 24.8698 C.2 0.0 **** 0.0
14990 O14990 68.6289 1.74589 26.5936 O.3 0.0 **** -0.202
14991 C14991 67.699 0.792831 27.1526 C.3 0.0 **** 0.107
14992 C14992 66.4258 1.54888 27.4936 C.3 0.0 **** 0.107
14993 O14993 65.8565 2.06059 26.2728 O.3 0.0 **** -0.202
14994 C14994 66.6658 2.67881 28.5165 C.3 0.0 **** -0.106
14995 C14995 67.8678 2.39937 29.4445 C.3 0.0 **** -0.106
14996 C14996 68.0213 0.894372 29.6912 C.3 0.0 **** -0.106
14997 C14997 68.3511 0.152412 28.3797 C.3 0.0 **** -0.106
14998 C14998 71.3465 3.90787 24.3713 C.2 0.0 **** 0.0
14999 C14999 70.4137 3.18593 25.1157 C.2 0.0 **** -0.1268
15000 C15000 73.2006 5.43457 22.8777 C.2 0.0 **** 0.0
15001 C15001 73.6378 4.53754 23.9009 C.2 0.0 **** 0.042
15002 C15002 72.7486 3.79908 24.6315 C.2 0.0 **** -0.1268
15003 C15003 74.1442 6.21359 22.1914 C.2 0.0 **** 0.0
15004 C15004 73.7081 7.13776 21.233 C.2 0.0 **** 0.0
15005 C15005 72.3606 7.22039 20.9336 C.2 0.0 **** -0.1268
15006 O15006 74.9885 4.40508 24.1852 O.3 0.0 **** -0.0685
15007 C15007 75.9293 5.11006 23.47 C.2 0.0 **** 0.0265
15008 C15008 75.5455 6.04001 22.4886 C.2 0.0 **** 0.0
15009 C15009 74.6627 8.07812 20.5464 C.3 0.0 **** -0.053
15010 C15010 76.1449 7.64498 20.6258 C.3 0.0 **** -0.053
15011 C15011 76.5171 6.74956 21.7776 C.2 0.0 **** 0.0
15012 C15012 77.0933 8.85876 20.6251 C.3 0.0 **** -0.053
15013 C15013 76.5911 9.90727 19.6392 C.3 0.0 **** -0.106
15014 C15014 75.2561 10.5026 20.1522 C.3 0.0 **** -0.106
15015 C15015 74.4912 9.51968 21.0587 C.3 0.0 **** -0.106
15016 C15016 77.8797 6.54573 22.0429 C.2 0.0 **** 0.0
15017 C15017 78.27 5.55726 22.9903 C.2 0.0 **** 0.0
15018 C15018 77.2844 4.83514 23.734 C.2 0.0 **** 0.0
15019 C15019 78.5102 8.37324 20.4873 C.2 0.0 **** 0.0
15020 C15020 78.8801 7.27221 21.3089 C.2 0.0 **** 0.0
15021 C15021 56.6845 9.13002 23.3774 C.3 0.0 **** -0.053
15022 C15022 58.2186 9.1151 23.3823 C.3 0.0 **** -0.159
15023 C15023 56.167 10.5719 23.4006 C.3 0.0 **** -0.159
15024 O15024 66.5423 8.26338 18.0653 O.3 0.0 **** -0.57
15025 C15025 77.711 3.85385 24.6875 C.2 0.0 **** -0.1268
15026 C15026 79.0393 3.58255 24.8645 C.2 0.0 **** -0.1268
15027 C15027 80.0522 4.25531 24.1039 C.2 0.0 **** 0.0
15028 C15028 79.6499 5.25578 23.1611 C.2 0.0 **** 0.0
15029 C15029 80.6299 5.92052 22.3772 C.2 0.0 **** 0.0
15030 C15030 81.999 5.59724 22.5266 C.2 0.0 **** 0.0
15031 C15031 82.393 4.59954 23.4759 C.2 0.0 **** 0.0
15032 C15032 81.4107 3.95314 24.2433 C.2 0.0 **** -0.1268
15033 C15033 83.7808 4.28612 23.6124 C.2 0.0 **** -0.1268
15034 C15034 84.7241 4.92347 22.8508 C.2 0.0 **** -0.1268
15035 C15035 84.3544 5.92349 21.9002 C.2 0.0 **** 0.0
15036 C15036 82.9849 6.26426 21.7408 C.2 0.0 **** 0.0
15037 C15037 82.6046 7.27187 20.8034 C.2 0.0 **** 0.0
15038 C15038 81.227 7.60272 20.6632 C.2 0.0 **** 0.0
15039 C15039 80.2417 6.9301 21.4411 C.2 0.0 **** 0.0
15040 C15040 83.5913 7.95166 20.0293 C.2 0.0 **** 0.0
15041 C15041 84.9501 7.56713 20.2009 C.2 0.0 **** -0.1268
15042 C15042 85.3125 6.58805 21.1023 C.2 0.0 **** -0.1268
15043 C15043 79.4603 8.9893 19.704 C.2 0.0 **** -0.1268
15044 C15044 80.8256 8.60148 19.7339 C.2 0.0 **** 0.0
15045 C15045 83.1681 8.96136 19.0808 C.2 0.0 **** 0.052
15046 C15046 81.8037 9.22454 18.8982 C.2 0.0 **** 0.0
15047 C15047 81.3155 10.1649 17.8189 C.3 0.0 **** -0.106
15048 C15048 82.3104 10.2863 16.6711 C.3 0.0 **** -0.106
15049 C15049 83.6503 10.7205 17.2414 C.3 0.0 **** -0.086
15050 C15050 84.1595 9.80983 18.3518 C.2 0.0 **** 0.347
15051 O15051 85.3571 9.86236 18.6359 O.2 0.0 **** -0.419
15052 H15052 54.3167 6.24937 28.4758 H 0.0 **** 0.053
15053 H15053 55.1957 4.85863 27.7846 H 0.0 **** 0.053
15054 H15054 52.3433 5.72531 27.2834 H 0.0 **** 0.053
15055 H15055 53.4315 4.77402 26.2619 H 0.0 **** 0.053
15056 H15056 51.7145 3.86121 28.6088 H 0.0 **** 0.053
15057 H15057 52.8063 1.64751 28.4879 H 0.0 **** 0.053
15058 H15058 55.2371 2.81226 29.2209 H 0.0 **** 0.053
15059 H15059 53.8132 2.67792 30.2985 H 0.0 **** 0.053
15060 H15060 55.044 2.88827 26.8737 H 0.0 **** 0.053
15061 H15061 53.5887 3.01292 25.0653 H 0.0 **** 0.053
15062 H15062 51.8526 0.928572 26.4598 H 0.0 **** 0.053
15063 H15063 51.4629 1.69188 24.9111 H 0.0 **** 0.053
15064 H15064 50.4104 2.75782 27.056 H 0.0 **** 0.053
15065 H15065 51.1567 3.86232 25.8994 H 0.0 **** 0.053
15066 H15066 55.5528 0.150916 23.9515 H 0.0 **** 0.053
15067 H15067 55.7352 -0.766227 26.0303 H 0.0 **** 0.053
15068 H15068 55.4329 0.80127 28.1909 H 0.0 **** 0.053
15069 H15069 54.0848 0.037778 27.3365 H 0.0 **** 0.053
15070 H15070 55.6731 3.01482 24.9653 H 0.0 **** 0.053
15071 H15071 61.1785 0.474472 26.6914 H 0.0 **** 0.053
15072 H15072 60.193 1.35016 27.8606 H 0.0 **** 0.053
15073 H15073 59.7651 -1.05782 28.1422 H 0.0 **** 0.053
15074 H15074 59.3921 -1.23373 26.4128 H 0.0 **** 0.053
15075 H15075 57.8113 0.432585 28.4468 H 0.0 **** 0.053
15076 H15076 57.2655 -1.0741 27.7105 H 0.0 **** 0.053
15077 H15077 54.782 1.86296 20.0128 H 0.0 **** 0.053
15078 H15078 53.2554 2.46422 20.607 H 0.0 **** 0.053
15079 H15079 54.1503 1.16891 22.521 H 0.0 **** 0.1268
15080 H15080 53.8425 4.00292 18.6043 H 0.0 **** 0.053
15081 H15081 53.2507 5.2172 19.7521 H 0.0 **** 0.053
15082 H15082 54.6762 6.36958 18.0747 H 0.0 **** 0.053
15083 H15083 55.9929 5.21224 18.3509 H 0.0 **** 0.053
15084 H15084 55.5625 6.50272 23.2168 H 0.0 **** 0.053
15085 H15085 57.2477 6.60987 22.7661 H 0.0 **** 0.053
15086 H15086 55.0048 8.57626 22.1545 H 0.0 **** 0.053
15087 H15087 57.7251 8.38287 20.787 H 0.0 **** 0.053
15088 H15088 56.6865 9.81948 20.699 H 0.0 **** 0.053
15089 H15089 56.3923 8.17642 18.7418 H 0.0 **** 0.053
15090 H15090 54.9017 8.55904 19.5934 H 0.0 **** 0.053
15091 H15091 58.1966 5.42036 21.2337 H 0.0 **** 0.1268
15092 H15092 63.1588 7.08635 20.3039 H 0.0 **** 0.1268
15093 H15093 65.4164 7.58069 19.7691 H 0.0 **** 0.1268
15094 H15094 64.0535 2.32949 25.6443 H 0.0 **** 0.1268
15095 H15095 70.445 9.74498 19.6889 H 0.0 **** 0.053
15096 H15096 68.1742 9.90001 19.4833 H 0.0 **** 0.053
15097 H15097 68.417 7.47167 17.6849 H 0.0 **** 0.053
15098 H15098 68.4647 9.73884 16.4506 H 0.0 **** 0.053
15099 H15099 67.3451 10.7121 17.4076 H 0.0 **** 0.053
15100 H15100 69.4392 11.8825 18.4268 H 0.0 **** 0.053
15101 H15101 69.1745 12.2547 16.7205 H 0.0 **** 0.053
15102 H15102 70.8779 10.81 15.9817 H 0.0 **** 0.053
15103 H15103 70.6938 8.71331 16.8374 H 0.0 **** 0.053
15104 H15104 72.6658 9.60769 18.9786 H 0.0 **** 0.053
15105 H15105 72.6684 8.10623 18.0548 H 0.0 **** 0.053
15106 H15106 73.1901 9.45429 15.9663 H 0.0 **** 0.053
15107 H15107 74.4495 9.62517 17.197 H 0.0 **** 0.053
15108 H15108 73.2838 11.7988 15.9678 H 0.0 **** 0.053
15109 H15109 73.9321 11.8884 17.6114 H 0.0 **** 0.053
15110 H15110 71.873 11.8451 18.5195 H 0.0 **** 0.353
15111 H15111 67.4763 0.0423309 26.3758 H 0.0 **** 0.053
15112 H15112 65.6742 0.836417 27.8623 H 0.0 **** 0.053
15113 H15113 66.8272 3.61361 27.9604 H 0.0 **** 0.053
15114 H15114 65.7453 2.80771 29.1045 H 0.0 **** 0.053
15115 H15115 67.7353 2.93746 30.3946 H 0.0 **** 0.053
15116 H15116 68.788 2.78043 28.9775 H 0.0 **** 0.053
15117 H15117 67.0797 0.503656 30.1136 H 0.0 **** 0.053
15118 H15118 68.8055 0.694267 30.4361 H 0.0 **** 0.053
15119 H15119 68.0327 -0.898794 28.4438 H 0.0 **** 0.053
15120 H15120 69.4372 0.147927 28.2001 H 0.0 **** 0.053
15121 H15121 70.756 2.51784 25.9044 H 0.0 **** 0.1268
15122 H15122 73.1031 3.12971 25.416 H 0.0 **** 0.1268
15123 H15123 72.0526 7.92888 20.1809 H 0.0 **** 0.1268
15124 H15124 74.3889 8.10403 19.4806 H 0.0 **** 0.053
15125 H15125 76.3733 7.0692 19.7068 H 0.0 **** 0.053
15126 H15126 77.0403 9.30376 21.6392 H 0.0 **** 0.053
15127 H15127 76.4506 9.42557 18.6566 H 0.0 **** 0.053
15128 H15128 77.3285 10.7104 19.4993 H 0.0 **** 0.053
15129 H15129 74.6248 10.7683 19.2925 H 0.0 **** 0.053
15130 H15130 75.4516 11.4343 20.705 H 0.0 **** 0.053
15131 H15131 73.4206 9.77266 21.0905 H 0.0 **** 0.053
15132 H15132 74.8536 9.57414 22.0975 H 0.0 **** 0.053
15133 H15133 56.3347 8.62939 24.2988 H 0.0 **** 0.053
15134 H15134 58.6053 9.56608 24.3085 H 0.0 **** 0.053
15135 H15135 58.6125 9.70118 22.5376 H 0.0 **** 0.053
15136 H15136 58.6303 8.09746 23.3031 H 0.0 **** 0.053
15137 H15137 55.0663 10.5982 23.4329 H 0.0 **** 0.053
15138 H15138 56.4925 11.118 22.5008 H 0.0 **** 0.053
15139 H15139 56.5512 11.1168 24.2762 H 0.0 **** 0.053
15140 H15140 66.159 7.40022 17.8455 H 0.0 **** 0.41
15141 H15141 76.9542 3.32102 25.263 H 0.0 **** 0.1268
15142 H15142 79.3548 2.83035 25.5897 H 0.0 **** 0.1268
15143 H15143 81.7162 3.18896 24.9614 H 0.0 **** 0.1268
15144 H15144 84.0711 3.52371 24.3376 H 0.0 **** 0.1268
15145 H15145 85.7821 4.67465 22.9544 H 0.0 **** 0.1268
15146 H15146 85.7086 8.07136 19.6117 H 0.0 **** 0.1268
15147 H15147 86.3642 6.31302 21.2072 H 0.0 **** 0.1268
15148 H15148 79.1573 9.82488 19.0788 H 0.0 **** 0.1268
15149 H15149 80.35 9.80447 17.437 H 0.0 **** 0.053
15150 H15150 81.1263 11.1656 18.2516 H 0.0 **** 0.053
15151 H15151 81.9468 11.0008 15.9171 H 0.0 **** 0.053
15152 H15152 82.4122 9.30595 16.1774 H 0.0 **** 0.053
15153 H15153 83.5548 11.7282 17.6865 H 0.0 **** 0.053
15154 H15154 84.4475 10.7849 16.4872 H 0.0 **** 0.053
15155 C15155 29.7808 18.0926 82.8488 C.3 0.0 **** 0.054
15156 C15156 31.2592 17.8982 83.2596 C.3 0.0 **** -0.106
15157 C15157 31.6144 18.8016 84.4585 C.3 0.0 **** -0.053
15158 C15158 30.9579 20.1776 84.2601 C.3 0.0 **** -0.053
15159 C15159 29.4187 20.0042 84.1846 C.3 0.0 **** 0.054
15160 O15160 29.0133 18.6561 83.918 O.3 0.0 **** -0.32
15161 C15161 31.5239 20.89 83.0135 C.3 0.0 **** -0.053
15162 C15162 33.0479 20.6396 82.8284 C.3 0.0 **** 0.107
15163 C15163 33.7037 20.2704 84.1482 C.3 0.0 **** -0.106
15164 C15164 33.1436 18.9361 84.6738 C.3 0.0 **** -0.106
15165 O15165 33.722 21.8019 82.3216 O.3 0.0 **** -0.32
15166 C15166 33.0107 22.4393 81.2471 C.3 0.0 **** 0.107
15167 C15167 31.7886 23.1589 81.8451 C.3 0.0 **** -0.053
15168 C15168 31.2748 22.3933 83.0999 C.3 0.0 **** -0.106
15169 C15169 30.7205 23.4808 80.853 C.2 0.0 **** 0.0
15170 C15170 30.7307 23.0192 79.5463 C.2 0.0 **** 0.0
15171 C15171 31.7151 22.0694 79.0922 C.2 0.0 **** 0.0
15172 C15172 32.693 21.4839 80.086 C.3 0.0 **** -0.053
15173 C15173 31.6841 21.5494 77.81 C.2 0.0 **** 0.0
15174 C15174 30.6817 21.9985 76.873 C.2 0.0 **** 0.0
15175 C15175 29.7429 22.9727 77.3301 C.2 0.0 **** 0.232
15176 C15176 29.7248 23.4694 78.6039 C.2 0.0 **** 0.0
15177 C15177 28.6704 24.4592 79.0297 C.3 0.0 **** -0.106
15178 C15178 29.1462 25.321 80.1997 C.3 0.0 **** -0.106
15179 C15179 29.6503 24.4215 81.3307 C.3 0.0 **** -0.106
15180 O15180 28.7626 23.4316 76.4713 O.3 0.0 **** -0.464
15181 C15181 28.7571 23.0543 75.1503 C.2 0.0 **** 0.232
15182 C15182 29.6248 22.0629 74.6575 C.2 0.0 **** 0.0
15183 C15183 30.5915 21.4977 75.5686 C.2 0.0 **** 0.0
15184 C15184 33.9258 20.9285 79.4128 C.2 0.0 **** 0.0
15185 C15185 33.6948 20.1487 78.1995 C.2 0.0 **** 0.0
15186 C15186 32.6311 20.5191 77.3744 C.2 0.0 **** 0.0
15187 C15187 34.7095 19.1562 77.8504 C.2 0.0 **** 0.0
15188 C15188 35.9968 19.3597 78.2559 C.2 0.0 **** 0.0
15189 C15189 36.3616 20.4902 79.1615 C.3 0.0 **** -0.106
15190 C15190 35.1889 21.1038 79.8614 C.2 0.0 **** -0.1268
15191 C15191 37.0733 18.4063 77.818 C.3 0.0 **** -0.106
15192 C15192 36.7389 17.8236 76.4418 C.3 0.0 **** -0.106
15193 C15193 35.3456 17.2444 76.4633 C.2 0.0 **** 0.0
15194 C15194 34.3805 17.8859 77.1641 C.2 0.0 **** 0.0
15195 C15195 33.0227 17.2679 77.4053 C.3 0.0 **** -0.106
15196 C15196 32.9166 15.8135 76.9326 C.3 0.0 **** -0.053
15197 C15197 33.6017 15.672 75.5688 C.3 0.0 **** -0.106
15198 C15198 35.094 15.9725 75.7077 C.3 0.0 **** -0.106
15199 C15199 31.5234 20.4783 75.1821 C.2 0.0 **** -0.012
15200 C15200 32.5015 20.0345 76.0378 C.2 0.0 **** -0.1268
15201 C15201 29.5151 21.7482 73.2789 C.2 0.0 **** 0.0
15202 C15202 30.3376 20.7223 72.6897 C.2 0.0 **** -0.012
15203 S15203 31.4201 19.6978 73.6194 S.2 0.0 **** 0.024
15204 C15204 30.2664 20.443 71.3488 C.2 0.0 **** -0.1268
15205 C15205 29.3846 21.1542 70.4931 C.2 0.0 **** 0.0
15206 C15206 28.5275 22.1579 71.0401 C.2 0.0 **** 0.0
15207 C15207 28.5838 22.4468 72.4315 C.2 0.0 **** 0.0
15208 C15208 27.6268 22.8416 70.1819 C.2 0.0 **** 0.0
15209 C15209 27.6115 22.551 68.7832 C.2 0.0 **** 0.0
15210 C15210 28.5357 21.5841 68.245 C.2 0.0 **** 0.0
15211 C15211 29.366 20.8782 69.1294 C.2 0.0 **** -0.1268
15212 C15212 28.5785 21.3885 66.8327 C.2 0.0 **** 0.0
15213 C15213 27.6321 22.0026 66.0343 C.2 0.0 **** 0.042
15214 C15214 26.6218 22.8776 66.5343 C.2 0.0 **** 0.0
15215 C15215 26.6735 23.1932 67.921 C.2 0.0 **** 0.0
15216 C15216 27.7122 23.4446 72.9848 C.2 0.0 **** 0.0
15217 C15217 27.8405 23.7159 74.3627 C.2 0.0 **** -0.1268
15218 C15218 26.7346 23.82 70.7325 C.2 0.0 **** 0.0
15219 C15219 26.7667 24.1265 72.1259 C.2 0.0 **** 0.0
15220 C15220 25.7632 24.1536 68.4751 C.2 0.0 **** 0.0
15221 C15221 25.8117 24.4686 69.8581 C.2 0.0 **** 0.0
15222 C15222 25.596 23.4585 65.7037 C.2 0.0 **** 0.0
15223 C15223 24.7339 24.4485 66.2629 C.2 0.0 **** 0.0
15224 C15224 24.8194 24.7995 67.6338 C.2 0.0 **** 0.0
15225 O15225 27.755 21.8085 64.6754 O.3 0.0 **** -0.202
15226 C15226 27.8426 20.4234 64.2362 C.3 0.0 **** 0.107
15227 C15227 28.7923 19.5979 65.1398 C.3 0.0 **** -0.053
15228 C15228 29.5818 20.5868 66.0094 C.3 0.0 **** 0.107
15229 C15229 29.6704 18.6526 64.311 C.3 0.0 **** -0.106
15230 C15230 28.8162 18.0197 63.2075 C.3 0.0 **** -0.106
15231 C15231 28.4677 19.0669 62.1455 C.3 0.0 **** 0.134
15232 C15232 28.2628 20.4883 62.7688 C.3 0.0 **** -0.053
15233 C15233 27.2352 21.2797 61.9428 C.3 0.0 **** -0.106
15234 C15234 27.3867 21.0028 60.448 C.3 0.0 **** -0.106
15235 C15235 27.1334 19.4962 60.1602 C.3 0.0 **** 0.081
15236 N15236 27.3405 18.6221 61.3248 N.3 0.0 **** -0.727
15237 C15237 25.8366 25.1165 72.6032 C.2 0.0 **** 0.042
15238 C15238 24.9769 25.7806 71.7418 C.2 0.0 **** 0.042
15239 C15239 24.9157 25.4603 70.3609 C.2 0.0 **** 0.0
15240 O15240 24.1152 26.7677 72.1612 O.3 0.0 **** -0.202
15241 C15241 24.3925 27.2969 73.4759 C.3 0.0 **** 0.107
15242 C15242 24.6301 26.1138 74.3994 C.3 0.0 **** 0.107
15243 O15243 25.8033 25.4095 73.9482 O.3 0.0 **** -0.202
15244 C15244 23.4092 25.1738 74.4813 C.3 0.0 **** -0.106
15245 C15245 22.0745 25.9034 74.216 C.3 0.0 **** -0.106
15246 C15246 22.1458 27.3546 74.7042 C.3 0.0 **** -0.106
15247 C15247 23.1994 28.152 73.9081 C.3 0.0 **** -0.106
15248 C15248 23.9263 25.7904 68.1603 C.2 0.0 **** 0.0
15249 C15249 24.0013 26.1071 69.5166 C.2 0.0 **** -0.1268
15250 C15250 23.7671 25.0761 65.4283 C.2 0.0 **** 0.0
15251 C15251 22.9154 26.0834 65.9785 C.2 0.0 **** 0.042
15252 C15252 22.9817 26.4319 67.2991 C.2 0.0 **** -0.1268
15253 C15253 23.626 24.7115 64.0809 C.2 0.0 **** 0.0
15254 C15254 24.4185 23.6803 63.5599 C.2 0.0 **** 0.0
15255 C15255 25.3713 23.0835 64.365 C.2 0.0 **** -0.1268
15256 O15256 21.9848 26.7273 65.1771 O.3 0.0 **** -0.0685
15257 C15257 21.886 26.4296 63.8373 C.2 0.0 **** 0.0265
15258 C15258 22.6672 25.413 63.2618 C.2 0.0 **** 0.0
15259 C15259 24.2338 23.171 62.1551 C.3 0.0 **** -0.053
15260 C15260 23.4678 24.1407 61.2257 C.3 0.0 **** -0.053
15261 C15261 22.5472 25.123 61.9 C.2 0.0 **** 0.0
15262 C15262 22.6689 23.3841 60.1478 C.3 0.0 **** -0.053
15263 C15263 23.4902 22.2124 59.6222 C.3 0.0 **** -0.106
15264 C15264 23.6604 21.1559 60.7423 C.3 0.0 **** -0.106
15265 C15265 23.5748 21.7797 62.1481 C.3 0.0 **** -0.106
15266 C15266 21.6422 25.8371 61.1003 C.2 0.0 **** 0.0
15267 C15267 20.8986 26.91 61.6685 C.2 0.0 **** 0.0
15268 C15268 21.0028 27.2066 63.0639 C.2 0.0 **** 0.0
15269 C15269 22.1258 24.3748 59.1548 C.2 0.0 **** 0.0
15270 C15270 21.5212 25.5423 59.6983 C.2 0.0 **** 0.0
15271 C15271 31.4513 15.3297 76.9456 C.3 0.0 **** -0.053
15272 C15272 30.619 15.9325 75.8064 C.3 0.0 **** -0.159
15273 C15273 31.3745 13.8 76.9081 C.3 0.0 **** -0.159
15274 O15274 30.595 19.8558 66.7022 O.3 0.0 **** -0.57
15275 C15275 20.2328 28.2868 63.6065 C.2 0.0 **** -0.1268
15276 C15276 19.4336 29.0491 62.8008 C.2 0.0 **** -0.1268
15277 C15277 19.3398 28.8084 61.3899 C.2 0.0 **** 0.0
15278 C15278 20.0834 27.7199 60.8297 C.2 0.0 **** 0.0
15279 C15279 20.0282 27.4737 59.4322 C.2 0.0 **** 0.0
15280 C15280 19.2412 28.2994 58.5953 C.2 0.0 **** 0.0
15281 C15281 18.4963 29.3822 59.1648 C.2 0.0 **** 0.0
15282 C15282 18.5617 29.6104 60.5487 C.2 0.0 **** -0.1268
15283 C15283 17.7073 30.2058 58.3034 C.2 0.0 **** -0.1268
15284 C15284 17.6604 29.9711 56.9547 C.2 0.0 **** -0.1268
15285 C15285 18.3927 28.8954 56.3656 C.2 0.0 **** 0.0
15286 C15286 19.1839 28.0533 57.1915 C.2 0.0 **** 0.0
15287 C15287 19.9095 26.9668 56.6159 C.2 0.0 **** 0.0
15288 C15288 20.6919 26.1309 57.4622 C.2 0.0 **** 0.0
15289 C15289 20.7566 26.3823 58.8625 C.2 0.0 **** 0.0
15290 C15290 19.8392 26.7094 55.2145 C.2 0.0 **** 0.0
15291 C15291 19.0544 27.5879 54.4171 C.2 0.0 **** -0.1268
15292 C15292 18.3607 28.6409 54.9762 C.2 0.0 **** -0.1268
15293 C15293 22.0978 24.1621 57.7948 C.2 0.0 **** -0.1268
15294 C15294 21.4245 25.0445 56.9098 C.2 0.0 **** 0.0
15295 C15295 20.5966 25.6043 54.6637 C.2 0.0 **** 0.052
15296 C15296 21.4218 24.8356 55.4957 C.2 0.0 **** 0.0
15297 C15297 22.3364 23.7681 54.9373 C.3 0.0 **** -0.106
15298 C15298 22.6943 24.0254 53.4786 C.3 0.0 **** -0.106
15299 C15299 21.4056 24.145 52.6822 C.3 0.0 **** -0.086
15300 C15300 20.4478 25.1934 53.2343 C.2 0.0 **** 0.347
15301 O15301 19.5568 25.6078 52.4911 O.2 0.0 **** -0.419
15302 H15302 29.2993 17.1364 82.6027 H 0.0 **** 0.053
15303 H15303 29.707 18.7504 81.9596 H 0.0 **** 0.053
15304 H15304 31.4543 16.8497 83.5323 H 0.0 **** 0.053
15305 H15305 31.9118 18.1346 82.4043 H 0.0 **** 0.053
15306 H15306 31.1641 18.344 85.3515 H 0.0 **** 0.053
15307 H15307 31.1898 20.8058 85.1364 H 0.0 **** 0.053
15308 H15308 29.0067 20.6714 83.3989 H 0.0 **** 0.053
15309 H15309 28.9411 20.2607 85.1407 H 0.0 **** 0.053
15310 H15310 30.9871 20.5014 82.1333 H 0.0 **** 0.053
15311 H15311 33.2057 19.808 82.1146 H 0.0 **** 0.053
15312 H15312 33.5119 21.0813 84.8693 H 0.0 **** 0.053
15313 H15313 34.7932 20.2101 84.0136 H 0.0 **** 0.053
15314 H15314 33.3831 18.8453 85.7439 H 0.0 **** 0.053
15315 H15315 33.652 18.0993 84.1672 H 0.0 **** 0.053
15316 H15316 33.7116 23.1923 80.8578 H 0.0 **** 0.053
15317 H15317 32.1513 24.1319 82.2283 H 0.0 **** 0.053
15318 H15318 30.204 22.5921 83.2548 H 0.0 **** 0.053
15319 H15319 31.8036 22.7703 83.9895 H 0.0 **** 0.053
15320 H15320 32.1557 20.6052 80.4971 H 0.0 **** 0.053
15321 H15321 28.375 25.0829 78.1737 H 0.0 **** 0.053
15322 H15322 27.7603 23.9089 79.3351 H 0.0 **** 0.053
15323 H15323 28.331 25.9711 80.5527 H 0.0 **** 0.053
15324 H15324 29.9697 25.9714 79.8631 H 0.0 **** 0.053
15325 H15325 28.7945 23.8483 81.7403 H 0.0 **** 0.053
15326 H15326 30.0385 25.0219 82.1708 H 0.0 **** 0.053
15327 H15327 36.9047 21.2726 78.5867 H 0.0 **** 0.053
15328 H15328 37.1119 20.1379 79.8962 H 0.0 **** 0.053
15329 H15329 35.387 21.6983 80.7516 H 0.0 **** 0.1268
15330 H15330 38.0475 18.9207 77.8067 H 0.0 **** 0.053
15331 H15331 37.1572 17.5849 78.5584 H 0.0 **** 0.053
15332 H15332 37.4667 17.0497 76.1518 H 0.0 **** 0.053
15333 H15333 36.8018 18.6267 75.6824 H 0.0 **** 0.053
15334 H15334 32.8066 17.3232 78.4872 H 0.0 **** 0.053
15335 H15335 32.2312 17.8662 76.9288 H 0.0 **** 0.053
15336 H15336 33.4788 15.1829 77.6466 H 0.0 **** 0.053
15337 H15337 33.1523 16.3907 74.8642 H 0.0 **** 0.053
15338 H15338 33.449 14.6646 75.1521 H 0.0 **** 0.053
15339 H15339 35.5734 16.0474 74.7146 H 0.0 **** 0.053
15340 H15340 35.6048 15.1312 76.2156 H 0.0 **** 0.053
15341 H15341 33.2324 19.312 75.6754 H 0.0 **** 0.1268
15342 H15342 30.9003 19.6683 70.9112 H 0.0 **** 0.1268
15343 H15343 29.9915 20.0726 68.7577 H 0.0 **** 0.1268
15344 H15344 27.2248 24.4623 74.8428 H 0.0 **** 0.1268
15345 H15345 26.8208 20.0036 64.2945 H 0.0 **** 0.053
15346 H15346 28.1816 18.9866 65.8232 H 0.0 **** 0.053
15347 H15347 30.0714 21.3023 65.3167 H 0.0 **** 0.053
15348 H15348 30.5085 19.2137 63.8631 H 0.0 **** 0.053
15349 H15349 30.1149 17.8958 64.9697 H 0.0 **** 0.053
15350 H15350 27.8821 17.6301 63.6513 H 0.0 **** 0.053
15351 H15351 29.3147 17.1662 62.7279 H 0.0 **** 0.053
15352 H15352 29.3265 19.1459 61.457 H 0.0 **** 0.053
15353 H15353 29.2286 21.0205 62.7371 H 0.0 **** 0.053
15354 H15354 26.2219 20.9751 62.2567 H 0.0 **** 0.053
15355 H15355 27.3186 22.3523 62.1649 H 0.0 **** 0.053
15356 H15356 28.4037 21.285 60.1315 H 0.0 **** 0.053
15357 H15357 26.6879 21.6241 59.8655 H 0.0 **** 0.053
15358 H15358 27.8008 19.1562 59.3503 H 0.0 **** 0.053
15359 H15359 26.1024 19.3404 59.8097 H 0.0 **** 0.053
15360 H15360 26.4964 18.5998 61.8983 H 0.0 **** 0.353
15361 H15361 25.3161 27.8959 73.4114 H 0.0 **** 0.053
15362 H15362 24.9075 26.4872 75.3954 H 0.0 **** 0.053
15363 H15363 23.5507 24.3666 73.748 H 0.0 **** 0.053
15364 H15364 23.4037 24.7079 75.4776 H 0.0 **** 0.053
15365 H15365 21.2535 25.3661 74.713 H 0.0 **** 0.053
15366 H15366 21.8627 25.8997 73.1366 H 0.0 **** 0.053
15367 H15367 22.4075 27.3586 75.7762 H 0.0 **** 0.053
15368 H15368 21.1668 27.8485 74.619 H 0.0 **** 0.053
15369 H15369 23.5673 29.0011 74.5032 H 0.0 **** 0.053
15370 H15370 22.7564 28.5711 72.9915 H 0.0 **** 0.053
15371 H15371 23.3363 26.864 69.9297 H 0.0 **** 0.1268
15372 H15372 22.3138 27.1946 67.7009 H 0.0 **** 0.1268
15373 H15373 25.979 22.3029 63.9353 H 0.0 **** 0.1268
15374 H15374 25.2359 23.0303 61.7221 H 0.0 **** 0.053
15375 H15375 24.2206 24.75 60.6869 H 0.0 **** 0.053
15376 H15376 21.775 22.9639 60.6514 H 0.0 **** 0.053
15377 H15377 24.4722 22.5925 59.2929 H 0.0 **** 0.053
15378 H15378 23.0145 21.7523 58.7444 H 0.0 **** 0.053
15379 H15379 24.6337 20.6588 60.6255 H 0.0 **** 0.053
15380 H15380 22.8895 20.3767 60.6398 H 0.0 **** 0.053
15381 H15381 24.0702 21.1356 62.8902 H 0.0 **** 0.053
15382 H15382 22.5275 21.8799 62.4745 H 0.0 **** 0.053
15383 H15383 31.0154 15.6678 77.9034 H 0.0 **** 0.053
15384 H15384 29.5562 15.6746 75.9276 H 0.0 **** 0.053
15385 H15385 30.9492 15.5332 74.8349 H 0.0 **** 0.053
15386 H15386 30.6988 17.0292 75.7609 H 0.0 **** 0.053
15387 H15387 31.9391 13.3536 77.7419 H 0.0 **** 0.053
15388 H15388 31.7955 13.4109 75.9673 H 0.0 **** 0.053
15389 H15389 30.3317 13.4539 76.9728 H 0.0 **** 0.053
15390 H15390 31.1829 20.5033 67.1209 H 0.0 **** 0.41
15391 H15391 20.3042 28.4945 64.6741 H 0.0 **** 0.1268
15392 H15392 18.8542 29.8726 63.2219 H 0.0 **** 0.1268
15393 H15393 17.9963 30.4411 60.9768 H 0.0 **** 0.1268
15394 H15394 17.144 31.0291 58.7464 H 0.0 **** 0.1268
15395 H15395 17.0616 30.608 56.3008 H 0.0 **** 0.1268
15396 H15396 18.9998 27.407 53.349 H 0.0 **** 0.1268
15397 H15397 17.7705 29.2996 54.3357 H 0.0 **** 0.1268
15398 H15398 22.5701 23.2674 57.3981 H 0.0 **** 0.1268
15399 H15399 23.2526 23.7261 55.5427 H 0.0 **** 0.053
15400 H15400 21.8547 22.7763 55.0304 H 0.0 **** 0.053
15401 H15401 23.3318 23.2178 53.0878 H 0.0 **** 0.053
15402 H15402 23.2677 24.9642 53.4085 H 0.0 **** 0.053
15403 H15403 20.8616 23.1827 52.7106 H 0.0 **** 0.053
15404 H15404 21.5666 24.3833 51.6212 H 0.0 **** 0.053
15405 C15405 62.4279 46.9221 9.8475 C.3 0.0 **** 0.054
15406 C15406 63.1179 47.6624 11.0172 C.3 0.0 **** -0.106
15407 C15407 63.3242 46.7135 12.2159 C.3 0.0 **** -0.053
15408 C15408 62.0723 45.8367 12.3813 C.3 0.0 **** -0.053
15409 C15409 61.8598 44.9997 11.0931 C.3 0.0 **** 0.054
15410 O15410 62.5845 45.5038 9.96458 O.3 0.0 **** -0.32
15411 C15411 60.8354 46.6918 12.7288 C.3 0.0 **** -0.053
15412 C15412 61.1795 47.8722 13.6817 C.3 0.0 **** 0.107
15413 C15413 62.4447 47.5836 14.4716 C.3 0.0 **** -0.106
15414 C15414 63.6556 47.4702 13.5276 C.3 0.0 **** -0.106
15415 O15415 60.1271 48.119 14.6271 O.3 0.0 **** -0.32
15416 C15416 58.8196 48.0972 14.0298 C.3 0.0 **** 0.107
15417 C15417 58.4656 46.6337 13.7105 C.3 0.0 **** -0.053
15418 C15418 59.7562 45.829 13.3772 C.3 0.0 **** -0.106
15419 C15419 57.3747 46.4723 12.7043 C.2 0.0 **** 0.0
15420 C15420 56.8451 47.528 11.9793 C.2 0.0 **** 0.0
15421 C15421 57.4168 48.8492 12.0484 C.2 0.0 **** 0.0
15422 C15422 58.6831 49.0674 12.8456 C.3 0.0 **** -0.053
15423 C15423 56.9381 49.8885 11.27 C.2 0.0 **** 0.0
15424 C15424 55.8037 49.6771 10.4021 C.2 0.0 **** 0.0
15425 C15425 55.2247 48.3719 10.3818 C.2 0.0 **** 0.232
15426 C15426 55.7057 47.3174 11.1074 C.2 0.0 **** 0.0
15427 C15427 55.0729 45.9536 10.9961 C.3 0.0 **** -0.106
15428 C15428 55.3128 45.1168 12.2533 C.3 0.0 **** -0.106
15429 C15429 56.809 45.0861 12.5741 C.3 0.0 **** -0.106
15430 O15430 54.1393 48.1193 9.56503 O.3 0.0 **** -0.464
15431 C15431 53.5361 49.1379 8.86795 C.2 0.0 **** 0.232
15432 C15432 54.0906 50.4294 8.81185 C.2 0.0 **** 0.0
15433 C15433 55.2852 50.6856 9.5808 C.2 0.0 **** 0.0
15434 C15434 58.8702 50.5153 13.2329 C.2 0.0 **** 0.0
15435 C15435 58.588 51.4975 12.1893 C.2 0.0 **** 0.0
15436 C15436 57.5734 51.2092 11.2744 C.2 0.0 **** 0.0
15437 C15437 59.266 52.7879 12.2975 C.2 0.0 **** 0.0
15438 C15438 59.6282 53.24 13.5334 C.2 0.0 **** 0.0
15439 C15439 59.4773 52.3894 14.752 C.3 0.0 **** -0.106
15440 C15440 59.2769 50.9365 14.4514 C.2 0.0 **** -0.1268
15441 C15441 60.2306 54.6097 13.6764 C.3 0.0 **** -0.106
15442 C15442 59.6782 55.5479 12.5994 C.3 0.0 **** -0.106
15443 C15443 59.8516 54.9148 11.2406 C.2 0.0 **** 0.0
15444 C15444 59.6705 53.5788 11.1127 C.2 0.0 **** 0.0
15445 C15445 60.0242 52.8419 9.84157 C.3 0.0 **** -0.106
15446 C15446 60.7453 53.7128 8.8066 C.3 0.0 **** -0.053
15447 C15447 60.0721 55.0884 8.74356 C.3 0.0 **** -0.106
15448 C15448 60.2257 55.7998 10.0878 C.3 0.0 **** -0.106
15449 C15449 55.9425 51.9603 9.59796 C.2 0.0 **** -0.012
15450 C15450 57.0145 52.207 10.42 C.2 0.0 **** -0.1268
15451 C15451 53.3843 51.3933 8.04789 C.2 0.0 **** 0.0
15452 C15452 53.8914 52.7343 7.90317 C.2 0.0 **** -0.012
15453 S15453 55.453 53.2496 8.52095 S.2 0.0 **** 0.024
15454 C15454 53.1917 53.6824 7.20139 C.2 0.0 **** -0.1268
15455 C15455 51.9438 53.3799 6.59558 C.2 0.0 **** 0.0
15456 C15456 51.4184 52.0544 6.68646 C.2 0.0 **** 0.0
15457 C15457 52.1418 51.0601 7.4009 C.2 0.0 **** 0.0
15458 C15458 50.1852 51.7537 6.0507 C.2 0.0 **** 0.0
15459 C15459 49.4658 52.7792 5.36368 C.2 0.0 **** 0.0
15460 C15460 49.9831 54.1249 5.34679 C.2 0.0 **** 0.0
15461 C15461 51.2365 54.3742 5.92696 C.2 0.0 **** -0.1268
15462 C15462 49.1967 55.1544 4.74963 C.2 0.0 **** 0.0
15463 C15463 48.0451 54.8164 4.06421 C.2 0.0 **** 0.042
15464 C15464 47.5531 53.4816 3.95248 C.2 0.0 **** 0.0
15465 C15465 48.2532 52.4758 4.67601 C.2 0.0 **** 0.0
15466 C15466 51.6221 49.724 7.47989 C.2 0.0 **** 0.0
15467 C15467 52.3628 48.7909 8.23457 C.2 0.0 **** -0.1268
15468 C15468 49.674 50.4149 6.10264 C.2 0.0 **** 0.0
15469 C15469 50.3814 49.3965 6.80894 C.2 0.0 **** 0.0
15470 C15470 47.7539 51.1313 4.70594 C.2 0.0 **** 0.0
15471 C15471 48.4514 50.1262 5.42529 C.2 0.0 **** 0.0
15472 C15472 46.3895 53.1293 3.17699 C.2 0.0 **** 0.0
15473 C15473 45.881 51.7988 3.2612 C.2 0.0 **** 0.0
15474 C15474 46.5513 50.8091 4.02344 C.2 0.0 **** 0.0
15475 O15475 47.308 55.8606 3.54851 O.3 0.0 **** -0.202
15476 C15476 48.0374 56.8006 2.70985 C.3 0.0 **** 0.107
15477 C15477 49.4126 57.1639 3.3237 C.3 0.0 **** -0.053
15478 C15478 49.4199 56.6632 4.77524 C.3 0.0 **** 0.107
15479 C15479 49.7129 58.6604 3.17541 C.3 0.0 **** -0.106
15480 C15480 49.2804 59.1184 1.77861 C.3 0.0 **** -0.106
15481 C15481 47.7519 59.1376 1.68055 C.3 0.0 **** 0.134
15482 C15482 47.0963 57.9887 2.51807 C.3 0.0 **** -0.053
15483 C15483 45.7827 57.5412 1.85568 C.3 0.0 **** -0.106
15484 C15484 45.0209 58.7274 1.26688 C.3 0.0 **** -0.106
15485 C15485 45.875 59.4089 0.16097 C.3 0.0 **** 0.081
15486 N15486 47.3194 59.1598 0.282589 N.3 0.0 **** -0.727
15487 C15487 49.806 48.0767 6.81124 C.2 0.0 **** 0.042
15488 C15488 48.5927 47.8122 6.19482 C.2 0.0 **** 0.042
15489 C15489 47.898 48.8104 5.46374 C.2 0.0 **** 0.0
15490 O15490 47.9937 46.574 6.22591 O.3 0.0 **** -0.202
15491 C15491 48.5336 45.6633 7.2081 C.3 0.0 **** 0.107
15492 C15492 50.0478 45.7238 7.09781 C.3 0.0 **** 0.107
15493 O15493 50.479 47.0547 7.44264 O.3 0.0 **** -0.202
15494 C15494 50.5551 45.3155 5.69898 C.3 0.0 **** -0.106
15495 C15495 49.6005 44.3385 4.97897 C.3 0.0 **** -0.106
15496 C15496 48.8854 43.4371 5.9917 C.3 0.0 **** -0.106
15497 C15497 47.9768 44.2671 6.92185 C.3 0.0 **** -0.106
15498 C15498 46.0148 49.48 4.07254 C.2 0.0 **** 0.0
15499 C15499 46.6983 48.508 4.80295 C.2 0.0 **** -0.1268
15500 C15500 44.6918 51.4658 2.55408 C.2 0.0 **** 0.0
15501 C15501 44.1669 50.14 2.65212 C.2 0.0 **** 0.042
15502 C15502 44.8021 49.1721 3.37976 C.2 0.0 **** -0.1268
15503 C15503 44.0365 52.4114 1.75117 C.2 0.0 **** 0.0
15504 C15504 44.5871 53.6915 1.60625 C.2 0.0 **** 0.0
15505 C15505 45.7317 54.0217 2.30834 C.2 0.0 **** -0.1268
15506 O15506 42.9947 49.801 1.99349 O.3 0.0 **** -0.0685
15507 C15507 42.3038 50.7391 1.26128 C.2 0.0 **** 0.0265
15508 C15508 42.8056 52.0413 1.09536 C.2 0.0 **** 0.0
15509 C15509 43.9905 54.71 0.671403 C.3 0.0 **** -0.053
15510 C15510 42.5281 54.4157 0.264551 C.3 0.0 **** -0.053
15511 C15511 42.0907 52.9771 0.343048 C.2 0.0 **** 0.0
15512 C15512 42.2126 54.9453 -1.14709 C.3 0.0 **** -0.053
15513 C15513 42.8672 56.3073 -1.34712 C.3 0.0 **** -0.106
15514 C15514 44.4075 56.1431 -1.36765 C.3 0.0 **** -0.106
15515 C15515 44.8712 54.9056 -0.57606 C.3 0.0 **** -0.106
15516 C15516 40.8734 52.6226 -0.257946 C.2 0.0 **** 0.0
15517 C15517 40.3332 51.3243 -0.0360839 C.2 0.0 **** 0.0
15518 C15518 41.0626 50.3538 0.720214 C.2 0.0 **** 0.0
15519 C15519 40.7345 54.8225 -1.39733 C.2 0.0 **** 0.0
15520 C15520 40.1351 53.5861 -1.02858 C.2 0.0 **** 0.0
15521 C15521 60.8304 52.999 7.44113 C.3 0.0 **** -0.053
15522 C15522 59.4825 52.9587 6.70941 C.3 0.0 **** -0.159
15523 C15523 61.9002 53.638 6.54961 C.3 0.0 **** -0.159
15524 O15524 50.5988 57.1622 5.40949 O.3 0.0 **** -0.57
15525 C15525 40.4951 49.0525 0.916504 C.2 0.0 **** -0.1268
15526 C15526 39.2587 48.747 0.419234 C.2 0.0 **** -0.1268
15527 C15527 38.4804 49.7098 -0.305007 C.2 0.0 **** 0.0
15528 C15528 39.0374 51.0097 -0.532222 C.2 0.0 **** 0.0
15529 C15529 38.2791 51.9902 -1.22524 C.2 0.0 **** 0.0
15530 C15530 36.9785 51.6852 -1.69082 C.2 0.0 **** 0.0
15531 C15531 36.4316 50.3809 -1.46421 C.2 0.0 **** 0.0
15532 C15532 37.1958 49.4233 -0.778147 C.2 0.0 **** -0.1268
15533 C15533 35.1158 50.0914 -1.94154 C.2 0.0 **** -0.1268
15534 C15534 34.3832 51.0405 -2.60393 C.2 0.0 **** -0.1268
15535 C15535 34.9095 52.3465 -2.84356 C.2 0.0 **** 0.0
15536 C15536 36.2156 52.6684 -2.38767 C.2 0.0 **** 0.0
15537 C15537 36.7575 53.9663 -2.63325 C.2 0.0 **** 0.0
15538 C15538 38.0709 54.2667 -2.17312 C.2 0.0 **** 0.0
15539 C15539 38.8291 53.2881 -1.46906 C.2 0.0 **** 0.0
15540 C15540 36.002 54.9448 -3.34514 C.2 0.0 **** 0.0
15541 C15541 34.6896 54.5926 -3.76612 C.2 0.0 **** -0.1268
15542 C15542 34.1671 53.3399 -3.52044 C.2 0.0 **** -0.1268
15543 C15543 39.9819 55.7812 -2.03786 C.2 0.0 **** -0.1268
15544 C15544 38.6295 55.5538 -2.40468 C.2 0.0 **** 0.0
15545 C15545 36.5798 56.2544 -3.56729 C.2 0.0 **** 0.052
15546 C15546 37.8431 56.5619 -3.04404 C.2 0.0 **** 0.0
15547 C15547 38.418 57.9582 -3.12976 C.3 0.0 **** -0.106
15548 C15548 37.3315 59.0184 -3.26253 C.3 0.0 **** -0.106
15549 C15549 36.4756 58.6796 -4.47163 C.3 0.0 **** -0.086
15550 C15550 35.9023 57.2685 -4.43136 C.2 0.0 **** 0.347
15551 O15551 34.9425 57.0159 -5.16127 O.2 0.0 **** -0.419
15552 H15552 62.8678 47.1956 8.87878 H 0.0 **** 0.053
15553 H15553 61.3478 47.169 9.81344 H 0.0 **** 0.053
15554 H15554 64.0952 48.0611 10.705 H 0.0 **** 0.053
15555 H15555 62.5017 48.5234 11.321 H 0.0 **** 0.053
15556 H15556 64.1636 46.0502 11.9612 H 0.0 **** 0.053
15557 H15557 62.2411 45.1397 13.2192 H 0.0 **** 0.053
15558 H15558 60.7782 44.9642 10.8461 H 0.0 **** 0.053
15559 H15559 62.2182 43.9689 11.2235 H 0.0 **** 0.053
15560 H15560 60.4331 47.097 11.7866 H 0.0 **** 0.053
15561 H15561 61.3388 48.7948 13.0907 H 0.0 **** 0.053
15562 H15562 62.299 46.6439 15.0285 H 0.0 **** 0.053
15563 H15563 62.6032 48.3775 15.2155 H 0.0 **** 0.053
15564 H15564 64.4756 46.9635 14.0582 H 0.0 **** 0.053
15565 H15565 64.0216 48.4794 13.2767 H 0.0 **** 0.053
15566 H15566 58.1468 48.4618 14.8199 H 0.0 **** 0.053
15567 H15567 58.0822 46.1897 14.6491 H 0.0 **** 0.053
15568 H15568 59.5143 44.9736 12.7292 H 0.0 **** 0.053
15569 H15569 60.1716 45.4176 14.3106 H 0.0 **** 0.053
15570 H15570 59.492 48.8453 12.1204 H 0.0 **** 0.053
15571 H15571 53.9981 46.0554 10.7881 H 0.0 **** 0.053
15572 H15572 55.504 45.4252 10.1248 H 0.0 **** 0.053
15573 H15573 54.923 44.0969 12.1144 H 0.0 **** 0.053
15574 H15574 54.7723 45.5682 13.101 H 0.0 **** 0.053
15575 H15575 57.3359 44.5338 11.7703 H 0.0 **** 0.053
15576 H15576 57.0033 44.5223 13.5022 H 0.0 **** 0.053
15577 H15577 58.6308 52.7633 15.3693 H 0.0 **** 0.053
15578 H15578 60.3601 52.533 15.4053 H 0.0 **** 0.053
15579 H15579 59.4731 50.224 15.2509 H 0.0 **** 0.1268
15580 H15580 60.0326 55.0026 14.6865 H 0.0 **** 0.053
15581 H15581 61.3326 54.5367 13.5752 H 0.0 **** 0.053
15582 H15582 60.1833 56.526 12.629 H 0.0 **** 0.053
15583 H15583 58.6044 55.7329 12.795 H 0.0 **** 0.053
15584 H15584 60.6609 51.9797 10.1094 H 0.0 **** 0.053
15585 H15585 59.1264 52.3982 9.38478 H 0.0 **** 0.053
15586 H15586 61.781 53.8729 9.16048 H 0.0 **** 0.053
15587 H15587 58.9999 54.9545 8.52589 H 0.0 **** 0.053
15588 H15588 60.4976 55.7002 7.93337 H 0.0 **** 0.053
15589 H15589 59.6028 56.7122 10.1225 H 0.0 **** 0.053
15590 H15590 61.2679 56.1529 10.2134 H 0.0 **** 0.053
15591 H15591 57.4349 53.2119 10.4526 H 0.0 **** 0.1268
15592 H15592 53.5819 54.6981 7.10462 H 0.0 **** 0.1268
15593 H15593 51.6912 55.3553 5.8317 H 0.0 **** 0.1268
15594 H15594 52.0247 47.7712 8.34571 H 0.0 **** 0.1268
15595 H15595 48.1891 56.3066 1.73188 H 0.0 **** 0.053
15596 H15596 50.1945 56.6031 2.78713 H 0.0 **** 0.053
15597 H15597 48.5337 57.1093 5.27225 H 0.0 **** 0.053
15598 H15598 49.166 59.2317 3.94503 H 0.0 **** 0.053
15599 H15599 50.7814 58.8375 3.35192 H 0.0 **** 0.053
15600 H15600 49.6821 58.4154 1.02654 H 0.0 **** 0.053
15601 H15601 49.6745 60.1111 1.5213 H 0.0 **** 0.053
15602 H15602 47.3991 60.0871 2.11828 H 0.0 **** 0.053
15603 H15603 46.8702 58.3819 3.52375 H 0.0 **** 0.053
15604 H15604 46.0219 56.8365 1.04073 H 0.0 **** 0.053
15605 H15605 45.168 56.9843 2.57592 H 0.0 **** 0.053
15606 H15606 44.7969 59.4459 2.07162 H 0.0 **** 0.053
15607 H15607 44.0535 58.4006 0.853193 H 0.0 **** 0.053
15608 H15608 45.7094 60.4993 0.183968 H 0.0 **** 0.053
15609 H15609 45.5626 59.0604 -0.834666 H 0.0 **** 0.053
15610 H15610 47.5577 58.2696 -0.156333 H 0.0 **** 0.353
15611 H15611 48.2294 46.0225 8.20538 H 0.0 **** 0.053
15612 H15612 50.4894 45.0879 7.8783 H 0.0 **** 0.053
15613 H15613 50.6807 46.23 5.10146 H 0.0 **** 0.053
15614 H15614 51.5522 44.8662 5.81547 H 0.0 **** 0.053
15615 H15615 50.1658 43.7355 4.25323 H 0.0 **** 0.053
15616 H15616 48.848 44.9095 4.41527 H 0.0 **** 0.053
15617 H15617 49.6421 42.902 6.59058 H 0.0 **** 0.053
15618 H15618 48.2876 42.6672 5.48208 H 0.0 **** 0.053
15619 H15619 47.8246 43.7421 7.87675 H 0.0 **** 0.053
15620 H15620 46.9825 44.4047 6.4698 H 0.0 **** 0.053
15621 H15621 46.299 47.4965 4.85759 H 0.0 **** 0.1268
15622 H15622 44.3905 48.1635 3.43111 H 0.0 **** 0.1268
15623 H15623 46.1266 55.0186 2.19146 H 0.0 **** 0.1268
15624 H15624 43.9931 55.6781 1.19517 H 0.0 **** 0.053
15625 H15625 41.8701 54.9721 0.961501 H 0.0 **** 0.053
15626 H15626 42.6836 54.2417 -1.86286 H 0.0 **** 0.053
15627 H15627 42.5573 56.9698 -0.521155 H 0.0 **** 0.053
15628 H15628 42.5299 56.7801 -2.28039 H 0.0 **** 0.053
15629 H15629 44.8726 57.0421 -0.939157 H 0.0 **** 0.053
15630 H15630 44.7601 56.0659 -2.40766 H 0.0 **** 0.053
15631 H15631 45.9228 55.0116 -0.269616 H 0.0 **** 0.053
15632 H15632 44.8188 53.9961 -1.19536 H 0.0 **** 0.053
15633 H15633 61.1386 51.9578 7.64748 H 0.0 **** 0.053
15634 H15634 59.5508 52.328 5.81038 H 0.0 **** 0.053
15635 H15635 59.1897 53.9693 6.385 H 0.0 **** 0.053
15636 H15636 58.6722 52.563 7.34043 H 0.0 **** 0.053
15637 H15637 62.8821 53.6419 7.04852 H 0.0 **** 0.053
15638 H15638 61.6373 54.6809 6.31095 H 0.0 **** 0.053
15639 H15639 61.9987 53.0947 5.5975 H 0.0 **** 0.053
15640 H15640 50.517 56.9767 6.35768 H 0.0 **** 0.41
15641 H15641 41.0655 48.3131 1.47858 H 0.0 **** 0.1268
15642 H15642 38.8324 47.7548 0.577467 H 0.0 **** 0.1268
15643 H15643 36.7715 48.4322 -0.602931 H 0.0 **** 0.1268
15644 H15644 34.7072 49.0951 -1.76309 H 0.0 **** 0.1268
15645 H15645 33.3758 50.8157 -2.95988 H 0.0 **** 0.1268
15646 H15646 34.1025 55.3312 -4.30124 H 0.0 **** 0.1268
15647 H15647 33.1544 53.1024 -3.85323 H 0.0 **** 0.1268
15648 H15648 40.4559 56.7215 -2.30624 H 0.0 **** 0.1268
15649 H15649 39.0212 58.155 -2.2324 H 0.0 **** 0.053
15650 H15650 39.1085 58.0266 -3.99158 H 0.0 **** 0.053
15651 H15651 37.7772 60.0203 -3.35681 H 0.0 **** 0.053
15652 H15652 36.7118 59.0153 -2.35092 H 0.0 **** 0.053
15653 H15653 37.0902 58.7383 -5.38904 H 0.0 **** 0.053
15654 H15654 35.6297 59.3666 -4.61622 H 0.0 **** 0.053
15655 C15655 33.8523 77.8702 23.1721 C.3 0.0 **** 0.054
15656 C15656 32.4752 77.2908 22.7718 C.3 0.0 **** -0.106
15657 C15657 31.7513 76.7076 24.0029 C.3 0.0 **** -0.053
15658 C15658 32.7716 75.9576 24.8747 C.3 0.0 **** -0.053
15659 C15659 33.8691 76.9476 25.3442 C.3 0.0 **** 0.054
15660 O15660 33.9095 78.155 24.574 O.3 0.0 **** -0.32
15661 C15661 33.3643 74.7476 24.1221 C.3 0.0 **** -0.053
15662 C15662 32.3093 74.0261 23.2355 C.3 0.0 **** 0.107
15663 C15663 30.9007 74.2941 23.7378 C.3 0.0 **** -0.106
15664 C15664 30.5616 75.7911 23.6187 C.3 0.0 **** -0.106
15665 O15665 32.5016 72.603 23.2285 O.3 0.0 **** -0.32
15666 C15666 33.8799 72.2238 23.0754 C.3 0.0 **** 0.107
15667 C15667 34.6057 72.5195 24.4001 C.3 0.0 **** -0.053
15668 C15668 33.954 73.7433 25.1086 C.3 0.0 **** -0.106
15669 C15669 36.0908 72.6105 24.2785 C.2 0.0 **** 0.0
15670 C15670 36.7566 72.6135 23.0631 C.2 0.0 **** 0.0
15671 C15671 36.0403 72.6706 21.8137 C.2 0.0 **** 0.0
15672 C15672 34.5373 72.8363 21.8285 C.3 0.0 **** -0.053
15673 C15673 36.7023 72.749 20.6008 C.2 0.0 **** 0.0
15674 C15674 38.1453 72.7185 20.5629 C.2 0.0 **** 0.0
15675 C15675 38.8345 72.6173 21.8094 C.2 0.0 **** 0.232
15676 C15676 38.2058 72.5828 23.0231 C.2 0.0 **** 0.0
15677 C15677 39.0024 72.5267 24.3018 C.3 0.0 **** -0.106
15678 C15678 38.1971 71.8996 25.4404 C.3 0.0 **** -0.106
15679 C15679 36.8511 72.6156 25.5748 C.3 0.0 **** -0.106
15680 O15680 40.2159 72.5877 21.8252 O.3 0.0 **** -0.464
15681 C15681 40.9279 72.5301 20.6518 C.2 0.0 **** 0.232
15682 C15682 40.3066 72.6756 19.3981 C.2 0.0 **** 0.0
15683 C15683 38.8696 72.8097 19.368 C.2 0.0 **** 0.0
15684 C15684 33.9017 72.3867 20.5342 C.2 0.0 **** 0.0
15685 C15685 34.5837 72.7992 19.3103 C.2 0.0 **** 0.0
15686 C15686 35.9765 72.8949 19.336 C.2 0.0 **** 0.0
15687 C15687 33.7669 72.9005 18.1024 C.2 0.0 **** 0.0
15688 C15688 32.6533 72.1189 17.9928 C.2 0.0 **** 0.0
15689 C15689 32.1758 71.275 19.1291 C.3 0.0 **** -0.106
15690 C15690 32.7698 71.6523 20.4507 C.2 0.0 **** -0.1268
15691 C15691 31.8597 72.1308 16.7163 C.3 0.0 **** -0.106
15692 C15692 32.7786 72.4053 15.5223 C.3 0.0 **** -0.106
15693 C15693 33.5855 73.6537 15.7822 C.2 0.0 **** 0.0
15694 C15694 34.0385 73.8915 17.036 C.2 0.0 **** 0.0
15695 C15695 34.6708 75.2089 17.4215 C.3 0.0 **** -0.106
15696 C15696 34.5922 76.2736 16.3214 C.3 0.0 **** -0.053
15697 C15697 34.9085 75.6285 14.9675 C.3 0.0 **** -0.106
15698 C15698 33.8444 74.5834 14.6329 C.3 0.0 **** -0.106
15699 C15699 38.1271 72.9689 18.1512 C.2 0.0 **** -0.012
15700 C15700 36.754 72.9872 18.1423 C.2 0.0 **** -0.1268
15701 C15701 41.1488 72.6132 18.2586 C.2 0.0 **** 0.0
15702 C15702 40.6095 72.7854 16.9336 C.2 0.0 **** -0.012
15703 S15703 38.9356 73.2157 16.6191 S.2 0.0 **** 0.024
15704 C15704 41.4113 72.6836 15.8256 C.2 0.0 **** -0.1268
15705 C15705 42.7981 72.4026 15.9422 C.2 0.0 **** 0.0
15706 C15706 43.3817 72.2561 17.238 C.2 0.0 **** 0.0
15707 C15707 42.5619 72.3724 18.3943 C.2 0.0 **** 0.0
15708 C15708 44.7751 72.0065 17.3453 C.2 0.0 **** 0.0
15709 C15709 45.5696 71.8663 16.1661 C.2 0.0 **** 0.0
15710 C15710 44.9436 71.9484 14.8699 C.2 0.0 **** 0.0
15711 C15711 43.5775 72.2623 14.7981 C.2 0.0 **** -0.1268
15712 C15712 45.7343 71.6977 13.7094 C.2 0.0 **** 0.0
15713 C15713 47.1015 71.5442 13.8409 C.2 0.0 **** 0.042
15714 C15714 47.7847 71.5722 15.0935 C.2 0.0 **** 0.0
15715 C15715 46.9793 71.6691 16.2628 C.2 0.0 **** 0.0
15716 C15716 43.1503 72.2403 19.6973 C.2 0.0 **** 0.0
15717 C15717 42.2817 72.3257 20.8051 C.2 0.0 **** -0.1268
15718 C15718 45.3739 71.9006 18.644 C.2 0.0 **** 0.0
15719 C15719 44.5756 72.0175 19.8212 C.2 0.0 **** 0.0
15720 C15720 47.5833 71.5884 17.5615 C.2 0.0 **** 0.0
15721 C15721 46.7824 71.6866 18.7291 C.2 0.0 **** 0.0
15722 C15722 49.2187 71.4813 15.2151 C.2 0.0 **** 0.0
15723 C15723 49.7941 71.3515 16.5143 C.2 0.0 **** 0.0
15724 C15724 48.9854 71.3973 17.6778 C.2 0.0 **** 0.0
15725 O15725 47.8018 71.261 12.6881 O.3 0.0 **** -0.202
15726 C15726 47.5849 72.1707 11.5726 C.3 0.0 **** 0.107
15727 C15727 46.0842 72.5148 11.4013 C.3 0.0 **** -0.053
15728 C15728 45.2807 71.5299 12.2626 C.3 0.0 **** 0.107
15729 C15729 45.6794 72.5284 9.92219 C.3 0.0 **** -0.106
15730 C15730 46.7854 73.2106 9.11016 C.3 0.0 **** -0.106
15731 C15731 48.0224 72.3097 9.04443 C.3 0.0 **** 0.134
15732 C15732 48.2198 71.4879 10.3623 C.3 0.0 **** -0.053
15733 C15733 49.7174 71.2354 10.6032 C.3 0.0 **** -0.106
15734 C15734 50.4564 70.9639 9.29393 C.3 0.0 **** -0.106
15735 C15735 50.3518 72.2024 8.36022 C.3 0.0 **** 0.081
15736 N15736 49.2057 73.0767 8.65279 N.3 0.0 **** -0.727
15737 C15737 45.2509 71.9044 21.0877 C.2 0.0 **** 0.042
15738 C15738 46.6108 71.6459 21.1653 C.2 0.0 **** 0.042
15739 C15739 47.4179 71.5597 20.0015 C.2 0.0 **** 0.0
15740 O15740 47.2723 71.4806 22.3603 O.3 0.0 **** -0.202
15741 C15741 46.4162 71.2639 23.5029 C.3 0.0 **** 0.107
15742 C15742 45.3032 72.2964 23.4373 C.3 0.0 **** 0.107
15743 O15743 44.5256 72.056 22.2483 O.3 0.0 **** -0.202
15744 C15744 45.8371 73.7436 23.4744 C.3 0.0 **** -0.106
15745 C15745 47.1857 73.8641 24.2166 C.3 0.0 **** -0.106
15746 C15746 47.2786 72.8258 25.3403 C.3 0.0 **** -0.106
15747 C15747 47.2666 71.3932 24.7684 C.3 0.0 **** -0.106
15748 C15748 49.6037 71.2757 18.9661 C.2 0.0 **** 0.0
15749 C15749 48.801 71.3504 20.1043 C.2 0.0 **** -0.1268
15750 C15750 51.2028 71.1894 16.6348 C.2 0.0 **** 0.0
15751 C15751 51.7816 71.0379 17.9328 C.2 0.0 **** 0.042
15752 C15752 51.0173 71.0832 19.0657 C.2 0.0 **** -0.1268
15753 C15753 52.0325 71.192 15.5035 C.2 0.0 **** 0.0
15754 C15754 51.4705 71.4037 14.2378 C.2 0.0 **** 0.0
15755 C15755 50.0998 71.5418 14.1182 C.2 0.0 **** -0.1268
15756 O15756 53.1486 70.8515 18.072 O.3 0.0 **** -0.0685
15757 C15757 53.9641 70.7801 16.9659 C.2 0.0 **** 0.0265
15758 C15758 53.4486 70.9722 15.6726 C.2 0.0 **** 0.0
15759 C15759 52.3226 71.5282 13.0027 C.3 0.0 **** -0.053
15760 C15760 53.7522 70.9606 13.1601 C.3 0.0 **** -0.053
15761 C15761 54.2953 70.9009 14.5631 C.2 0.0 **** 0.0
15762 C15762 54.7643 71.7144 12.2768 C.3 0.0 **** -0.053
15763 C15763 54.141 72.0176 10.9191 C.3 0.0 **** -0.106
15764 C15764 52.9928 73.0427 11.0941 C.3 0.0 **** -0.106
15765 C15765 52.3693 72.9831 12.5015 C.3 0.0 **** -0.106
15766 C15766 55.6646 70.6458 14.7316 C.2 0.0 **** 0.0
15767 C15767 56.175 70.3866 16.0352 C.2 0.0 **** 0.0
15768 C15768 55.3207 70.4708 17.1793 C.2 0.0 **** 0.0
15769 C15769 56.0802 70.9866 12.3092 C.2 0.0 **** 0.0
15770 C15770 56.5357 70.5681 13.5903 C.2 0.0 **** 0.0
15771 C15771 35.4855 77.4865 16.6561 C.3 0.0 **** -0.053
15772 C15772 36.9802 77.1857 16.4854 C.3 0.0 **** -0.159
15773 C15773 35.0909 78.7098 15.8223 C.3 0.0 **** -0.159
15774 O15774 43.8954 71.7079 11.9628 O.3 0.0 **** -0.57
15775 C15775 55.8683 70.214 18.4787 C.2 0.0 **** -0.1268
15776 C15776 57.1804 69.8597 18.6266 C.2 0.0 **** -0.1268
15777 C15777 58.0542 69.722 17.4975 C.2 0.0 **** 0.0
15778 C15778 57.5339 69.9955 16.1913 C.2 0.0 **** 0.0
15779 C15779 58.37 69.8437 15.0534 C.2 0.0 **** 0.0
15780 C15780 59.7124 69.4248 15.2083 C.2 0.0 **** 0.0
15781 C15781 60.226 69.159 16.5187 C.2 0.0 **** 0.0
15782 C15782 59.3856 69.3153 17.6326 C.2 0.0 **** -0.1268
15783 C15783 61.5845 68.7363 16.6552 C.2 0.0 **** -0.1268
15784 C15784 62.3877 68.584 15.5561 C.2 0.0 **** -0.1268
15785 C15785 61.8975 68.8461 14.2402 C.2 0.0 **** 0.0
15786 C15786 60.5539 69.2725 14.0667 C.2 0.0 **** 0.0
15787 C15787 60.0568 69.5506 12.7575 C.2 0.0 **** 0.0
15788 C15788 58.7087 69.9826 12.6059 C.2 0.0 **** 0.0
15789 C15789 57.8657 70.1256 13.7448 C.2 0.0 **** 0.0
15790 C15790 60.9027 69.4151 11.6168 C.2 0.0 **** 0.0
15791 C15791 62.2352 68.9644 11.8286 C.2 0.0 **** -0.1268
15792 C15792 62.7093 68.6899 13.0944 C.2 0.0 **** -0.1268
15793 C15793 56.8837 70.8034 11.2062 C.2 0.0 **** -0.1268
15794 C15794 58.1922 70.2628 11.311 C.2 0.0 **** 0.0
15795 C15795 60.3615 69.6962 10.3028 C.2 0.0 **** 0.052
15796 C15796 59.0124 70.0477 10.1602 C.2 0.0 **** 0.0
15797 C15797 58.375 70.2082 8.79797 C.3 0.0 **** -0.106
15798 C15798 59.1086 69.4136 7.72452 C.3 0.0 **** -0.106
15799 C15799 60.5672 69.8398 7.7246 C.3 0.0 **** -0.086
15800 C15800 61.2337 69.7172 9.08918 C.2 0.0 **** 0.347
15801 O15801 62.465 69.7024 9.12941 O.2 0.0 **** -0.419
15802 H15802 34.0556 78.8217 22.6621 H 0.0 **** 0.053
15803 H15803 34.6638 77.1623 22.9095 H 0.0 **** 0.053
15804 H15804 31.8407 78.0683 22.3194 H 0.0 **** 0.053
15805 H15805 32.6142 76.5065 22.0109 H 0.0 **** 0.053
15806 H15806 31.3751 77.5588 24.5889 H 0.0 **** 0.053
15807 H15807 32.2524 75.5721 25.7681 H 0.0 **** 0.053
15808 H15808 34.8616 76.4523 25.2989 H 0.0 **** 0.053
15809 H15809 33.6941 77.2759 26.3784 H 0.0 **** 0.053
15810 H15810 34.1788 75.1191 23.4798 H 0.0 **** 0.053
15811 H15811 32.3845 74.3918 22.1932 H 0.0 **** 0.053
15812 H15812 30.8388 73.9658 24.7879 H 0.0 **** 0.053
15813 H15813 30.1846 73.6854 23.1673 H 0.0 **** 0.053
15814 H15814 29.6935 76.0124 24.2576 H 0.0 **** 0.053
15815 H15815 30.2544 76.017 22.5842 H 0.0 **** 0.053
15816 H15816 33.8531 71.1353 22.9197 H 0.0 **** 0.053
15817 H15817 34.4071 71.6592 25.0677 H 0.0 **** 0.053
15818 H15818 34.6868 74.2391 25.7622 H 0.0 **** 0.053
15819 H15819 33.1358 73.3879 25.7547 H 0.0 **** 0.053
15820 H15820 34.3943 73.9353 21.8656 H 0.0 **** 0.053
15821 H15821 39.9416 71.9802 24.1341 H 0.0 **** 0.053
15822 H15822 39.2942 73.5541 24.5911 H 0.0 **** 0.053
15823 H15823 38.7624 71.9522 26.3833 H 0.0 **** 0.053
15824 H15824 38.0177 70.8352 25.2177 H 0.0 **** 0.053
15825 H15825 37.032 73.6578 25.9062 H 0.0 **** 0.053
15826 H15826 36.2338 72.1531 26.3635 H 0.0 **** 0.053
15827 H15827 32.3871 70.2037 18.9169 H 0.0 **** 0.053
15828 H15828 31.07 71.3193 19.1732 H 0.0 **** 0.053
15829 H15829 32.2557 71.3159 21.3495 H 0.0 **** 0.1268
15830 H15830 31.3271 71.1738 16.5972 H 0.0 **** 0.053
15831 H15831 31.0832 72.9204 16.7761 H 0.0 **** 0.053
15832 H15832 32.1983 72.5156 14.5929 H 0.0 **** 0.053
15833 H15833 33.4561 71.5414 15.3794 H 0.0 **** 0.053
15834 H15834 34.1673 75.5788 18.3326 H 0.0 **** 0.053
15835 H15835 35.721 75.066 17.7181 H 0.0 **** 0.053
15836 H15836 33.5481 76.6357 16.2737 H 0.0 **** 0.053
15837 H15837 35.8931 75.1362 15.0248 H 0.0 **** 0.053
15838 H15838 34.9668 76.3871 14.1719 H 0.0 **** 0.053
15839 H15839 34.1437 73.9864 13.7522 H 0.0 **** 0.053
15840 H15840 32.9006 75.0833 14.3395 H 0.0 **** 0.053
15841 H15841 36.2326 73.0363 17.1866 H 0.0 **** 0.1268
15842 H15842 40.9903 72.8083 14.8254 H 0.0 **** 0.1268
15843 H15843 43.1119 72.4335 13.8326 H 0.0 **** 0.1268
15844 H15844 42.6545 72.2241 21.8137 H 0.0 **** 0.1268
15845 H15845 48.1515 73.0938 11.797 H 0.0 **** 0.053
15846 H15846 45.9065 73.5207 11.814 H 0.0 **** 0.053
15847 H15847 45.5834 70.5095 11.9489 H 0.0 **** 0.053
15848 H15848 45.5316 71.4954 9.56326 H 0.0 **** 0.053
15849 H15849 44.7153 73.0408 9.81236 H 0.0 **** 0.053
15850 H15850 47.0578 74.1637 9.59869 H 0.0 **** 0.053
15851 H15851 46.4634 73.4624 8.09043 H 0.0 **** 0.053
15852 H15852 47.8607 71.5754 8.23678 H 0.0 **** 0.053
15853 H15853 47.7114 70.5163 10.2414 H 0.0 **** 0.053
15854 H15854 50.154 72.1327 11.0748 H 0.0 **** 0.053
15855 H15855 49.8506 70.4134 11.3196 H 0.0 **** 0.053
15856 H15856 50.0118 70.0813 8.80672 H 0.0 **** 0.053
15857 H15857 51.5135 70.722 9.48802 H 0.0 **** 0.053
15858 H15858 50.2737 71.8703 7.31114 H 0.0 **** 0.053
15859 H15859 51.262 72.816 8.43293 H 0.0 **** 0.053
15860 H15860 49.4462 73.7277 9.40131 H 0.0 **** 0.353
15861 H15861 45.9792 70.2555 23.4115 H 0.0 **** 0.053
15862 H15862 44.5978 72.1152 24.2606 H 0.0 **** 0.053
15863 H15863 45.9438 74.0943 22.4377 H 0.0 **** 0.053
15864 H15864 45.0749 74.3761 23.9526 H 0.0 **** 0.053
15865 H15865 47.2982 74.882 24.6177 H 0.0 **** 0.053
15866 H15866 48.0105 73.698 23.5078 H 0.0 **** 0.053
15867 H15867 46.4227 72.9613 26.0236 H 0.0 **** 0.053
15868 H15868 48.1868 72.9756 25.9424 H 0.0 **** 0.053
15869 H15869 46.8937 70.6832 25.5216 H 0.0 **** 0.053
15870 H15870 48.2862 71.0735 24.5037 H 0.0 **** 0.053
15871 H15871 49.2541 71.2506 21.0894 H 0.0 **** 0.1268
15872 H15872 51.4813 70.9775 20.0469 H 0.0 **** 0.1268
15873 H15873 49.6908 71.6881 13.1309 H 0.0 **** 0.1268
15874 H15874 51.8306 70.9517 12.2045 H 0.0 **** 0.053
15875 H15875 53.7372 69.9142 12.7951 H 0.0 **** 0.053
15876 H15876 54.9611 72.6844 12.7763 H 0.0 **** 0.053
15877 H15877 53.7598 71.0754 10.4902 H 0.0 **** 0.053
15878 H15878 54.888 72.4106 10.2149 H 0.0 **** 0.053
15879 H15879 52.2138 72.8445 10.3444 H 0.0 **** 0.053
15880 H15880 53.3688 74.0596 10.9029 H 0.0 **** 0.053
15881 H15881 51.3514 73.4012 12.4939 H 0.0 **** 0.053
15882 H15882 52.9478 73.5882 13.2175 H 0.0 **** 0.053
15883 H15883 35.3047 77.7283 17.7195 H 0.0 **** 0.053
15884 H15884 37.5871 78.0231 16.8612 H 0.0 **** 0.053
15885 H15885 37.2265 77.048 15.4212 H 0.0 **** 0.053
15886 H15886 37.2906 76.2752 17.0202 H 0.0 **** 0.053
15887 H15887 34.0273 78.9594 15.9624 H 0.0 **** 0.053
15888 H15888 35.256 78.5208 14.7496 H 0.0 **** 0.053
15889 H15889 35.6915 79.5893 16.1003 H 0.0 **** 0.053
15890 H15890 43.4125 70.9823 12.3877 H 0.0 **** 0.41
15891 H15891 55.2148 70.298 19.3469 H 0.0 **** 0.1268
15892 H15892 57.5877 69.6615 19.6196 H 0.0 **** 0.1268
15893 H15893 59.7807 69.1056 18.629 H 0.0 **** 0.1268
15894 H15894 61.9665 68.5351 17.6576 H 0.0 **** 0.1268
15895 H15895 63.4225 68.2538 15.666 H 0.0 **** 0.1268
15896 H15896 62.8853 68.8498 10.9679 H 0.0 **** 0.1268
15897 H15897 63.7363 68.3415 13.2227 H 0.0 **** 0.1268
15898 H15898 56.5159 71.1242 10.2353 H 0.0 **** 0.1268
15899 H15899 57.3267 69.8821 8.85025 H 0.0 **** 0.053
15900 H15900 58.3556 71.2783 8.51739 H 0.0 **** 0.053
15901 H15901 58.6456 69.5743 6.73909 H 0.0 **** 0.053
15902 H15902 59.0314 68.3386 7.95605 H 0.0 **** 0.053
15903 H15903 60.6421 70.9051 7.43777 H 0.0 **** 0.053
15904 H15904 61.1879 69.2786 7.01173 H 0.0 **** 0.053
15905 C15905 67.7149 29.1226 35.1229 C.3 0.0 **** 0.054
15906 C15906 67.7052 30.5523 35.713 C.3 0.0 **** -0.106
15907 C15907 68.896 30.7531 36.6729 C.3 0.0 **** -0.053
15908 C15908 69.0766 29.4822 37.519 C.3 0.0 **** -0.053
15909 C15909 69.3676 28.281 36.5823 C.3 0.0 **** 0.054
15910 O15910 69.0148 28.5299 35.2162 O.3 0.0 **** -0.32
15911 C15911 67.8476 29.2328 38.4185 C.3 0.0 **** -0.053
15912 C15912 67.2483 30.5527 38.9828 C.3 0.0 **** 0.107
15913 C15913 68.2895 31.6588 39.0034 C.3 0.0 **** -0.106
15914 C15914 68.7354 32.0062 37.5713 C.3 0.0 **** -0.106
15915 O15915 66.7662 30.3887 40.3255 O.3 0.0 **** -0.32
15916 C15916 66.0133 29.1775 40.5075 C.3 0.0 **** 0.107
15917 C15917 67.0008 27.9968 40.5014 C.3 0.0 **** -0.053
15918 C15918 68.2164 28.3176 39.5829 C.3 0.0 **** -0.106
15919 C15919 66.3699 26.6713 40.2299 C.2 0.0 **** 0.0
15920 C15920 65.0495 26.5227 39.8363 C.2 0.0 **** 0.0
15921 C15921 64.2255 27.6629 39.5231 C.2 0.0 **** 0.0
15922 C15922 64.8415 29.044 39.522 C.3 0.0 **** -0.053
15923 C15923 62.9302 27.5163 39.0583 C.2 0.0 **** 0.0
15924 C15924 62.3544 26.1984 38.9297 C.2 0.0 **** 0.0
15925 C15925 63.1733 25.0846 39.2872 C.2 0.0 **** 0.232
15926 C15926 64.4696 25.1999 39.7068 C.2 0.0 **** 0.0
15927 C15927 65.2901 23.9742 40.0185 C.3 0.0 **** -0.106
15928 C15928 66.4166 24.286 41.0044 C.3 0.0 **** -0.106
15929 C15929 67.2369 25.4719 40.4914 C.3 0.0 **** -0.106
15930 O15930 62.6681 23.8031 39.1784 O.3 0.0 **** -0.464
15931 C15931 61.3506 23.5961 38.8492 C.2 0.0 **** 0.232
15932 C15932 60.5128 24.6496 38.4405 C.2 0.0 **** 0.0
15933 C15933 61.0556 25.9872 38.451 C.2 0.0 **** 0.0
15934 C15934 63.8038 30.1309 39.6744 C.2 0.0 **** 0.0
15935 C15935 62.5864 29.9674 38.8842 C.2 0.0 **** 0.0
15936 C15936 62.1213 28.6706 38.6569 C.2 0.0 **** 0.0
15937 C15937 61.8487 31.1842 38.55 C.2 0.0 **** 0.0
15938 C15938 61.9413 32.2606 39.3842 C.2 0.0 **** 0.0
15939 C15939 62.883 32.2721 40.5437 C.3 0.0 **** -0.106
15940 C15940 63.9396 31.2138 40.4721 C.2 0.0 **** -0.1268
15941 C15941 61.109 33.483 39.1151 C.3 0.0 **** -0.106
15942 C15942 59.7912 33.0903 38.441 C.3 0.0 **** -0.106
15943 C15943 60.0778 32.236 37.2306 C.2 0.0 **** 0.0
15944 C15944 61.0869 31.3348 37.2891 C.2 0.0 **** 0.0
15945 C15945 61.5688 30.593 36.0638 C.3 0.0 **** -0.106
15946 C15946 60.9276 31.0794 34.7591 C.3 0.0 **** -0.053
15947 C15947 59.4296 31.3115 34.9857 C.3 0.0 **** -0.106
15948 C15948 59.2299 32.4306 36.0077 C.3 0.0 **** -0.106
15949 C15949 60.2992 27.1384 38.0513 C.2 0.0 **** -0.012
15950 C15950 60.8042 28.4097 38.1719 C.2 0.0 **** -0.1268
15951 C15951 59.1757 24.3095 38.1117 C.2 0.0 **** 0.0
15952 C15952 58.2521 25.3145 37.65 C.2 0.0 **** -0.012
15953 S15953 58.7152 26.9776 37.3253 S.2 0.0 **** 0.024
15954 C15954 56.9466 24.9997 37.3714 C.2 0.0 **** -0.1268
15955 C15955 56.457 23.6765 37.5298 C.2 0.0 **** 0.0
15956 C15956 57.3457 22.6416 37.9546 C.2 0.0 **** 0.0
15957 C15957 58.7047 22.9543 38.234 C.2 0.0 **** 0.0
15958 C15958 56.8544 21.3156 38.0798 C.2 0.0 **** 0.0
15959 C15959 55.4778 21.0353 37.8199 C.2 0.0 **** 0.0
15960 C15960 54.586 22.11 37.4611 C.2 0.0 **** 0.0
15961 C15961 55.1169 23.3966 37.2809 C.2 0.0 **** -0.1268
15962 C15962 53.1959 21.8269 37.3125 C.2 0.0 **** 0.0
15963 C15963 52.763 20.515 37.3546 C.2 0.0 **** 0.042
15964 C15964 53.6263 19.4035 37.5904 C.2 0.0 **** 0.0
15965 C15965 54.9859 19.6979 37.8903 C.2 0.0 **** 0.0
15966 C15966 59.6021 21.9122 38.6463 C.2 0.0 **** 0.0
15967 C15967 60.9275 22.2886 38.9474 C.2 0.0 **** -0.1268
15968 C15968 57.7516 20.2653 38.4648 C.2 0.0 **** 0.0
15969 C15969 59.1213 20.5501 38.747 C.2 0.0 **** 0.0
15970 C15970 55.8884 18.6426 38.2507 C.2 0.0 **** 0.0
15971 C15971 57.2452 18.9336 38.5485 C.2 0.0 **** 0.0
15972 C15972 53.1778 18.0332 37.5632 C.2 0.0 **** 0.0
15973 C15973 54.0773 17.0045 37.9736 C.2 0.0 **** 0.0
15974 C15974 55.4185 17.3047 38.3213 C.2 0.0 **** 0.0
15975 O15975 51.4038 20.3126 37.2485 O.3 0.0 **** -0.202
15976 C15976 50.756 20.9339 36.1024 C.3 0.0 **** 0.107
15977 C15977 51.2573 22.3828 35.8806 C.3 0.0 **** -0.053
15978 C15978 52.0362 22.802 37.1357 C.3 0.0 **** 0.107
15979 C15979 50.1025 23.3239 35.5163 C.3 0.0 **** -0.106
15980 C15980 49.1693 22.6088 34.5335 C.3 0.0 **** -0.106
15981 C15981 48.3976 21.4986 35.2532 C.3 0.0 **** 0.134
15982 C15982 49.2566 20.8171 36.3707 C.3 0.0 **** -0.053
15983 C15983 48.8441 19.3436 36.5235 C.3 0.0 **** -0.106
15984 C15984 47.3355 19.1655 36.3606 C.3 0.0 **** -0.106
15985 C15985 46.9005 19.6107 34.9361 C.3 0.0 **** 0.081
15986 N15986 47.8317 20.5501 34.2929 N.3 0.0 **** -0.727
15987 C15987 59.9597 19.4415 39.1226 C.2 0.0 **** 0.042
15988 C15988 59.452 18.1579 39.2518 C.2 0.0 **** 0.042
15989 C15989 58.0996 17.8597 38.9429 C.2 0.0 **** 0.0
15990 O15990 60.2174 17.0899 39.6598 O.3 0.0 **** -0.202
15991 C15991 61.483 17.4439 40.2585 C.3 0.0 **** 0.107
15992 C15992 62.1301 18.4889 39.3651 C.3 0.0 **** 0.107
15993 O15993 61.2976 19.665 39.3595 O.3 0.0 **** -0.202
15994 C15994 62.3772 17.9706 37.933 C.3 0.0 **** -0.106
15995 C15995 62.5692 16.4396 37.8765 C.3 0.0 **** -0.106
15996 C15996 63.2335 15.9308 39.1607 C.3 0.0 **** -0.106
15997 C15997 62.3247 16.1722 40.3835 C.3 0.0 **** -0.106
15998 C15998 56.2948 16.2405 38.7166 C.2 0.0 **** 0.0
15999 C15999 57.6196 16.5446 39.0294 C.2 0.0 **** -0.1268
16000 C16000 53.6169 15.6586 38.0169 C.2 0.0 **** 0.0
16001 C16001 54.5079 14.6273 38.4475 C.2 0.0 **** 0.042
16002 C16002 55.8055 14.8983 38.783 C.2 0.0 **** -0.1268
16003 C16003 52.3101 15.3263 37.6292 C.2 0.0 **** 0.0
16004 C16004 51.4586 16.3292 37.1477 C.2 0.0 **** 0.0
16005 C16005 51.8989 17.6398 37.1238 C.2 0.0 **** -0.1268
16006 O16006 54.0725 13.313 38.5232 O.3 0.0 **** -0.0685
16007 C16007 52.7723 12.9848 38.2147 C.2 0.0 **** 0.0265
16008 C16008 51.8736 13.9554 37.7398 C.2 0.0 **** 0.0
16009 C16009 50.0865 16.0151 36.6132 C.3 0.0 **** -0.053
16010 C16010 49.5356 14.6389 37.0529 C.3 0.0 **** -0.053
16011 C16011 50.5589 13.5997 37.427 C.2 0.0 **** 0.0
16012 C16012 48.5945 14.0373 35.9922 C.3 0.0 **** -0.053
16013 C16013 47.7103 15.1313 35.4049 C.3 0.0 **** -0.106
16014 C16014 48.5812 16.1167 34.5861 C.3 0.0 **** -0.106
16015 C16015 50.0396 16.153 35.0807 C.3 0.0 **** -0.106
16016 C16016 50.129 12.2724 37.5762 C.2 0.0 **** 0.0
16017 C16017 51.0196 11.3031 38.1185 C.2 0.0 **** 0.0
16018 C16018 52.3715 11.6524 38.429 C.2 0.0 **** 0.0
16019 C16019 47.9295 12.8152 36.5639 C.2 0.0 **** 0.0
16020 C16020 48.7754 11.9064 37.2586 C.2 0.0 **** 0.0
16021 C16021 61.2383 30.1168 33.5938 C.3 0.0 **** -0.053
16022 C16022 60.4491 28.8042 33.6839 C.3 0.0 **** -0.159
16023 C16023 60.9946 30.7916 32.24 C.3 0.0 **** -0.159
16024 O16024 52.3338 24.195 37.0271 O.3 0.0 **** -0.57
16025 C16025 53.2453 10.6504 38.9641 C.2 0.0 **** -0.1268
16026 C16026 52.7902 9.3846 39.2088 C.2 0.0 **** -0.1268
16027 C16027 51.4292 9.01186 38.9516 C.2 0.0 **** 0.0
16028 C16028 50.544 9.99125 38.3959 C.2 0.0 **** 0.0
16029 C16029 49.1852 9.65676 38.1538 C.2 0.0 **** 0.0
16030 C16030 48.7067 8.36091 38.4591 C.2 0.0 **** 0.0
16031 C16031 49.6002 7.38597 39.0093 C.2 0.0 **** 0.0
16032 C16032 50.9407 7.73364 39.2412 C.2 0.0 **** -0.1268
16033 C16033 49.0984 6.08233 39.3118 C.2 0.0 **** -0.1268
16034 C16034 47.786 5.7634 39.0839 C.2 0.0 **** -0.1268
16035 C16035 46.8779 6.71873 38.5334 C.2 0.0 **** 0.0
16036 C16036 47.3425 8.02283 38.216 C.2 0.0 **** 0.0
16037 C16037 46.4473 8.98194 37.6527 C.2 0.0 **** 0.0
16038 C16038 46.9346 10.2817 37.3363 C.2 0.0 **** 0.0
16039 C16039 48.2944 10.6223 37.5878 C.2 0.0 **** 0.0
16040 C16040 45.087 8.63942 37.3932 C.2 0.0 **** 0.0
16041 C16041 44.6535 7.33105 37.7451 C.2 0.0 **** -0.1268
16042 C16042 45.5198 6.40981 38.2959 C.2 0.0 **** -0.1268
16043 C16043 46.6047 12.4977 36.3645 C.2 0.0 **** -0.1268
16044 C16044 46.0599 11.2533 36.7767 C.2 0.0 **** 0.0
16045 C16045 44.2048 9.64102 36.8303 C.2 0.0 **** 0.052
16046 C16046 44.6775 10.9389 36.5935 C.2 0.0 **** 0.0
16047 C16047 43.7539 12.0489 36.1432 C.3 0.0 **** -0.106
16048 C16048 42.3072 11.7892 36.545 C.3 0.0 **** -0.106
16049 C16049 41.8891 10.4389 35.9871 C.3 0.0 **** -0.086
16050 C16050 42.8148 9.3009 36.3988 C.2 0.0 **** 0.347
16051 O16051 42.3909 8.14855 36.2976 O.2 0.0 **** -0.419
16052 H16052 67.4592 29.1232 34.0545 H 0.0 **** 0.053
16053 H16053 66.9812 28.4793 35.6488 H 0.0 **** 0.053
16054 H16054 67.7608 31.3058 34.9124 H 0.0 **** 0.053
16055 H16055 66.7577 30.7218 36.2486 H 0.0 **** 0.053
16056 H16056 69.7955 30.8692 36.0509 H 0.0 **** 0.053
16057 H16057 69.9491 29.6219 38.1788 H 0.0 **** 0.053
16058 H16058 68.8196 27.3856 36.9435 H 0.0 **** 0.053
16059 H16059 70.4404 28.0434 36.5599 H 0.0 **** 0.053
16060 H16060 67.0839 28.7242 37.8086 H 0.0 **** 0.053
16061 H16061 66.4024 30.8802 38.3478 H 0.0 **** 0.053
16062 H16062 69.1479 31.3157 39.6032 H 0.0 **** 0.053
16063 H16063 67.8766 32.5436 39.5087 H 0.0 **** 0.053
16064 H16064 69.6844 32.561 37.6176 H 0.0 **** 0.053
16065 H16065 67.9982 32.6849 37.1115 H 0.0 **** 0.053
16066 H16066 65.5758 29.2703 41.5124 H 0.0 **** 0.053
16067 H16067 67.4201 27.9307 41.5236 H 0.0 **** 0.053
16068 H16068 68.6647 27.3863 39.2061 H 0.0 **** 0.053
16069 H16069 68.9894 28.828 40.1788 H 0.0 **** 0.053
16070 H16070 65.2397 29.1534 38.4929 H 0.0 **** 0.053
16071 H16071 64.6391 23.1754 40.4018 H 0.0 **** 0.053
16072 H16072 65.7303 23.5859 39.0806 H 0.0 **** 0.053
16073 H16073 67.0566 23.4018 41.1464 H 0.0 **** 0.053
16074 H16074 65.9833 24.5452 41.984 H 0.0 **** 0.053
16075 H16075 67.7595 25.1698 39.5617 H 0.0 **** 0.053
16076 H16076 68.0312 25.743 41.2073 H 0.0 **** 0.053
16077 H16077 62.3124 32.1666 41.4928 H 0.0 **** 0.053
16078 H16078 63.3434 33.2761 40.6262 H 0.0 **** 0.053
16079 H16079 64.829 31.3464 41.0858 H 0.0 **** 0.1268
16080 H16080 60.9285 34.0279 40.0555 H 0.0 **** 0.053
16081 H16081 61.6736 34.1711 38.4535 H 0.0 **** 0.053
16082 H16082 59.2151 33.9818 38.1479 H 0.0 **** 0.053
16083 H16083 59.1686 32.5261 39.162 H 0.0 **** 0.053
16084 H16084 62.666 30.7056 36.0026 H 0.0 **** 0.053
16085 H16085 61.4021 29.5105 36.1721 H 0.0 **** 0.053
16086 H16086 61.3744 32.059 34.5062 H 0.0 **** 0.053
16087 H16087 58.9762 30.3841 35.3722 H 0.0 **** 0.053
16088 H16088 58.92 31.5571 34.0414 H 0.0 **** 0.053
16089 H16089 58.1704 32.4965 36.3157 H 0.0 **** 0.053
16090 H16090 59.4615 33.4108 35.5471 H 0.0 **** 0.053
16091 H16091 60.1657 29.2574 37.9245 H 0.0 **** 0.1268
16092 H16092 56.253 25.7713 37.0294 H 0.0 **** 0.1268
16093 H16093 54.4838 24.1957 36.9081 H 0.0 **** 0.1268
16094 H16094 61.6529 21.5583 39.2744 H 0.0 **** 0.1268
16095 H16095 51.0076 20.3175 35.2191 H 0.0 **** 0.053
16096 H16096 51.9741 22.3809 35.044 H 0.0 **** 0.053
16097 H16097 51.3565 22.6506 37.9997 H 0.0 **** 0.053
16098 H16098 49.5459 23.606 36.4264 H 0.0 **** 0.053
16099 H16099 50.5076 24.2524 35.0945 H 0.0 **** 0.053
16100 H16100 49.7718 22.1625 33.7217 H 0.0 **** 0.053
16101 H16101 48.458 23.2954 34.0544 H 0.0 **** 0.053
16102 H16102 47.5341 21.9633 35.7593 H 0.0 **** 0.053
16103 H16103 49.0613 21.3404 37.3221 H 0.0 **** 0.053
16104 H16104 49.3549 18.7526 35.7438 H 0.0 **** 0.053
16105 H16105 49.1948 18.9521 37.4881 H 0.0 **** 0.053
16106 H16106 46.8179 19.7696 37.1229 H 0.0 **** 0.053
16107 H16107 47.0475 18.1166 36.5359 H 0.0 **** 0.053
16108 H16108 45.907 20.0877 34.984 H 0.0 **** 0.053
16109 H16109 46.8028 18.7375 34.274 H 0.0 **** 0.053
16110 H16110 48.59 20.0359 33.8429 H 0.0 **** 0.353
16111 H16111 61.2769 17.8902 41.2456 H 0.0 **** 0.053
16112 H16112 63.0677 18.826 39.8296 H 0.0 **** 0.053
16113 H16113 61.5204 18.267 37.3106 H 0.0 **** 0.053
16114 H16114 63.2618 18.4862 37.5316 H 0.0 **** 0.053
16115 H16115 63.172 16.1741 36.9956 H 0.0 **** 0.053
16116 H16116 61.5901 15.9511 37.7631 H 0.0 **** 0.053
16117 H16117 64.193 16.4579 39.2998 H 0.0 **** 0.053
16118 H16118 63.4729 14.8599 39.084 H 0.0 **** 0.053
16119 H16119 62.9269 16.2331 41.3023 H 0.0 **** 0.053
16120 H16120 61.6226 15.3346 40.5154 H 0.0 **** 0.053
16121 H16121 58.295 15.7491 39.3402 H 0.0 **** 0.1268
16122 H16122 56.4717 14.0942 39.0974 H 0.0 **** 0.1268
16123 H16123 51.2185 18.3951 36.7633 H 0.0 **** 0.1268
16124 H16124 49.3984 16.78 37.0044 H 0.0 **** 0.053
16125 H16125 48.9207 14.8008 37.9607 H 0.0 **** 0.053
16126 H16126 49.2394 13.6565 35.1748 H 0.0 **** 0.053
16127 H16127 47.2039 15.6552 36.2333 H 0.0 **** 0.053
16128 H16128 46.9229 14.7086 34.7647 H 0.0 **** 0.053
16129 H16129 48.1497 17.1251 34.6568 H 0.0 **** 0.053
16130 H16130 48.5622 15.835 33.522 H 0.0 **** 0.053
16131 H16131 50.5282 17.0928 34.7819 H 0.0 **** 0.053
16132 H16132 50.6312 15.3396 34.6315 H 0.0 **** 0.053
16133 H16133 62.3145 29.874 33.6628 H 0.0 **** 0.053
16134 H16134 60.7952 28.0932 32.9188 H 0.0 **** 0.053
16135 H16135 59.3775 28.986 33.5082 H 0.0 **** 0.053
16136 H16136 60.5484 28.3194 34.667 H 0.0 **** 0.053
16137 H16137 61.5828 31.7182 32.1468 H 0.0 **** 0.053
16138 H16138 59.931 31.052 32.1196 H 0.0 **** 0.053
16139 H16139 61.2685 30.1236 31.4093 H 0.0 **** 0.053
16140 H16140 52.6818 24.4835 37.8849 H 0.0 **** 0.41
16141 H16141 54.2788 10.9202 39.1809 H 0.0 **** 0.1268
16142 H16142 53.4615 8.62908 39.6207 H 0.0 **** 0.1268
16143 H16143 51.6163 6.98813 39.6663 H 0.0 **** 0.1268
16144 H16144 49.7867 5.34656 39.7317 H 0.0 **** 0.1268
16145 H16145 47.4067 4.76811 39.3237 H 0.0 **** 0.1268
16146 H16146 43.6192 7.06173 37.56 H 0.0 **** 0.1268
16147 H16147 45.1544 5.4148 38.5589 H 0.0 **** 0.1268
16148 H16148 45.9732 13.2073 35.8368 H 0.0 **** 0.1268
16149 H16149 44.095 12.9993 36.577 H 0.0 **** 0.053
16150 H16150 43.8173 12.1662 35.0448 H 0.0 **** 0.053
16151 H16151 41.6524 12.5936 36.1766 H 0.0 **** 0.053
16152 H16152 42.2348 11.7799 37.6449 H 0.0 **** 0.053
16153 H16153 41.9107 10.4716 34.882 H 0.0 **** 0.053
16154 H16154 40.8694 10.1435 36.2724 H 0.0 **** 0.053
16155 C16155 52.5946 46.3968 34.6616 C.3 0.0 **** 0.054
16156 C16156 52.9094 45.0634 33.9437 C.3 0.0 **** -0.106
16157 C16157 53.0202 45.2784 32.4201 C.3 0.0 **** -0.053
16158 C16158 51.9168 46.2498 31.9702 C.3 0.0 **** -0.053
16159 C16159 52.1028 47.6074 32.6963 C.3 0.0 **** 0.054
16160 O16160 52.9488 47.5214 33.8494 O.3 0.0 **** -0.32
16161 C16161 50.5151 45.65 32.2102 C.3 0.0 **** -0.053
16162 C16162 50.4687 44.1207 31.93 C.3 0.0 **** 0.107
16163 C16163 51.5797 43.707 30.9798 C.3 0.0 **** -0.106
16164 C16164 52.9573 43.9507 31.6226 C.3 0.0 **** -0.106
16165 O16165 49.2228 43.7246 31.3358 O.3 0.0 **** -0.32
16166 C16166 48.0818 44.3259 31.9711 C.3 0.0 **** 0.107
16167 C16167 48.037 45.8099 31.5649 C.3 0.0 **** -0.053
16168 C16168 49.4797 46.3472 31.332 C.3 0.0 **** -0.106
16169 C16169 47.2096 46.667 32.4645 C.2 0.0 **** 0.0
16170 C16170 46.6744 46.2199 33.662 C.2 0.0 **** 0.0
16171 C16171 47.0025 44.9211 34.1937 C.2 0.0 **** 0.0
16172 C16172 48.0322 44.0695 33.4856 C.3 0.0 **** -0.053
16173 C16173 46.5297 44.5004 35.4245 C.2 0.0 **** 0.0
16174 C16174 45.6406 45.3473 36.184 C.2 0.0 **** 0.0
16175 C16175 45.2932 46.6117 35.6186 C.2 0.0 **** 0.232
16176 C16176 45.7811 47.0691 34.426 C.2 0.0 **** 0.0
16177 C16177 45.4092 48.4382 33.916 C.3 0.0 **** -0.106
16178 C16178 45.523 48.5224 32.3934 C.3 0.0 **** -0.106
16179 C16179 46.91 48.0481 31.9533 C.3 0.0 **** -0.106
16180 O16180 44.4477 47.4589 36.309 O.3 0.0 **** -0.464
16181 C16181 43.8417 47.0481 37.4714 C.2 0.0 **** 0.232
16182 C16182 44.1829 45.8361 38.0986 C.2 0.0 **** 0.0
16183 C16183 45.1429 44.982 37.4407 C.2 0.0 **** 0.0
16184 C16184 47.9046 42.6072 33.8417 C.2 0.0 **** 0.0
16185 C16185 47.684 42.3106 35.2548 C.2 0.0 **** 0.0
16186 C16186 46.9323 43.2165 36.0056 C.2 0.0 **** 0.0
16187 C16187 48.112 40.9951 35.727 C.2 0.0 **** 0.0
16188 C16188 48.1426 39.9558 34.8427 C.2 0.0 **** 0.0
16189 C16189 47.8884 40.1618 33.3853 C.3 0.0 **** -0.106
16190 C16190 47.9866 41.5919 32.953 C.2 0.0 **** -0.1268
16191 C16191 48.4778 38.5743 35.3312 C.3 0.0 **** -0.106
16192 C16192 48.0097 38.3945 36.7782 C.3 0.0 **** -0.106
16193 C16193 48.5503 39.5187 37.6274 C.2 0.0 **** 0.0
16194 C16194 48.6139 40.7648 37.101 C.2 0.0 **** 0.0
16195 C16195 49.3279 41.8951 37.8057 C.3 0.0 **** -0.106
16196 C16196 50.0932 41.4528 39.058 C.3 0.0 **** -0.053
16197 C16197 49.2357 40.4621 39.8533 C.3 0.0 **** -0.106
16198 C16198 49.0015 39.2003 39.0228 C.3 0.0 **** -0.106
16199 C16199 45.5716 43.7266 37.9861 C.2 0.0 **** -0.012
16200 C16200 46.404 42.8852 37.2897 C.2 0.0 **** -0.1268
16201 C16201 43.4993 45.5272 39.3023 C.2 0.0 **** 0.0
16202 C16202 43.8046 44.3247 40.0352 C.2 0.0 **** -0.012
16203 S16203 45.1083 43.2311 39.5991 S.2 0.0 **** 0.024
16204 C16204 43.1175 43.9992 41.1766 C.2 0.0 **** -0.1268
16205 C16205 42.0807 44.8309 41.6758 C.2 0.0 **** 0.0
16206 C16206 41.766 46.0491 40.9989 C.2 0.0 **** 0.0
16207 C16207 42.4809 46.4028 39.8215 C.2 0.0 **** 0.0
16208 C16208 40.7491 46.8895 41.5234 C.2 0.0 **** 0.0
16209 C16209 40.0276 46.4956 42.692 C.2 0.0 **** 0.0
16210 C16210 40.3163 45.2281 43.3155 C.2 0.0 **** 0.0
16211 C16211 41.3721 44.4524 42.8119 C.2 0.0 **** -0.1268
16212 C16212 39.5115 44.8054 44.4147 C.2 0.0 **** 0.0
16213 C16213 38.5894 45.6812 44.9559 C.2 0.0 **** 0.042
16214 C16214 38.349 46.9924 44.4467 C.2 0.0 **** 0.0
16215 C16215 39.0415 47.3572 43.2581 C.2 0.0 **** 0.0
16216 C16216 42.1758 47.6342 39.1492 C.2 0.0 **** 0.0
16217 C16217 42.8896 47.9129 37.9653 C.2 0.0 **** -0.1268
16218 C16218 40.4581 48.1336 40.8724 C.2 0.0 **** 0.0
16219 C16219 41.163 48.5154 39.6918 C.2 0.0 **** 0.0
16220 C16220 38.7672 48.6135 42.6221 C.2 0.0 **** 0.0
16221 C16221 39.4579 48.9803 41.4377 C.2 0.0 **** 0.0
16222 C16222 37.4356 47.9246 45.0601 C.2 0.0 **** 0.0
16223 C16223 37.1395 49.1462 44.3848 C.2 0.0 **** 0.0
16224 C16224 37.7928 49.4865 43.1735 C.2 0.0 **** 0.0
16225 O16225 37.8135 45.197 45.987 O.3 0.0 **** -0.202
16226 C16226 38.5365 44.6035 47.1024 C.3 0.0 **** 0.107
16227 C16227 39.6851 43.686 46.6135 C.3 0.0 **** -0.053
16228 C16228 39.4815 43.4481 45.1103 C.3 0.0 **** 0.107
16229 C16229 39.7663 42.4008 47.4461 C.3 0.0 **** -0.106
16230 C16230 39.5548 42.7506 48.9228 C.3 0.0 **** -0.106
16231 C16231 38.0938 43.1403 49.1676 C.3 0.0 **** 0.134
16232 C16232 37.4757 43.8958 47.9436 C.3 0.0 **** -0.053
16233 C16233 36.4098 44.8932 48.4271 C.3 0.0 **** -0.106
16234 C16234 35.602 44.3266 49.5935 C.3 0.0 **** -0.106
16235 C16235 36.5403 44.0477 50.8013 C.3 0.0 **** 0.081
16236 N16236 37.952 43.864 50.4317 N.3 0.0 **** -0.727
16237 C16237 40.8168 49.7812 39.0994 C.2 0.0 **** 0.042
16238 C16238 39.8095 50.577 39.6229 C.2 0.0 **** 0.042
16239 C16239 39.1251 50.2209 40.8137 C.2 0.0 **** 0.0
16240 O16240 39.4218 51.7652 39.0479 O.3 0.0 **** -0.202
16241 C16241 39.8923 51.9679 37.6976 C.3 0.0 **** 0.107
16242 C16242 41.3686 51.6088 37.6738 C.3 0.0 **** 0.107
16243 O16243 41.504 50.2085 37.9853 O.3 0.0 **** -0.202
16244 C16244 42.2041 52.4798 38.635 C.3 0.0 **** -0.106
16245 C16245 41.5813 53.8725 38.8735 C.3 0.0 **** -0.106
16246 C16246 40.831 54.3497 37.625 C.3 0.0 **** -0.106
16247 C16247 39.6341 53.427 37.3158 C.3 0.0 **** -0.106
16248 C16248 37.4763 50.7296 42.5322 C.2 0.0 **** 0.0
16249 C16249 38.1459 51.0662 41.3558 C.2 0.0 **** -0.1268
16250 C16250 36.1846 50.0366 44.9509 C.2 0.0 **** 0.0
16251 C16251 35.869 51.2516 44.2677 C.2 0.0 **** 0.042
16252 C16252 36.4918 51.5975 43.1005 C.2 0.0 **** -0.1268
16253 C16253 35.561 49.7491 46.1744 C.2 0.0 **** 0.0
16254 C16254 35.918 48.5885 46.8733 C.2 0.0 **** 0.0
16255 C16255 36.8314 47.7135 46.3145 C.2 0.0 **** -0.1268
16256 O16256 34.9218 52.1209 44.7872 O.3 0.0 **** -0.0685
16257 C16257 34.2509 51.8159 45.9492 C.2 0.0 **** 0.0265
16258 C16258 34.5615 50.6576 46.682 C.2 0.0 **** 0.0
16259 C16259 35.366 48.2852 48.2409 C.3 0.0 **** -0.053
16260 C16260 34.0807 49.0694 48.5929 C.3 0.0 **** -0.053
16261 C16261 33.8716 50.3694 47.8627 C.2 0.0 **** 0.0
16262 C16262 33.9738 49.337 50.1061 C.3 0.0 **** -0.053
16263 C16263 34.4294 48.107 50.8826 C.3 0.0 **** -0.106
16264 C16264 35.9487 47.8931 50.6683 C.3 0.0 **** -0.106
16265 C16265 36.4358 48.4812 49.3305 C.3 0.0 **** -0.106
16266 C16266 32.8718 51.2362 48.3291 C.2 0.0 **** 0.0
16267 C16267 32.5122 52.3746 47.5536 C.2 0.0 **** 0.0
16268 C16268 33.2208 52.6872 46.3511 C.2 0.0 **** 0.0
16269 C16269 32.6146 49.9061 50.4081 C.2 0.0 **** 0.0
16270 C16270 32.1586 50.9382 49.5415 C.2 0.0 **** 0.0
16271 C16271 50.5626 42.67 39.8822 C.3 0.0 **** -0.053
16272 C16272 49.4126 43.3583 40.6287 C.3 0.0 **** -0.159
16273 C16273 51.6733 42.2783 40.8622 C.3 0.0 **** -0.159
16274 O16274 40.4145 42.4514 44.6897 O.3 0.0 **** -0.57
16275 C16275 32.8405 53.8464 45.5989 C.2 0.0 **** -0.1268
16276 C16276 31.7936 54.6282 46.0015 C.2 0.0 **** -0.1268
16277 C16277 31.0326 54.319 47.1773 C.2 0.0 **** 0.0
16278 C16278 31.4091 53.1777 47.9566 C.2 0.0 **** 0.0
16279 C16279 30.6584 52.8343 49.1121 C.2 0.0 **** 0.0
16280 C16280 29.543 53.6163 49.4937 C.2 0.0 **** 0.0
16281 C16281 29.177 54.7593 48.7118 C.2 0.0 **** 0.0
16282 C16282 29.9311 55.0848 47.573 C.2 0.0 **** -0.1268
16283 C16283 28.0468 55.537 49.1128 C.2 0.0 **** -0.1268
16284 C16284 27.3198 55.2004 50.2238 C.2 0.0 **** -0.1268
16285 C16285 27.6682 54.0668 51.0199 C.2 0.0 **** 0.0
16286 C16286 28.7882 53.2734 50.6543 C.2 0.0 **** 0.0
16287 C16287 29.1541 52.1458 51.45 C.2 0.0 **** 0.0
16288 C16288 30.2838 51.3673 51.0696 C.2 0.0 **** 0.0
16289 C16289 31.0318 51.704 49.9054 C.2 0.0 **** 0.0
16290 C16290 28.4102 51.8122 52.6206 C.2 0.0 **** 0.0
16291 C16291 27.282 52.617 52.9416 C.2 0.0 **** -0.1268
16292 C16292 26.9275 53.7012 52.1662 C.2 0.0 **** -0.1268
16293 C16293 31.8624 49.556 51.5069 C.2 0.0 **** -0.1268
16294 C16294 30.6647 50.2386 51.8461 C.2 0.0 **** 0.0
16295 C16295 28.8044 50.6553 53.3982 C.2 0.0 **** 0.052
16296 C16296 29.8717 49.8536 52.9715 C.2 0.0 **** 0.0
16297 C16297 30.2219 48.5606 53.6737 C.3 0.0 **** -0.106
16298 C16298 29.0291 47.9698 54.4154 C.3 0.0 **** -0.106
16299 C16299 28.4978 49.0163 55.3806 C.3 0.0 **** -0.086
16300 C16300 28.1606 50.3424 54.7104 C.2 0.0 **** 0.347
16301 O16301 27.4191 51.1202 55.313 O.2 0.0 **** -0.419
16302 H16302 53.1702 46.5024 35.5913 H 0.0 **** 0.053
16303 H16303 51.518 46.456 34.9185 H 0.0 **** 0.053
16304 H16304 53.8531 44.6339 34.3134 H 0.0 **** 0.053
16305 H16305 52.1156 44.332 34.1635 H 0.0 **** 0.053
16306 H16306 53.9884 45.7652 32.2328 H 0.0 **** 0.053
16307 H16307 52.0234 46.4231 30.8863 H 0.0 **** 0.053
16308 H16308 51.1123 48.0066 32.9993 H 0.0 **** 0.053
16309 H16309 52.5876 48.3462 32.0428 H 0.0 **** 0.053
16310 H16310 50.2502 45.8297 33.2645 H 0.0 **** 0.053
16311 H16311 50.5938 43.5633 32.8784 H 0.0 **** 0.053
16312 H16312 51.4772 44.2914 30.0512 H 0.0 **** 0.053
16313 H16313 51.4574 42.6484 30.7093 H 0.0 **** 0.053
16314 H16314 53.7246 43.9479 30.8339 H 0.0 **** 0.053
16315 H16315 53.2004 43.1144 32.2986 H 0.0 **** 0.053
16316 H16316 47.2152 43.8104 31.5318 H 0.0 **** 0.053
16317 H16317 47.5493 45.8508 30.5721 H 0.0 **** 0.053
16318 H16318 49.5121 47.4343 31.4975 H 0.0 **** 0.053
16319 H16319 49.7601 46.1738 30.2811 H 0.0 **** 0.053
16320 H16320 48.9947 44.4011 33.9252 H 0.0 **** 0.053
16321 H16321 44.3956 48.7003 34.2518 H 0.0 **** 0.053
16322 H16322 46.0847 49.1884 34.3691 H 0.0 **** 0.053
16323 H16323 45.3366 49.552 32.052 H 0.0 **** 0.053
16324 H16324 44.7588 47.8748 31.9338 H 0.0 **** 0.053
16325 H16325 47.6683 48.7653 32.3267 H 0.0 **** 0.053
16326 H16326 47.002 48.06 30.854 H 0.0 **** 0.053
16327 H16327 46.8869 39.7586 33.1173 H 0.0 **** 0.053
16328 H16328 48.5881 39.5309 32.803 H 0.0 **** 0.053
16329 H16329 48.1299 41.7897 31.892 H 0.0 **** 0.1268
16330 H16330 48.0215 37.8216 34.6686 H 0.0 **** 0.053
16331 H16331 49.575 38.4229 35.2745 H 0.0 **** 0.053
16332 H16332 48.336 37.4235 37.1824 H 0.0 **** 0.053
16333 H16333 46.903 38.4001 36.8052 H 0.0 **** 0.053
16334 H16334 50.0272 42.3607 37.0884 H 0.0 **** 0.053
16335 H16335 48.6222 42.6967 38.0721 H 0.0 **** 0.053
16336 H16336 50.998 40.9087 38.7281 H 0.0 **** 0.053
16337 H16337 48.264 40.9299 40.0817 H 0.0 **** 0.053
16338 H16338 49.7115 40.2086 40.813 H 0.0 **** 0.053
16339 H16339 48.2469 38.5497 39.5015 H 0.0 **** 0.053
16340 H16340 49.9275 38.5939 38.9847 H 0.0 **** 0.053
16341 H16341 46.6435 41.9099 37.7128 H 0.0 **** 0.1268
16342 H16342 43.352 43.0811 41.72 H 0.0 **** 0.1268
16343 H16343 41.6742 43.548 43.3307 H 0.0 **** 0.1268
16344 H16344 42.7032 48.8156 37.4023 H 0.0 **** 0.1268
16345 H16345 38.9578 45.4391 47.6921 H 0.0 **** 0.053
16346 H16346 40.6378 44.2277 46.7263 H 0.0 **** 0.053
16347 H16347 38.4541 43.0476 44.9858 H 0.0 **** 0.053
16348 H16348 38.9925 41.6878 47.1135 H 0.0 **** 0.053
16349 H16349 40.7356 41.9157 47.2749 H 0.0 **** 0.053
16350 H16350 40.2058 43.6027 49.1899 H 0.0 **** 0.053
16351 H16351 39.8289 41.9248 49.5936 H 0.0 **** 0.053
16352 H16352 37.5136 42.2095 49.2888 H 0.0 **** 0.053
16353 H16353 36.9931 43.1514 47.2877 H 0.0 **** 0.053
16354 H16354 36.9166 45.8139 48.7637 H 0.0 **** 0.053
16355 H16355 35.7602 45.1855 47.5908 H 0.0 **** 0.053
16356 H16356 35.1098 43.3952 49.2709 H 0.0 **** 0.053
16357 H16357 34.8018 45.0248 49.8867 H 0.0 **** 0.053
16358 H16358 36.2017 43.1419 51.3323 H 0.0 **** 0.053
16359 H16359 36.4932 44.8763 51.5234 H 0.0 **** 0.053
16360 H16360 38.4122 44.7716 50.3519 H 0.0 **** 0.353
16361 H16361 39.3414 51.275 37.0401 H 0.0 **** 0.053
16362 H16362 41.7406 51.6917 36.6427 H 0.0 **** 0.053
16363 H16363 42.2992 51.9403 39.5885 H 0.0 **** 0.053
16364 H16364 43.2163 52.5758 38.2158 H 0.0 **** 0.053
16365 H16365 42.3692 54.5881 39.1507 H 0.0 **** 0.053
16366 H16366 40.8756 53.8193 39.7157 H 0.0 **** 0.053
16367 H16367 41.5281 54.355 36.7695 H 0.0 **** 0.053
16368 H16368 40.478 55.3841 37.7477 H 0.0 **** 0.053
16369 H16369 39.3796 53.4751 36.2465 H 0.0 **** 0.053
16370 H16370 38.7415 53.7511 37.8726 H 0.0 **** 0.053
16371 H16371 37.9103 52.0023 40.8519 H 0.0 **** 0.1268
16372 H16372 36.2445 52.5354 42.6021 H 0.0 **** 0.1268
16373 H16373 37.0774 46.8195 46.8656 H 0.0 **** 0.1268
16374 H16374 35.1092 47.2151 48.2617 H 0.0 **** 0.053
16375 H16375 33.2163 48.4287 48.3269 H 0.0 **** 0.053
16376 H16376 34.6847 50.1566 50.3346 H 0.0 **** 0.053
16377 H16377 33.8588 47.234 50.5227 H 0.0 **** 0.053
16378 H16378 34.2147 48.2093 51.9559 H 0.0 **** 0.053
16379 H16379 36.1691 46.8166 50.6922 H 0.0 **** 0.053
16380 H16380 36.5101 48.3526 51.4964 H 0.0 **** 0.053
16381 H16381 37.3742 48.0014 49.0135 H 0.0 **** 0.053
16382 H16382 36.6543 49.5566 49.426 H 0.0 **** 0.053
16383 H16383 50.9854 43.3948 39.1626 H 0.0 **** 0.053
16384 H16384 49.7592 44.2946 41.0913 H 0.0 **** 0.053
16385 H16385 49.0333 42.7103 41.4339 H 0.0 **** 0.053
16386 H16386 48.566 43.5997 39.968 H 0.0 **** 0.053
16387 H16387 52.5221 41.8143 40.3354 H 0.0 **** 0.053
16388 H16388 51.3007 41.5561 41.606 H 0.0 **** 0.053
16389 H16389 52.0458 43.1568 41.4106 H 0.0 **** 0.053
16390 H16390 40.1752 42.1952 43.7856 H 0.0 **** 0.41
16391 H16391 33.3973 54.0876 44.6936 H 0.0 **** 0.1268
16392 H16392 31.508 55.5065 45.4199 H 0.0 **** 0.1268
16393 H16393 29.644 55.954 46.9771 H 0.0 **** 0.1268
16394 H16394 27.775 56.4054 48.51 H 0.0 **** 0.1268
16395 H16395 26.4531 55.7941 50.521 H 0.0 **** 0.1268
16396 H16396 26.7038 52.3681 53.8249 H 0.0 **** 0.1268
16397 H16397 26.0531 54.2965 52.4376 H 0.0 **** 0.1268
16398 H16398 32.2244 48.7613 52.1536 H 0.0 **** 0.1268
16399 H16399 30.594 47.8382 52.9337 H 0.0 **** 0.053
16400 H16400 31.051 48.7338 54.3856 H 0.0 **** 0.053
16401 H16401 29.319 47.0492 54.9444 H 0.0 **** 0.053
16402 H16402 28.248 47.7011 53.6855 H 0.0 **** 0.053
16403 H16403 29.2662 49.2412 56.1434 H 0.0 **** 0.053
16404 H16404 27.5994 48.6938 55.9259 H 0.0 **** 0.053
16405 C16405 29.1772 1.29931 31.5365 C.3 0.0 **** 0.054
16406 C16406 30.4929 0.802006 32.1798 C.3 0.0 **** -0.106
16407 C16407 30.3065 -0.606262 32.7813 C.3 0.0 **** -0.053
16408 C16408 28.9372 -0.676136 33.4768 C.3 0.0 **** -0.053
16409 C16409 27.8199 -0.409577 32.435 C.3 0.0 **** 0.054
16410 O16410 28.3005 0.208302 31.2349 O.3 0.0 **** -0.32
16411 C16411 28.8668 0.3033 34.6674 C.3 0.0 **** -0.053
16412 C16412 30.212 0.390667 35.4436 C.3 0.0 **** 0.107
16413 C16413 31.0452 -0.862038 35.2324 C.3 0.0 **** -0.106
16414 C16414 31.4491 -0.997713 33.7529 C.3 0.0 **** -0.106
16415 O16415 30.0041 0.537617 36.8569 O.3 0.0 **** -0.32
16416 C16416 28.9805 1.49513 37.177 C.3 0.0 **** 0.107
16417 C16417 27.6171 0.867481 36.8361 C.3 0.0 **** -0.053
16418 C16418 27.7618 -0.112383 35.6347 C.3 0.0 **** -0.106
16419 C16419 26.5088 1.85561 36.6813 C.2 0.0 **** 0.0
16420 C16420 26.7083 3.22684 36.6618 C.2 0.0 **** 0.0
16421 C16421 28.0334 3.79367 36.6491 C.2 0.0 **** 0.0
16422 C16422 29.2307 2.87547 36.5493 C.3 0.0 **** -0.053
16423 C16423 28.2375 5.15921 36.5544 C.2 0.0 **** 0.0
16424 C16424 27.1075 6.05737 36.522 C.2 0.0 **** 0.0
16425 C16425 25.8039 5.47736 36.58 C.2 0.0 **** 0.232
16426 C16426 25.5745 4.13028 36.6295 C.2 0.0 **** 0.0
16427 C16427 24.1677 3.58836 36.6373 C.3 0.0 **** -0.106
16428 C16428 24.1001 2.20596 37.2873 C.3 0.0 **** -0.106
16429 C16429 25.123 1.27664 36.6296 C.3 0.0 **** -0.106
16430 O16430 24.6908 6.29548 36.549 O.3 0.0 **** -0.464
16431 C16431 24.8256 7.66207 36.5874 C.2 0.0 **** 0.232
16432 C16432 26.0811 8.28775 36.4822 C.2 0.0 **** 0.0
16433 C16433 27.2516 7.44571 36.4116 C.2 0.0 **** 0.0
16434 C16434 30.4976 3.53574 37.0396 C.2 0.0 **** 0.0
16435 C16435 30.7062 4.91618 36.6103 C.2 0.0 **** 0.0
16436 C16436 29.5832 5.73101 36.4535 C.2 0.0 **** 0.0
16437 C16437 32.0883 5.38864 36.5574 C.2 0.0 **** 0.0
16438 C16438 33.0107 4.82098 37.3882 C.2 0.0 **** 0.0
16439 C16439 32.6738 3.6413 38.2403 C.3 0.0 **** -0.106
16440 C16440 31.4208 2.93551 37.8237 C.2 0.0 **** -0.1268
16441 C16441 34.4119 5.36384 37.4242 C.3 0.0 **** -0.106
16442 C16442 34.4077 6.86519 37.1222 C.3 0.0 **** -0.106
16443 C16443 33.6591 7.11992 35.8369 C.2 0.0 **** 0.0
16444 C16444 32.5535 6.38603 35.5665 C.2 0.0 **** 0.0
16445 C16445 31.8715 6.43424 34.2188 C.3 0.0 **** -0.106
16446 C16446 32.6395 7.24679 33.1701 C.3 0.0 **** -0.053
16447 C16447 33.1744 8.5304 33.8147 C.3 0.0 **** -0.106
16448 C16448 34.1817 8.17702 34.9087 C.3 0.0 **** -0.106
16449 C16449 28.5821 7.96887 36.2976 C.2 0.0 **** -0.012
16450 C16450 29.6841 7.15044 36.3396 C.2 0.0 **** -0.1268
16451 C16451 26.0915 9.70553 36.5196 C.2 0.0 **** 0.0
16452 C16452 27.3256 10.437 36.3849 C.2 0.0 **** -0.012
16453 S16453 28.8682 9.67454 36.0316 S.2 0.0 **** 0.024
16454 C16454 27.3476 11.8061 36.4629 C.2 0.0 **** -0.1268
16455 C16455 26.1592 12.5515 36.6817 C.2 0.0 **** 0.0
16456 C16456 24.9084 11.8695 36.7891 C.2 0.0 **** 0.0
16457 C16457 24.8723 10.4508 36.6969 C.2 0.0 **** 0.0
16458 C16458 23.7216 12.6258 36.9763 C.2 0.0 **** 0.0
16459 C16459 23.7907 14.0479 37.0938 C.2 0.0 **** 0.0
16460 C16460 25.0729 14.706 37.0526 C.2 0.0 **** 0.0
16461 C16461 26.2192 13.9366 36.7995 C.2 0.0 **** -0.1268
16462 C16462 25.1293 16.113 37.2805 C.2 0.0 **** 0.0
16463 C16463 23.9528 16.8324 37.3725 C.2 0.0 **** 0.042
16464 C16464 22.6558 16.2416 37.3017 C.2 0.0 **** 0.0
16465 C16465 22.5995 14.8215 37.228 C.2 0.0 **** 0.0
16466 C16466 23.614 9.76561 36.7895 C.2 0.0 **** 0.0
16467 C16467 23.6446 8.35688 36.7308 C.2 0.0 **** -0.1268
16468 C16468 22.4587 11.9498 37.0424 C.2 0.0 **** 0.0
16469 C16469 22.3928 10.5273 36.9484 C.2 0.0 **** 0.0
16470 C16470 21.3334 14.1483 37.2688 C.2 0.0 **** 0.0
16471 C16471 21.2747 12.7322 37.1936 C.2 0.0 **** 0.0
16472 C16472 21.4345 17.0079 37.3285 C.2 0.0 **** 0.0
16473 C16473 20.1888 16.318 37.4195 C.2 0.0 **** 0.0
16474 C16474 20.1367 14.9014 37.397 C.2 0.0 **** 0.0
16475 O16475 24.0753 18.1795 37.6367 O.3 0.0 **** -0.202
16476 C16476 24.9566 18.9241 36.749 C.3 0.0 **** 0.107
16477 C16477 26.2714 18.1528 36.4727 C.3 0.0 **** -0.053
16478 C16478 26.3541 16.9995 37.4829 C.3 0.0 **** 0.107
16479 C16479 27.4841 19.0912 36.4922 C.3 0.0 **** -0.106
16480 C16480 27.1178 20.3924 35.7707 C.3 0.0 **** -0.106
16481 C16481 26.1331 21.2046 36.6172 C.3 0.0 **** 0.134
16482 C16482 25.1494 20.285 37.4159 C.3 0.0 **** -0.053
16483 C16483 23.7989 20.9972 37.6 C.3 0.0 **** -0.106
16484 C16484 23.9852 22.4924 37.8525 C.3 0.0 **** -0.106
16485 C16485 24.681 23.1532 36.6294 C.3 0.0 **** 0.081
16486 N16486 25.4558 22.2149 35.8033 N.3 0.0 **** -0.727
16487 C16487 21.0878 9.9232 37.0187 C.2 0.0 **** 0.042
16488 C16488 19.9453 10.6831 37.2165 C.2 0.0 **** 0.042
16489 C16489 19.9973 12.0997 37.2794 C.2 0.0 **** 0.0
16490 O16490 18.6921 10.1289 37.3403 O.3 0.0 **** -0.202
16491 C16491 18.6795 8.70524 37.5825 C.3 0.0 **** 0.107
16492 C16492 19.6497 8.07019 36.6005 C.3 0.0 **** 0.107
16493 O16493 20.9752 8.55721 36.887 O.3 0.0 **** -0.202
16494 C16494 19.261 8.33519 35.131 C.3 0.0 **** -0.106
16495 C16495 17.7435 8.55054 34.9439 C.3 0.0 **** -0.106
16496 C16496 16.951 7.7272 35.9654 C.3 0.0 **** -0.106
16497 C16497 17.2454 8.20286 37.403 C.3 0.0 **** -0.106
16498 C16498 18.8637 14.2459 37.4781 C.2 0.0 **** 0.0
16499 C16499 18.8231 12.8526 37.4269 C.2 0.0 **** -0.1268
16500 C16500 18.9855 17.0713 37.5185 C.2 0.0 **** 0.0
16501 C16501 17.737 16.3847 37.631 C.2 0.0 **** 0.042
16502 C16502 17.6677 15.0193 37.6075 C.2 0.0 **** -0.1268
16503 C16503 19.0036 18.4739 37.4913 C.2 0.0 **** 0.0
16504 C16504 20.2218 19.1436 37.3175 C.2 0.0 **** 0.0
16505 C16505 21.3933 18.4129 37.2408 C.2 0.0 **** -0.1268
16506 O16506 16.5547 17.0985 37.7559 O.3 0.0 **** -0.0685
16507 C16507 16.566 18.4737 37.803 C.2 0.0 **** 0.0265
16508 C16508 17.7628 19.1938 37.647 C.2 0.0 **** 0.0
16509 C16509 20.2894 20.6404 37.1686 C.3 0.0 **** -0.053
16510 C16510 19.0305 21.3841 37.6714 C.3 0.0 **** -0.053
16511 C16511 17.7512 20.5905 37.6927 C.2 0.0 **** 0.0
16512 C16512 18.785 22.6845 36.8832 C.3 0.0 **** -0.053
16513 C16513 20.111 23.3893 36.6216 C.3 0.0 **** -0.106
16514 C16514 20.9644 22.5408 35.646 C.3 0.0 **** -0.106
16515 C16515 20.6134 21.0427 35.7183 C.3 0.0 **** -0.106
16516 C16516 16.5466 21.2834 37.8858 C.2 0.0 **** 0.0
16517 C16517 15.3449 20.5532 38.1089 C.2 0.0 **** 0.0
16518 C16518 15.3423 19.1241 38.0504 C.2 0.0 **** 0.0
16519 C16519 17.6853 23.4627 37.5523 C.2 0.0 **** 0.0
16520 C16520 16.5344 22.7202 37.9372 C.2 0.0 **** 0.0
16521 C16521 31.7753 7.49427 31.9158 C.3 0.0 **** -0.053
16522 C16522 30.6727 8.5345 32.1526 C.3 0.0 **** -0.159
16523 C16523 32.6419 7.90128 30.7196 C.3 0.0 **** -0.159
16524 O16524 27.6473 16.4032 37.3689 O.3 0.0 **** -0.57
16525 C16525 14.1136 18.4195 38.2695 C.2 0.0 **** -0.1268
16526 C16526 12.9629 19.0964 38.5644 C.2 0.0 **** -0.1268
16527 C16527 12.9387 20.5262 38.6754 C.2 0.0 **** 0.0
16528 C16528 14.1505 21.2523 38.4385 C.2 0.0 **** 0.0
16529 C16529 14.161 22.6667 38.5653 C.2 0.0 **** 0.0
16530 C16530 12.9794 23.3574 38.9234 C.2 0.0 **** 0.0
16531 C16531 11.7707 22.6238 39.1529 C.2 0.0 **** 0.0
16532 C16532 11.7782 21.2258 39.022 C.2 0.0 **** -0.1268
16533 C16533 10.5871 23.3388 39.5142 C.2 0.0 **** -0.1268
16534 C16534 10.6007 24.7025 39.6426 C.2 0.0 **** -0.1268
16535 C16535 11.7937 25.4546 39.4158 C.2 0.0 **** 0.0
16536 C16536 12.9878 24.778 39.0505 C.2 0.0 **** 0.0
16537 C16537 14.1831 25.5204 38.8081 C.2 0.0 **** 0.0
16538 C16538 15.3678 24.8234 38.4371 C.2 0.0 **** 0.0
16539 C16539 15.3618 23.4042 38.3193 C.2 0.0 **** 0.0
16540 C16540 14.1883 26.9426 38.9182 C.2 0.0 **** 0.0
16541 C16541 12.9789 27.5824 39.3078 C.2 0.0 **** -0.1268
16542 C16542 11.8283 26.8608 39.5483 C.2 0.0 **** -0.1268
16543 C16543 17.6996 24.8302 37.7116 C.2 0.0 **** -0.1268
16544 C16544 16.5701 25.5426 38.1932 C.2 0.0 **** 0.0
16545 C16545 15.4217 27.6622 38.6747 C.2 0.0 **** 0.052
16546 C16546 16.5985 26.959 38.3841 C.2 0.0 **** 0.0
16547 C16547 17.9328 27.6615 38.2658 C.3 0.0 **** -0.106
16548 C16548 17.96 28.9745 39.0386 C.3 0.0 **** -0.106
16549 C16549 16.8135 29.8433 38.5489 C.3 0.0 **** -0.086
16550 C16550 15.4561 29.1558 38.6281 C.2 0.0 **** 0.347
16551 O16551 14.4487 29.8639 38.5886 O.2 0.0 **** -0.419
16552 H16552 29.3608 1.81183 30.5824 H 0.0 **** 0.053
16553 H16553 28.6582 2.00966 32.2109 H 0.0 **** 0.053
16554 H16554 31.3033 0.768088 31.4355 H 0.0 **** 0.053
16555 H16555 30.8071 1.50771 32.965 H 0.0 **** 0.053
16556 H16556 30.2895 -1.31594 31.9413 H 0.0 **** 0.053
16557 H16557 28.7986 -1.69505 33.8754 H 0.0 **** 0.053
16558 H16558 27.0347 0.232122 32.8867 H 0.0 **** 0.053
16559 H16559 27.3513 -1.34699 32.1038 H 0.0 **** 0.053
16560 H16560 28.6182 1.2993 34.2673 H 0.0 **** 0.053
16561 H16561 30.7936 1.26217 35.0858 H 0.0 **** 0.053
16562 H16562 30.4498 -1.73241 35.5522 H 0.0 **** 0.053
16563 H16563 31.9346 -0.825626 35.8777 H 0.0 **** 0.053
16564 H16564 31.7669 -2.03394 33.5633 H 0.0 **** 0.053
16565 H16565 32.3255 -0.359873 33.5514 H 0.0 **** 0.053
16566 H16566 29.0507 1.62312 38.2672 H 0.0 **** 0.053
16567 H16567 27.3387 0.230225 37.6972 H 0.0 **** 0.053
16568 H16568 26.8044 -0.203204 35.1005 H 0.0 **** 0.053
16569 H16569 28.0116 -1.11395 36.0188 H 0.0 **** 0.053
16570 H16570 29.3679 2.74006 35.4572 H 0.0 **** 0.053
16571 H16571 23.4965 4.29671 37.1439 H 0.0 **** 0.053
16572 H16572 23.8033 3.51401 35.5952 H 0.0 **** 0.053
16573 H16573 23.0842 1.79129 37.2002 H 0.0 **** 0.053
16574 H16574 24.3332 2.29527 38.3607 H 0.0 **** 0.053
16575 H16575 24.8223 1.10171 35.577 H 0.0 **** 0.053
16576 H16576 25.1224 0.283796 37.1104 H 0.0 **** 0.053
16577 H16577 32.5886 3.9572 39.3035 H 0.0 **** 0.053
16578 H16578 33.5317 2.94068 38.244 H 0.0 **** 0.053
16579 H16579 31.2769 1.91441 38.1729 H 0.0 **** 0.1268
16580 H16580 34.8692 5.15613 38.4048 H 0.0 **** 0.053
16581 H16581 35.0282 4.8351 36.6688 H 0.0 **** 0.053
16582 H16582 35.4341 7.25703 37.047 H 0.0 **** 0.053
16583 H16583 33.9174 7.40211 37.957 H 0.0 **** 0.053
16584 H16584 31.7408 5.39697 33.8619 H 0.0 **** 0.053
16585 H16585 30.8492 6.83101 34.3125 H 0.0 **** 0.053
16586 H16586 33.5163 6.65088 32.8546 H 0.0 **** 0.053
16587 H16587 32.3339 9.08522 34.2627 H 0.0 **** 0.053
16588 H16588 33.6375 9.18742 33.0626 H 0.0 **** 0.053
16589 H16589 34.4476 9.07142 35.5012 H 0.0 **** 0.053
16590 H16590 35.1319 7.83529 34.4537 H 0.0 **** 0.053
16591 H16591 30.6768 7.59977 36.3233 H 0.0 **** 0.1268
16592 H16592 28.2901 12.3501 36.3671 H 0.0 **** 0.1268
16593 H16593 27.1784 14.4252 36.659 H 0.0 **** 0.1268
16594 H16594 22.7366 7.77683 36.8055 H 0.0 **** 0.1268
16595 H16595 24.4075 19.0686 35.7997 H 0.0 **** 0.053
16596 H16596 26.2065 17.6981 35.4714 H 0.0 **** 0.053
16597 H16597 26.2592 17.4505 38.4923 H 0.0 **** 0.053
16598 H16598 27.7754 19.3077 37.5343 H 0.0 **** 0.053
16599 H16599 28.3407 18.5902 36.0237 H 0.0 **** 0.053
16600 H16600 26.646 20.1485 34.8016 H 0.0 **** 0.053
16601 H16601 27.9983 21.0091 35.5439 H 0.0 **** 0.053
16602 H16602 26.7174 21.766 37.3662 H 0.0 **** 0.053
16603 H16603 25.5877 20.0937 38.41 H 0.0 **** 0.053
16604 H16604 23.204 20.8666 36.6797 H 0.0 **** 0.053
16605 H16605 23.2281 20.5196 38.408 H 0.0 **** 0.053
16606 H16606 24.5965 22.6305 38.7587 H 0.0 **** 0.053
16607 H16607 23.0148 22.977 38.0459 H 0.0 **** 0.053
16608 H16608 25.3603 23.9506 36.9756 H 0.0 **** 0.053
16609 H16609 23.9362 23.6311 35.9759 H 0.0 **** 0.053
16610 H16610 24.8407 21.7496 35.1346 H 0.0 **** 0.353
16611 H16611 19.0416 8.5339 38.6099 H 0.0 **** 0.053
16612 H16612 19.7102 6.99156 36.8038 H 0.0 **** 0.053
16613 H16613 19.8135 9.22139 34.7866 H 0.0 **** 0.053
16614 H16614 19.6078 7.48361 34.5276 H 0.0 **** 0.053
16615 H16615 17.4546 8.27922 33.9179 H 0.0 **** 0.053
16616 H16616 17.5045 9.61554 35.0809 H 0.0 **** 0.053
16617 H16617 17.2288 6.6644 35.8604 H 0.0 **** 0.053
16618 H16618 15.8704 7.78926 35.7697 H 0.0 **** 0.053
16619 H16619 17.0609 7.38968 38.1208 H 0.0 **** 0.053
16620 H16620 16.5776 9.03292 37.6804 H 0.0 **** 0.053
16621 H16621 17.8652 12.3396 37.4965 H 0.0 **** 0.1268
16622 H16622 16.7032 14.5161 37.6826 H 0.0 **** 0.1268
16623 H16623 22.3193 18.9533 37.1228 H 0.0 **** 0.1268
16624 H16624 21.1382 20.9929 37.7743 H 0.0 **** 0.053
16625 H16625 19.2188 21.6856 38.7211 H 0.0 **** 0.053
16626 H16626 18.3676 22.3861 35.9003 H 0.0 **** 0.053
16627 H16627 20.6344 23.5199 37.5841 H 0.0 **** 0.053
16628 H16628 19.9545 24.3939 36.2036 H 0.0 **** 0.053
16629 H16629 22.0286 22.6753 35.8859 H 0.0 **** 0.053
16630 H16630 20.8213 22.9013 34.6157 H 0.0 **** 0.053
16631 H16631 21.4476 20.4294 35.3453 H 0.0 **** 0.053
16632 H16632 19.7463 20.8073 35.0811 H 0.0 **** 0.053
16633 H16633 31.2903 6.53159 31.6712 H 0.0 **** 0.053
16634 H16634 29.997 8.58384 31.2855 H 0.0 **** 0.053
16635 H16635 31.1103 9.53534 32.2904 H 0.0 **** 0.053
16636 H16636 30.066 8.31012 33.043 H 0.0 **** 0.053
16637 H16637 33.4168 7.14561 30.5154 H 0.0 **** 0.053
16638 H16638 33.1473 8.86106 30.9123 H 0.0 **** 0.053
16639 H16639 32.0318 8.02426 29.8119 H 0.0 **** 0.053
16640 H16640 27.7473 15.7866 38.1105 H 0.0 **** 0.41
16641 H16641 14.1166 17.3316 38.2052 H 0.0 **** 0.1268
16642 H16642 12.0327 18.5513 38.7342 H 0.0 **** 0.1268
16643 H16643 10.8552 20.6709 39.2039 H 0.0 **** 0.1268
16644 H16644 9.67129 22.771 39.6882 H 0.0 **** 0.1268
16645 H16645 9.69511 25.2425 39.926 H 0.0 **** 0.1268
16646 H16646 12.9728 28.6629 39.4028 H 0.0 **** 0.1268
16647 H16647 10.9171 27.3819 39.85 H 0.0 **** 0.1268
16648 H16648 18.5901 25.3792 37.4172 H 0.0 **** 0.1268
16649 H16649 18.7245 26.9956 38.637 H 0.0 **** 0.053
16650 H16650 18.1611 27.8547 37.2005 H 0.0 **** 0.053
16651 H16651 18.9285 29.4807 38.9085 H 0.0 **** 0.053
16652 H16652 17.838 28.7625 40.1135 H 0.0 **** 0.053
16653 H16653 16.97 30.0983 37.4844 H 0.0 **** 0.053
16654 H16654 16.7236 30.7961 39.0897 H 0.0 **** 0.053
16655 C16655 8.47044 27.5471 39.4331 C.3 0.0 **** 0.054
16656 C16656 9.76716 28.163 40.0088 C.3 0.0 **** -0.106
16657 C16657 9.43859 29.3284 40.9646 C.3 0.0 **** -0.053
16658 C16658 8.29254 30.1595 40.365 C.3 0.0 **** -0.053
16659 C16659 7.03992 29.2601 40.2006 C.3 0.0 **** 0.054
16660 O16660 7.33794 27.8596 40.2514 O.3 0.0 **** -0.32
16661 C16661 8.71673 30.8136 39.0332 C.3 0.0 **** -0.053
16662 C16662 10.1961 31.2941 39.0533 C.3 0.0 **** 0.107
16663 C16663 10.672 31.5327 40.4762 C.3 0.0 **** -0.106
16664 C16664 10.6721 30.2152 41.2728 C.3 0.0 **** -0.106
16665 O16665 10.3683 32.5219 38.3288 O.3 0.0 **** -0.32
16666 C16666 9.67599 32.532 37.0689 C.3 0.0 **** 0.107
16667 C16667 8.17009 32.6745 37.3535 C.3 0.0 **** -0.053
16668 C16668 7.81357 32.0012 38.7114 C.3 0.0 **** -0.106
16669 C16669 7.29016 32.258 36.2217 C.2 0.0 **** 0.0
16670 C16670 7.76275 31.6271 35.0819 C.2 0.0 **** 0.0
16671 C16671 9.13484 31.1994 34.9735 C.2 0.0 **** 0.0
16672 C16672 10.0529 31.3467 36.1661 C.3 0.0 **** -0.053
16673 C16673 9.59262 30.5031 33.8686 C.2 0.0 **** 0.0
16674 C16674 8.70245 30.2374 32.7633 C.2 0.0 **** 0.0
16675 C16675 7.35882 30.7084 32.8723 C.2 0.0 **** 0.232
16676 C16676 6.87018 31.3596 33.9709 C.2 0.0 **** 0.0
16677 C16677 5.42469 31.783 34.0355 C.3 0.0 **** -0.106
16678 C16678 5.22569 32.9651 34.9847 C.3 0.0 **** -0.106
16679 C16679 5.84245 32.6412 36.3475 C.3 0.0 **** -0.106
16680 O16680 6.46823 30.4759 31.8418 O.3 0.0 **** -0.464
16681 C16681 6.89245 29.9072 30.6654 C.2 0.0 **** 0.232
16682 C16682 8.1888 29.3808 30.52 C.2 0.0 **** 0.0
16683 C16683 9.10438 29.5251 31.6268 C.2 0.0 **** 0.0
16684 C16684 11.51 31.3364 35.7682 C.2 0.0 **** 0.0
16685 C16685 11.8949 30.334 34.7781 C.2 0.0 **** 0.0
16686 C16686 10.9642 29.9918 33.7951 C.2 0.0 **** 0.0
16687 C16687 13.2917 29.9034 34.7844 C.2 0.0 **** 0.0
16688 C16688 14.2456 30.7686 35.2367 C.2 0.0 **** 0.0
16689 C16689 13.8825 32.0798 35.8531 C.3 0.0 **** -0.106
16690 C16690 12.4467 32.1737 36.2671 C.2 0.0 **** -0.1268
16691 C16691 15.6966 30.3848 35.153 C.3 0.0 **** -0.106
16692 C16692 15.9358 29.4722 33.9467 C.3 0.0 **** -0.106
16693 C16693 14.9719 28.312 33.9918 C.2 0.0 **** 0.0
16694 C16694 13.7049 28.5294 34.418 C.2 0.0 **** 0.0
16695 C16695 12.7459 27.393 34.6877 C.3 0.0 **** -0.106
16696 C16696 13.3934 26.0068 34.5936 C.3 0.0 **** -0.053
16697 C16697 14.3246 25.9632 33.3769 C.3 0.0 **** -0.106
16698 C16698 15.4671 26.9609 33.5659 C.3 0.0 **** -0.106
16699 C16699 10.4483 29.0249 31.5966 C.2 0.0 **** -0.012
16700 C16700 11.3308 29.2687 32.6201 C.2 0.0 **** -0.1268
16701 C16701 8.50553 28.8056 29.2629 C.2 0.0 **** 0.0
16702 C16702 9.79679 28.2102 29.0295 C.2 0.0 **** -0.012
16703 S16703 11.0142 28.019 30.2814 S.2 0.0 **** 0.024
16704 C16704 10.124 27.6906 27.8031 C.2 0.0 **** -0.1268
16705 C16705 9.20664 27.7225 26.72 C.2 0.0 **** 0.0
16706 C16706 7.90338 28.2745 26.9155 C.2 0.0 **** 0.0
16707 C16707 7.54895 28.8044 28.1867 C.2 0.0 **** 0.0
16708 C16708 6.98225 28.2733 25.8352 C.2 0.0 **** 0.0
16709 C16709 7.37473 27.7601 24.561 C.2 0.0 **** 0.0
16710 C16710 8.71855 27.2735 24.3707 C.2 0.0 **** 0.0
16711 C16711 9.58283 27.2267 25.4756 C.2 0.0 **** -0.1268
16712 C16712 9.12224 26.8672 23.0643 C.2 0.0 **** 0.0
16713 C16713 8.18029 26.7954 22.0555 C.2 0.0 **** 0.042
16714 C16714 6.80974 27.1549 22.2247 C.2 0.0 **** 0.0
16715 C16715 6.44031 27.7047 23.4843 C.2 0.0 **** 0.0
16716 C16716 6.23439 29.3455 28.3883 C.2 0.0 **** 0.0
16717 C16717 5.9533 29.8924 29.6575 C.2 0.0 **** -0.1268
16718 C16718 5.65886 28.7872 26.0374 C.2 0.0 **** 0.0
16719 C16719 5.27502 29.3212 27.304 C.2 0.0 **** 0.0
16720 C16720 5.10845 28.1953 23.6928 C.2 0.0 **** 0.0
16721 C16721 4.73721 28.7423 24.9487 C.2 0.0 **** 0.0
16722 C16722 5.81956 27.0105 21.1864 C.2 0.0 **** 0.0
16723 C16723 4.51562 27.5505 21.3965 C.2 0.0 **** 0.0
16724 C16724 4.16312 28.144 22.6347 C.2 0.0 **** 0.0
16725 O16725 8.64277 26.4385 20.8071 O.3 0.0 **** -0.202
16726 C16726 9.422 25.2105 20.7448 C.3 0.0 **** 0.107
16727 C16727 10.44 25.1217 21.9091 C.3 0.0 **** -0.053
16728 C16728 10.518 26.5082 22.5644 C.3 0.0 **** 0.107
16729 C16729 11.7915 24.5784 21.4294 C.3 0.0 **** -0.106
16730 C16730 11.5449 23.4239 20.4525 C.3 0.0 **** -0.106
16731 C16731 10.9849 23.9618 19.1322 C.3 0.0 **** 0.134
16732 C16732 10.0505 25.1985 19.3523 C.3 0.0 **** -0.053
16733 C16733 8.96418 25.2349 18.2645 C.3 0.0 **** -0.106
16734 C16734 9.51538 24.7958 16.909 C.3 0.0 **** -0.106
16735 C16735 10.021 23.3281 16.9933 C.3 0.0 **** 0.081
16736 N16736 10.3603 22.89 18.3557 N.3 0.0 **** -0.727
16737 C16737 3.92792 29.8137 27.4292 C.2 0.0 **** 0.042
16738 C16738 3.05195 29.8146 26.3546 C.2 0.0 **** 0.042
16739 C16739 3.41405 29.2572 25.101 C.2 0.0 **** 0.0
16740 O16740 1.7773 30.3267 26.4309 O.3 0.0 **** -0.202
16741 C16741 1.52414 31.1547 27.5867 C.3 0.0 **** 0.107
16742 C16742 2.07514 30.4217 28.7983 C.3 0.0 **** 0.107
16743 O16743 3.50251 30.2957 28.6469 O.3 0.0 **** -0.202
16744 C16744 1.41045 29.0453 29.0087 C.3 0.0 **** -0.106
16745 C16745 -0.0274984 28.9844 28.4495 C.3 0.0 **** -0.106
16746 C16746 -0.707047 30.3541 28.5562 C.3 0.0 **** -0.106
16747 C16747 0.0161913 31.3972 27.6796 C.3 0.0 **** -0.106
16748 C16748 2.83816 28.664 22.8104 C.2 0.0 **** 0.0
16749 C16749 2.49457 29.2203 24.0424 C.2 0.0 **** -0.1268
16750 C16750 3.55702 27.4738 20.3474 C.2 0.0 **** 0.0
16751 C16751 2.25625 28.032 20.5455 C.2 0.0 **** 0.042
16752 C16752 1.89802 28.6049 21.7343 C.2 0.0 **** -0.1268
16753 C16753 3.8624 26.8463 19.1303 C.2 0.0 **** 0.0
16754 C16754 5.11625 26.2446 18.9614 C.2 0.0 **** 0.0
16755 C16755 6.05477 26.3357 19.9728 C.2 0.0 **** -0.1268
16756 O16756 1.31549 27.9927 19.5276 O.3 0.0 **** -0.0685
16757 C16757 1.6265 27.4443 18.3044 C.2 0.0 **** 0.0265
16758 C16758 2.87485 26.8397 18.0783 C.2 0.0 **** 0.0
16759 C16759 5.45925 25.4615 17.722 C.3 0.0 **** -0.053
16760 C16760 4.54267 25.7573 16.5124 C.3 0.0 **** -0.053
16761 C16761 3.16832 26.2837 16.8302 C.2 0.0 **** 0.0
16762 C16762 4.39444 24.5277 15.5965 C.3 0.0 **** -0.053
16763 C16763 5.73685 23.8183 15.4613 C.3 0.0 **** -0.106
16764 C16764 6.13383 23.1978 16.8241 C.3 0.0 **** -0.106
16765 C16765 5.50358 23.9501 18.0115 C.3 0.0 **** -0.106
16766 C16766 2.21837 26.3173 15.7981 C.2 0.0 **** 0.0
16767 C16767 0.979328 26.9868 16.0064 C.2 0.0 **** 0.0
16768 C16768 0.662424 27.547 17.2837 C.2 0.0 **** 0.0
16769 C16769 3.67587 24.9365 14.3399 C.2 0.0 **** 0.0
16770 C16770 2.52104 25.7494 14.5124 C.2 0.0 **** 0.0
16771 C16771 12.3259 24.8925 34.5998 C.3 0.0 **** -0.053
16772 C16772 11.5561 24.8029 33.2757 C.3 0.0 **** -0.159
16773 C16773 12.9465 23.5352 34.9466 C.3 0.0 **** -0.159
16774 O16774 11.5912 26.4923 23.5072 O.3 0.0 **** -0.57
16775 C16775 -0.597838 28.2056 17.4631 C.2 0.0 **** -0.1268
16776 C16776 -1.47566 28.33 16.4223 C.2 0.0 **** -0.1268
16777 C16777 -1.17149 27.8199 15.1167 C.2 0.0 **** 0.0
16778 C16778 0.0729533 27.1385 14.9203 C.2 0.0 **** 0.0
16779 C16779 0.41058 26.6446 13.6323 C.2 0.0 **** 0.0
16780 C16780 -0.478588 26.8236 12.5466 C.2 0.0 **** 0.0
16781 C16781 -1.72346 27.5012 12.7533 C.2 0.0 **** 0.0
16782 C16782 -2.0415 27.9821 14.0337 C.2 0.0 **** -0.1268
16783 C16783 -2.60858 27.673 11.6443 C.2 0.0 **** -0.1268
16784 C16784 -2.27842 27.2019 10.4012 C.2 0.0 **** -0.1268
16785 C16785 -1.04385 26.5208 10.1726 C.2 0.0 **** 0.0
16786 C16786 -0.141603 26.3277 11.2524 C.2 0.0 **** 0.0
16787 C16787 1.08932 25.6364 11.0389 C.2 0.0 **** 0.0
16788 C16788 1.97704 25.4482 12.136 C.2 0.0 **** 0.0
16789 C16789 1.64487 25.9516 13.4261 C.2 0.0 **** 0.0
16790 C16790 1.41948 25.125 9.74886 C.2 0.0 **** 0.0
16791 C16791 0.500943 25.3576 8.68782 C.2 0.0 **** -0.1268
16792 C16792 -0.683814 26.0323 8.89672 C.2 0.0 **** -0.1268
16793 C16793 4.01497 24.4913 13.082 C.2 0.0 **** -0.1268
16794 C16794 3.20938 24.7647 11.9455 C.2 0.0 **** 0.0
16795 C16795 2.68152 24.4376 9.56687 C.2 0.0 **** 0.052
16796 C16796 3.57969 24.3249 10.6367 C.2 0.0 **** 0.0
16797 C16797 4.96373 23.7435 10.4517 C.3 0.0 **** -0.106
16798 C16798 5.45045 23.8685 9.01318 C.3 0.0 **** -0.106
16799 C16799 4.42902 23.2086 8.10191 C.3 0.0 **** -0.086
16800 C16800 3.01687 23.7516 8.28188 C.2 0.0 **** 0.347
16801 O16801 2.20133 23.5448 7.38191 O.2 0.0 **** -0.419
16802 H16802 8.52369 26.4504 39.3971 H 0.0 **** 0.053
16803 H16803 8.28934 27.9137 38.4028 H 0.0 **** 0.053
16804 H16804 10.3499 27.406 40.5557 H 0.0 **** 0.053
16805 H16805 10.4013 28.5216 39.1827 H 0.0 **** 0.053
16806 H16806 9.07214 28.8836 41.9013 H 0.0 **** 0.053
16807 H16807 8.04242 30.9704 41.0693 H 0.0 **** 0.053
16808 H16808 6.53869 29.4919 39.2375 H 0.0 **** 0.053
16809 H16809 6.31952 29.4269 41.0136 H 0.0 **** 0.053
16810 H16810 8.59463 30.0618 38.2371 H 0.0 **** 0.053
16811 H16811 10.8449 30.5247 38.5918 H 0.0 **** 0.053
16812 H16812 10.0013 32.2695 40.9471 H 0.0 **** 0.053
16813 H16813 11.6772 31.9777 40.4583 H 0.0 **** 0.053
16814 H16814 10.7101 30.4479 42.3475 H 0.0 **** 0.053
16815 H16815 11.5885 29.6471 41.043 H 0.0 **** 0.053
16816 H16816 10.0305 33.4427 36.5641 H 0.0 **** 0.053
16817 H16817 7.97852 33.7539 37.5067 H 0.0 **** 0.053
16818 H16818 6.75909 31.6878 38.7153 H 0.0 **** 0.053
16819 H16819 7.93191 32.7409 39.5187 H 0.0 **** 0.053
16820 H16820 9.89296 30.4104 36.7382 H 0.0 **** 0.053
16821 H16821 5.0586 32.0203 33.0263 H 0.0 **** 0.053
16822 H16822 4.81403 30.9308 34.3894 H 0.0 **** 0.053
16823 H16823 4.15475 33.1978 35.0871 H 0.0 **** 0.053
16824 H16824 5.72254 33.856 34.5677 H 0.0 **** 0.053
16825 H16825 5.26867 31.8144 36.8124 H 0.0 **** 0.053
16826 H16826 5.74842 33.4965 37.0379 H 0.0 **** 0.053
16827 H16827 14.1227 32.9063 35.1483 H 0.0 **** 0.053
16828 H16828 14.5493 32.271 36.7165 H 0.0 **** 0.053
16829 H16829 12.1794 32.9422 36.9905 H 0.0 **** 0.1268
16830 H16830 16.3211 31.2907 35.0972 H 0.0 **** 0.053
16831 H16831 15.9887 29.8552 36.0826 H 0.0 **** 0.053
16832 H16832 16.973 29.1028 33.9289 H 0.0 **** 0.053
16833 H16833 15.7837 30.0528 33.0164 H 0.0 **** 0.053
16834 H16834 12.3185 27.5353 35.6964 H 0.0 **** 0.053
16835 H16835 11.8826 27.4407 34.0065 H 0.0 **** 0.053
16836 H16836 14.0237 25.8651 35.4914 H 0.0 **** 0.053
16837 H16837 13.7518 26.2362 32.4755 H 0.0 **** 0.053
16838 H16838 14.7215 24.9487 33.2187 H 0.0 **** 0.053
16839 H16839 16.0491 27.0727 32.6329 H 0.0 **** 0.053
16840 H16840 16.187 26.5761 34.3145 H 0.0 **** 0.053
16841 H16841 12.3623 28.9317 32.5197 H 0.0 **** 0.1268
16842 H16842 11.1088 27.2486 27.6351 H 0.0 **** 0.1268
16843 H16843 10.561 26.7662 25.3781 H 0.0 **** 0.1268
16844 H16844 4.9886 30.3265 29.8752 H 0.0 **** 0.1268
16845 H16845 8.70457 24.3718 20.8176 H 0.0 **** 0.053
16846 H16846 10.0432 24.4298 22.6689 H 0.0 **** 0.053
16847 H16847 10.7645 27.2299 21.7583 H 0.0 **** 0.053
16848 H16848 12.3626 25.3793 20.9291 H 0.0 **** 0.053
16849 H16849 12.3859 24.262 22.2958 H 0.0 **** 0.053
16850 H16850 10.8144 22.7237 20.8965 H 0.0 **** 0.053
16851 H16851 12.4547 22.8417 20.2521 H 0.0 **** 0.053
16852 H16852 11.8361 24.3145 18.525 H 0.0 **** 0.053
16853 H16853 10.6638 26.112 19.2715 H 0.0 **** 0.053
16854 H16854 8.1524 24.5459 18.5548 H 0.0 **** 0.053
16855 H16855 8.51619 26.2366 18.2126 H 0.0 **** 0.053
16856 H16856 10.3408 25.4668 16.6222 H 0.0 **** 0.053
16857 H16857 8.74379 24.8881 16.128 H 0.0 **** 0.053
16858 H16858 10.9153 23.2071 16.3588 H 0.0 **** 0.053
16859 H16859 9.25885 22.6366 16.6043 H 0.0 **** 0.053
16860 H16860 9.51932 22.572 18.839 H 0.0 **** 0.353
16861 H16861 2.07745 32.0993 27.4536 H 0.0 **** 0.053
16862 H16862 1.95451 31.0576 29.6868 H 0.0 **** 0.053
16863 H16863 2.03799 28.2854 28.5207 H 0.0 **** 0.053
16864 H16864 1.41579 28.8251 30.0863 H 0.0 **** 0.053
16865 H16865 -0.604094 28.2211 28.9924 H 0.0 **** 0.053
16866 H16866 0.00266216 28.682 27.3922 H 0.0 **** 0.053
16867 H16867 -0.692258 30.6792 29.6107 H 0.0 **** 0.053
16868 H16868 -1.76514 30.2941 28.2619 H 0.0 **** 0.053
16869 H16869 -0.157703 32.4114 28.0689 H 0.0 **** 0.053
16870 H16870 -0.375867 31.3771 26.6511 H 0.0 **** 0.053
16871 H16871 1.49544 29.6277 24.1887 H 0.0 **** 0.1268
16872 H16872 0.895957 29.0139 21.8679 H 0.0 **** 0.1268
16873 H16873 7.01779 25.8775 19.8116 H 0.0 **** 0.1268
16874 H16874 6.48291 25.741 17.4294 H 0.0 **** 0.053
16875 H16875 5.03593 26.542 15.9048 H 0.0 **** 0.053
16876 H16876 3.70073 23.8314 16.1095 H 0.0 **** 0.053
16877 H16877 6.49086 24.5544 15.1342 H 0.0 **** 0.053
16878 H16878 5.6995 23.0348 14.6912 H 0.0 **** 0.053
16879 H16879 7.22829 23.2153 16.9243 H 0.0 **** 0.053
16880 H16880 5.82714 22.141 16.8558 H 0.0 **** 0.053
16881 H16881 6.07606 23.77 18.9339 H 0.0 **** 0.053
16882 H16882 4.47958 23.5947 18.2077 H 0.0 **** 0.053
16883 H16883 11.6053 25.1496 35.3976 H 0.0 **** 0.053
16884 H16884 10.7183 24.0951 33.3643 H 0.0 **** 0.053
16885 H16885 12.2142 24.4401 32.4711 H 0.0 **** 0.053
16886 H16886 11.1471 25.7746 32.9597 H 0.0 **** 0.053
16887 H16887 13.4733 23.5749 35.9131 H 0.0 **** 0.053
16888 H16888 13.6733 23.2302 34.177 H 0.0 **** 0.053
16889 H16889 12.1766 22.7508 35.0049 H 0.0 **** 0.053
16890 H16890 11.734 27.4063 23.7975 H 0.0 **** 0.41
16891 H16891 -0.838994 28.6137 18.4445 H 0.0 **** 0.1268
16892 H16892 -2.43126 28.8371 16.5669 H 0.0 **** 0.1268
16893 H16893 -2.98948 28.5033 14.1844 H 0.0 **** 0.1268
16894 H16894 -3.55437 28.1916 11.8115 H 0.0 **** 0.1268
16895 H16895 -2.95544 27.3425 9.55635 H 0.0 **** 0.1268
16896 H16896 0.745 24.9805 7.70049 H 0.0 **** 0.1268
16897 H16897 -1.36571 26.1982 8.05996 H 0.0 **** 0.1268
16898 H16898 4.90388 23.8764 12.9696 H 0.0 **** 0.1268
16899 H16899 5.66308 24.257 11.1264 H 0.0 **** 0.053
16900 H16900 4.9656 22.6784 10.7515 H 0.0 **** 0.053
16901 H16901 6.44377 23.4086 8.89888 H 0.0 **** 0.053
16902 H16902 5.54776 24.9363 8.75721 H 0.0 **** 0.053
16903 H16903 4.37606 22.1271 8.32625 H 0.0 **** 0.053
16904 H16904 4.67356 23.2958 7.03374 H 0.0 **** 0.053
16905 C16905 55.2728 -4.30497 -1.17385 C.3 0.0 **** 0.054
16906 C16906 54.6056 -5.5262 -0.498737 C.3 0.0 **** -0.106
16907 C16907 53.5605 -6.16369 -1.43746 C.3 0.0 **** -0.053
16908 C16908 52.7769 -5.04677 -2.14591 C.3 0.0 **** -0.053
16909 C16909 53.7583 -4.18266 -2.9797 C.3 0.0 **** 0.054
16910 O16910 55.1284 -4.35397 -2.59743 O.3 0.0 **** -0.32
16911 C16911 51.9745 -4.20154 -1.1342 C.3 0.0 **** -0.053
16912 C16912 51.3775 -5.06226 0.0157627 C.3 0.0 **** 0.107
16913 C16913 51.2275 -6.51267 -0.410772 C.3 0.0 **** -0.106
16914 C16914 52.6059 -7.13551 -0.697718 C.3 0.0 **** -0.106
16915 O16915 50.0802 -4.59337 0.415109 O.3 0.0 **** -0.32
16916 C16916 50.0156 -3.16291 0.543726 C.3 0.0 **** 0.107
16917 C16917 50.0234 -2.55623 -0.87082 C.3 0.0 **** -0.053
16918 C16918 50.8415 -3.46046 -1.83902 C.3 0.0 **** -0.106
16919 C16919 50.409 -1.11479 -0.917555 C.2 0.0 **** 0.0
16920 C16920 50.8953 -0.420634 0.17884 C.2 0.0 **** 0.0
16921 C16921 51.1972 -1.09007 1.41901 C.2 0.0 **** 0.0
16922 C16922 51.0811 -2.59587 1.49516 C.3 0.0 **** -0.053
16923 C16923 51.7528 -0.414595 2.49161 C.2 0.0 **** 0.0
16924 C16924 51.9919 1.00662 2.40397 C.2 0.0 **** 0.0
16925 C16925 51.6447 1.65834 1.18175 C.2 0.0 **** 0.232
16926 C16926 51.1359 1.00673 0.0926303 C.2 0.0 **** 0.0
16927 C16927 50.8405 1.75372 -1.18313 C.3 0.0 **** -0.106
16928 C16928 49.7676 1.04844 -2.0135 C.3 0.0 **** -0.106
16929 C16929 50.1591 -0.416069 -2.22441 C.3 0.0 **** -0.106
16930 O16930 51.8576 3.01707 1.04833 O.3 0.0 **** -0.464
16931 C16931 52.2828 3.76699 2.11792 C.2 0.0 **** 0.232
16932 C16932 52.6856 3.17335 3.3279 C.2 0.0 **** 0.0
16933 C16933 52.5651 1.73997 3.44998 C.2 0.0 **** 0.0
16934 C16934 50.936 -3.08503 2.91678 C.2 0.0 **** 0.0
16935 C16935 51.8115 -2.45528 3.90175 C.2 0.0 **** 0.0
16936 C16936 52.1408 -1.11037 3.72177 C.2 0.0 **** 0.0
16937 C16937 52.1245 -3.23337 5.09888 C.2 0.0 **** 0.0
16938 C16938 51.2272 -4.16677 5.53094 C.2 0.0 **** 0.0
16939 C16939 50.0101 -4.50815 4.73507 C.3 0.0 **** -0.106
16940 C16940 50.0719 -4.04652 3.31213 C.2 0.0 **** -0.1268
16941 C16941 51.4812 -4.90216 6.81712 C.3 0.0 **** -0.106
16942 C16942 52.2604 -4.01417 7.79157 C.3 0.0 **** -0.106
16943 C16943 53.4955 -3.4785 7.10982 C.2 0.0 **** 0.0
16944 C16944 53.4219 -3.12516 5.80456 C.2 0.0 **** 0.0
16945 C16945 54.6528 -2.77849 4.99927 C.3 0.0 **** -0.106
16946 C16946 55.9672 -3.0267 5.74804 C.3 0.0 **** -0.053
16947 C16947 55.8259 -2.5425 7.1954 C.3 0.0 **** -0.106
16948 C16948 54.7581 -3.36777 7.91336 C.3 0.0 **** -0.106
16949 C16949 52.9482 1.02362 4.63201 C.2 0.0 **** -0.012
16950 C16950 52.7242 -0.325054 4.76141 C.2 0.0 **** -0.1268
16951 C16951 53.1192 4.05058 4.35461 C.2 0.0 **** 0.0
16952 C16952 53.5831 3.53445 5.61741 C.2 0.0 **** -0.012
16953 S16953 53.7836 1.82065 5.94687 S.2 0.0 **** 0.024
16954 C16954 53.9632 4.37883 6.62914 C.2 0.0 **** -0.1268
16955 C16955 53.9111 5.78887 6.47165 C.2 0.0 **** 0.0
16956 C16956 53.4879 6.34432 5.22518 C.2 0.0 **** 0.0
16957 C16957 53.1037 5.47784 4.16495 C.2 0.0 **** 0.0
16958 C16958 53.4692 7.75498 5.06693 C.2 0.0 **** 0.0
16959 C16959 53.8333 8.60216 6.1582 C.2 0.0 **** 0.0
16960 C16960 54.1887 8.01788 7.42749 C.2 0.0 **** 0.0
16961 C16961 54.2619 6.62008 7.53091 C.2 0.0 **** -0.1268
16962 C16962 54.443 8.88243 8.53325 C.2 0.0 **** 0.0
16963 C16963 54.5025 10.2477 8.32653 C.2 0.0 **** 0.042
16964 C16964 54.2736 10.8678 7.06189 C.2 0.0 **** 0.0
16965 C16965 53.8698 10.0188 5.99342 C.2 0.0 **** 0.0
16966 C16966 52.6928 6.03482 2.90702 C.2 0.0 **** 0.0
16967 C16967 52.2856 5.12838 1.90631 C.2 0.0 **** -0.1268
16968 C16968 53.086 8.31717 3.8046 C.2 0.0 **** 0.0
16969 C16969 52.6999 7.47096 2.72227 C.2 0.0 **** 0.0
16970 C16970 53.5111 10.5812 4.72339 C.2 0.0 **** 0.0
16971 C16971 53.11 9.7364 3.65582 C.2 0.0 **** 0.0
16972 C16972 54.4064 12.2865 6.84043 C.2 0.0 **** 0.0
16973 C16973 53.9965 12.8306 5.58665 C.2 0.0 **** 0.0
16974 C16974 53.5461 11.9885 4.53883 C.2 0.0 **** 0.0
16975 O16975 54.708 11.0298 9.44259 O.3 0.0 **** -0.202
16976 C16976 55.8572 10.6771 10.2635 C.3 0.0 **** 0.107
16977 C16977 55.9647 9.14493 10.4654 C.3 0.0 **** -0.053
16978 C16978 54.6401 8.52154 10.0022 C.3 0.0 **** 0.107
16979 C16979 56.3501 8.79726 11.9084 C.3 0.0 **** -0.106
16980 C16980 57.4299 9.77492 12.3841 C.3 0.0 **** -0.106
16981 C16981 56.8251 11.1666 12.5929 C.3 0.0 **** 0.134
16982 C16982 55.6939 11.4758 11.5555 C.3 0.0 **** -0.053
16983 C16983 55.6508 12.9845 11.2611 C.3 0.0 **** -0.106
16984 C16984 55.9212 13.8077 12.5195 C.3 0.0 **** -0.106
16985 C16985 57.3439 13.4939 13.0619 C.3 0.0 **** 0.081
16986 N16986 57.8716 12.1887 12.6363 N.3 0.0 **** -0.727
16987 C16987 52.3331 8.11069 1.48569 C.2 0.0 **** 0.042
16988 C16988 52.3091 9.49128 1.36125 C.2 0.0 **** 0.042
16989 C16989 52.7214 10.3396 2.42126 C.2 0.0 **** 0.0
16990 O16990 51.9125 10.1303 0.209212 O.3 0.0 **** -0.202
16991 C16991 51.2139 9.29426 -0.738701 C.3 0.0 **** 0.107
16992 C16992 52.0035 8.00284 -0.871547 C.3 0.0 **** 0.107
16993 O16993 51.9975 7.3297 0.402434 O.3 0.0 **** -0.202
16994 C16994 53.4432 8.23968 -1.37327 C.3 0.0 **** -0.106
16995 C16995 53.5726 9.51145 -2.23928 C.3 0.0 **** -0.106
16996 C16996 52.2783 9.76765 -3.01948 C.3 0.0 **** -0.106
16997 C16997 51.1057 10.0579 -2.06024 C.3 0.0 **** -0.106
16998 C16998 53.1547 12.5733 3.28921 C.2 0.0 **** 0.0
16999 C16999 52.74 11.7325 2.25656 C.2 0.0 **** -0.1268
17000 C17000 54.0585 14.2385 5.38913 C.2 0.0 **** 0.0
17001 C17001 53.6292 14.7902 4.1425 C.2 0.0 **** 0.042
17002 C17002 53.1953 13.9929 3.11986 C.2 0.0 **** -0.1268
17003 C17003 54.5484 15.0905 6.39043 C.2 0.0 **** 0.0
17004 C17004 55.0274 14.5422 7.58741 C.2 0.0 **** 0.0
17005 C17005 54.9493 13.1762 7.78757 C.2 0.0 **** -0.1268
17006 O17006 53.6555 16.1615 3.93801 O.3 0.0 **** -0.0685
17007 C17007 54.0658 17.0131 4.93797 C.2 0.0 **** 0.0265
17008 C17008 54.5431 16.5153 6.16251 C.2 0.0 **** 0.0
17009 C17009 55.6666 15.3957 8.65041 C.3 0.0 **** -0.053
17010 C17010 55.3413 16.9027 8.53273 C.3 0.0 **** -0.053
17011 C17011 54.9601 17.3976 7.16279 C.2 0.0 **** 0.0
17012 C17012 56.4929 17.7768 9.06433 C.3 0.0 **** -0.053
17013 C17013 57.0745 17.1538 10.3281 C.3 0.0 **** -0.106
17014 C17014 57.7785 15.8208 9.97127 C.3 0.0 **** -0.106
17015 C17015 57.1889 15.1726 8.70436 C.3 0.0 **** -0.106
17016 C17016 54.9136 18.7837 6.94996 C.2 0.0 **** 0.0
17017 C17017 54.3695 19.2893 5.73535 C.2 0.0 **** 0.0
17018 C17018 53.9528 18.3958 4.69903 C.2 0.0 **** 0.0
17019 C17019 56.0349 19.2083 9.1224 C.2 0.0 **** 0.0
17020 C17020 55.3385 19.6922 7.98009 C.2 0.0 **** 0.0
17021 C17021 57.1618 -2.40193 4.99721 C.3 0.0 **** -0.053
17022 C17022 57.1967 -0.8722 5.10936 C.3 0.0 **** -0.159
17023 C17023 58.4887 -3.0003 5.47547 C.3 0.0 **** -0.159
17024 O17024 54.651 7.13955 10.3639 O.3 0.0 **** -0.57
17025 C17025 53.4188 18.9375 3.48432 C.2 0.0 **** -0.1268
17026 C17026 53.2754 20.2878 3.32499 C.2 0.0 **** -0.1268
17027 C17027 53.6409 21.2104 4.36059 C.2 0.0 **** 0.0
17028 C17028 54.1974 20.6923 5.5745 C.2 0.0 **** 0.0
17029 C17029 54.5457 21.5811 6.62594 C.2 0.0 **** 0.0
17030 C17030 54.345 22.9735 6.47581 C.2 0.0 **** 0.0
17031 C17031 53.7932 23.4833 5.25629 C.2 0.0 **** 0.0
17032 C17032 53.4556 22.5902 4.22674 C.2 0.0 **** -0.1268
17033 C17033 53.5973 24.8929 5.12327 C.2 0.0 **** -0.1268
17034 C17034 53.9276 25.7481 6.14095 C.2 0.0 **** -0.1268
17035 C17035 54.4817 25.2622 7.36453 C.2 0.0 **** 0.0
17036 C17036 54.6948 23.8678 7.53041 C.2 0.0 **** 0.0
17037 C17037 55.2606 23.3717 8.74379 C.2 0.0 **** 0.0
17038 C17038 55.4716 21.9711 8.88753 C.2 0.0 **** 0.0
17039 C17039 55.1136 21.0771 7.83824 C.2 0.0 **** 0.0
17040 C17040 55.6268 24.2669 9.79234 C.2 0.0 **** 0.0
17041 C17041 55.3774 25.6539 9.59799 C.2 0.0 **** -0.1268
17042 C17042 54.8239 26.1283 8.42711 C.2 0.0 **** -0.1268
17043 C17043 56.3374 20.0701 10.1527 C.2 0.0 **** -0.1268
17044 C17044 56.0317 21.4549 10.0884 C.2 0.0 **** 0.0
17045 C17045 56.189 23.7272 11.0134 C.2 0.0 **** 0.052
17046 C17046 56.3217 22.3411 11.1719 C.2 0.0 **** 0.0
17047 C17047 56.7683 21.7324 12.4826 C.3 0.0 **** -0.106
17048 C17048 56.4767 22.6452 13.6674 C.3 0.0 **** -0.106
17049 C17049 57.1351 23.9904 13.4104 C.3 0.0 **** -0.086
17050 C17050 56.7284 24.62 12.084 C.2 0.0 **** 0.347
17051 O17051 56.9211 25.8279 11.9368 O.2 0.0 **** -0.419
17052 H17052 56.3538 -4.27532 -0.980741 H 0.0 **** 0.053
17053 H17053 54.8325 -3.36131 -0.794007 H 0.0 **** 0.053
17054 H17054 55.3575 -6.28517 -0.233456 H 0.0 **** 0.053
17055 H17055 54.1241 -5.20906 0.439844 H 0.0 **** 0.053
17056 H17056 54.1152 -6.72027 -2.20686 H 0.0 **** 0.053
17057 H17057 52.0549 -5.51072 -2.83858 H 0.0 **** 0.053
17058 H17058 53.4841 -3.11113 -2.88484 H 0.0 **** 0.053
17059 H17059 53.7241 -4.45486 -4.04395 H 0.0 **** 0.053
17060 H17060 52.6603 -3.45424 -0.703963 H 0.0 **** 0.053
17061 H17061 52.0468 -5.02414 0.896895 H 0.0 **** 0.053
17062 H17062 50.5932 -6.54536 -1.31129 H 0.0 **** 0.053
17063 H17063 50.7014 -7.07461 0.374221 H 0.0 **** 0.053
17064 H17064 52.467 -8.05191 -1.29072 H 0.0 **** 0.053
17065 H17065 53.074 -7.44487 0.251279 H 0.0 **** 0.053
17066 H17066 49.0376 -2.96943 1.00846 H 0.0 **** 0.053
17067 H17067 48.9814 -2.6047 -1.24089 H 0.0 **** 0.053
17068 H17068 51.2398 -2.86285 -2.67231 H 0.0 **** 0.053
17069 H17069 50.169 -4.21467 -2.27721 H 0.0 **** 0.053
17070 H17070 52.0744 -2.95366 1.15612 H 0.0 **** 0.053
17071 H17071 50.5456 2.78742 -0.952018 H 0.0 **** 0.053
17072 H17072 51.7681 1.82728 -1.78191 H 0.0 **** 0.053
17073 H17073 49.6339 1.55907 -2.97937 H 0.0 **** 0.053
17074 H17074 48.8053 1.08995 -1.47793 H 0.0 **** 0.053
17075 H17075 51.0683 -0.455608 -2.85739 H 0.0 **** 0.053
17076 H17076 49.3791 -0.95739 -2.78607 H 0.0 **** 0.053
17077 H17077 49.1075 -4.0828 5.22681 H 0.0 **** 0.053
17078 H17078 49.8419 -5.60189 4.78191 H 0.0 **** 0.053
17079 H17079 49.3952 -4.51543 2.5997 H 0.0 **** 0.1268
17080 H17080 50.5255 -5.23149 7.25546 H 0.0 **** 0.053
17081 H17081 52.0652 -5.82051 6.60379 H 0.0 **** 0.053
17082 H17082 52.5401 -4.57204 8.69887 H 0.0 **** 0.053
17083 H17083 51.6141 -3.17535 8.1146 H 0.0 **** 0.053
17084 H17084 54.6362 -3.3764 4.07051 H 0.0 **** 0.053
17085 H17085 54.6162 -1.73166 4.66129 H 0.0 **** 0.053
17086 H17086 56.1354 -4.11928 5.78502 H 0.0 **** 0.053
17087 H17087 55.5221 -1.48288 7.19223 H 0.0 **** 0.053
17088 H17088 56.7862 -2.60704 7.72966 H 0.0 **** 0.053
17089 H17089 54.5165 -2.92618 8.89739 H 0.0 **** 0.053
17090 H17090 55.1472 -4.38061 8.13561 H 0.0 **** 0.053
17091 H17091 52.9649 -0.81228 5.70601 H 0.0 **** 0.1268
17092 H17092 54.3059 3.97663 7.58522 H 0.0 **** 0.1268
17093 H17093 54.6298 6.16381 8.44459 H 0.0 **** 0.1268
17094 H17094 51.9534 5.47843 0.940038 H 0.0 **** 0.1268
17095 H17095 56.7554 11.0427 9.73138 H 0.0 **** 0.053
17096 H17096 56.7516 8.75835 9.79836 H 0.0 **** 0.053
17097 H17097 53.8319 9.02993 10.5677 H 0.0 **** 0.053
17098 H17098 55.4638 8.86827 12.562 H 0.0 **** 0.053
17099 H17099 56.6921 7.75555 11.954 H 0.0 **** 0.053
17100 H17100 58.2245 9.83717 11.6187 H 0.0 **** 0.053
17101 H17101 57.9151 9.4454 13.313 H 0.0 **** 0.053
17102 H17102 56.351 11.1809 13.5892 H 0.0 **** 0.053
17103 H17103 54.7295 11.1732 11.9977 H 0.0 **** 0.053
17104 H17104 56.4274 13.2192 10.5129 H 0.0 **** 0.053
17105 H17105 54.6889 13.2518 10.8031 H 0.0 **** 0.053
17106 H17106 55.1616 13.5629 13.2791 H 0.0 **** 0.053
17107 H17107 55.8239 14.8844 12.3071 H 0.0 **** 0.053
17108 H17108 57.3341 13.5194 14.1648 H 0.0 **** 0.053
17109 H17109 58.0586 14.2625 12.7321 H 0.0 **** 0.053
17110 H17110 58.2994 12.2701 11.7131 H 0.0 **** 0.353
17111 H17111 50.2188 9.06782 -0.320663 H 0.0 **** 0.053
17112 H17112 51.4609 7.31857 -1.53929 H 0.0 **** 0.053
17113 H17113 54.1025 8.31136 -0.49608 H 0.0 **** 0.053
17114 H17114 53.7569 7.35165 -1.94135 H 0.0 **** 0.053
17115 H17115 54.4259 9.40723 -2.92542 H 0.0 **** 0.053
17116 H17116 53.7765 10.377 -1.59166 H 0.0 **** 0.053
17117 H17117 52.0479 8.87859 -3.63122 H 0.0 **** 0.053
17118 H17118 52.399 10.607 -3.71997 H 0.0 **** 0.053
17119 H17119 50.1477 9.80602 -2.53922 H 0.0 **** 0.053
17120 H17120 51.0668 11.1291 -1.80946 H 0.0 **** 0.053
17121 H17121 52.4308 12.1617 1.30479 H 0.0 **** 0.1268
17122 H17122 52.8838 14.4341 2.1725 H 0.0 **** 0.1268
17123 H17123 55.3105 12.7811 8.72392 H 0.0 **** 0.1268
17124 H17124 55.2789 15.055 9.62261 H 0.0 **** 0.053
17125 H17125 54.4678 17.1067 9.1837 H 0.0 **** 0.053
17126 H17126 57.2867 17.7612 8.29046 H 0.0 **** 0.053
17127 H17127 56.2527 16.9807 11.0437 H 0.0 **** 0.053
17128 H17128 57.7871 17.8329 10.8175 H 0.0 **** 0.053
17129 H17129 57.6798 15.1228 10.8146 H 0.0 **** 0.053
17130 H17130 58.8557 15.9957 9.82585 H 0.0 **** 0.053
17131 H17131 57.4023 14.0932 8.68459 H 0.0 **** 0.053
17132 H17132 57.6435 15.5952 7.79432 H 0.0 **** 0.053
17133 H17133 57.0366 -2.66377 3.93061 H 0.0 **** 0.053
17134 H17134 57.9763 -0.455535 4.45398 H 0.0 **** 0.053
17135 H17135 57.4313 -0.566647 6.14074 H 0.0 **** 0.053
17136 H17136 56.2379 -0.407513 4.83359 H 0.0 **** 0.053
17137 H17137 58.4916 -4.09647 5.36773 H 0.0 **** 0.053
17138 H17138 58.6633 -2.76387 6.53721 H 0.0 **** 0.053
17139 H17139 59.3359 -2.59468 4.90182 H 0.0 **** 0.053
17140 H17140 53.7576 6.79444 10.2126 H 0.0 **** 0.41
17141 H17141 53.1205 18.2504 2.69266 H 0.0 **** 0.1268
17142 H17142 52.8635 20.6912 2.39824 H 0.0 **** 0.1268
17143 H17143 53.0297 22.9839 3.30121 H 0.0 **** 0.1268
17144 H17144 53.1753 25.2718 4.1907 H 0.0 **** 0.1268
17145 H17145 53.7689 26.8232 6.03625 H 0.0 **** 0.1268
17146 H17146 55.6442 26.3435 10.3917 H 0.0 **** 0.1268
17147 H17147 54.6412 27.1987 8.3109 H 0.0 **** 0.1268
17148 H17148 56.8646 19.6805 11.0193 H 0.0 **** 0.1268
17149 H17149 56.2609 20.7678 12.6231 H 0.0 **** 0.053
17150 H17150 57.852 21.5125 12.4433 H 0.0 **** 0.053
17151 H17151 56.8413 22.1942 14.6028 H 0.0 **** 0.053
17152 H17152 55.386 22.7731 13.7638 H 0.0 **** 0.053
17153 H17153 58.2329 23.8641 13.3698 H 0.0 **** 0.053
17154 H17154 56.9337 24.7339 14.1947 H 0.0 **** 0.053
17155 C17155 60.1788 25.2042 10.9751 C.3 0.0 **** 0.054
17156 C17156 61.2244 24.0719 11.105 C.3 0.0 **** -0.106
17157 C17157 61.8729 24.0877 12.5046 C.3 0.0 **** -0.053
17158 C17158 62.1377 25.5449 12.917 C.3 0.0 **** -0.053
17159 C17159 60.7929 26.3158 12.9643 C.3 0.0 **** 0.054
17160 O17160 59.7355 25.6532 12.2603 O.3 0.0 **** -0.32
17161 C17161 63.158 26.2144 11.9723 C.3 0.0 **** -0.053
17162 C17162 64.2843 25.2377 11.5281 C.3 0.0 **** 0.107
17163 C17163 64.4455 24.1025 12.5249 C.3 0.0 **** -0.106
17164 C17164 63.17 23.2416 12.5725 C.3 0.0 **** -0.106
17165 O17165 65.5535 25.9006 11.4197 O.3 0.0 **** -0.32
17166 C17166 65.4673 27.1729 10.7557 C.3 0.0 **** 0.107
17167 C17167 64.8 28.1697 11.7202 C.3 0.0 **** -0.053
17168 C17168 63.7913 27.4285 12.6462 C.3 0.0 **** -0.106
17169 C17169 64.2344 29.3808 11.0554 C.2 0.0 **** 0.0
17170 C17170 64.1467 29.5235 9.6798 C.2 0.0 **** 0.0
17171 C17171 64.472 28.4381 8.7891 C.2 0.0 **** 0.0
17172 C17172 64.8152 27.0835 9.36688 C.3 0.0 **** -0.053
17173 C17173 64.3147 28.552 7.41883 C.2 0.0 **** 0.0
17174 C17174 63.8674 29.7991 6.84487 C.2 0.0 **** 0.0
17175 C17175 63.5928 30.8755 7.74206 C.2 0.0 **** 0.232
17176 C17176 63.6979 30.7753 9.10169 C.2 0.0 **** 0.0
17177 C17177 63.3416 31.9405 9.98958 C.3 0.0 **** -0.106
17178 C17178 64.0687 31.8683 11.3328 C.3 0.0 **** -0.106
17179 C17179 63.831 30.4993 11.9745 C.3 0.0 **** -0.106
17180 O17180 63.1592 32.088 7.24096 O.3 0.0 **** -0.464
17181 C17181 63.108 32.307 5.88572 C.2 0.0 **** 0.232
17182 C17182 63.3194 31.2713 4.95758 C.2 0.0 **** 0.0
17183 C17183 63.6754 29.9689 5.46836 C.2 0.0 **** 0.0
17184 C17184 65.5931 26.2294 8.3938 C.2 0.0 **** 0.0
17185 C17185 65.1175 26.2396 7.01282 C.2 0.0 **** 0.0
17186 C17186 64.5618 27.4216 6.51928 C.2 0.0 **** 0.0
17187 C17187 65.4302 25.0664 6.19903 C.2 0.0 **** 0.0
17188 C17188 66.5449 24.3368 6.49618 C.2 0.0 **** 0.0
17189 C17189 67.3661 24.6237 7.71046 C.3 0.0 **** -0.106
17190 C17190 66.6667 25.4767 8.72284 C.2 0.0 **** -0.1268
17191 C17191 66.9412 23.1905 5.60819 C.3 0.0 **** -0.106
17192 C17192 66.5127 23.465 4.16376 C.3 0.0 **** -0.106
17193 C17193 65.0461 23.8188 4.13033 C.2 0.0 **** 0.0
17194 C17194 64.5318 24.5745 5.12953 C.2 0.0 **** 0.0
17195 C17195 63.0446 24.7976 5.27916 C.3 0.0 **** -0.106
17196 C17196 62.1976 23.9645 4.31051 C.3 0.0 **** -0.053
17197 C17197 62.8485 23.9824 2.92297 C.3 0.0 **** -0.106
17198 C17198 64.2187 23.3078 2.98736 C.3 0.0 **** -0.106
17199 C17199 63.9101 28.8365 4.61987 C.2 0.0 **** -0.012
17200 C17200 64.3508 27.6376 5.124 C.2 0.0 **** -0.1268
17201 C17201 63.2258 31.6168 3.58518 C.2 0.0 **** 0.0
17202 C17202 63.3929 30.6173 2.5608 C.2 0.0 **** -0.012
17203 S17203 63.5823 28.9046 2.90237 S.2 0.0 **** 0.024
17204 C17204 63.346 30.9529 1.23181 C.2 0.0 **** -0.1268
17205 C17205 63.1346 32.2941 0.81686 C.2 0.0 **** 0.0
17206 C17206 62.932 33.3125 1.79821 C.2 0.0 **** 0.0
17207 C17207 62.9659 32.9735 3.17894 C.2 0.0 **** 0.0
17208 C17208 62.6901 34.6452 1.3728 C.2 0.0 **** 0.0
17209 C17209 62.6896 34.9625 -0.0202107 C.2 0.0 **** 0.0
17210 C17210 62.9667 33.9298 -0.98745 C.2 0.0 **** 0.0
17211 C17211 63.1353 32.6109 -0.538001 C.2 0.0 **** -0.1268
17212 C17212 63.0688 34.2892 -2.36412 C.2 0.0 **** 0.0
17213 C17213 62.7428 35.574 -2.75522 C.2 0.0 **** 0.042
17214 C17214 62.3486 36.6021 -1.84748 C.2 0.0 **** 0.0
17215 C17215 62.3943 36.287 -0.460396 C.2 0.0 **** 0.0
17216 C17216 62.7473 33.9935 4.16549 C.2 0.0 **** 0.0
17217 C17217 62.8318 33.6059 5.51882 C.2 0.0 **** -0.1268
17218 C17218 62.444 35.6635 2.35203 C.2 0.0 **** 0.0
17219 C17219 62.4679 35.3504 3.74414 C.2 0.0 **** 0.0
17220 C17220 62.123 37.3011 0.517379 C.2 0.0 **** 0.0
17221 C17221 62.1663 36.9888 1.90118 C.2 0.0 **** 0.0
17222 C17222 61.943 37.9194 -2.27132 C.2 0.0 **** 0.0
17223 C17223 61.727 38.9261 -1.28343 C.2 0.0 **** 0.0
17224 C17224 61.8224 38.6239 0.0983753 C.2 0.0 **** 0.0
17225 O17225 62.9046 35.8693 -4.09171 O.3 0.0 **** -0.202
17226 C17226 62.2504 34.9652 -5.02642 C.3 0.0 **** 0.107
17227 C17227 62.4467 33.4837 -4.61844 C.3 0.0 **** -0.053
17228 C17228 63.5394 33.4398 -3.5406 C.3 0.0 **** 0.107
17229 C17229 62.7349 32.6015 -5.83925 C.3 0.0 **** -0.106
17230 C17230 61.8195 33.0311 -6.99051 C.3 0.0 **** -0.106
17231 C17231 62.2589 34.3949 -7.5318 C.3 0.0 **** 0.134
17232 C17232 62.8145 35.3234 -6.40026 C.3 0.0 **** -0.053
17233 C17233 62.5256 36.7949 -6.74059 C.3 0.0 **** -0.106
17234 C17234 62.6812 37.0638 -8.23646 C.3 0.0 **** -0.106
17235 C17235 61.6613 36.2065 -9.03741 C.3 0.0 **** 0.081
17236 N17236 61.1911 35.0115 -8.32016 N.3 0.0 **** -0.727
17237 C17237 62.2068 36.4261 4.66481 C.2 0.0 **** 0.042
17238 C17238 61.9876 37.7222 4.22427 C.2 0.0 **** 0.042
17239 C17239 61.9307 38.037 2.84188 C.2 0.0 **** 0.0
17240 O17240 61.788 38.7788 5.08256 O.3 0.0 **** -0.202
17241 C17241 62.1473 38.5202 6.45717 C.3 0.0 **** 0.107
17242 C17242 61.5582 37.1709 6.8331 C.3 0.0 **** 0.107
17243 O17243 62.1756 36.1581 6.01507 O.3 0.0 **** -0.202
17244 C17244 60.0214 37.1393 6.6991 C.3 0.0 **** -0.106
17245 C17245 59.3765 38.5295 6.88719 C.3 0.0 **** -0.106
17246 C17246 60.1915 39.3741 7.873 C.3 0.0 **** -0.106
17247 C17247 61.6011 39.6622 7.31666 C.3 0.0 **** -0.106
17248 C17248 61.5857 39.661 1.06028 C.2 0.0 **** 0.0
17249 C17249 61.6549 39.345 2.41704 C.2 0.0 **** -0.1268
17250 C17250 61.3966 40.246 -1.7004 C.2 0.0 **** 0.0
17251 C17251 61.1999 41.2628 -0.715411 C.2 0.0 **** 0.042
17252 C17252 61.2845 40.9884 0.621505 C.2 0.0 **** -0.1268
17253 C17253 61.2453 40.5608 -3.05919 C.2 0.0 **** 0.0
17254 C17254 61.3763 39.549 -4.01924 C.2 0.0 **** 0.0
17255 C17255 61.7165 38.2707 -3.61618 C.2 0.0 **** -0.1268
17256 O17256 60.904 42.5618 -1.10002 O.3 0.0 **** -0.0685
17257 C17257 60.824 42.8991 -2.43167 C.2 0.0 **** 0.0265
17258 C17258 60.9609 41.9247 -3.43503 C.2 0.0 **** 0.0
17259 C17259 61.115 39.8035 -5.48008 C.3 0.0 **** -0.053
17260 C17260 61.1532 41.2968 -5.8792 C.3 0.0 **** -0.053
17261 C17261 60.8707 42.2878 -4.78149 C.2 0.0 **** 0.0
17262 C17262 60.21 41.5946 -7.06006 C.3 0.0 **** -0.053
17263 C17263 60.286 40.4649 -8.08062 C.3 0.0 **** -0.106
17264 C17264 59.6886 39.1733 -7.46842 C.3 0.0 **** -0.106
17265 C17265 59.7936 39.1555 -5.93168 C.3 0.0 **** -0.106
17266 C17266 60.6351 43.6234 -5.14123 C.2 0.0 **** 0.0
17267 C17267 60.5614 44.6206 -4.1278 C.2 0.0 **** 0.0
17268 C17268 60.6382 44.2587 -2.74611 C.2 0.0 **** 0.0
17269 C17269 60.45 43.001 -7.53613 C.2 0.0 **** 0.0
17270 C17270 60.5463 43.9986 -6.52634 C.2 0.0 **** 0.0
17271 C17271 60.7271 24.4323 4.31356 C.3 0.0 **** -0.053
17272 C17272 60.5306 25.7716 3.59141 C.3 0.0 **** -0.159
17273 C17273 59.8067 23.3647 3.7131 C.3 0.0 **** -0.159
17274 O17274 63.8673 32.0706 -3.29835 O.3 0.0 **** -0.57
17275 C17275 60.5504 45.2858 -1.75038 C.2 0.0 **** -0.1268
17276 C17276 60.429 46.5992 -2.11002 C.2 0.0 **** -0.1268
17277 C17277 60.3942 47.0021 -3.48615 C.2 0.0 **** 0.0
17278 C17278 60.458 45.9904 -4.49803 C.2 0.0 **** 0.0
17279 C17279 60.4498 46.3625 -5.86851 C.2 0.0 **** 0.0
17280 C17280 60.3781 47.7272 -6.23432 C.2 0.0 **** 0.0
17281 C17281 60.3088 48.732 -5.2159 C.2 0.0 **** 0.0
17282 C17282 60.3168 48.346 -3.86589 C.2 0.0 **** -0.1268
17283 C17283 60.2373 50.1055 -5.60481 C.2 0.0 **** -0.1268
17284 C17284 60.2362 50.4631 -6.92706 C.2 0.0 **** -0.1268
17285 C17285 60.3017 49.478 -7.95935 C.2 0.0 **** 0.0
17286 C17286 60.369 48.1029 -7.61023 C.2 0.0 **** 0.0
17287 C17287 60.4212 47.1086 -8.63351 C.2 0.0 **** 0.0
17288 C17288 60.4823 45.7355 -8.26224 C.2 0.0 **** 0.0
17289 C17289 60.5008 45.3607 -6.88837 C.2 0.0 **** 0.0
17290 C17290 60.3949 47.4824 -10.0099 C.2 0.0 **** 0.0
17291 C17291 60.3497 48.87 -10.3199 C.2 0.0 **** -0.1268
17292 C17292 60.3068 49.8278 -9.32825 C.2 0.0 **** -0.1268
17293 C17293 60.4782 43.3684 -8.86279 C.2 0.0 **** -0.1268
17294 C17294 60.5373 44.7286 -9.26488 C.2 0.0 **** 0.0
17295 C17295 60.4594 46.4471 -11.021 C.2 0.0 **** 0.052
17296 C17296 60.5951 45.1045 -10.6428 C.2 0.0 **** 0.0
17297 C17297 60.8101 44.0109 -11.6654 C.3 0.0 **** -0.106
17298 C17298 61.4307 44.5425 -12.9515 C.3 0.0 **** -0.106
17299 C17299 60.5463 45.6565 -13.4863 C.3 0.0 **** -0.086
17300 C17300 60.286 46.763 -12.4717 C.2 0.0 **** 0.347
17301 O17301 59.8857 47.8489 -12.8938 O.2 0.0 **** -0.419
17302 H17302 59.2776 24.865 10.4463 H 0.0 **** 0.053
17303 H17303 60.6011 26.0617 10.4139 H 0.0 **** 0.053
17304 H17304 60.7584 23.0886 10.9384 H 0.0 **** 0.053
17305 H17305 61.998 24.1962 10.3307 H 0.0 **** 0.053
17306 H17306 61.1352 23.6722 13.2065 H 0.0 **** 0.053
17307 H17307 62.571 25.5485 13.9312 H 0.0 **** 0.053
17308 H17308 60.9315 27.3329 12.5416 H 0.0 **** 0.053
17309 H17309 60.4274 26.4175 13.9957 H 0.0 **** 0.053
17310 H17310 62.6114 26.5609 11.0806 H 0.0 **** 0.053
17311 H17311 64.034 24.8034 10.5408 H 0.0 **** 0.053
17312 H17312 64.6555 24.538 13.5151 H 0.0 **** 0.053
17313 H17313 65.3178 23.4924 12.2499 H 0.0 **** 0.053
17314 H17314 63.1798 22.6398 13.4935 H 0.0 **** 0.053
17315 H17315 63.177 22.5279 11.7323 H 0.0 **** 0.053
17316 H17316 66.5129 27.4757 10.5982 H 0.0 **** 0.053
17317 H17317 65.5965 28.5371 12.3953 H 0.0 **** 0.053
17318 H17318 63.0098 28.1223 12.9898 H 0.0 **** 0.053
17319 H17319 64.3236 27.0746 13.5432 H 0.0 **** 0.053
17320 H17320 63.8296 26.5875 9.47781 H 0.0 **** 0.053
17321 H17321 63.5596 32.8858 9.47221 H 0.0 **** 0.053
17322 H17322 62.25 31.9362 10.1709 H 0.0 **** 0.053
17323 H17323 63.7254 32.6754 11.9978 H 0.0 **** 0.053
17324 H17324 65.15 32.0067 11.1706 H 0.0 **** 0.053
17325 H17325 62.7577 30.4087 12.2365 H 0.0 **** 0.053
17326 H17326 64.3807 30.4076 12.9266 H 0.0 **** 0.053
17327 H17327 68.3228 25.1067 7.41217 H 0.0 **** 0.053
17328 H17328 67.6876 23.6661 8.16464 H 0.0 **** 0.053
17329 H17329 67.0517 25.4694 9.74121 H 0.0 **** 0.1268
17330 H17330 68.0279 23.0222 5.67614 H 0.0 **** 0.053
17331 H17331 66.4535 22.2625 5.96993 H 0.0 **** 0.053
17332 H17332 66.707 22.5927 3.52039 H 0.0 **** 0.053
17333 H17333 67.1123 24.3037 3.76033 H 0.0 **** 0.053
17334 H17334 62.7634 24.5564 6.31988 H 0.0 **** 0.053
17335 H17335 62.7958 25.8631 5.15965 H 0.0 **** 0.053
17336 H17336 62.2113 22.9163 4.66325 H 0.0 **** 0.053
17337 H17337 62.9755 25.0282 2.59859 H 0.0 **** 0.053
17338 H17338 62.2083 23.4836 2.17926 H 0.0 **** 0.053
17339 H17339 64.7771 23.4627 2.04616 H 0.0 **** 0.053
17340 H17340 64.0976 22.2106 3.07764 H 0.0 **** 0.053
17341 H17341 64.5857 26.8283 4.43299 H 0.0 **** 0.1268
17342 H17342 63.4817 30.1882 0.463606 H 0.0 **** 0.1268
17343 H17343 63.2384 31.8036 -1.25637 H 0.0 **** 0.1268
17344 H17344 62.6896 34.3237 6.31328 H 0.0 **** 0.1268
17345 H17345 61.1724 35.2124 -5.01 H 0.0 **** 0.053
17346 H17346 61.5177 33.1242 -4.14802 H 0.0 **** 0.053
17347 H17347 64.4295 33.9479 -3.96611 H 0.0 **** 0.053
17348 H17348 63.7917 32.7076 -6.13889 H 0.0 **** 0.053
17349 H17349 62.5882 31.5476 -5.57077 H 0.0 **** 0.053
17350 H17350 60.7816 33.107 -6.61877 H 0.0 **** 0.053
17351 H17351 61.8055 32.3007 -7.81102 H 0.0 **** 0.053
17352 H17352 63.091 34.2246 -8.23623 H 0.0 **** 0.053
17353 H17353 63.907 35.1805 -6.34341 H 0.0 **** 0.053
17354 H17354 61.4873 37.0265 -6.44701 H 0.0 **** 0.053
17355 H17355 63.1705 37.4536 -6.14308 H 0.0 **** 0.053
17356 H17356 63.7102 36.8146 -8.54129 H 0.0 **** 0.053
17357 H17357 62.5342 38.1334 -8.45575 H 0.0 **** 0.053
17358 H17358 62.1162 35.8816 -9.98848 H 0.0 **** 0.053
17359 H17359 60.7758 36.8057 -9.29642 H 0.0 **** 0.053
17360 H17360 60.4174 35.2583 -7.70173 H 0.0 **** 0.353
17361 H17361 63.2471 38.4626 6.51397 H 0.0 **** 0.053
17362 H17362 61.87 36.9166 7.85613 H 0.0 **** 0.053
17363 H17363 59.774 36.7395 5.70502 H 0.0 **** 0.053
17364 H17364 59.629 36.4276 7.44026 H 0.0 **** 0.053
17365 H17365 58.3409 38.413 7.23887 H 0.0 **** 0.053
17366 H17366 59.3372 39.0496 5.91867 H 0.0 **** 0.053
17367 H17367 60.2725 38.8287 8.82888 H 0.0 **** 0.053
17368 H17368 59.6813 40.3228 8.096 H 0.0 **** 0.053
17369 H17369 62.3052 39.8564 8.13945 H 0.0 **** 0.053
17370 H17370 61.5909 40.5631 6.68415 H 0.0 **** 0.053
17371 H17371 61.4869 40.1233 3.15977 H 0.0 **** 0.1268
17372 H17372 61.1188 41.7769 1.35643 H 0.0 **** 0.1268
17373 H17373 61.8266 37.5135 -4.37636 H 0.0 **** 0.1268
17374 H17374 61.9083 39.2951 -6.04924 H 0.0 **** 0.053
17375 H17375 62.179 41.5205 -6.23431 H 0.0 **** 0.053
17376 H17376 59.1801 41.6029 -6.64956 H 0.0 **** 0.053
17377 H17377 61.3434 40.3121 -8.35629 H 0.0 **** 0.053
17378 H17378 59.7487 40.7233 -9.00416 H 0.0 **** 0.053
17379 H17379 60.2176 38.301 -7.87761 H 0.0 **** 0.053
17380 H17380 58.6329 39.0744 -7.76455 H 0.0 **** 0.053
17381 H17381 59.7416 38.1245 -5.55033 H 0.0 **** 0.053
17382 H17382 58.9541 39.6994 -5.47041 H 0.0 **** 0.053
17383 H17383 60.4414 24.5697 5.37249 H 0.0 **** 0.053
17384 H17384 59.5024 26.1376 3.7314 H 0.0 **** 0.053
17385 H17385 60.6972 25.6542 2.50947 H 0.0 **** 0.053
17386 H17386 61.2198 26.5501 3.95255 H 0.0 **** 0.053
17387 H17387 59.9111 22.4059 4.24493 H 0.0 **** 0.053
17388 H17388 60.0493 23.192 2.65247 H 0.0 **** 0.053
17389 H17389 58.7522 23.6757 3.76557 H 0.0 **** 0.053
17390 H17390 64.6596 32.058 -2.7395 H 0.0 **** 0.41
17391 H17391 60.5916 44.9995 -0.699563 H 0.0 **** 0.1268
17392 H17392 60.3674 47.3752 -1.34495 H 0.0 **** 0.1268
17393 H17393 60.2698 49.1167 -3.09336 H 0.0 **** 0.1268
17394 H17394 60.1859 50.864 -4.82157 H 0.0 **** 0.1268
17395 H17395 60.1887 51.5143 -7.21792 H 0.0 **** 0.1268
17396 H17396 60.3375 49.1667 -11.3632 H 0.0 **** 0.1268
17397 H17397 60.2769 50.8852 -9.59959 H 0.0 **** 0.1268
17398 H17398 60.4093 42.5915 -9.6195 H 0.0 **** 0.1268
17399 H17399 61.4583 43.2359 -11.2329 H 0.0 **** 0.053
17400 H17400 59.8461 43.519 -11.8958 H 0.0 **** 0.053
17401 H17401 61.545 43.7341 -13.6896 H 0.0 **** 0.053
17402 H17402 62.4369 44.935 -12.7307 H 0.0 **** 0.053
17403 H17403 59.5561 45.2459 -13.7578 H 0.0 **** 0.053
17404 H17404 60.9454 46.137 -14.3909 H 0.0 **** 0.053
17405 C17405 -2.14107 49.4826 5.94913 C.3 0.0 **** 0.054
17406 C17406 -3.57634 50.0548 5.87934 C.3 0.0 **** -0.106
17407 C17407 -3.63034 51.2761 4.93844 C.3 0.0 **** -0.053
17408 C17408 -2.37818 52.1387 5.16568 C.3 0.0 **** -0.053
17409 C17409 -1.11376 51.2992 4.84711 C.3 0.0 **** 0.054
17410 O17410 -1.36335 49.8886 4.8177 O.3 0.0 **** -0.32
17411 C17411 -2.34913 52.7116 6.59844 C.3 0.0 **** -0.053
17412 C17412 -3.76366 53.115 7.10438 C.3 0.0 **** 0.107
17413 C17413 -4.70056 53.3902 5.9405 C.3 0.0 **** -0.106
17414 C17414 -4.92493 52.1103 5.1148 C.3 0.0 **** -0.106
17415 O17415 -3.72265 54.2997 7.91497 O.3 0.0 **** -0.32
17416 C17416 -2.64585 54.291 8.86754 C.3 0.0 **** 0.107
17417 C17417 -1.33069 54.5236 8.1025 C.3 0.0 **** -0.053
17418 C17418 -1.43152 53.9293 6.66691 C.3 0.0 **** -0.106
17419 C17419 -0.106219 54.1046 8.84663 C.2 0.0 **** 0.0
17420 C17420 -0.143723 53.4011 10.04 C.2 0.0 **** 0.0
17421 C17421 -1.38287 52.8986 10.5778 C.2 0.0 **** 0.0
17422 C17422 -2.65457 53.0497 9.77369 C.3 0.0 **** -0.053
17423 C17423 -1.41598 52.1321 11.7297 C.2 0.0 **** 0.0
17424 C17424 -0.195977 51.8652 12.4543 C.2 0.0 **** 0.0
17425 C17425 1.0147 52.4095 11.928 C.2 0.0 **** 0.232
17426 C17426 1.08054 53.1323 10.7691 C.2 0.0 **** 0.0
17427 C17427 2.40367 53.6325 10.2476 C.3 0.0 **** -0.106
17428 C17428 2.22946 54.8634 9.35736 C.3 0.0 **** -0.106
17429 C17429 1.19968 54.5674 8.26444 C.3 0.0 **** -0.106
17430 O17430 2.20868 52.179 12.5841 O.3 0.0 **** -0.464
17431 C17431 2.22692 51.5386 13.7993 C.2 0.0 **** 0.232
17432 C17432 1.07488 50.9399 14.3407 C.2 0.0 **** 0.0
17433 C17433 -0.165362 51.0844 13.6162 C.2 0.0 **** 0.0
17434 C17434 -3.89 52.9466 10.6365 C.2 0.0 **** 0.0
17435 C17435 -3.883 51.8835 11.6381 C.2 0.0 **** 0.0
17436 C17436 -2.66358 51.5477 12.2296 C.2 0.0 **** 0.0
17437 C17437 -5.18405 51.3817 12.0762 C.2 0.0 **** 0.0
17438 C17438 -6.26371 52.215 12.0218 C.2 0.0 **** 0.0
17439 C17439 -6.17541 53.5689 11.3969 C.3 0.0 **** -0.106
17440 C17440 -4.96828 53.755 10.531 C.2 0.0 **** -0.1268
17441 C17441 -7.58688 51.7533 12.5654 C.3 0.0 **** -0.106
17442 C17442 -7.37274 50.778 13.7266 C.3 0.0 **** -0.106
17443 C17443 -6.44184 49.6724 13.2927 C.2 0.0 **** 0.0
17444 C17444 -5.40185 49.9735 12.4792 C.2 0.0 **** 0.0
17445 C17445 -4.55221 48.9011 11.8373 C.3 0.0 **** -0.106
17446 C17446 -5.08201 47.4804 12.0623 C.3 0.0 **** -0.053
17447 C17447 -5.54485 47.3359 13.5163 C.3 0.0 **** -0.106
17448 C17448 -6.71744 48.2802 13.7806 C.3 0.0 **** -0.106
17449 C17449 -1.40197 50.5143 14.0667 C.2 0.0 **** -0.012
17450 C17450 -2.5864 50.7562 13.4152 C.2 0.0 **** -0.1268
17451 C17451 1.22173 50.2949 15.5953 C.2 0.0 **** 0.0
17452 C17452 0.106598 49.6238 16.2137 C.2 0.0 **** -0.012
17453 S17453 -1.45508 49.4242 15.4345 S.2 0.0 **** 0.024
17454 C17454 0.231254 49.0352 17.4462 C.2 0.0 **** -0.1268
17455 C17455 1.45919 49.0676 18.1581 C.2 0.0 **** 0.0
17456 C17456 2.59993 49.6944 17.5689 C.2 0.0 **** 0.0
17457 C17457 2.48532 50.2967 16.2857 C.2 0.0 **** 0.0
17458 C17458 3.83153 49.6941 18.275 C.2 0.0 **** 0.0
17459 C17459 3.91082 49.1064 19.5748 C.2 0.0 **** 0.0
17460 C17460 2.72795 48.543 20.1766 C.2 0.0 **** 0.0
17461 C17461 1.54312 48.4995 19.4255 C.2 0.0 **** -0.1268
17462 C17462 2.80391 48.06 21.5166 C.2 0.0 **** 0.0
17463 C17463 4.03336 47.9934 22.1444 C.2 0.0 **** 0.042
17464 C17464 5.25282 48.4305 21.546 C.2 0.0 **** 0.0
17465 C17465 5.15557 49.0529 20.2699 C.2 0.0 **** 0.0
17466 C17466 3.63497 50.9134 15.6862 C.2 0.0 **** 0.0
17467 C17467 3.45149 51.5288 14.4306 C.2 0.0 **** -0.1268
17468 C17468 4.99021 50.2843 17.6704 C.2 0.0 **** 0.0
17469 C17469 4.9047 50.8919 16.3819 C.2 0.0 **** 0.0
17470 C17470 6.32089 49.6205 19.6552 C.2 0.0 **** 0.0
17471 C17471 6.22669 50.2401 18.3818 C.2 0.0 **** 0.0
17472 C17472 6.5401 48.2927 22.1811 C.2 0.0 **** 0.0
17473 C17473 7.67693 48.9082 21.5772 C.2 0.0 **** 0.0
17474 C17474 7.56948 49.5724 20.3294 C.2 0.0 **** 0.0
17475 O17475 4.03271 47.5592 23.4525 O.3 0.0 **** -0.202
17476 C17476 3.36292 46.2909 23.7012 C.3 0.0 **** 0.107
17477 C17477 2.01482 46.2 22.9434 C.3 0.0 **** -0.053
17478 C17478 1.67253 47.6077 22.4344 C.3 0.0 **** 0.107
17479 C17479 0.92461 45.567 23.8166 C.3 0.0 **** -0.106
17480 C17480 1.52625 44.3855 24.5847 C.3 0.0 **** -0.106
17481 C17481 2.48099 44.8939 25.6692 C.3 0.0 **** 0.134
17482 C17482 3.2431 46.1859 25.2206 C.3 0.0 **** -0.053
17483 C17483 4.6313 46.2313 25.8805 C.3 0.0 **** -0.106
17484 C17484 4.58626 45.7058 27.3144 C.3 0.0 **** -0.106
17485 C17485 4.13245 44.2189 27.3193 C.3 0.0 **** 0.081
17486 N17486 3.36762 43.8233 26.1269 N.3 0.0 **** -0.727
17487 C17487 6.11244 51.4586 15.8405 C.2 0.0 **** 0.042
17488 C17488 7.29959 51.4583 16.5566 C.2 0.0 **** 0.042
17489 C17489 7.40198 50.829 17.8242 C.2 0.0 **** 0.0
17490 O17490 8.45509 52.0387 16.0867 O.3 0.0 **** -0.202
17491 C17491 8.27407 52.9281 14.9634 C.3 0.0 **** 0.107
17492 C17492 7.37124 52.2208 13.9666 C.3 0.0 **** 0.107
17493 O17493 6.08434 52.0144 14.581 O.3 0.0 **** -0.202
17494 C17494 7.97226 50.8911 13.4652 C.3 0.0 **** -0.106
17495 C17495 9.51579 50.8806 13.5044 C.3 0.0 **** -0.106
17496 C17496 10.072 52.2871 13.2558 C.3 0.0 **** -0.106
17497 C17497 9.65257 53.2522 14.3837 C.3 0.0 **** -0.106
17498 C17498 8.73839 50.1675 19.7495 C.2 0.0 **** 0.0
17499 C17499 8.62593 50.7939 18.5084 C.2 0.0 **** -0.1268
17500 C17500 8.93579 48.8359 22.2369 C.2 0.0 **** 0.0
17501 C17501 10.0731 49.4689 21.6464 C.2 0.0 **** 0.042
17502 C17502 9.98846 50.1107 20.442 C.2 0.0 **** -0.1268
17503 C17503 9.08158 48.1412 23.4471 C.2 0.0 **** 0.0
17504 C17504 7.98006 47.4685 23.992 C.2 0.0 **** 0.0
17505 C17505 6.75229 47.5546 23.3616 C.2 0.0 **** -0.1268
17506 O17506 11.3034 49.4343 22.2851 O.3 0.0 **** -0.0685
17507 C17507 11.4432 48.8179 23.5075 C.2 0.0 **** 0.0265
17508 C17508 10.3663 48.1401 24.1041 C.2 0.0 **** 0.0
17509 C17509 8.10332 46.6156 25.2266 C.3 0.0 **** -0.053
17510 C17510 9.36424 46.9058 26.0732 C.3 0.0 **** -0.053
17511 C17511 10.5313 47.5161 25.3435 C.2 0.0 **** 0.0
17512 C17512 9.85535 45.6469 26.8126 C.3 0.0 **** -0.053
17513 C17513 8.66279 44.8636 27.3492 C.3 0.0 **** -0.106
17514 C17514 7.84985 44.2831 26.1651 C.3 0.0 **** -0.106
17515 C17515 8.0154 45.1179 24.8811 C.3 0.0 **** -0.106
17516 C17516 11.7726 47.554 25.9966 C.2 0.0 **** 0.0
17517 C17517 12.8445 48.2953 25.4238 C.2 0.0 **** 0.0
17518 C17518 12.6915 48.9261 24.1492 C.2 0.0 **** 0.0
17519 C17519 10.9421 46.0375 27.7764 C.2 0.0 **** 0.0
17520 C17520 11.942 46.9159 27.2738 C.2 0.0 **** 0.0
17521 C17521 -4.04211 46.4243 11.6329 C.3 0.0 **** -0.053
17522 C17522 -2.86732 46.3174 12.6138 C.3 0.0 **** -0.159
17523 C17523 -4.69655 45.053 11.436 C.3 0.0 **** -0.159
17524 O17524 0.344987 47.5771 21.9076 O.3 0.0 **** -0.57
17525 C17525 13.7936 49.6563 23.5957 C.2 0.0 **** -0.1268
17526 C17526 14.9668 49.7808 24.2866 C.2 0.0 **** -0.1268
17527 C17527 15.1397 49.1995 25.5864 C.2 0.0 **** 0.0
17528 C17528 14.059 48.4465 26.1492 C.2 0.0 **** 0.0
17529 C17529 14.1939 47.8803 27.4446 C.2 0.0 **** 0.0
17530 C17530 15.3911 48.0579 28.1771 C.2 0.0 **** 0.0
17531 C17531 16.4688 48.8075 27.6042 C.2 0.0 **** 0.0
17532 C17532 16.3186 49.3593 26.3218 C.2 0.0 **** -0.1268
17533 C17533 17.6704 48.9767 28.3595 C.2 0.0 **** -0.1268
17534 C17534 17.7963 48.4356 29.6115 C.2 0.0 **** -0.1268
17535 C17535 16.7358 47.6821 30.2013 C.2 0.0 **** 0.0
17536 C17536 15.5287 47.4895 29.478 C.2 0.0 **** 0.0
17537 C17537 14.4669 46.7267 30.0518 C.2 0.0 **** 0.0
17538 C17538 13.2675 46.5405 29.3076 C.2 0.0 **** 0.0
17539 C17539 13.1265 47.116 28.0126 C.2 0.0 **** 0.0
17540 C17540 14.6101 46.1433 31.3456 C.2 0.0 **** 0.0
17541 C17541 15.8248 46.377 32.0482 C.2 0.0 **** -0.1268
17542 C17542 16.8453 47.1206 31.4932 C.2 0.0 **** -0.1268
17543 C17543 11.0637 45.5211 29.0469 C.2 0.0 **** -0.1268
17544 C17544 12.1963 45.7863 29.8607 C.2 0.0 **** 0.0
17545 C17545 13.5082 45.3841 31.9005 C.2 0.0 **** 0.052
17546 C17546 12.3056 45.2715 31.1898 C.2 0.0 **** 0.0
17547 C17547 11.0863 44.6117 31.7947 C.3 0.0 **** -0.106
17548 C17548 11.1107 44.6487 33.3178 C.3 0.0 **** -0.106
17549 C17549 12.402 44.0037 33.7929 C.3 0.0 **** -0.086
17550 C17550 13.6507 44.6266 33.1811 C.2 0.0 **** 0.347
17551 O17551 14.7291 44.4235 33.7412 O.2 0.0 **** -0.419
17552 H17552 -2.14152 48.3841 5.9368 H 0.0 **** 0.053
17553 H17553 -1.63492 49.813 6.87825 H 0.0 **** 0.053
17554 H17554 -4.28346 49.2931 5.51676 H 0.0 **** 0.053
17555 H17555 -3.90569 50.3439 6.88994 H 0.0 **** 0.053
17556 H17556 -3.58723 50.892 3.90883 H 0.0 **** 0.053
17557 H17557 -2.40881 52.9913 4.46688 H 0.0 **** 0.053
17558 H17558 -0.32467 51.5147 5.59761 H 0.0 **** 0.053
17559 H17559 -0.71686 51.5383 3.85051 H 0.0 **** 0.053
17560 H17560 -1.93943 51.9332 7.26193 H 0.0 **** 0.053
17561 H17561 -4.19149 52.2938 7.71127 H 0.0 **** 0.053
17562 H17562 -4.25419 54.1805 5.31553 H 0.0 **** 0.053
17563 H17563 -5.65508 53.7812 6.32094 H 0.0 **** 0.053
17564 H17564 -5.33206 52.3872 4.13077 H 0.0 **** 0.053
17565 H17565 -5.68973 51.486 5.60542 H 0.0 **** 0.053
17566 H17566 -2.83968 55.1593 9.51426 H 0.0 **** 0.053
17567 H17567 -1.23923 55.6171 7.9571 H 0.0 **** 0.053
17568 H17568 -0.430413 53.6715 6.29076 H 0.0 **** 0.053
17569 H17569 -1.84109 54.6962 5.99081 H 0.0 **** 0.053
17570 H17570 -2.6656 52.1486 9.1274 H 0.0 **** 0.053
17571 H17571 3.08111 53.8445 11.0872 H 0.0 **** 0.053
17572 H17572 2.88744 52.8293 9.66001 H 0.0 **** 0.053
17573 H17573 3.19411 55.1556 8.91506 H 0.0 **** 0.053
17574 H17574 1.87275 55.7085 9.9683 H 0.0 **** 0.053
17575 H17575 1.6104 53.7925 7.5865 H 0.0 **** 0.053
17576 H17576 1.02544 55.4556 7.63374 H 0.0 **** 0.053
17577 H17577 -6.19129 54.3504 12.1884 H 0.0 **** 0.053
17578 H17578 -7.10102 53.7625 10.8203 H 0.0 **** 0.053
17579 H17579 -4.98772 54.567 9.80598 H 0.0 **** 0.1268
17580 H17580 -8.18637 52.6222 12.8806 H 0.0 **** 0.053
17581 H17581 -8.15785 51.2501 11.7587 H 0.0 **** 0.053
17582 H17582 -8.32959 50.3549 14.0701 H 0.0 **** 0.053
17583 H17583 -6.93507 51.3248 14.584 H 0.0 **** 0.053
17584 H17584 -4.49625 49.1091 10.7538 H 0.0 **** 0.053
17585 H17585 -3.51167 48.9639 12.1905 H 0.0 **** 0.053
17586 H17586 -5.97353 47.3454 11.4217 H 0.0 **** 0.053
17587 H17587 -4.71071 47.5988 14.1872 H 0.0 **** 0.053
17588 H17588 -5.82999 46.2962 13.7392 H 0.0 **** 0.053
17589 H17589 -6.95306 48.3211 14.8597 H 0.0 **** 0.053
17590 H17590 -7.63438 47.8914 13.2962 H 0.0 **** 0.053
17591 H17591 -3.51101 50.3621 13.8363 H 0.0 **** 0.1268
17592 H17592 -0.622954 48.5359 17.9091 H 0.0 **** 0.1268
17593 H17593 0.671916 47.985 19.8188 H 0.0 **** 0.1268
17594 H17594 4.27032 52.0214 13.9272 H 0.0 **** 0.1268
17595 H17595 4.0417 45.4944 23.3429 H 0.0 **** 0.053
17596 H17596 2.15476 45.5632 22.0554 H 0.0 **** 0.053
17597 H17597 1.68856 48.2799 23.3171 H 0.0 **** 0.053
17598 H17598 0.529242 46.3147 24.5254 H 0.0 **** 0.053
17599 H17599 0.0834004 45.2581 23.1833 H 0.0 **** 0.053
17600 H17600 2.08711 43.7441 23.881 H 0.0 **** 0.053
17601 H17601 0.758238 43.7488 25.0447 H 0.0 **** 0.053
17602 H17602 1.87369 45.1753 26.5465 H 0.0 **** 0.053
17603 H17603 2.66233 47.0619 25.5559 H 0.0 **** 0.053
17604 H17604 5.32015 45.5986 25.2948 H 0.0 **** 0.053
17605 H17605 5.03596 47.2517 25.8374 H 0.0 **** 0.053
17606 H17606 3.88396 46.32 27.9004 H 0.0 **** 0.053
17607 H17607 5.57284 45.804 27.7948 H 0.0 **** 0.053
17608 H17608 3.50997 44.0242 28.209 H 0.0 **** 0.053
17609 H17609 5.00434 43.5516 27.3886 H 0.0 **** 0.053
17610 H17610 4.00595 43.5706 25.3715 H 0.0 **** 0.353
17611 H17611 7.76642 53.836 15.3295 H 0.0 **** 0.053
17612 H17612 7.16251 52.9 13.1279 H 0.0 **** 0.053
17613 H17613 7.57305 50.0792 14.0904 H 0.0 **** 0.053
17614 H17614 7.61041 50.7179 12.4411 H 0.0 **** 0.053
17615 H17615 9.9006 50.1725 12.7559 H 0.0 **** 0.053
17616 H17616 9.85525 50.5315 14.4908 H 0.0 **** 0.053
17617 H17617 9.69043 52.6564 12.2884 H 0.0 **** 0.053
17618 H17618 11.1687 52.2693 13.1736 H 0.0 **** 0.053
17619 H17619 9.64979 54.29 14.0185 H 0.0 **** 0.053
17620 H17620 10.3697 53.2078 15.2177 H 0.0 **** 0.053
17621 H17621 9.50221 51.2585 18.0591 H 0.0 **** 0.1268
17622 H17622 10.8717 50.5765 20.0036 H 0.0 **** 0.1268
17623 H17623 5.91677 47.0405 23.8099 H 0.0 **** 0.1268
17624 H17624 7.22996 46.8286 25.8618 H 0.0 **** 0.053
17625 H17625 9.07896 47.6368 26.8558 H 0.0 **** 0.053
17626 H17626 10.3581 45.0104 26.0567 H 0.0 **** 0.053
17627 H17627 8.0391 45.5447 27.9529 H 0.0 **** 0.053
17628 H17628 8.98509 44.0504 28.0149 H 0.0 **** 0.053
17629 H17629 6.78608 44.2482 26.4396 H 0.0 **** 0.053
17630 H17630 8.16371 43.246 25.9707 H 0.0 **** 0.053
17631 H17631 7.17124 44.9486 24.1957 H 0.0 **** 0.053
17632 H17632 8.92426 44.825 24.332 H 0.0 **** 0.053
17633 H17633 -3.64288 46.7529 10.6559 H 0.0 **** 0.053
17634 H17634 -2.08514 45.6585 12.2079 H 0.0 **** 0.053
17635 H17635 -3.20177 45.8864 13.5701 H 0.0 **** 0.053
17636 H17636 -2.40897 47.2944 12.8303 H 0.0 **** 0.053
17637 H17637 -5.52016 45.1072 10.7067 H 0.0 **** 0.053
17638 H17638 -5.10947 44.6776 12.3859 H 0.0 **** 0.053
17639 H17639 -3.96538 44.3129 11.0769 H 0.0 **** 0.053
17640 H17640 0.0812663 48.4942 21.7361 H 0.0 **** 0.41
17641 H17641 13.6746 50.1186 22.616 H 0.0 **** 0.1268
17642 H17642 15.7994 50.3426 23.8593 H 0.0 **** 0.1268
17643 H17643 17.1414 49.935 25.8921 H 0.0 **** 0.1268
17644 H17644 18.4856 49.5504 27.915 H 0.0 **** 0.1268
17645 H17645 18.7139 48.5743 30.1866 H 0.0 **** 0.1268
17646 H17646 15.942 45.9452 33.0363 H 0.0 **** 0.1268
17647 H17647 17.7639 47.2852 32.0605 H 0.0 **** 0.1268
17648 H17648 10.2867 44.8566 29.4153 H 0.0 **** 0.1268
17649 H17649 10.1829 45.117 31.4253 H 0.0 **** 0.053
17650 H17650 11.0196 43.5619 31.4513 H 0.0 **** 0.053
17651 H17651 10.2309 44.1333 33.732 H 0.0 **** 0.053
17652 H17652 11.0693 45.6979 33.6534 H 0.0 **** 0.053
17653 H17653 12.413 42.9372 33.5011 H 0.0 **** 0.053
17654 H17654 12.5303 44.0317 34.8843 H 0.0 **** 0.053
17655 C17655 32.7288 65.1193 32.771 C.3 0.0 **** 0.054
17656 C17656 31.1842 65.1286 32.8522 C.3 0.0 **** -0.106
17657 C17657 30.7162 65.4805 34.2794 C.3 0.0 **** -0.053
17658 C17658 31.6195 64.7608 35.294 C.3 0.0 **** -0.053
17659 C17659 33.0838 65.2338 35.1013 C.3 0.0 **** 0.054
17660 O17660 33.3106 65.8737 33.8397 O.3 0.0 **** -0.32
17661 C17661 31.4834 63.2283 35.1719 C.3 0.0 **** -0.053
17662 C17662 30.0237 62.7852 34.8677 C.3 0.0 **** 0.107
17663 C17663 29.0286 63.8406 35.3194 C.3 0.0 **** -0.106
17664 C17664 29.2227 65.1418 34.5197 C.3 0.0 **** -0.106
17665 O17665 29.6874 61.5602 35.5374 O.3 0.0 **** -0.32
17666 C17666 30.7235 60.5677 35.4457 C.3 0.0 **** 0.107
17667 C17667 31.8761 60.9949 36.372 C.3 0.0 **** -0.053
17668 C17668 31.9515 62.5478 36.4554 C.3 0.0 **** -0.106
17669 C17669 33.1828 60.3409 36.0663 C.2 0.0 **** 0.0
17670 C17670 33.3987 59.5592 34.9426 C.2 0.0 **** 0.0
17671 C17671 32.4026 59.4387 33.9079 C.2 0.0 **** 0.0
17672 C17672 31.1382 60.2633 33.9975 C.3 0.0 **** -0.053
17673 C17673 32.6426 58.7198 32.7499 C.2 0.0 **** 0.0
17674 C17674 33.8949 58.0213 32.5804 C.2 0.0 **** 0.0
17675 C17675 34.8506 58.1179 33.6371 C.2 0.0 **** 0.232
17676 C17676 34.6557 58.8568 34.7709 C.2 0.0 **** 0.0
17677 C17677 35.7322 58.953 35.822 C.3 0.0 **** -0.106
17678 C17678 35.1483 59.2705 37.1991 C.3 0.0 **** -0.106
17679 C17679 34.2543 60.5093 37.1066 C.3 0.0 **** -0.106
17680 O17680 36.0651 57.4694 33.5203 O.3 0.0 **** -0.464
17681 C17681 36.3133 56.6349 32.4576 C.2 0.0 **** 0.232
17682 C17682 35.4311 56.5398 31.3661 C.2 0.0 **** 0.0
17683 C17683 34.2 57.2913 31.4252 C.2 0.0 **** 0.0
17684 C17684 30.0201 59.6844 33.1633 C.2 0.0 **** 0.0
17685 C17685 30.3928 59.2184 31.8301 C.2 0.0 **** 0.0
17686 C17686 31.6648 58.6684 31.6594 C.2 0.0 **** 0.0
17687 C17687 29.3362 59.1954 30.8203 C.2 0.0 **** 0.0
17688 C17688 28.0421 59.0379 31.2246 C.2 0.0 **** 0.0
17689 C17689 27.6704 59.032 32.6713 C.3 0.0 **** -0.106
17690 C17690 28.7345 59.5831 33.5688 C.2 0.0 **** -0.1268
17691 C17691 26.9533 58.906 30.1966 C.3 0.0 **** -0.106
17692 C17692 27.4956 58.2335 28.9321 C.3 0.0 **** -0.106
17693 C17693 28.7303 58.9626 28.4619 C.2 0.0 **** 0.0
17694 C17694 29.5997 59.4402 29.3838 C.2 0.0 **** 0.0
17695 C17695 30.7432 60.3537 29.0069 C.3 0.0 **** -0.106
17696 C17696 30.713 60.8039 27.542 C.3 0.0 **** -0.053
17697 C17697 30.3482 59.6106 26.6518 C.3 0.0 **** -0.106
17698 C17698 28.9353 59.1317 26.9849 C.3 0.0 **** -0.106
17699 C17699 33.2269 57.2771 30.3716 C.2 0.0 **** -0.012
17700 C17700 32.0178 57.9155 30.499 C.2 0.0 **** -0.1268
17701 C17701 35.803 55.6553 30.3215 C.2 0.0 **** 0.0
17702 C17702 34.9807 55.5159 29.1465 C.2 0.0 **** -0.012
17703 S17703 33.558 56.4995 28.8394 S.2 0.0 **** 0.024
17704 C17704 35.3127 54.631 28.1527 C.2 0.0 **** -0.1268
17705 C17705 36.4739 53.8194 28.2455 C.2 0.0 **** 0.0
17706 C17706 37.3355 53.9476 29.3781 C.2 0.0 **** 0.0
17707 C17707 37.0076 54.8713 30.4084 C.2 0.0 **** 0.0
17708 C17708 38.5108 53.1544 29.4468 C.2 0.0 **** 0.0
17709 C17709 38.8008 52.2141 28.4109 C.2 0.0 **** 0.0
17710 C17710 37.8789 52.0538 27.314 C.2 0.0 **** 0.0
17711 C17711 36.7614 52.8998 27.2417 C.2 0.0 **** -0.1268
17712 C17712 38.1322 51.0345 26.3488 C.2 0.0 **** 0.0
17713 C17713 39.3259 50.3394 26.3942 C.2 0.0 **** 0.042
17714 C17714 40.3239 50.5441 27.3934 C.2 0.0 **** 0.0
17715 C17715 40.0059 51.451 28.4431 C.2 0.0 **** 0.0
17716 C17716 37.8806 55.0117 31.5396 C.2 0.0 **** 0.0
17717 C17717 37.4839 55.914 32.5483 C.2 0.0 **** -0.1268
17718 C17718 39.401 53.3092 30.5603 C.2 0.0 **** 0.0
17719 C17719 39.0988 54.2318 31.6063 C.2 0.0 **** 0.0
17720 C17720 40.9096 51.6234 29.5438 C.2 0.0 **** 0.0
17721 C17721 40.5955 52.5286 30.5908 C.2 0.0 **** 0.0
17722 C17722 41.5957 49.8645 27.3928 C.2 0.0 **** 0.0
17723 C17723 42.457 50.0111 28.5209 C.2 0.0 **** 0.0
17724 C17724 42.1161 50.8765 29.5908 C.2 0.0 **** 0.0
17725 O17725 39.4902 49.3386 25.461 O.3 0.0 **** -0.202
17726 C17726 39.2782 49.7224 24.0729 C.3 0.0 **** 0.107
17727 C17727 38.0219 50.6147 23.9137 C.3 0.0 **** -0.053
17728 C17728 37.2278 50.5368 25.2256 C.3 0.0 **** 0.107
17729 C17729 37.215 50.2265 22.6688 C.3 0.0 **** -0.106
17730 C17730 38.1842 49.9444 21.516 C.3 0.0 **** -0.106
17731 C17731 38.9375 48.6352 21.7698 C.3 0.0 **** 0.134
17732 C17732 39.2255 48.4102 23.2922 C.3 0.0 **** -0.053
17733 C17733 40.5329 47.6198 23.4672 C.3 0.0 **** -0.106
17734 C17734 40.6874 46.5488 22.3886 C.3 0.0 **** -0.106
17735 C17735 40.747 47.2153 20.9854 C.3 0.0 **** 0.081
17736 N17736 40.1341 48.5512 20.9314 N.3 0.0 **** -0.727
17737 C17737 40.0441 54.3331 32.6875 C.2 0.0 **** 0.042
17738 C17738 41.1776 53.5365 32.7384 C.2 0.0 **** 0.042
17739 C17739 41.5026 52.6395 31.6881 C.2 0.0 **** 0.0
17740 O17740 42.0704 53.5742 33.7845 O.3 0.0 **** -0.202
17741 C17741 41.5882 54.2438 34.9698 C.3 0.0 **** 0.107
17742 C17742 40.9507 55.5493 34.5248 C.3 0.0 **** 0.107
17743 O17743 39.8136 55.2436 33.6944 O.3 0.0 **** -0.202
17744 C17744 41.9463 56.4736 33.7932 C.3 0.0 **** -0.106
17745 C17745 43.4081 56.2466 34.2354 C.3 0.0 **** -0.106
17746 C17746 43.4674 55.8201 35.7065 C.3 0.0 **** -0.106
17747 C17747 42.7738 54.4579 35.9131 C.3 0.0 **** -0.106
17748 C17748 43.0148 51.0057 30.701 C.2 0.0 **** 0.0
17749 C17749 42.6818 51.8813 31.7343 C.2 0.0 **** -0.1268
17750 C17750 43.6809 49.2858 28.5567 C.2 0.0 **** 0.0
17751 C17751 44.5371 49.4131 29.694 C.2 0.0 **** 0.042
17752 C17752 44.2259 50.2456 30.7331 C.2 0.0 **** -0.1268
17753 C17753 44.0673 48.4622 27.4887 C.2 0.0 **** 0.0
17754 C17754 43.2571 48.388 26.3482 C.2 0.0 **** 0.0
17755 C17755 42.0586 49.077 26.3208 C.2 0.0 **** -0.1268
17756 O17756 45.7213 48.6949 29.7622 O.3 0.0 **** -0.0685
17757 C17757 46.0766 47.8287 28.7537 C.2 0.0 **** 0.0265
17758 C17758 45.2922 47.7068 27.594 C.2 0.0 **** 0.0
17759 C17759 43.6747 47.6103 25.1283 C.3 0.0 **** -0.053
17760 C17760 44.7847 46.5668 25.3922 C.3 0.0 **** -0.053
17761 C17761 45.6741 46.8251 26.5793 C.2 0.0 **** 0.0
17762 C17762 45.6744 46.3565 24.1525 C.3 0.0 **** -0.053
17763 C17763 44.8144 46.347 22.8939 C.3 0.0 **** -0.106
17764 C17764 44.217 47.7578 22.6647 C.3 0.0 **** -0.106
17765 C17765 44.0773 48.5507 23.9779 C.3 0.0 **** -0.106
17766 C17766 46.8451 46.0626 26.7063 C.2 0.0 **** 0.0
17767 C17767 47.6044 46.1375 27.9082 C.2 0.0 **** 0.0
17768 C17768 47.231 47.0466 28.9475 C.2 0.0 **** 0.0
17769 C17769 46.589 45.1879 24.3983 C.2 0.0 **** 0.0
17770 C17770 47.2365 45.1521 25.6646 C.2 0.0 **** 0.0
17771 C17771 32.0345 61.4947 27.1449 C.3 0.0 **** -0.053
17772 C17772 33.1959 60.5047 26.9873 C.3 0.0 **** -0.159
17773 C17773 31.8632 62.321 25.866 C.3 0.0 **** -0.159
17774 O17774 35.9751 51.1933 25.0243 O.3 0.0 **** -0.57
17775 C17775 48.0227 47.1047 30.1407 C.2 0.0 **** -0.1268
17776 C17776 49.1017 46.2812 30.3044 C.2 0.0 **** -0.1268
17777 C17777 49.478 45.3264 29.3023 C.2 0.0 **** 0.0
17778 C17778 48.7142 45.2664 28.0921 C.2 0.0 **** 0.0
17779 C17779 49.0495 44.3142 27.0933 C.2 0.0 **** 0.0
17780 C17780 50.1345 43.4281 27.2913 C.2 0.0 **** 0.0
17781 C17781 50.8964 43.4989 28.5021 C.2 0.0 **** 0.0
17782 C17782 50.5514 44.4473 29.4785 C.2 0.0 **** -0.1268
17783 C17783 51.9886 42.5952 28.6845 C.2 0.0 **** -0.1268
17784 C17784 52.3065 41.6729 27.723 C.2 0.0 **** -0.1268
17785 C17785 51.5624 41.5863 26.5068 C.2 0.0 **** 0.0
17786 C17786 50.4733 42.4716 26.2891 C.2 0.0 **** 0.0
17787 C17787 49.7306 42.4034 25.0715 C.2 0.0 **** 0.0
17788 C17788 48.6463 43.3038 24.8705 C.2 0.0 **** 0.0
17789 C17789 48.302 44.2527 25.8752 C.2 0.0 **** 0.0
17790 C17790 50.0795 41.4586 24.0613 C.2 0.0 **** 0.0
17791 C17791 51.162 40.5742 24.3252 C.2 0.0 **** -0.1268
17792 C17792 51.8722 40.6385 25.5059 C.2 0.0 **** -0.1268
17793 C17793 46.8952 44.2393 23.4485 C.2 0.0 **** -0.1268
17794 C17794 47.8916 43.252 23.6664 C.2 0.0 **** 0.0
17795 C17795 49.2975 41.4112 22.8428 C.2 0.0 **** 0.052
17796 C17796 48.1866 42.2514 22.6889 C.2 0.0 **** 0.0
17797 C17797 47.262 42.1328 21.4978 C.3 0.0 **** -0.106
17798 C17798 47.299 40.7404 20.8799 C.3 0.0 **** -0.106
17799 C17799 48.7384 40.4138 20.5184 C.3 0.0 **** -0.086
17800 C17800 49.7028 40.5502 21.6901 C.2 0.0 **** 0.347
17801 O17801 50.7974 39.9918 21.6029 O.2 0.0 **** -0.419
17802 H17802 33.0887 65.5835 31.8427 H 0.0 **** 0.053
17803 H17803 33.1142 64.0806 32.8046 H 0.0 **** 0.053
17804 H17804 30.7602 65.8596 32.1468 H 0.0 **** 0.053
17805 H17805 30.7956 64.1395 32.5622 H 0.0 **** 0.053
17806 H17806 30.8654 66.5623 34.41 H 0.0 **** 0.053
17807 H17807 31.2987 65.0434 36.3106 H 0.0 **** 0.053
17808 H17808 33.7712 64.3677 35.2001 H 0.0 **** 0.053
17809 H17809 33.3631 65.9838 35.8546 H 0.0 **** 0.053
17810 H17810 32.1372 62.8988 34.3486 H 0.0 **** 0.053
17811 H17811 29.8996 62.6308 33.7784 H 0.0 **** 0.053
17812 H17812 29.1801 64.0218 36.3958 H 0.0 **** 0.053
17813 H17813 28.0053 63.4574 35.1982 H 0.0 **** 0.053
17814 H17814 28.7305 65.9671 35.0559 H 0.0 **** 0.053
17815 H17815 28.7138 65.0539 33.5458 H 0.0 **** 0.053
17816 H17816 30.2665 59.6508 35.846 H 0.0 **** 0.053
17817 H17817 31.6011 60.6634 37.3917 H 0.0 **** 0.053
17818 H17818 32.9751 62.8663 36.702 H 0.0 **** 0.053
17819 H17819 31.3013 62.8935 37.2745 H 0.0 **** 0.053
17820 H17820 31.4126 61.2193 33.5071 H 0.0 **** 0.053
17821 H17821 36.3168 58.0221 35.8455 H 0.0 **** 0.053
17822 H17822 36.4427 59.7528 35.5395 H 0.0 **** 0.053
17823 H17823 35.9559 59.4265 37.9306 H 0.0 **** 0.053
17824 H17824 34.5445 58.4162 37.5456 H 0.0 **** 0.053
17825 H17825 34.885 61.3883 36.8649 H 0.0 **** 0.053
17826 H17826 33.7874 60.7341 38.0805 H 0.0 **** 0.053
17827 H17827 27.4124 57.9977 32.9893 H 0.0 **** 0.053
17828 H17828 26.7228 59.5899 32.8039 H 0.0 **** 0.053
17829 H17829 28.4372 59.9048 34.5656 H 0.0 **** 0.1268
17830 H17830 26.1073 58.3395 30.6175 H 0.0 **** 0.053
17831 H17831 26.5655 59.9137 29.9438 H 0.0 **** 0.053
17832 H17832 26.7367 58.2196 28.1343 H 0.0 **** 0.053
17833 H17833 27.7441 57.179 29.1598 H 0.0 **** 0.053
17834 H17834 30.7092 61.2382 29.6678 H 0.0 **** 0.053
17835 H17835 31.7113 59.877 29.2235 H 0.0 **** 0.053
17836 H17836 29.9044 61.5507 27.4331 H 0.0 **** 0.053
17837 H17837 31.0612 58.791 26.8389 H 0.0 **** 0.053
17838 H17838 30.424 59.8745 25.5858 H 0.0 **** 0.053
17839 H17839 28.7178 58.1713 26.4829 H 0.0 **** 0.053
17840 H17840 28.1887 59.8455 26.5853 H 0.0 **** 0.053
17841 H17841 31.2811 57.8156 29.7022 H 0.0 **** 0.1268
17842 H17842 34.6778 54.5279 27.2698 H 0.0 **** 0.1268
17843 H17843 36.1142 52.8678 26.3708 H 0.0 **** 0.1268
17844 H17844 38.0869 56.0609 33.4322 H 0.0 **** 0.1268
17845 H17845 40.1746 50.2879 23.7564 H 0.0 **** 0.053
17846 H17846 38.3479 51.6606 23.7979 H 0.0 **** 0.053
17847 H17847 37.0374 49.4612 25.4212 H 0.0 **** 0.053
17848 H17848 36.6082 49.329 22.8787 H 0.0 **** 0.053
17849 H17849 36.5111 51.0321 22.4243 H 0.0 **** 0.053
17850 H17850 38.9124 50.7725 21.4443 H 0.0 **** 0.053
17851 H17851 37.6757 49.8896 20.5436 H 0.0 **** 0.053
17852 H17852 38.2866 47.8049 21.4465 H 0.0 **** 0.053
17853 H17853 38.3952 47.8203 23.716 H 0.0 **** 0.053
17854 H17854 41.3812 48.3217 23.3909 H 0.0 **** 0.053
17855 H17855 40.5794 47.1866 24.4755 H 0.0 **** 0.053
17856 H17856 39.8325 45.8561 22.445 H 0.0 **** 0.053
17857 H17857 41.5951 45.9496 22.5641 H 0.0 **** 0.053
17858 H17858 40.2382 46.5719 20.2476 H 0.0 **** 0.053
17859 H17859 41.7907 47.3172 20.6527 H 0.0 **** 0.053
17860 H17860 40.807 49.2558 21.236 H 0.0 **** 0.353
17861 H17861 40.817 53.6035 35.4296 H 0.0 **** 0.053
17862 H17862 40.5163 56.0523 35.4004 H 0.0 **** 0.053
17863 H17863 41.8464 56.2952 32.7127 H 0.0 **** 0.053
17864 H17864 41.6439 57.5148 33.9779 H 0.0 **** 0.053
17865 H17865 43.9912 57.1649 34.0731 H 0.0 **** 0.053
17866 H17866 43.8602 55.4576 33.6163 H 0.0 **** 0.053
17867 H17867 42.9693 56.5889 36.3217 H 0.0 **** 0.053
17868 H17868 44.5077 55.7623 36.0593 H 0.0 **** 0.053
17869 H17869 42.4243 54.3597 36.9517 H 0.0 **** 0.053
17870 H17870 43.4799 53.6327 35.7332 H 0.0 **** 0.053
17871 H17871 43.3491 51.9837 32.5886 H 0.0 **** 0.1268
17872 H17872 44.8997 50.3368 31.5857 H 0.0 **** 0.1268
17873 H17873 41.4459 48.9908 25.4373 H 0.0 **** 0.1268
17874 H17874 42.7908 47.0604 24.7707 H 0.0 **** 0.053
17875 H17875 44.2887 45.5955 25.5894 H 0.0 **** 0.053
17876 H17876 46.3453 47.237 24.09 H 0.0 **** 0.053
17877 H17877 44.0122 45.6007 23.0233 H 0.0 **** 0.053
17878 H17878 45.3972 46.0409 22.0135 H 0.0 **** 0.053
17879 H17879 43.2285 47.6597 22.1941 H 0.0 **** 0.053
17880 H17880 44.8505 48.321 21.9623 H 0.0 **** 0.053
17881 H17881 43.324 49.3461 23.8737 H 0.0 **** 0.053
17882 H17882 45.0225 49.0515 24.2413 H 0.0 **** 0.053
17883 H17883 32.287 62.1899 27.9664 H 0.0 **** 0.053
17884 H17884 34.1439 61.0432 26.8395 H 0.0 **** 0.053
17885 H17885 33.0378 59.8622 26.1073 H 0.0 **** 0.053
17886 H17886 33.3118 59.8483 27.8631 H 0.0 **** 0.053
17887 H17887 31.0551 63.0611 25.9769 H 0.0 **** 0.053
17888 H17888 31.6127 61.6713 25.0123 H 0.0 **** 0.053
17889 H17889 32.7906 62.8573 25.6136 H 0.0 **** 0.053
17890 H17890 35.422 51.0033 25.7977 H 0.0 **** 0.41
17891 H17891 47.7418 47.813 30.92 H 0.0 **** 0.1268
17892 H17892 49.6962 46.3292 31.2184 H 0.0 **** 0.1268
17893 H17893 51.1322 44.493 30.4024 H 0.0 **** 0.1268
17894 H17894 52.5626 42.6561 29.6109 H 0.0 **** 0.1268
17895 H17895 53.1374 40.9804 27.8711 H 0.0 **** 0.1268
17896 H17896 51.4313 39.846 23.5678 H 0.0 **** 0.1268
17897 H17897 52.6954 39.9422 25.6796 H 0.0 **** 0.1268
17898 H17898 46.3858 44.2798 22.4895 H 0.0 **** 0.1268
17899 H17899 46.2367 42.3724 21.8125 H 0.0 **** 0.053
17900 H17900 47.5378 42.8839 20.7335 H 0.0 **** 0.053
17901 H17901 46.6443 40.691 19.9965 H 0.0 **** 0.053
17902 H17902 46.9211 40.0102 21.6142 H 0.0 **** 0.053
17903 H17903 49.0938 41.1155 19.7412 H 0.0 **** 0.053
17904 H17904 48.869 39.4014 20.1104 H 0.0 **** 0.053
17905 C17905 75.189 74.8059 12.4215 C.3 0.0 **** 0.054
17906 C17906 75.6067 73.6148 13.3154 C.3 0.0 **** -0.106
17907 C17907 77.1434 73.5184 13.4108 C.3 0.0 **** -0.053
17908 C17908 77.7493 73.7995 12.0262 C.3 0.0 **** -0.053
17909 C17909 77.3505 75.2282 11.5735 C.3 0.0 **** 0.054
17910 O17910 76.2444 75.7666 12.308 O.3 0.0 **** -0.32
17911 C17911 77.3225 72.7258 11.0031 C.3 0.0 **** -0.053
17912 C17912 77.255 71.3036 11.6295 C.3 0.0 **** 0.107
17913 C17913 78.1367 71.2092 12.8631 C.3 0.0 **** -0.106
17914 C17914 77.6237 72.1531 13.966 C.3 0.0 **** -0.106
17915 O17915 77.6926 70.2932 10.7078 O.3 0.0 **** -0.32
17916 C17916 77.1578 70.4705 9.38509 C.3 0.0 **** 0.107
17917 C17917 77.8802 71.664 8.7349 C.3 0.0 **** -0.053
17918 C17918 78.288 72.7022 9.82126 C.3 0.0 **** -0.106
17919 C17919 77.158 72.2577 7.57098 C.2 0.0 **** 0.0
17920 C17920 75.8694 71.8977 7.21016 C.2 0.0 **** 0.0
17921 C17921 75.0779 71.0151 8.02995 C.2 0.0 **** 0.0
17922 C17922 75.6234 70.5548 9.36308 C.3 0.0 **** -0.053
17923 C17923 73.7654 70.7123 7.71235 C.2 0.0 **** 0.0
17924 C17924 73.1747 71.24 6.50509 C.2 0.0 **** 0.0
17925 C17925 73.9906 72.0767 5.68451 C.2 0.0 **** 0.232
17926 C17926 75.2747 72.4265 5.99796 C.2 0.0 **** 0.0
17927 C17927 76.0588 73.3567 5.10747 C.3 0.0 **** -0.106
17928 C17928 77.5656 73.147 5.2612 C.3 0.0 **** -0.106
17929 C17929 77.949 73.229 6.74067 C.3 0.0 **** -0.106
17930 O17930 73.4693 72.6083 4.52048 O.3 0.0 **** -0.464
17931 C17931 72.2198 72.2421 4.08229 C.2 0.0 **** 0.232
17932 C17932 71.3551 71.4622 4.87139 C.2 0.0 **** 0.0
17933 C17933 71.8481 70.9807 6.13988 C.2 0.0 **** 0.0
17934 C17934 74.9473 69.2955 9.85129 C.2 0.0 **** 0.0
17935 C17935 73.4955 69.2492 9.698 C.2 0.0 **** 0.0
17936 C17936 72.9323 69.8856 8.59013 C.2 0.0 **** 0.0
17937 C17937 72.7625 68.3819 10.6184 C.2 0.0 **** 0.0
17938 C17938 73.3952 67.2906 11.1398 C.2 0.0 **** 0.0
17939 C17939 74.8498 67.0445 10.9058 C.3 0.0 **** -0.106
17940 C17940 75.5918 68.2464 10.4092 C.2 0.0 **** -0.1268
17941 C17941 72.6279 66.3292 12.0038 C.3 0.0 **** -0.106
17942 C17942 71.1583 66.2868 11.5753 C.3 0.0 **** -0.106
17943 C17943 70.603 67.6894 11.5352 C.2 0.0 **** 0.0
17944 C17944 71.3945 68.6946 11.0912 C.2 0.0 **** 0.0
17945 C17945 70.9889 70.1453 11.2133 C.3 0.0 **** -0.106
17946 C17946 69.7038 70.3583 12.0213 C.3 0.0 **** -0.053
17947 C17947 68.6729 69.2958 11.6243 C.3 0.0 **** -0.106
17948 C17948 69.1925 67.9078 11.9986 C.3 0.0 **** -0.106
17949 C17949 71.0573 70.1824 7.03108 C.2 0.0 **** -0.012
17950 C17950 71.5852 69.649 8.18116 C.2 0.0 **** -0.1268
17951 C17951 70.0846 71.1612 4.3173 C.2 0.0 **** 0.0
17952 C17952 69.1175 70.3973 5.06394 C.2 0.0 **** -0.012
17953 S17953 69.3562 69.9013 6.73215 S.2 0.0 **** 0.024
17954 C17954 67.9039 70.0666 4.51729 C.2 0.0 **** -0.1268
17955 C17955 67.5572 70.4609 3.19815 C.2 0.0 **** 0.0
17956 C17956 68.4729 71.2468 2.43317 C.2 0.0 **** 0.0
17957 C17957 69.729 71.6062 2.99492 C.2 0.0 **** 0.0
17958 C17958 68.1043 71.6628 1.12685 C.2 0.0 **** 0.0
17959 C17959 66.8476 71.2634 0.576828 C.2 0.0 **** 0.0
17960 C17960 65.972 70.4114 1.34247 C.2 0.0 **** 0.0
17961 C17961 66.3362 70.0735 2.65511 C.2 0.0 **** -0.1268
17962 C17962 64.7729 69.936 0.733416 C.2 0.0 **** 0.0
17963 C17963 64.3999 70.4273 -0.503389 C.2 0.0 **** 0.042
17964 C17964 65.176 71.3631 -1.25056 C.2 0.0 **** 0.0
17965 C17965 66.4445 71.7202 -0.713218 C.2 0.0 **** 0.0
17966 C17966 70.6435 72.4088 2.23267 C.2 0.0 **** 0.0
17967 C17967 71.8892 72.7005 2.82582 C.2 0.0 **** -0.1268
17968 C17968 69.0015 72.4872 0.370666 C.2 0.0 **** 0.0
17969 C17969 70.2665 72.8663 0.911592 C.2 0.0 **** 0.0
17970 C17970 67.3305 72.5658 -1.46028 C.2 0.0 **** 0.0
17971 C17971 68.5952 72.9247 -0.925634 C.2 0.0 **** 0.0
17972 C17972 64.7456 71.9232 -2.50772 C.2 0.0 **** 0.0
17973 C17973 65.6612 72.7204 -3.25748 C.2 0.0 **** 0.0
17974 C17974 66.9447 73.0344 -2.74379 C.2 0.0 **** 0.0
17975 O17975 63.2549 69.8954 -1.05615 O.3 0.0 **** -0.202
17976 C17976 62.0679 69.9278 -0.214094 C.3 0.0 **** 0.107
17977 C17977 62.3903 69.5084 1.24194 C.3 0.0 **** -0.053
17978 C17978 63.7934 68.8846 1.24552 C.3 0.0 **** 0.107
17979 C17979 61.2982 68.5977 1.81592 C.3 0.0 **** -0.106
17980 C17980 59.9278 69.1361 1.39135 C.3 0.0 **** -0.106
17981 C17981 59.7129 68.9056 -0.107564 C.3 0.0 **** 0.134
17982 C17982 61.0461 69.0364 -0.917886 C.3 0.0 **** -0.053
17983 C17983 60.7501 69.5602 -2.33308 C.3 0.0 **** -0.106
17984 C17984 59.4536 68.9719 -2.88718 C.3 0.0 **** -0.106
17985 C17985 58.2555 69.3926 -1.99028 C.3 0.0 **** 0.081
17986 N17986 58.6355 69.7554 -0.616505 N.3 0.0 **** -0.727
17987 C17987 71.109 73.6988 0.0930557 C.2 0.0 **** 0.042
17988 C17988 70.7319 74.0796 -1.18557 C.2 0.0 **** 0.042
17989 C17989 69.4635 73.734 -1.7195 C.2 0.0 **** 0.0
17990 O17990 71.5385 74.8301 -2.00951 O.3 0.0 **** -0.202
17991 C17991 72.919 74.9148 -1.5941 C.3 0.0 **** 0.107
17992 C17992 72.9262 75.2268 -0.106999 C.3 0.0 **** 0.107
17993 O17993 72.3185 74.1247 0.594729 O.3 0.0 **** -0.202
17994 C17994 72.2184 76.5581 0.22069 C.3 0.0 **** -0.106
17995 C17995 72.2677 77.5647 -0.949107 C.3 0.0 **** -0.106
17996 C17996 73.5575 77.3895 -1.75854 C.3 0.0 **** -0.106
17997 C17997 73.603 76.0004 -2.42769 C.3 0.0 **** -0.106
17998 C17998 67.8311 73.8491 -3.52303 C.2 0.0 **** 0.0
17999 C17999 69.0805 74.1743 -2.99498 C.2 0.0 **** -0.1268
18000 C18000 65.2658 73.2158 -4.53161 C.2 0.0 **** 0.0
18001 C18001 66.1869 73.9972 -5.29565 C.2 0.0 **** 0.042
18002 C18002 67.4273 74.3125 -4.81435 C.2 0.0 **** -0.1268
18003 C18003 63.9834 72.9636 -5.04175 C.2 0.0 **** 0.0
18004 C18004 63.0609 72.2513 -4.2644 C.2 0.0 **** 0.0
18005 C18005 63.4508 71.7531 -3.03479 C.2 0.0 **** -0.1268
18006 O18006 65.8325 74.4673 -6.55115 O.3 0.0 **** -0.0685
18007 C18007 64.6041 74.166 -7.09307 C.2 0.0 **** 0.0265
18008 C18008 63.6471 73.4431 -6.36052 C.2 0.0 **** 0.0
18009 C18009 61.6376 72.0473 -4.71146 C.3 0.0 **** -0.053
18010 C18010 61.4131 72.2614 -6.22624 C.3 0.0 **** -0.053
18011 C18011 62.4034 73.1526 -6.92774 C.2 0.0 **** 0.0
18012 C18012 59.9936 72.7804 -6.52338 C.3 0.0 **** -0.053
18013 C18013 58.9843 72.0663 -5.6318 C.3 0.0 **** -0.106
18014 C18014 59.211 72.4825 -4.15694 C.3 0.0 **** -0.106
18015 C18015 60.6655 72.9149 -3.8916 C.3 0.0 **** -0.106
18016 C18016 62.0979 73.5863 -8.22666 C.2 0.0 **** 0.0
18017 C18017 63.0901 74.2616 -8.99249 C.2 0.0 **** 0.0
18018 C18018 64.3613 74.5767 -8.41751 C.2 0.0 **** 0.0
18019 C18019 59.767 72.7634 -8.01025 C.2 0.0 **** 0.0
18020 C18020 60.8202 73.2842 -8.81255 C.2 0.0 **** 0.0
18021 C18021 69.1905 71.8066 11.8787 C.3 0.0 **** -0.053
18022 C18022 68.5662 72.0806 10.5043 C.3 0.0 **** -0.159
18023 C18023 68.1967 72.1525 12.9924 C.3 0.0 **** -0.159
18024 O18024 64.0226 68.3183 2.53688 O.3 0.0 **** -0.57
18025 C18025 65.3344 75.2663 -9.21228 C.2 0.0 **** -0.1268
18026 C18026 65.0703 75.5914 -10.5137 C.2 0.0 **** -0.1268
18027 C18027 63.8236 75.251 -11.136 C.2 0.0 **** 0.0
18028 C18028 62.8279 74.5814 -10.3538 C.2 0.0 **** 0.0
18029 C18029 61.5939 74.2108 -10.951 C.2 0.0 **** 0.0
18030 C18030 61.3473 74.5023 -12.3132 C.2 0.0 **** 0.0
18031 C18031 62.3464 75.1773 -13.0864 C.2 0.0 **** 0.0
18032 C18032 63.5603 75.5373 -12.4795 C.2 0.0 **** -0.1268
18033 C18033 62.0794 75.4628 -14.4612 C.2 0.0 **** -0.1268
18034 C18034 60.8913 75.0988 -15.0374 C.2 0.0 **** -0.1268
18035 C18035 59.8797 74.4275 -14.2848 C.2 0.0 **** 0.0
18036 C18036 60.1083 74.1316 -12.9146 C.2 0.0 **** 0.0
18037 C18037 59.0992 73.473 -12.1487 C.2 0.0 **** 0.0
18038 C18038 59.346 73.191 -10.7753 C.2 0.0 **** 0.0
18039 C18039 60.5868 73.5526 -10.1771 C.2 0.0 **** 0.0
18040 C18040 57.8529 73.1173 -12.7448 C.2 0.0 **** 0.0
18041 C18041 57.6699 73.41 -14.1248 C.2 0.0 **** -0.1268
18042 C18042 58.6502 74.0398 -14.863 C.2 0.0 **** -0.1268
18043 C18043 58.5867 72.374 -8.60272 C.2 0.0 **** -0.1268
18044 C18044 58.3559 72.5337 -9.9943 C.2 0.0 **** 0.0
18045 C18045 56.8562 72.4412 -11.94 C.2 0.0 **** 0.052
18046 C18046 57.1402 72.1021 -10.6102 C.2 0.0 **** 0.0
18047 C18047 56.1848 71.2713 -9.78276 C.3 0.0 **** -0.106
18048 C18048 55.2802 70.4042 -10.6498 C.3 0.0 **** -0.106
18049 C18049 54.5488 71.3051 -11.631 C.3 0.0 **** -0.086
18050 C18050 55.4809 72.1774 -12.4627 C.2 0.0 **** 0.347
18051 O18051 55.0341 72.6734 -13.4981 O.2 0.0 **** -0.419
18052 H18052 74.3313 75.3479 12.843 H 0.0 **** 0.053
18053 H18053 74.9056 74.4529 11.4098 H 0.0 **** 0.053
18054 H18054 75.192 73.7229 14.3293 H 0.0 **** 0.053
18055 H18055 75.1966 72.6814 12.8983 H 0.0 **** 0.053
18056 H18056 77.4752 74.319 14.0879 H 0.0 **** 0.053
18057 H18057 78.8483 73.7607 12.1105 H 0.0 **** 0.053
18058 H18058 77.1012 75.2203 10.4918 H 0.0 **** 0.053
18059 H18059 78.1716 75.9411 11.7333 H 0.0 **** 0.053
18060 H18060 76.3238 72.9999 10.6271 H 0.0 **** 0.053
18061 H18061 76.213 71.0753 11.926 H 0.0 **** 0.053
18062 H18062 79.1664 71.4753 12.5744 H 0.0 **** 0.053
18063 H18063 78.1607 70.1695 13.2197 H 0.0 **** 0.053
18064 H18064 78.4243 72.3071 14.7049 H 0.0 **** 0.053
18065 H18065 76.7904 71.6713 14.5034 H 0.0 **** 0.053
18066 H18066 77.4345 69.5515 8.84778 H 0.0 **** 0.053
18067 H18067 78.8355 71.2745 8.3339 H 0.0 **** 0.053
18068 H18068 78.3688 73.7055 9.37734 H 0.0 **** 0.053
18069 H18069 79.2855 72.4409 10.2083 H 0.0 **** 0.053
18070 H18070 75.3099 71.3537 10.0654 H 0.0 **** 0.053
18071 H18071 75.746 73.2257 4.06154 H 0.0 **** 0.053
18072 H18072 75.8124 74.4026 5.37133 H 0.0 **** 0.053
18073 H18073 78.1182 73.8957 4.67332 H 0.0 **** 0.053
18074 H18074 77.8372 72.1516 4.87389 H 0.0 **** 0.053
18075 H18075 77.7765 74.2641 7.09795 H 0.0 **** 0.053
18076 H18076 79.0265 73.039 6.88146 H 0.0 **** 0.053
18077 H18077 74.9786 66.2036 10.1891 H 0.0 **** 0.053
18078 H18078 75.3075 66.6638 11.8399 H 0.0 **** 0.053
18079 H18079 76.6754 68.2497 10.5148 H 0.0 **** 0.1268
18080 H18080 73.0872 65.3292 11.9508 H 0.0 **** 0.053
18081 H18081 72.6967 66.6539 13.062 H 0.0 **** 0.053
18082 H18082 70.5636 65.6632 12.2609 H 0.0 **** 0.053
18083 H18083 71.0857 65.8237 10.5724 H 0.0 **** 0.053
18084 H18084 71.8208 70.6966 11.687 H 0.0 **** 0.053
18085 H18085 70.8765 70.6042 10.2192 H 0.0 **** 0.053
18086 H18086 69.9436 70.1967 13.0889 H 0.0 **** 0.053
18087 H18087 68.5122 69.3399 10.5347 H 0.0 **** 0.053
18088 H18088 67.7022 69.4867 12.1071 H 0.0 **** 0.053
18089 H18089 68.5497 67.1187 11.5676 H 0.0 **** 0.053
18090 H18090 69.1352 67.7643 13.0953 H 0.0 **** 0.053
18091 H18091 70.9674 68.9885 8.7892 H 0.0 **** 0.1268
18092 H18092 67.1813 69.4804 5.08958 H 0.0 **** 0.1268
18093 H18093 65.6435 69.5229 3.28391 H 0.0 **** 0.1268
18094 H18094 72.6295 73.2895 2.30465 H 0.0 **** 0.1268
18095 H18095 61.6964 70.9697 -0.223968 H 0.0 **** 0.053
18096 H18096 62.4413 70.416 1.86443 H 0.0 **** 0.053
18097 H18097 63.7819 68.0663 0.496156 H 0.0 **** 0.053
18098 H18098 61.431 67.5685 1.44053 H 0.0 **** 0.053
18099 H18099 61.3992 68.55 2.90756 H 0.0 **** 0.053
18100 H18100 59.8842 70.2204 1.60031 H 0.0 **** 0.053
18101 H18101 59.1033 68.6757 1.95271 H 0.0 **** 0.053
18102 H18102 59.3639 67.8674 -0.241219 H 0.0 **** 0.053
18103 H18103 61.4996 68.0339 -0.998523 H 0.0 **** 0.053
18104 H18104 60.6477 70.6581 -2.28756 H 0.0 **** 0.053
18105 H18105 61.6016 69.3559 -2.99634 H 0.0 **** 0.053
18106 H18106 59.5405 67.8739 -2.91579 H 0.0 **** 0.053
18107 H18107 59.2881 69.3055 -3.92406 H 0.0 **** 0.053
18108 H18108 57.5231 68.5691 -1.93989 H 0.0 **** 0.053
18109 H18109 57.7334 70.2566 -2.42748 H 0.0 **** 0.053
18110 H18110 58.934 70.731 -0.583668 H 0.0 **** 0.353
18111 H18111 73.3826 73.9277 -1.75827 H 0.0 **** 0.053
18112 H18112 73.965 75.2338 0.252356 H 0.0 **** 0.053
18113 H18113 71.1741 76.3337 0.48222 H 0.0 **** 0.053
18114 H18114 72.6916 76.9842 1.11748 H 0.0 **** 0.053
18115 H18115 72.1899 78.5901 -0.559005 H 0.0 **** 0.053
18116 H18116 71.4051 77.3996 -1.61154 H 0.0 **** 0.053
18117 H18117 74.422 77.506 -1.08274 H 0.0 **** 0.053
18118 H18118 73.6518 78.1723 -2.52547 H 0.0 **** 0.053
18119 H18119 74.6445 75.7004 -2.61686 H 0.0 **** 0.053
18120 H18120 73.094 76.024 -3.4035 H 0.0 **** 0.053
18121 H18121 69.7685 74.7844 -3.57811 H 0.0 **** 0.1268
18122 H18122 68.1099 74.9204 -5.40912 H 0.0 **** 0.1268
18123 H18123 62.7265 71.1947 -2.4629 H 0.0 **** 0.1268
18124 H18124 61.3694 71.0034 -4.48801 H 0.0 **** 0.053
18125 H18125 61.4933 71.2714 -6.71801 H 0.0 **** 0.053
18126 H18126 59.9829 73.8534 -6.24429 H 0.0 **** 0.053
18127 H18127 59.1172 70.9778 -5.75401 H 0.0 **** 0.053
18128 H18128 57.9521 72.2982 -5.93058 H 0.0 **** 0.053
18129 H18129 58.9588 71.638 -3.50013 H 0.0 **** 0.053
18130 H18130 58.5301 73.3065 -3.89349 H 0.0 **** 0.053
18131 H18131 60.9083 72.8269 -2.82186 H 0.0 **** 0.053
18132 H18132 60.8199 73.9724 -4.15858 H 0.0 **** 0.053
18133 H18133 70.0702 72.4663 11.9923 H 0.0 **** 0.053
18134 H18134 68.3377 73.1511 10.3914 H 0.0 **** 0.053
18135 H18135 67.622 71.5256 10.3924 H 0.0 **** 0.053
18136 H18136 69.227 71.7857 9.675 H 0.0 **** 0.053
18137 H18137 68.6437 71.9941 13.9865 H 0.0 **** 0.053
18138 H18138 67.2961 71.5219 12.9215 H 0.0 **** 0.053
18139 H18139 67.8729 73.2021 12.9225 H 0.0 **** 0.053
18140 H18140 64.8363 67.7939 2.48184 H 0.0 **** 0.41
18141 H18141 66.2937 75.5187 -8.76078 H 0.0 **** 0.1268
18142 H18142 65.819 76.1126 -11.1129 H 0.0 **** 0.1268
18143 H18143 64.321 76.0465 -13.0753 H 0.0 **** 0.1268
18144 H18144 62.8473 75.9765 -15.0425 H 0.0 **** 0.1268
18145 H18145 60.696 75.3131 -16.09 H 0.0 **** 0.1268
18146 H18146 56.7294 73.1368 -14.5911 H 0.0 **** 0.1268
18147 H18147 58.48 74.2467 -15.9217 H 0.0 **** 0.1268
18148 H18148 57.7962 71.9732 -7.97397 H 0.0 **** 0.1268
18149 H18149 56.7618 70.6357 -9.09645 H 0.0 **** 0.053
18150 H18150 55.5653 71.9336 -9.14884 H 0.0 **** 0.053
18151 H18151 54.5735 69.8365 -10.0257 H 0.0 **** 0.053
18152 H18152 55.8983 69.6749 -11.1986 H 0.0 **** 0.053
18153 H18153 53.8885 71.9978 -11.0769 H 0.0 **** 0.053
18154 H18154 53.9075 70.7566 -12.3355 H 0.0 **** 0.053
18155 C18155 43.3126 29.0543 49.5306 C.3 0.0 **** 0.054
18156 C18156 43.5425 28.12 50.7416 C.3 0.0 **** -0.106
18157 C18157 43.7928 26.672 50.2721 C.3 0.0 **** -0.053
18158 C18158 42.834 26.3483 49.1148 C.3 0.0 **** -0.053
18159 C18159 43.1025 27.3239 47.9396 C.3 0.0 **** 0.054
18160 O18160 43.8431 28.4874 48.3278 O.3 0.0 **** -0.32
18161 C18161 41.3635 26.3917 49.5812 C.3 0.0 **** -0.053
18162 C18162 41.181 25.8294 51.02 C.3 0.0 **** 0.107
18163 C18163 42.3136 24.8841 51.3832 C.3 0.0 **** -0.106
18164 C18164 43.655 25.6388 51.4196 C.3 0.0 **** -0.106
18165 O18165 39.9507 25.1015 51.1564 O.3 0.0 **** -0.32
18166 C18166 38.8322 25.7712 50.5502 C.3 0.0 **** 0.107
18167 C18167 38.9727 25.6465 49.0226 C.3 0.0 **** -0.053
18168 C18168 40.477 25.6008 48.6231 C.3 0.0 **** -0.106
18169 C18169 38.1711 26.641 48.25 C.2 0.0 **** 0.0
18170 C18170 37.5013 27.7017 48.8388 C.2 0.0 **** 0.0
18171 C18171 37.6511 28.0001 50.2409 C.2 0.0 **** 0.0
18172 C18172 38.639 27.2061 51.0657 C.3 0.0 **** -0.053
18173 C18173 37.0433 29.1019 50.8171 C.2 0.0 **** 0.0
18174 C18174 36.1903 29.9537 50.0223 C.2 0.0 **** 0.0
18175 C18175 36.0204 29.6146 48.6456 C.2 0.0 **** 0.232
18176 C18176 36.644 28.5579 48.0421 C.2 0.0 **** 0.0
18177 C18177 36.4564 28.2913 46.5702 C.3 0.0 **** -0.106
18178 C18178 36.696 26.8202 46.229 C.3 0.0 **** -0.106
18179 C18179 38.0565 26.3796 46.7745 C.3 0.0 **** -0.106
18180 O18180 35.2161 30.401 47.8432 O.3 0.0 **** -0.464
18181 C18181 34.4825 31.43 48.3821 C.2 0.0 **** 0.232
18182 C18182 34.6469 31.8391 49.7179 C.2 0.0 **** 0.0
18183 C18183 35.5615 31.0898 50.5461 C.2 0.0 **** 0.0
18184 C18184 38.3336 27.2758 52.5432 C.2 0.0 **** 0.0
18185 C18185 37.9746 28.5939 53.0601 C.2 0.0 **** 0.0
18186 C18186 37.2646 29.4559 52.222 C.2 0.0 **** 0.0
18187 C18187 38.2263 28.8367 54.4793 C.2 0.0 **** 0.0
18188 C18188 38.2177 27.7776 55.3403 C.2 0.0 **** 0.0
18189 C18189 38.1 26.3718 54.8491 C.3 0.0 **** -0.106
18190 C18190 38.3788 26.2198 53.3859 C.2 0.0 **** -0.1268
18191 C18191 38.3694 28.0186 56.8163 C.3 0.0 **** -0.106
18192 C18192 37.7744 29.3776 57.1963 C.3 0.0 **** -0.106
18193 C18193 38.3608 30.4509 56.3123 C.2 0.0 **** 0.0
18194 C18194 38.5936 30.1703 55.0081 C.2 0.0 **** 0.0
18195 C18195 39.3638 31.1128 54.1123 C.3 0.0 **** -0.106
18196 C18196 39.9798 32.3026 54.8571 C.3 0.0 **** -0.053
18197 C18197 38.9653 32.849 55.8677 C.3 0.0 **** -0.106
18198 C18198 38.6671 31.7861 56.9251 C.3 0.0 **** -0.106
18199 C18199 35.8144 31.4155 51.9198 C.2 0.0 **** -0.012
18200 C18200 36.6069 30.6235 52.7139 C.2 0.0 **** -0.1268
18201 C18201 33.8437 32.923 50.1557 C.2 0.0 **** 0.0
18202 C18202 33.9652 33.4354 51.4969 C.2 0.0 **** -0.012
18203 S18203 35.1787 32.8788 52.6386 S.2 0.0 **** 0.024
18204 C18204 33.1616 34.455 51.9393 C.2 0.0 **** -0.1268
18205 C18205 32.1808 35.04 51.0958 C.2 0.0 **** 0.0
18206 C18206 32.0473 34.5849 49.7481 C.2 0.0 **** 0.0
18207 C18207 32.8841 33.5369 49.2749 C.2 0.0 **** 0.0
18208 C18208 31.0852 35.1976 48.9029 C.2 0.0 **** 0.0
18209 C18209 30.2384 36.2291 49.4129 C.2 0.0 **** 0.0
18210 C18210 30.3452 36.6212 50.7963 C.2 0.0 **** 0.0
18211 C18211 31.351 36.0433 51.5865 C.2 0.0 **** -0.1268
18212 C18212 29.4181 37.5745 51.3124 C.2 0.0 **** 0.0
18213 C18213 28.5524 38.2156 50.4466 C.2 0.0 **** 0.042
18214 C18214 28.4891 37.9465 49.0466 C.2 0.0 **** 0.0
18215 C18215 29.3057 36.8882 48.558 C.2 0.0 **** 0.0
18216 C18216 32.7611 33.0893 47.9163 C.2 0.0 **** 0.0
18217 C18217 33.5896 32.0208 47.5152 C.2 0.0 **** -0.1268
18218 C18218 30.9757 34.774 47.5372 C.2 0.0 **** 0.0
18219 C18219 31.8058 33.7275 47.0349 C.2 0.0 **** 0.0
18220 C18220 29.213 36.4827 47.1851 C.2 0.0 **** 0.0
18221 C18221 30.0277 35.4288 46.6951 C.2 0.0 **** 0.0
18222 C18222 27.6322 38.6693 48.1396 C.2 0.0 **** 0.0
18223 C18223 27.5173 38.2175 46.791 C.2 0.0 **** 0.0
18224 C18224 28.2942 37.1302 46.3177 C.2 0.0 **** 0.0
18225 O18225 27.653 39.0923 51.014 O.3 0.0 **** -0.202
18226 C18226 28.222 40.1172 51.877 C.3 0.0 **** 0.107
18227 C18227 29.304 39.5327 52.8192 C.3 0.0 **** -0.053
18228 C18228 29.1941 38.0024 52.7594 C.3 0.0 **** 0.107
18229 C18229 29.187 40.1147 54.2331 C.3 0.0 **** -0.106
18230 C18230 28.8989 41.6162 54.1307 C.3 0.0 **** -0.106
18231 C18231 27.4715 41.845 53.6245 C.3 0.0 **** 0.134
18232 C18232 27.0316 40.7497 52.5959 C.3 0.0 **** -0.053
18233 C18233 26.0403 41.3486 51.5843 C.3 0.0 **** -0.106
18234 C18234 25.0902 42.3409 52.2527 C.3 0.0 **** -0.106
18235 C18235 25.8981 43.5274 52.8498 C.3 0.0 **** 0.081
18236 N18236 27.3077 43.2116 53.1268 N.3 0.0 **** -0.727
18237 C18237 31.6394 33.3623 45.6522 C.2 0.0 **** 0.042
18238 C18238 30.6823 33.9663 44.8514 C.2 0.0 **** 0.042
18239 C18239 29.8744 35.0288 45.3329 C.2 0.0 **** 0.0
18240 O18240 30.4653 33.6013 43.5428 O.3 0.0 **** -0.202
18241 C18241 31.0575 32.3416 43.158 C.3 0.0 **** 0.107
18242 C18242 32.4861 32.336 43.6757 C.3 0.0 **** 0.107
18243 O18243 32.4514 32.3885 45.1152 O.3 0.0 **** -0.202
18244 C18244 33.3301 33.4889 43.0932 C.3 0.0 **** -0.106
18245 C18245 32.8381 33.9464 41.703 C.3 0.0 **** -0.106
18246 C18246 32.2403 32.7676 40.9267 C.3 0.0 **** -0.106
18247 C18247 30.982 32.224 41.6342 C.3 0.0 **** -0.106
18248 C18248 28.1587 36.7145 44.9519 C.2 0.0 **** 0.0
18249 C18249 28.9487 35.6618 44.4903 C.2 0.0 **** -0.1268
18250 C18250 26.6185 38.8839 45.9116 C.2 0.0 **** 0.0
18251 C18251 26.4843 38.4219 44.5657 C.2 0.0 **** 0.042
18252 C18252 27.2281 37.3771 44.0914 C.2 0.0 **** -0.1268
18253 C18253 25.8756 39.9946 46.3389 C.2 0.0 **** 0.0
18254 C18254 26.0554 40.4845 47.6391 C.2 0.0 **** 0.0
18255 C18255 26.9139 39.8258 48.5 C.2 0.0 **** -0.1268
18256 O18256 25.5946 39.039 43.6995 O.3 0.0 **** -0.0685
18257 C18257 24.8076 40.0835 44.1274 C.2 0.0 **** 0.0265
18258 C18258 24.939 40.6044 45.4261 C.2 0.0 **** 0.0
18259 C18259 25.3705 41.7378 48.1158 C.3 0.0 **** -0.053
18260 C18260 24.1498 42.1554 47.2637 C.3 0.0 **** -0.053
18261 C18261 24.1336 41.6692 45.8388 C.2 0.0 **** 0.0
18262 C18262 23.9541 43.6833 47.2602 C.3 0.0 **** -0.053
18263 C18263 24.2185 44.242 48.6535 C.3 0.0 **** -0.106
18264 C18264 25.7195 44.0791 49.0003 C.3 0.0 **** -0.106
18265 C18265 26.3671 42.9042 48.2431 C.3 0.0 **** -0.106
18266 C18266 23.1956 42.2309 44.9594 C.2 0.0 **** 0.0
18267 C18267 23.0169 41.6616 43.6667 C.2 0.0 **** 0.0
18268 C18268 23.8452 40.5809 43.2285 C.2 0.0 **** 0.0
18269 C18269 22.6418 44.0076 46.6006 C.2 0.0 **** 0.0
18270 C18270 22.3636 43.3237 45.3845 C.2 0.0 **** 0.0
18271 C18271 40.5073 33.3645 53.8694 C.3 0.0 **** -0.053
18272 C18272 39.3801 34.159 53.1971 C.3 0.0 **** -0.159
18273 C18273 41.4921 34.3164 54.556 C.3 0.0 **** -0.159
18274 O18274 30.0488 37.4577 53.7662 O.3 0.0 **** -0.57
18275 C18275 23.6463 40.0372 41.9174 C.2 0.0 **** -0.1268
18276 C18276 22.6578 40.5176 41.1043 C.2 0.0 **** -0.1268
18277 C18277 21.78 41.5697 41.5283 C.2 0.0 **** 0.0
18278 C18278 21.9749 42.1431 42.8263 C.2 0.0 **** 0.0
18279 C18279 21.1053 43.1695 43.2814 C.2 0.0 **** 0.0
18280 C18280 20.0505 43.6255 42.4562 C.2 0.0 **** 0.0
18281 C18281 19.8664 43.0505 41.1573 C.2 0.0 **** 0.0
18282 C18282 20.7363 42.0373 40.7231 C.2 0.0 **** -0.1268
18283 C18283 18.7951 43.5238 40.3382 C.2 0.0 **** -0.1268
18284 C18284 17.9532 44.5092 40.7813 C.2 0.0 **** -0.1268
18285 C18285 18.1197 45.0989 42.0716 C.2 0.0 **** 0.0
18286 C18286 19.1765 44.6568 42.9111 C.2 0.0 **** 0.0
18287 C18287 19.3611 45.2483 44.1975 C.2 0.0 **** 0.0
18288 C18288 20.4302 44.7949 45.0211 C.2 0.0 **** 0.0
18289 C18289 21.2972 43.7586 44.5707 C.2 0.0 **** 0.0
18290 C18290 18.4982 46.2917 44.6465 C.2 0.0 **** 0.0
18291 C18291 17.4378 46.6918 43.7868 C.2 0.0 **** -0.1268
18292 C18292 17.2585 46.1127 42.5478 C.2 0.0 **** -0.1268
18293 C18293 21.7744 44.977 47.0518 C.2 0.0 **** -0.1268
18294 C18294 20.6311 45.3682 46.3068 C.2 0.0 **** 0.0
18295 C18295 18.709 46.8615 45.9614 C.2 0.0 **** 0.052
18296 C18296 19.7176 46.3549 46.7921 C.2 0.0 **** 0.0
18297 C18297 19.8766 46.823 48.2216 C.3 0.0 **** -0.106
18298 C18298 18.5752 47.3721 48.7932 C.3 0.0 **** -0.106
18299 C18299 18.0817 48.4832 47.8815 C.3 0.0 **** -0.086
18300 C18300 17.9365 48.0534 46.427 C.2 0.0 **** 0.347
18301 O18301 17.235 48.7469 45.6889 O.2 0.0 **** -0.419
18302 H18302 43.8222 30.0189 49.6603 H 0.0 **** 0.053
18303 H18303 42.2312 29.2556 49.394 H 0.0 **** 0.053
18304 H18304 44.4052 28.4567 51.3367 H 0.0 **** 0.053
18305 H18305 42.6626 28.1538 51.4035 H 0.0 **** 0.053
18306 H18306 44.8178 26.6344 49.8753 H 0.0 **** 0.053
18307 H18307 43.0418 25.3235 48.7641 H 0.0 **** 0.053
18308 H18308 42.1381 27.6387 47.4889 H 0.0 **** 0.053
18309 H18309 43.7103 26.8482 47.1572 H 0.0 **** 0.053
18310 H18310 41.0376 27.4441 49.5634 H 0.0 **** 0.053
18311 H18311 41.1738 26.663 51.7486 H 0.0 **** 0.053
18312 H18312 42.3444 24.0763 50.6343 H 0.0 **** 0.053
18313 H18313 42.1038 24.4146 52.3549 H 0.0 **** 0.053
18314 H18314 44.4767 24.9088 51.3703 H 0.0 **** 0.053
18315 H18315 43.7571 26.1602 52.3856 H 0.0 **** 0.053
18316 H18316 37.9536 25.1947 50.875 H 0.0 **** 0.053
18317 H18317 38.5704 24.6524 48.7486 H 0.0 **** 0.053
18318 H18318 40.6086 25.9674 47.5943 H 0.0 **** 0.053
18319 H18319 40.8186 24.5538 48.6372 H 0.0 **** 0.053
18320 H18320 39.5936 27.7542 50.9318 H 0.0 **** 0.053
18321 H18321 35.4524 28.6115 46.2567 H 0.0 **** 0.053
18322 H18322 37.1687 28.9141 45.9965 H 0.0 **** 0.053
18323 H18323 36.6442 26.6663 45.1404 H 0.0 **** 0.053
18324 H18324 35.907 26.2049 46.691 H 0.0 **** 0.053
18325 H18325 38.8537 26.9229 46.2284 H 0.0 **** 0.053
18326 H18326 38.2342 25.3089 46.5771 H 0.0 **** 0.053
18327 H18327 37.086 25.9766 55.0791 H 0.0 **** 0.053
18328 H18328 38.7738 25.7234 55.4426 H 0.0 **** 0.053
18329 H18329 38.6237 25.2242 53.0197 H 0.0 **** 0.1268
18330 H18330 37.8904 27.2024 57.3804 H 0.0 **** 0.053
18331 H18331 39.4461 27.9977 57.0812 H 0.0 **** 0.053
18332 H18332 37.9662 29.6119 58.255 H 0.0 **** 0.053
18333 H18333 36.6754 29.3417 57.0674 H 0.0 **** 0.053
18334 H18334 40.1611 30.536 53.6103 H 0.0 **** 0.053
18335 H18335 38.7263 31.4829 53.295 H 0.0 **** 0.053
18336 H18336 40.8463 31.9296 55.4345 H 0.0 **** 0.053
18337 H18337 38.0326 33.1044 55.3389 H 0.0 **** 0.053
18338 H18338 39.3365 33.7704 56.3421 H 0.0 **** 0.053
18339 H18339 37.8144 32.0912 57.5588 H 0.0 **** 0.053
18340 H18340 39.5256 31.6888 57.618 H 0.0 **** 0.053
18341 H18341 36.7107 30.8706 53.7702 H 0.0 **** 0.1268
18342 H18342 33.2571 34.8305 52.9607 H 0.0 **** 0.1268
18343 H18343 31.5168 36.401 52.5979 H 0.0 **** 0.1268
18344 H18344 33.5417 31.6261 46.5109 H 0.0 **** 0.1268
18345 H18345 28.6804 40.8754 51.2148 H 0.0 **** 0.053
18346 H18346 30.2959 39.7988 52.4205 H 0.0 **** 0.053
18347 H18347 28.1436 37.7468 53.0095 H 0.0 **** 0.053
18348 H18348 28.3717 39.6114 54.7807 H 0.0 **** 0.053
18349 H18349 30.1113 39.912 54.7888 H 0.0 **** 0.053
18350 H18350 29.6118 42.0741 53.4214 H 0.0 **** 0.053
18351 H18351 29.0333 42.136 55.0892 H 0.0 **** 0.053
18352 H18352 26.7905 41.7573 54.4883 H 0.0 **** 0.053
18353 H18353 26.527 39.9402 53.15 H 0.0 **** 0.053
18354 H18354 26.612 41.8793 50.8035 H 0.0 **** 0.053
18355 H18355 25.4913 40.5456 51.0739 H 0.0 **** 0.053
18356 H18356 24.5308 41.8228 53.0481 H 0.0 **** 0.053
18357 H18357 24.3462 42.7127 51.5302 H 0.0 **** 0.053
18358 H18358 25.4275 43.8601 53.7905 H 0.0 **** 0.053
18359 H18359 25.8811 44.3872 52.1638 H 0.0 **** 0.053
18360 H18360 27.8641 43.3286 52.2791 H 0.0 **** 0.353
18361 H18361 30.4906 31.5361 43.6537 H 0.0 **** 0.053
18362 H18362 32.9435 31.3614 43.4535 H 0.0 **** 0.053
18363 H18363 33.2947 34.3291 43.8018 H 0.0 **** 0.053
18364 H18364 34.3763 33.1535 43.0419 H 0.0 **** 0.053
18365 H18365 33.6718 34.3967 41.1446 H 0.0 **** 0.053
18366 H18366 32.0675 34.7221 41.8237 H 0.0 **** 0.053
18367 H18367 32.9984 31.9695 40.8494 H 0.0 **** 0.053
18368 H18368 31.9877 33.0603 39.897 H 0.0 **** 0.053
18369 H18369 30.8176 31.1695 41.3666 H 0.0 **** 0.053
18370 H18370 30.0872 32.7793 41.3136 H 0.0 **** 0.053
18371 H18371 28.851 35.3282 43.4584 H 0.0 **** 0.1268
18372 H18372 27.1186 37.0487 43.0573 H 0.0 **** 0.1268
18373 H18373 27.0227 40.214 49.5004 H 0.0 **** 0.1268
18374 H18374 25.0036 41.5443 49.1354 H 0.0 **** 0.053
18375 H18375 23.2471 41.7257 47.7419 H 0.0 **** 0.053
18376 H18376 24.7261 44.1008 46.5827 H 0.0 **** 0.053
18377 H18377 23.5902 43.6938 49.376 H 0.0 **** 0.053
18378 H18378 23.9329 45.3014 48.7205 H 0.0 **** 0.053
18379 H18379 25.8249 43.9147 50.0819 H 0.0 **** 0.053
18380 H18380 26.2594 45.009 48.7644 H 0.0 **** 0.053
18381 H18381 27.2726 42.5579 48.7639 H 0.0 **** 0.053
18382 H18382 26.6876 43.2107 47.2347 H 0.0 **** 0.053
18383 H18383 41.0573 32.8179 53.0817 H 0.0 **** 0.053
18384 H18384 39.7848 34.8069 52.4051 H 0.0 **** 0.053
18385 H18385 38.8746 34.8064 53.9302 H 0.0 **** 0.053
18386 H18386 38.6169 33.5074 52.7451 H 0.0 **** 0.053
18387 H18387 42.3266 33.762 55.0136 H 0.0 **** 0.053
18388 H18388 40.9902 34.8902 55.3513 H 0.0 **** 0.053
18389 H18389 41.9098 35.0393 53.8388 H 0.0 **** 0.053
18390 H18390 29.8551 36.5095 53.8272 H 0.0 **** 0.41
18391 H18391 24.2936 39.226 41.5846 H 0.0 **** 0.1268
18392 H18392 22.5106 40.0944 40.109 H 0.0 **** 0.1268
18393 H18393 20.5877 41.5982 39.7341 H 0.0 **** 0.1268
18394 H18394 18.6621 43.0787 39.3504 H 0.0 **** 0.1268
18395 H18395 17.1321 44.8616 40.1539 H 0.0 **** 0.1268
18396 H18396 16.7701 47.4787 44.1208 H 0.0 **** 0.1268
18397 H18397 16.4319 46.4396 41.9133 H 0.0 **** 0.1268
18398 H18398 22.001 45.4842 47.9858 H 0.0 **** 0.1268
18399 H18399 20.2283 45.984 48.8382 H 0.0 **** 0.053
18400 H18400 20.6615 47.601 48.2757 H 0.0 **** 0.053
18401 H18401 18.7265 47.7361 49.8208 H 0.0 **** 0.053
18402 H18402 17.8295 46.5613 48.8347 H 0.0 **** 0.053
18403 H18403 18.8078 49.3173 47.8872 H 0.0 **** 0.053
18404 H18404 17.1153 48.9065 48.19 H 0.0 **** 0.053
18405 C18405 66.808 60.4312 58.1432 C.3 0.0 **** 0.054
18406 C18406 67.0915 58.9193 58.3044 C.3 0.0 **** -0.106
18407 C18407 67.8022 58.6384 59.6445 C.3 0.0 **** -0.053
18408 C18408 68.8511 59.7344 59.8939 C.3 0.0 **** -0.053
18409 C18409 68.144 61.1128 59.9654 C.3 0.0 **** 0.054
18410 O18410 66.824 61.1014 59.4083 O.3 0.0 **** -0.32
18411 C18411 69.9557 59.7035 58.8166 C.3 0.0 **** -0.053
18412 C18412 70.3245 58.2547 58.3869 C.3 0.0 **** 0.107
18413 C18413 69.9652 57.256 59.4739 C.3 0.0 **** -0.106
18414 C18414 68.4423 57.2276 59.698 C.3 0.0 **** -0.106
18415 O18415 71.7292 58.1178 58.1221 O.3 0.0 **** -0.32
18416 C18416 72.2627 59.2047 57.3467 C.3 0.0 **** 0.107
18417 C18417 72.3481 60.4428 58.2571 C.3 0.0 **** -0.053
18418 C18418 71.2127 60.4064 59.3219 C.3 0.0 **** -0.106
18419 C18419 72.4475 61.7384 57.5221 C.2 0.0 **** 0.0
18420 C18420 72.2938 61.849 56.1493 C.2 0.0 **** 0.0
18421 C18421 71.8831 60.7251 55.3459 C.2 0.0 **** 0.0
18422 C18422 71.5108 59.4261 56.0247 C.3 0.0 **** -0.053
18423 C18423 71.6563 60.8494 53.9863 C.2 0.0 **** 0.0
18424 C18424 71.8844 62.1148 53.3293 C.2 0.0 **** 0.0
18425 C18425 72.3333 63.2039 54.1363 C.2 0.0 **** 0.232
18426 C18426 72.5226 63.1189 55.4878 C.2 0.0 **** 0.0
18427 C18427 72.9497 64.3264 56.2831 C.3 0.0 **** -0.106
18428 C18428 73.6726 63.9268 57.5698 C.3 0.0 **** -0.106
18429 C18429 72.8138 62.9336 58.3563 C.3 0.0 **** -0.106
18430 O18430 72.5626 64.4358 53.554 O.3 0.0 **** -0.464
18431 C18431 72.4826 64.5913 52.1914 C.2 0.0 **** 0.232
18432 C18432 71.999 63.5694 51.3543 C.2 0.0 **** 0.0
18433 C18433 71.6577 62.3046 51.9607 C.2 0.0 **** 0.0
18434 C18434 71.5935 58.2474 55.0839 C.2 0.0 **** 0.0
18435 C18435 71.0435 58.457 53.7471 C.2 0.0 **** 0.0
18436 C18436 71.1551 59.7299 53.1842 C.2 0.0 **** 0.0
18437 C18437 70.5841 57.2694 53.0294 C.2 0.0 **** 0.0
18438 C18438 71.16 56.0648 53.3127 C.2 0.0 **** 0.0
18439 C18439 72.1393 55.9101 54.4299 C.3 0.0 **** -0.106
18440 C18440 72.1263 57.047 55.4041 C.2 0.0 **** -0.1268
18441 C18441 70.7766 54.8514 52.5125 C.3 0.0 **** -0.106
18442 C18442 70.4003 55.2546 51.0838 C.3 0.0 **** -0.106
18443 C18443 69.3588 56.3457 51.1244 C.2 0.0 **** 0.0
18444 C18444 69.447 57.3 52.0813 C.2 0.0 **** 0.0
18445 C18445 68.3391 58.3002 52.3177 C.3 0.0 **** -0.106
18446 C18446 67.0737 58.0209 51.4988 C.3 0.0 **** -0.053
18447 C18447 67.4698 57.6255 50.0719 C.3 0.0 **** -0.106
18448 C18448 68.2624 56.3187 50.1 C.3 0.0 **** -0.106
18449 C18449 71.151 61.1922 51.2103 C.2 0.0 **** -0.012
18450 C18450 70.9352 59.968 51.7939 C.2 0.0 **** -0.1268
18451 C18451 71.9493 63.8534 49.9657 C.2 0.0 **** 0.0
18452 C18452 71.4371 62.8819 49.0329 C.2 0.0 **** -0.012
18453 S18453 70.7173 61.3563 49.5231 S.2 0.0 **** 0.024
18454 C18454 71.426 63.1341 47.6848 C.2 0.0 **** -0.1268
18455 C18455 71.92 64.357 47.1592 C.2 0.0 **** 0.0
18456 C18456 72.4077 65.3619 48.0501 C.2 0.0 **** 0.0
18457 C18457 72.412 65.116 49.4508 C.2 0.0 **** 0.0
18458 C18458 72.8704 66.5937 47.5171 C.2 0.0 **** 0.0
18459 C18459 72.8811 66.8027 46.1039 C.2 0.0 **** 0.0
18460 C18460 72.4497 65.746 45.2229 C.2 0.0 **** 0.0
18461 C18461 71.9357 64.5665 45.7838 C.2 0.0 **** -0.1268
18462 C18462 72.5707 65.9353 43.8142 C.2 0.0 **** 0.0
18463 C18463 72.9414 67.1741 43.3262 C.2 0.0 **** 0.042
18464 C18464 73.2655 68.288 44.1571 C.2 0.0 **** 0.0
18465 C18465 73.2932 68.056 45.561 C.2 0.0 **** 0.0
18466 C18466 72.8878 66.1311 50.3478 C.2 0.0 **** 0.0
18467 C18467 72.9052 65.8159 51.7223 C.2 0.0 **** -0.1268
18468 C18468 73.3215 67.6219 48.4091 C.2 0.0 **** 0.0
18469 C18469 73.3325 67.4037 49.8194 C.2 0.0 **** 0.0
18470 C18470 73.7207 69.0944 46.4538 C.2 0.0 **** 0.0
18471 C18471 73.7474 68.866 47.8543 C.2 0.0 **** 0.0
18472 C18472 73.5832 69.5958 43.6393 C.2 0.0 **** 0.0
18473 C18473 74.0542 70.5983 44.5388 C.2 0.0 **** 0.0
18474 C18474 74.1297 70.3501 45.9325 C.2 0.0 **** 0.0
18475 O18475 73.0825 67.2789 41.9592 O.3 0.0 **** -0.202
18476 C18476 71.9443 66.8367 41.1666 C.3 0.0 **** 0.107
18477 C18477 71.3618 65.504 41.6999 C.3 0.0 **** -0.053
18478 C18478 72.3755 64.9188 42.6937 C.3 0.0 **** 0.107
18479 C18479 70.9913 64.5571 40.552 C.3 0.0 **** -0.106
18480 C18480 70.3241 65.3667 39.4351 C.3 0.0 **** -0.106
18481 C18481 71.3604 66.2503 38.7341 C.3 0.0 **** 0.134
18482 C18482 72.4516 66.7745 39.7269 C.3 0.0 **** -0.053
18483 C18483 72.959 68.1518 39.2685 C.3 0.0 **** -0.106
18484 C18484 73.0627 68.2313 37.7463 C.3 0.0 **** -0.106
18485 C18485 71.6588 68.0323 37.1089 C.3 0.0 **** 0.081
18486 N18486 70.7072 67.3144 37.9706 N.3 0.0 **** -0.727
18487 C18487 73.795 68.4859 50.6488 C.2 0.0 **** 0.042
18488 C18488 74.2555 69.6741 50.1027 C.2 0.0 **** 0.042
18489 C18489 74.2188 69.9121 48.7043 C.2 0.0 **** 0.0
18490 O18490 74.7521 70.7043 50.8675 O.3 0.0 **** -0.202
18491 C18491 75.071 70.3491 52.2305 C.3 0.0 **** 0.107
18492 C18492 73.8984 69.5521 52.777 C.3 0.0 **** 0.107
18493 O18493 73.7794 68.3337 52.0172 O.3 0.0 **** -0.202
18494 C18494 72.5802 70.3539 52.7601 C.3 0.0 **** -0.106
18495 C18495 72.8064 71.878 52.8602 C.3 0.0 **** -0.106
18496 C18496 74.0531 72.1851 53.6974 C.3 0.0 **** -0.106
18497 C18497 75.3235 71.6391 53.0137 C.3 0.0 **** -0.106
18498 C18498 74.5967 71.3883 46.8047 C.2 0.0 **** 0.0
18499 C18499 74.6401 71.1416 48.1769 C.2 0.0 **** -0.1268
18500 C18500 74.437 71.8678 44.022 C.2 0.0 **** 0.0
18501 C18501 74.9292 72.8683 44.9162 C.2 0.0 **** 0.042
18502 C18502 75.0055 72.6473 46.2634 C.2 0.0 **** -0.1268
18503 C18503 74.324 72.158 42.654 C.2 0.0 **** 0.0
18504 C18504 73.7824 71.1983 41.7889 C.2 0.0 **** 0.0
18505 C18505 73.4285 69.9579 42.2872 C.2 0.0 **** -0.1268
18506 O18506 75.3334 74.1028 44.431 O.3 0.0 **** -0.0685
18507 C18507 75.2953 74.3743 43.0825 C.2 0.0 **** 0.0265
18508 C18508 74.7736 73.4411 42.1704 C.2 0.0 **** 0.0
18509 C18509 73.5335 71.4933 40.3335 C.3 0.0 **** -0.053
18510 C18510 74.3196 72.7091 39.7906 C.3 0.0 **** -0.053
18511 C18511 74.7391 73.7392 40.8055 C.2 0.0 **** 0.0
18512 C18512 73.5552 73.4219 38.6592 C.3 0.0 **** -0.053
18513 C18513 72.8974 72.3908 37.7494 C.3 0.0 **** -0.106
18514 C18514 71.7756 71.6565 38.5255 C.3 0.0 **** -0.106
18515 C18515 72.0292 71.648 40.0449 C.3 0.0 **** -0.106
18516 C18516 75.2161 74.9727 40.337 C.2 0.0 **** 0.0
18517 C18517 75.804 75.8911 41.2523 C.2 0.0 **** 0.0
18518 C18518 75.832 75.6028 42.653 C.2 0.0 **** 0.0
18519 C18519 74.4549 74.4521 38.0334 C.2 0.0 **** 0.0
18520 C18520 75.1848 75.2785 38.9325 C.2 0.0 **** 0.0
18521 C18521 66.094 59.2113 51.5649 C.3 0.0 **** -0.053
18522 C18522 66.5645 60.4118 50.7335 C.3 0.0 **** -0.159
18523 C18523 64.6837 58.7902 51.1395 C.3 0.0 **** -0.159
18524 O18524 71.9443 63.6022 43.042 O.3 0.0 **** -0.57
18525 C18525 76.4221 76.5533 43.5489 C.2 0.0 **** -0.1268
18526 C18526 76.9828 77.7063 43.0742 C.2 0.0 **** -0.1268
18527 C18527 77.0125 78.0065 41.672 C.2 0.0 **** 0.0
18528 C18528 76.4088 77.0812 40.7604 C.2 0.0 **** 0.0
18529 C18529 76.445 77.3413 39.3648 C.2 0.0 **** 0.0
18530 C18530 77.074 78.5102 38.8754 C.2 0.0 **** 0.0
18531 C18531 77.6702 79.4329 39.7945 C.2 0.0 **** 0.0
18532 C18532 77.6242 79.1603 41.1712 C.2 0.0 **** -0.1268
18533 C18533 78.3016 80.608 39.2814 C.2 0.0 **** -0.1268
18534 C18534 78.3415 80.854 37.9345 C.2 0.0 **** -0.1268
18535 C18535 77.751 79.9494 37.0 C.2 0.0 **** 0.0
18536 C18536 77.1108 78.7736 37.4741 C.2 0.0 **** 0.0
18537 C18537 76.5053 77.8687 36.5503 C.2 0.0 **** 0.0
18538 C18538 75.8634 76.6989 37.0467 C.2 0.0 **** 0.0
18539 C18539 75.8349 76.4311 38.4452 C.2 0.0 **** 0.0
18540 C18540 76.5265 78.1399 35.15 C.2 0.0 **** 0.0
18541 C18541 77.1965 79.3158 34.7119 C.2 0.0 **** -0.1268
18542 C18542 77.7865 80.1836 35.6071 C.2 0.0 **** -0.1268
18543 C18543 74.524 74.6903 36.679 C.2 0.0 **** -0.1268
18544 C18544 75.256 75.7829 36.1445 C.2 0.0 **** 0.0
18545 C18545 75.9109 77.1945 34.2414 C.2 0.0 **** 0.052
18546 C18546 75.3486 76.01 34.7362 C.2 0.0 **** 0.0
18547 C18547 74.8262 74.9337 33.8108 C.3 0.0 **** -0.106
18548 C18548 75.4836 74.99 32.4373 C.3 0.0 **** -0.106
18549 C18549 75.2791 76.3824 31.8641 C.3 0.0 **** -0.086
18550 C18550 75.7695 77.4938 32.7838 C.2 0.0 **** 0.347
18551 O18551 75.968 78.6047 32.2895 O.2 0.0 **** -0.419
18552 H18552 65.812 60.6138 57.7173 H 0.0 **** 0.053
18553 H18553 67.5566 60.8984 57.4725 H 0.0 **** 0.053
18554 H18554 66.1559 58.3403 58.2681 H 0.0 **** 0.053
18555 H18555 67.7171 58.5719 57.467 H 0.0 **** 0.053
18556 H18556 67.0424 58.7191 60.4355 H 0.0 **** 0.053
18557 H18557 69.3312 59.5442 60.8684 H 0.0 **** 0.053
18558 H18558 68.7564 61.8735 59.4376 H 0.0 **** 0.053
18559 H18559 68.0102 61.4389 61.0064 H 0.0 **** 0.053
18560 H18560 69.5822 60.254 57.9383 H 0.0 **** 0.053
18561 H18561 69.7699 57.9854 57.4672 H 0.0 **** 0.053
18562 H18562 70.487 57.5483 60.3994 H 0.0 **** 0.053
18563 H18563 70.337 56.2595 59.1956 H 0.0 **** 0.053
18564 H18564 68.2332 56.7553 60.6695 H 0.0 **** 0.053
18565 H18565 67.9701 56.5904 58.9322 H 0.0 **** 0.053
18566 H18566 73.2819 58.885 57.0843 H 0.0 **** 0.053
18567 H18567 73.2883 60.3468 58.8332 H 0.0 **** 0.053
18568 H18568 70.9694 61.4267 59.6536 H 0.0 **** 0.053
18569 H18569 71.5708 59.8577 60.2072 H 0.0 **** 0.053
18570 H18570 70.4331 59.5493 56.2551 H 0.0 **** 0.053
18571 H18571 73.5794 64.9799 55.6624 H 0.0 **** 0.053
18572 H18572 72.0546 64.9225 56.5438 H 0.0 **** 0.053
18573 H18573 73.8933 64.8177 58.1774 H 0.0 **** 0.053
18574 H18574 74.633 63.4496 57.316 H 0.0 **** 0.053
18575 H18575 71.897 63.4507 58.7041 H 0.0 **** 0.053
18576 H18576 73.3332 62.5977 59.2697 H 0.0 **** 0.053
18577 H18577 73.1645 55.7839 54.0169 H 0.0 **** 0.053
18578 H18578 71.9473 54.9509 54.9494 H 0.0 **** 0.053
18579 H18579 72.5606 56.874 56.3873 H 0.0 **** 0.1268
18580 H18580 71.6035 54.1234 52.5163 H 0.0 **** 0.053
18581 H18581 69.9128 54.3523 52.9969 H 0.0 **** 0.053
18582 H18582 70.0224 54.3907 50.515 H 0.0 **** 0.053
18583 H18583 71.3052 55.6163 50.5584 H 0.0 **** 0.053
18584 H18584 68.0932 58.2934 53.3947 H 0.0 **** 0.053
18585 H18585 68.6877 59.3243 52.1147 H 0.0 **** 0.053
18586 H18586 66.564 57.1485 51.949 H 0.0 **** 0.053
18587 H18587 68.099 58.4207 49.6398 H 0.0 **** 0.053
18588 H18588 66.5821 57.5236 49.4288 H 0.0 **** 0.053
18589 H18589 68.7053 56.1069 49.1098 H 0.0 **** 0.053
18590 H18590 67.5838 55.4676 50.3043 H 0.0 **** 0.053
18591 H18591 70.6196 59.133 51.1687 H 0.0 **** 0.1268
18592 H18592 71.0425 62.3872 46.986 H 0.0 **** 0.1268
18593 H18593 71.5079 63.8036 45.1409 H 0.0 **** 0.1268
18594 H18594 73.2611 66.528 52.4522 H 0.0 **** 0.1268
18595 H18595 71.1765 67.6297 41.2384 H 0.0 **** 0.053
18596 H18596 70.4454 65.7259 42.2699 H 0.0 **** 0.053
18597 H18597 73.3439 64.8447 42.1569 H 0.0 **** 0.053
18598 H18598 71.8983 64.0605 40.1666 H 0.0 **** 0.053
18599 H18599 70.3348 63.7636 40.9308 H 0.0 **** 0.053
18600 H18600 69.5386 66.0089 39.8732 H 0.0 **** 0.053
18601 H18601 69.8277 64.7276 38.6921 H 0.0 **** 0.053
18602 H18602 71.8852 65.6268 37.99 H 0.0 **** 0.053
18603 H18603 73.2957 66.0643 39.7167 H 0.0 **** 0.053
18604 H18604 72.2476 68.9216 39.614 H 0.0 **** 0.053
18605 H18605 73.9195 68.3792 39.7507 H 0.0 **** 0.053
18606 H18606 73.7555 67.4513 37.3921 H 0.0 **** 0.053
18607 H18607 73.4874 69.1994 37.4364 H 0.0 **** 0.053
18608 H18608 71.757 67.4737 36.1627 H 0.0 **** 0.053
18609 H18609 71.2091 69.0048 36.8592 H 0.0 **** 0.053
18610 H18610 70.2624 67.9667 38.6177 H 0.0 **** 0.353
18611 H18611 75.967 69.7064 52.2115 H 0.0 **** 0.053
18612 H18612 74.1398 69.2119 53.794 H 0.0 **** 0.053
18613 H18613 72.0457 70.1116 51.8301 H 0.0 **** 0.053
18614 H18614 71.9552 70.0003 53.5932 H 0.0 **** 0.053
18615 H18615 71.9175 72.3566 53.2967 H 0.0 **** 0.053
18616 H18616 72.9417 72.2957 51.8516 H 0.0 **** 0.053
18617 H18617 73.9378 71.723 54.6929 H 0.0 **** 0.053
18618 H18618 74.1597 73.267 53.8649 H 0.0 **** 0.053
18619 H18619 76.1105 71.4539 53.7599 H 0.0 **** 0.053
18620 H18620 75.7254 72.3744 52.2998 H 0.0 **** 0.053
18621 H18621 75.0009 71.9164 48.8515 H 0.0 **** 0.1268
18622 H18622 75.3729 73.4291 46.9291 H 0.0 **** 0.1268
18623 H18623 73.0284 69.2315 41.5975 H 0.0 **** 0.1268
18624 H18624 73.8601 70.613 39.7592 H 0.0 **** 0.053
18625 H18625 75.2573 72.3256 39.3411 H 0.0 **** 0.053
18626 H18626 72.7446 74.0046 39.1416 H 0.0 **** 0.053
18627 H18627 73.669 71.6776 37.4127 H 0.0 **** 0.053
18628 H18628 72.4809 72.861 36.8473 H 0.0 **** 0.053
18629 H18629 71.7046 70.6208 38.1645 H 0.0 **** 0.053
18630 H18630 70.8055 72.1341 38.3188 H 0.0 **** 0.053
18631 H18631 71.4771 70.8269 40.5267 H 0.0 **** 0.053
18632 H18632 71.6706 72.5788 40.5121 H 0.0 **** 0.053
18633 H18633 66.0492 59.5253 52.6238 H 0.0 **** 0.053
18634 H18634 65.9161 61.2825 50.9128 H 0.0 **** 0.053
18635 H18635 66.5177 60.1782 49.6586 H 0.0 **** 0.053
18636 H18636 67.5992 60.706 50.9662 H 0.0 **** 0.053
18637 H18637 64.3182 57.951 51.7521 H 0.0 **** 0.053
18638 H18638 64.6733 58.4698 50.0855 H 0.0 **** 0.053
18639 H18639 63.9738 59.6254 51.2392 H 0.0 **** 0.053
18640 H18640 72.6643 63.1848 43.5396 H 0.0 **** 0.41
18641 H18641 76.4231 76.3341 44.6165 H 0.0 **** 0.1268
18642 H18642 77.434 78.4223 43.7634 H 0.0 **** 0.1268
18643 H18643 78.0856 79.8644 41.8672 H 0.0 **** 0.1268
18644 H18644 78.7541 81.3045 39.9895 H 0.0 **** 0.1268
18645 H18645 78.8315 81.7498 37.548 H 0.0 **** 0.1268
18646 H18646 77.2262 79.5284 33.6486 H 0.0 **** 0.1268
18647 H18647 78.2968 81.0758 35.238 H 0.0 **** 0.1268
18648 H18648 73.964 74.0447 36.0079 H 0.0 **** 0.1268
18649 H18649 75.0029 73.9496 34.2671 H 0.0 **** 0.053
18650 H18650 73.7299 75.0345 33.7004 H 0.0 **** 0.053
18651 H18651 75.0622 74.2193 31.7741 H 0.0 **** 0.053
18652 H18652 76.5609 74.7825 32.5446 H 0.0 **** 0.053
18653 H18653 74.1997 76.5638 31.707 H 0.0 **** 0.053
18654 H18654 75.7672 76.5317 30.8905 H 0.0 **** 0.053
18655 C18655 75.5018 42.102 47.0921 C.3 0.0 **** 0.054
18656 C18656 76.8168 41.3905 47.4882 C.3 0.0 **** -0.106
18657 C18657 77.3295 40.5098 46.3301 C.3 0.0 **** -0.053
18658 C18658 76.1349 39.7939 45.679 C.3 0.0 **** -0.053
18659 C18659 75.146 40.8511 45.1227 C.3 0.0 **** 0.054
18660 O18660 75.3494 42.1597 45.6697 O.3 0.0 **** -0.32
18661 C18661 75.4548 38.8289 46.673 C.3 0.0 **** -0.053
18662 C18662 76.4797 38.1078 47.5946 C.3 0.0 **** 0.107
18663 C18663 77.8565 38.07 46.9534 C.3 0.0 **** -0.106
18664 C18664 78.4112 39.496 46.7831 C.3 0.0 **** -0.106
18665 O18665 76.0922 36.7518 47.8653 O.3 0.0 **** -0.32
18666 C18666 74.6958 36.6196 48.181 C.3 0.0 **** 0.107
18667 C18667 73.8935 36.8035 46.8804 C.3 0.0 **** -0.053
18668 C18668 74.6379 37.7801 45.9231 C.3 0.0 **** -0.106
18669 C18669 72.4545 37.1409 47.0903 C.2 0.0 **** 0.0
18670 C18670 71.9166 37.4446 48.3308 C.2 0.0 **** 0.0
18671 C18671 72.7515 37.5937 49.4962 C.2 0.0 **** 0.0
18672 C18672 74.2543 37.5211 49.3447 C.3 0.0 **** -0.053
18673 C18673 72.2277 37.9699 50.7207 C.2 0.0 **** 0.0
18674 C18674 70.805 38.1688 50.8667 C.2 0.0 **** 0.0
18675 C18675 69.9909 37.9729 49.71 C.2 0.0 **** 0.232
18676 C18676 70.4881 37.6445 48.4793 C.2 0.0 **** 0.0
18677 C18677 69.5713 37.504 47.2908 C.3 0.0 **** -0.106
18678 C18678 70.167 36.583 46.2254 C.3 0.0 **** -0.106
18679 C18679 71.5803 37.0515 45.8711 C.3 0.0 **** -0.106
18680 O18680 68.624 38.1544 49.7987 O.3 0.0 **** -0.464
18681 C18681 68.028 38.3994 51.012 C.2 0.0 **** 0.232
18682 C18682 68.7821 38.65 52.1727 C.2 0.0 **** 0.0
18683 C18683 70.2199 38.5641 52.0757 C.2 0.0 **** 0.0
18684 C18684 74.9434 37.1962 50.6489 C.2 0.0 **** 0.0
18685 C18685 74.4475 37.903 51.827 C.2 0.0 **** 0.0
18686 C18686 73.0859 38.2066 51.8849 C.2 0.0 **** 0.0
18687 C18687 75.3836 38.0728 52.9367 C.2 0.0 **** 0.0
18688 C18688 76.3825 37.1574 53.1017 C.2 0.0 **** 0.0
18689 C18689 76.6252 36.0762 52.1001 C.3 0.0 **** -0.106
18690 C18690 75.9644 36.3198 50.7788 C.2 0.0 **** -0.1268
18691 C18691 77.29 37.255 54.2961 C.3 0.0 **** -0.106
18692 C18692 76.5385 37.8588 55.4861 C.3 0.0 **** -0.106
18693 C18693 75.8925 39.1574 55.0694 C.2 0.0 **** 0.0
18694 C18694 75.3577 39.2544 53.829 C.2 0.0 **** 0.0
18695 C18695 74.8812 40.5727 53.2645 C.3 0.0 **** -0.106
18696 C18696 75.2138 41.7775 54.1519 C.3 0.0 **** -0.053
18697 C18697 74.9432 41.4185 55.6172 C.3 0.0 **** -0.106
18698 C18698 75.8785 40.2907 56.053 C.3 0.0 **** -0.106
18699 C18699 71.0917 38.8033 53.1892 C.2 0.0 **** -0.012
18700 C18700 72.4482 38.6111 53.0964 C.2 0.0 **** -0.1268
18701 C18701 68.0539 38.9047 53.3628 C.2 0.0 **** 0.0
18702 C18702 68.7378 39.2056 54.5949 C.2 0.0 **** -0.012
18703 S18703 70.4779 39.4183 54.7081 S.2 0.0 **** 0.024
18704 C18704 68.0408 39.4107 55.7581 C.2 0.0 **** -0.1268
18705 C18705 66.6236 39.3316 55.7924 C.2 0.0 **** 0.0
18706 C18706 65.9025 39.0673 54.5877 C.2 0.0 **** 0.0
18707 C18707 66.6145 38.8657 53.3733 C.2 0.0 **** 0.0
18708 C18708 64.4841 39.0213 54.6261 C.2 0.0 **** 0.0
18709 C18709 63.7959 39.1994 55.8654 C.2 0.0 **** 0.0
18710 C18710 64.5499 39.3944 57.0788 C.2 0.0 **** 0.0
18711 C18711 65.9469 39.5016 56.9962 C.2 0.0 **** -0.1268
18712 C18712 63.8482 39.4612 58.3189 C.2 0.0 **** 0.0
18713 C18713 62.4667 39.5009 58.3148 C.2 0.0 **** 0.042
18714 C18714 61.676 39.4291 57.129 C.2 0.0 **** 0.0
18715 C18715 62.3698 39.2087 55.9062 C.2 0.0 **** 0.0
18716 C18716 65.89 38.6151 52.1593 C.2 0.0 **** 0.0
18717 C18717 66.6505 38.3838 50.9943 C.2 0.0 **** -0.1268
18718 C18718 63.7534 38.7985 53.4125 C.2 0.0 **** 0.0
18719 C18719 64.4423 38.5974 52.179 C.2 0.0 **** 0.0
18720 C18720 61.6375 39.0112 54.6886 C.2 0.0 **** 0.0
18721 C18721 62.3273 38.7931 53.4675 C.2 0.0 **** 0.0
18722 C18722 60.2383 39.5416 57.1284 C.2 0.0 **** 0.0
18723 C18723 59.5272 39.2918 55.9168 C.2 0.0 **** 0.0
18724 C18724 60.2179 39.0221 54.7084 C.2 0.0 **** 0.0
18725 O18725 61.8487 39.5208 59.5466 O.3 0.0 **** -0.202
18726 C18726 62.2976 40.5559 60.4665 C.3 0.0 **** 0.107
18727 C18727 63.8411 40.6879 60.4667 C.3 0.0 **** -0.053
18728 C18728 64.4119 39.4638 59.7364 C.3 0.0 **** 0.107
18729 C18729 64.3852 40.8801 61.8875 C.3 0.0 **** -0.106
18730 C18730 63.4693 41.8478 62.6442 C.3 0.0 **** -0.106
18731 C18731 62.1309 41.1711 62.9557 C.3 0.0 **** 0.134
18732 C18732 61.694 40.1857 61.8202 C.3 0.0 **** -0.053
18733 C18733 60.1595 40.1311 61.7354 C.3 0.0 **** -0.106
18734 C18734 59.5203 40.1939 63.1216 C.3 0.0 **** -0.106
18735 C18735 59.8867 41.5371 63.8133 C.3 0.0 **** 0.081
18736 N18736 61.1098 42.1647 63.2903 N.3 0.0 **** -0.727
18737 C18737 63.6383 38.3846 51.0037 C.2 0.0 **** 0.042
18738 C18738 62.2546 38.3296 51.0704 C.2 0.0 **** 0.042
18739 C18739 61.56 38.5597 52.2861 C.2 0.0 **** 0.0
18740 O18740 61.4638 38.0755 49.9736 O.3 0.0 **** -0.202
18741 C18741 62.1665 37.546 48.8284 C.3 0.0 **** 0.107
18742 C18742 63.4137 38.3914 48.6317 C.3 0.0 **** 0.107
18743 O18743 64.2617 38.2313 49.7856 O.3 0.0 **** -0.202
18744 C18744 63.0861 39.8779 48.3793 C.3 0.0 **** -0.106
18745 C18745 61.7019 40.0821 47.7261 C.3 0.0 **** -0.106
18746 C18746 61.3566 38.9012 46.8118 C.3 0.0 **** -0.106
18747 C18747 61.2239 37.5966 47.6242 C.3 0.0 **** -0.106
18748 C18748 59.4667 38.7887 53.5092 C.2 0.0 **** 0.0
18749 C18749 60.1578 38.5521 52.321 C.2 0.0 **** -0.1268
18750 C18750 58.1047 39.3313 55.9279 C.2 0.0 **** 0.0
18751 C18751 57.3874 39.0611 54.7216 C.2 0.0 **** 0.042
18752 C18752 58.0371 38.8026 53.5465 C.2 0.0 **** -0.1268
18753 C18753 57.3971 39.6462 57.0977 C.2 0.0 **** 0.0
18754 C18754 58.1032 39.9723 58.263 C.2 0.0 **** 0.0
18755 C18755 59.4848 39.9152 58.2579 C.2 0.0 **** -0.1268
18756 O18756 56.0007 39.0674 54.7157 O.3 0.0 **** -0.0685
18757 C18757 55.2944 39.3038 55.8727 C.2 0.0 **** 0.0265
18758 C18758 55.9545 39.6226 57.0718 C.2 0.0 **** 0.0
18759 C18759 57.4005 40.4265 59.5148 C.3 0.0 **** -0.053
18760 C18760 55.8972 40.0679 59.5625 C.3 0.0 **** -0.053
18761 C18761 55.2177 39.8646 58.2343 C.2 0.0 **** 0.0
18762 C18762 55.0907 41.1025 60.3699 C.3 0.0 **** -0.053
18763 C18763 55.8788 41.5235 61.6049 C.3 0.0 **** -0.106
18764 C18764 57.1365 42.3169 61.1707 C.3 0.0 **** -0.106
18765 C18765 57.6061 41.9332 59.7547 C.3 0.0 **** -0.106
18766 C18766 53.8164 39.7995 58.2119 C.2 0.0 **** 0.0
18767 C18767 53.1509 39.4129 57.0141 C.2 0.0 **** 0.0
18768 C18768 53.8936 39.1767 55.8147 C.2 0.0 **** 0.0
18769 C18769 53.6892 40.5908 60.5603 C.2 0.0 **** 0.0
18770 C18770 53.0578 40.0441 59.4085 C.2 0.0 **** 0.0
18771 C18771 74.4704 43.0426 53.6742 C.3 0.0 **** -0.053
18772 C18772 72.972 43.0077 54.0018 C.3 0.0 **** -0.159
18773 C18773 75.1108 44.31 54.2496 C.3 0.0 **** -0.159
18774 O18774 65.8311 39.4727 59.9002 O.3 0.0 **** -0.57
18775 C18775 53.1923 38.7988 54.6233 C.2 0.0 **** -0.1268
18776 C18776 51.8354 38.6316 54.6344 C.2 0.0 **** -0.1268
18777 C18777 51.0646 38.8162 55.8298 C.2 0.0 **** 0.0
18778 C18778 51.742 39.2157 57.027 C.2 0.0 **** 0.0
18779 C18779 51.0072 39.3822 58.2307 C.2 0.0 **** 0.0
18780 C18780 49.6108 39.1556 58.2485 C.2 0.0 **** 0.0
18781 C18781 48.9406 38.7619 57.0454 C.2 0.0 **** 0.0
18782 C18782 49.6827 38.603 55.8641 C.2 0.0 **** -0.1268
18783 C18783 47.5296 38.537 57.0831 C.2 0.0 **** -0.1268
18784 C18784 46.8234 38.6916 58.2465 C.2 0.0 **** -0.1268
18785 C18785 47.4705 39.0862 59.4572 C.2 0.0 **** 0.0
18786 C18786 48.8709 39.323 59.4564 C.2 0.0 **** 0.0
18787 C18787 49.5265 39.7309 60.6574 C.2 0.0 **** 0.0
18788 C18788 50.93 39.9689 60.6337 C.2 0.0 **** 0.0
18789 C18789 51.6703 39.7926 59.4299 C.2 0.0 **** 0.0
18790 C18790 48.7846 39.9153 61.8618 C.2 0.0 **** 0.0
18791 C18791 47.388 39.6469 61.8285 C.2 0.0 **** -0.1268
18792 C18792 46.7598 39.2459 60.6679 C.2 0.0 **** -0.1268
18793 C18793 52.9787 40.7159 61.733 C.2 0.0 **** -0.1268
18794 C18794 51.6036 40.3736 61.8188 C.2 0.0 **** 0.0
18795 C18795 49.4845 40.3202 63.0637 C.2 0.0 **** 0.052
18796 C18796 50.8769 40.4782 63.0453 C.2 0.0 **** 0.0
18797 C18797 51.6594 40.7585 64.3089 C.3 0.0 **** -0.106
18798 C18798 50.9296 40.2723 65.555 C.3 0.0 **** -0.106
18799 C18799 49.5517 40.9124 65.5846 C.3 0.0 **** -0.086
18800 C18800 48.7455 40.673 64.3141 C.2 0.0 **** 0.347
18801 O18801 47.5262 40.8417 64.3655 O.2 0.0 **** -0.419
18802 H18802 75.4838 43.1437 47.4403 H 0.0 **** 0.053
18803 H18803 74.6288 41.58 47.5325 H 0.0 **** 0.053
18804 H18804 77.5944 42.1242 47.7503 H 0.0 **** 0.053
18805 H18805 76.6441 40.7717 48.3831 H 0.0 **** 0.053
18806 H18806 77.7622 41.1858 45.5782 H 0.0 **** 0.053
18807 H18807 76.5061 39.1925 44.8323 H 0.0 **** 0.053
18808 H18808 74.1032 40.5289 45.3254 H 0.0 **** 0.053
18809 H18809 75.2641 40.9755 44.0371 H 0.0 **** 0.053
18810 H18810 74.7663 39.4212 47.2967 H 0.0 **** 0.053
18811 H18811 76.5576 38.6458 48.5591 H 0.0 **** 0.053
18812 H18812 77.77 37.5692 45.9756 H 0.0 **** 0.053
18813 H18813 78.5326 37.4596 47.5691 H 0.0 **** 0.053
18814 H18814 79.2356 39.4737 46.0547 H 0.0 **** 0.053
18815 H18815 78.8457 39.8376 47.737 H 0.0 **** 0.053
18816 H18816 74.5854 35.5801 48.5232 H 0.0 **** 0.053
18817 H18817 73.9044 35.8257 46.3618 H 0.0 **** 0.053
18818 H18818 73.9216 38.2696 45.2468 H 0.0 **** 0.053
18819 H18819 75.332 37.2024 45.2925 H 0.0 **** 0.053
18820 H18820 74.5451 38.564 49.105 H 0.0 **** 0.053
18821 H18821 68.5857 37.1435 47.6188 H 0.0 **** 0.053
18822 H18822 69.3991 38.5029 46.8472 H 0.0 **** 0.053
18823 H18823 69.5258 36.5676 45.3308 H 0.0 **** 0.053
18824 H18824 70.2168 35.5545 46.6181 H 0.0 **** 0.053
18825 H18825 71.5155 38.0409 45.3756 H 0.0 **** 0.053
18826 H18826 72.0477 36.3771 45.1338 H 0.0 **** 0.053
18827 H18827 76.288 35.0993 52.5118 H 0.0 **** 0.053
18828 H18828 77.7168 35.9417 51.9698 H 0.0 **** 0.053
18829 H18829 76.337 35.7661 49.9186 H 0.0 **** 0.1268
18830 H18830 77.6928 36.2597 54.543 H 0.0 **** 0.053
18831 H18831 78.1596 37.895 54.043 H 0.0 **** 0.053
18832 H18832 77.2158 38.0285 56.3376 H 0.0 **** 0.053
18833 H18833 75.7641 37.1446 55.8267 H 0.0 **** 0.053
18834 H18834 75.3406 40.707 52.2689 H 0.0 **** 0.053
18835 H18835 73.7975 40.5469 53.0736 H 0.0 **** 0.053
18836 H18836 76.2978 41.9773 54.0603 H 0.0 **** 0.053
18837 H18837 73.8987 41.0811 55.718 H 0.0 **** 0.053
18838 H18838 75.0689 42.2965 56.2693 H 0.0 **** 0.053
18839 H18839 75.5855 39.8986 57.0441 H 0.0 **** 0.053
18840 H18840 76.9067 40.6803 56.1857 H 0.0 **** 0.053
18841 H18841 73.0615 38.7345 53.9887 H 0.0 **** 0.1268
18842 H18842 68.57 39.6305 56.6881 H 0.0 **** 0.1268
18843 H18843 66.5232 39.7541 57.8807 H 0.0 **** 0.1268
18844 H18844 66.1712 38.1777 50.0486 H 0.0 **** 0.1268
18845 H18845 61.8463 41.5061 60.1246 H 0.0 **** 0.053
18846 H18846 64.1167 41.5734 59.872 H 0.0 **** 0.053
18847 H18847 64.0016 38.5672 60.2454 H 0.0 **** 0.053
18848 H18848 64.4215 39.9092 62.4108 H 0.0 **** 0.053
18849 H18849 65.4175 41.2488 61.8362 H 0.0 **** 0.053
18850 H18850 63.2865 42.7388 62.0166 H 0.0 **** 0.053
18851 H18851 63.9206 42.2098 63.5781 H 0.0 **** 0.053
18852 H18852 62.266 40.5624 63.8661 H 0.0 **** 0.053
18853 H18853 62.071 39.1803 62.0732 H 0.0 **** 0.053
18854 H18854 59.8088 40.9958 61.1461 H 0.0 **** 0.053
18855 H18855 59.8441 39.2337 61.186 H 0.0 **** 0.053
18856 H18856 59.8824 39.3449 63.7231 H 0.0 **** 0.053
18857 H18857 58.4259 40.0894 63.0493 H 0.0 **** 0.053
18858 H18858 60.019 41.3725 64.896 H 0.0 **** 0.053
18859 H18859 59.0683 42.2634 63.6993 H 0.0 **** 0.053
18860 H18860 60.8911 42.7141 62.4582 H 0.0 **** 0.353
18861 H18861 62.4652 36.511 49.064 H 0.0 **** 0.053
18862 H18862 64.0038 37.9718 47.8046 H 0.0 **** 0.053
18863 H18863 63.1303 40.4053 49.3432 H 0.0 **** 0.053
18864 H18864 63.8791 40.2988 47.744 H 0.0 **** 0.053
18865 H18865 61.6943 41.0259 47.1615 H 0.0 **** 0.053
18866 H18866 60.9347 40.1629 48.5102 H 0.0 **** 0.053
18867 H18867 62.1527 38.7899 46.0558 H 0.0 **** 0.053
18868 H18868 60.4241 39.089 46.2595 H 0.0 **** 0.053
18869 H18869 61.4192 36.7244 46.9826 H 0.0 **** 0.053
18870 H18870 60.2001 37.4854 48.0133 H 0.0 **** 0.053
18871 H18871 59.6019 38.364 51.4038 H 0.0 **** 0.1268
18872 H18872 57.47 38.6111 52.635 H 0.0 **** 0.1268
18873 H18873 60.004 40.1558 59.1722 H 0.0 **** 0.1268
18874 H18874 57.8822 39.919 60.3645 H 0.0 **** 0.053
18875 H18875 55.8014 39.1054 60.1036 H 0.0 **** 0.053
18876 H18876 54.9838 41.9967 59.7231 H 0.0 **** 0.053
18877 H18877 56.1646 40.6164 62.1643 H 0.0 **** 0.053
18878 H18878 55.2658 42.1364 62.2809 H 0.0 **** 0.053
18879 H18879 57.9491 42.126 61.8858 H 0.0 **** 0.053
18880 H18880 56.9264 43.397 61.2068 H 0.0 **** 0.053
18881 H18881 58.6684 42.1851 59.6157 H 0.0 **** 0.053
18882 H18882 57.0512 42.4952 58.9868 H 0.0 **** 0.053
18883 H18883 74.5792 43.0769 52.5747 H 0.0 **** 0.053
18884 H18884 72.4544 43.8559 53.5292 H 0.0 **** 0.053
18885 H18885 72.8132 43.085 55.0885 H 0.0 **** 0.053
18886 H18886 72.4872 42.081 53.6589 H 0.0 **** 0.053
18887 H18887 76.1802 44.3664 53.992 H 0.0 **** 0.053
18888 H18888 75.0257 44.3261 55.3479 H 0.0 **** 0.053
18889 H18889 74.6148 45.2142 53.8653 H 0.0 **** 0.053
18890 H18890 66.1645 38.6219 59.5759 H 0.0 **** 0.41
18891 H18891 53.7638 38.6384 53.7093 H 0.0 **** 0.1268
18892 H18892 51.3101 38.3393 53.7235 H 0.0 **** 0.1268
18893 H18893 49.1674 38.297 54.9509 H 0.0 **** 0.1268
18894 H18894 47.0279 38.2363 56.1615 H 0.0 **** 0.1268
18895 H18895 45.7469 38.5114 58.2707 H 0.0 **** 0.1268
18896 H18896 46.8148 39.7758 62.7403 H 0.0 **** 0.1268
18897 H18897 45.6866 39.0438 60.6767 H 0.0 **** 0.1268
18898 H18898 53.48 41.1303 62.6035 H 0.0 **** 0.1268
18899 H18899 52.6418 40.2707 64.2397 H 0.0 **** 0.053
18900 H18900 51.8551 41.8441 64.395 H 0.0 **** 0.053
18901 H18901 51.5038 40.5184 66.4611 H 0.0 **** 0.053
18902 H18902 50.8332 39.1751 65.511 H 0.0 **** 0.053
18903 H18903 49.6544 42.0089 65.6844 H 0.0 **** 0.053
18904 H18904 48.9308 40.5775 66.4276 H 0.0 **** 0.053
18905 C18905 -7.64524 49.2435 25.3889 C.3 0.0 **** 0.054
18906 C18906 -7.74488 49.3617 23.8499 C.3 0.0 **** -0.106
18907 C18907 -7.52043 47.9889 23.1828 C.3 0.0 **** -0.053
18908 C18908 -6.37921 47.2596 23.9103 C.3 0.0 **** -0.053
18909 C18909 -6.77011 47.0517 25.3966 C.3 0.0 **** 0.054
18910 O18910 -7.84856 47.8939 25.8214 O.3 0.0 **** -0.32
18911 C18911 -5.04633 48.0232 23.7617 C.3 0.0 **** -0.053
18912 C18912 -4.88488 48.6657 22.3543 C.3 0.0 **** 0.107
18913 C18913 -5.74061 47.9463 21.3256 C.3 0.0 **** -0.106
18914 C18914 -7.23459 48.1018 21.6635 C.3 0.0 **** -0.106
18915 O18915 -3.52469 48.6137 21.8968 O.3 0.0 **** -0.32
18916 C18916 -2.57608 48.9775 22.914 C.3 0.0 **** 0.107
18917 C18917 -2.49387 47.82 23.9251 C.3 0.0 **** -0.053
18918 C18918 -3.86617 47.0905 24.0198 C.3 0.0 **** -0.106
18919 C18919 -1.91863 48.2018 25.2487 C.2 0.0 **** 0.0
18920 C18920 -1.64877 49.5115 25.6125 C.2 0.0 **** 0.0
18921 C18921 -2.04145 50.6196 24.7786 C.2 0.0 **** 0.0
18922 C18922 -2.85665 50.3562 23.5325 C.3 0.0 **** -0.053
18923 C18923 -1.84081 51.931 25.1727 C.2 0.0 **** 0.0
18924 C18924 -1.17383 52.2154 26.4213 C.2 0.0 **** 0.0
18925 C18925 -0.753656 51.1027 27.2114 C.2 0.0 **** 0.232
18926 C18926 -0.978836 49.799 26.866 C.2 0.0 **** 0.0
18927 C18927 -0.550855 48.6761 27.7764 C.3 0.0 **** -0.106
18928 C18928 -0.324855 47.3775 27.0015 C.3 0.0 **** -0.106
18929 C18929 -1.56119 47.0593 26.1573 C.3 0.0 **** -0.106
18930 O18930 -0.113779 51.3238 28.416 O.3 0.0 **** -0.464
18931 C18931 0.23158 52.5963 28.8016 C.2 0.0 **** 0.232
18932 C18932 -0.198216 53.7306 28.0893 C.2 0.0 **** 0.0
18933 C18933 -0.956648 53.5207 26.879 C.2 0.0 **** 0.0
18934 C18934 -2.76049 51.4894 22.5386 C.2 0.0 **** 0.0
18935 C18935 -2.85052 52.8368 23.0951 C.2 0.0 **** 0.0
18936 C18936 -2.31758 53.0583 24.3665 C.2 0.0 **** 0.0
18937 C18937 -3.32661 53.8896 22.1998 C.2 0.0 **** 0.0
18938 C18938 -3.12261 53.7544 20.857 C.2 0.0 **** 0.0
18939 C18939 -2.55704 52.5004 20.2747 C.3 0.0 **** -0.106
18940 C18940 -2.60644 51.3285 21.2053 C.2 0.0 **** -0.1268
18941 C18941 -3.50967 54.8728 19.9303 C.3 0.0 **** -0.106
18942 C18942 -3.37031 56.2227 20.6399 C.3 0.0 **** -0.106
18943 C18943 -4.12583 56.1875 21.9457 C.2 0.0 **** 0.0
18944 C18944 -4.1141 55.0488 22.6786 C.2 0.0 **** 0.0
18945 C18945 -5.0065 54.8644 23.8842 C.3 0.0 **** -0.106
18946 C18946 -6.016 56.001 24.0812 C.3 0.0 **** -0.053
18947 C18947 -5.32329 57.3445 23.8275 C.3 0.0 **** -0.106
18948 C18948 -4.86561 57.422 22.3711 C.3 0.0 **** -0.106
18949 C18949 -1.45183 54.5988 26.0729 C.2 0.0 **** -0.012
18950 C18950 -2.07781 54.3717 24.8719 C.2 0.0 **** -0.1268
18951 C18951 0.209988 54.9919 28.5933 C.2 0.0 **** 0.0
18952 C18952 -0.208763 56.2122 27.9517 C.2 0.0 **** -0.012
18953 S18953 -1.3431 56.2602 26.6113 S.2 0.0 **** 0.024
18954 C18954 0.217345 57.4331 28.4089 C.2 0.0 **** -0.1268
18955 C18955 1.08678 57.5397 29.5262 C.2 0.0 **** 0.0
18956 C18956 1.50158 56.3573 30.2127 C.2 0.0 **** 0.0
18957 C18957 1.05545 55.0869 29.755 C.2 0.0 **** 0.0
18958 C18958 2.34564 56.4764 31.3479 C.2 0.0 **** 0.0
18959 C18959 2.80156 57.7633 31.7686 C.2 0.0 **** 0.0
18960 C18960 2.42567 58.9346 31.0165 C.2 0.0 **** 0.0
18961 C18961 1.53675 58.7896 29.9401 C.2 0.0 **** -0.1268
18962 C18962 2.97927 60.1954 31.3887 C.2 0.0 **** 0.0
18963 C18963 3.726 60.2923 32.5476 C.2 0.0 **** 0.042
18964 C18964 4.02779 59.181 33.3904 C.2 0.0 **** 0.0
18965 C18965 3.60567 57.8989 32.9393 C.2 0.0 **** 0.0
18966 C18966 1.45948 53.8993 30.4533 C.2 0.0 **** 0.0
18967 C18967 1.01849 52.666 29.9303 C.2 0.0 **** -0.1268
18968 C18968 2.73077 55.2964 32.0661 C.2 0.0 **** 0.0
18969 C18969 2.29408 54.0092 31.6315 C.2 0.0 **** 0.0
18970 C18970 3.97063 56.7215 33.6731 C.2 0.0 **** 0.0
18971 C18971 3.54925 55.4421 33.2262 C.2 0.0 **** 0.0
18972 C18972 4.74802 59.3031 34.6337 C.2 0.0 **** 0.0
18973 C18973 5.14426 58.1171 35.321 C.2 0.0 **** 0.0
18974 C18974 4.76625 56.8369 34.8434 C.2 0.0 **** 0.0
18975 O18975 4.26876 61.5279 32.8275 O.3 0.0 **** -0.202
18976 C18976 3.33639 62.6458 32.832 C.3 0.0 **** 0.107
18977 C18977 2.3588 62.5774 31.6321 C.3 0.0 **** -0.053
18978 C18978 2.90092 61.5282 30.6508 C.3 0.0 **** 0.107
18979 C18979 2.13899 63.9621 31.0109 C.3 0.0 **** -0.106
18980 C18980 2.00328 64.9953 32.1343 C.3 0.0 **** -0.106
18981 C18981 3.35817 65.2151 32.814 C.3 0.0 **** 0.134
18982 C18982 4.20697 63.9007 32.8682 C.3 0.0 **** -0.053
18983 C18983 5.10243 63.9061 34.1183 C.3 0.0 **** -0.106
18984 C18984 5.6489 65.3029 34.4086 C.3 0.0 **** -0.106
18985 C18985 4.47517 66.2828 34.6897 C.3 0.0 **** 0.081
18986 N18986 3.18884 65.854 34.1198 N.3 0.0 **** -0.727
18987 C18987 2.71909 52.8736 32.4079 C.2 0.0 **** 0.042
18988 C18988 3.55561 53.0153 33.5043 C.2 0.0 **** 0.042
18989 C18989 3.96909 54.293 33.9626 C.2 0.0 **** 0.0
18990 O18990 4.01991 51.9444 34.2326 O.3 0.0 **** -0.202
18991 C18991 3.85573 50.6595 33.5941 C.3 0.0 **** 0.107
18992 C18992 2.43556 50.5988 33.0571 C.3 0.0 **** 0.107
18993 O18993 2.28327 51.6175 32.0496 O.3 0.0 **** -0.202
18994 C18994 1.37661 50.7482 34.1694 C.3 0.0 **** -0.106
18995 C18995 1.8812 50.2594 35.5444 C.3 0.0 **** -0.106
18996 C18996 2.87392 49.1037 35.3758 C.3 0.0 **** -0.106
18997 C18997 4.14124 49.5709 34.6308 C.3 0.0 **** -0.106
18998 C18998 5.174 55.6696 35.5699 C.2 0.0 **** 0.0
18999 C18999 4.77239 54.4172 35.1057 C.2 0.0 **** -0.1268
19000 C19000 5.91695 58.2314 36.5106 C.2 0.0 **** 0.0
19001 C19001 6.33412 57.0458 37.1911 C.2 0.0 **** 0.042
19002 C19002 5.97579 55.8033 36.7467 C.2 0.0 **** -0.1268
19003 C19003 6.26149 59.4867 37.0338 C.2 0.0 **** 0.0
19004 C19004 5.79846 60.6474 36.4004 C.2 0.0 **** 0.0
19005 C19005 5.06415 60.5373 35.2339 C.2 0.0 **** -0.1268
19006 O19006 7.11043 57.1329 38.3367 O.3 0.0 **** -0.0685
19007 C19007 7.51545 58.3562 38.8195 C.2 0.0 **** 0.0265
19008 C19008 7.09004 59.5507 38.2134 C.2 0.0 **** 0.0
19009 C19009 6.04168 62.0165 36.9779 C.3 0.0 **** -0.053
19010 C19010 7.18772 62.0719 38.0144 C.3 0.0 **** -0.053
19011 C19011 7.5087 60.7828 38.7231 C.2 0.0 **** 0.0
19012 C19012 6.94483 63.1636 39.0736 C.3 0.0 **** -0.053
19013 C19013 6.37085 64.41 38.4098 C.3 0.0 **** -0.106
19014 C19014 4.94617 64.1061 37.8827 C.3 0.0 **** -0.106
19015 C19015 4.74952 62.6114 37.5665 C.3 0.0 **** -0.106
19016 C19016 8.34822 60.8371 39.846 C.2 0.0 **** 0.0
19017 C19017 8.83155 59.6272 40.42 C.2 0.0 **** 0.0
19018 C19018 8.39865 58.3606 39.9157 C.2 0.0 **** 0.0
19019 C19019 8.18151 63.3118 39.9169 C.2 0.0 **** 0.0
19020 C19020 8.78282 62.1041 40.3684 C.2 0.0 **** 0.0
19021 C19021 -6.69991 55.9048 25.4611 C.3 0.0 **** -0.053
19022 C19022 -5.77029 56.3112 26.612 C.3 0.0 **** -0.159
19023 C19023 -7.98682 56.7354 25.4988 C.3 0.0 **** -0.159
19024 O19024 2.12089 61.5953 29.4558 O.3 0.0 **** -0.57
19025 C19025 8.8963 57.1614 40.5226 C.2 0.0 **** -0.1268
19026 C19026 9.79888 57.2197 41.5479 C.2 0.0 **** -0.1268
19027 C19027 10.2887 58.4714 42.0486 C.2 0.0 **** 0.0
19028 C19028 9.78805 59.6831 41.4717 C.2 0.0 **** 0.0
19029 C19029 10.2736 60.9359 41.9315 C.2 0.0 **** 0.0
19030 C19030 11.2476 60.9884 42.9562 C.2 0.0 **** 0.0
19031 C19031 11.7385 59.7719 43.5314 C.2 0.0 **** 0.0
19032 C19032 11.2465 58.5421 43.0654 C.2 0.0 **** -0.1268
19033 C19033 12.7227 59.8449 44.5652 C.2 0.0 **** -0.1268
19034 C19034 13.1948 61.0539 45.0029 C.2 0.0 **** -0.1268
19035 C19035 12.7175 62.2795 44.4458 C.2 0.0 **** 0.0
19036 C19036 11.7359 62.2457 43.4198 C.2 0.0 **** 0.0
19037 C19037 11.2414 63.4647 42.8648 C.2 0.0 **** 0.0
19038 C19038 10.2532 63.4089 41.8414 C.2 0.0 **** 0.0
19039 C19039 9.77246 62.1532 41.3718 C.2 0.0 **** 0.0
19040 C19040 11.7166 64.7231 43.3398 C.2 0.0 **** 0.0
19041 C19041 12.7158 64.7158 44.3523 C.2 0.0 **** -0.1268
19042 C19042 13.1961 63.5357 44.8807 C.2 0.0 **** -0.1268
19043 C19043 8.6814 64.5227 40.3406 C.2 0.0 **** -0.1268
19044 C19044 9.74844 64.6106 41.2728 C.2 0.0 **** 0.0
19045 C19045 11.1998 65.9393 42.7464 C.2 0.0 **** 0.052
19046 C19046 10.2834 65.8693 41.6884 C.2 0.0 **** 0.0
19047 C19047 9.83094 67.1085 40.9486 C.3 0.0 **** -0.106
19048 C19048 10.8481 68.2388 41.0476 C.3 0.0 **** -0.106
19049 C19049 11.1136 68.5181 42.5175 C.3 0.0 **** -0.086
19050 C19050 11.5451 67.2841 43.3 C.2 0.0 **** 0.347
19051 O19051 12.1056 67.4562 44.3836 O.2 0.0 **** -0.419
19052 H19052 -8.41713 49.8415 25.8922 H 0.0 **** 0.053
19053 H19053 -6.65583 49.5958 25.7432 H 0.0 **** 0.053
19054 H19054 -8.73161 49.7471 23.5507 H 0.0 **** 0.053
19055 H19055 -6.99496 50.0827 23.4879 H 0.0 **** 0.053
19056 H19056 -8.43893 47.4032 23.3336 H 0.0 **** 0.053
19057 H19057 -6.24735 46.2669 23.4483 H 0.0 **** 0.053
19058 H19058 -5.8868 47.2356 26.0434 H 0.0 **** 0.053
19059 H19059 -7.12243 46.0264 25.5767 H 0.0 **** 0.053
19060 H19060 -5.02981 48.8192 24.5234 H 0.0 **** 0.053
19061 H19061 -5.19881 49.7269 22.39 H 0.0 **** 0.053
19062 H19062 -5.45409 46.8822 21.3195 H 0.0 **** 0.053
19063 H19063 -5.52391 48.3439 20.3237 H 0.0 **** 0.053
19064 H19064 -7.806 47.3383 21.1146 H 0.0 **** 0.053
19065 H19065 -7.59289 49.08 21.3029 H 0.0 **** 0.053
19066 H19066 -1.61571 49.0555 22.3835 H 0.0 **** 0.053
19067 H19067 -1.79865 47.0738 23.4949 H 0.0 **** 0.053
19068 H19068 -3.97279 46.6066 25.002 H 0.0 **** 0.053
19069 H19069 -3.89867 46.2912 23.2627 H 0.0 **** 0.053
19070 H19070 -3.90406 50.3663 23.8965 H 0.0 **** 0.053
19071 H19071 0.352413 48.9677 28.3314 H 0.0 **** 0.053
19072 H19072 -1.33632 48.5087 28.5376 H 0.0 **** 0.053
19073 H19073 -0.103287 46.5517 27.6947 H 0.0 **** 0.053
19074 H19074 0.544861 47.4964 26.3352 H 0.0 **** 0.053
19075 H19075 -2.40842 46.8324 26.8351 H 0.0 **** 0.053
19076 H19076 -1.40593 46.1477 25.5559 H 0.0 **** 0.053
19077 H19077 -1.50744 52.6761 19.9508 H 0.0 **** 0.053
19078 H19078 -3.08662 52.2691 19.3299 H 0.0 **** 0.053
19079 H19079 -2.51626 50.3346 20.7702 H 0.0 **** 0.1268
19080 H19080 -2.89089 54.8359 19.0195 H 0.0 **** 0.053
19081 H19081 -4.56054 54.7311 19.6054 H 0.0 **** 0.053
19082 H19082 -3.74424 57.0431 20.0076 H 0.0 **** 0.053
19083 H19083 -2.29836 56.4242 20.8297 H 0.0 **** 0.053
19084 H19084 -5.54409 53.906 23.7711 H 0.0 **** 0.053
19085 H19085 -4.4067 54.7449 24.7993 H 0.0 **** 0.053
19086 H19086 -6.80466 55.8911 23.3135 H 0.0 **** 0.053
19087 H19087 -4.44417 57.4263 24.4875 H 0.0 **** 0.053
19088 H19088 -5.99209 58.1857 24.0662 H 0.0 **** 0.053
19089 H19089 -4.21447 58.3005 22.2104 H 0.0 **** 0.053
19090 H19090 -5.73786 57.5798 21.7072 H 0.0 **** 0.053
19091 H19091 -2.37129 55.2241 24.2597 H 0.0 **** 0.1268
19092 H19092 -0.100159 58.3515 27.91 H 0.0 **** 0.1268
19093 H19093 1.15848 59.6693 29.4287 H 0.0 **** 0.1268
19094 H19094 1.29403 51.7325 30.3984 H 0.0 **** 0.1268
19095 H19095 2.7651 62.5828 33.777 H 0.0 **** 0.053
19096 H19096 1.38655 62.2062 31.9936 H 0.0 **** 0.053
19097 H19097 3.94354 61.8228 30.4109 H 0.0 **** 0.053
19098 H19098 2.99206 64.2224 30.3611 H 0.0 **** 0.053
19099 H19099 1.24996 63.9367 30.3681 H 0.0 **** 0.053
19100 H19100 1.27958 64.6239 32.8823 H 0.0 **** 0.053
19101 H19101 1.61554 65.9583 31.7747 H 0.0 **** 0.053
19102 H19102 3.92902 65.9334 32.201 H 0.0 **** 0.053
19103 H19103 4.84956 63.8688 31.972 H 0.0 **** 0.053
19104 H19104 4.50124 63.5761 34.983 H 0.0 **** 0.053
19105 H19105 5.91155 63.1717 34.0056 H 0.0 **** 0.053
19106 H19106 6.23311 65.6479 33.5405 H 0.0 **** 0.053
19107 H19107 6.33849 65.279 35.2675 H 0.0 **** 0.053
19108 H19108 4.71829 67.2789 34.2826 H 0.0 **** 0.053
19109 H19109 4.33081 66.4082 35.7731 H 0.0 **** 0.053
19110 H19110 2.72648 65.202 34.7546 H 0.0 **** 0.353
19111 H19111 4.56348 50.6086 32.7499 H 0.0 **** 0.053
19112 H19112 2.30035 49.656 32.5082 H 0.0 **** 0.053
19113 H19113 1.0901 51.8083 34.2272 H 0.0 **** 0.053
19114 H19114 0.480692 50.1876 33.8648 H 0.0 **** 0.053
19115 H19115 1.02671 49.9505 36.1642 H 0.0 **** 0.053
19116 H19116 2.38259 51.0876 36.0666 H 0.0 **** 0.053
19117 H19117 2.38561 48.2931 34.8082 H 0.0 **** 0.053
19118 H19118 3.15415 48.6784 36.3507 H 0.0 **** 0.053
19119 H19119 4.62609 48.7202 34.129 H 0.0 **** 0.053
19120 H19120 4.87516 49.9864 35.3383 H 0.0 **** 0.053
19121 H19121 5.08151 53.5207 35.641 H 0.0 **** 0.1268
19122 H19122 6.29496 54.9121 37.2882 H 0.0 **** 0.1268
19123 H19123 4.73286 61.4465 34.7574 H 0.0 **** 0.1268
19124 H19124 6.32477 62.6787 36.1455 H 0.0 **** 0.053
19125 H19125 8.11158 62.3602 37.4744 H 0.0 **** 0.053
19126 H19126 6.17253 62.7695 39.7646 H 0.0 **** 0.053
19127 H19127 7.03773 64.7047 37.5818 H 0.0 **** 0.053
19128 H19128 6.33697 65.2566 39.1102 H 0.0 **** 0.053
19129 H19129 4.76387 64.6957 36.9731 H 0.0 **** 0.053
19130 H19130 4.1984 64.4249 38.6251 H 0.0 **** 0.053
19131 H19131 3.92298 62.4703 36.8537 H 0.0 **** 0.053
19132 H19132 4.47764 62.0468 38.4723 H 0.0 **** 0.053
19133 H19133 -6.97664 54.8441 25.6035 H 0.0 **** 0.053
19134 H19134 -6.24408 56.1009 27.5826 H 0.0 **** 0.053
19135 H19135 -5.55775 57.3908 26.5729 H 0.0 **** 0.053
19136 H19136 -4.80671 55.7801 26.5829 H 0.0 **** 0.053
19137 H19137 -8.67981 56.4303 24.6989 H 0.0 **** 0.053
19138 H19138 -7.76445 57.806 25.3642 H 0.0 **** 0.053
19139 H19139 -8.50292 56.6229 26.4644 H 0.0 **** 0.053
19140 H19140 2.56469 61.0473 28.7903 H 0.0 **** 0.41
19141 H19141 8.54744 56.2008 40.1441 H 0.0 **** 0.1268
19142 H19142 10.176 56.3012 42.0011 H 0.0 **** 0.1268
19143 H19143 11.6286 57.6174 43.5034 H 0.0 **** 0.1268
19144 H19144 13.0915 58.9125 44.9966 H 0.0 **** 0.1268
19145 H19145 13.9519 61.1031 45.7879 H 0.0 **** 0.1268
19146 H19146 13.0907 65.6666 44.7157 H 0.0 **** 0.1268
19147 H19147 13.9665 63.5644 45.6543 H 0.0 **** 0.1268
19148 H19148 8.21235 65.4343 39.9801 H 0.0 **** 0.1268
19149 H19149 9.65889 66.8551 39.8931 H 0.0 **** 0.053
19150 H19150 8.85826 67.4503 41.3503 H 0.0 **** 0.053
19151 H19151 10.48 69.1378 40.5303 H 0.0 **** 0.053
19152 H19152 11.7814 67.9283 40.5497 H 0.0 **** 0.053
19153 H19153 10.187 68.882 42.9989 H 0.0 **** 0.053
19154 H19154 11.8784 69.2896 42.6859 H 0.0 **** 0.053
19155 C19155 21.9506 71.5567 55.9682 C.3 0.0 **** 0.054
19156 C19156 20.4347 71.2714 55.855 C.3 0.0 **** -0.106
19157 C19157 19.8493 70.8854 57.2292 C.3 0.0 **** -0.053
19158 C19158 20.8401 69.959 57.9528 C.3 0.0 **** -0.053
19159 C19159 22.1835 70.7063 58.1573 C.3 0.0 **** 0.054
19160 O19160 22.3242 71.8582 57.317 O.3 0.0 **** -0.32
19161 C19161 21.0243 68.6326 57.1857 C.3 0.0 **** -0.053
19162 C19162 19.6986 68.1281 56.5471 C.3 0.0 **** 0.107
19163 C19163 18.4923 68.7001 57.2722 C.3 0.0 **** -0.106
19164 C19164 18.4481 70.2315 57.1201 C.3 0.0 **** -0.106
19165 O19165 19.5933 66.6968 56.5965 O.3 0.0 **** -0.32
19166 C19166 20.8128 66.0312 56.2267 C.3 0.0 **** 0.107
19167 C19167 21.817 66.2002 57.3809 C.3 0.0 **** -0.053
19168 C19168 21.5708 67.5515 58.1142 C.3 0.0 **** -0.106
19169 C19169 23.2406 65.9724 56.9932 C.2 0.0 **** 0.0
19170 C19170 23.6551 65.8041 55.6816 C.2 0.0 **** 0.0
19171 C19171 22.7457 65.9798 54.5774 C.2 0.0 **** 0.0
19172 C19172 21.3372 66.4595 54.847 C.3 0.0 **** -0.053
19173 C19173 23.1723 65.886 53.2641 C.2 0.0 **** 0.0
19174 C19174 24.5464 65.5506 52.9738 C.2 0.0 **** 0.0
19175 C19175 25.4203 65.3374 54.0829 C.2 0.0 **** 0.232
19176 C19176 25.0346 65.467 55.3883 C.2 0.0 **** 0.0
19177 C19177 26.027 65.2761 56.5071 C.3 0.0 **** -0.106
19178 C19178 25.3373 64.8621 57.8075 C.3 0.0 **** -0.106
19179 C19179 24.2137 65.8494 58.1319 C.3 0.0 **** -0.106
19180 O19180 26.7451 65.0171 53.8562 O.3 0.0 **** -0.464
19181 C19181 27.1997 64.781 52.5815 C.2 0.0 **** 0.232
19182 C19182 26.3987 65.0228 51.4507 C.2 0.0 **** 0.0
19183 C19183 25.0388 65.4566 51.6665 C.2 0.0 **** 0.0
19184 C19184 20.3941 66.1219 53.7166 C.2 0.0 **** 0.0
19185 C19185 20.9058 66.3502 52.3677 C.2 0.0 **** 0.0
19186 C19186 22.2689 66.1501 52.1408 C.2 0.0 **** 0.0
19187 C19187 19.9164 66.5913 51.3191 C.2 0.0 **** 0.0
19188 C19188 18.6668 66.06 51.4579 C.2 0.0 **** 0.0
19189 C19189 18.2479 65.3649 52.7119 C.3 0.0 **** -0.106
19190 C19190 19.1413 65.6413 53.8811 C.2 0.0 **** -0.1268
19191 C19191 17.6688 66.2071 50.3435 C.3 0.0 **** -0.106
19192 C19192 18.3858 66.2512 48.991 C.3 0.0 **** -0.106
19193 C19193 19.4632 67.3072 49.0244 C.2 0.0 **** 0.0
19194 C19194 20.1803 67.4754 50.1608 C.2 0.0 **** 0.0
19195 C19195 21.1273 68.6388 50.3441 C.3 0.0 **** -0.106
19196 C19196 21.0632 69.668 49.2099 C.3 0.0 **** -0.053
19197 C19197 20.9845 68.9368 47.8651 C.3 0.0 **** -0.106
19198 C19198 19.6871 68.132 47.7908 C.3 0.0 **** -0.106
19199 C19199 24.131 65.7384 50.5924 C.2 0.0 **** -0.012
19200 C19200 22.8131 66.0461 50.8251 C.2 0.0 **** -0.1268
19201 C19201 26.9836 64.7552 50.1867 C.2 0.0 **** 0.0
19202 C19202 26.2536 65.0041 48.9695 C.2 0.0 **** -0.012
19203 S19203 24.6733 65.7702 48.9291 S.2 0.0 **** 0.024
19204 C19204 26.7977 64.7074 47.746 C.2 0.0 **** -0.1268
19205 C19205 28.0955 64.1429 47.6333 C.2 0.0 **** 0.0
19206 C19206 28.8679 63.9091 48.8124 C.2 0.0 **** 0.0
19207 C19207 28.3185 64.2249 50.0855 C.2 0.0 **** 0.0
19208 C19208 30.1767 63.3736 48.6873 C.2 0.0 **** 0.0
19209 C19209 30.6926 63.0391 47.3977 C.2 0.0 **** 0.0
19210 C19210 29.8664 63.2189 46.2299 C.2 0.0 **** 0.0
19211 C19211 28.6035 63.8124 46.3808 C.2 0.0 **** -0.1268
19212 C19212 30.3597 62.7777 44.9663 C.2 0.0 **** 0.0
19213 C19213 31.6673 62.3423 44.8636 C.2 0.0 **** 0.042
19214 C19214 32.5628 62.2569 45.9714 C.2 0.0 **** 0.0
19215 C19215 32.0258 62.5511 47.2561 C.2 0.0 **** 0.0
19216 C19216 29.0997 64.0044 51.2698 C.2 0.0 **** 0.0
19217 C19217 28.4882 64.2991 52.506 C.2 0.0 **** -0.1268
19218 C19218 30.9724 63.1763 49.8639 C.2 0.0 **** 0.0
19219 C19219 30.4477 63.4887 51.1538 C.2 0.0 **** 0.0
19220 C19220 32.8316 62.3773 48.4301 C.2 0.0 **** 0.0
19221 C19221 32.2988 62.6718 49.7122 C.2 0.0 **** 0.0
19222 C19222 33.9455 61.8682 45.8433 C.2 0.0 **** 0.0
19223 C19223 34.7141 61.6525 47.026 C.2 0.0 **** 0.0
19224 C19224 34.1623 61.8974 48.3088 C.2 0.0 **** 0.0
19225 O19225 32.0686 61.8887 43.6256 O.3 0.0 **** -0.202
19226 C19226 31.8372 62.7953 42.5104 C.3 0.0 **** 0.107
19227 C19227 30.4325 63.4442 42.5855 C.3 0.0 **** -0.053
19228 C19228 29.6204 62.6732 43.636 C.3 0.0 **** 0.107
19229 C19229 29.771 63.5058 41.2033 C.3 0.0 **** -0.106
19230 C19230 30.8216 63.9184 40.1671 C.3 0.0 **** -0.106
19231 C19231 31.8157 62.7751 39.9411 C.3 0.0 **** 0.134
19232 C19232 32.0838 61.9636 41.2529 C.3 0.0 **** -0.053
19233 C19233 33.5171 61.4066 41.241 C.3 0.0 **** -0.106
19234 C19234 33.9288 60.9523 39.8416 C.3 0.0 **** -0.106
19235 C19235 33.9059 62.1611 38.8644 C.3 0.0 **** 0.081
19236 N19236 33.0361 63.2647 39.2987 N.3 0.0 **** -0.727
19237 C19237 31.3096 63.2674 52.2857 C.2 0.0 **** 0.042
19238 C19238 32.5789 62.7296 52.1381 C.2 0.0 **** 0.042
19239 C19239 33.1207 62.4456 50.8578 C.2 0.0 **** 0.0
19240 O19240 33.4036 62.4584 53.2054 O.3 0.0 **** -0.202
19241 C19241 32.7491 62.4562 54.4927 C.3 0.0 **** 0.107
19242 C19242 31.8766 63.6985 54.5593 C.3 0.0 **** 0.107
19243 O19243 30.859 63.598 53.5441 O.3 0.0 **** -0.202
19244 C19244 32.6905 65.0007 54.4096 C.3 0.0 **** -0.106
19245 C19245 34.1495 64.8523 54.8927 C.3 0.0 **** -0.106
19246 C19246 34.2371 63.8464 56.0459 C.3 0.0 **** -0.106
19247 C19247 33.8283 62.4348 55.5772 C.3 0.0 **** -0.106
19248 C19248 34.9717 61.6804 49.4726 C.2 0.0 **** 0.0
19249 C19249 34.427 61.9515 50.7277 C.2 0.0 **** -0.1268
19250 C19250 36.0578 61.1997 46.9058 C.2 0.0 **** 0.0
19251 C19251 36.825 60.962 48.088 C.2 0.0 **** 0.042
19252 C19252 36.3102 61.1962 49.333 C.2 0.0 **** -0.1268
19253 C19253 36.6455 60.9985 45.6478 C.2 0.0 **** 0.0
19254 C19254 35.9127 61.2922 44.4905 C.2 0.0 **** 0.0
19255 C19255 34.6008 61.7136 44.6064 C.2 0.0 **** -0.1268
19256 O19256 38.1272 60.4947 47.9951 O.3 0.0 **** -0.0685
19257 C19257 38.6908 60.2248 46.7691 C.2 0.0 **** 0.0265
19258 C19258 37.9937 60.4889 45.5777 C.2 0.0 **** 0.0
19259 C19259 36.5274 61.2028 43.1189 C.3 0.0 **** -0.053
19260 C19260 37.8158 60.3502 43.0569 C.3 0.0 **** -0.053
19261 C19261 38.5867 60.2125 44.3429 C.2 0.0 **** 0.0
19262 C19262 38.7774 60.8507 41.9627 C.3 0.0 **** -0.053
19263 C19263 37.9872 61.2446 40.72 C.3 0.0 **** -0.106
19264 C19264 37.1241 62.4931 41.0297 C.3 0.0 **** -0.106
19265 C19265 36.7744 62.6019 42.526 C.3 0.0 **** -0.106
19266 C19266 39.8827 59.6782 44.2826 C.2 0.0 **** 0.0
19267 C19267 40.5632 59.35 45.4893 C.2 0.0 **** 0.0
19268 C19268 39.972 59.6414 46.7587 C.2 0.0 **** 0.0
19269 C19269 39.9007 59.8625 41.8082 C.2 0.0 **** 0.0
19270 C19270 40.492 59.3896 43.0127 C.2 0.0 **** 0.0
19271 C19271 22.2305 70.6729 49.3039 C.3 0.0 **** -0.053
19272 C19272 23.5746 70.059 48.8912 C.3 0.0 **** -0.159
19273 C19273 21.9444 71.9306 48.4769 C.3 0.0 **** -0.159
19274 O19274 28.269 63.1322 43.575 O.3 0.0 **** -0.57
19275 C19275 40.6879 59.3076 47.9545 C.2 0.0 **** -0.1268
19276 C19276 41.9049 58.6879 47.8904 C.2 0.0 **** -0.1268
19277 C19277 42.5069 58.3404 46.6358 C.2 0.0 **** 0.0
19278 C19278 41.8193 58.6847 45.4273 C.2 0.0 **** 0.0
19279 C19279 42.3805 58.3312 44.1716 C.2 0.0 **** 0.0
19280 C19280 43.6148 57.6422 44.1131 C.2 0.0 **** 0.0
19281 C19281 44.2984 57.307 45.3264 C.2 0.0 **** 0.0
19282 C19282 43.7294 57.6652 46.5591 C.2 0.0 **** -0.1268
19283 C19283 45.5439 56.6104 45.2473 C.2 0.0 **** -0.1268
19284 C19284 46.0806 56.2643 44.0355 C.2 0.0 **** -0.1268
19285 C19285 45.4179 56.5909 42.813 C.2 0.0 **** 0.0
19286 C19286 44.1805 57.2869 42.8529 C.2 0.0 **** 0.0
19287 C19287 43.5155 57.6307 41.6371 C.2 0.0 **** 0.0
19288 C19288 42.279 58.3337 41.699 C.2 0.0 **** 0.0
19289 C19289 41.7095 58.6802 42.9575 C.2 0.0 **** 0.0
19290 C19290 44.0889 57.291 40.3759 C.2 0.0 **** 0.0
19291 C19291 45.3179 56.5745 40.3771 C.2 0.0 **** -0.1268
19292 C19292 45.9534 56.2379 41.5541 C.2 0.0 **** -0.1268
19293 C19293 40.4308 59.486 40.5945 C.2 0.0 **** -0.1268
19294 C19294 41.5984 58.684 40.5006 C.2 0.0 **** 0.0
19295 C19295 43.3813 57.6468 39.163 C.2 0.0 **** 0.052
19296 C19296 42.1292 58.2717 39.239 C.2 0.0 **** 0.0
19297 C19297 41.2955 58.5289 38.0034 C.3 0.0 **** -0.106
19298 C19298 41.6397 57.5705 36.8699 C.3 0.0 **** -0.106
19299 C19299 43.1285 57.6789 36.5852 C.3 0.0 **** -0.086
19300 C19300 43.9983 57.4526 37.8155 C.2 0.0 **** 0.347
19301 O19301 45.1864 57.1791 37.6385 O.2 0.0 **** -0.419
19302 H19302 22.2443 72.4307 55.3709 H 0.0 **** 0.053
19303 H19303 22.5382 70.687 55.6118 H 0.0 **** 0.053
19304 H19304 19.8984 72.1537 55.4735 H 0.0 **** 0.053
19305 H19305 20.2675 70.4565 55.1329 H 0.0 **** 0.053
19306 H19306 19.7696 71.8114 57.8172 H 0.0 **** 0.053
19307 H19307 20.429 69.7145 58.9465 H 0.0 **** 0.053
19308 H19308 23.0287 70.0116 57.9688 H 0.0 **** 0.053
19309 H19309 22.2744 71.0901 59.1831 H 0.0 **** 0.053
19310 H19310 21.7632 68.8074 56.3874 H 0.0 **** 0.053
19311 H19311 19.6513 68.4433 55.4868 H 0.0 **** 0.053
19312 H19312 18.5615 68.4188 58.3355 H 0.0 **** 0.053
19313 H19313 17.5742 68.2423 56.8771 H 0.0 **** 0.053
19314 H19314 17.7774 70.6471 57.887 H 0.0 **** 0.053
19315 H19315 18.0062 70.4911 56.144 H 0.0 **** 0.053
19316 H19316 20.5371 64.9694 56.1476 H 0.0 **** 0.053
19317 H19317 21.5757 65.4184 58.1263 H 0.0 **** 0.053
19318 H19318 22.4975 67.8977 58.5953 H 0.0 **** 0.053
19319 H19319 20.8323 67.3933 58.9159 H 0.0 **** 0.053
19320 H19320 21.4297 67.5645 54.8389 H 0.0 **** 0.053
19321 H19321 26.7877 64.5396 56.2111 H 0.0 **** 0.053
19322 H19322 26.5699 66.2256 56.6745 H 0.0 **** 0.053
19323 H19323 26.0669 64.8178 58.6305 H 0.0 **** 0.053
19324 H19324 24.9073 63.8544 57.688 H 0.0 **** 0.053
19325 H19325 24.6608 66.8379 58.3593 H 0.0 **** 0.053
19326 H19326 23.6731 65.5478 59.045 H 0.0 **** 0.053
19327 H19327 18.194 64.2681 52.5342 H 0.0 **** 0.053
19328 H19328 17.202 65.6428 52.9478 H 0.0 **** 0.053
19329 H19329 18.746 65.4438 54.8761 H 0.0 **** 0.1268
19330 H19330 16.9403 65.3815 50.3814 H 0.0 **** 0.053
19331 H19331 17.0938 67.1441 50.4893 H 0.0 **** 0.053
19332 H19332 17.6774 66.4581 48.1737 H 0.0 **** 0.053
19333 H19333 18.8351 65.2604 48.7858 H 0.0 **** 0.053
19334 H19334 20.8879 69.1295 51.3045 H 0.0 **** 0.053
19335 H19335 22.1631 68.2848 50.459 H 0.0 **** 0.053
19336 H19336 20.1242 70.2411 49.3245 H 0.0 **** 0.053
19337 H19337 21.8417 68.2493 47.7787 H 0.0 **** 0.053
19338 H19338 21.0465 69.6457 47.0252 H 0.0 **** 0.053
19339 H19339 19.6898 67.4632 46.9108 H 0.0 **** 0.053
19340 H19340 18.8267 68.8124 47.6376 H 0.0 **** 0.053
19341 H19341 22.144 66.1801 49.9754 H 0.0 **** 0.1268
19342 H19342 26.2322 64.8931 46.83 H 0.0 **** 0.1268
19343 H19343 28.0109 64.0537 45.5039 H 0.0 **** 0.1268
19344 H19344 29.0135 64.1465 53.4372 H 0.0 **** 0.1268
19345 H19345 32.6111 63.5832 42.5722 H 0.0 **** 0.053
19346 H19346 30.5427 64.475 42.9584 H 0.0 **** 0.053
19347 H19347 29.6458 61.6043 43.3391 H 0.0 **** 0.053
19348 H19348 29.3524 62.5186 40.9425 H 0.0 **** 0.053
19349 H19349 28.9277 64.2073 41.2333 H 0.0 **** 0.053
19350 H19350 31.3679 64.8043 40.5383 H 0.0 **** 0.053
19351 H19351 30.3735 64.2067 39.2064 H 0.0 **** 0.053
19352 H19352 31.3609 62.0715 39.223 H 0.0 **** 0.053
19353 H19353 31.3753 61.1185 41.2856 H 0.0 **** 0.053
19354 H19354 34.2067 62.203 41.57 H 0.0 **** 0.053
19355 H19355 33.6115 60.5933 41.9733 H 0.0 **** 0.053
19356 H19356 33.2316 60.1715 39.4976 H 0.0 **** 0.053
19357 H19357 34.932 60.4975 39.8608 H 0.0 **** 0.053
19358 H19358 33.5683 61.8266 37.8688 H 0.0 **** 0.053
19359 H19359 34.9191 62.5702 38.736 H 0.0 **** 0.053
19360 H19360 33.5387 63.8689 39.9501 H 0.0 **** 0.353
19361 H19361 32.1073 61.5609 54.5441 H 0.0 **** 0.053
19362 H19362 31.3148 63.6912 55.5042 H 0.0 **** 0.053
19363 H19363 32.6714 65.2949 53.3502 H 0.0 **** 0.053
19364 H19364 32.1751 65.7918 54.9738 H 0.0 **** 0.053
19365 H19365 34.5389 65.8333 55.2022 H 0.0 **** 0.053
19366 H19366 34.7768 64.4981 54.0614 H 0.0 **** 0.053
19367 H19367 33.569 64.1768 56.8597 H 0.0 **** 0.053
19368 H19368 35.2526 63.8161 56.4673 H 0.0 **** 0.053
19369 H19369 33.4658 61.8388 56.428 H 0.0 **** 0.053
19370 H19370 34.6944 61.9004 55.1574 H 0.0 **** 0.053
19371 H19371 35.0256 61.7831 51.6216 H 0.0 **** 0.1268
19372 H19372 36.9173 61.0196 50.2215 H 0.0 **** 0.1268
19373 H19373 34.0536 61.9181 43.6997 H 0.0 **** 0.1268
19374 H19374 35.7889 60.7233 42.4584 H 0.0 **** 0.053
19375 H19375 37.521 59.3218 42.7675 H 0.0 **** 0.053
19376 H19376 39.2565 61.7696 42.357 H 0.0 **** 0.053
19377 H19377 37.3496 60.3936 40.4259 H 0.0 **** 0.053
19378 H19378 38.6541 61.453 39.8714 H 0.0 **** 0.053
19379 H19379 36.1955 62.4451 40.4435 H 0.0 **** 0.053
19380 H19380 37.6564 63.4025 40.7109 H 0.0 **** 0.053
19381 H19381 35.8793 63.2253 42.6718 H 0.0 **** 0.053
19382 H19382 37.5865 63.089 43.0887 H 0.0 **** 0.053
19383 H19383 22.3036 70.9741 50.3649 H 0.0 **** 0.053
19384 H19384 24.398 70.7585 49.0999 H 0.0 **** 0.053
19385 H19385 23.5854 69.8457 47.8111 H 0.0 **** 0.053
19386 H19386 23.7876 69.1173 49.4194 H 0.0 **** 0.053
19387 H19387 20.9986 72.4027 48.7866 H 0.0 **** 0.053
19388 H19388 21.8652 71.6841 47.4061 H 0.0 **** 0.053
19389 H19389 22.752 72.6701 48.588 H 0.0 **** 0.053
19390 H19390 27.7365 62.5359 44.1237 H 0.0 **** 0.41
19391 H19391 40.2383 59.5495 48.9174 H 0.0 **** 0.1268
19392 H19392 42.441 58.4333 48.8064 H 0.0 **** 0.1268
19393 H19393 44.2521 57.4019 47.4813 H 0.0 **** 0.1268
19394 H19394 46.0568 56.3583 46.1772 H 0.0 **** 0.1268
19395 H19395 47.0289 55.7259 43.9816 H 0.0 **** 0.1268
19396 H19396 45.7594 56.3035 39.4241 H 0.0 **** 0.1268
19397 H19397 46.8938 55.6838 41.5208 H 0.0 **** 0.1268
19398 H19398 39.9617 59.8528 39.6854 H 0.0 **** 0.1268
19399 H19399 40.2313 58.4329 38.2607 H 0.0 **** 0.053
19400 H19400 41.4419 59.5716 37.6633 H 0.0 **** 0.053
19401 H19401 41.0439 57.8006 35.9736 H 0.0 **** 0.053
19402 H19402 41.3904 56.5422 37.1792 H 0.0 **** 0.053
19403 H19403 43.3634 58.6968 36.2226 H 0.0 **** 0.053
19404 H19404 43.4786 56.9815 35.811 H 0.0 **** 0.053
19405 C19405 9.75807 46.386 41.5509 C.3 0.0 **** 0.054
19406 C19406 9.39386 47.1489 42.8462 C.3 0.0 **** -0.106
19407 C19407 10.2016 48.4589 42.9518 C.3 0.0 **** -0.053
19408 C19408 11.6455 48.1948 42.4946 C.3 0.0 **** -0.053
19409 C19409 11.6356 47.7138 41.0203 C.3 0.0 **** 0.054
19410 O19410 10.3498 47.2583 40.5821 O.3 0.0 **** -0.32
19411 C19411 12.3502 47.1888 43.429 C.3 0.0 **** -0.053
19412 C19412 11.9521 47.3852 44.9198 C.3 0.0 **** 0.107
19413 C19413 11.4589 48.8001 45.1702 C.3 0.0 **** -0.106
19414 C19414 10.1677 49.0694 44.3763 C.3 0.0 **** -0.106
19415 O19415 13.0599 47.1515 45.8032 O.3 0.0 **** -0.32
19416 C19416 13.8146 45.9773 45.4586 C.3 0.0 **** 0.107
19417 C19417 14.6293 46.2894 44.1905 C.3 0.0 **** -0.053
19418 C19418 13.8659 47.3129 43.2995 C.3 0.0 **** -0.106
19419 C19419 15.1036 45.0807 43.4537 C.2 0.0 **** 0.0
19420 C19420 14.7019 43.7918 43.7664 C.2 0.0 **** 0.0
19421 C19421 13.6766 43.5411 44.7478 C.2 0.0 **** 0.0
19422 C19422 12.9496 44.7097 45.3744 C.3 0.0 **** -0.053
19423 C19423 13.22 42.2611 45.0094 C.2 0.0 **** 0.0
19424 C19424 13.8116 41.1314 44.3323 C.2 0.0 **** 0.0
19425 C19425 14.8563 41.3984 43.3961 C.2 0.0 **** 0.232
19426 C19426 15.2951 42.6561 43.0875 C.2 0.0 **** 0.0
19427 C19427 16.3687 42.8641 42.0497 C.3 0.0 **** -0.106
19428 C19428 17.1239 44.1745 42.2751 C.3 0.0 **** -0.106
19429 C19429 16.1277 45.3314 42.3828 C.3 0.0 **** -0.106
19430 O19430 15.4517 40.3504 42.7205 O.3 0.0 **** -0.464
19431 C19431 15.136 39.0495 43.0293 C.2 0.0 **** 0.232
19432 C19432 14.0831 38.7286 43.9051 C.2 0.0 **** 0.0
19433 C19433 13.3812 39.816 44.5445 C.2 0.0 **** 0.0
19434 C19434 12.3003 44.3394 46.6869 C.2 0.0 **** 0.0
19435 C19435 11.6032 43.0562 46.7153 C.2 0.0 **** 0.0
19436 C19436 12.1178 42.013 45.943 C.2 0.0 **** 0.0
19437 C19437 10.5276 42.9115 47.6945 C.2 0.0 **** 0.0
19438 C19438 10.5788 43.6479 48.8426 C.2 0.0 **** 0.0
19439 C19439 11.6242 44.6936 49.0546 C.3 0.0 **** -0.106
19440 C19440 12.324 45.1091 47.7979 C.2 0.0 **** -0.1268
19441 C19441 9.53967 43.4363 49.908 C.3 0.0 **** -0.106
19442 C19442 9.05634 41.9832 49.8972 C.3 0.0 **** -0.106
19443 C19443 8.62389 41.6049 48.5019 C.2 0.0 **** 0.0
19444 C19444 9.32987 42.0767 47.4469 C.2 0.0 **** 0.0
19445 C19445 8.84537 41.9164 46.0244 C.3 0.0 **** -0.106
19446 C19446 7.43222 41.332 45.9186 C.3 0.0 **** -0.053
19447 C19447 7.28136 40.1841 46.9229 C.3 0.0 **** -0.106
19448 C19448 7.41957 40.723 48.3467 C.3 0.0 **** -0.106
19449 C19449 12.2891 39.6122 45.4516 C.2 0.0 **** -0.012
19450 C19450 11.709 40.6577 46.1272 C.2 0.0 **** -0.1268
19451 C19451 13.8431 37.3497 44.1346 C.2 0.0 **** 0.0
19452 C19452 12.7648 36.9218 44.9892 C.2 0.0 **** -0.012
19453 S19453 11.5937 38.025 45.6945 S.2 0.0 **** 0.024
19454 C19454 12.5542 35.5917 45.2489 C.2 0.0 **** -0.1268
19455 C19455 13.39 34.5897 44.6893 C.2 0.0 **** 0.0
19456 C19456 14.4516 34.9665 43.8105 C.2 0.0 **** 0.0
19457 C19457 14.6711 36.3421 43.5242 C.2 0.0 **** 0.0
19458 C19458 15.2622 33.9552 43.2311 C.2 0.0 **** 0.0
19459 C19459 15.0372 32.5829 43.5586 C.2 0.0 **** 0.0
19460 C19460 14.0048 32.2346 44.5029 C.2 0.0 **** 0.0
19461 C19461 13.1783 33.2514 45.0057 C.2 0.0 **** -0.1268
19462 C19462 13.8688 30.8707 44.8981 C.2 0.0 **** 0.0
19463 C19463 14.6123 29.9007 44.2529 C.2 0.0 **** 0.042
19464 C19464 15.5639 30.1836 43.228 C.2 0.0 **** 0.0
19465 C19465 15.8106 31.5555 42.9408 C.2 0.0 **** 0.0
19466 C19466 15.728 36.7207 42.6293 C.2 0.0 **** 0.0
19467 C19467 15.9232 38.1007 42.4141 C.2 0.0 **** -0.1268
19468 C19468 16.3021 34.3246 42.3153 C.2 0.0 **** 0.0
19469 C19469 16.5415 35.6972 42.0068 C.2 0.0 **** 0.0
19470 C19470 16.8343 31.9223 42.0052 C.2 0.0 **** 0.0
19471 C19471 17.0808 33.2897 41.7158 C.2 0.0 **** 0.0
19472 C19472 16.284 29.1597 42.512 C.2 0.0 **** 0.0
19473 C19473 17.3319 29.5458 41.6239 C.2 0.0 **** 0.0
19474 C19474 17.611 30.9136 41.3765 C.2 0.0 **** 0.0
19475 O19475 14.4671 28.609 44.7113 O.3 0.0 **** -0.202
19476 C19476 13.1012 28.1115 44.7887 C.3 0.0 **** 0.107
19477 C19477 12.1426 29.1691 45.3908 C.3 0.0 **** -0.053
19478 C19478 13.0051 30.2796 46.0079 C.3 0.0 **** 0.107
19479 C19479 11.1494 28.5303 46.3691 C.3 0.0 **** -0.106
19480 C19480 10.6578 27.2028 45.7828 C.3 0.0 **** -0.106
19481 C19481 11.7816 26.1626 45.8196 C.3 0.0 **** 0.134
19482 C19482 13.1875 26.81 45.5841 C.3 0.0 **** -0.053
19483 C19483 14.1168 25.8046 44.8838 C.3 0.0 **** -0.106
19484 C19484 13.8923 24.3836 45.3981 C.3 0.0 **** -0.106
19485 C19485 12.4343 23.9359 45.0975 C.3 0.0 **** 0.081
19486 N19486 11.4925 25.0505 44.9132 N.3 0.0 **** -0.727
19487 C19487 17.6001 35.987 41.075 C.2 0.0 **** 0.042
19488 C19488 18.3871 34.9819 40.5341 C.2 0.0 **** 0.042
19489 C19489 18.1365 33.6129 40.8102 C.2 0.0 **** 0.0
19490 O19490 19.4384 35.2333 39.683 O.3 0.0 **** -0.202
19491 C19491 19.8771 36.6088 39.6502 C.3 0.0 **** 0.107
19492 C19492 18.636 37.4773 39.5314 C.3 0.0 **** 0.107
19493 O19493 17.8349 37.2952 40.7151 O.3 0.0 **** -0.202
19494 C19494 17.8245 37.1763 38.254 C.3 0.0 **** -0.106
19495 C19495 18.6991 36.6281 37.1057 C.3 0.0 **** -0.106
19496 C19496 20.1121 37.2183 37.1739 C.3 0.0 **** -0.106
19497 C19497 20.8309 36.7779 38.4657 C.3 0.0 **** -0.106
19498 C19498 18.6645 31.2604 40.4674 C.2 0.0 **** 0.0
19499 C19499 18.9112 32.609 40.2107 C.2 0.0 **** -0.1268
19500 C19500 18.0926 28.5365 40.9699 C.2 0.0 **** 0.0
19501 C19501 19.157 28.9179 40.0957 C.2 0.0 **** 0.042
19502 C19502 19.4378 30.2321 39.8428 C.2 0.0 **** -0.1268
19503 C19503 17.8048 27.1761 41.1565 C.2 0.0 **** 0.0
19504 C19504 16.7214 26.8059 41.964 C.2 0.0 **** 0.0
19505 C19505 15.9941 27.7854 42.6151 C.2 0.0 **** -0.1268
19506 O19506 19.9286 27.951 39.4691 O.3 0.0 **** -0.0685
19507 C19507 19.7026 26.6135 39.7003 C.2 0.0 **** 0.0265
19508 C19508 18.6372 26.1889 40.5125 C.2 0.0 **** 0.0
19509 C19509 16.2968 25.3688 42.111 C.3 0.0 **** -0.053
19510 C19510 17.3808 24.3438 41.705 C.3 0.0 **** -0.053
19511 C19511 18.422 24.8253 40.7298 C.2 0.0 **** 0.0
19512 C19512 16.7593 23.0464 41.1542 C.3 0.0 **** -0.053
19513 C19513 15.5336 22.6693 41.9781 C.3 0.0 **** -0.106
19514 C19514 14.4164 23.7189 41.754 C.3 0.0 **** -0.106
19515 C19515 14.9827 25.0954 41.3571 C.3 0.0 **** -0.106
19516 C19516 19.2606 23.8715 40.1336 C.2 0.0 **** 0.0
19517 C19517 20.3783 24.3027 39.3643 C.2 0.0 **** 0.0
19518 C19518 20.6002 25.6951 39.1236 C.2 0.0 **** 0.0
19519 C19519 17.844 22.0188 40.9809 C.2 0.0 **** 0.0
19520 C19520 19.0425 22.4685 40.36 C.2 0.0 **** 0.0
19521 C19521 7.10234 40.9336 44.4647 C.3 0.0 **** -0.053
19522 C19522 7.83786 39.6635 44.0178 C.3 0.0 **** -0.159
19523 C19523 5.59189 40.7708 44.2659 C.3 0.0 **** -0.159
19524 O19524 12.1432 31.1569 46.7347 O.3 0.0 **** -0.57
19525 C19525 21.729 26.0953 38.3364 C.2 0.0 **** -0.1268
19526 C19526 22.6049 25.1663 37.8476 C.2 0.0 **** -0.1268
19527 C19527 22.4381 23.7656 38.1073 C.2 0.0 **** 0.0
19528 C19528 21.3045 23.341 38.8731 C.2 0.0 **** 0.0
19529 C19529 21.1277 21.9627 39.1658 C.2 0.0 **** 0.0
19530 C19530 22.0667 21.0113 38.7026 C.2 0.0 **** 0.0
19531 C19531 23.1943 21.444 37.9326 C.2 0.0 **** 0.0
19532 C19532 23.3528 22.8106 37.6516 C.2 0.0 **** -0.1268
19533 C19533 24.1324 20.4683 37.4737 C.2 0.0 **** -0.1268
19534 C19534 23.964 19.14 37.7626 C.2 0.0 **** -0.1268
19535 C19535 22.8456 18.6856 38.5263 C.2 0.0 **** 0.0
19536 C19536 21.8904 19.6264 38.995 C.2 0.0 **** 0.0
19537 C19537 20.7614 19.1824 39.7477 C.2 0.0 **** 0.0
19538 C19538 19.8124 20.1411 40.2031 C.2 0.0 **** 0.0
19539 C19539 19.9933 21.5249 39.9192 C.2 0.0 **** 0.0
19540 C19540 20.5751 17.7958 40.0259 C.2 0.0 **** 0.0
19541 C19541 21.5646 16.8866 39.5591 C.2 0.0 **** -0.1268
19542 C19542 22.6577 17.3205 38.8384 C.2 0.0 **** -0.1268
19543 C19543 17.6959 20.6859 41.2928 C.2 0.0 **** -0.1268
19544 C19544 18.6817 19.7214 40.9565 C.2 0.0 **** 0.0
19545 C19545 19.4232 17.3827 40.8011 C.2 0.0 **** 0.052
19546 C19546 18.5372 18.3432 41.3074 C.2 0.0 **** 0.0
19547 C19547 17.4067 17.9658 42.2387 C.3 0.0 **** -0.106
19548 C19548 17.6902 16.6701 42.9889 C.3 0.0 **** -0.106
19549 C19549 17.9777 15.5792 41.9707 C.3 0.0 **** -0.086
19550 C19550 19.0939 15.938 40.9977 C.2 0.0 **** 0.347
19551 O19551 19.6307 15.0213 40.3737 O.2 0.0 **** -0.419
19552 H19552 8.86858 45.9581 41.0687 H 0.0 **** 0.053
19553 H19553 10.4588 45.556 41.7718 H 0.0 **** 0.053
19554 H19554 8.31978 47.3887 42.8695 H 0.0 **** 0.053
19555 H19555 9.59934 46.5091 43.719 H 0.0 **** 0.053
19556 H19556 9.75376 49.1717 42.2441 H 0.0 **** 0.053
19557 H19557 12.2068 49.1429 42.5423 H 0.0 **** 0.053
19558 H19558 12.3761 46.8971 40.8899 H 0.0 **** 0.053
19559 H19559 11.8973 48.5302 40.3326 H 0.0 **** 0.053
19560 H19560 12.0587 46.1752 43.1104 H 0.0 **** 0.053
19561 H19561 11.1412 46.6798 45.1858 H 0.0 **** 0.053
19562 H19562 12.2525 49.5024 44.8679 H 0.0 **** 0.053
19563 H19563 11.2924 48.9467 46.247 H 0.0 **** 0.053
19564 H19564 10.0051 50.156 44.317 H 0.0 **** 0.053
19565 H19565 9.30609 48.6535 44.9241 H 0.0 **** 0.053
19566 H19566 14.5076 45.8351 46.3008 H 0.0 **** 0.053
19567 H19567 15.5416 46.82 44.5241 H 0.0 **** 0.053
19568 H19568 14.1672 47.2005 42.2475 H 0.0 **** 0.053
19569 H19569 14.1463 48.3328 43.6068 H 0.0 **** 0.053
19570 H19570 12.1138 44.9062 44.6726 H 0.0 **** 0.053
19571 H19571 17.057 42.0067 42.046 H 0.0 **** 0.053
19572 H19572 15.9023 42.8859 41.0465 H 0.0 **** 0.053
19573 H19573 17.8383 44.3503 41.4565 H 0.0 **** 0.053
19574 H19574 17.7 44.1074 43.2123 H 0.0 **** 0.053
19575 H19575 15.6284 45.4659 41.4023 H 0.0 **** 0.053
19576 H19576 16.6469 46.283 42.5878 H 0.0 **** 0.053
19577 H19577 12.371 44.334 49.7966 H 0.0 **** 0.053
19578 H19578 11.164 45.5701 49.5512 H 0.0 **** 0.053
19579 H19579 12.8548 46.0596 47.8066 H 0.0 **** 0.1268
19580 H19580 9.95061 43.7121 50.8923 H 0.0 **** 0.053
19581 H19581 8.6819 44.1141 49.7215 H 0.0 **** 0.053
19582 H19582 8.22503 41.837 50.6044 H 0.0 **** 0.053
19583 H19583 9.88163 41.3236 50.2281 H 0.0 **** 0.053
19584 H19584 8.8746 42.9075 45.5372 H 0.0 **** 0.053
19585 H19585 9.54286 41.2953 45.442 H 0.0 **** 0.053
19586 H19586 6.71583 42.1207 46.2154 H 0.0 **** 0.053
19587 H19587 8.07328 39.4395 46.7399 H 0.0 **** 0.053
19588 H19588 6.3147 39.6727 46.797 H 0.0 **** 0.053
19589 H19589 7.48857 39.8945 49.0751 H 0.0 **** 0.053
19590 H19590 6.50833 41.2852 48.6297 H 0.0 **** 0.053
19591 H19591 10.9317 40.446 46.8611 H 0.0 **** 0.1268
19592 H19592 11.7384 35.279 45.9046 H 0.0 **** 0.1268
19593 H19593 12.3297 32.9978 45.6334 H 0.0 **** 0.1268
19594 H19594 16.7071 38.457 41.7621 H 0.0 **** 0.1268
19595 H19595 12.7871 27.8754 43.7548 H 0.0 **** 0.053
19596 H19596 11.568 29.6279 44.5705 H 0.0 **** 0.053
19597 H19597 13.6962 29.7879 46.7234 H 0.0 **** 0.053
19598 H19598 11.6403 28.3535 47.3415 H 0.0 **** 0.053
19599 H19599 10.3223 29.2267 46.5562 H 0.0 **** 0.053
19600 H19600 10.3476 27.3628 44.7343 H 0.0 **** 0.053
19601 H19601 9.77952 26.8092 46.3126 H 0.0 **** 0.053
19602 H19602 11.8019 25.7257 46.8327 H 0.0 **** 0.053
19603 H19603 13.6179 27.0651 46.5673 H 0.0 **** 0.053
19604 H19604 13.9048 25.8251 43.8008 H 0.0 **** 0.053
19605 H19605 15.164 26.1151 45.0001 H 0.0 **** 0.053
19606 H19606 14.0817 24.3601 46.4832 H 0.0 **** 0.053
19607 H19607 14.6078 23.6857 44.9346 H 0.0 **** 0.053
19608 H19608 12.0635 23.3032 45.9217 H 0.0 **** 0.053
19609 H19609 12.4015 23.3218 44.1853 H 0.0 **** 0.053
19610 H19610 11.5322 25.3844 43.9494 H 0.0 **** 0.353
19611 H19611 20.3798 36.8261 40.6074 H 0.0 **** 0.053
19612 H19612 18.9341 38.5347 39.5689 H 0.0 **** 0.053
19613 H19613 17.0404 36.4496 38.5116 H 0.0 **** 0.053
19614 H19614 17.3178 38.1025 37.9457 H 0.0 **** 0.053
19615 H19615 18.228 36.8582 36.1389 H 0.0 **** 0.053
19616 H19616 18.7653 35.5329 37.1858 H 0.0 **** 0.053
19617 H19617 20.0414 38.3191 37.1437 H 0.0 **** 0.053
19618 H19618 20.7078 36.9187 36.2991 H 0.0 **** 0.053
19619 H19619 21.6101 37.5055 38.7375 H 0.0 **** 0.053
19620 H19620 21.3338 35.8098 38.3181 H 0.0 **** 0.053
19621 H19621 19.7136 32.8888 39.5299 H 0.0 **** 0.1268
19622 H19622 20.2469 30.5008 39.1628 H 0.0 **** 0.1268
19623 H19623 15.1747 27.4731 43.2432 H 0.0 **** 0.1268
19624 H19624 16.0727 25.1997 43.1754 H 0.0 **** 0.053
19625 H19625 17.9324 24.0607 42.6236 H 0.0 **** 0.053
19626 H19626 16.4119 23.2723 40.1258 H 0.0 **** 0.053
19627 H19627 15.8244 22.6313 43.0418 H 0.0 **** 0.053
19628 H19628 15.1646 21.6688 41.7114 H 0.0 **** 0.053
19629 H19629 13.8271 23.8221 42.6761 H 0.0 **** 0.053
19630 H19630 13.7264 23.3672 40.9716 H 0.0 **** 0.053
19631 H19631 14.2585 25.8931 41.5811 H 0.0 **** 0.053
19632 H19632 15.176 25.1473 40.2739 H 0.0 **** 0.053
19633 H19633 7.44077 41.7681 43.8238 H 0.0 **** 0.053
19634 H19634 7.68609 39.4888 42.942 H 0.0 **** 0.053
19635 H19635 7.45022 38.7843 44.5552 H 0.0 **** 0.053
19636 H19636 8.92146 39.7168 44.203 H 0.0 **** 0.053
19637 H19637 5.05296 41.6885 44.5497 H 0.0 **** 0.053
19638 H19638 5.20362 39.9453 44.8835 H 0.0 **** 0.053
19639 H19639 5.35293 40.5406 43.2165 H 0.0 **** 0.053
19640 H19640 12.7072 31.757 47.2465 H 0.0 **** 0.41
19641 H19641 21.8807 27.1571 38.1426 H 0.0 **** 0.1268
19642 H19642 23.4644 25.4806 37.2528 H 0.0 **** 0.1268
19643 H19643 24.2176 23.1357 37.0691 H 0.0 **** 0.1268
19644 H19644 24.989 20.8078 36.8886 H 0.0 **** 0.1268
19645 H19645 24.6878 18.4001 37.4154 H 0.0 **** 0.1268
19646 H19646 21.438 15.8305 39.7716 H 0.0 **** 0.1268
19647 H19647 23.4018 16.5972 38.4979 H 0.0 **** 0.1268
19648 H19648 16.7758 20.3627 41.7721 H 0.0 **** 0.1268
19649 H19649 17.2435 18.7822 42.9562 H 0.0 **** 0.053
19650 H19650 16.4669 17.8623 41.6641 H 0.0 **** 0.053
19651 H19651 16.8393 16.4011 43.6329 H 0.0 **** 0.053
19652 H19652 18.567 16.8157 43.641 H 0.0 **** 0.053
19653 H19653 17.0765 15.3993 41.3558 H 0.0 **** 0.053
19654 H19654 18.2449 14.6147 42.4254 H 0.0 **** 0.053
19655 C19655 16.4375 26.8244 81.1043 C.3 0.0 **** 0.054
19656 C19656 17.2031 27.924 81.8769 C.3 0.0 **** -0.106
19657 C19657 16.4982 28.2428 83.2116 C.3 0.0 **** -0.053
19658 C19658 14.9781 28.2621 82.9826 C.3 0.0 **** -0.053
19659 C19659 14.5189 26.8695 82.4778 C.3 0.0 **** 0.054
19660 O19660 15.5944 26.0656 81.9779 O.3 0.0 **** -0.32
19661 C19661 14.5754 29.3931 82.0128 C.3 0.0 **** -0.053
19662 C19662 15.421 30.682 82.2214 C.3 0.0 **** 0.107
19663 C19663 15.9997 30.7326 83.6251 C.3 0.0 **** -0.106
19664 C19664 16.9866 29.5713 83.8436 C.3 0.0 **** -0.106
19665 O19665 14.6371 31.8705 82.0345 O.3 0.0 **** -0.32
19666 C19666 13.7861 31.8055 80.8775 C.3 0.0 **** 0.107
19667 C19667 12.6254 30.8451 81.1929 C.3 0.0 **** -0.053
19668 C19668 13.0977 29.7367 82.1792 C.3 0.0 **** -0.106
19669 C19669 11.9183 30.3212 79.987 C.2 0.0 **** 0.0
19670 C19670 12.3676 30.5253 78.692 C.2 0.0 **** 0.0
19671 C19671 13.6409 31.1466 78.4272 C.2 0.0 **** 0.0
19672 C19672 14.553 31.4883 79.5839 C.3 0.0 **** -0.053
19673 C19673 14.1267 31.2849 77.1388 C.2 0.0 **** 0.0
19674 C19674 13.3285 30.8521 76.0161 C.2 0.0 **** 0.0
19675 C19675 12.0512 30.2795 76.2985 C.2 0.0 **** 0.232
19676 C19676 11.5672 30.0915 77.5634 C.2 0.0 **** 0.0
19677 C19677 10.2295 29.4328 77.7861 C.3 0.0 **** -0.106
19678 C19678 9.61177 29.8491 79.1214 C.3 0.0 **** -0.106
19679 C19679 10.6183 29.6145 80.2503 C.3 0.0 **** -0.106
19680 O19680 11.2517 29.8475 75.2576 O.3 0.0 **** -0.464
19681 C19681 11.6178 30.0749 73.9532 C.2 0.0 **** 0.232
19682 C19682 12.883 30.5889 73.6157 C.2 0.0 **** 0.0
19683 C19683 13.7734 30.9526 74.6923 C.2 0.0 **** 0.0
19684 C19684 15.569 32.5436 79.2159 C.2 0.0 **** 0.0
19685 C19685 16.211 32.3859 77.9134 C.2 0.0 **** 0.0
19686 C19686 15.4583 31.8367 76.8735 C.2 0.0 **** 0.0
19687 C19687 17.5337 32.9868 77.7531 C.2 0.0 **** 0.0
19688 C19688 17.8583 34.076 78.509 C.2 0.0 **** 0.0
19689 C19689 16.9546 34.5759 79.5882 C.3 0.0 **** -0.106
19690 C19690 15.9089 33.5882 80.0037 C.2 0.0 **** -0.1268
19691 C19691 19.1717 34.7717 78.2843 C.3 0.0 **** -0.106
19692 C19692 19.5945 34.6472 76.8176 C.3 0.0 **** -0.106
19693 C19693 19.5637 33.1961 76.4044 C.2 0.0 **** 0.0
19694 C19694 18.5761 32.4007 76.8797 C.2 0.0 **** 0.0
19695 C19695 18.5913 30.9025 76.6825 C.3 0.0 **** -0.106
19696 C19696 19.888 30.3782 76.0552 C.3 0.0 **** -0.053
19697 C19697 20.3169 31.3141 74.9197 C.3 0.0 **** -0.106
19698 C19698 20.6398 32.697 75.4852 C.3 0.0 **** -0.106
19699 C19699 15.0882 31.4813 74.4712 C.2 0.0 **** -0.012
19700 C19700 15.873 31.9182 75.5099 C.2 0.0 **** -0.1268
19701 C19701 13.1508 30.7662 72.2343 C.2 0.0 **** 0.0
19702 C19702 14.431 31.2548 71.7888 C.2 0.0 **** -0.012
19703 S19703 15.7881 31.5354 72.8684 S.2 0.0 **** 0.024
19704 C19704 14.6814 31.4688 70.4574 C.2 0.0 **** -0.1268
19705 C19705 13.6904 31.2204 69.4715 C.2 0.0 **** 0.0
19706 C19706 12.4174 30.7049 69.865 C.2 0.0 **** 0.0
19707 C19707 12.1515 30.4672 71.2417 C.2 0.0 **** 0.0
19708 C19708 11.4441 30.43 68.8687 C.2 0.0 **** 0.0
19709 C19709 11.7282 30.705 67.4959 C.2 0.0 **** 0.0
19710 C19710 12.9945 31.2911 67.1327 C.2 0.0 **** 0.0
19711 C19711 13.9593 31.4881 68.1328 C.2 0.0 **** -0.1268
19712 C19712 13.2153 31.6578 65.772 C.2 0.0 **** 0.0
19713 C19713 12.2863 31.2987 64.8138 C.2 0.0 **** 0.042
19714 C19714 11.0702 30.6125 65.108 C.2 0.0 **** 0.0
19715 C19715 10.778 30.3825 66.4817 C.2 0.0 **** 0.0
19716 C19716 10.8778 29.9349 71.6366 C.2 0.0 **** 0.0
19717 C19717 10.6572 29.7572 73.0182 C.2 0.0 **** -0.1268
19718 C19718 10.1801 29.8728 69.2537 C.2 0.0 **** 0.0
19719 C19719 9.88817 29.6203 70.6276 C.2 0.0 **** 0.0
19720 C19720 9.52309 29.8015 66.8632 C.2 0.0 **** 0.0
19721 C19721 9.23027 29.5695 68.2325 C.2 0.0 **** 0.0
19722 C19722 10.1403 30.18 64.0942 C.2 0.0 **** 0.0
19723 C19723 8.87751 29.6513 64.4966 C.2 0.0 **** 0.0
19724 C19724 8.56681 29.4693 65.8678 C.2 0.0 **** 0.0
19725 O19725 12.537 31.7208 63.526 O.3 0.0 **** -0.202
19726 C19726 13.8477 31.3833 62.99 C.3 0.0 **** 0.107
19727 C19727 14.9697 31.6328 64.0286 C.3 0.0 **** -0.053
19728 C19728 14.3671 32.4594 65.1737 C.3 0.0 **** 0.107
19729 C19729 16.2027 32.2704 63.3769 C.3 0.0 **** -0.106
19730 C19730 16.4575 31.5932 62.0262 C.3 0.0 **** -0.106
19731 C19731 15.3773 32.0017 61.0202 C.3 0.0 **** 0.134
19732 C19732 13.9828 32.1977 61.7045 C.3 0.0 **** -0.053
19733 C19733 12.8594 31.8446 60.7157 C.3 0.0 **** -0.106
19734 C19734 13.1998 32.2985 59.2972 C.3 0.0 **** -0.106
19735 C19735 14.4819 31.572 58.8022 C.3 0.0 **** 0.081
19736 N19736 15.3452 31.0778 59.8856 N.3 0.0 **** -0.727
19737 C19737 8.59949 29.0556 70.9332 C.2 0.0 **** 0.042
19738 C19738 7.66076 28.8098 69.943 C.2 0.0 **** 0.042
19739 C19739 7.95332 29.028 68.5718 C.2 0.0 **** 0.0
19740 O19740 6.4032 28.3205 70.2113 O.3 0.0 **** -0.202
19741 C19741 6.00754 28.3918 71.5984 C.3 0.0 **** 0.107
19742 C19742 7.16997 27.8731 72.4281 C.3 0.0 **** 0.107
19743 O19743 8.29455 28.7544 72.2417 O.3 0.0 **** -0.202
19744 C19744 7.53781 26.4149 72.083 C.3 0.0 **** -0.106
19745 C19745 6.33764 25.6079 71.5423 C.3 0.0 **** -0.106
19746 C19746 5.02949 26.0961 72.1746 C.3 0.0 **** -0.106
19747 C19747 4.73735 27.5574 71.7763 C.3 0.0 **** -0.106
19748 C19748 7.29133 28.9231 66.2306 C.2 0.0 **** 0.0
19749 C19749 7.00805 28.7227 67.5815 C.2 0.0 **** -0.1268
19750 C19750 7.92854 29.2899 63.4995 C.2 0.0 **** 0.0
19751 C19751 6.65435 28.7796 63.8979 C.2 0.0 **** 0.042
19752 C19752 6.33908 28.5942 65.2155 C.2 0.0 **** -0.1268
19753 C19753 8.22892 29.4113 62.1345 C.2 0.0 **** 0.0
19754 C19754 9.50069 29.8521 61.7458 C.2 0.0 **** 0.0
19755 C19755 10.4163 30.2217 62.7139 C.2 0.0 **** -0.1268
19756 O19756 5.70451 28.4467 62.9441 O.3 0.0 **** -0.0685
19757 C19757 5.96047 28.629 61.6044 C.2 0.0 **** 0.0265
19758 C19758 7.21536 29.0812 61.1619 C.2 0.0 **** 0.0
19759 C19759 9.917 29.8953 60.2994 C.3 0.0 **** -0.053
19760 C19760 8.73734 29.8703 59.3002 C.3 0.0 **** -0.053
19761 C19761 7.45618 29.2543 59.7963 C.2 0.0 **** 0.0
19762 C19762 9.12728 29.1858 57.9764 C.3 0.0 **** -0.053
19763 C19763 10.5393 29.5984 57.5769 C.3 0.0 **** -0.106
19764 C19764 11.5554 29.0135 58.5896 C.3 0.0 **** -0.106
19765 C19765 10.9255 28.7782 59.9755 C.3 0.0 **** -0.106
19766 C19766 6.45231 28.9707 58.8579 C.2 0.0 **** 0.0
19767 C19767 5.16126 28.5754 59.3093 C.2 0.0 **** 0.0
19768 C19768 4.90744 28.3814 60.7035 C.2 0.0 **** 0.0
19769 C19769 8.01924 29.3822 56.9784 C.2 0.0 **** 0.0
19770 C19770 6.69785 29.1525 57.453 C.2 0.0 **** 0.0
19771 C19771 19.7411 28.9039 75.624 C.3 0.0 **** -0.053
19772 C19772 18.8744 28.7379 74.369 C.3 0.0 **** -0.159
19773 C19773 21.1111 28.2508 75.4139 C.3 0.0 **** -0.159
19774 O19774 15.4318 32.8618 66.037 O.3 0.0 **** -0.57
19775 C19775 3.59949 27.9732 61.1239 C.2 0.0 **** -0.1268
19776 C19776 2.59419 27.8027 60.2132 C.2 0.0 **** -0.1268
19777 C19777 2.80128 28.032 58.8126 C.2 0.0 **** 0.0
19778 C19778 4.10654 28.419 58.3674 C.2 0.0 **** 0.0
19779 C19779 4.33394 28.676 56.9893 C.2 0.0 **** 0.0
19780 C19780 3.27608 28.5498 56.0585 C.2 0.0 **** 0.0
19781 C19781 1.97536 28.1568 56.5116 C.2 0.0 **** 0.0
19782 C19782 1.76876 27.9056 57.8776 C.2 0.0 **** -0.1268
19783 C19783 0.919048 28.0352 55.5565 C.2 0.0 **** -0.1268
19784 C19784 1.13846 28.29 54.2287 C.2 0.0 **** -0.1268
19785 C19785 2.42789 28.6804 53.7541 C.2 0.0 **** 0.0
19786 C19786 3.50264 28.8069 54.6739 C.2 0.0 **** 0.0
19787 C19787 4.79915 29.1833 54.2092 C.2 0.0 **** 0.0
19788 C19788 5.86425 29.2987 55.1469 C.2 0.0 **** 0.0
19789 C19789 5.63588 29.0512 56.5307 C.2 0.0 **** 0.0
19790 C19790 5.03079 29.4239 52.8224 C.2 0.0 **** 0.0
19791 C19791 3.92477 29.3089 51.9352 C.2 0.0 **** -0.1268
19792 C19792 2.67218 28.9521 52.3893 C.2 0.0 **** -0.1268
19793 C19793 8.22629 29.6654 55.647 C.2 0.0 **** -0.1268
19794 C19794 7.16302 29.6746 54.7064 C.2 0.0 **** 0.0
19795 C19795 6.35665 29.8138 52.3882 C.2 0.0 **** 0.052
19796 C19796 7.37781 29.997 53.3304 C.2 0.0 **** 0.0
19797 C19797 8.73257 30.5411 52.9351 C.3 0.0 **** -0.106
19798 C19798 8.66637 31.3735 51.6605 C.3 0.0 **** -0.106
19799 C19799 8.05225 30.5215 50.5622 C.3 0.0 **** -0.086
19800 C19800 6.69764 29.9338 50.9379 C.2 0.0 **** 0.347
19801 O19801 5.97288 29.5294 50.0274 O.2 0.0 **** -0.419
19802 H19802 17.1233 26.1009 80.6428 H 0.0 **** 0.053
19803 H19803 15.8212 27.2717 80.2989 H 0.0 **** 0.053
19804 H19804 18.2366 27.6076 82.0855 H 0.0 **** 0.053
19805 H19805 17.2641 28.8329 81.2575 H 0.0 **** 0.053
19806 H19806 16.7204 27.414 83.8995 H 0.0 **** 0.053
19807 H19807 14.4811 28.4583 83.9474 H 0.0 **** 0.053
19808 H19808 13.756 26.9949 81.6812 H 0.0 **** 0.053
19809 H19809 14.0753 26.2771 83.2904 H 0.0 **** 0.053
19810 H19810 14.7304 29.0247 80.9861 H 0.0 **** 0.053
19811 H19811 16.2581 30.7007 81.4969 H 0.0 **** 0.053
19812 H19812 15.1678 30.674 84.3454 H 0.0 **** 0.053
19813 H19813 16.4957 31.7009 83.784 H 0.0 **** 0.053
19814 H19814 17.1475 29.4381 84.9239 H 0.0 **** 0.053
19815 H19815 17.9659 29.8352 83.4116 H 0.0 **** 0.053
19816 H19816 13.3856 32.8241 80.7692 H 0.0 **** 0.053
19817 H19817 11.8741 31.4318 81.7553 H 0.0 **** 0.053
19818 H19818 12.4822 28.8329 82.0587 H 0.0 **** 0.053
19819 H19819 12.9499 30.0908 83.2116 H 0.0 **** 0.053
19820 H19820 15.134 30.5575 79.7446 H 0.0 **** 0.053
19821 H19821 9.5547 29.6634 76.9492 H 0.0 **** 0.053
19822 H19822 10.3619 28.3342 77.778 H 0.0 **** 0.053
19823 H19823 8.68272 29.2881 79.3049 H 0.0 **** 0.053
19824 H19824 9.35368 30.9199 79.0864 H 0.0 **** 0.053
19825 H19825 10.7916 28.5246 80.3542 H 0.0 **** 0.053
19826 H19826 10.2104 29.947 81.2198 H 0.0 **** 0.053
19827 H19827 16.4669 35.5213 79.2626 H 0.0 **** 0.053
19828 H19828 17.5661 34.884 80.4587 H 0.0 **** 0.053
19829 H19829 15.429 33.7377 80.9695 H 0.0 **** 0.1268
19830 H19830 19.093 35.8279 78.5878 H 0.0 **** 0.053
19831 H19831 19.9445 34.3121 78.9335 H 0.0 **** 0.053
19832 H19832 20.6007 35.0653 76.6585 H 0.0 **** 0.053
19833 H19833 18.8978 35.2335 76.1879 H 0.0 **** 0.053
19834 H19834 18.4349 30.4242 77.6659 H 0.0 **** 0.053
19835 H19835 17.7335 30.5802 76.0727 H 0.0 **** 0.053
19836 H19836 20.679 30.4191 76.8273 H 0.0 **** 0.053
19837 H19837 19.4905 31.4036 74.1958 H 0.0 **** 0.053
19838 H19838 21.1848 30.9073 74.3783 H 0.0 **** 0.053
19839 H19839 20.7814 33.4309 74.6709 H 0.0 **** 0.053
19840 H19840 21.6065 32.6699 76.025 H 0.0 **** 0.053
19841 H19841 16.8347 32.38 75.2874 H 0.0 **** 0.1268
19842 H19842 15.6531 31.8469 70.1316 H 0.0 **** 0.1268
19843 H19843 14.9548 31.8279 67.8646 H 0.0 **** 0.1268
19844 H19844 9.71795 29.3717 73.3867 H 0.0 **** 0.1268
19845 H19845 13.8199 30.309 62.7282 H 0.0 **** 0.053
19846 H19846 15.2717 30.6638 64.4571 H 0.0 **** 0.053
19847 H19847 13.9212 33.3657 64.714 H 0.0 **** 0.053
19848 H19848 16.034 33.3511 63.2302 H 0.0 **** 0.053
19849 H19849 17.0627 32.1749 64.0517 H 0.0 **** 0.053
19850 H19850 16.4306 30.4966 62.1602 H 0.0 **** 0.053
19851 H19851 17.4476 31.8341 61.6156 H 0.0 **** 0.053
19852 H19852 15.6624 32.9816 60.6003 H 0.0 **** 0.053
19853 H19853 13.8848 33.2594 61.988 H 0.0 **** 0.053
19854 H19854 12.7251 30.7491 60.7125 H 0.0 **** 0.053
19855 H19855 11.9073 32.272 61.0586 H 0.0 **** 0.053
19856 H19856 13.3561 33.3891 59.2967 H 0.0 **** 0.053
19857 H19857 12.36 32.0967 58.6132 H 0.0 **** 0.053
19858 H19858 15.0757 32.2558 58.1723 H 0.0 **** 0.053
19859 H19859 14.2158 30.7098 58.1728 H 0.0 **** 0.053
19860 H19860 15.0159 30.1659 60.205 H 0.0 **** 0.353
19861 H19861 5.83199 29.4521 71.8457 H 0.0 **** 0.053
19862 H19862 6.92254 27.9754 73.4943 H 0.0 **** 0.053
19863 H19863 8.34634 26.4344 71.3379 H 0.0 **** 0.053
19864 H19864 7.94476 25.9422 72.9889 H 0.0 **** 0.053
19865 H19865 6.49049 24.5373 71.7429 H 0.0 **** 0.053
19866 H19866 6.27461 25.7312 70.451 H 0.0 **** 0.053
19867 H19867 5.11252 26.0186 73.2723 H 0.0 **** 0.053
19868 H19868 4.18498 25.4566 71.8786 H 0.0 **** 0.053
19869 H19869 4.09782 28.0395 72.5307 H 0.0 **** 0.053
19870 H19870 4.19146 27.5965 70.8211 H 0.0 **** 0.053
19871 H19871 6.04056 28.3175 67.8738 H 0.0 **** 0.1268
19872 H19872 5.36525 28.192 65.4968 H 0.0 **** 0.1268
19873 H19873 11.3828 30.5724 62.3879 H 0.0 **** 0.1268
19874 H19874 10.4565 30.8416 60.1409 H 0.0 **** 0.053
19875 H19875 8.49187 30.9213 59.0482 H 0.0 **** 0.053
19876 H19876 9.14343 28.0952 58.1756 H 0.0 **** 0.053
19877 H19877 10.5922 30.7003 57.5646 H 0.0 **** 0.053
19878 H19878 10.7843 29.2549 56.5618 H 0.0 **** 0.053
19879 H19879 12.404 29.7048 58.6903 H 0.0 **** 0.053
19880 H19880 11.9602 28.0647 58.2053 H 0.0 **** 0.053
19881 H19881 11.7015 28.7473 60.7551 H 0.0 **** 0.053
19882 H19882 10.4067 27.8073 60.0157 H 0.0 **** 0.053
19883 H19883 19.2396 28.3792 76.4577 H 0.0 **** 0.053
19884 H19884 18.6807 27.6727 74.1726 H 0.0 **** 0.053
19885 H19885 19.3895 29.1501 73.4876 H 0.0 **** 0.053
19886 H19886 17.9033 29.2485 74.457 H 0.0 **** 0.053
19887 H19887 21.7323 28.3312 76.3198 H 0.0 **** 0.053
19888 H19888 21.6529 28.7376 74.5873 H 0.0 **** 0.053
19889 H19889 21.0072 27.1849 75.1599 H 0.0 **** 0.053
19890 H19890 15.0684 33.5084 66.6615 H 0.0 **** 0.41
19891 H19891 3.41949 27.8101 62.1864 H 0.0 **** 0.1268
19892 H19892 1.59996 27.4961 60.5429 H 0.0 **** 0.1268
19893 H19893 0.773485 27.612 58.2185 H 0.0 **** 0.1268
19894 H19894 -0.0688759 27.7362 55.9116 H 0.0 **** 0.1268
19895 H19895 0.32586 28.2023 53.5049 H 0.0 **** 0.1268
19896 H19896 4.08696 29.4974 50.8794 H 0.0 **** 0.1268
19897 H19897 1.84283 28.8766 51.6828 H 0.0 **** 0.1268
19898 H19898 9.24213 29.8436 55.3047 H 0.0 **** 0.1268
19899 H19899 9.12908 31.1525 53.7578 H 0.0 **** 0.053
19900 H19900 9.445 29.7062 52.7949 H 0.0 **** 0.053
19901 H19901 9.66884 31.7286 51.3771 H 0.0 **** 0.053
19902 H19902 8.03893 32.2615 51.8422 H 0.0 **** 0.053
19903 H19903 8.71369 29.6621 50.3461 H 0.0 **** 0.053
19904 H19904 7.91739 31.06 49.6134 H 0.0 **** 0.053
19905 C19905 33.0222 53.8419 74.4742 C.3 0.0 **** 0.054
19906 C19906 32.4394 53.9532 75.9026 C.3 0.0 **** -0.106
19907 C19907 33.5713 54.0538 76.946 C.3 0.0 **** -0.053
19908 C19908 34.6978 53.0824 76.5576 C.3 0.0 **** -0.053
19909 C19909 35.2493 53.4706 75.1611 C.3 0.0 **** 0.054
19910 O19910 34.3687 54.3258 74.4223 O.3 0.0 **** -0.32
19911 C19911 34.2113 51.6185 76.6035 C.3 0.0 **** -0.053
19912 C19912 33.2304 51.3564 77.782 C.3 0.0 **** 0.107
19913 C19913 33.4266 52.3761 78.8911 C.3 0.0 **** -0.106
19914 C19914 33.0774 53.7899 78.3915 C.3 0.0 **** -0.106
19915 O19915 33.4206 50.0535 78.3549 O.3 0.0 **** -0.32
19916 C19916 33.5721 49.0218 77.3651 C.3 0.0 **** 0.107
19917 C19917 34.9671 49.17 76.7317 C.3 0.0 **** -0.053
19918 C19918 35.3979 50.6662 76.7242 C.3 0.0 **** -0.106
19919 C19919 35.116 48.4905 75.4109 C.2 0.0 **** 0.0
19920 C19920 34.0543 47.9296 74.719 C.2 0.0 **** 0.0
19921 C19921 32.6946 48.0905 75.1692 C.2 0.0 **** 0.0
19922 C19922 32.4091 48.9759 76.3614 C.3 0.0 **** -0.053
19923 C19923 31.6261 47.596 74.4418 C.2 0.0 **** 0.0
19924 C19924 31.8626 46.8504 73.2282 C.2 0.0 **** 0.0
19925 C19925 33.2194 46.6649 72.8235 C.2 0.0 **** 0.232
19926 C19926 34.29 47.1804 73.5001 C.2 0.0 **** 0.0
19927 C19927 35.6932 46.9863 72.984 C.3 0.0 **** -0.106
19928 C19928 36.7244 47.072 74.1097 C.3 0.0 **** -0.106
19929 C19929 36.5227 48.3696 74.8958 C.3 0.0 **** -0.106
19930 O19930 33.4967 45.9609 71.6673 O.3 0.0 **** -0.464
19931 C19931 32.4914 45.334 70.9718 C.2 0.0 **** 0.232
19932 C19932 31.1354 45.5221 71.2952 C.2 0.0 **** 0.0
19933 C19933 30.8219 46.3395 72.4431 C.2 0.0 **** 0.0
19934 C19934 31.0781 48.6587 77.001 C.2 0.0 **** 0.0
19935 C19935 29.9647 48.4355 76.0823 C.2 0.0 **** 0.0
19936 C19936 30.2396 47.8339 74.8526 C.2 0.0 **** 0.0
19937 C19937 28.6217 48.6915 76.5993 C.2 0.0 **** 0.0
19938 C19938 28.3949 48.5573 77.9386 C.2 0.0 **** 0.0
19939 C19939 29.5098 48.2969 78.8979 C.3 0.0 **** -0.106
19940 C19940 30.8679 48.5787 78.3339 C.2 0.0 **** -0.1268
19941 C19941 26.9994 48.7129 78.4751 C.3 0.0 **** -0.106
19942 C19942 25.9752 48.2614 77.4299 C.3 0.0 **** -0.106
19943 C19943 26.2385 48.9718 76.1248 C.2 0.0 **** 0.0
19944 C19944 27.5198 49.1918 75.7458 C.2 0.0 **** 0.0
19945 C19945 27.8652 50.0711 74.5662 C.3 0.0 **** -0.106
19946 C19946 26.6565 50.8003 73.9685 C.3 0.0 **** -0.053
19947 C19947 25.4676 49.8358 73.8947 C.3 0.0 **** -0.106
19948 C19948 25.0603 49.4105 75.3053 C.3 0.0 **** -0.106
19949 C19949 29.4776 46.6062 72.8661 C.2 0.0 **** -0.012
19950 C19950 29.2099 47.2979 74.0218 C.2 0.0 **** -0.1268
19951 C19951 30.1882 44.8334 70.4952 C.2 0.0 **** 0.0
19952 C19952 28.7748 44.9899 70.7278 C.2 0.0 **** -0.012
19953 S19953 28.106 46.1205 71.8941 S.2 0.0 **** 0.024
19954 C19954 27.8552 44.2938 69.9856 C.2 0.0 **** -0.1268
19955 C19955 28.2603 43.3934 68.9654 C.2 0.0 **** 0.0
19956 C19956 29.6506 43.2312 68.6789 C.2 0.0 **** 0.0
19957 C19957 30.6122 43.9577 69.4338 C.2 0.0 **** 0.0
19958 C19958 30.0442 42.3523 67.6358 C.2 0.0 **** 0.0
19959 C19959 29.0582 41.6135 66.9125 C.2 0.0 **** 0.0
19960 C19960 27.6669 41.742 67.2684 C.2 0.0 **** 0.0
19961 C19961 27.3057 42.6688 68.2585 C.2 0.0 **** -0.1268
19962 C19962 26.7108 40.915 66.6074 C.2 0.0 **** 0.0
19963 C19963 27.1124 40.1352 65.5393 C.2 0.0 **** 0.042
19964 C19964 28.4593 40.0635 65.0734 C.2 0.0 **** 0.0
19965 C19965 29.4386 40.769 65.8274 C.2 0.0 **** 0.0
19966 C19966 32.0088 43.8068 69.1364 C.2 0.0 **** 0.0
19967 C19967 32.9176 44.5219 69.9437 C.2 0.0 **** -0.1268
19968 C19968 31.4355 42.2176 67.3157 C.2 0.0 **** 0.0
19969 C19969 32.4216 42.938 68.0541 C.2 0.0 **** 0.0
19970 C19970 30.8281 40.653 65.4898 C.2 0.0 **** 0.0
19971 C19971 31.8063 41.3571 66.2391 C.2 0.0 **** 0.0
19972 C19972 28.8566 39.3018 63.9152 C.2 0.0 **** 0.0
19973 C19973 30.2468 39.1585 63.6273 C.2 0.0 **** 0.0
19974 C19974 31.2255 39.8213 64.41 C.2 0.0 **** 0.0
19975 O19975 26.1506 39.3268 64.9727 O.3 0.0 **** -0.202
19976 C19976 24.9185 39.9899 64.5712 C.3 0.0 **** 0.107
19977 C19977 24.4315 40.9895 65.6498 C.3 0.0 **** -0.053
19978 C19978 25.2332 40.7173 66.9308 C.3 0.0 **** 0.107
19979 C19979 22.911 40.9154 65.8344 C.3 0.0 **** -0.106
19980 C19980 22.2484 40.791 64.4584 C.3 0.0 **** -0.106
19981 C19981 22.5177 39.4037 63.8678 C.3 0.0 **** 0.134
19982 C19982 23.9336 38.8639 64.2612 C.3 0.0 **** -0.053
19983 C19983 24.4776 37.9568 63.1449 C.3 0.0 **** -0.106
19984 C19984 23.369 37.109 62.5234 C.3 0.0 **** -0.106
19985 C19985 22.2981 38.0306 61.8747 C.3 0.0 **** 0.081
19986 N19986 22.2702 39.3942 62.4254 N.3 0.0 **** -0.727
19987 C19987 33.7966 42.7532 67.6694 C.2 0.0 **** 0.042
19988 C19988 34.1561 41.8777 66.6563 C.2 0.0 **** 0.042
19989 C19989 33.1813 41.1814 65.896 C.2 0.0 **** 0.0
19990 O19990 35.4647 41.6416 66.303 O.3 0.0 **** -0.202
19991 C19991 36.4439 42.101 67.2598 C.3 0.0 **** 0.107
19992 C19992 36.0547 43.5133 67.6635 C.3 0.0 **** 0.107
19993 O19993 34.7762 43.4639 68.3261 O.3 0.0 **** -0.202
19994 C19994 36.0271 44.484 66.4644 C.3 0.0 **** -0.106
19995 C19995 36.99 44.0636 65.333 C.3 0.0 **** -0.106
19996 C19996 38.2215 43.3543 65.9074 C.3 0.0 **** -0.106
19997 C19997 37.8233 42.0351 66.6007 C.3 0.0 **** -0.106
19998 C19998 32.6121 39.6615 64.0803 C.2 0.0 **** 0.0
19999 C19999 33.5641 40.3409 64.8403 C.2 0.0 **** -0.1268
20000 C20000 30.6463 38.3488 62.5273 C.2 0.0 **** 0.0
20001 C20001 32.0384 38.1851 62.2476 C.2 0.0 **** 0.042
20002 C20002 32.9957 38.8196 62.9898 C.2 0.0 **** -0.1268
20003 C20003 29.6974 37.7229 61.705 C.2 0.0 **** 0.0
20004 C20004 28.3332 37.9356 61.9426 C.2 0.0 **** 0.0
20005 C20005 27.9443 38.7063 63.0228 C.2 0.0 **** -0.1268
20006 O20006 32.4511 37.379 61.1975 O.3 0.0 **** -0.0685
20007 C20007 31.5324 36.7023 60.4283 C.2 0.0 **** 0.0265
20008 C20008 30.1523 36.8701 60.6336 C.2 0.0 **** 0.0
20009 C20009 27.2733 37.3821 61.0275 C.3 0.0 **** -0.053
20010 C20010 27.7587 36.2253 60.1235 C.3 0.0 **** -0.053
20011 C20011 29.2361 36.1775 59.8375 C.2 0.0 **** 0.0
20012 C20012 27.0009 36.1943 58.7828 C.3 0.0 **** -0.053
20013 C20013 25.5251 36.4971 59.0155 C.3 0.0 **** -0.106
20014 C20014 25.365 37.9669 59.4778 C.3 0.0 **** -0.106
20015 C20015 26.6284 38.4959 60.1828 C.3 0.0 **** -0.106
20016 C20016 29.6857 35.3176 58.824 C.2 0.0 **** 0.0
20017 C20017 31.0825 35.0975 58.6588 C.2 0.0 **** 0.0
20018 C20018 32.0296 35.8115 59.4583 C.2 0.0 **** 0.0
20019 C20019 27.3611 34.9337 58.0455 C.2 0.0 **** 0.0
20020 C20020 28.7439 34.6013 58.0072 C.2 0.0 **** 0.0
20021 C20021 27.013 51.4524 72.6161 C.3 0.0 **** -0.053
20022 C20022 27.1602 50.4264 71.4849 C.3 0.0 **** -0.159
20023 C20023 25.9871 52.5235 72.232 C.3 0.0 **** -0.159
20024 O20024 24.6612 41.4944 67.9843 O.3 0.0 **** -0.57
20025 C20025 33.429 35.5742 59.2599 C.2 0.0 **** -0.1268
20026 C20026 33.859 34.6545 58.3442 C.2 0.0 **** -0.1268
20027 C20027 32.9363 33.8884 57.5574 C.2 0.0 **** 0.0
20028 C20028 31.5334 34.125 57.7233 C.2 0.0 **** 0.0
20029 C20029 30.5968 33.3639 56.9749 C.2 0.0 **** 0.0
20030 C20030 31.0465 32.3758 56.0678 C.2 0.0 **** 0.0
20031 C20031 32.4514 32.1498 55.9039 C.2 0.0 **** 0.0
20032 C20032 33.3634 32.9123 56.6513 C.2 0.0 **** -0.1268
20033 C20033 32.8866 31.147 54.9832 C.2 0.0 **** -0.1268
20034 C20034 31.9817 30.4091 54.2671 C.2 0.0 **** -0.1268
20035 C20035 30.5764 30.6194 54.4122 C.2 0.0 **** 0.0
20036 C20036 30.1073 31.6108 55.3147 C.2 0.0 **** 0.0
20037 C20037 28.7053 31.8393 55.4582 C.2 0.0 **** 0.0
20038 C20038 28.2562 32.8419 56.3638 C.2 0.0 **** 0.0
20039 C20039 29.1936 33.5993 57.1227 C.2 0.0 **** 0.0
20040 C20040 27.7658 31.0866 54.6928 C.2 0.0 **** 0.0
20041 C20041 28.2729 30.0875 53.8163 C.2 0.0 **** -0.1268
20042 C20042 29.6279 29.865 53.686 C.2 0.0 **** -0.1268
20043 C20043 26.4559 34.1687 57.3447 C.2 0.0 **** -0.1268
20044 C20044 26.8643 33.0846 56.5242 C.2 0.0 **** 0.0
20045 C20045 26.3506 31.3385 54.8717 C.2 0.0 **** 0.052
20046 C20046 25.9192 32.2751 55.8207 C.2 0.0 **** 0.0
20047 C20047 24.4524 32.4629 56.1389 C.3 0.0 **** -0.106
20048 C20048 23.6322 31.2197 55.8171 C.3 0.0 **** -0.106
20049 C20049 23.857 30.861 54.3576 C.3 0.0 **** -0.086
20050 C20050 25.3272 30.6914 53.9953 C.2 0.0 **** 0.347
20051 O20051 25.5985 30.0787 52.9615 O.2 0.0 **** -0.419
20052 H20052 32.4549 54.4498 73.7564 H 0.0 **** 0.053
20053 H20053 32.9979 52.7903 74.1246 H 0.0 **** 0.053
20054 H20054 31.7913 54.8384 75.9923 H 0.0 **** 0.053
20055 H20055 31.8117 53.0727 76.1125 H 0.0 **** 0.053
20056 H20056 33.9763 55.0744 76.8848 H 0.0 **** 0.053
20057 H20057 35.516 53.1843 77.2899 H 0.0 **** 0.053
20058 H20058 35.4468 52.5519 74.57 H 0.0 **** 0.053
20059 H20059 36.1885 54.035 75.2459 H 0.0 **** 0.053
20060 H20060 33.6949 51.4074 75.6534 H 0.0 **** 0.053
20061 H20061 32.186 51.4281 77.4215 H 0.0 **** 0.053
20062 H20062 34.4768 52.331 79.2216 H 0.0 **** 0.053
20063 H20063 32.8048 52.1034 79.7558 H 0.0 **** 0.053
20064 H20064 33.5134 54.5294 79.0798 H 0.0 **** 0.053
20065 H20065 31.985 53.9334 78.429 H 0.0 **** 0.053
20066 H20066 33.5383 48.082 77.9356 H 0.0 **** 0.053
20067 H20067 35.6788 48.6675 77.4145 H 0.0 **** 0.053
20068 H20068 36.1168 50.851 75.9123 H 0.0 **** 0.053
20069 H20069 35.9155 50.8936 77.6695 H 0.0 **** 0.053
20070 H20070 32.2941 49.9856 75.9175 H 0.0 **** 0.053
20071 H20071 35.7671 46.0269 72.4522 H 0.0 **** 0.053
20072 H20072 35.9138 47.7693 72.2339 H 0.0 **** 0.053
20073 H20073 37.7444 47.0195 73.6993 H 0.0 **** 0.053
20074 H20074 36.594 46.2151 74.7904 H 0.0 **** 0.053
20075 H20075 36.7619 49.228 74.2365 H 0.0 **** 0.053
20076 H20076 37.2291 48.4345 75.7407 H 0.0 **** 0.053
20077 H20077 29.4636 47.2432 79.2515 H 0.0 **** 0.053
20078 H20078 29.3409 48.8889 79.8187 H 0.0 **** 0.053
20079 H20079 31.6867 48.7208 79.0372 H 0.0 **** 0.1268
20080 H20080 26.8918 48.1414 79.4109 H 0.0 **** 0.053
20081 H20081 26.8231 49.7773 78.7318 H 0.0 **** 0.053
20082 H20082 24.9473 48.462 77.77 H 0.0 **** 0.053
20083 H20083 26.0603 47.1668 77.2873 H 0.0 **** 0.053
20084 H20084 28.6181 50.8092 74.8959 H 0.0 **** 0.053
20085 H20085 28.3673 49.4886 73.7788 H 0.0 **** 0.053
20086 H20086 26.3736 51.6136 74.6627 H 0.0 **** 0.053
20087 H20087 25.7635 48.9433 73.3194 H 0.0 **** 0.053
20088 H20088 24.6163 50.2966 73.3707 H 0.0 **** 0.053
20089 H20089 24.3245 48.5864 75.2698 H 0.0 **** 0.053
20090 H20090 24.5407 50.2436 75.8177 H 0.0 **** 0.053
20091 H20091 28.1742 47.4125 74.3409 H 0.0 **** 0.1268
20092 H20092 26.7863 44.4144 70.1758 H 0.0 **** 0.1268
20093 H20093 26.257 42.8574 68.4661 H 0.0 **** 0.1268
20094 H20094 33.983 44.4464 69.7834 H 0.0 **** 0.1268
20095 H20095 25.1391 40.5362 63.635 H 0.0 **** 0.053
20096 H20096 24.6872 42.0099 65.3222 H 0.0 **** 0.053
20097 H20097 25.0991 39.6421 67.17 H 0.0 **** 0.053
20098 H20098 22.65 40.0432 66.4581 H 0.0 **** 0.053
20099 H20099 22.5654 41.8047 66.3766 H 0.0 **** 0.053
20100 H20100 22.6682 41.559 63.7837 H 0.0 **** 0.053
20101 H20101 21.1646 40.9667 64.4967 H 0.0 **** 0.053
20102 H20102 21.7825 38.705 64.3023 H 0.0 **** 0.053
20103 H20103 23.8305 38.2676 65.1837 H 0.0 **** 0.053
20104 H20104 24.9179 38.5931 62.3579 H 0.0 **** 0.053
20105 H20105 25.2946 37.3324 63.5312 H 0.0 **** 0.053
20106 H20106 22.9103 36.4861 63.3079 H 0.0 **** 0.053
20107 H20107 23.7836 36.4194 61.7708 H 0.0 **** 0.053
20108 H20108 21.2974 37.585 62.0052 H 0.0 **** 0.053
20109 H20109 22.47 38.1155 60.7914 H 0.0 **** 0.053
20110 H20110 22.9719 39.972 61.9609 H 0.0 **** 0.353
20111 H20111 36.3871 41.4441 68.1437 H 0.0 **** 0.053
20112 H20112 36.7467 43.8669 68.441 H 0.0 **** 0.053
20113 H20113 34.9957 44.5286 66.0856 H 0.0 **** 0.053
20114 H20114 36.2795 45.489 66.8333 H 0.0 **** 0.053
20115 H20115 37.2873 44.9487 64.7516 H 0.0 **** 0.053
20116 H20116 36.4716 43.3788 64.6457 H 0.0 **** 0.053
20117 H20117 38.7127 44.0236 66.6343 H 0.0 **** 0.053
20118 H20118 38.962 43.1491 65.1204 H 0.0 **** 0.053
20119 H20119 38.5689 41.7626 67.3625 H 0.0 **** 0.053
20120 H20120 37.792 41.2095 65.8732 H 0.0 **** 0.053
20121 H20121 34.6214 40.2227 64.6085 H 0.0 **** 0.1268
20122 H20122 34.0519 38.6903 62.7513 H 0.0 **** 0.1268
20123 H20123 26.8878 38.8418 63.1929 H 0.0 **** 0.1268
20124 H20124 26.4677 36.982 61.6618 H 0.0 **** 0.053
20125 H20125 27.5181 35.275 60.6407 H 0.0 **** 0.053
20126 H20126 27.4153 37.0161 58.1647 H 0.0 **** 0.053
20127 H20127 25.1418 35.8035 59.7832 H 0.0 **** 0.053
20128 H20128 24.9332 36.3255 58.1052 H 0.0 **** 0.053
20129 H20129 24.5101 38.0387 60.1649 H 0.0 **** 0.053
20130 H20130 25.1336 38.6066 58.6122 H 0.0 **** 0.053
20131 H20131 26.3831 39.3515 60.8299 H 0.0 **** 0.053
20132 H20132 27.3668 38.8616 59.4518 H 0.0 **** 0.053
20133 H20133 27.9895 51.9519 72.7538 H 0.0 **** 0.053
20134 H20134 27.5457 50.9093 70.5745 H 0.0 **** 0.053
20135 H20135 26.1834 49.9826 71.2377 H 0.0 **** 0.053
20136 H20136 27.8432 49.6044 71.7479 H 0.0 **** 0.053
20137 H20137 25.8965 53.2873 73.0204 H 0.0 **** 0.053
20138 H20138 24.9927 52.0746 72.0794 H 0.0 **** 0.053
20139 H20139 26.2712 53.0263 71.295 H 0.0 **** 0.053
20140 H20140 25.0676 41.1996 68.8138 H 0.0 **** 0.41
20141 H20141 34.1444 36.1357 59.8606 H 0.0 **** 0.1268
20142 H20142 34.9266 34.4771 58.203 H 0.0 **** 0.1268
20143 H20143 34.4334 32.7317 56.5267 H 0.0 **** 0.1268
20144 H20144 33.9591 30.9813 54.8661 H 0.0 **** 0.1268
20145 H20145 32.3201 29.6395 53.5705 H 0.0 **** 0.1268
20146 H20146 27.5676 29.5031 53.2351 H 0.0 **** 0.1268
20147 H20147 29.9847 29.0873 53.0074 H 0.0 **** 0.1268
20148 H20148 25.4034 34.435 57.391 H 0.0 **** 0.1268
20149 H20149 24.3442 32.714 57.2034 H 0.0 **** 0.053
20150 H20150 24.0539 33.3257 55.5723 H 0.0 **** 0.053
20151 H20151 22.5658 31.3944 56.0257 H 0.0 **** 0.053
20152 H20152 23.9654 30.391 56.4631 H 0.0 **** 0.053
20153 H20153 23.4706 31.672 53.7128 H 0.0 **** 0.053
20154 H20154 23.3411 29.9411 54.0479 H 0.0 **** 0.053
20155 C20155 37.3463 21.3447 29.4754 C.3 0.0 **** 0.054
20156 C20156 37.5157 22.6646 30.2638 C.3 0.0 **** -0.106
20157 C20157 37.3383 22.4215 31.7769 C.3 0.0 **** -0.053
20158 C20158 36.1732 21.4422 31.9932 C.3 0.0 **** -0.053
20159 C20159 36.4972 20.0981 31.2906 C.3 0.0 **** 0.054
20160 O20160 37.5449 20.2053 30.3192 O.3 0.0 **** -0.32
20161 C20161 34.8398 22.0464 31.5043 C.3 0.0 **** -0.053
20162 C20162 34.7363 23.5703 31.7986 C.3 0.0 **** 0.107
20163 C20163 35.6471 23.9663 32.9483 C.3 0.0 **** -0.106
20164 C20164 37.1219 23.7343 32.5723 C.3 0.0 **** -0.106
20165 O20165 33.3995 23.9555 32.1544 O.3 0.0 **** -0.32
20166 C20166 32.4006 23.3662 31.3048 C.3 0.0 **** 0.107
20167 C20167 32.2851 21.875 31.6683 C.3 0.0 **** -0.053
20168 C20168 33.6599 21.3332 32.159 C.3 0.0 **** -0.106
20169 C20169 31.6447 21.0347 30.6136 C.2 0.0 **** 0.0
20170 C20170 31.3432 21.5039 29.345 C.2 0.0 **** 0.0
20171 C20171 31.7612 22.8123 28.9083 C.2 0.0 **** 0.0
20172 C20172 32.6362 23.6505 29.813 C.3 0.0 **** -0.053
20173 C20173 31.5273 23.2557 27.6183 C.2 0.0 **** 0.0
20174 C20174 30.8 22.4231 26.6896 C.2 0.0 **** 0.0
20175 C20175 30.3565 21.1485 27.1564 C.2 0.0 **** 0.232
20176 C20176 30.6126 20.6691 28.4111 C.2 0.0 **** 0.0
20177 C20177 30.1559 19.2909 28.817 C.3 0.0 **** -0.106
20178 C20178 29.9811 19.1786 30.3319 C.3 0.0 **** -0.106
20179 C20179 31.2589 19.6444 31.034 C.3 0.0 **** -0.106
20180 O20180 29.659 20.3143 26.3039 O.3 0.0 **** -0.464
20181 C20181 29.2815 20.7466 25.0558 C.2 0.0 **** 0.232
20182 C20182 29.7306 21.9699 24.5262 C.2 0.0 **** 0.0
20183 C20183 30.5467 22.8116 25.3685 C.2 0.0 **** 0.0
20184 C20184 32.5731 25.1191 29.4658 C.2 0.0 **** 0.0
20185 C20185 32.6216 25.4419 28.0421 C.2 0.0 **** 0.0
20186 C20186 32.0278 24.55 27.1468 C.2 0.0 **** 0.0
20187 C20187 33.1265 26.7657 27.6829 C.2 0.0 **** 0.0
20188 C20188 32.9865 27.7886 28.5759 C.2 0.0 **** 0.0
20189 C20189 32.4631 27.5557 29.9554 C.3 0.0 **** -0.106
20190 C20190 32.4829 26.1178 30.3723 C.2 0.0 **** -0.1268
20191 C20191 33.4031 29.1788 28.1845 C.3 0.0 **** -0.106
20192 C20192 33.2153 29.3853 26.6787 C.3 0.0 **** -0.106
20193 C20193 33.9099 28.277 25.9262 C.2 0.0 **** 0.0
20194 C20194 33.8774 27.0213 26.4325 C.2 0.0 **** 0.0
20195 C20195 34.7151 25.9041 25.8545 C.3 0.0 **** -0.106
20196 C20196 35.7011 26.3694 24.777 C.3 0.0 **** -0.053
20197 C20197 35.0054 27.3747 23.8526 C.3 0.0 **** -0.106
20198 C20198 34.6148 28.621 24.6468 C.3 0.0 **** -0.106
20199 C20199 31.0662 24.0767 24.9365 C.2 0.0 **** -0.012
20200 C20200 31.7497 24.905 25.7924 C.2 0.0 **** -0.1268
20201 C20201 29.2849 22.3011 23.2211 C.2 0.0 **** 0.0
20202 C20202 29.7188 23.5168 22.5808 C.2 0.0 **** -0.012
20203 S20203 30.9133 24.6021 23.2744 S.2 0.0 **** 0.024
20204 C20204 29.2578 23.8634 21.3364 C.2 0.0 **** -0.1268
20205 C20205 28.3364 23.0413 20.6359 C.2 0.0 **** 0.0
20206 C20206 27.9039 21.8108 21.2191 C.2 0.0 **** 0.0
20207 C20207 28.3855 21.4353 22.5035 C.2 0.0 **** 0.0
20208 C20208 27.0069 20.9804 20.4973 C.2 0.0 **** 0.0
20209 C20209 26.5171 21.3959 19.2211 C.2 0.0 **** 0.0
20210 C20210 26.9138 22.6747 18.6863 C.2 0.0 **** 0.0
20211 C20211 27.8532 23.4407 19.3937 C.2 0.0 **** -0.1268
20212 C20212 26.329 23.1176 17.4629 C.2 0.0 **** 0.0
20213 C20213 25.5283 22.2521 16.742 C.2 0.0 **** 0.042
20214 C20214 25.2006 20.9317 17.1729 C.2 0.0 **** 0.0
20215 C20215 25.658 20.545 18.4638 C.2 0.0 **** 0.0
20216 C20216 27.9633 20.1918 23.0839 C.2 0.0 **** 0.0
20217 C20217 28.4423 19.8912 24.3758 C.2 0.0 **** -0.1268
20218 C20218 26.6026 19.7245 21.0592 C.2 0.0 **** 0.0
20219 C20219 27.0738 19.3208 22.3443 C.2 0.0 **** 0.0
20220 C20220 25.2732 19.2772 19.0139 C.2 0.0 **** 0.0
20221 C20221 25.7296 18.8885 20.3003 C.2 0.0 **** 0.0
20222 C20222 24.4222 20.0112 16.3816 C.2 0.0 **** 0.0
20223 C20223 24.0083 18.7774 16.9667 C.2 0.0 **** 0.0
20224 C20224 24.4229 18.4146 18.273 C.2 0.0 **** 0.0
20225 O20225 24.9588 22.7553 15.5921 O.3 0.0 **** -0.202
20226 C20226 25.877 23.3692 14.6439 C.3 0.0 **** 0.107
20227 C20227 26.9098 24.2774 15.3569 C.3 0.0 **** -0.053
20228 C20228 26.426 24.4875 16.7989 C.3 0.0 **** 0.107
20229 C20229 27.1421 25.5778 14.578 C.3 0.0 **** -0.106
20230 C20230 27.2137 25.2553 13.0818 C.3 0.0 **** -0.106
20231 C20231 25.8263 24.8704 12.5592 C.3 0.0 **** 0.134
20232 C20232 24.9912 24.0925 13.6309 C.3 0.0 **** -0.053
20233 C20233 24.0388 23.1044 12.9372 C.3 0.0 **** -0.106
20234 C20234 23.4633 23.6925 11.65 C.3 0.0 **** -0.106
20235 C20235 24.6113 23.9935 10.6459 C.3 0.0 **** 0.081
20236 N20236 25.9275 24.1702 11.278 N.3 0.0 **** -0.727
20237 C20237 26.6265 18.0444 22.8378 C.2 0.0 **** 0.042
20238 C20238 25.7385 17.2585 22.1195 C.2 0.0 **** 0.042
20239 C20239 25.2894 17.6366 20.8278 C.2 0.0 **** 0.0
20240 O20240 25.2534 16.0599 22.5896 O.3 0.0 **** -0.202
20241 C20241 25.4618 15.8323 24.0004 C.3 0.0 **** 0.107
20242 C20242 26.906 16.1907 24.3084 C.3 0.0 **** 0.107
20243 O20243 27.093 17.5965 24.0535 O.3 0.0 **** -0.202
20244 C20244 27.9105 15.3375 23.5061 C.3 0.0 **** -0.106
20245 C20245 27.3484 13.9496 23.1293 C.3 0.0 **** -0.106
20246 C20246 26.378 13.4495 24.2053 C.3 0.0 **** -0.106
20247 C20247 25.1412 14.3665 24.3002 C.3 0.0 **** -0.106
20248 C20248 23.9955 17.1599 18.8206 C.2 0.0 **** 0.0
20249 C20249 24.4326 16.8016 20.0957 C.2 0.0 **** -0.1268
20250 C20250 23.1801 17.8977 16.2147 C.2 0.0 **** 0.0
20251 C20251 22.7456 16.6703 16.8041 C.2 0.0 **** 0.042
20252 C20252 23.1385 16.3029 18.0613 C.2 0.0 **** -0.1268
20253 C20253 22.7972 18.2078 14.9012 C.2 0.0 **** 0.0
20254 C20254 23.2755 19.381 14.3032 C.2 0.0 **** 0.0
20255 C20255 24.0643 20.2455 15.0398 C.2 0.0 **** -0.1268
20256 O20256 21.9161 15.8108 16.0998 O.3 0.0 **** -0.0685
20257 C20257 21.475 16.1374 14.8379 C.2 0.0 **** 0.0265
20258 C20258 21.9142 17.309 14.198 C.2 0.0 **** 0.0
20259 C20259 22.99 19.7096 12.8618 C.3 0.0 **** -0.053
20260 C20260 21.7966 18.9323 12.2598 C.3 0.0 **** -0.053
20261 C20261 21.4581 17.619 12.9139 C.2 0.0 **** 0.0
20262 C20262 21.9775 18.6926 10.749 C.3 0.0 **** -0.053
20263 C20263 22.5671 19.9367 10.0947 C.3 0.0 **** -0.106
20264 C20264 24.0181 20.1463 10.5952 C.3 0.0 **** -0.106
20265 C20265 24.2465 19.5336 11.9899 C.3 0.0 **** -0.106
20266 C20266 20.5669 16.7611 12.2518 C.2 0.0 **** 0.0
20267 C20267 20.0715 15.6086 12.9249 C.2 0.0 **** 0.0
20268 C20268 20.542 15.2737 14.2335 C.2 0.0 **** 0.0
20269 C20269 20.7014 18.1293 10.1861 C.2 0.0 **** 0.0
20270 C20270 20.0939 17.0815 10.9324 C.2 0.0 **** 0.0
20271 C20271 36.3215 25.1675 24.0341 C.3 0.0 **** -0.053
20272 C20272 35.3349 24.4933 23.0719 C.3 0.0 **** -0.159
20273 C20273 37.5955 25.5771 23.2881 C.3 0.0 **** -0.159
20274 O20274 27.2597 25.4762 17.4058 O.3 0.0 **** -0.57
20275 C20275 20.0307 14.1009 14.8794 C.2 0.0 **** -0.1268
20276 C20276 19.0809 13.3269 14.2727 C.2 0.0 **** -0.1268
20277 C20277 18.554 13.6578 12.9804 C.2 0.0 **** 0.0
20278 C20278 19.0667 14.8132 12.3068 C.2 0.0 **** 0.0
20279 C20279 18.546 15.178 11.037 C.2 0.0 **** 0.0
20280 C20280 17.525 14.4033 10.438 C.2 0.0 **** 0.0
20281 C20281 17.0221 13.2461 11.116 C.2 0.0 **** 0.0
20282 C20282 17.5493 12.8995 12.3704 C.2 0.0 **** -0.1268
20283 C20283 15.9903 12.4762 10.4953 C.2 0.0 **** -0.1268
20284 C20284 15.4844 12.8332 9.27354 C.2 0.0 **** -0.1268
20285 C20285 15.9727 13.9814 8.57808 C.2 0.0 **** 0.0
20286 C20286 17.0011 14.7676 9.16237 C.2 0.0 **** 0.0
20287 C20287 17.5066 15.9097 8.47048 C.2 0.0 **** 0.0
20288 C20288 18.5418 16.681 9.071 C.2 0.0 **** 0.0
20289 C20289 19.0583 16.3227 10.3489 C.2 0.0 **** 0.0
20290 C20290 16.9954 16.265 7.18701 C.2 0.0 **** 0.0
20291 C20291 15.9506 15.4664 6.64462 C.2 0.0 **** -0.1268
20292 C20292 15.46 14.3681 7.31962 C.2 0.0 **** -0.1268
20293 C20293 20.1684 18.4997 8.97183 C.2 0.0 **** -0.1268
20294 C20294 19.0584 17.8238 8.4007 C.2 0.0 **** 0.0
20295 C20295 17.525 17.436 6.51871 C.2 0.0 **** 0.052
20296 C20296 18.4902 18.2295 7.15332 C.2 0.0 **** 0.0
20297 C20297 18.9621 19.5353 6.55318 C.3 0.0 **** -0.106
20298 C20298 17.9283 20.1398 5.61094 C.3 0.0 **** -0.106
20299 C20299 17.5918 19.1113 4.54409 C.3 0.0 **** -0.086
20300 C20300 17.1389 17.7731 5.11464 C.2 0.0 **** 0.347
20301 O20301 16.5268 17.0067 4.36906 O.2 0.0 **** -0.419
20302 H20302 38.087 21.2562 28.669 H 0.0 **** 0.053
20303 H20303 36.3375 21.2904 29.0193 H 0.0 **** 0.053
20304 H20304 38.5107 23.1007 30.0864 H 0.0 **** 0.053
20305 H20305 36.7751 23.4 29.9118 H 0.0 **** 0.053
20306 H20306 38.2556 21.9312 32.1343 H 0.0 **** 0.053
20307 H20307 36.0744 21.2489 33.0745 H 0.0 **** 0.053
20308 H20308 35.5828 19.7047 30.7992 H 0.0 **** 0.053
20309 H20309 36.8526 19.3474 32.0102 H 0.0 **** 0.053
20310 H20310 34.7788 21.8863 30.416 H 0.0 **** 0.053
20311 H20311 35.036 24.1451 30.901 H 0.0 **** 0.053
20312 H20312 35.3735 23.3648 33.8302 H 0.0 **** 0.053
20313 H20313 35.4724 25.0197 33.2102 H 0.0 **** 0.053
20314 H20314 37.727 23.7225 33.4912 H 0.0 **** 0.053
20315 H20315 37.4852 24.5828 31.9694 H 0.0 **** 0.053
20316 H20316 31.465 23.8736 31.5823 H 0.0 **** 0.053
20317 H20317 31.6192 21.8158 32.5505 H 0.0 **** 0.053
20318 H20318 33.7265 20.2494 31.9828 H 0.0 **** 0.053
20319 H20319 33.7367 21.4872 33.2469 H 0.0 **** 0.053
20320 H20320 33.6655 23.327 29.5566 H 0.0 **** 0.053
20321 H20321 29.2246 19.0352 28.2915 H 0.0 **** 0.053
20322 H20322 30.9072 18.5491 28.4857 H 0.0 **** 0.053
20323 H20323 29.7373 18.1428 30.6134 H 0.0 **** 0.053
20324 H20324 29.1419 19.8176 30.6511 H 0.0 **** 0.053
20325 H20325 32.0764 18.9342 30.7971 H 0.0 **** 0.053
20326 H20326 31.1422 19.6123 32.1305 H 0.0 **** 0.053
20327 H20327 31.4276 27.954 30.0371 H 0.0 **** 0.053
20328 H20328 33.0385 28.1757 30.6704 H 0.0 **** 0.053
20329 H20329 32.4245 25.9005 31.4376 H 0.0 **** 0.1268
20330 H20330 32.8276 29.9192 28.7628 H 0.0 **** 0.053
20331 H20331 34.4694 29.329 28.4495 H 0.0 **** 0.053
20332 H20332 33.6086 30.3636 26.3609 H 0.0 **** 0.053
20333 H20333 32.1335 29.3804 26.4436 H 0.0 **** 0.053
20334 H20334 35.2684 25.4253 26.6821 H 0.0 **** 0.053
20335 H20335 34.075 25.1077 25.4454 H 0.0 **** 0.053
20336 H20336 36.5257 26.9072 25.2813 H 0.0 **** 0.053
20337 H20337 34.0958 26.9113 23.4368 H 0.0 **** 0.053
20338 H20338 35.6526 27.6458 23.0045 H 0.0 **** 0.053
20339 H20339 33.9617 29.2804 24.0465 H 0.0 **** 0.053
20340 H20340 35.515 29.2265 24.8697 H 0.0 **** 0.053
20341 H20341 32.0613 25.888 25.4398 H 0.0 **** 0.1268
20342 H20342 29.5874 24.7914 20.8637 H 0.0 **** 0.1268
20343 H20343 28.2446 24.3545 18.9576 H 0.0 **** 0.1268
20344 H20344 28.1562 18.9783 24.877 H 0.0 **** 0.1268
20345 H20345 26.4046 22.5446 14.129 H 0.0 **** 0.053
20346 H20346 27.8685 23.7378 15.4158 H 0.0 **** 0.053
20347 H20347 25.3922 24.8859 16.7349 H 0.0 **** 0.053
20348 H20348 26.3171 26.2846 14.7717 H 0.0 **** 0.053
20349 H20349 28.0602 26.0595 14.9375 H 0.0 **** 0.053
20350 H20350 27.9062 24.4082 12.9267 H 0.0 **** 0.053
20351 H20351 27.6065 26.0933 12.4898 H 0.0 **** 0.053
20352 H20352 25.2762 25.8033 12.3478 H 0.0 **** 0.053
20353 H20353 24.3912 24.8247 14.1975 H 0.0 **** 0.053
20354 H20354 24.603 22.1899 12.6854 H 0.0 **** 0.053
20355 H20355 23.2443 22.7967 13.6307 H 0.0 **** 0.053
20356 H20356 22.9159 24.6179 11.891 H 0.0 **** 0.053
20357 H20357 22.7349 22.9999 11.1987 H 0.0 **** 0.053
20358 H20358 24.3757 24.909 10.0771 H 0.0 **** 0.053
20359 H20359 24.7038 23.1784 9.9129 H 0.0 **** 0.053
20360 H20360 26.3675 23.2612 11.4266 H 0.0 **** 0.353
20361 H20361 24.7946 16.5131 24.5548 H 0.0 **** 0.053
20362 H20362 27.0774 16.0888 25.3894 H 0.0 **** 0.053
20363 H20363 28.1817 15.8945 22.5975 H 0.0 **** 0.053
20364 H20364 28.826 15.2337 24.1067 H 0.0 **** 0.053
20365 H20365 28.1768 13.2391 22.9925 H 0.0 **** 0.053
20366 H20366 26.8138 14.0184 22.1704 H 0.0 **** 0.053
20367 H20367 26.9015 13.4283 25.1765 H 0.0 **** 0.053
20368 H20368 26.0579 12.4175 23.9995 H 0.0 **** 0.053
20369 H20369 24.6901 14.2986 25.3014 H 0.0 **** 0.053
20370 H20370 24.3706 14.0528 23.5794 H 0.0 **** 0.053
20371 H20371 24.1095 15.8564 20.5291 H 0.0 **** 0.1268
20372 H20372 22.805 15.3559 18.4871 H 0.0 **** 0.1268
20373 H20373 24.4068 21.1494 14.5612 H 0.0 **** 0.1268
20374 H20374 22.7381 20.7799 12.8124 H 0.0 **** 0.053
20375 H20375 20.8955 19.568 12.3698 H 0.0 **** 0.053
20376 H20376 22.7214 17.8773 10.6436 H 0.0 **** 0.053
20377 H20377 21.9359 20.8029 10.3564 H 0.0 **** 0.053
20378 H20378 22.5587 19.8543 8.99852 H 0.0 **** 0.053
20379 H20379 24.2355 21.2231 10.6328 H 0.0 **** 0.053
20380 H20380 24.7269 19.7022 9.87947 H 0.0 **** 0.053
20381 H20381 25.1068 20.0073 12.4866 H 0.0 **** 0.053
20382 H20382 24.4827 18.4601 11.9177 H 0.0 **** 0.053
20383 H20383 36.6036 24.4295 24.8071 H 0.0 **** 0.053
20384 H20384 35.7656 23.5656 22.666 H 0.0 **** 0.053
20385 H20385 35.1119 25.1561 22.2216 H 0.0 **** 0.053
20386 H20386 34.3799 24.2399 23.5568 H 0.0 **** 0.053
20387 H20387 38.3283 26.0312 23.9737 H 0.0 **** 0.053
20388 H20388 37.3672 26.3129 22.5006 H 0.0 **** 0.053
20389 H20389 38.0676 24.7089 22.8038 H 0.0 **** 0.053
20390 H20390 26.8536 25.7157 18.2531 H 0.0 **** 0.41
20391 H20391 20.4078 13.843 15.8689 H 0.0 **** 0.1268
20392 H20392 18.6939 12.4379 14.774 H 0.0 **** 0.1268
20393 H20393 17.1581 12.0196 12.8857 H 0.0 **** 0.1268
20394 H20394 15.6127 11.5968 11.0203 H 0.0 **** 0.1268
20395 H20395 14.6912 12.2453 8.80766 H 0.0 **** 0.1268
20396 H20396 15.5482 15.7317 5.67286 H 0.0 **** 0.1268
20397 H20397 14.6543 13.778 6.8776 H 0.0 **** 0.1268
20398 H20398 20.6431 19.3062 8.41937 H 0.0 **** 0.1268
20399 H20399 19.1858 20.2438 7.36304 H 0.0 **** 0.053
20400 H20400 19.9111 19.3751 6.00723 H 0.0 **** 0.053
20401 H20401 18.3096 21.07 5.16285 H 0.0 **** 0.053
20402 H20402 17.0228 20.3951 6.18544 H 0.0 **** 0.053
20403 H20403 18.4909 18.9004 3.93578 H 0.0 **** 0.053
20404 H20404 16.8112 19.444 3.84529 H 0.0 **** 0.053
20405 C20405 12.2923 12.72 28.0384 C.3 0.0 **** 0.054
20406 C20406 11.3924 12.0807 29.1218 C.3 0.0 **** -0.106
20407 C20407 10.1512 11.4255 28.4815 C.3 0.0 **** -0.053
20408 C20408 9.62286 12.3399 27.3642 C.3 0.0 **** -0.053
20409 C20409 10.7235 12.5197 26.2866 C.3 0.0 **** 0.054
20410 O20410 12.0313 12.1586 26.7474 O.3 0.0 **** -0.32
20411 C20411 9.14009 13.6912 27.9323 C.3 0.0 **** -0.053
20412 C20412 8.43535 13.5372 29.3104 C.3 0.0 **** 0.107
20413 C20413 7.89171 12.13 29.4901 C.3 0.0 **** -0.106
20414 C20414 9.04196 11.107 29.5164 C.3 0.0 **** -0.106
20415 O20415 7.33317 14.447 29.4508 O.3 0.0 **** -0.32
20416 C20416 7.64184 15.7765 28.9992 C.3 0.0 **** 0.107
20417 C20417 7.69381 15.7574 27.461 C.3 0.0 **** -0.053
20418 C20418 8.18023 14.3669 26.9568 C.3 0.0 **** -0.106
20419 C20419 8.42607 16.9102 26.858 C.2 0.0 **** 0.0
20420 C20420 9.15467 17.8235 27.6034 C.2 0.0 **** 0.0
20421 C20421 9.37218 17.6379 29.016 C.2 0.0 **** 0.0
20422 C20422 8.88585 16.3692 29.6798 C.3 0.0 **** -0.053
20423 C20423 10.161 18.5072 29.749 C.2 0.0 **** 0.0
20424 C20424 10.7438 19.6645 29.112 C.2 0.0 **** 0.0
20425 C20425 10.4795 19.8534 27.7215 C.2 0.0 **** 0.232
20426 C20426 9.74045 18.9864 26.9653 C.2 0.0 **** 0.0
20427 C20427 9.54602 19.2248 25.4894 C.3 0.0 **** -0.106
20428 C20428 8.26925 18.5594 24.9745 C.3 0.0 **** -0.106
20429 C20429 8.26095 17.082 25.3742 C.3 0.0 **** -0.106
20430 O20430 11.0175 20.9446 27.0665 O.3 0.0 **** -0.464
20431 C20431 11.6992 21.9126 27.7632 C.2 0.0 **** 0.232
20432 C20432 12.0309 21.7556 29.1212 C.2 0.0 **** 0.0
20433 C20433 11.5621 20.57 29.7982 C.2 0.0 **** 0.0
20434 C20434 8.73168 16.5307 31.1736 C.2 0.0 **** 0.0
20435 C20435 9.81091 17.2416 31.8542 C.2 0.0 **** 0.0
20436 C20436 10.4542 18.2719 31.1656 C.2 0.0 **** 0.0
20437 C20437 10.0083 16.9404 33.2709 C.2 0.0 **** 0.0
20438 C20438 8.94042 16.5206 34.01 C.2 0.0 **** 0.0
20439 C20439 7.61913 16.2275 33.3779 C.3 0.0 **** -0.106
20440 C20440 7.68589 16.063 31.8913 C.2 0.0 **** -0.1268
20441 C20441 9.09861 16.3073 35.4895 C.3 0.0 **** -0.106
20442 C20442 10.1493 17.2672 36.0551 C.3 0.0 **** -0.106
20443 C20443 11.4234 17.15 35.2551 C.2 0.0 **** 0.0
20444 C20444 11.3413 16.9714 33.9152 C.2 0.0 **** 0.0
20445 C20445 12.5542 16.6402 33.0767 C.3 0.0 **** -0.106
20446 C20446 13.8169 16.3691 33.9025 C.3 0.0 **** -0.053
20447 C20447 13.9141 17.3986 35.0338 C.3 0.0 **** -0.106
20448 C20448 12.731 17.2306 35.9871 C.3 0.0 **** -0.106
20449 C20449 11.8417 20.299 31.1786 C.2 0.0 **** -0.012
20450 C20450 11.2951 19.218 31.8256 C.2 0.0 **** -0.1268
20451 C20451 12.7494 22.8171 29.7283 C.2 0.0 **** 0.0
20452 C20452 13.1637 22.7332 31.1058 C.2 0.0 **** -0.012
20453 S20453 12.9497 21.2969 32.0943 S.2 0.0 **** 0.024
20454 C20454 13.8212 23.7738 31.7106 C.2 0.0 **** -0.1268
20455 C20455 14.1149 24.9703 31.005 C.2 0.0 **** 0.0
20456 C20456 13.7511 25.0847 29.6281 C.2 0.0 **** 0.0
20457 C20457 13.0803 24.0067 28.9874 C.2 0.0 **** 0.0
20458 C20458 14.0771 26.2727 28.9225 C.2 0.0 **** 0.0
20459 C20459 14.726 27.351 29.5987 C.2 0.0 **** 0.0
20460 C20460 15.0189 27.2379 31.0059 C.2 0.0 **** 0.0
20461 C20461 14.7445 26.0255 31.6577 C.2 0.0 **** -0.1268
20462 C20462 15.5674 28.366 31.685 C.2 0.0 **** 0.0
20463 C20463 15.9536 29.4745 30.9555 C.2 0.0 **** 0.042
20464 C20464 15.7921 29.5879 29.5422 C.2 0.0 **** 0.0
20465 C20465 15.1062 28.5273 28.8865 C.2 0.0 **** 0.0
20466 C20466 12.7279 24.1147 27.5998 C.2 0.0 **** 0.0
20467 C20467 12.0293 23.0307 27.0289 C.2 0.0 **** -0.1268
20468 C20468 13.7523 26.3763 27.5296 C.2 0.0 **** 0.0
20469 C20469 13.083 25.308 26.8606 C.2 0.0 **** 0.0
20470 C20470 14.8046 28.6217 27.4872 C.2 0.0 **** 0.0
20471 C20471 14.1223 27.5644 26.8307 C.2 0.0 **** 0.0
20472 C20472 16.2614 30.7186 28.7802 C.2 0.0 **** 0.0
20473 C20473 15.907 30.8166 27.4015 C.2 0.0 **** 0.0
20474 C20474 15.1794 29.7824 26.7605 C.2 0.0 **** 0.0
20475 O20475 16.435 30.5468 31.6753 O.3 0.0 **** -0.202
20476 C20476 17.5176 30.2548 32.6037 C.3 0.0 **** 0.107
20477 C20477 17.25 28.9534 33.4002 C.3 0.0 **** -0.053
20478 C20478 15.7794 28.5695 33.1819 C.3 0.0 **** 0.107
20479 C20479 17.6449 29.109 34.8738 C.3 0.0 **** -0.106
20480 C20480 18.9698 29.8746 34.9554 C.3 0.0 **** -0.106
20481 C20481 18.7538 31.3427 34.5761 C.3 0.0 **** 0.134
20482 C20482 17.661 31.507 33.467 C.3 0.0 **** -0.053
20483 C20483 17.9777 32.7348 32.5969 C.3 0.0 **** -0.106
20484 C20484 18.543 33.8818 33.433 C.3 0.0 **** -0.106
20485 C20485 19.8778 33.4438 34.0989 C.3 0.0 **** 0.081
20486 N20486 20.0246 31.9874 34.2426 N.3 0.0 **** -0.727
20487 C20487 12.7957 25.4858 25.4611 C.2 0.0 **** 0.042
20488 C20488 13.1115 26.6619 24.7984 C.2 0.0 **** 0.042
20489 C20489 13.8049 27.7165 25.4468 C.2 0.0 **** 0.0
20490 O20490 12.8018 26.8799 23.4757 O.3 0.0 **** -0.202
20491 C20491 11.844 25.955 22.9164 C.3 0.0 **** 0.107
20492 C20492 12.2694 24.5565 23.3313 C.3 0.0 **** 0.107
20493 O20493 12.1916 24.4615 24.7669 O.3 0.0 **** -0.202
20494 C20494 13.6793 24.1922 22.8213 C.3 0.0 **** -0.106
20495 C20495 14.0586 24.9425 21.5261 C.3 0.0 **** -0.106
20496 C20496 12.8149 25.2031 20.6689 C.3 0.0 **** -0.106
20497 C20497 11.8308 26.1412 21.3977 C.3 0.0 **** -0.106
20498 C20498 14.8535 29.9131 25.37 C.2 0.0 **** 0.0
20499 C20499 14.1618 28.8764 24.7436 C.2 0.0 **** -0.1268
20500 C20500 16.3071 31.9657 26.6635 C.2 0.0 **** 0.0
20501 C20501 15.9364 32.0783 25.2877 C.2 0.0 **** 0.042
20502 C20502 15.238 31.089 24.6526 C.2 0.0 **** -0.1268
20503 C20503 17.0716 32.9802 27.2591 C.2 0.0 **** 0.0
20504 C20504 17.4872 32.8383 28.5894 C.2 0.0 **** 0.0
20505 C20505 17.0825 31.7314 29.3127 C.2 0.0 **** -0.1268
20506 O20506 16.2922 33.2017 24.5568 O.3 0.0 **** -0.0685
20507 C20507 16.9799 34.2362 25.1488 C.2 0.0 **** 0.0265
20508 C20508 17.4087 34.15 26.4844 C.2 0.0 **** 0.0
20509 C20509 18.401 33.839 29.2456 C.3 0.0 **** -0.053
20510 C20510 18.4586 35.2083 28.5296 C.3 0.0 **** -0.053
20511 C20511 18.1106 35.2099 27.0647 C.2 0.0 **** 0.0
20512 C20512 19.8309 35.8854 28.7059 C.3 0.0 **** -0.053
20513 C20513 20.3318 35.6767 30.1304 C.3 0.0 **** -0.106
20514 C20514 20.6469 34.1764 30.3536 C.3 0.0 **** -0.106
20515 C20515 19.8171 33.2642 29.4304 C.3 0.0 **** -0.106
20516 C20516 18.3993 36.3622 26.3181 C.2 0.0 **** 0.0
20517 C20517 17.9088 36.4767 24.9865 C.2 0.0 **** 0.0
20518 C20518 17.2016 35.3927 24.3775 C.2 0.0 **** 0.0
20519 C20519 19.755 37.2914 28.177 C.2 0.0 **** 0.0
20520 C20520 19.1177 37.4549 26.9156 C.2 0.0 **** 0.0
20521 C20521 15.0692 16.3141 33.0025 C.3 0.0 **** -0.053
20522 C20522 15.4977 17.6987 32.4995 C.3 0.0 **** -0.159
20523 C20523 16.2348 15.625 33.7195 C.3 0.0 **** -0.159
20524 O20524 15.4688 27.4883 34.0625 O.3 0.0 **** -0.57
20525 C20525 16.7299 35.5364 23.0317 C.2 0.0 **** -0.1268
20526 C20526 16.9202 36.7034 22.3454 C.2 0.0 **** -0.1268
20527 C20527 17.5853 37.8262 22.9405 C.2 0.0 **** 0.0
20528 C20528 18.0846 37.6972 24.2768 C.2 0.0 **** 0.0
20529 C20529 18.7257 38.8008 24.8994 C.2 0.0 **** 0.0
20530 C20530 18.8721 40.0236 24.203 C.2 0.0 **** 0.0
20531 C20531 18.3749 40.1419 22.865 C.2 0.0 **** 0.0
20532 C20532 17.7446 39.0402 22.2645 C.2 0.0 **** -0.1268
20533 C20533 18.5316 41.3852 22.1776 C.2 0.0 **** -0.1268
20534 C20534 19.1443 42.4508 22.782 C.2 0.0 **** -0.1268
20535 C20535 19.6501 42.3546 24.1143 C.2 0.0 **** 0.0
20536 C20536 19.5164 41.133 24.8264 C.2 0.0 **** 0.0
20537 C20537 20.0302 41.0207 26.1538 C.2 0.0 **** 0.0
20538 C20538 19.8911 39.7855 26.8479 C.2 0.0 **** 0.0
20539 C20539 19.2395 38.6806 26.229 C.2 0.0 **** 0.0
20540 C20540 20.69 42.1242 26.7717 C.2 0.0 **** 0.0
20541 C20541 20.7847 43.3377 26.0354 C.2 0.0 **** -0.1268
20542 C20542 20.2805 43.4442 24.756 C.2 0.0 **** -0.1268
20543 C20543 20.3436 38.375 28.7895 C.2 0.0 **** -0.1268
20544 C20544 20.3934 39.6521 28.1716 C.2 0.0 **** 0.0
20545 C20545 21.1899 41.9774 28.1233 C.2 0.0 **** 0.052
20546 C20546 20.9801 40.7813 28.8229 C.2 0.0 **** 0.0
20547 C20547 21.358 40.6389 30.2805 C.3 0.0 **** -0.106
20548 C20548 21.3982 41.9835 30.9963 C.3 0.0 **** -0.106
20549 C20549 22.3531 42.8977 30.247 C.3 0.0 **** -0.086
20550 C20550 22.0178 43.042 28.7678 C.2 0.0 **** 0.347
20551 O20551 22.4973 44.0 28.1593 O.2 0.0 **** -0.419
20552 H20552 13.3573 12.5382 28.237 H 0.0 **** 0.053
20553 H20553 12.135 13.8165 27.9988 H 0.0 **** 0.053
20554 H20554 11.9463 11.3175 29.6895 H 0.0 **** 0.053
20555 H20555 11.0801 12.8533 29.8422 H 0.0 **** 0.053
20556 H20556 10.4866 10.4885 28.0136 H 0.0 **** 0.053
20557 H20557 8.7561 11.8492 26.8907 H 0.0 **** 0.053
20558 H20558 10.7369 13.5742 25.94 H 0.0 **** 0.053
20559 H20559 10.54 11.8728 25.4173 H 0.0 **** 0.053
20560 H20560 10.0233 14.339 28.0515 H 0.0 **** 0.053
20561 H20561 9.15832 13.7395 30.1242 H 0.0 **** 0.053
20562 H20562 7.20242 11.9157 28.6574 H 0.0 **** 0.053
20563 H20563 7.30276 12.0785 30.417 H 0.0 **** 0.053
20564 H20564 8.63109 10.1031 29.3317 H 0.0 **** 0.053
20565 H20565 9.4883 11.0819 30.5241 H 0.0 **** 0.053
20566 H20566 6.78312 16.3851 29.3187 H 0.0 **** 0.053
20567 H20567 6.64801 15.8433 27.1087 H 0.0 **** 0.053
20568 H20568 8.65122 14.4645 25.9675 H 0.0 **** 0.053
20569 H20569 7.30747 13.7065 26.8334 H 0.0 **** 0.053
20570 H20570 9.72758 15.6607 29.5413 H 0.0 **** 0.053
20571 H20571 9.54031 20.3046 25.2822 H 0.0 **** 0.053
20572 H20572 10.4133 18.8128 24.9394 H 0.0 **** 0.053
20573 H20573 8.19494 18.6679 23.8817 H 0.0 **** 0.053
20574 H20574 7.39272 19.0574 25.4198 H 0.0 **** 0.053
20575 H20575 9.07925 16.5616 24.8372 H 0.0 **** 0.053
20576 H20576 7.32873 16.5894 25.0498 H 0.0 **** 0.053
20577 H20577 6.89369 17.0315 33.6325 H 0.0 **** 0.053
20578 H20578 7.18439 15.3247 33.8497 H 0.0 **** 0.053
20579 H20579 6.86005 15.5484 31.403 H 0.0 **** 0.1268
20580 H20580 8.12742 16.4383 35.993 H 0.0 **** 0.053
20581 H20581 9.41366 15.2605 35.6762 H 0.0 **** 0.053
20582 H20582 10.348 17.0559 37.1174 H 0.0 **** 0.053
20583 H20583 9.76254 18.303 35.9987 H 0.0 **** 0.053
20584 H20584 12.3158 15.7543 32.4614 H 0.0 **** 0.053
20585 H20585 12.7572 17.4417 32.3501 H 0.0 **** 0.053
20586 H20586 13.7062 15.3752 34.3752 H 0.0 **** 0.053
20587 H20587 13.8884 18.4121 34.6011 H 0.0 **** 0.053
20588 H20588 14.8651 17.2986 35.5791 H 0.0 **** 0.053
20589 H20589 12.6851 18.0679 36.7072 H 0.0 **** 0.053
20590 H20590 12.8677 16.3216 36.6049 H 0.0 **** 0.053
20591 H20591 11.4768 19.0938 32.8929 H 0.0 **** 0.1268
20592 H20592 14.1238 23.7024 32.7578 H 0.0 **** 0.1268
20593 H20593 15.0544 25.8833 32.6882 H 0.0 **** 0.1268
20594 H20594 11.723 23.0493 25.9934 H 0.0 **** 0.1268
20595 H20595 18.4353 30.1343 31.9981 H 0.0 **** 0.053
20596 H20596 17.8601 28.1455 32.9659 H 0.0 **** 0.053
20597 H20597 15.1717 29.4508 33.4741 H 0.0 **** 0.053
20598 H20598 16.8581 29.6592 35.4179 H 0.0 **** 0.053
20599 H20599 17.7152 28.1179 35.3395 H 0.0 **** 0.053
20600 H20600 19.6931 29.4223 34.253 H 0.0 **** 0.053
20601 H20601 19.426 29.8193 35.9533 H 0.0 **** 0.053
20602 H20602 18.3767 31.8687 35.4699 H 0.0 **** 0.053
20603 H20603 16.6884 31.6654 33.963 H 0.0 **** 0.053
20604 H20604 18.7285 32.4461 31.8413 H 0.0 **** 0.053
20605 H20605 17.0821 33.044 32.0411 H 0.0 **** 0.053
20606 H20606 17.807 34.1615 34.2037 H 0.0 **** 0.053
20607 H20607 18.7047 34.7745 32.8079 H 0.0 **** 0.053
20608 H20608 19.9596 33.8996 35.1002 H 0.0 **** 0.053
20609 H20609 20.7359 33.8059 33.5133 H 0.0 **** 0.053
20610 H20610 20.3868 31.5866 33.3765 H 0.0 **** 0.353
20611 H20611 10.8592 26.1793 23.3592 H 0.0 **** 0.053
20612 H20612 11.522 23.8341 22.9735 H 0.0 **** 0.053
20613 H20613 14.4007 24.4252 23.6178 H 0.0 **** 0.053
20614 H20614 13.714 23.1045 22.6622 H 0.0 **** 0.053
20615 H20615 14.8026 24.3589 20.9643 H 0.0 **** 0.053
20616 H20616 14.5236 25.9058 21.7831 H 0.0 **** 0.053
20617 H20617 12.3212 24.24 20.4534 H 0.0 **** 0.053
20618 H20618 13.0894 25.6387 19.6969 H 0.0 **** 0.053
20619 H20619 10.8064 25.983 21.0288 H 0.0 **** 0.053
20620 H20620 12.083 27.1947 21.2015 H 0.0 **** 0.053
20621 H20621 13.8988 28.9646 23.6907 H 0.0 **** 0.1268
20622 H20622 14.9761 31.1901 23.5989 H 0.0 **** 0.1268
20623 H20623 17.4031 31.6537 30.3396 H 0.0 **** 0.1268
20624 H20624 18.0158 34.0196 30.2607 H 0.0 **** 0.053
20625 H20625 17.7176 35.8714 29.019 H 0.0 **** 0.053
20626 H20626 20.5332 35.3613 28.0265 H 0.0 **** 0.053
20627 H20627 19.5504 36.0187 30.8302 H 0.0 **** 0.053
20628 H20628 21.2282 36.2803 30.3317 H 0.0 **** 0.053
20629 H20629 20.4403 33.9156 31.4012 H 0.0 **** 0.053
20630 H20630 21.7188 33.9916 30.1839 H 0.0 **** 0.053
20631 H20631 19.7489 32.2479 29.8472 H 0.0 **** 0.053
20632 H20632 20.2923 33.1626 28.4418 H 0.0 **** 0.053
20633 H20633 14.8003 15.6993 32.1241 H 0.0 **** 0.053
20634 H20634 16.3044 17.6062 31.7569 H 0.0 **** 0.053
20635 H20635 15.8804 18.3097 33.3316 H 0.0 **** 0.053
20636 H20636 14.669 18.2525 32.0326 H 0.0 **** 0.053
20637 H20637 15.9525 14.6148 34.0558 H 0.0 **** 0.053
20638 H20638 16.5445 16.2025 34.6051 H 0.0 **** 0.053
20639 H20639 17.1102 15.5369 33.0584 H 0.0 **** 0.053
20640 H20640 14.5083 27.3588 34.0331 H 0.0 **** 0.41
20641 H20641 16.2078 34.699 22.569 H 0.0 **** 0.1268
20642 H20642 16.5536 36.8054 21.3224 H 0.0 **** 0.1268
20643 H20643 17.3621 39.1378 21.2461 H 0.0 **** 0.1268
20644 H20644 18.1485 41.4661 21.1587 H 0.0 **** 0.1268
20645 H20645 19.2546 43.4003 22.2544 H 0.0 **** 0.1268
20646 H20646 21.2771 44.1862 26.4981 H 0.0 **** 0.1268
20647 H20647 20.3656 44.3913 24.219 H 0.0 **** 0.1268
20648 H20648 20.8203 38.2314 29.7554 H 0.0 **** 0.1268
20649 H20649 20.6358 39.9755 30.7766 H 0.0 **** 0.053
20650 H20650 22.3448 40.1454 30.365 H 0.0 **** 0.053
20651 H20651 21.7079 41.8553 32.0446 H 0.0 **** 0.053
20652 H20652 20.3859 42.4199 31.0004 H 0.0 **** 0.053
20653 H20653 23.377 42.4826 30.2936 H 0.0 **** 0.053
20654 H20654 22.4069 43.9129 30.6652 H 0.0 **** 0.053
20655 C20655 55.1284 16.9104 52.8573 C.3 0.0 **** 0.054
20656 C20656 56.5061 17.5548 53.1379 C.3 0.0 **** -0.106
20657 C20657 56.66 17.8792 54.6382 C.3 0.0 **** -0.053
20658 C20658 55.331 18.4426 55.1672 C.3 0.0 **** -0.053
20659 C20659 54.2154 17.3814 54.982 C.3 0.0 **** 0.054
20660 O20660 54.5629 16.3519 54.0481 O.3 0.0 **** -0.32
20661 C20661 54.9804 19.7797 54.4808 C.3 0.0 **** -0.053
20662 C20662 56.2361 20.6611 54.2235 C.3 0.0 **** 0.107
20663 C20663 57.3627 20.2952 55.1748 C.3 0.0 **** -0.106
20664 C20664 57.8335 18.8512 54.9227 C.3 0.0 **** -0.106
20665 O20665 55.9541 22.0575 54.4051 O.3 0.0 **** -0.32
20666 C20666 54.7139 22.4627 53.8014 C.3 0.0 **** 0.107
20667 C20667 53.5625 21.9105 54.6607 C.3 0.0 **** -0.053
20668 C20668 53.9854 20.5685 55.3276 C.3 0.0 **** -0.106
20669 C20669 52.2473 21.8488 53.9571 C.2 0.0 **** 0.0
20670 C20670 52.0973 22.0898 52.6006 C.2 0.0 **** 0.0
20671 C20671 53.2378 22.2813 51.7405 C.2 0.0 **** 0.0
20672 C20672 54.6296 22.1126 52.3073 C.3 0.0 **** -0.053
20673 C20673 53.0961 22.4478 50.3739 C.2 0.0 **** 0.0
20674 C20674 51.7786 22.4884 49.7846 C.2 0.0 **** 0.0
20675 C20675 50.6608 22.3407 50.6608 C.2 0.0 **** 0.232
20676 C20676 50.7749 22.1311 52.0072 C.2 0.0 **** 0.0
20677 C20677 49.5493 21.9329 52.8624 C.3 0.0 **** -0.106
20678 C20678 49.81 22.3186 54.3188 C.3 0.0 **** -0.106
20679 C20679 51.0531 21.5872 54.831 C.3 0.0 **** -0.106
20680 O20680 49.3797 22.3697 50.1438 O.3 0.0 **** -0.464
20681 C20681 49.1666 22.6616 48.8185 C.2 0.0 **** 0.232
20682 C20682 50.2278 22.7676 47.9013 C.2 0.0 **** 0.0
20683 C20683 51.5736 22.639 48.4077 C.2 0.0 **** 0.0
20684 C20684 55.6747 22.8098 51.4688 C.2 0.0 **** 0.0
20685 C20685 55.5439 22.6511 50.0228 C.2 0.0 **** 0.0
20686 C20686 54.258 22.5554 49.4871 C.2 0.0 **** 0.0
20687 C20687 56.7646 22.7908 49.2309 C.2 0.0 **** 0.0
20688 C20688 57.7734 23.5761 49.709 C.2 0.0 **** 0.0
20689 C20689 57.7167 24.1754 51.0761 C.3 0.0 **** -0.106
20690 C20690 56.6941 23.5435 51.9687 C.2 0.0 **** -0.1268
20691 C20691 58.9921 23.8171 48.8627 C.3 0.0 **** -0.106
20692 C20692 58.6212 23.7883 47.3772 C.3 0.0 **** -0.106
20693 C20693 57.8729 22.5149 47.0678 C.2 0.0 **** 0.0
20694 C20694 56.9955 22.0329 47.9799 C.2 0.0 **** 0.0
20695 C20695 56.3654 20.6665 47.839 C.3 0.0 **** -0.106
20696 C20696 56.9374 19.8424 46.6799 C.3 0.0 **** -0.053
20697 C20697 57.1133 20.7452 45.4538 C.3 0.0 **** -0.106
20698 C20698 58.1425 21.8336 45.7582 C.3 0.0 **** -0.106
20699 C20699 52.7334 22.7239 47.5683 C.2 0.0 **** -0.012
20700 C20700 54.0035 22.7046 48.0904 C.2 0.0 **** -0.1268
20701 C20701 49.8814 23.0579 46.5569 C.2 0.0 **** 0.0
20702 C20702 50.8964 23.152 45.5385 C.2 0.0 **** -0.012
20703 S20703 52.5911 22.7893 45.8255 S.2 0.0 **** 0.024
20704 C20704 50.5722 23.4745 44.2455 C.2 0.0 **** -0.1268
20705 C20705 49.2287 23.7297 43.8637 C.2 0.0 **** 0.0
20706 C20706 48.186 23.6163 44.8339 C.2 0.0 **** 0.0
20707 C20707 48.5095 23.27 46.1748 C.2 0.0 **** 0.0
20708 C20708 46.8424 23.8426 44.4354 C.2 0.0 **** 0.0
20709 C20709 46.5492 24.2169 43.0881 C.2 0.0 **** 0.0
20710 C20710 47.6262 24.3935 42.146 C.2 0.0 **** 0.0
20711 C20711 48.936 24.0971 42.554 C.2 0.0 **** -0.1268
20712 C20712 47.3211 24.8723 40.8374 C.2 0.0 **** 0.0
20713 C20713 45.9996 24.9995 40.4532 C.2 0.0 **** 0.042
20714 C20714 44.8948 24.7239 41.3134 C.2 0.0 **** 0.0
20715 C20715 45.1985 24.394 42.664 C.2 0.0 **** 0.0
20716 C20716 47.4607 23.1409 47.1469 C.2 0.0 **** 0.0
20717 C20717 47.8452 22.8344 48.4686 C.2 0.0 **** -0.1268
20718 C20718 45.7877 23.6888 45.3947 C.2 0.0 **** 0.0
20719 C20719 46.0834 23.3378 46.746 C.2 0.0 **** 0.0
20720 C20720 44.1409 24.2155 43.6167 C.2 0.0 **** 0.0
20721 C20721 44.4413 23.8847 44.9638 C.2 0.0 **** 0.0
20722 C20722 43.5203 24.792 40.8828 C.2 0.0 **** 0.0
20723 C20723 42.485 24.6614 41.8561 C.2 0.0 **** 0.0
20724 C20724 42.7903 24.3827 43.2122 C.2 0.0 **** 0.0
20725 O20725 45.7723 25.5085 39.1927 O.3 0.0 **** -0.202
20726 C20726 46.466 24.839 38.102 C.3 0.0 **** 0.107
20727 C20727 47.9401 24.5325 38.4669 C.3 0.0 **** -0.053
20728 C20728 48.2778 25.3241 39.7385 C.3 0.0 **** 0.107
20729 C20729 48.8778 24.8132 37.2864 C.3 0.0 **** -0.106
20730 C20730 48.2197 24.3091 35.9977 C.3 0.0 **** -0.106
20731 C20731 47.037 25.2078 35.6241 C.3 0.0 **** 0.134
20732 C20732 46.2908 25.7508 36.8888 C.3 0.0 **** -0.053
20733 C20733 44.8 25.9535 36.571 C.3 0.0 **** -0.106
20734 C20734 44.5976 26.4823 35.152 C.3 0.0 **** -0.106
20735 C20735 45.1433 25.4546 34.1211 C.3 0.0 **** 0.081
20736 N20736 46.1538 24.537 34.6692 N.3 0.0 **** -0.727
20737 C20737 44.9699 23.1976 47.6479 C.2 0.0 **** 0.042
20738 C20738 43.6677 23.4384 47.2373 C.2 0.0 **** 0.042
20739 C20739 43.3612 23.7568 45.889 C.2 0.0 **** 0.0
20740 O20740 42.5903 23.3637 48.0895 O.3 0.0 **** -0.202
20741 C20741 42.9273 23.3463 49.4937 C.3 0.0 **** 0.107
20742 C20742 44.0556 22.3452 49.6763 C.3 0.0 **** 0.107
20743 O20743 45.2072 22.816 48.9494 O.3 0.0 **** -0.202
20744 C20744 43.6588 20.9208 49.2353 C.3 0.0 **** -0.106
20745 C20745 42.1423 20.6578 49.3591 C.3 0.0 **** -0.106
20746 C20746 41.5501 21.4514 50.5291 C.3 0.0 **** -0.106
20747 C20747 41.6711 22.9692 50.2818 C.3 0.0 **** -0.106
20748 C20748 41.7203 24.2465 44.1574 C.2 0.0 **** 0.0
20749 C20749 42.0317 23.9446 45.483 C.2 0.0 **** -0.1268
20750 C20750 41.1289 24.7994 41.4474 C.2 0.0 **** 0.0
20751 C20751 40.0894 24.6904 42.4223 C.2 0.0 **** 0.042
20752 C20752 40.3652 24.4185 43.7336 C.2 0.0 **** -0.1268
20753 C20753 40.7957 25.0243 40.1033 C.2 0.0 **** 0.0
20754 C20754 41.812 25.068 39.1399 C.2 0.0 **** 0.0
20755 C20755 43.131 24.9534 39.539 C.2 0.0 **** -0.1268
20756 O20756 38.7627 24.8484 42.0512 O.3 0.0 **** -0.0685
20757 C20757 38.4275 25.1408 40.749 C.2 0.0 **** 0.0265
20758 C20758 39.4099 25.2091 39.7463 C.2 0.0 **** 0.0
20759 C20759 41.507 25.1941 37.6709 C.3 0.0 **** -0.053
20760 C20760 40.0869 25.7222 37.3623 C.3 0.0 **** -0.053
20761 C20761 39.0473 25.5021 38.4289 C.2 0.0 **** 0.0
20762 C20762 39.5479 25.1619 36.0325 C.3 0.0 **** -0.053
20763 C20763 40.6625 25.134 34.9931 C.3 0.0 **** -0.106
20764 C20764 41.7312 24.092 35.408 C.3 0.0 **** -0.106
20765 C20765 41.7647 23.8685 36.9317 C.3 0.0 **** -0.106
20766 C20766 37.702 25.7216 38.096 C.2 0.0 **** 0.0
20767 C20767 36.7154 25.7168 39.1224 C.2 0.0 **** 0.0
20768 C20768 37.0727 25.4043 40.4716 C.2 0.0 **** 0.0
20769 C20769 38.2681 25.8716 35.6848 C.2 0.0 **** 0.0
20770 C20770 37.3286 26.0273 36.7417 C.2 0.0 **** 0.0
20771 C20771 56.0782 18.5891 46.4112 C.3 0.0 **** -0.053
20772 C20772 54.7433 18.9213 45.7318 C.3 0.0 **** -0.159
20773 C20773 56.8518 17.5557 45.586 C.3 0.0 **** -0.159
20774 O20774 49.682 25.2063 39.9732 O.3 0.0 **** -0.57
20775 C20775 36.0536 25.3981 41.4793 C.2 0.0 **** -0.1268
20776 C20776 34.7614 25.7188 41.1684 C.2 0.0 **** -0.1268
20777 C20777 34.3763 26.0808 39.835 C.2 0.0 **** 0.0
20778 C20778 35.3742 26.072 38.8075 C.2 0.0 **** 0.0
20779 C20779 35.026 26.4495 37.4834 C.2 0.0 **** 0.0
20780 C20780 33.6985 26.8321 37.179 C.2 0.0 **** 0.0
20781 C20781 32.7057 26.8325 38.2114 C.2 0.0 **** 0.0
20782 C20782 33.0674 26.4554 39.5147 C.2 0.0 **** -0.1268
20783 C20783 31.3701 27.2226 37.8849 C.2 0.0 **** -0.1268
20784 C20784 31.0374 27.5928 36.6087 C.2 0.0 **** -0.1268
20785 C20785 32.0104 27.5971 35.5629 C.2 0.0 **** 0.0
20786 C20786 33.3467 27.2109 35.8496 C.2 0.0 **** 0.0
20787 C20787 34.3247 27.1983 34.8095 C.2 0.0 **** 0.0
20788 C20788 35.6573 26.8022 35.1167 C.2 0.0 **** 0.0
20789 C20789 36.0108 26.4331 36.446 C.2 0.0 **** 0.0
20790 C20790 33.9699 27.5604 33.4761 C.2 0.0 **** 0.0
20791 C20791 32.6273 27.9628 33.2327 C.2 0.0 **** -0.1268
20792 C20792 31.6873 27.9805 34.2419 C.2 0.0 **** -0.1268
20793 C20793 37.9343 26.2728 34.4107 C.2 0.0 **** -0.1268
20794 C20794 36.6479 26.7846 34.0967 C.2 0.0 **** 0.0
20795 C20795 34.9906 27.5457 32.4483 C.2 0.0 **** 0.052
20796 C20796 36.3146 27.2266 32.7788 C.2 0.0 **** 0.0
20797 C20797 37.4332 27.3396 31.7671 C.3 0.0 **** -0.106
20798 C20798 37.1065 28.3339 30.6596 C.3 0.0 **** -0.106
20799 C20799 35.7946 27.9195 30.0143 C.3 0.0 **** -0.086
20800 C20800 34.651 27.7691 31.0099 C.2 0.0 **** 0.347
20801 O20801 33.5001 27.7783 30.5705 O.2 0.0 **** -0.419
20802 H20802 55.2072 16.0801 52.1422 H 0.0 **** 0.053
20803 H20803 54.4273 17.6582 52.4355 H 0.0 **** 0.053
20804 H20804 57.3219 16.8817 52.8325 H 0.0 **** 0.053
20805 H20805 56.6089 18.4754 52.5417 H 0.0 **** 0.053
20806 H20806 56.8475 16.9274 55.1562 H 0.0 **** 0.053
20807 H20807 55.4398 18.6411 56.2466 H 0.0 **** 0.053
20808 H20808 53.2808 17.878 54.6468 H 0.0 **** 0.053
20809 H20809 54.0073 16.853 55.9229 H 0.0 **** 0.053
20810 H20810 54.5028 19.5456 53.516 H 0.0 **** 0.053
20811 H20811 56.5916 20.5108 53.1858 H 0.0 **** 0.053
20812 H20812 56.9948 20.4075 56.2074 H 0.0 **** 0.053
20813 H20813 58.1941 21.0038 55.0504 H 0.0 **** 0.053
20814 H20814 58.4066 18.5051 55.7959 H 0.0 **** 0.053
20815 H20815 58.5279 18.8354 54.0665 H 0.0 **** 0.053
20816 H20816 54.7158 23.5604 53.8721 H 0.0 **** 0.053
20817 H20817 53.4261 22.6199 55.4993 H 0.0 **** 0.053
20818 H20818 53.0984 19.954 55.5415 H 0.0 **** 0.053
20819 H20819 54.4662 20.7861 56.2944 H 0.0 **** 0.053
20820 H20820 54.8302 21.0279 52.1935 H 0.0 **** 0.053
20821 H20821 48.7065 22.504 52.4469 H 0.0 **** 0.053
20822 H20822 49.2476 20.8691 52.8206 H 0.0 **** 0.053
20823 H20823 48.9337 22.0803 54.9407 H 0.0 **** 0.053
20824 H20824 49.9799 23.4056 54.384 H 0.0 **** 0.053
20825 H20825 50.8387 20.5002 54.8676 H 0.0 **** 0.053
20826 H20826 51.2864 21.8817 55.8682 H 0.0 **** 0.053
20827 H20827 57.522 25.268 51.0002 H 0.0 **** 0.053
20828 H20828 58.7221 24.1207 51.5374 H 0.0 **** 0.053
20829 H20829 56.7999 23.6928 53.0419 H 0.0 **** 0.1268
20830 H20830 59.4561 24.7775 49.1388 H 0.0 **** 0.053
20831 H20831 59.7444 23.0297 49.0727 H 0.0 **** 0.053
20832 H20832 59.5185 23.8642 46.7433 H 0.0 **** 0.053
20833 H20833 57.9863 24.6649 47.1444 H 0.0 **** 0.053
20834 H20834 56.5099 20.1213 48.7889 H 0.0 **** 0.053
20835 H20835 55.2738 20.7499 47.7251 H 0.0 **** 0.053
20836 H20836 57.9449 19.4948 46.9757 H 0.0 **** 0.053
20837 H20837 56.1471 21.2184 45.2139 H 0.0 **** 0.053
20838 H20838 57.4201 20.1606 44.573 H 0.0 **** 0.053
20839 H20839 58.1573 22.5949 44.957 H 0.0 **** 0.053
20840 H20840 59.1616 21.4001 45.7677 H 0.0 **** 0.053
20841 H20841 54.8519 22.8459 47.4212 H 0.0 **** 0.1268
20842 H20842 51.3508 23.5508 43.4831 H 0.0 **** 0.1268
20843 H20843 49.746 24.1208 41.8317 H 0.0 **** 0.1268
20844 H20844 47.1097 22.7337 49.2531 H 0.0 **** 0.1268
20845 H20845 45.928 23.8909 37.9141 H 0.0 **** 0.053
20846 H20846 48.0224 23.4642 38.7229 H 0.0 **** 0.053
20847 H20847 48.0415 26.3873 39.526 H 0.0 **** 0.053
20848 H20848 49.0729 25.8967 37.2105 H 0.0 **** 0.053
20849 H20849 49.8467 24.3308 37.4673 H 0.0 **** 0.053
20850 H20850 47.8544 23.2784 36.157 H 0.0 **** 0.053
20851 H20851 48.9241 24.265 35.1558 H 0.0 **** 0.053
20852 H20852 47.4384 26.088 35.0933 H 0.0 **** 0.053
20853 H20853 46.732 26.7258 37.1565 H 0.0 **** 0.053
20854 H20854 44.2856 24.9813 36.6615 H 0.0 **** 0.053
20855 H20855 44.3422 26.6165 37.3177 H 0.0 **** 0.053
20856 H20856 45.1264 27.4433 35.0478 H 0.0 **** 0.053
20857 H20857 43.5313 26.6831 34.9611 H 0.0 **** 0.053
20858 H20858 45.5901 25.9891 33.2657 H 0.0 **** 0.053
20859 H20859 44.3232 24.8409 33.7199 H 0.0 **** 0.053
20860 H20860 45.696 23.7504 35.1313 H 0.0 **** 0.353
20861 H20861 43.2887 24.3517 49.767 H 0.0 **** 0.053
20862 H20862 44.3782 22.357 50.7271 H 0.0 **** 0.053
20863 H20863 43.982 20.784 48.1932 H 0.0 **** 0.053
20864 H20864 44.2265 20.204 49.8464 H 0.0 **** 0.053
20865 H20865 41.9626 19.5806 49.4896 H 0.0 **** 0.053
20866 H20866 41.64 20.9637 48.4294 H 0.0 **** 0.053
20867 H20867 42.0885 21.1805 51.4535 H 0.0 **** 0.053
20868 H20868 40.4951 21.1866 50.6921 H 0.0 **** 0.053
20869 H20869 41.674 23.5139 51.2378 H 0.0 **** 0.053
20870 H20870 40.8084 23.3376 49.7057 H 0.0 **** 0.053
20871 H20871 41.2313 23.847 46.2147 H 0.0 **** 0.1268
20872 H20872 39.5557 24.3274 44.4586 H 0.0 **** 0.1268
20873 H20873 43.8952 25.006 38.7797 H 0.0 **** 0.1268
20874 H20874 42.2211 25.9171 37.2479 H 0.0 **** 0.053
20875 H20875 40.161 26.8203 37.2317 H 0.0 **** 0.053
20876 H20876 39.2493 24.1122 36.2279 H 0.0 **** 0.053
20877 H20877 41.1063 26.142 34.9279 H 0.0 **** 0.053
20878 H20878 40.2723 24.891 33.9945 H 0.0 **** 0.053
20879 H20879 42.7197 24.434 35.0704 H 0.0 **** 0.053
20880 H20880 41.5343 23.1346 34.9016 H 0.0 **** 0.053
20881 H20881 42.7371 23.458 37.2432 H 0.0 **** 0.053
20882 H20882 41.0045 23.1341 37.2417 H 0.0 **** 0.053
20883 H20883 55.8577 18.1398 47.3968 H 0.0 **** 0.053
20884 H20884 54.104 18.0271 45.6807 H 0.0 **** 0.053
20885 H20885 54.9116 19.2689 44.7008 H 0.0 **** 0.053
20886 H20886 54.1848 19.7075 46.2621 H 0.0 **** 0.053
20887 H20887 57.7973 17.2808 46.0796 H 0.0 **** 0.053
20888 H20888 57.0943 17.9552 44.5883 H 0.0 **** 0.053
20889 H20889 56.2588 16.6399 45.4413 H 0.0 **** 0.053
20890 H20890 49.9103 25.8316 40.6783 H 0.0 **** 0.41
20891 H20891 36.3312 25.1412 42.5015 H 0.0 **** 0.1268
20892 H20892 33.9927 25.7159 41.9431 H 0.0 **** 0.1268
20893 H20893 32.3076 26.4631 40.2995 H 0.0 **** 0.1268
20894 H20894 30.6208 27.2208 38.6786 H 0.0 **** 0.1268
20895 H20895 30.0171 27.8967 36.3669 H 0.0 **** 0.1268
20896 H20896 32.3477 28.2482 32.2243 H 0.0 **** 0.1268
20897 H20897 30.6658 28.2986 34.023 H 0.0 **** 0.1268
20898 H20898 38.6675 26.1512 33.6178 H 0.0 **** 0.1268
20899 H20899 38.3546 27.6464 32.2818 H 0.0 **** 0.053
20900 H20900 37.6388 26.3468 31.3238 H 0.0 **** 0.053
20901 H20901 37.9208 28.3718 29.9203 H 0.0 **** 0.053
20902 H20902 37.0082 29.341 31.0971 H 0.0 **** 0.053
20903 H20903 35.9152 26.9329 29.5297 H 0.0 **** 0.053
20904 H20904 35.4521 28.6129 29.2332 H 0.0 **** 0.053
20905 C20905 32.4374 73.6907 -2.46469 C.3 0.0 **** 0.054
20906 C20906 31.256 74.3028 -1.67611 C.3 0.0 **** -0.106
20907 C20907 31.1912 75.8292 -1.89016 C.3 0.0 **** -0.053
20908 C20908 32.619 76.3988 -1.8666 C.3 0.0 **** -0.053
20909 C20909 33.4463 75.7536 -3.00869 C.3 0.0 **** 0.054
20910 O20910 32.8576 74.5544 -3.5264 O.3 0.0 **** -0.32
20911 C20911 33.2773 76.1945 -0.485763 C.3 0.0 **** -0.053
20912 C20912 32.269 76.3769 0.684552 C.3 0.0 **** 0.107
20913 C20913 31.0917 77.2382 0.260078 C.3 0.0 **** -0.106
20914 C20914 30.2868 76.541 -0.851808 C.3 0.0 **** -0.106
20915 O20915 32.8787 77.0089 1.82075 O.3 0.0 **** -0.32
20916 C20916 34.1773 76.475 2.1301 C.3 0.0 **** 0.107
20917 C20917 35.1662 76.9786 1.06354 C.3 0.0 **** -0.053
20918 C20918 34.4365 77.1696 -0.298612 C.3 0.0 **** -0.106
20919 C20919 36.4249 76.1815 0.969525 C.2 0.0 **** 0.0
20920 C20920 36.6223 74.9873 1.64439 C.2 0.0 **** 0.0
20921 C20921 35.5573 74.3558 2.38216 C.2 0.0 **** 0.0
20922 C20922 34.1683 74.9518 2.33407 C.3 0.0 **** -0.053
20923 C20923 35.7288 73.1269 2.99515 C.2 0.0 **** 0.0
20924 C20924 37.0148 72.472 2.95191 C.2 0.0 **** 0.0
20925 C20925 38.0683 73.1358 2.25301 C.2 0.0 **** 0.232
20926 C20926 37.9133 74.3283 1.60219 C.2 0.0 **** 0.0
20927 C20927 39.0593 74.9451 0.841237 C.3 0.0 **** -0.106
20928 C20928 38.9053 76.4617 0.722348 C.3 0.0 **** -0.106
20929 C20929 37.5253 76.7964 0.151293 C.3 0.0 **** -0.106
20930 O20930 39.3165 72.5475 2.18119 O.3 0.0 **** -0.464
20931 C20931 39.5876 71.3944 2.87696 C.2 0.0 **** 0.232
20932 C20932 38.5787 70.6726 3.54024 C.2 0.0 **** 0.0
20933 C20933 37.2438 71.2221 3.54007 C.2 0.0 **** 0.0
20934 C20934 33.3174 74.5086 3.50067 C.2 0.0 **** 0.0
20935 C20935 33.3998 73.0929 3.85032 C.2 0.0 **** 0.0
20936 C20936 34.6227 72.4432 3.67127 C.2 0.0 **** 0.0
20937 C20937 32.2449 72.5143 4.53433 C.2 0.0 **** 0.0
20938 C20938 31.4563 73.3263 5.29706 C.2 0.0 **** 0.0
20939 C20939 31.6614 74.8055 5.33321 C.3 0.0 **** -0.106
20940 C20940 32.5064 75.3239 4.21119 C.2 0.0 **** -0.1268
20941 C20941 30.3273 72.7322 6.09202 C.3 0.0 **** -0.106
20942 C20942 30.6738 71.3032 6.52015 C.3 0.0 **** -0.106
20943 C20943 31.093 70.5015 5.31239 C.2 0.0 **** 0.0
20944 C20944 31.8331 71.1037 4.35133 C.2 0.0 **** 0.0
20945 C20945 32.116 70.4373 3.02477 C.3 0.0 **** -0.106
20946 C20946 31.3577 69.1203 2.82442 C.3 0.0 **** -0.053
20947 C20947 31.3982 68.3087 4.12399 C.3 0.0 **** -0.106
20948 C20948 30.6618 69.0665 5.22851 C.3 0.0 **** -0.106
20949 C20949 36.1345 70.5745 4.17807 C.2 0.0 **** -0.012
20950 C20950 34.8993 71.1699 4.25442 C.2 0.0 **** -0.1268
20951 C20951 38.9787 69.4891 4.2118 C.2 0.0 **** 0.0
20952 C20952 38.0114 68.6646 4.89069 C.2 0.0 **** -0.012
20953 S20953 36.2805 68.9594 4.83532 S.2 0.0 **** 0.024
20954 C20954 38.3978 67.5423 5.57772 C.2 0.0 **** -0.1268
20955 C20955 39.7615 67.1535 5.64806 C.2 0.0 **** 0.0
20956 C20956 40.7508 67.9238 4.96299 C.2 0.0 **** 0.0
20957 C20957 40.3597 69.0824 4.2369 C.2 0.0 **** 0.0
20958 C20958 42.1077 67.5093 5.01319 C.2 0.0 **** 0.0
20959 C20959 42.4761 66.3573 5.77366 C.2 0.0 **** 0.0
20960 C20960 41.4687 65.6384 6.51338 C.2 0.0 **** 0.0
20961 C20961 40.1279 66.0342 6.38879 C.2 0.0 **** -0.1268
20962 C20962 41.8741 64.5579 7.35194 C.2 0.0 **** 0.0
20963 C20963 43.1857 64.1242 7.31209 C.2 0.0 **** 0.042
20964 C20964 44.1958 64.7295 6.50612 C.2 0.0 **** 0.0
20965 C20965 43.8278 65.9011 5.78695 C.2 0.0 **** 0.0
20966 C20966 41.3511 69.8484 3.53562 C.2 0.0 **** 0.0
20967 C20967 40.9102 71.0086 2.86604 C.2 0.0 **** -0.1268
20968 C20968 43.0989 68.2542 4.29277 C.2 0.0 **** 0.0
20969 C20969 42.7336 69.4184 3.55249 C.2 0.0 **** 0.0
20970 C20970 44.8159 66.631 5.04602 C.2 0.0 **** 0.0
20971 C20971 44.451 67.7986 4.32655 C.2 0.0 **** 0.0
20972 C20972 45.5445 64.227 6.41772 C.2 0.0 **** 0.0
20973 C20973 46.5225 64.9948 5.7177 C.2 0.0 **** 0.0
20974 C20974 46.1654 66.1896 5.04325 C.2 0.0 **** 0.0
20975 O20975 43.5229 63.1062 8.17784 O.3 0.0 **** -0.202
20976 C20976 42.6838 61.918 8.11985 C.3 0.0 **** 0.107
20977 C20977 41.1809 62.285 8.03826 C.3 0.0 **** -0.053
20978 C20978 41.0489 63.7782 8.37082 C.3 0.0 **** 0.107
20979 C20979 40.3327 61.3675 8.92737 C.3 0.0 **** -0.106
20980 C20980 40.8447 59.9299 8.79012 C.3 0.0 **** -0.106
20981 C20981 42.2069 59.7883 9.47599 C.3 0.0 **** 0.134
20982 C20982 43.0674 61.0897 9.34488 C.3 0.0 **** -0.053
20983 C20983 44.5618 60.7289 9.31185 C.3 0.0 **** -0.106
20984 C20984 44.8789 59.5723 10.2584 C.3 0.0 **** -0.106
20985 C20985 44.0977 58.3012 9.8214 C.3 0.0 **** 0.081
20986 N20986 42.899 58.5831 9.01715 N.3 0.0 **** -0.727
20987 C20987 43.7849 70.1092 2.85219 C.2 0.0 **** 0.042
20988 C20988 45.1049 69.6923 2.92906 C.2 0.0 **** 0.042
20989 C20989 45.4729 68.5186 3.63634 C.2 0.0 **** 0.0
20990 O20990 46.1367 70.363 2.3139 O.3 0.0 **** -0.202
20991 C20991 45.8117 71.6968 1.86583 C.3 0.0 **** 0.107
20992 C20992 44.4768 71.6194 1.14416 C.3 0.0 **** 0.107
20993 O20993 43.4687 71.2109 2.08917 O.3 0.0 **** -0.202
20994 C20994 44.518 70.6741 -0.0746154 C.3 0.0 **** -0.106
20995 C20995 45.9275 70.5598 -0.694692 C.3 0.0 **** -0.106
20996 C20996 46.6982 71.8745 -0.53036 C.3 0.0 **** -0.106
20997 C20997 46.9441 72.1857 0.960322 C.3 0.0 **** -0.106
20998 C20998 47.1755 66.9261 4.34048 C.2 0.0 **** 0.0
20999 C20999 46.8067 68.0849 3.65741 C.2 0.0 **** -0.1268
21000 C21000 47.8702 64.5389 5.68875 C.2 0.0 **** 0.0
21001 C21001 48.8575 65.3153 5.00671 C.2 0.0 **** 0.042
21002 C21002 48.5303 66.4681 4.34802 C.2 0.0 **** -0.1268
21003 C21003 48.2416 63.3339 6.30394 C.2 0.0 **** 0.0
21004 C21004 47.2612 62.5432 6.91746 C.2 0.0 **** 0.0
21005 C21005 45.9551 62.9951 6.96283 C.2 0.0 **** -0.1268
21006 O21006 50.1817 64.904 4.98884 O.3 0.0 **** -0.0685
21007 C21007 50.5714 63.7616 5.64958 C.2 0.0 **** 0.0265
21008 C21008 49.6297 62.9398 6.29213 C.2 0.0 **** 0.0
21009 C21009 47.581 61.1898 7.49458 C.3 0.0 **** -0.053
21010 C21010 49.0849 60.9577 7.76855 C.3 0.0 **** -0.053
21011 C21011 50.0461 61.7809 6.95277 C.2 0.0 **** 0.0
21012 C21012 49.4676 59.4729 7.62175 C.3 0.0 **** -0.053
21013 C21013 48.3743 58.5951 8.21983 C.3 0.0 **** -0.106
21014 C21014 47.0886 58.7147 7.36396 C.3 0.0 **** -0.106
21015 C21015 47.0092 60.0604 6.61848 C.3 0.0 **** -0.106
21016 C21016 51.4032 61.4251 6.9727 C.2 0.0 **** 0.0
21017 C21017 52.3644 62.2908 6.37821 C.2 0.0 **** 0.0
21018 C21018 51.9485 63.4721 5.68719 C.2 0.0 **** 0.0
21019 C21019 50.8788 59.2806 8.10548 C.2 0.0 **** 0.0
21020 C21020 51.833 60.2352 7.65574 C.2 0.0 **** 0.0
21021 C21021 31.8895 68.3534 1.59552 C.3 0.0 **** -0.053
21022 C21022 33.2621 67.7148 1.84493 C.3 0.0 **** -0.159
21023 C21023 30.8866 67.2928 1.12983 C.3 0.0 **** -0.159
21024 O21024 39.6585 64.0834 8.49155 O.3 0.0 **** -0.57
21025 C21025 52.9409 64.317 5.09094 C.2 0.0 **** -0.1268
21026 C21026 54.2708 64.0218 5.20635 C.2 0.0 **** -0.1268
21027 C21027 54.7256 62.8701 5.93028 C.2 0.0 **** 0.0
21028 C21028 53.7502 61.9996 6.51544 C.2 0.0 **** 0.0
21029 C21029 54.1729 60.8654 7.25817 C.2 0.0 **** 0.0
21030 C21030 55.5521 60.5947 7.41951 C.2 0.0 **** 0.0
21031 C21031 56.5205 61.4674 6.8261 C.2 0.0 **** 0.0
21032 C21032 56.0848 62.5836 6.09414 C.2 0.0 **** -0.1268
21033 C21033 57.9093 61.178 7.00035 C.2 0.0 **** -0.1268
21034 C21034 58.3153 60.0873 7.72268 C.2 0.0 **** -0.1268
21035 C21035 57.3672 59.202 8.32076 C.2 0.0 **** 0.0
21036 C21036 55.9785 59.4557 8.16453 C.2 0.0 **** 0.0
21037 C21037 55.0215 58.5702 8.74639 C.2 0.0 **** 0.0
21038 C21038 53.6342 58.8392 8.57294 C.2 0.0 **** 0.0
21039 C21039 53.2084 59.9817 7.83702 C.2 0.0 **** 0.0
21040 C21040 55.4468 57.4213 9.47709 C.2 0.0 **** 0.0
21041 C21041 56.8456 57.2131 9.63089 C.2 0.0 **** -0.1268
21042 C21042 57.7669 58.075 9.07335 C.2 0.0 **** -0.1268
21043 C21043 51.2935 58.2025 8.85492 C.2 0.0 **** -0.1268
21044 C21044 52.6637 57.9719 9.14579 C.2 0.0 **** 0.0
21045 C21045 54.4479 56.5505 10.0621 C.2 0.0 **** 0.052
21046 C21046 53.0875 56.8673 9.94808 C.2 0.0 **** 0.0
21047 C21047 52.0242 56.0651 10.6646 C.3 0.0 **** -0.106
21048 C21048 52.5752 55.3505 11.8924 C.3 0.0 **** -0.106
21049 C21049 53.7462 54.4847 11.4586 C.3 0.0 **** -0.086
21050 C21050 54.8247 55.2565 10.7085 C.2 0.0 **** 0.347
21051 O21051 55.9422 54.7455 10.6197 O.2 0.0 **** -0.419
21052 H21052 32.1582 72.7408 -2.94067 H 0.0 **** 0.053
21053 H21053 33.2956 73.4953 -1.79097 H 0.0 **** 0.053
21054 H21054 30.3011 73.8568 -1.99398 H 0.0 **** 0.053
21055 H21055 31.3746 74.0782 -0.604276 H 0.0 **** 0.053
21056 H21056 30.783 75.9964 -2.89758 H 0.0 **** 0.053
21057 H21057 32.5659 77.4846 -2.05264 H 0.0 **** 0.053
21058 H21058 34.4712 75.5299 -2.64572 H 0.0 **** 0.053
21059 H21059 33.5257 76.4274 -3.87339 H 0.0 **** 0.053
21060 H21060 33.6804 75.1696 -0.455416 H 0.0 **** 0.053
21061 H21061 31.8831 75.389 1.00235 H 0.0 **** 0.053
21062 H21062 31.4804 78.207 -0.0931745 H 0.0 **** 0.053
21063 H21063 30.4542 77.4455 1.13153 H 0.0 **** 0.053
21064 H21064 29.6513 77.2862 -1.35334 H 0.0 **** 0.053
21065 H21065 29.6051 75.8002 -0.40246 H 0.0 **** 0.053
21066 H21066 34.4393 76.925 3.09896 H 0.0 **** 0.053
21067 H21067 35.4727 77.9963 1.37265 H 0.0 **** 0.053
21068 H21068 35.1509 77.0735 -1.1296 H 0.0 **** 0.053
21069 H21069 34.0264 78.1908 -0.343945 H 0.0 **** 0.053
21070 H21070 33.7127 74.4845 1.43756 H 0.0 **** 0.053
21071 H21071 40.0126 74.6808 1.32108 H 0.0 **** 0.053
21072 H21072 39.0965 74.5067 -0.174041 H 0.0 **** 0.053
21073 H21073 39.7016 76.8787 0.0870095 H 0.0 **** 0.053
21074 H21074 39.0017 76.918 1.72089 H 0.0 **** 0.053
21075 H21075 37.4726 76.4309 -0.8939 H 0.0 **** 0.053
21076 H21076 37.3742 77.8877 0.0951773 H 0.0 **** 0.053
21077 H21077 32.1124 75.0991 6.30681 H 0.0 **** 0.053
21078 H21078 30.6743 75.3078 5.34067 H 0.0 **** 0.053
21079 H21079 32.4443 76.3865 3.98216 H 0.0 **** 0.1268
21080 H21080 30.1088 73.3676 6.9651 H 0.0 **** 0.053
21081 H21081 29.409 72.7209 5.4704 H 0.0 **** 0.053
21082 H21082 29.8182 70.8202 7.01738 H 0.0 **** 0.053
21083 H21083 31.4996 71.335 7.25686 H 0.0 **** 0.053
21084 H21084 31.849 71.1454 2.22002 H 0.0 **** 0.053
21085 H21085 33.1951 70.2611 2.89867 H 0.0 **** 0.053
21086 H21086 30.2975 69.366 2.62674 H 0.0 **** 0.053
21087 H21087 32.4487 68.1627 4.42435 H 0.0 **** 0.053
21088 H21088 30.956 67.3107 3.98109 H 0.0 **** 0.053
21089 H21089 30.8267 68.5871 6.21068 H 0.0 **** 0.053
21090 H21090 29.5684 69.0164 5.05912 H 0.0 **** 0.053
21091 H21091 34.1067 70.6723 4.81273 H 0.0 **** 0.1268
21092 H21092 37.6569 66.9287 6.09535 H 0.0 **** 0.1268
21093 H21093 39.3441 65.4425 6.85132 H 0.0 **** 0.1268
21094 H21094 41.6036 71.6381 2.32792 H 0.0 **** 0.1268
21095 H21095 42.9776 61.3624 7.20961 H 0.0 **** 0.053
21096 H21096 40.8456 62.1576 6.9966 H 0.0 **** 0.053
21097 H21097 41.5326 63.9304 9.35785 H 0.0 **** 0.053
21098 H21098 40.4032 61.6934 9.97936 H 0.0 **** 0.053
21099 H21099 39.2772 61.4555 8.64064 H 0.0 **** 0.053
21100 H21100 40.9526 59.6848 7.71798 H 0.0 **** 0.053
21101 H21101 40.1466 59.1934 9.21096 H 0.0 **** 0.053
21102 H21102 42.0262 59.6376 10.5541 H 0.0 **** 0.053
21103 H21103 42.8744 61.7203 10.2293 H 0.0 **** 0.053
21104 H21104 44.828 60.4265 8.28435 H 0.0 **** 0.053
21105 H21105 45.1688 61.6154 9.54066 H 0.0 **** 0.053
21106 H21106 44.5959 59.8592 11.2838 H 0.0 **** 0.053
21107 H21107 45.9613 59.3676 10.272 H 0.0 **** 0.053
21108 H21108 43.7886 57.731 10.7138 H 0.0 **** 0.053
21109 H21109 44.7447 57.6379 9.22827 H 0.0 **** 0.053
21110 H21110 43.1565 58.6974 8.03605 H 0.0 **** 0.353
21111 H21111 45.7035 72.3361 2.75787 H 0.0 **** 0.053
21112 H21112 44.1713 72.6327 0.846894 H 0.0 **** 0.053
21113 H21113 44.1667 69.6839 0.249877 H 0.0 **** 0.053
21114 H21114 43.7975 71.0448 -0.818295 H 0.0 **** 0.053
21115 H21115 45.8439 70.2885 -1.7573 H 0.0 **** 0.053
21116 H21116 46.4844 69.7543 -0.193549 H 0.0 **** 0.053
21117 H21117 46.1147 72.6906 -0.989986 H 0.0 **** 0.053
21118 H21118 47.6595 71.8381 -1.06364 H 0.0 **** 0.053
21119 H21119 47.0764 73.2678 1.1089 H 0.0 **** 0.053
21120 H21120 47.8675 71.699 1.31018 H 0.0 **** 0.053
21121 H21121 47.5636 68.6603 3.1267 H 0.0 **** 0.1268
21122 H21122 49.2976 67.0387 3.82368 H 0.0 **** 0.1268
21123 H21123 45.2225 62.3748 7.45465 H 0.0 **** 0.1268
21124 H21124 47.0595 61.113 8.46089 H 0.0 **** 0.053
21125 H21125 49.2761 61.2267 8.82657 H 0.0 **** 0.053
21126 H21126 49.5063 59.2609 6.53417 H 0.0 **** 0.053
21127 H21127 48.1853 58.9272 9.25488 H 0.0 **** 0.053
21128 H21128 48.6902 57.5436 8.27377 H 0.0 **** 0.053
21129 H21129 46.2095 58.6093 8.0154 H 0.0 **** 0.053
21130 H21130 47.0475 57.8898 6.63612 H 0.0 **** 0.053
21131 H21131 45.9681 60.2956 6.35042 H 0.0 **** 0.053
21132 H21132 47.5722 60.0236 5.67242 H 0.0 **** 0.053
21133 H21133 32.0001 69.0952 0.783541 H 0.0 **** 0.053
21134 H21134 33.6677 67.2964 0.911552 H 0.0 **** 0.053
21135 H21135 33.1775 66.8903 2.56965 H 0.0 **** 0.053
21136 H21136 33.9954 68.4335 2.2412 H 0.0 **** 0.053
21137 H21137 29.905 67.7428 0.912796 H 0.0 **** 0.053
21138 H21138 30.7427 66.5243 1.90593 H 0.0 **** 0.053
21139 H21139 31.2417 66.7837 0.220919 H 0.0 **** 0.053
21140 H21140 39.5903 64.9802 8.85376 H 0.0 **** 0.41
21141 H21141 52.6143 65.2055 4.55077 H 0.0 **** 0.1268
21142 H21142 55.0198 64.6734 4.75292 H 0.0 **** 0.1268
21143 H21143 56.8276 63.249 5.64876 H 0.0 **** 0.1268
21144 H21144 58.6398 61.8494 6.54535 H 0.0 **** 0.1268
21145 H21145 59.3777 59.8754 7.85841 H 0.0 **** 0.1268
21146 H21146 57.1811 56.3472 10.1915 H 0.0 **** 0.1268
21147 H21147 58.834 57.8893 9.21338 H 0.0 **** 0.1268
21148 H21148 50.549 57.4873 9.19418 H 0.0 **** 0.1268
21149 H21149 51.2058 56.7359 10.9613 H 0.0 **** 0.053
21150 H21150 51.5842 55.3232 9.97141 H 0.0 **** 0.053
21151 H21151 51.7904 54.7483 12.3749 H 0.0 **** 0.053
21152 H21152 52.9143 56.1016 12.6245 H 0.0 **** 0.053
21153 H21153 53.39 53.6987 10.7671 H 0.0 **** 0.053
21154 H21154 54.2418 53.9677 12.2926 H 0.0 **** 0.053
21155 C21155 44.3185 18.2525 28.8923 C.3 0.0 **** 0.054
21156 C21156 42.8511 17.7863 28.7454 C.3 0.0 **** -0.106
21157 C21157 41.8963 18.9974 28.7073 C.3 0.0 **** -0.053
21158 C21158 42.3623 20.0348 29.7418 C.3 0.0 **** -0.053
21159 C21159 43.7986 20.5005 29.3883 C.3 0.0 **** 0.054
21160 O21160 44.4744 19.6164 28.4858 O.3 0.0 **** -0.32
21161 C21161 42.271 19.4712 31.1756 C.3 0.0 **** -0.053
21162 C21162 41.0205 18.5686 31.3793 C.3 0.0 **** 0.107
21163 C21163 39.9356 18.9051 30.3704 C.3 0.0 **** -0.106
21164 C21164 40.4162 18.5998 28.94 C.3 0.0 **** -0.106
21165 O21165 40.4555 18.7275 32.69 O.3 0.0 **** -0.32
21166 C21166 41.4475 18.7455 33.7304 C.3 0.0 **** 0.107
21167 C21167 42.1848 20.0949 33.6629 C.3 0.0 **** -0.053
21168 C21168 42.2338 20.6078 32.1936 C.3 0.0 **** -0.106
21169 C21169 43.5089 20.1052 34.3523 C.2 0.0 **** 0.0
21170 C21170 44.1156 18.9644 34.8532 C.2 0.0 **** 0.0
21171 C21171 43.5655 17.6538 34.6145 C.2 0.0 **** 0.0
21172 C21172 42.3607 17.5094 33.712 C.3 0.0 **** -0.053
21173 C21173 44.2075 16.5073 35.0489 C.2 0.0 **** 0.0
21174 C21174 45.4309 16.6091 35.8089 C.2 0.0 **** 0.0
21175 C21175 45.9352 17.9189 36.072 C.2 0.0 **** 0.232
21176 C21176 45.3441 19.0649 35.6169 C.2 0.0 **** 0.0
21177 C21177 45.963 20.4119 35.8913 C.3 0.0 **** -0.106
21178 C21178 44.9184 21.5283 35.8623 C.3 0.0 **** -0.106
21179 C21179 44.1274 21.46 34.5538 C.3 0.0 **** -0.106
21180 O21180 47.1046 18.068 36.7928 O.3 0.0 **** -0.464
21181 C21181 47.7187 16.9794 37.3628 C.2 0.0 **** 0.232
21182 C21182 47.2956 15.6644 37.0974 C.2 0.0 **** 0.0
21183 C21183 46.1324 15.485 36.2614 C.2 0.0 **** 0.0
21184 C21184 41.621 16.2146 33.9519 C.2 0.0 **** 0.0
21185 C21185 42.452 15.0243 34.1133 C.2 0.0 **** 0.0
21186 C21186 43.6951 15.1713 34.7318 C.2 0.0 **** 0.0
21187 C21187 41.8371 13.7407 33.7804 C.2 0.0 **** 0.0
21188 C21188 40.4838 13.6083 33.8989 C.2 0.0 **** 0.0
21189 C21189 39.6094 14.7758 34.2204 C.3 0.0 **** -0.106
21190 C21190 40.2755 16.1012 34.0174 C.2 0.0 **** -0.1268
21191 C21191 39.8449 12.2682 33.6634 C.3 0.0 **** -0.106
21192 C21192 40.8075 11.1443 34.0579 C.3 0.0 **** -0.106
21193 C21193 42.1329 11.3482 33.366 C.2 0.0 **** 0.0
21194 C21194 42.6085 12.6077 33.2199 C.2 0.0 **** 0.0
21195 C21195 43.8161 12.9123 32.3638 C.3 0.0 **** -0.106
21196 C21196 44.3258 11.7052 31.5683 C.3 0.0 **** -0.053
21197 C21197 44.3041 10.4615 32.4639 C.3 0.0 **** -0.106
21198 C21198 42.8643 10.1382 32.8627 C.3 0.0 **** -0.106
21199 C21199 45.6113 14.1937 35.918 C.2 0.0 **** -0.012
21200 C21200 44.443 14.0533 35.21 C.2 0.0 **** -0.1268
21201 C21201 48.0179 14.6222 37.7327 C.2 0.0 **** 0.0
21202 C21202 47.6807 13.2415 37.4957 C.2 0.0 **** -0.012
21203 S21203 46.4744 12.7274 36.3268 S.2 0.0 **** 0.024
21204 C21204 48.3474 12.2307 38.1398 C.2 0.0 **** -0.1268
21205 C21205 49.3896 12.5062 39.0637 C.2 0.0 **** 0.0
21206 C21206 49.7788 13.8596 39.3052 C.2 0.0 **** 0.0
21207 C21207 49.1028 14.9149 38.6331 C.2 0.0 **** 0.0
21208 C21208 50.843 14.1232 40.207 C.2 0.0 **** 0.0
21209 C21209 51.4856 13.0453 40.8899 C.2 0.0 **** 0.0
21210 C21210 51.0271 11.6943 40.682 C.2 0.0 **** 0.0
21211 C21211 50.0183 11.4617 39.7343 C.2 0.0 **** -0.1268
21212 C21212 51.6092 10.6459 41.4546 C.2 0.0 **** 0.0
21213 C21213 52.6996 10.9212 42.2579 C.2 0.0 **** 0.042
21214 C21214 53.265 12.2229 42.4069 C.2 0.0 **** 0.0
21215 C21215 52.591 13.2946 41.7567 C.2 0.0 **** 0.0
21216 C21216 49.5032 16.2743 38.8636 C.2 0.0 **** 0.0
21217 C21217 48.7709 17.2803 38.1998 C.2 0.0 **** -0.1268
21218 C21218 51.266 15.4766 40.4211 C.2 0.0 **** 0.0
21219 C21219 50.6082 16.5546 39.7565 C.2 0.0 **** 0.0
21220 C21220 53.0314 14.6458 41.9521 C.2 0.0 **** 0.0
21221 C21221 52.362 15.716 41.3033 C.2 0.0 **** 0.0
21222 C21222 54.4451 12.4882 43.192 C.2 0.0 **** 0.0
21223 C21223 54.8357 13.8424 43.4147 C.2 0.0 **** 0.0
21224 C21224 54.1329 14.9132 42.8071 C.2 0.0 **** 0.0
21225 O21225 53.1874 9.87531 43.0114 O.3 0.0 **** -0.202
21226 C21226 53.4993 8.65587 42.2802 C.3 0.0 **** 0.107
21227 C21227 52.3933 8.30884 41.2524 C.3 0.0 **** -0.053
21228 C21228 51.1745 9.18808 41.5673 C.3 0.0 **** 0.107
21229 C21229 52.0945 6.80477 41.2397 C.3 0.0 **** -0.106
21230 C21230 53.4161 6.03439 41.3288 C.3 0.0 **** -0.106
21231 C21231 54.0167 6.17961 42.7303 C.3 0.0 **** 0.134
21232 C21232 53.7275 7.58841 43.349 C.3 0.0 **** -0.053
21233 C21233 54.8759 7.99454 44.2875 C.3 0.0 **** -0.106
21234 C21234 55.4072 6.79613 45.0722 C.3 0.0 **** -0.106
21235 C21235 55.9792 5.73322 44.0925 C.3 0.0 **** 0.081
21236 N21236 55.4364 5.82395 42.7285 N.3 0.0 **** -0.727
21237 C21237 51.0939 17.8841 40.0198 C.2 0.0 **** 0.042
21238 C21238 52.1257 18.1162 40.9163 C.2 0.0 **** 0.042
21239 C21239 52.8064 17.0491 41.5575 C.2 0.0 **** 0.0
21240 O21240 52.5749 19.379 41.227 O.3 0.0 **** -0.202
21241 C21241 51.6973 20.452 40.8221 C.3 0.0 **** 0.107
21242 C21242 51.2742 20.1747 39.3893 C.3 0.0 **** 0.107
21243 O21243 50.517 18.949 39.3647 O.3 0.0 **** -0.202
21244 C21244 52.4737 20.1117 38.4208 C.3 0.0 **** -0.106
21245 C21245 53.6717 20.9613 38.8973 C.3 0.0 **** -0.106
21246 C21246 53.1871 22.1905 39.6744 C.3 0.0 **** -0.106
21247 C21247 52.4577 21.7718 40.9675 C.3 0.0 **** -0.106
21248 C21248 54.5648 16.2597 43.046 C.2 0.0 **** 0.0
21249 C21249 53.8826 17.3032 42.4204 C.2 0.0 **** -0.1268
21250 C21250 55.9576 14.1115 44.2478 C.2 0.0 **** 0.0
21251 C21251 56.3401 15.467 44.4908 C.2 0.0 **** 0.042
21252 C21252 55.6759 16.5119 43.9104 C.2 0.0 **** -0.1268
21253 C21253 56.7024 13.0694 44.8203 C.2 0.0 **** 0.0
21254 C21254 56.3643 11.7412 44.53 C.2 0.0 **** 0.0
21255 C21255 55.2627 11.479 43.7364 C.2 0.0 **** -0.1268
21256 O21256 57.4132 15.7532 45.321 O.3 0.0 **** -0.0685
21257 C21257 58.1071 14.7424 45.9459 C.2 0.0 **** 0.0265
21258 C21258 57.7997 13.3934 45.6996 C.2 0.0 **** 0.0
21259 C21259 57.1938 10.5858 45.0242 C.3 0.0 **** -0.053
21260 C21260 58.1245 10.9356 46.2083 C.3 0.0 **** -0.053
21261 C21261 58.5205 12.3822 46.3406 C.2 0.0 **** 0.0
21262 C21262 59.4043 10.0783 46.1988 C.3 0.0 **** -0.053
21263 C21263 59.0633 8.64376 45.8122 C.3 0.0 **** -0.106
21264 C21264 58.5994 8.60223 44.3348 C.3 0.0 **** -0.106
21265 C21265 57.9945 9.943 43.8771 C.3 0.0 **** -0.106
21266 C21266 59.5596 12.7047 47.2265 C.2 0.0 **** 0.0
21267 C21267 59.8279 14.0705 47.5259 C.2 0.0 **** 0.0
21268 C21268 59.1062 15.114 46.8654 C.2 0.0 **** 0.0
21269 C21269 60.1588 10.3101 47.4791 C.2 0.0 **** 0.0
21270 C21270 60.2989 11.6651 47.8896 C.2 0.0 **** 0.0
21271 C21271 45.7051 11.995 30.9401 C.3 0.0 **** -0.053
21272 C21272 46.8378 11.9983 31.9749 C.3 0.0 **** -0.159
21273 C21273 46.0177 11.0053 29.8131 C.3 0.0 **** -0.159
21274 O21274 50.0858 8.74195 40.757 O.3 0.0 **** -0.57
21275 C21275 59.4078 16.4788 47.1821 C.2 0.0 **** -0.1268
21276 C21276 60.3475 16.7859 48.1265 C.2 0.0 **** -0.1268
21277 C21277 61.058 15.7647 48.8404 C.2 0.0 **** 0.0
21278 C21278 60.7886 14.3939 48.5242 C.2 0.0 **** 0.0
21279 C21279 61.4598 13.362 49.2323 C.2 0.0 **** 0.0
21280 C21280 62.3921 13.6856 50.246 C.2 0.0 **** 0.0
21281 C21281 62.6596 15.0591 50.5518 C.2 0.0 **** 0.0
21282 C21282 61.9876 16.0664 49.8409 C.2 0.0 **** -0.1268
21283 C21283 63.6043 15.3664 51.5794 C.2 0.0 **** -0.1268
21284 C21284 64.2459 14.3698 52.266 C.2 0.0 **** -0.1268
21285 C21285 63.9968 12.9935 51.976 C.2 0.0 **** 0.0
21286 C21286 63.0678 12.6506 50.9578 C.2 0.0 **** 0.0
21287 C21287 62.8207 11.2785 50.6498 C.2 0.0 **** 0.0
21288 C21288 61.8902 10.9564 49.6216 C.2 0.0 **** 0.0
21289 C21289 61.2085 11.9895 48.9173 C.2 0.0 **** 0.0
21290 C21290 63.5088 10.243 51.3493 C.2 0.0 **** 0.0
21291 C21291 64.4147 10.6253 52.3773 C.2 0.0 **** -0.1268
21292 C21292 64.6451 11.9519 52.6767 C.2 0.0 **** -0.1268
21293 C21293 60.785 9.31294 48.1928 C.2 0.0 **** -0.1268
21294 C21294 61.6271 9.5964 49.2999 C.2 0.0 **** 0.0
21295 C21295 63.2256 8.86181 51.0171 C.2 0.0 **** 0.052
21296 C21296 62.2526 8.55672 50.0557 C.2 0.0 **** 0.0
21297 C21297 61.8263 7.13113 49.7843 C.3 0.0 **** -0.106
21298 C21298 62.0779 6.22004 50.9795 C.3 0.0 **** -0.106
21299 C21299 63.5479 6.31358 51.3531 C.3 0.0 **** -0.086
21300 C21300 64.0186 7.74033 51.6067 C.2 0.0 **** 0.347
21301 O21301 65.0661 7.89794 52.2358 O.2 0.0 **** -0.419
21302 H21302 44.9954 17.668 28.2545 H 0.0 **** 0.053
21303 H21303 44.6588 18.1426 29.9415 H 0.0 **** 0.053
21304 H21304 42.7184 17.1978 27.8247 H 0.0 **** 0.053
21305 H21305 42.5892 17.1274 29.5884 H 0.0 **** 0.053
21306 H21306 41.994 19.4537 27.7115 H 0.0 **** 0.053
21307 H21307 41.6941 20.9103 29.6852 H 0.0 **** 0.053
21308 H21308 44.3972 20.6007 30.3178 H 0.0 **** 0.053
21309 H21309 43.7881 21.4738 28.8779 H 0.0 **** 0.053
21310 H21310 43.1783 18.8736 31.3589 H 0.0 **** 0.053
21311 H21311 41.3019 17.5058 31.2491 H 0.0 **** 0.053
21312 H21312 39.6846 19.973 30.4745 H 0.0 **** 0.053
21313 H21313 39.0249 18.3359 30.6057 H 0.0 **** 0.053
21314 H21314 39.7672 19.1274 28.2252 H 0.0 **** 0.053
21315 H21315 40.2976 17.5231 28.7346 H 0.0 **** 0.053
21316 H21316 40.8704 18.7017 34.6657 H 0.0 **** 0.053
21317 H21317 41.5543 20.8265 34.2038 H 0.0 **** 0.053
21318 H21318 43.0986 21.2727 32.0514 H 0.0 **** 0.053
21319 H21319 41.3315 21.2071 31.9942 H 0.0 **** 0.053
21320 H21320 42.8009 17.4185 32.6983 H 0.0 **** 0.053
21321 H21321 46.493 20.3913 36.8544 H 0.0 **** 0.053
21322 H21322 46.7324 20.6193 35.1236 H 0.0 **** 0.053
21323 H21323 45.404 22.5098 35.9734 H 0.0 **** 0.053
21324 H21324 44.2246 21.4014 36.7091 H 0.0 **** 0.053
21325 H21325 44.8081 21.697 33.7116 H 0.0 **** 0.053
21326 H21326 43.3384 22.2306 34.5275 H 0.0 **** 0.053
21327 H21327 39.2468 14.6969 35.2692 H 0.0 **** 0.053
21328 H21328 38.6822 14.7105 33.6181 H 0.0 **** 0.053
21329 H21329 39.6367 16.9775 33.9207 H 0.0 **** 0.1268
21330 H21330 38.9002 12.1993 34.2261 H 0.0 **** 0.053
21331 H21331 39.5822 12.1721 32.5902 H 0.0 **** 0.053
21332 H21332 40.3923 10.1579 33.7986 H 0.0 **** 0.053
21333 H21333 40.9493 11.1564 35.1558 H 0.0 **** 0.053
21334 H21334 43.5485 13.7284 31.6691 H 0.0 **** 0.053
21335 H21335 44.6354 13.32 32.9754 H 0.0 **** 0.053
21336 H21336 43.6173 11.5218 30.739 H 0.0 **** 0.053
21337 H21337 44.8945 10.6623 33.3728 H 0.0 **** 0.053
21338 H21338 44.7656 9.60049 31.9564 H 0.0 **** 0.053
21339 H21339 42.8394 9.35649 33.6437 H 0.0 **** 0.053
21340 H21340 42.3195 9.70669 32.0004 H 0.0 **** 0.053
21341 H21341 44.0476 13.0527 35.0362 H 0.0 **** 0.1268
21342 H21342 48.0782 11.1877 37.9584 H 0.0 **** 0.1268
21343 H21343 49.7337 10.444 39.486 H 0.0 **** 0.1268
21344 H21344 49.0103 18.3247 38.336 H 0.0 **** 0.1268
21345 H21345 54.4528 8.83579 41.7491 H 0.0 **** 0.053
21346 H21346 52.7454 8.59633 40.2489 H 0.0 **** 0.053
21347 H21347 50.9193 9.0119 42.6328 H 0.0 **** 0.053
21348 H21348 51.4476 6.54266 42.0945 H 0.0 **** 0.053
21349 H21349 51.5334 6.55182 40.3312 H 0.0 **** 0.053
21350 H21350 54.1251 6.44489 40.5873 H 0.0 **** 0.053
21351 H21351 53.2975 4.96822 41.0919 H 0.0 **** 0.053
21352 H21352 53.5239 5.4409 43.3853 H 0.0 **** 0.053
21353 H21353 52.7962 7.52152 43.9367 H 0.0 **** 0.053
21354 H21354 55.6977 8.40951 43.6788 H 0.0 **** 0.053
21355 H21355 54.5483 8.80176 44.9567 H 0.0 **** 0.053
21356 H21356 54.5866 6.36338 45.6666 H 0.0 **** 0.053
21357 H21357 56.1845 7.11322 45.7856 H 0.0 **** 0.053
21358 H21358 55.7711 4.72163 44.4803 H 0.0 **** 0.053
21359 H21359 57.0728 5.82747 44.0195 H 0.0 **** 0.053
21360 H21360 55.9558 6.52021 42.1924 H 0.0 **** 0.353
21361 H21361 50.8075 20.4248 41.4731 H 0.0 **** 0.053
21362 H21362 50.553 20.9422 39.0741 H 0.0 **** 0.053
21363 H21363 52.7743 19.0589 38.3184 H 0.0 **** 0.053
21364 H21364 52.131 20.4475 37.4311 H 0.0 **** 0.053
21365 H21365 54.2792 21.2635 38.0317 H 0.0 **** 0.053
21366 H21366 54.3138 20.3547 39.5528 H 0.0 **** 0.053
21367 H21367 52.5033 22.7722 39.0327 H 0.0 **** 0.053
21368 H21368 54.0262 22.8568 39.9227 H 0.0 **** 0.053
21369 H21369 51.7524 22.5561 41.2805 H 0.0 **** 0.053
21370 H21370 53.1758 21.6392 41.7913 H 0.0 **** 0.053
21371 H21371 54.1925 18.3316 42.5988 H 0.0 **** 0.1268
21372 H21372 55.9923 17.5381 44.0999 H 0.0 **** 0.1268
21373 H21373 55.0145 10.4477 43.5409 H 0.0 **** 0.1268
21374 H21374 56.4983 9.80892 45.3766 H 0.0 **** 0.053
21375 H21375 57.5849 10.6813 47.1424 H 0.0 **** 0.053
21376 H21376 60.0569 10.4908 45.403 H 0.0 **** 0.053
21377 H21377 58.2647 8.28084 46.4814 H 0.0 **** 0.053
21378 H21378 59.9254 7.97619 45.9516 H 0.0 **** 0.053
21379 H21379 57.8504 7.80694 44.2132 H 0.0 **** 0.053
21380 H21380 59.449 8.34281 43.6846 H 0.0 **** 0.053
21381 H21381 57.336 9.79594 43.0077 H 0.0 **** 0.053
21382 H21382 58.7812 10.6437 43.5553 H 0.0 **** 0.053
21383 H21383 45.6443 13.0057 30.4966 H 0.0 **** 0.053
21384 H21384 47.7776 12.3408 31.5163 H 0.0 **** 0.053
21385 H21385 47.0083 10.9822 32.3629 H 0.0 **** 0.053
21386 H21386 46.6219 12.6517 32.8339 H 0.0 **** 0.053
21387 H21387 45.2294 11.0176 29.0439 H 0.0 **** 0.053
21388 H21388 46.0924 9.97838 30.2051 H 0.0 **** 0.053
21389 H21389 46.9764 11.2459 29.329 H 0.0 **** 0.053
21390 H21390 49.2874 9.19233 41.0729 H 0.0 **** 0.41
21391 H21391 58.8659 17.268 46.6611 H 0.0 **** 0.1268
21392 H21392 60.5674 17.8281 48.3645 H 0.0 **** 0.1268
21393 H21393 62.1911 17.1121 50.0822 H 0.0 **** 0.1268
21394 H21394 63.8006 16.4159 51.806 H 0.0 **** 0.1268
21395 H21395 64.9611 14.6107 53.0549 H 0.0 **** 0.1268
21396 H21396 64.9377 9.8464 52.9217 H 0.0 **** 0.1268
21397 H21397 65.3438 12.2121 53.4747 H 0.0 **** 0.1268
21398 H21398 60.6613 8.28361 47.8671 H 0.0 **** 0.1268
21399 H21399 60.7582 7.11778 49.5255 H 0.0 **** 0.053
21400 H21400 62.3666 6.74041 48.9013 H 0.0 **** 0.053
21401 H21401 61.7908 5.18395 50.7441 H 0.0 **** 0.053
21402 H21402 61.4536 6.55357 51.8246 H 0.0 **** 0.053
21403 H21403 64.1669 5.92609 50.5227 H 0.0 **** 0.053
21404 H21404 63.8124 5.72461 52.2428 H 0.0 **** 0.053
21405 C21405 78.0428 84.2079 59.0102 C.3 0.0 **** 0.054
21406 C21406 78.4149 84.4974 57.5371 C.3 0.0 **** -0.106
21407 C21407 77.7455 85.8001 57.0525 C.3 0.0 **** -0.053
21408 C21408 76.3087 85.8567 57.5964 C.3 0.0 **** -0.053
21409 C21409 76.3475 85.844 59.1467 C.3 0.0 **** 0.054
21410 O21410 77.5998 85.3943 59.678 O.3 0.0 **** -0.32
21411 C21411 75.4521 84.7059 57.0275 C.3 0.0 **** -0.053
21412 C21412 75.7875 84.3964 55.5404 C.3 0.0 **** 0.107
21413 C21413 76.4131 85.6025 54.8606 C.3 0.0 **** -0.106
21414 C21414 77.7666 85.9452 55.5093 C.3 0.0 **** -0.106
21415 O21415 74.6151 84.0391 54.7921 O.3 0.0 **** -0.32
21416 C21416 73.7604 83.1198 55.4932 C.3 0.0 **** 0.107
21417 C21417 73.053 83.8921 56.6211 C.3 0.0 **** -0.053
21418 C21418 73.9673 85.0397 57.1423 C.3 0.0 **** -0.106
21419 C21419 72.4943 83.0255 57.7007 C.2 0.0 **** 0.0
21420 C21420 72.7401 81.6645 57.7885 C.2 0.0 **** 0.0
21421 C21421 73.6786 81.0119 56.9106 C.2 0.0 **** 0.0
21422 C21422 74.49 81.8442 55.9434 C.3 0.0 **** -0.053
21423 C21423 73.9827 79.6683 57.0433 C.2 0.0 **** 0.0
21424 C21424 73.3126 78.8721 58.0443 C.2 0.0 **** 0.0
21425 C21425 72.3542 79.5288 58.8744 C.2 0.0 **** 0.232
21426 C21426 72.0679 80.8634 58.793 C.2 0.0 **** 0.0
21427 C21427 71.08 81.4982 59.7384 C.3 0.0 **** -0.106
21428 C21428 70.4563 82.7589 59.1386 C.3 0.0 **** -0.106
21429 C21429 71.5618 83.7049 58.6637 C.3 0.0 **** -0.106
21430 O21430 71.6889 78.8099 59.849 O.3 0.0 **** -0.464
21431 C21431 71.8482 77.4489 59.9458 C.2 0.0 **** 0.232
21432 C21432 72.8124 76.7583 59.1894 C.2 0.0 **** 0.0
21433 C21433 73.5896 77.513 58.2352 C.2 0.0 **** 0.0
21434 C21434 75.0247 81.0228 54.7942 C.2 0.0 **** 0.0
21435 C21435 75.5798 79.7182 55.1451 C.2 0.0 **** 0.0
21436 C21436 75.0004 79.0235 56.2088 C.2 0.0 **** 0.0
21437 C21437 76.5795 79.1607 54.2361 C.2 0.0 **** 0.0
21438 C21438 76.5443 79.5181 52.9192 C.2 0.0 **** 0.0
21439 C21439 75.6053 80.5663 52.4186 C.3 0.0 **** -0.106
21440 C21440 75.0222 81.4196 53.5019 C.2 0.0 **** -0.1268
21441 C21441 77.4962 78.8756 51.9493 C.3 0.0 **** -0.106
21442 C21442 77.8232 77.447 52.3936 C.3 0.0 **** -0.106
21443 C21443 78.2882 77.4582 53.8292 C.2 0.0 **** 0.0
21444 C21444 77.6941 78.3049 54.7033 C.2 0.0 **** 0.0
21445 C21445 78.2351 78.5246 56.0972 C.3 0.0 **** -0.106
21446 C21446 79.5823 77.838 56.3488 C.3 0.0 **** -0.053
21447 C21447 79.5566 76.4316 55.7399 C.3 0.0 **** -0.106
21448 C21448 79.3993 76.5294 54.2226 C.3 0.0 **** -0.106
21449 C21449 74.6034 76.9193 57.4125 C.2 0.0 **** -0.012
21450 C21450 75.2533 77.6375 56.439 C.2 0.0 **** -0.1268
21451 C21451 72.8928 75.3562 59.3871 C.2 0.0 **** 0.0
21452 C21452 73.872 74.5678 58.683 C.2 0.0 **** -0.012
21453 S21453 75.1132 75.2626 57.6521 S.2 0.0 **** 0.024
21454 C21454 73.9267 73.2061 58.8376 C.2 0.0 **** -0.1268
21455 C21455 73.0212 72.524 59.6923 C.2 0.0 **** 0.0
21456 C21456 72.0544 73.2694 60.4347 C.2 0.0 **** 0.0
21457 C21457 71.9973 74.6831 60.2918 C.2 0.0 **** 0.0
21458 C21458 71.1741 72.5815 61.3107 C.2 0.0 **** 0.0
21459 C21459 71.2349 71.1578 61.4133 C.2 0.0 **** 0.0
21460 C21460 72.1722 70.4232 60.6005 C.2 0.0 **** 0.0
21461 C21461 73.073 71.1374 59.7954 C.2 0.0 **** -0.1268
21462 C21462 72.1419 68.9975 60.6377 C.2 0.0 **** 0.0
21463 C21463 71.3361 68.3606 61.5624 C.2 0.0 **** 0.042
21464 C21464 70.4765 69.0482 62.4705 C.2 0.0 **** 0.0
21465 C21465 70.392 70.4619 62.33 C.2 0.0 **** 0.0
21466 C21466 71.0362 75.4345 61.0488 C.2 0.0 **** 0.0
21467 C21467 70.9997 76.8282 60.8364 C.2 0.0 **** -0.1268
21468 C21468 70.2301 73.3284 62.0901 C.2 0.0 **** 0.0
21469 C21469 70.154 74.7484 61.9696 C.2 0.0 **** 0.0
21470 C21470 69.4648 71.2104 63.1288 C.2 0.0 **** 0.0
21471 C21471 69.3801 72.6205 62.9918 C.2 0.0 **** 0.0
21472 C21472 69.6922 68.3789 63.4786 C.2 0.0 **** 0.0
21473 C21473 68.7404 69.1342 64.2266 C.2 0.0 **** 0.0
21474 C21474 68.6211 70.5358 64.0502 C.2 0.0 **** 0.0
21475 O21475 71.3191 66.9832 61.5174 O.3 0.0 **** -0.202
21476 C21476 72.6186 66.3291 61.5689 C.3 0.0 **** 0.107
21477 C21477 73.6495 67.0367 60.6543 C.3 0.0 **** -0.053
21478 C21478 72.877 68.0029 59.7447 C.3 0.0 **** 0.107
21479 C21479 74.5154 66.0215 59.8985 C.3 0.0 **** -0.106
21480 C21480 74.895 64.884 60.8523 C.3 0.0 **** -0.106
21481 C21481 73.6674 64.02 61.1565 C.3 0.0 **** 0.134
21482 C21482 72.3525 64.8681 61.2105 C.3 0.0 **** -0.053
21483 C21483 71.3615 64.2361 62.2021 C.3 0.0 **** -0.106
21484 C21484 71.4065 62.7102 62.1417 C.3 0.0 **** -0.106
21485 C21485 72.8232 62.2062 62.5362 C.3 0.0 **** 0.081
21486 N21486 73.886 63.2064 62.3532 N.3 0.0 **** -0.727
21487 C21487 69.1839 75.427 62.7889 C.2 0.0 **** 0.042
21488 C21488 68.3256 74.7306 63.6259 C.2 0.0 **** 0.042
21489 C21489 68.415 73.3225 63.7759 C.2 0.0 **** 0.0
21490 O21490 67.3543 75.3477 64.38 O.3 0.0 **** -0.202
21491 C21491 67.0657 76.7107 63.9999 C.3 0.0 **** 0.107
21492 C21492 68.3962 77.4232 63.824 C.3 0.0 **** 0.107
21493 O21493 69.1083 76.8008 62.7369 O.3 0.0 **** -0.202
21494 C21494 69.2393 77.4278 65.1162 C.3 0.0 **** -0.106
21495 C21495 68.375 77.3569 66.3938 C.3 0.0 **** -0.106
21496 C21496 67.0307 78.0603 66.1763 C.3 0.0 **** -0.106
21497 C21497 66.2006 77.3388 65.0946 C.3 0.0 **** -0.106
21498 C21498 67.6608 71.261 64.8304 C.2 0.0 **** 0.0
21499 C21499 67.5722 72.6434 64.6681 C.2 0.0 **** -0.1268
21500 C21500 67.9139 68.4648 65.1721 C.2 0.0 **** 0.0
21501 C21501 66.9446 69.2135 65.9087 C.2 0.0 **** 0.042
21502 C21502 66.8182 70.5662 65.7539 C.2 0.0 **** -0.1268
21503 C21503 68.046 67.0874 65.4039 C.2 0.0 **** 0.0
21504 C21504 69.039 66.3673 64.7271 C.2 0.0 **** 0.0
21505 C21505 69.8293 67.0132 63.7942 C.2 0.0 **** -0.1268
21506 O21506 66.1102 68.5773 66.8153 O.3 0.0 **** -0.0685
21507 C21507 66.1809 67.2154 66.999 C.2 0.0 **** 0.0265
21508 C21508 67.15 66.4444 66.3345 C.2 0.0 **** 0.0
21509 C21509 69.3009 64.9133 65.0173 C.3 0.0 **** -0.053
21510 C21510 68.1382 64.1922 65.7378 C.3 0.0 **** -0.053
21511 C21511 67.208 65.0633 66.5396 C.2 0.0 **** 0.0
21512 C21512 68.6481 63.0573 66.6461 C.3 0.0 **** -0.053
21513 C21513 69.7808 62.309 65.9528 C.3 0.0 **** -0.106
21514 C21514 71.013 63.2391 65.8243 C.3 0.0 **** -0.106
21515 C21515 70.6175 64.7275 65.7932 C.3 0.0 **** -0.106
21516 C21516 66.3068 64.4381 67.4146 C.2 0.0 **** 0.0
21517 C21517 65.2842 65.2085 68.0371 C.2 0.0 **** 0.0
21518 C21518 65.2239 66.6247 67.8458 C.2 0.0 **** 0.0
21519 C21519 67.472 62.2639 67.1457 C.2 0.0 **** 0.0
21520 C21520 66.3631 63.0166 67.6229 C.2 0.0 **** 0.0
21521 C21521 79.9465 77.8598 57.8482 C.3 0.0 **** -0.053
21522 C21522 79.1062 76.8784 58.6756 C.3 0.0 **** -0.159
21523 C21523 81.4398 77.5888 58.0579 C.3 0.0 **** -0.159
21524 O21524 73.7861 68.5137 58.7682 O.3 0.0 **** -0.57
21525 C21525 64.1879 67.3726 68.495 C.2 0.0 **** -0.1268
21526 C21526 63.2466 66.7429 69.2609 C.2 0.0 **** -0.1268
21527 C21527 63.2502 65.3195 69.4378 C.2 0.0 **** 0.0
21528 C21528 64.2895 64.5546 68.8162 C.2 0.0 **** 0.0
21529 C21529 64.3037 63.1413 68.9547 C.2 0.0 **** 0.0
21530 C21530 63.296 62.4901 69.7043 C.2 0.0 **** 0.0
21531 C21531 62.2637 63.2634 70.3273 C.2 0.0 **** 0.0
21532 C21532 62.2658 64.6599 70.1809 C.2 0.0 **** -0.1268
21533 C21533 61.254 62.5878 71.0802 C.2 0.0 **** -0.1268
21534 C21534 61.2654 61.224 71.2072 C.2 0.0 **** -0.1268
21535 C21535 62.2865 60.4333 70.597 C.2 0.0 **** 0.0
21536 C21536 63.3089 61.0709 69.8451 C.2 0.0 **** 0.0
21537 C21537 64.3425 60.292 69.242 C.2 0.0 **** 0.0
21538 C21538 65.3613 60.9512 68.4974 C.2 0.0 **** 0.0
21539 C21539 65.3432 62.3675 68.3489 C.2 0.0 **** 0.0
21540 C21540 64.3659 58.8741 69.3966 C.2 0.0 **** 0.0
21541 C21541 63.3127 58.2699 70.1378 C.2 0.0 **** -0.1268
21542 C21542 62.3121 59.0254 70.7127 C.2 0.0 **** -0.1268
21543 C21543 67.4614 60.8912 67.2525 C.2 0.0 **** -0.1268
21544 C21544 66.3989 60.1949 67.8863 C.2 0.0 **** 0.0
21545 C21545 65.4241 58.115 68.7623 C.2 0.0 **** 0.052
21546 C21546 66.378 58.768 67.9699 C.2 0.0 **** 0.0
21547 C21547 67.4102 57.9983 67.1764 C.3 0.0 **** -0.106
21548 C21548 66.9513 56.5794 66.8631 C.3 0.0 **** -0.106
21549 C21549 66.6058 55.887 68.1709 C.3 0.0 **** -0.086
21550 C21550 65.588 56.65 69.0095 C.2 0.0 **** 0.347
21551 O21551 64.9919 56.0331 69.8938 O.2 0.0 **** -0.419
21552 H21552 78.9069 83.8439 59.5826 H 0.0 **** 0.053
21553 H21553 77.2475 83.4379 59.0668 H 0.0 **** 0.053
21554 H21554 79.5055 84.5917 57.4209 H 0.0 **** 0.053
21555 H21555 78.0961 83.6533 56.9054 H 0.0 **** 0.053
21556 H21556 78.3037 86.6352 57.5001 H 0.0 **** 0.053
21557 H21557 75.8488 86.8054 57.2726 H 0.0 **** 0.053
21558 H21558 75.533 85.1969 59.5344 H 0.0 **** 0.053
21559 H21559 76.2109 86.8542 59.5574 H 0.0 **** 0.053
21560 H21560 75.6518 83.8083 57.6344 H 0.0 **** 0.053
21561 H21561 76.5038 83.5539 55.4866 H 0.0 **** 0.053
21562 H21562 75.7156 86.4511 54.9496 H 0.0 **** 0.053
21563 H21563 76.5357 85.3977 53.7874 H 0.0 **** 0.053
21564 H21564 78.046 86.9724 55.231 H 0.0 **** 0.053
21565 H21565 78.5485 85.2859 55.0978 H 0.0 **** 0.053
21566 H21566 73.0117 82.8129 54.7482 H 0.0 **** 0.053
21567 H21567 72.1851 84.4008 56.1593 H 0.0 **** 0.053
21568 H21568 73.7131 85.2852 58.1841 H 0.0 **** 0.053
21569 H21569 73.7799 85.9452 56.5439 H 0.0 **** 0.053
21570 H21570 75.3786 82.1436 56.5353 H 0.0 **** 0.053
21571 H21571 70.3063 80.7684 60.017 H 0.0 **** 0.053
21572 H21572 71.5997 81.7661 60.6778 H 0.0 **** 0.053
21573 H21573 69.8098 83.2553 59.8783 H 0.0 **** 0.053
21574 H21574 69.8265 82.4809 58.278 H 0.0 **** 0.053
21575 H21575 72.1248 84.0688 59.5465 H 0.0 **** 0.053
21576 H21576 71.1357 84.6046 58.1883 H 0.0 **** 0.053
21577 H21577 74.7856 80.0901 51.8364 H 0.0 **** 0.053
21578 H21578 76.1279 81.1926 51.6694 H 0.0 **** 0.053
21579 H21579 74.5951 82.3788 53.2139 H 0.0 **** 0.1268
21580 H21580 77.064 78.8885 50.9359 H 0.0 **** 0.053
21581 H21581 78.4295 79.4728 51.9034 H 0.0 **** 0.053
21582 H21582 78.595 76.9985 51.7487 H 0.0 **** 0.053
21583 H21583 76.9162 76.8197 52.2958 H 0.0 **** 0.053
21584 H21584 78.3371 79.6126 56.2592 H 0.0 **** 0.053
21585 H21585 77.5085 78.1937 56.8547 H 0.0 **** 0.053
21586 H21586 80.3609 78.4113 55.8117 H 0.0 **** 0.053
21587 H21587 78.7016 75.8747 56.1568 H 0.0 **** 0.053
21588 H21588 80.4693 75.8724 55.9971 H 0.0 **** 0.053
21589 H21589 79.2039 75.5341 53.7833 H 0.0 **** 0.053
21590 H21590 80.3481 76.8697 53.7639 H 0.0 **** 0.053
21591 H21591 75.9631 77.1254 55.7898 H 0.0 **** 0.1268
21592 H21592 74.6682 72.6174 58.2928 H 0.0 **** 0.1268
21593 H21593 73.8549 70.6092 59.2586 H 0.0 **** 0.1268
21594 H21594 70.2943 77.4534 61.3636 H 0.0 **** 0.1268
21595 H21595 72.9615 66.3801 62.6193 H 0.0 **** 0.053
21596 H21596 74.3129 67.6506 61.2842 H 0.0 **** 0.053
21597 H21597 72.1002 67.4032 59.2269 H 0.0 **** 0.053
21598 H21598 73.9567 65.619 59.0361 H 0.0 **** 0.053
21599 H21599 75.4001 66.5275 59.4918 H 0.0 **** 0.053
21600 H21600 75.2767 65.3147 61.7957 H 0.0 **** 0.053
21601 H21601 75.6969 64.2493 60.451 H 0.0 **** 0.053
21602 H21602 73.5463 63.3039 60.3257 H 0.0 **** 0.053
21603 H21603 71.8989 64.8641 60.2049 H 0.0 **** 0.053
21604 H21604 71.6327 64.5566 63.2228 H 0.0 **** 0.053
21605 H21605 70.3481 64.6175 62.017 H 0.0 **** 0.053
21606 H21606 71.1573 62.3835 61.1194 H 0.0 **** 0.053
21607 H21607 70.6475 62.2729 62.8099 H 0.0 **** 0.053
21608 H21608 73.0801 61.316 61.9373 H 0.0 **** 0.053
21609 H21609 72.8403 61.8957 63.5914 H 0.0 **** 0.053
21610 H21610 73.934 63.8171 63.1697 H 0.0 **** 0.353
21611 H21611 66.5378 76.6872 63.032 H 0.0 **** 0.053
21612 H21612 68.2098 78.4476 63.4713 H 0.0 **** 0.053
21613 H21613 69.9272 76.5707 65.0775 H 0.0 **** 0.053
21614 H21614 69.8568 78.3379 65.1173 H 0.0 **** 0.053
21615 H21615 68.9194 77.8105 67.235 H 0.0 **** 0.053
21616 H21616 68.1894 76.304 66.653 H 0.0 **** 0.053
21617 H21617 67.2188 79.103 65.8677 H 0.0 **** 0.053
21618 H21618 66.4548 78.1097 67.1121 H 0.0 **** 0.053
21619 H21619 65.489 78.0369 64.629 H 0.0 **** 0.053
21620 H21620 65.607 76.5259 65.5404 H 0.0 **** 0.053
21621 H21621 66.8418 73.2071 65.2464 H 0.0 **** 0.1268
21622 H21622 66.08 71.1199 66.3351 H 0.0 **** 0.1268
21623 H21623 70.5759 66.4328 63.2755 H 0.0 **** 0.1268
21624 H21624 69.448 64.4066 64.0513 H 0.0 **** 0.053
21625 H21625 67.511 63.7124 64.9602 H 0.0 **** 0.053
21626 H21626 69.0726 63.54 67.5494 H 0.0 **** 0.053
21627 H21627 69.4305 61.987 64.9574 H 0.0 **** 0.053
21628 H21628 70.056 61.3992 66.5049 H 0.0 **** 0.053
21629 H21629 71.5592 62.9903 64.9034 H 0.0 **** 0.053
21630 H21630 71.7034 63.0609 66.6631 H 0.0 **** 0.053
21631 H21631 71.4088 65.3303 65.3223 H 0.0 **** 0.053
21632 H21632 70.4897 65.1253 66.8124 H 0.0 **** 0.053
21633 H21633 79.7332 78.8822 58.2104 H 0.0 **** 0.053
21634 H21634 79.2967 77.019 59.7502 H 0.0 **** 0.053
21635 H21635 79.3692 75.8391 58.4247 H 0.0 **** 0.053
21636 H21636 78.0259 76.9999 58.504 H 0.0 **** 0.053
21637 H21637 82.0565 78.3089 57.4971 H 0.0 **** 0.053
21638 H21638 81.7048 76.5762 57.7143 H 0.0 **** 0.053
21639 H21639 81.7095 77.6588 59.1227 H 0.0 **** 0.053
21640 H21640 73.2618 68.9937 58.1088 H 0.0 **** 0.41
21641 H21641 64.1599 68.4535 68.3585 H 0.0 **** 0.1268
21642 H21642 62.4585 67.3199 69.7479 H 0.0 **** 0.1268
21643 H21643 61.4729 65.2441 70.6531 H 0.0 **** 0.1268
21644 H21644 60.4709 63.1855 71.5503 H 0.0 **** 0.1268
21645 H21645 60.4873 60.713 71.7776 H 0.0 **** 0.1268
21646 H21646 63.3154 57.1916 70.2552 H 0.0 **** 0.1268
21647 H21647 61.5153 58.5304 71.2721 H 0.0 **** 0.1268
21648 H21648 68.315 60.3333 66.877 H 0.0 **** 0.1268
21649 H21649 67.6197 58.5359 66.241 H 0.0 **** 0.053
21650 H21650 68.3636 57.9632 67.7368 H 0.0 **** 0.053
21651 H21651 67.733 56.0314 66.3154 H 0.0 **** 0.053
21652 H21652 66.0608 56.6236 66.2148 H 0.0 **** 0.053
21653 H21653 67.5149 55.7963 68.7938 H 0.0 **** 0.053
21654 H21654 66.214 54.8686 68.0375 H 0.0 **** 0.053
21655 C21655 26.0265 56.4725 68.1906 C.3 0.0 **** 0.054
21656 C21656 27.0532 55.484 68.7915 C.3 0.0 **** -0.106
21657 C21657 26.7395 55.2091 70.2767 C.3 0.0 **** -0.053
21658 C21658 26.3267 56.5265 70.9531 C.3 0.0 **** -0.053
21659 C21659 25.06 57.0856 70.2545 C.3 0.0 **** 0.054
21660 O21660 24.8229 56.5075 68.9652 O.3 0.0 **** -0.32
21661 C21661 27.4884 57.5425 70.949 C.3 0.0 **** -0.053
21662 C21662 28.8696 56.8646 71.178 C.3 0.0 **** 0.107
21663 C21663 28.7116 55.5352 71.8963 C.3 0.0 **** -0.106
21664 C21664 27.9221 54.5419 71.0244 C.3 0.0 **** -0.106
21665 O21665 29.7409 57.6839 71.9729 O.3 0.0 **** -0.32
21666 C21666 29.7285 59.0657 71.5762 C.3 0.0 **** 0.107
21667 C21667 28.3953 59.6819 72.0368 C.3 0.0 **** -0.053
21668 C21668 27.272 58.6038 72.0243 C.3 0.0 **** -0.106
21669 C21669 28.0288 60.9463 71.3329 C.2 0.0 **** 0.0
21670 C21670 28.7208 61.4357 70.2365 C.2 0.0 **** 0.0
21671 C21671 29.77 60.6731 69.6081 C.2 0.0 **** 0.0
21672 C21672 30.0523 59.267 70.0874 C.3 0.0 **** -0.053
21673 C21673 30.4126 61.1249 68.4687 C.2 0.0 **** 0.0
21674 C21674 30.0755 62.4143 67.9132 C.2 0.0 **** 0.0
21675 C21675 29.0641 63.1729 68.577 C.2 0.0 **** 0.232
21676 C21676 28.3837 62.7306 69.6775 C.2 0.0 **** 0.0
21677 C21677 27.2915 63.5664 70.2951 C.3 0.0 **** -0.106
21678 C21678 27.0941 63.2319 71.774 C.3 0.0 **** -0.106
21679 C21679 26.8942 61.7235 71.939 C.3 0.0 **** -0.106
21680 O21680 28.7044 64.4117 68.0817 O.3 0.0 **** -0.464
21681 C21681 29.393 64.9731 67.0339 C.2 0.0 **** 0.232
21682 C21682 30.363 64.2539 66.3123 C.2 0.0 **** 0.0
21683 C21683 30.6804 62.917 66.7548 C.2 0.0 **** 0.0
21684 C21684 31.4389 58.8033 69.708 C.2 0.0 **** 0.0
21685 C21685 31.8687 59.1195 68.3484 C.2 0.0 **** 0.0
21686 C21686 31.4181 60.312 67.7787 C.2 0.0 **** 0.0
21687 C21687 32.8864 58.251 67.7597 C.2 0.0 **** 0.0
21688 C21688 33.765 57.6121 68.5861 C.2 0.0 **** 0.0
21689 C21689 33.6216 57.6667 70.0719 C.3 0.0 **** -0.106
21690 C21690 32.2733 58.1287 70.5303 C.2 0.0 **** -0.1268
21691 C21691 34.8833 56.7993 67.9959 C.3 0.0 **** -0.106
21692 C21692 35.3176 57.3908 66.6517 C.3 0.0 **** -0.106
21693 C21693 34.1119 57.5572 65.7597 C.2 0.0 **** 0.0
21694 C21694 32.9395 57.9524 66.3102 C.2 0.0 **** 0.0
21695 C21695 31.6458 57.9429 65.5292 C.3 0.0 **** -0.106
21696 C21696 31.7688 57.2977 64.1441 C.3 0.0 **** -0.053
21697 C21697 33.0708 57.7619 63.4819 C.3 0.0 **** -0.106
21698 C21698 34.2674 57.2686 64.2952 C.3 0.0 **** -0.106
21699 C21699 31.6473 62.0872 66.0963 C.2 0.0 **** -0.012
21700 C21700 32.0072 60.8614 66.6001 C.2 0.0 **** -0.1268
21701 C21701 30.9959 64.9357 65.2417 C.2 0.0 **** 0.0
21702 C21702 31.978 64.2711 64.4231 C.2 0.0 **** -0.012
21703 S21703 32.3712 62.5659 64.5768 S.2 0.0 **** 0.024
21704 C21704 32.6243 64.9376 63.4136 C.2 0.0 **** -0.1268
21705 C21705 32.353 66.3041 63.1402 C.2 0.0 **** 0.0
21706 C21706 31.3635 66.9938 63.906 C.2 0.0 **** 0.0
21707 C21707 30.678 66.3087 64.9468 C.2 0.0 **** 0.0
21708 C21708 31.0769 68.3511 63.6044 C.2 0.0 **** 0.0
21709 C21709 31.801 69.0229 62.5721 C.2 0.0 **** 0.0
21710 C21710 32.8436 68.325 61.8616 C.2 0.0 **** 0.0
21711 C21711 33.0561 66.9654 62.138 C.2 0.0 **** -0.1268
21712 C21712 33.6266 69.0453 60.9115 C.2 0.0 **** 0.0
21713 C21713 33.2676 70.3375 60.5776 C.2 0.0 **** 0.042
21714 C21714 32.1701 71.0322 61.1686 C.2 0.0 **** 0.0
21715 C21715 31.4838 70.3698 62.2248 C.2 0.0 **** 0.0
21716 C21716 29.6727 66.9966 65.7069 C.2 0.0 **** 0.0
21717 C21717 29.0548 66.2785 66.7515 C.2 0.0 **** -0.1268
21718 C21718 30.0551 69.0359 64.3415 C.2 0.0 **** 0.0
21719 C21719 29.3484 68.3713 65.3882 C.2 0.0 **** 0.0
21720 C21720 30.4444 71.0478 62.9445 C.2 0.0 **** 0.0
21721 C21721 29.7574 70.3885 63.997 C.2 0.0 **** 0.0
21722 C21722 31.7601 72.3542 60.7642 C.2 0.0 **** 0.0
21723 C21723 30.7595 73.0293 61.5252 C.2 0.0 **** 0.0
21724 C21724 30.1113 72.3867 62.6099 C.2 0.0 **** 0.0
21725 O21725 34.09 70.9932 59.687 O.3 0.0 **** -0.202
21726 C21726 34.3608 70.2948 58.4388 C.3 0.0 **** 0.107
21727 C21727 34.661 68.7941 58.6788 C.3 0.0 **** -0.053
21728 C21728 34.8923 68.6019 60.1845 C.3 0.0 **** 0.107
21729 C21729 35.8199 68.3086 57.7997 C.3 0.0 **** -0.106
21730 C21730 35.6679 68.911 56.399 C.3 0.0 **** -0.106
21731 C21731 35.9667 70.4127 56.4364 C.3 0.0 **** 0.134
21732 C21732 35.4995 71.0702 57.7783 C.3 0.0 **** -0.053
21733 C21733 35.0912 72.5321 57.5314 C.3 0.0 **** -0.106
21734 C21734 36.008 73.2039 56.5106 C.3 0.0 **** -0.106
21735 C21735 35.9066 72.4699 55.144 C.3 0.0 **** 0.081
21736 N21736 35.4382 71.0793 55.2455 N.3 0.0 **** -0.727
21737 C21737 28.334 69.1246 66.0784 C.2 0.0 **** 0.042
21738 C21738 28.0832 70.4538 65.7744 C.2 0.0 **** 0.042
21739 C21739 28.7582 71.1134 64.7149 C.2 0.0 **** 0.0
21740 O21740 27.1574 71.2129 66.4523 O.3 0.0 **** -0.202
21741 C21741 26.706 70.6465 67.7016 C.3 0.0 **** 0.107
21742 C21742 26.3835 69.1838 67.4454 C.3 0.0 **** 0.107
21743 O21743 27.5974 68.5075 67.0646 O.3 0.0 **** -0.202
21744 C21744 25.2819 68.9995 66.3809 C.3 0.0 **** -0.106
21745 C21745 24.3135 70.2 66.309 C.3 0.0 **** -0.106
21746 C21746 24.1528 70.8478 67.6889 C.3 0.0 **** -0.106
21747 C21747 25.4894 71.4442 68.1759 C.3 0.0 **** -0.106
21748 C21748 29.1019 73.0952 63.342 C.2 0.0 **** 0.0
21749 C21749 28.4516 72.4428 64.3893 C.2 0.0 **** -0.1268
21750 C21750 30.4029 74.3613 61.1732 C.2 0.0 **** 0.0
21751 C21751 29.4164 75.0492 61.9454 C.2 0.0 **** 0.042
21752 C21752 28.7786 74.4438 62.9925 C.2 0.0 **** -0.1268
21753 C21753 30.9913 75.003 60.0731 C.2 0.0 **** 0.0
21754 C21754 31.9115 74.3052 59.28 C.2 0.0 **** 0.0
21755 C21755 32.2729 73.0179 59.6328 C.2 0.0 **** -0.1268
21756 O21756 29.0731 76.3569 61.6371 O.3 0.0 **** -0.0685
21757 C21757 29.695 77.0218 60.6052 C.2 0.0 **** 0.0265
21758 C21758 30.6351 76.3718 59.7874 C.2 0.0 **** 0.0
21759 C21759 32.4897 74.9026 58.0247 C.3 0.0 **** -0.053
21760 C21760 32.3626 76.4412 57.9391 C.3 0.0 **** -0.053
21761 C21761 31.251 77.064 58.7412 C.2 0.0 **** 0.0
21762 C21762 32.2404 76.9219 56.4807 C.3 0.0 **** -0.053
21763 C21763 33.1837 76.1205 55.591 C.3 0.0 **** -0.106
21764 C21764 32.7029 74.6496 55.5195 C.3 0.0 **** -0.106
21765 C21765 31.8986 74.2392 56.7675 C.3 0.0 **** -0.106
21766 C21766 30.9305 78.4076 58.4945 C.2 0.0 **** 0.0
21767 C21767 30.0275 79.0844 59.3626 C.2 0.0 **** 0.0
21768 C21768 29.3805 78.3824 60.4277 C.2 0.0 **** 0.0
21769 C21769 32.3363 78.4226 56.4499 C.2 0.0 **** 0.0
21770 C21770 31.5668 79.1217 57.421 C.2 0.0 **** 0.0
21771 C21771 30.5093 57.563 63.2929 C.3 0.0 **** -0.053
21772 C21772 30.4279 59.0107 62.7916 C.3 0.0 **** -0.159
21773 C21773 30.4232 56.5871 62.1149 C.3 0.0 **** -0.159
21774 O21774 35.361 67.2687 60.3936 O.3 0.0 **** -0.57
21775 C21775 28.4691 79.0907 61.2773 C.2 0.0 **** -0.1268
21776 C21776 28.2425 80.4271 61.0988 C.2 0.0 **** -0.1268
21777 C21777 28.9081 81.1721 60.0695 C.2 0.0 **** 0.0
21778 C21778 29.8063 80.4797 59.1946 C.2 0.0 **** 0.0
21779 C21779 30.4972 81.1969 58.1822 C.2 0.0 **** 0.0
21780 C21780 30.2992 82.5902 58.0367 C.2 0.0 **** 0.0
21781 C21781 29.3947 83.2735 58.9124 C.2 0.0 **** 0.0
21782 C21782 28.7192 82.5484 59.9071 C.2 0.0 **** -0.1268
21783 C21783 29.208 84.6812 58.7504 C.2 0.0 **** -0.1268
21784 C21784 29.8803 85.3727 57.7777 C.2 0.0 **** -0.1268
21785 C21785 30.7847 84.7114 56.8916 C.2 0.0 **** 0.0
21786 C21786 30.9916 83.3122 57.0201 C.2 0.0 **** 0.0
21787 C21787 31.8829 82.638 56.1314 C.2 0.0 **** 0.0
21788 C21788 32.0717 81.234 56.2733 C.2 0.0 **** 0.0
21789 C21789 31.3875 80.5147 57.2945 C.2 0.0 **** 0.0
21790 C21790 32.5628 83.3562 55.1034 C.2 0.0 **** 0.0
21791 C21791 32.347 84.7599 55.0205 C.2 0.0 **** -0.1268
21792 C21792 31.4907 85.4085 55.8857 C.2 0.0 **** -0.1268
21793 C21793 33.0312 79.1282 55.4933 C.2 0.0 **** -0.1268
21794 C21794 32.9565 80.5428 55.4007 C.2 0.0 **** 0.0
21795 C21795 33.4672 82.6413 54.2264 C.2 0.0 **** 0.052
21796 C21796 33.7017 81.2738 54.4242 C.2 0.0 **** 0.0
21797 C21797 34.7441 80.5246 53.6243 C.3 0.0 **** -0.106
21798 C21798 35.8306 81.4497 53.0896 C.3 0.0 **** -0.106
21799 C21799 35.1677 82.5476 52.2745 C.3 0.0 **** -0.086
21800 C21800 34.0915 83.3055 53.0418 C.2 0.0 **** 0.347
21801 O21801 33.7446 84.4065 52.6113 O.2 0.0 **** -0.419
21802 H21802 25.7245 56.1768 67.1766 H 0.0 **** 0.053
21803 H21803 26.4551 57.4931 68.1348 H 0.0 **** 0.053
21804 H21804 27.045 54.5301 68.2422 H 0.0 **** 0.053
21805 H21805 28.0672 55.903 68.6927 H 0.0 **** 0.053
21806 H21806 25.8708 54.5352 70.3033 H 0.0 **** 0.053
21807 H21807 26.073 56.3153 72.0054 H 0.0 **** 0.053
21808 H21808 25.1478 58.1873 70.15 H 0.0 **** 0.053
21809 H21809 24.1537 56.8651 70.8358 H 0.0 **** 0.053
21810 H21810 27.4926 58.0422 69.9671 H 0.0 **** 0.053
21811 H21811 29.3609 56.6794 70.2032 H 0.0 **** 0.053
21812 H21812 28.1872 55.7159 72.8485 H 0.0 **** 0.053
21813 H21813 29.7034 55.1319 72.1464 H 0.0 **** 0.053
21814 H21814 27.5525 53.7239 71.6607 H 0.0 **** 0.053
21815 H21815 28.5996 54.0822 70.286 H 0.0 **** 0.053
21816 H21816 30.5489 59.526 72.1461 H 0.0 **** 0.053
21817 H21817 28.5242 59.953 73.1022 H 0.0 **** 0.053
21818 H21818 26.289 59.0802 71.8947 H 0.0 **** 0.053
21819 H21819 27.2557 58.0937 73.0004 H 0.0 **** 0.053
21820 H21820 29.3553 58.6417 69.4933 H 0.0 **** 0.053
21821 H21821 27.5142 64.6343 70.1575 H 0.0 **** 0.053
21822 H21822 26.3442 63.3797 69.7546 H 0.0 **** 0.053
21823 H21823 26.2339 63.7857 72.1802 H 0.0 **** 0.053
21824 H21824 27.9875 63.5405 72.3407 H 0.0 **** 0.053
21825 H21825 25.9367 61.4352 71.4606 H 0.0 **** 0.053
21826 H21826 26.7913 61.4519 73.0032 H 0.0 **** 0.053
21827 H21827 34.4082 58.3255 70.5018 H 0.0 **** 0.053
21828 H21828 33.8557 56.6703 70.4951 H 0.0 **** 0.053
21829 H21829 31.9827 57.9 71.5543 H 0.0 **** 0.1268
21830 H21830 35.7273 56.7543 68.7026 H 0.0 **** 0.053
21831 H21831 34.538 55.7558 67.8478 H 0.0 **** 0.053
21832 H21832 36.067 56.7505 66.1607 H 0.0 **** 0.053
21833 H21833 35.7968 58.3737 66.8254 H 0.0 **** 0.053
21834 H21834 30.8883 57.4023 66.1245 H 0.0 **** 0.053
21835 H21835 31.246 58.9629 65.4236 H 0.0 **** 0.053
21836 H21836 31.8472 56.2035 64.2854 H 0.0 **** 0.053
21837 H21837 33.0851 58.8636 63.4498 H 0.0 **** 0.053
21838 H21838 33.1365 57.4024 62.4435 H 0.0 **** 0.053
21839 H21839 35.2038 57.7344 63.9378 H 0.0 **** 0.053
21840 H21840 34.4065 56.1803 64.1436 H 0.0 **** 0.053
21841 H21841 32.7992 60.299 66.1061 H 0.0 **** 0.1268
21842 H21842 33.3728 64.426 62.8042 H 0.0 **** 0.1268
21843 H21843 33.7616 66.3959 61.5411 H 0.0 **** 0.1268
21844 H21844 28.2983 66.7374 67.3709 H 0.0 **** 0.1268
21845 H21845 33.4541 70.394 57.813 H 0.0 **** 0.053
21846 H21846 33.764 68.2113 58.4152 H 0.0 **** 0.053
21847 H21847 35.6945 69.3102 60.4781 H 0.0 **** 0.053
21848 H21848 36.7824 68.6197 58.2408 H 0.0 **** 0.053
21849 H21849 35.8248 67.2115 57.7754 H 0.0 **** 0.053
21850 H21850 34.6309 68.7573 56.0494 H 0.0 **** 0.053
21851 H21851 36.3221 68.4275 55.6606 H 0.0 **** 0.053
21852 H21852 37.0619 70.5387 56.3888 H 0.0 **** 0.053
21853 H21853 36.3477 71.0533 58.4834 H 0.0 **** 0.053
21854 H21854 34.0587 72.5479 57.142 H 0.0 **** 0.053
21855 H21855 35.0722 73.0836 58.4812 H 0.0 **** 0.053
21856 H21856 37.0444 73.173 56.8832 H 0.0 **** 0.053
21857 H21857 35.7436 74.2669 56.392 H 0.0 **** 0.053
21858 H21858 36.8934 72.4667 54.6507 H 0.0 **** 0.053
21859 H21859 35.2168 73.0023 54.4724 H 0.0 **** 0.053
21860 H21860 34.4181 71.0564 55.2734 H 0.0 **** 0.353
21861 H21861 27.5378 70.712 68.4227 H 0.0 **** 0.053
21862 H21862 26.0978 68.7086 68.3947 H 0.0 **** 0.053
21863 H21863 25.7704 68.8494 65.4072 H 0.0 **** 0.053
21864 H21864 24.7342 68.0745 66.6135 H 0.0 **** 0.053
21865 H21865 23.3399 69.8678 65.9198 H 0.0 **** 0.053
21866 H21866 24.7091 70.9487 65.6068 H 0.0 **** 0.053
21867 H21867 23.8034 70.0834 68.404 H 0.0 **** 0.053
21868 H21868 23.3831 71.6333 67.6692 H 0.0 **** 0.053
21869 H21869 25.5065 71.4993 69.2747 H 0.0 **** 0.053
21870 H21870 25.614 72.4719 67.8016 H 0.0 **** 0.053
21871 H21871 27.6893 72.9701 64.9608 H 0.0 **** 0.1268
21872 H21872 28.02 74.9832 63.5607 H 0.0 **** 0.1268
21873 H21873 32.9949 72.5081 59.0146 H 0.0 **** 0.1268
21874 H21874 33.5643 74.6646 58.0122 H 0.0 **** 0.053
21875 H21875 33.3027 76.8755 58.3337 H 0.0 **** 0.053
21876 H21876 31.2047 76.6943 56.157 H 0.0 **** 0.053
21877 H21877 34.2001 76.1776 56.0166 H 0.0 **** 0.053
21878 H21878 33.2364 76.5455 54.5786 H 0.0 **** 0.053
21879 H21879 33.5753 73.9886 55.4175 H 0.0 **** 0.053
21880 H21880 32.0845 74.5031 54.6206 H 0.0 **** 0.053
21881 H21881 31.9053 73.1458 56.8922 H 0.0 **** 0.053
21882 H21882 30.8415 74.534 56.6727 H 0.0 **** 0.053
21883 H21883 29.6394 57.3792 63.9498 H 0.0 **** 0.053
21884 H21884 29.4573 59.197 62.3079 H 0.0 **** 0.053
21885 H21885 31.2139 59.205 62.0455 H 0.0 **** 0.053
21886 H21886 30.549 59.7449 63.6027 H 0.0 **** 0.053
21887 H21887 30.4449 55.5422 62.4627 H 0.0 **** 0.053
21888 H21888 31.2699 56.7321 61.4252 H 0.0 **** 0.053
21889 H21889 29.4973 56.7406 61.54 H 0.0 **** 0.053
21890 H21890 35.6527 67.2066 61.3162 H 0.0 **** 0.41
21891 H21891 27.9666 78.5442 62.0752 H 0.0 **** 0.1268
21892 H21892 27.5502 80.9595 61.7535 H 0.0 **** 0.1268
21893 H21893 28.0352 83.0755 60.5758 H 0.0 **** 0.1268
21894 H21894 28.5177 85.1933 59.4231 H 0.0 **** 0.1268
21895 H21895 29.739 86.4492 57.6635 H 0.0 **** 0.1268
21896 H21896 32.8648 85.318 54.2479 H 0.0 **** 0.1268
21897 H21897 31.3501 86.488 55.7983 H 0.0 **** 0.1268
21898 H21898 33.618 78.5767 54.7637 H 0.0 **** 0.1268
21899 H21899 35.1958 79.7489 54.2585 H 0.0 **** 0.053
21900 H21900 34.2605 79.9962 52.781 H 0.0 **** 0.053
21901 H21901 36.5564 80.8857 52.4843 H 0.0 **** 0.053
21902 H21902 36.3782 81.8908 53.9386 H 0.0 **** 0.053
21903 H21903 34.6666 82.1044 51.394 H 0.0 **** 0.053
21904 H21904 35.8753 83.2955 51.8893 H 0.0 **** 0.053
21905 C21905 24.9722 22.3165 50.9013 C.3 0.0 **** 0.054
21906 C21906 26.0045 22.864 51.9148 C.3 0.0 **** -0.106
21907 C21907 26.949 23.8774 51.2361 C.3 0.0 **** -0.053
21908 C21908 27.3196 23.3572 49.8376 C.3 0.0 **** -0.053
21909 C21909 26.0302 23.2074 48.9891 C.3 0.0 **** 0.054
21910 O21910 24.8332 23.191 49.7763 O.3 0.0 **** -0.32
21911 C21911 28.1128 22.0364 49.9269 C.3 0.0 **** -0.053
21912 C21912 29.0977 22.0165 51.1308 C.3 0.0 **** 0.107
21913 C21913 29.4613 23.4276 51.5605 C.3 0.0 **** -0.106
21914 C21914 28.2166 24.1709 52.0787 C.3 0.0 **** -0.106
21915 O21915 30.32 21.3348 50.8091 O.3 0.0 **** -0.32
21916 C21916 30.1057 20.1048 50.0963 C.3 0.0 **** 0.107
21917 C21917 29.6845 20.4546 48.6578 C.3 0.0 **** -0.053
21918 C21918 28.8975 21.7979 48.6397 C.3 0.0 **** -0.106
21919 C21919 29.0019 19.3432 47.9314 C.2 0.0 **** 0.0
21920 C21920 28.6116 18.1615 48.5411 C.2 0.0 **** 0.0
21921 C21921 28.7147 17.9817 49.9674 C.2 0.0 **** 0.0
21922 C21922 29.1591 19.1416 50.8299 C.3 0.0 **** -0.053
21923 C21923 28.2573 16.8327 50.5888 C.2 0.0 **** 0.0
21924 C21924 27.7108 15.7542 49.7997 C.2 0.0 **** 0.0
21925 C21925 27.6584 15.9352 48.3842 C.2 0.0 **** 0.232
21926 C21926 28.0627 17.0772 47.7501 C.2 0.0 **** 0.0
21927 C21927 27.9299 17.216 46.2548 C.3 0.0 **** -0.106
21928 C21928 28.9373 18.2184 45.6903 C.3 0.0 **** -0.106
21929 C21929 28.8295 19.5417 46.4518 C.3 0.0 **** -0.106
21930 O21930 27.141 14.9326 47.5865 O.3 0.0 **** -0.464
21931 C21931 26.792 13.7187 48.1267 C.2 0.0 **** 0.232
21932 C21932 26.7764 13.5011 49.5164 C.2 0.0 **** 0.0
21933 C21933 27.219 14.5753 50.3732 C.2 0.0 **** 0.0
21934 C21934 29.6882 18.6859 52.1692 C.2 0.0 **** 0.0
21935 C21935 28.9168 17.6424 52.8396 C.2 0.0 **** 0.0
21936 C21936 28.2816 16.6846 52.0467 C.2 0.0 **** 0.0
21937 C21937 29.0235 17.576 54.2958 C.2 0.0 **** 0.0
21938 C21938 30.166 18.0238 54.8936 C.2 0.0 **** 0.0
21939 C21939 31.2413 18.7054 54.1124 C.3 0.0 **** -0.106
21940 C21940 30.7974 19.1797 52.7634 C.2 0.0 **** -0.1268
21941 C21941 30.3381 17.8673 56.3786 C.3 0.0 **** -0.106
21942 C21942 29.6021 16.6173 56.8697 C.3 0.0 **** -0.106
21943 C21943 28.1701 16.655 56.3951 C.2 0.0 **** 0.0
21944 C21944 27.9023 17.1395 55.1592 C.2 0.0 **** 0.0
21945 C21945 26.4893 17.4021 54.692 C.3 0.0 **** -0.106
21946 C21946 25.4359 17.2277 55.7919 C.3 0.0 **** -0.053
21947 C21947 25.7611 15.9741 56.6117 C.3 0.0 **** -0.106
21948 C21948 27.1015 16.1567 57.3235 C.3 0.0 **** -0.106
21949 C21949 27.2426 14.4719 51.8036 C.2 0.0 **** -0.012
21950 C21950 27.7677 15.4683 52.5893 C.2 0.0 **** -0.1268
21951 C21951 26.3839 12.2106 49.9548 C.2 0.0 **** 0.0
21952 C21952 26.3042 11.9027 51.3602 C.2 0.0 **** -0.012
21953 S21953 26.5409 13.0965 52.6269 S.2 0.0 **** 0.024
21954 C21954 25.9667 10.6447 51.7898 C.2 0.0 **** -0.1268
21955 C21955 25.6869 9.60108 50.8687 C.2 0.0 **** 0.0
21956 C21956 25.7227 9.86992 49.466 C.2 0.0 **** 0.0
21957 C21957 26.059 11.1742 49.0096 C.2 0.0 **** 0.0
21958 C21958 25.4107 8.82805 48.5535 C.2 0.0 **** 0.0
21959 C21959 25.104 7.51989 49.0391 C.2 0.0 **** 0.0
21960 C21960 25.1438 7.25718 50.4562 C.2 0.0 **** 0.0
21961 C21961 25.3898 8.32402 51.3344 C.2 0.0 **** -0.1268
21962 C21962 24.9413 5.92068 50.9118 C.2 0.0 **** 0.0
21963 C21963 24.5544 4.94815 50.0093 C.2 0.0 **** 0.042
21964 C21964 24.387 5.18594 48.6122 C.2 0.0 **** 0.0
21965 C21965 24.7366 6.47997 48.1341 C.2 0.0 **** 0.0
21966 C21966 26.0803 11.4492 47.6006 C.2 0.0 **** 0.0
21967 C21967 26.4591 12.7492 47.2062 C.2 0.0 **** -0.1268
21968 C21968 25.4036 9.10296 47.1461 C.2 0.0 **** 0.0
21969 C21969 25.733 10.4039 46.6607 C.2 0.0 **** 0.0
21970 C21970 24.7045 6.76056 46.7276 C.2 0.0 **** 0.0
21971 C21971 25.051 8.05084 46.2486 C.2 0.0 **** 0.0
21972 C21972 23.9156 4.18297 47.6895 C.2 0.0 **** 0.0
21973 C21973 23.9397 4.46601 46.2912 C.2 0.0 **** 0.0
21974 C21974 24.3366 5.73979 45.8119 C.2 0.0 **** 0.0
21975 O21975 24.4181 3.66926 50.5047 O.3 0.0 **** -0.202
21976 C21976 23.5592 3.52746 51.6714 C.3 0.0 **** 0.107
21977 C21977 23.8207 4.64587 52.711 C.3 0.0 **** -0.053
21978 C21978 25.1256 5.35177 52.3152 C.3 0.0 **** 0.107
21979 C21979 23.8169 4.09161 54.1408 C.3 0.0 **** -0.106
21980 C21980 22.6739 3.08054 54.2792 C.3 0.0 **** -0.106
21981 C21981 23.0006 1.8059 53.4953 C.3 0.0 **** 0.134
21982 C21982 23.8076 2.11172 52.189 C.3 0.0 **** -0.053
21983 C21983 23.4708 1.07032 51.1089 C.3 0.0 **** -0.106
21984 C21984 23.2925 -0.322379 51.7111 C.3 0.0 **** -0.106
21985 C21985 22.1077 -0.316302 52.7176 C.3 0.0 **** 0.081
21986 N21986 21.7926 1.01316 53.2622 N.3 0.0 **** -0.727
21987 C21987 25.699 10.6021 45.235 C.2 0.0 **** 0.042
21988 C21988 25.4053 9.56408 44.3641 C.2 0.0 **** 0.042
21989 C21989 25.0459 8.276 44.8385 C.2 0.0 **** 0.0
21990 O21990 25.4171 9.7112 42.9963 O.3 0.0 **** -0.202
21991 C21991 26.0703 10.908 42.5203 C.3 0.0 **** 0.107
21992 C21992 25.561 12.0668 43.3609 C.3 0.0 **** 0.107
21993 O21993 25.9661 11.8538 44.7272 O.3 0.0 **** -0.202
21994 C21994 24.0328 12.249 43.2516 C.3 0.0 **** -0.106
21995 C21995 23.4657 11.7456 41.9066 C.3 0.0 **** -0.106
21996 C21996 24.4918 11.9333 40.7836 C.3 0.0 **** -0.106
21997 C21997 25.7457 11.0704 41.0338 C.3 0.0 **** -0.106
21998 C21998 24.3351 5.98853 44.3995 C.2 0.0 **** 0.0
21999 C21999 24.7008 7.25427 43.9416 C.2 0.0 **** -0.1268
22000 C22000 23.5431 3.45381 45.3728 C.2 0.0 **** 0.0
22001 C22001 23.5855 3.72544 43.9702 C.2 0.0 **** 0.042
22002 C22002 23.9623 4.94922 43.4905 C.2 0.0 **** -0.1268
22003 C22003 23.097 2.20168 45.8216 C.2 0.0 **** 0.0
22004 C22004 22.9963 1.95926 47.1978 C.2 0.0 **** 0.0
22005 C22005 23.3998 2.93533 48.0904 C.2 0.0 **** -0.1268
22006 O22006 23.2295 2.74502 43.0565 O.3 0.0 **** -0.0685
22007 C22007 22.8592 1.48976 43.4816 C.2 0.0 **** 0.0265
22008 C22008 22.7552 1.19036 44.8508 C.2 0.0 **** 0.0
22009 C22009 22.4194 0.677239 47.7369 C.3 0.0 **** -0.053
22010 C22010 22.3886 -0.482264 46.7144 C.3 0.0 **** -0.053
22011 C22011 22.372 -0.0894318 45.261 C.2 0.0 **** 0.0
22012 C22012 21.21 -1.43932 46.9747 C.3 0.0 **** -0.053
22013 C22013 21.0405 -1.65576 48.474 C.3 0.0 **** -0.106
22014 C22014 20.5766 -0.335425 49.1384 C.3 0.0 **** -0.106
22015 C22015 21.0215 0.90484 48.3404 C.3 0.0 **** -0.106
22016 C22016 22.0808 -1.08067 44.3117 C.2 0.0 **** 0.0
22017 C22017 22.2491 -0.796937 42.9267 C.2 0.0 **** 0.0
22018 C22018 22.6271 0.513167 42.4947 C.2 0.0 **** 0.0
22019 C22019 21.3575 -2.64912 46.0932 C.2 0.0 **** 0.0
22020 C22020 21.6906 -2.39881 44.7329 C.2 0.0 **** 0.0
22021 C22021 24.0099 17.2325 55.2023 C.3 0.0 **** -0.053
22022 C22022 23.6761 15.9376 54.4501 C.3 0.0 **** -0.159
22023 C22023 22.9638 17.5004 56.2892 C.3 0.0 **** -0.159
22024 O22024 25.48 6.24973 53.3682 O.3 0.0 **** -0.57
22025 C22025 22.7781 0.768432 41.0925 C.2 0.0 **** -0.1268
22026 C22026 22.598 -0.230777 40.1769 C.2 0.0 **** -0.1268
22027 C22027 22.2627 -1.56659 40.5775 C.2 0.0 **** 0.0
22028 C22028 22.085 -1.83923 41.9724 C.2 0.0 **** 0.0
22029 C22029 21.7765 -3.15811 42.3992 C.2 0.0 **** 0.0
22030 C22030 21.6442 -4.19963 41.4509 C.2 0.0 **** 0.0
22031 C22031 21.8179 -3.91686 40.0576 C.2 0.0 **** 0.0
22032 C22032 22.1215 -2.60689 39.6533 C.2 0.0 **** -0.1268
22033 C22033 21.6808 -4.98206 39.1145 C.2 0.0 **** -0.1268
22034 C22034 21.3899 -6.25494 39.5284 C.2 0.0 **** -0.1268
22035 C22035 21.2096 -6.55926 40.9124 C.2 0.0 **** 0.0
22036 C22036 21.3337 -5.52476 41.8776 C.2 0.0 **** 0.0
22037 C22037 21.1424 -5.81424 43.2626 C.2 0.0 **** 0.0
22038 C22038 21.2654 -4.76173 44.2134 C.2 0.0 **** 0.0
22039 C22039 21.5846 -3.4405 43.7883 C.2 0.0 **** 0.0
22040 C22040 20.8149 -7.13564 43.6887 C.2 0.0 **** 0.0
22041 C22041 20.7212 -8.14922 42.6949 C.2 0.0 **** -0.1268
22042 C22042 20.9141 -7.8668 41.3587 C.2 0.0 **** -0.1268
22043 C22043 21.0942 -3.93621 46.5053 C.2 0.0 **** -0.1268
22044 C22044 21.0812 -5.02801 45.5981 C.2 0.0 **** 0.0
22045 C22045 20.6377 -7.39476 45.1028 C.2 0.0 **** 0.052
22046 C22046 20.8355 -6.36682 46.0346 C.2 0.0 **** 0.0
22047 C22047 20.8015 -6.62964 47.5238 C.3 0.0 **** -0.106
22048 C22048 21.127 -8.08038 47.8574 C.3 0.0 **** -0.106
22049 C22049 20.1613 -8.97556 47.0989 C.3 0.0 **** -0.086
22050 C22050 20.1495 -8.71818 45.5972 C.2 0.0 **** 0.347
22051 O22051 19.6805 -9.59239 44.8668 O.2 0.0 **** -0.419
22052 H22052 23.9711 22.2352 51.3462 H 0.0 **** 0.053
22053 H22053 25.2708 21.3095 50.547 H 0.0 **** 0.053
22054 H22054 25.4993 23.3569 52.7594 H 0.0 **** 0.053
22055 H22055 26.5875 22.028 52.3326 H 0.0 **** 0.053
22056 H22056 26.3807 24.8096 51.1043 H 0.0 **** 0.053
22057 H22057 27.9682 24.1024 49.3474 H 0.0 **** 0.053
22058 H22058 26.0853 22.275 48.3891 H 0.0 **** 0.053
22059 H22059 25.9055 24.0545 48.3 H 0.0 **** 0.053
22060 H22060 27.386 21.2167 50.0446 H 0.0 **** 0.053
22061 H22061 28.6274 21.4995 51.9895 H 0.0 **** 0.053
22062 H22062 29.893 23.9536 50.6937 H 0.0 **** 0.053
22063 H22063 30.2416 23.3872 52.334 H 0.0 **** 0.053
22064 H22064 28.4231 25.2517 52.0852 H 0.0 **** 0.053
22065 H22065 28.0259 23.8826 53.1256 H 0.0 **** 0.053
22066 H22066 31.094 19.6226 50.0704 H 0.0 **** 0.053
22067 H22067 30.6166 20.6578 48.0965 H 0.0 **** 0.053
22068 H22068 28.2221 21.8315 47.772 H 0.0 **** 0.053
22069 H22069 29.6114 22.6285 48.5235 H 0.0 **** 0.053
22070 H22070 28.2162 19.6823 51.0496 H 0.0 **** 0.053
22071 H22071 28.0403 16.2323 45.7762 H 0.0 **** 0.053
22072 H22072 26.9063 17.5601 46.0133 H 0.0 **** 0.053
22073 H22073 28.7623 18.3724 44.6146 H 0.0 **** 0.053
22074 H22074 29.9569 17.8173 45.8086 H 0.0 **** 0.053
22075 H22075 27.8405 19.996 46.2411 H 0.0 **** 0.053
22076 H22076 29.5764 20.2685 46.09 H 0.0 **** 0.053
22077 H22077 32.1141 18.0248 54.0004 H 0.0 **** 0.053
22078 H22078 31.6426 19.5485 54.7082 H 0.0 **** 0.053
22079 H22079 31.3997 19.9429 52.2735 H 0.0 **** 0.1268
22080 H22080 31.4101 17.8224 56.629 H 0.0 **** 0.053
22081 H22081 29.9304 18.7629 56.8901 H 0.0 **** 0.053
22082 H22082 29.6357 16.5436 57.9679 H 0.0 **** 0.053
22083 H22083 30.1083 15.7174 56.47 H 0.0 **** 0.053
22084 H22084 26.444 18.4319 54.2947 H 0.0 **** 0.053
22085 H22085 26.235 16.7583 53.8363 H 0.0 **** 0.053
22086 H22086 25.5132 18.0934 56.476 H 0.0 **** 0.053
22087 H22087 25.8272 15.1077 55.9333 H 0.0 **** 0.053
22088 H22088 24.9642 15.7602 57.3404 H 0.0 **** 0.053
22089 H22089 27.438 15.2063 57.7765 H 0.0 **** 0.053
22090 H22090 26.9881 16.8602 58.1713 H 0.0 **** 0.053
22091 H22091 27.8312 15.3136 53.6662 H 0.0 **** 0.1268
22092 H22092 25.9169 10.4202 52.8578 H 0.0 **** 0.1268
22093 H22093 25.3188 8.1695 52.4065 H 0.0 **** 0.1268
22094 H22094 26.5078 13.0221 46.1623 H 0.0 **** 0.1268
22095 H22095 22.5156 3.59563 51.3113 H 0.0 **** 0.053
22096 H22096 23.0151 5.39304 52.6314 H 0.0 **** 0.053
22097 H22097 25.9054 4.56566 52.2417 H 0.0 **** 0.053
22098 H22098 24.7816 3.60105 54.3566 H 0.0 **** 0.053
22099 H22099 23.719 4.92047 54.8533 H 0.0 **** 0.053
22100 H22100 21.7462 3.52535 53.8758 H 0.0 **** 0.053
22101 H22101 22.467 2.82122 55.3265 H 0.0 **** 0.053
22102 H22102 23.6521 1.17967 54.1285 H 0.0 **** 0.053
22103 H22103 24.8831 2.04266 52.4249 H 0.0 **** 0.053
22104 H22104 22.5275 1.36532 50.6178 H 0.0 **** 0.053
22105 H22105 24.2419 1.07584 50.3265 H 0.0 **** 0.053
22106 H22106 24.224 -0.6151 52.2216 H 0.0 **** 0.053
22107 H22107 23.1154 -1.06773 50.9194 H 0.0 **** 0.053
22108 H22108 22.3344 -0.990142 53.5611 H 0.0 **** 0.053
22109 H22109 21.1952 -0.701575 52.2387 H 0.0 **** 0.053
22110 H22110 21.1799 1.5167 52.6195 H 0.0 **** 0.353
22111 H22111 27.1542 10.7903 42.6863 H 0.0 **** 0.053
22112 H22112 26.0896 12.9838 43.064 H 0.0 **** 0.053
22113 H22113 23.5643 11.7068 44.0857 H 0.0 **** 0.053
22114 H22114 23.8056 13.316 43.3918 H 0.0 **** 0.053
22115 H22115 22.5331 12.2804 41.6744 H 0.0 **** 0.053
22116 H22116 23.2186 10.6769 41.9898 H 0.0 **** 0.053
22117 H22117 24.7763 12.9983 40.7339 H 0.0 **** 0.053
22118 H22118 24.0577 11.6792 39.8054 H 0.0 **** 0.053
22119 H22119 26.6183 11.5061 40.5247 H 0.0 **** 0.053
22120 H22120 25.6074 10.0583 40.6233 H 0.0 **** 0.053
22121 H22121 24.7136 7.45619 42.8717 H 0.0 **** 0.1268
22122 H22122 23.9758 5.13874 42.4167 H 0.0 **** 0.1268
22123 H22123 23.3269 2.71787 49.1443 H 0.0 **** 0.1268
22124 H22124 23.0584 0.355386 48.5733 H 0.0 **** 0.053
22125 H22125 23.3123 -1.0776 46.858 H 0.0 **** 0.053
22126 H22126 20.2978 -0.926967 46.6076 H 0.0 **** 0.053
22127 H22127 22.0075 -1.98333 48.8924 H 0.0 **** 0.053
22128 H22128 20.3144 -2.45411 48.6834 H 0.0 **** 0.053
22129 H22129 20.9887 -0.27838 50.1557 H 0.0 **** 0.053
22130 H22130 19.4802 -0.333339 49.2373 H 0.0 **** 0.053
22131 H22131 21.0414 1.79591 48.9859 H 0.0 **** 0.053
22132 H22132 20.3138 1.12751 47.5262 H 0.0 **** 0.053
22133 H22133 23.9695 18.0678 54.4795 H 0.0 **** 0.053
22134 H22134 22.7103 16.0314 53.9313 H 0.0 **** 0.053
22135 H22135 23.5955 15.0937 55.1526 H 0.0 **** 0.053
22136 H22136 24.4393 15.6767 53.7013 H 0.0 **** 0.053
22137 H22137 23.1707 18.4459 56.8149 H 0.0 **** 0.053
22138 H22138 22.9613 16.691 57.0365 H 0.0 **** 0.053
22139 H22139 21.952 17.5583 55.8598 H 0.0 **** 0.053
22140 H22140 26.3767 6.56991 53.185 H 0.0 **** 0.41
22141 H22141 23.0486 1.77399 40.7707 H 0.0 **** 0.1268
22142 H22142 22.7195 -0.0283524 39.1113 H 0.0 **** 0.1268
22143 H22143 22.2588 -2.39807 38.59 H 0.0 **** 0.1268
22144 H22144 21.8161 -4.757 38.0551 H 0.0 **** 0.1268
22145 H22145 21.2934 -7.06598 38.8039 H 0.0 **** 0.1268
22146 H22146 20.4808 -9.15961 43.0078 H 0.0 **** 0.1268
22147 H22147 20.8392 -8.66853 40.6209 H 0.0 **** 0.1268
22148 H22148 20.8473 -4.1081 47.5495 H 0.0 **** 0.1268
22149 H22149 21.5189 -5.96363 48.0234 H 0.0 **** 0.053
22150 H22150 19.8036 -6.3725 47.9267 H 0.0 **** 0.053
22151 H22151 21.0624 -8.25223 48.9426 H 0.0 **** 0.053
22152 H22152 22.1625 -8.29767 47.5481 H 0.0 **** 0.053
22153 H22153 19.1299 -8.79216 47.4529 H 0.0 **** 0.053
22154 H22154 20.3553 -10.0484 47.24 H 0.0 **** 0.053
22155 C22155 17.3116 30.511 68.6741 C.3 0.0 **** 0.054
22156 C22156 16.6295 31.8709 68.9529 C.3 0.0 **** -0.106
22157 C22157 15.2489 31.938 68.2678 C.3 0.0 **** -0.053
22158 C22158 15.3526 31.3062 66.8701 C.3 0.0 **** -0.053
22159 C22159 15.7864 29.8239 67.0093 C.3 0.0 **** 0.054
22160 O22160 16.3548 29.5182 68.2885 O.3 0.0 **** -0.32
22161 C22161 16.3112 32.1094 65.9657 C.3 0.0 **** -0.053
22162 C22162 16.2019 33.6432 66.2003 C.3 0.0 **** 0.107
22163 C22163 14.8519 34.0088 66.7937 C.3 0.0 **** -0.106
22164 C22164 14.6892 33.3815 68.1902 C.3 0.0 **** -0.106
22165 O22165 16.3504 34.3819 64.9778 O.3 0.0 **** -0.32
22166 C22166 17.4318 33.9029 64.1604 C.3 0.0 **** 0.107
22167 C22167 17.0006 32.5636 63.5364 C.3 0.0 **** -0.053
22168 C22168 16.0317 31.811 64.4952 C.3 0.0 **** -0.106
22169 C22169 18.1322 31.7262 63.0395 C.2 0.0 **** 0.0
22170 C22170 19.4639 32.0282 63.2754 C.2 0.0 **** 0.0
22171 C22171 19.8464 33.11 64.1476 C.2 0.0 **** 0.0
22172 C22172 18.7765 33.8655 64.9036 C.3 0.0 **** -0.053
22173 C22173 21.1732 33.368 64.4448 C.2 0.0 **** 0.0
22174 C22174 22.2164 32.5797 63.8325 C.2 0.0 **** 0.0
22175 C22175 21.8172 31.5412 62.9373 C.2 0.0 **** 0.232
22176 C22176 20.5129 31.2377 62.6611 C.2 0.0 **** 0.0
22177 C22177 20.1663 30.0926 61.7438 C.3 0.0 **** -0.106
22178 C22178 18.7944 30.2847 61.0964 C.3 0.0 **** -0.106
22179 C22179 17.7471 30.5558 62.1791 C.3 0.0 **** -0.106
22180 O22180 22.7789 30.7575 62.3288 O.3 0.0 **** -0.464
22181 C22181 24.1137 31.0452 62.4791 C.2 0.0 **** 0.232
22182 C22182 24.5655 32.0224 63.3844 C.2 0.0 **** 0.0
22183 C22183 23.5743 32.7842 64.1063 C.2 0.0 **** 0.0
22184 C22184 19.2505 35.2272 65.3534 C.2 0.0 **** 0.0
22185 C22185 20.5974 35.2815 65.9156 C.2 0.0 **** 0.0
22186 C22186 21.5594 34.4113 65.399 C.2 0.0 **** 0.0
22187 C22187 20.8794 36.3713 66.848 C.2 0.0 **** 0.0
22188 C22188 20.1774 37.5361 66.7312 C.2 0.0 **** 0.0
22189 C22189 19.0392 37.6701 65.7733 C.3 0.0 **** -0.106
22190 C22190 18.517 36.3598 65.2713 C.2 0.0 **** -0.1268
22191 C22191 20.525 38.7044 67.6109 C.3 0.0 **** -0.106
22192 C22192 22.0182 38.6879 67.9504 C.3 0.0 **** -0.106
22193 C22193 22.3947 37.337 68.5077 C.2 0.0 **** 0.0
22194 C22194 21.8221 36.2286 67.981 C.2 0.0 **** 0.0
22195 C22195 21.9862 34.8661 68.6139 C.3 0.0 **** -0.106
22196 C22196 22.7059 34.8995 69.967 C.3 0.0 **** -0.053
22197 C22197 23.8936 35.8649 69.8862 C.3 0.0 **** -0.106
22198 C22198 23.3878 37.2848 69.6317 C.3 0.0 **** -0.106
22199 C22199 23.9145 33.8019 65.0578 C.2 0.0 **** -0.012
22200 C22200 22.9539 34.5838 65.6509 C.2 0.0 **** -0.1268
22201 C22201 25.968 32.2192 63.4619 C.2 0.0 **** 0.0
22202 C22202 26.5281 33.1738 64.3846 C.2 0.0 **** -0.012
22203 S22203 25.5703 34.0559 65.5638 S.2 0.0 **** 0.024
22204 C22204 27.88 33.3994 64.4341 C.2 0.0 **** -0.1268
22205 C22205 28.7753 32.7049 63.5786 C.2 0.0 **** 0.0
22206 C22206 28.267 31.7261 62.6704 C.2 0.0 **** 0.0
22207 C22207 26.8681 31.4751 62.6197 C.2 0.0 **** 0.0
22208 C22208 29.1734 31.0146 61.8413 C.2 0.0 **** 0.0
22209 C22209 30.5709 31.3073 61.893 C.2 0.0 **** 0.0
22210 C22210 31.05 32.3489 62.7672 C.2 0.0 **** 0.0
22211 C22211 30.1373 32.9866 63.6217 C.2 0.0 **** -0.1268
22212 C22212 32.4322 32.6989 62.7237 C.2 0.0 **** 0.0
22213 C22213 33.3024 31.9315 61.9727 C.2 0.0 **** 0.042
22214 C22214 32.8939 30.8164 61.1815 C.2 0.0 **** 0.0
22215 C22215 31.496 30.5612 61.1037 C.2 0.0 **** 0.0
22216 C22216 26.3579 30.4809 61.7182 C.2 0.0 **** 0.0
22217 C22217 24.9593 30.3035 61.6834 C.2 0.0 **** -0.1268
22218 C22218 28.6735 30.0013 60.9583 C.2 0.0 **** 0.0
22219 C22219 27.2749 29.7257 60.8902 C.2 0.0 **** 0.0
22220 C22220 30.9996 29.53 60.2387 C.2 0.0 **** 0.0
22221 C22221 29.6061 29.2724 60.1608 C.2 0.0 **** 0.0
22222 C22222 33.8178 29.9792 60.457 C.2 0.0 **** 0.0
22223 C22223 33.3012 28.9932 59.5643 C.2 0.0 **** 0.0
22224 C22224 31.9054 28.7735 59.4493 C.2 0.0 **** 0.0
22225 O22225 34.6156 32.3483 61.9376 O.3 0.0 **** -0.202
22226 C22226 35.2498 32.5618 63.2304 C.3 0.0 **** 0.107
22227 C22227 34.3128 33.315 64.2074 C.3 0.0 **** -0.053
22228 C22228 33.141 33.8749 63.3882 C.3 0.0 **** 0.107
22229 C22229 35.0779 34.3735 65.0111 C.3 0.0 **** -0.106
22230 C22230 36.4293 33.7921 65.4393 C.3 0.0 **** -0.106
22231 C22231 37.3521 33.6546 64.2246 C.3 0.0 **** 0.134
22232 C22232 36.56 33.2859 62.9254 C.3 0.0 **** -0.053
22233 C22233 37.4449 32.4408 61.994 C.3 0.0 **** -0.106
22234 C22234 38.8965 32.9168 62.0181 C.3 0.0 **** -0.106
22235 C22235 39.4788 32.768 63.4519 C.3 0.0 **** 0.081
22236 N22236 38.4591 32.7412 64.5115 N.3 0.0 **** -0.727
22237 C22237 26.8518 28.691 59.9829 C.2 0.0 **** 0.042
22238 C22238 27.7557 28.0206 59.1732 C.2 0.0 **** 0.042
22239 C22239 29.1508 28.2654 59.2565 C.2 0.0 **** 0.0
22240 O22240 27.374 27.0652 58.2598 O.3 0.0 **** -0.202
22241 C22241 25.9611 27.0404 57.9621 C.3 0.0 **** 0.107
22242 C22242 25.2182 27.1027 59.2862 C.3 0.0 **** 0.107
22243 O22243 25.5162 28.3623 59.9193 O.3 0.0 **** -0.202
22244 C22244 25.5595 25.9161 60.2115 C.3 0.0 **** -0.106
22245 C22245 25.9814 24.6522 59.4313 C.3 0.0 **** -0.106
22246 C22246 25.2549 24.5816 58.0835 C.3 0.0 **** -0.106
22247 C22247 25.6606 25.7619 57.177 C.3 0.0 **** -0.106
22248 C22248 31.4268 27.7643 58.5498 C.2 0.0 **** 0.0
22249 C22249 30.053 27.5383 58.466 C.2 0.0 **** -0.1268
22250 C22250 34.2085 28.2134 58.7936 C.2 0.0 **** 0.0
22251 C22251 33.6954 27.239 57.8825 C.2 0.0 **** 0.042
22252 C22252 32.3525 27.0115 57.7613 C.2 0.0 **** -0.1268
22253 C22253 35.596 28.3741 58.9252 C.2 0.0 **** 0.0
22254 C22254 36.0978 29.2848 59.8641 C.2 0.0 **** 0.0
22255 C22255 35.2168 30.0566 60.5992 C.2 0.0 **** -0.1268
22256 O22256 34.5602 26.487 57.1019 O.3 0.0 **** -0.0685
22257 C22257 35.9202 26.6857 57.1693 C.2 0.0 **** 0.0265
22258 C22258 36.4743 27.5969 58.0846 C.2 0.0 **** 0.0
22259 C22259 37.574 29.4188 60.1283 C.3 0.0 **** -0.053
22260 C22260 38.4722 28.8471 59.007 C.3 0.0 **** -0.053
22261 C22261 37.8587 27.7795 58.1405 C.2 0.0 **** 0.0
22262 C22262 39.8077 28.3172 59.5622 C.3 0.0 **** -0.053
22263 C22263 40.3311 29.2605 60.6392 C.3 0.0 **** -0.106
22264 C22264 39.3925 29.2117 61.8706 C.3 0.0 **** -0.106
22265 C22265 37.9546 28.8108 61.4904 C.3 0.0 **** -0.106
22266 C22266 38.7048 27.0504 57.2912 C.2 0.0 **** 0.0
22267 C22267 38.14 26.1762 56.3198 C.2 0.0 **** 0.0
22268 C22268 36.7257 25.9707 56.2628 C.2 0.0 **** 0.0
22269 C22269 40.7155 27.9762 58.4124 C.2 0.0 **** 0.0
22270 C22270 40.1289 27.2407 57.3452 C.2 0.0 **** 0.0
22271 C22271 23.0903 33.4779 70.4279 C.3 0.0 **** -0.053
22272 C22272 24.2658 32.8954 69.6325 C.3 0.0 **** -0.159
22273 C22273 23.3975 33.4482 71.9287 C.3 0.0 **** -0.159
22274 O22274 32.3773 34.733 64.2375 O.3 0.0 **** -0.57
22275 C22275 36.1901 25.0761 55.2795 C.2 0.0 **** -0.1268
22276 C22276 37.0111 24.4504 54.3831 C.2 0.0 **** -0.1268
22277 C22277 38.4288 24.6679 54.3825 C.2 0.0 **** 0.0
22278 C22278 38.9883 25.5408 55.3707 C.2 0.0 **** 0.0
22279 C22279 40.3858 25.7932 55.3782 C.2 0.0 **** 0.0
22280 C22280 41.2235 25.1846 54.4142 C.2 0.0 **** 0.0
22281 C22281 40.6563 24.3085 53.4332 C.2 0.0 **** 0.0
22282 C22282 39.2727 24.0694 53.4412 C.2 0.0 **** -0.1268
22283 C22283 41.5183 23.7033 52.4671 C.2 0.0 **** -0.1268
22284 C22284 42.8651 23.9531 52.4717 C.2 0.0 **** -0.1268
22285 C22285 43.4528 24.8209 53.4422 C.2 0.0 **** 0.0
22286 C22286 42.6274 25.4363 54.4206 C.2 0.0 **** 0.0
22287 C22287 43.2054 26.2949 55.4041 C.2 0.0 **** 0.0
22288 C22288 42.3613 26.8972 56.3796 C.2 0.0 **** 0.0
22289 C22289 40.9582 26.6534 56.3675 C.2 0.0 **** 0.0
22290 C22290 44.6117 26.5337 55.4218 C.2 0.0 **** 0.0
22291 C22291 45.4022 25.9174 54.4124 C.2 0.0 **** -0.1268
22292 C22292 44.8388 25.0944 53.4597 C.2 0.0 **** -0.1268
22293 C22293 42.0655 28.2463 58.3936 C.2 0.0 **** -0.1268
22294 C22294 42.9154 27.7576 57.3669 C.2 0.0 **** 0.0
22295 C22295 45.162 27.4185 56.4282 C.2 0.0 **** 0.052
22296 C22296 44.3113 28.0641 57.3357 C.2 0.0 **** 0.0
22297 C22297 44.8288 29.1029 58.3056 C.3 0.0 **** -0.106
22298 C22298 46.1121 29.7596 57.8117 C.3 0.0 **** -0.106
22299 C22299 47.1367 28.6697 57.5442 C.3 0.0 **** -0.086
22300 C22300 46.6378 27.5903 56.5915 C.2 0.0 **** 0.347
22301 O22301 47.4763 26.8701 56.0475 O.2 0.0 **** -0.419
22302 H22302 17.8115 30.117 69.5694 H 0.0 **** 0.053
22303 H22303 18.0735 30.614 67.8756 H 0.0 **** 0.053
22304 H22304 16.4995 32.0283 70.0345 H 0.0 **** 0.053
22305 H22305 17.2721 32.6861 68.5844 H 0.0 **** 0.053
22306 H22306 14.5631 31.3176 68.8631 H 0.0 **** 0.053
22307 H22307 14.3549 31.329 66.4007 H 0.0 **** 0.053
22308 H22308 16.5203 29.5742 66.2147 H 0.0 **** 0.053
22309 H22309 14.927 29.1458 66.911 H 0.0 **** 0.053
22310 H22310 17.3386 31.7839 66.1944 H 0.0 **** 0.053
22311 H22311 16.9929 33.9709 66.9023 H 0.0 **** 0.053
22312 H22312 14.0646 33.6469 66.1129 H 0.0 **** 0.053
22313 H22313 14.7562 35.1029 66.844 H 0.0 **** 0.053
22314 H22314 13.6231 33.3876 68.4622 H 0.0 **** 0.053
22315 H22315 15.2061 34.0071 68.9364 H 0.0 **** 0.053
22316 H22316 17.5297 34.6525 63.3615 H 0.0 **** 0.053
22317 H22317 16.3916 32.8117 62.646 H 0.0 **** 0.053
22318 H22318 16.0808 30.7274 64.312 H 0.0 **** 0.053
22319 H22319 14.9989 32.1269 64.2794 H 0.0 **** 0.053
22320 H22320 18.6433 33.2739 65.8321 H 0.0 **** 0.053
22321 H22321 20.9498 29.973 60.9818 H 0.0 **** 0.053
22322 H22322 20.1605 29.1519 62.3263 H 0.0 **** 0.053
22323 H22323 18.5226 29.3972 60.5048 H 0.0 **** 0.053
22324 H22324 18.8322 31.1453 60.409 H 0.0 **** 0.053
22325 H22325 17.6332 29.6461 62.8022 H 0.0 **** 0.053
22326 H22326 16.755 30.7396 61.733 H 0.0 **** 0.053
22327 H22327 19.3447 38.3049 64.9124 H 0.0 **** 0.053
22328 H22328 18.229 38.2533 66.2531 H 0.0 **** 0.053
22329 H22329 17.5187 36.3474 64.8371 H 0.0 **** 0.1268
22330 H22330 20.2399 39.6455 67.114 H 0.0 **** 0.053
22331 H22331 19.9312 38.6472 68.5459 H 0.0 **** 0.053
22332 H22332 22.2689 39.4796 68.6736 H 0.0 **** 0.053
22333 H22333 22.6016 38.8929 67.0321 H 0.0 **** 0.053
22334 H22334 20.9826 34.4213 68.7382 H 0.0 **** 0.053
22335 H22335 22.5159 34.1812 67.9344 H 0.0 **** 0.053
22336 H22336 22.0025 35.3103 70.7153 H 0.0 **** 0.053
22337 H22337 24.549 35.5601 69.0539 H 0.0 **** 0.053
22338 H22338 24.4952 35.8299 70.8074 H 0.0 **** 0.053
22339 H22339 24.2273 37.9644 69.3972 H 0.0 **** 0.053
22340 H22340 22.9288 37.6948 70.5524 H 0.0 **** 0.053
22341 H22341 23.265 35.3929 66.3114 H 0.0 **** 0.1268
22342 H22342 28.293 34.1311 65.1322 H 0.0 **** 0.1268
22343 H22343 30.4939 33.6967 64.3612 H 0.0 **** 0.1268
22344 H22344 24.5062 29.581 61.0206 H 0.0 **** 0.1268
22345 H22345 35.4842 31.562 63.6414 H 0.0 **** 0.053
22346 H22346 33.8888 32.5868 64.9171 H 0.0 **** 0.053
22347 H22347 33.5827 34.4843 62.5728 H 0.0 **** 0.053
22348 H22348 35.2344 35.2743 64.3931 H 0.0 **** 0.053
22349 H22349 34.474 34.6843 65.8731 H 0.0 **** 0.053
22350 H22350 36.2689 32.7942 65.8862 H 0.0 **** 0.053
22351 H22351 36.9252 34.4026 66.2064 H 0.0 **** 0.053
22352 H22352 37.8159 34.639 64.0418 H 0.0 **** 0.053
22353 H22353 36.2934 34.2228 62.4074 H 0.0 **** 0.053
22354 H22354 37.4125 31.3915 62.3345 H 0.0 **** 0.053
22355 H22355 37.0347 32.4484 60.9751 H 0.0 **** 0.053
22356 H22356 38.9344 33.9708 61.6994 H 0.0 **** 0.053
22357 H22357 39.5045 32.3445 61.2993 H 0.0 **** 0.053
22358 H22358 40.1706 33.6019 63.6594 H 0.0 **** 0.053
22359 H22359 40.0646 31.8405 63.534 H 0.0 **** 0.053
22360 H22360 38.0933 31.7944 64.6192 H 0.0 **** 0.353
22361 H22361 25.724 27.9415 57.3723 H 0.0 **** 0.053
22362 H22362 24.1378 27.1505 59.0886 H 0.0 **** 0.053
22363 H22363 26.3687 26.2314 60.8859 H 0.0 **** 0.053
22364 H22364 24.6796 25.7079 60.8378 H 0.0 **** 0.053
22365 H22365 25.77 23.7569 60.0342 H 0.0 **** 0.053
22366 H22366 27.0664 24.6775 59.2513 H 0.0 **** 0.053
22367 H22367 24.1663 24.6066 58.2627 H 0.0 **** 0.053
22368 H22368 25.466 23.632 57.5703 H 0.0 **** 0.053
22369 H22369 24.8673 25.9725 56.4444 H 0.0 **** 0.053
22370 H22370 26.5683 25.5161 56.6047 H 0.0 **** 0.053
22371 H22371 29.6731 26.7819 57.781 H 0.0 **** 0.1268
22372 H22372 31.9832 26.2545 57.0686 H 0.0 **** 0.1268
22373 H22373 35.6289 30.7613 61.3042 H 0.0 **** 0.1268
22374 H22374 37.7976 30.4938 60.2067 H 0.0 **** 0.053
22375 H22375 38.7267 29.683 58.3253 H 0.0 **** 0.053
22376 H22376 39.5861 27.3464 60.0498 H 0.0 **** 0.053
22377 H22377 40.3726 30.2808 60.2214 H 0.0 **** 0.053
22378 H22378 41.3549 28.9959 60.9396 H 0.0 **** 0.053
22379 H22379 39.3775 30.1992 62.3531 H 0.0 **** 0.053
22380 H22380 39.7873 28.5 62.612 H 0.0 **** 0.053
22381 H22381 37.2408 29.1507 62.256 H 0.0 **** 0.053
22382 H22382 37.85 27.7157 61.4335 H 0.0 **** 0.053
22383 H22383 22.2066 32.8382 70.25 H 0.0 **** 0.053
22384 H22384 24.4215 31.838 69.8938 H 0.0 **** 0.053
22385 H22385 25.1956 33.4363 69.8671 H 0.0 **** 0.053
22386 H22386 24.1097 32.9564 68.5446 H 0.0 **** 0.053
22387 H22387 22.5477 33.8311 72.5155 H 0.0 **** 0.053
22388 H22388 24.2765 34.0709 72.1596 H 0.0 **** 0.053
22389 H22389 23.6181 32.4246 72.2678 H 0.0 **** 0.053
22390 H22390 31.7398 35.2012 63.6768 H 0.0 **** 0.41
22391 H22391 35.113 24.9113 55.2547 H 0.0 **** 0.1268
22392 H22392 36.5939 23.7742 53.6347 H 0.0 **** 0.1268
22393 H22393 38.8446 23.4052 52.6872 H 0.0 **** 0.1268
22394 H22394 41.0767 23.0381 51.7229 H 0.0 **** 0.1268
22395 H22395 43.5176 23.4935 51.7267 H 0.0 **** 0.1268
22396 H22396 46.4718 26.0981 54.4109 H 0.0 **** 0.1268
22397 H22397 45.4729 24.6397 52.6955 H 0.0 **** 0.1268
22398 H22398 42.494 28.8145 59.2148 H 0.0 **** 0.1268
22399 H22399 44.0554 29.8684 58.4598 H 0.0 **** 0.053
22400 H22400 45.0083 28.6368 59.2929 H 0.0 **** 0.053
22401 H22401 46.4848 30.4856 58.55 H 0.0 **** 0.053
22402 H22402 45.8994 30.3116 56.8815 H 0.0 **** 0.053
22403 H22403 47.387 28.1558 58.4908 H 0.0 **** 0.053
22404 H22404 48.0831 29.049 57.1334 H 0.0 **** 0.053
22405 C22405 9.74892 24.067 61.242 C.3 0.0 **** 0.054
22406 C22406 11.2638 23.8611 61.4766 C.3 0.0 **** -0.106
22407 C22407 11.9866 23.5718 60.1447 C.3 0.0 **** -0.053
22408 C22408 11.118 22.6264 59.2991 C.3 0.0 **** -0.053
22409 C22409 9.75515 23.3068 59.0078 C.3 0.0 **** 0.054
22410 O22410 9.47514 24.4092 59.879 O.3 0.0 **** -0.32
22411 C22411 10.9475 21.2579 59.9918 C.3 0.0 **** -0.053
22412 C22412 12.2411 20.7986 60.7236 C.3 0.0 **** 0.107
22413 C22413 13.4691 21.4693 60.1318 C.3 0.0 **** -0.106
22414 C22414 13.4095 22.9922 60.35 C.3 0.0 **** -0.106
22415 O22415 12.4347 19.3791 60.6249 O.3 0.0 **** -0.32
22416 C22416 11.2294 18.6308 60.858 C.3 0.0 **** 0.107
22417 C22417 10.3196 18.7969 59.6277 C.3 0.0 **** -0.053
22418 C22418 10.5475 20.1921 58.9751 C.3 0.0 **** -0.106
22419 C22419 8.88406 18.4731 59.8786 C.2 0.0 **** 0.0
22420 C22420 8.36934 18.2219 61.1405 C.2 0.0 **** 0.0
22421 C22421 9.16878 18.3965 62.327 C.2 0.0 **** 0.0
22422 C22422 10.5644 18.9653 62.2026 C.3 0.0 **** -0.053
22423 C22423 8.63748 18.2189 63.5925 C.2 0.0 **** 0.0
22424 C22424 7.26589 17.7949 63.7464 C.2 0.0 **** 0.0
22425 C22425 6.50439 17.585 62.5568 C.2 0.0 **** 0.232
22426 C22426 6.99215 17.7958 61.2969 C.2 0.0 **** 0.0
22427 C22427 6.11235 17.602 60.0881 C.3 0.0 **** -0.106
22428 C22428 6.93419 17.2871 58.8377 C.3 0.0 **** -0.106
22429 C22429 8.02111 18.349 58.6545 C.3 0.0 **** -0.106
22430 O22430 5.18624 17.1818 62.6524 O.3 0.0 **** -0.464
22431 C22431 4.63891 16.8624 63.8713 C.2 0.0 **** 0.232
22432 C22432 5.3243 17.0958 65.0773 C.2 0.0 **** 0.0
22433 C22433 6.66964 17.6137 65.0003 C.2 0.0 **** 0.0
22434 C22434 11.4255 18.6288 63.3969 C.2 0.0 **** 0.0
22435 C22435 10.7874 18.766 64.7037 C.2 0.0 **** 0.0
22436 C22436 9.42414 18.4805 64.8011 C.2 0.0 **** 0.0
22437 C22437 11.6673 19.0129 65.8444 C.2 0.0 **** 0.0
22438 C22438 12.9535 18.5585 65.7947 C.2 0.0 **** 0.0
22439 C22439 13.5187 17.9462 64.555 C.3 0.0 **** -0.106
22440 C22440 12.7139 18.2263 63.3239 C.2 0.0 **** -0.1268
22441 C22441 13.8418 18.7092 66.9979 C.3 0.0 **** -0.106
22442 C22442 13.0102 18.6511 68.2826 C.3 0.0 **** -0.106
22443 C22443 11.879 19.6463 68.1976 C.2 0.0 **** 0.0
22444 C22444 11.2533 19.8267 67.0102 C.2 0.0 **** 0.0
22445 C22445 10.2584 20.9432 66.7921 C.3 0.0 **** -0.106
22446 C22446 10.164 21.921 67.9689 C.3 0.0 **** -0.053
22447 C22447 10.1703 21.1341 69.2842 C.3 0.0 **** -0.106
22448 C22448 11.5019 20.3998 69.4395 C.3 0.0 **** -0.106
22449 C22449 7.46378 17.8955 66.1609 C.2 0.0 **** -0.012
22450 C22450 8.77633 18.286 66.0582 C.2 0.0 **** -0.1268
22451 C22451 4.65004 16.7383 66.2728 C.2 0.0 **** 0.0
22452 C22452 5.25707 16.9709 67.5587 C.2 0.0 **** -0.012
22453 S22453 6.78 17.8206 67.7699 S.2 0.0 **** 0.024
22454 C22454 4.62864 16.5885 68.7163 C.2 0.0 **** -0.1268
22455 C22455 3.3616 15.9484 68.6908 C.2 0.0 **** 0.0
22456 C22456 2.70831 15.7268 67.4396 C.2 0.0 **** 0.0
22457 C22457 3.34515 16.1308 66.2339 C.2 0.0 **** 0.0
22458 C22458 1.42757 15.1145 67.4266 C.2 0.0 **** 0.0
22459 C22459 0.823709 14.6929 68.6509 C.2 0.0 **** 0.0
22460 C22460 1.53477 14.8642 69.8934 C.2 0.0 **** 0.0
22461 C22461 2.76863 15.533 69.8789 C.2 0.0 **** -0.1268
22462 C22462 0.961955 14.3386 71.0894 C.2 0.0 **** 0.0
22463 C22463 -0.321665 13.8273 71.0583 C.2 0.0 **** 0.042
22464 C22464 -1.11225 13.7435 69.8733 C.2 0.0 **** 0.0
22465 C22465 -0.485455 14.1259 68.6542 C.2 0.0 **** 0.0
22466 C22466 2.68273 15.9223 64.9773 C.2 0.0 **** 0.0
22467 C22467 3.37942 16.307 63.8131 C.2 0.0 **** -0.1268
22468 C22468 0.748666 14.9279 66.1773 C.2 0.0 **** 0.0
22469 C22469 1.36255 15.3279 64.9527 C.2 0.0 **** 0.0
22470 C22470 -1.17606 13.962 67.4075 C.2 0.0 **** 0.0
22471 C22471 -0.553708 14.3443 66.1906 C.2 0.0 **** 0.0
22472 C22472 -2.47547 13.2734 69.8629 C.2 0.0 **** 0.0
22473 C22473 -3.12572 13.0703 68.6091 C.2 0.0 **** 0.0
22474 C22474 -2.48156 13.4042 67.3912 C.2 0.0 **** 0.0
22475 O22475 -0.800038 13.2955 72.2365 O.3 0.0 **** -0.202
22476 C22476 -0.719086 14.1612 73.404 C.3 0.0 **** 0.107
22477 C22477 0.646033 14.8897 73.4799 C.3 0.0 **** -0.053
22478 C22478 1.58936 14.214 72.4742 C.3 0.0 **** 0.107
22479 C22479 1.18187 14.924 74.9163 C.3 0.0 **** -0.106
22480 C22480 0.023737 15.2296 75.872 C.3 0.0 **** -0.106
22481 C22481 -0.916624 14.024 75.9622 C.3 0.0 **** 0.134
22482 C22482 -1.02287 13.2601 74.5997 C.3 0.0 **** -0.053
22483 C22483 -2.41644 12.6247 74.4622 C.3 0.0 **** -0.106
22484 C22484 -2.91895 12.0843 75.8 C.3 0.0 **** -0.106
22485 C22485 -3.05151 13.2462 76.8243 C.3 0.0 **** 0.081
22486 N22486 -2.21443 14.4151 76.514 N.3 0.0 **** -0.727
22487 C22487 0.615491 15.1117 63.7411 C.2 0.0 **** 0.042
22488 C22488 -0.62775 14.4982 63.7539 C.2 0.0 **** 0.042
22489 C22489 -1.25955 14.126 64.9686 C.2 0.0 **** 0.0
22490 O22490 -1.34046 14.2313 62.6078 O.3 0.0 **** -0.202
22491 C22491 -0.579099 14.3246 61.3842 C.3 0.0 **** 0.107
22492 C22492 0.220896 15.615 61.4459 C.3 0.0 **** 0.107
22493 O22493 1.15189 15.5243 62.5419 O.3 0.0 **** -0.202
22494 C22494 -0.678434 16.8619 61.5766 C.3 0.0 **** -0.106
22495 C22495 -2.07936 16.6554 60.961 C.3 0.0 **** -0.106
22496 C22496 -2.00809 15.7004 59.7642 C.3 0.0 **** -0.106
22497 C22497 -1.55824 14.2935 60.2088 C.3 0.0 **** -0.106
22498 C22498 -3.17396 13.1965 66.1526 C.2 0.0 **** 0.0
22499 C22499 -2.54067 13.5549 64.9626 C.2 0.0 **** -0.1268
22500 C22500 -4.44568 12.5387 68.5917 C.2 0.0 **** 0.0
22501 C22501 -5.09333 12.3137 67.3376 C.2 0.0 **** 0.042
22502 C22502 -4.48846 12.633 66.1536 C.2 0.0 **** -0.1268
22503 C22503 -5.12611 12.2475 69.7836 C.2 0.0 **** 0.0
22504 C22504 -4.51382 12.5277 71.0121 C.2 0.0 **** 0.0
22505 C22505 -3.22403 13.026 71.0298 C.2 0.0 **** -0.1268
22506 O22506 -6.36879 11.7712 67.2961 O.3 0.0 **** -0.0685
22507 C22507 -7.01843 11.4143 68.4555 C.2 0.0 **** 0.0265
22508 C22508 -6.44282 11.6614 69.7135 C.2 0.0 **** 0.0
22509 C22509 -5.23742 12.3414 72.3193 C.3 0.0 **** -0.053
22510 C22510 -6.47367 11.4168 72.2323 C.3 0.0 **** -0.053
22511 C22511 -7.12213 11.296 70.8789 C.2 0.0 **** 0.0
22512 C22512 -7.55347 11.8124 73.2572 C.3 0.0 **** -0.053
22513 C22513 -6.89739 12.1917 74.5798 C.3 0.0 **** -0.106
22514 C22514 -6.0862 13.499 74.399 C.3 0.0 **** -0.106
22515 C22515 -5.61667 13.6958 72.9451 C.3 0.0 **** -0.106
22516 C22516 -8.38462 10.6886 70.8026 C.2 0.0 **** 0.0
22517 C22517 -8.93859 10.3792 69.5281 C.2 0.0 **** 0.0
22518 C22518 -8.25901 10.7611 68.3289 C.2 0.0 **** 0.0
22519 C22519 -8.62549 10.7574 73.2713 C.2 0.0 **** 0.0
22520 C22520 -9.08231 10.3085 72.0009 C.2 0.0 **** 0.0
22521 C22521 8.95172 22.863 67.8137 C.3 0.0 **** -0.053
22522 C22522 7.61584 22.1573 68.0807 C.3 0.0 **** -0.159
22523 C22523 9.09101 24.0952 68.7136 C.3 0.0 **** -0.159
22524 O22524 2.90109 14.7438 72.673 O.3 0.0 **** -0.57
22525 C22525 -8.84886 10.4435 67.0619 C.2 0.0 **** -0.1268
22526 C22526 -10.0281 9.75523 66.9929 C.2 0.0 **** -0.1268
22527 C22527 -10.7138 9.3175 68.1742 C.2 0.0 **** 0.0
22528 C22528 -10.1538 9.64326 69.4517 C.2 0.0 **** 0.0
22529 C22529 -10.7987 9.20176 70.6374 C.2 0.0 **** 0.0
22530 C22530 -11.9905 8.4436 70.5584 C.2 0.0 **** 0.0
22531 C22531 -12.5466 8.12727 69.2769 C.2 0.0 **** 0.0
22532 C22532 -11.8963 8.57288 68.115 C.2 0.0 **** -0.1268
22533 C22533 -13.751 7.35996 69.2172 C.2 0.0 **** -0.1268
22534 C22534 -14.3681 6.92921 70.3616 C.2 0.0 **** -0.1268
22535 C22535 -13.833 7.2353 71.6502 C.2 0.0 **** 0.0
22536 C22536 -12.6401 7.99985 71.7482 C.2 0.0 **** 0.0
22537 C22537 -12.1033 8.3235 73.031 C.2 0.0 **** 0.0
22538 C22538 -10.9098 9.09598 73.1073 C.2 0.0 **** 0.0
22539 C22539 -10.256 9.53108 71.9193 C.2 0.0 **** 0.0
22540 C22540 -12.7616 7.89484 74.2217 C.2 0.0 **** 0.0
22541 C22541 -13.9413 7.11227 74.0827 C.2 0.0 **** -0.1268
22542 C22542 -14.4526 6.79562 72.8414 C.2 0.0 **** -0.1268
22543 C22543 -9.23441 10.2967 74.417 C.2 0.0 **** -0.1268
22544 C22544 -10.3563 9.42787 74.3745 C.2 0.0 **** 0.0
22545 C22545 -12.1828 8.23308 75.5058 C.2 0.0 **** 0.052
22546 C22546 -10.9679 8.92911 75.5664 C.2 0.0 **** 0.0
22547 C22547 -10.2599 9.17482 76.8802 C.3 0.0 **** -0.106
22548 C22548 -10.6427 8.14764 77.9386 C.3 0.0 **** -0.106
22549 C22549 -12.1542 8.16029 78.0951 C.3 0.0 **** -0.086
22550 C22550 -12.9004 7.94311 76.7846 C.2 0.0 **** 0.347
22551 O22551 -14.0811 7.59641 76.8448 O.2 0.0 **** -0.419
22552 H22552 9.35394 24.8949 61.8464 H 0.0 **** 0.053
22553 H22553 9.18544 23.1506 61.5091 H 0.0 **** 0.053
22554 H22554 11.7123 24.7532 61.9399 H 0.0 **** 0.053
22555 H22555 11.4163 23.0244 62.1766 H 0.0 **** 0.053
22556 H22556 12.0615 24.5269 59.6046 H 0.0 **** 0.053
22557 H22557 11.6265 22.451 58.3363 H 0.0 **** 0.053
22558 H22558 8.93954 22.5585 59.0923 H 0.0 **** 0.053
22559 H22559 9.73002 23.7319 57.9946 H 0.0 **** 0.053
22560 H22560 10.1339 21.3545 60.7284 H 0.0 **** 0.053
22561 H22561 12.1786 21.0668 61.796 H 0.0 **** 0.053
22562 H22562 13.5081 21.2339 59.0559 H 0.0 **** 0.053
22563 H22563 14.3755 21.0452 60.5872 H 0.0 **** 0.053
22564 H22564 14.1177 23.4792 59.663 H 0.0 **** 0.053
22565 H22565 13.75 23.2306 61.3711 H 0.0 **** 0.053
22566 H22566 11.5597 17.5833 60.9175 H 0.0 **** 0.053
22567 H22567 10.6697 18.0648 58.875 H 0.0 **** 0.053
22568 H22568 9.64651 20.5082 58.4288 H 0.0 **** 0.053
22569 H22569 11.36 20.1122 58.2358 H 0.0 **** 0.053
22570 H22570 10.4063 20.062 62.2479 H 0.0 **** 0.053
22571 H22571 5.37391 16.8116 60.2853 H 0.0 **** 0.053
22572 H22572 5.53056 18.5267 59.9126 H 0.0 **** 0.053
22573 H22573 6.28173 17.2405 57.9525 H 0.0 **** 0.053
22574 H22574 7.41119 16.3003 58.9531 H 0.0 **** 0.053
22575 H22575 7.53745 19.3207 58.4294 H 0.0 **** 0.053
22576 H22576 8.65487 18.1201 57.7811 H 0.0 **** 0.053
22577 H22577 13.6219 16.847 64.6916 H 0.0 **** 0.053
22578 H22578 14.5627 18.2921 64.4239 H 0.0 **** 0.053
22579 H22579 13.2041 18.0971 62.3604 H 0.0 **** 0.1268
22580 H22580 14.6184 17.9278 66.9905 H 0.0 **** 0.053
22581 H22581 14.3708 19.6823 66.942 H 0.0 **** 0.053
22582 H22582 13.6324 18.8591 69.167 H 0.0 **** 0.053
22583 H22583 12.6044 17.6286 68.4064 H 0.0 **** 0.053
22584 H22584 10.5498 21.4901 65.8776 H 0.0 **** 0.053
22585 H22585 9.25899 20.538 66.5719 H 0.0 **** 0.053
22586 H22586 11.0739 22.5499 67.9612 H 0.0 **** 0.053
22587 H22587 9.35099 20.3969 69.2663 H 0.0 **** 0.053
22588 H22588 9.99479 21.799 70.1438 H 0.0 **** 0.053
22589 H22589 11.4634 19.692 70.2876 H 0.0 **** 0.053
22590 H22590 12.3042 21.119 69.6958 H 0.0 **** 0.053
22591 H22591 9.36105 18.4176 66.9684 H 0.0 **** 0.1268
22592 H22592 5.10162 16.7628 69.6854 H 0.0 **** 0.1268
22593 H22593 3.26852 15.7661 70.8139 H 0.0 **** 0.1268
22594 H22594 2.94575 16.1686 62.8336 H 0.0 **** 0.1268
22595 H22595 -1.53006 14.9071 73.3066 H 0.0 **** 0.053
22596 H22596 0.507501 15.9288 73.1413 H 0.0 **** 0.053
22597 H22597 1.60186 13.1328 72.7236 H 0.0 **** 0.053
22598 H22598 1.63427 13.9506 75.1723 H 0.0 **** 0.053
22599 H22599 1.98163 15.6718 74.9897 H 0.0 **** 0.053
22600 H22600 -0.540144 16.1002 75.4907 H 0.0 **** 0.053
22601 H22601 0.370115 15.4978 76.8795 H 0.0 **** 0.053
22602 H22602 -0.484263 13.3142 76.6881 H 0.0 **** 0.053
22603 H22603 -0.265472 12.458 74.5949 H 0.0 **** 0.053
22604 H22604 -3.1212 13.396 74.1066 H 0.0 **** 0.053
22605 H22605 -2.39951 11.842 73.6917 H 0.0 **** 0.053
22606 H22606 -2.20887 11.3283 76.1718 H 0.0 **** 0.053
22607 H22607 -3.88825 11.5761 75.6737 H 0.0 **** 0.053
22608 H22608 -2.78122 12.8854 77.8311 H 0.0 **** 0.053
22609 H22609 -4.09433 13.5923 76.8795 H 0.0 **** 0.053
22610 H22610 -2.69423 15.0199 75.8462 H 0.0 **** 0.353
22611 H22611 0.116574 13.4695 61.3529 H 0.0 **** 0.053
22612 H22612 0.861028 15.6823 60.5548 H 0.0 **** 0.053
22613 H22613 -0.767658 17.1075 62.6447 H 0.0 **** 0.053
22614 H22614 -0.164292 17.7054 61.093 H 0.0 **** 0.053
22615 H22615 -2.49812 17.6266 60.6589 H 0.0 **** 0.053
22616 H22616 -2.75354 16.2291 61.7185 H 0.0 **** 0.053
22617 H22617 -1.29343 16.1044 59.0268 H 0.0 **** 0.053
22618 H22618 -2.98021 15.6334 59.254 H 0.0 **** 0.053
22619 H22619 -1.08955 13.7582 59.3695 H 0.0 **** 0.053
22620 H22620 -2.42396 13.6932 60.5283 H 0.0 **** 0.053
22621 H22621 -3.04942 13.395 64.0133 H 0.0 **** 0.1268
22622 H22622 -5.00575 12.4643 65.2085 H 0.0 **** 0.1268
22623 H22623 -2.76962 13.2185 71.9889 H 0.0 **** 0.1268
22624 H22624 -4.53116 11.8736 73.0221 H 0.0 **** 0.053
22625 H22625 -6.14446 10.394 72.5042 H 0.0 **** 0.053
22626 H22626 -8.05047 12.7205 72.8602 H 0.0 **** 0.053
22627 H22627 -6.2381 11.3647 74.8938 H 0.0 **** 0.053
22628 H22628 -7.64568 12.3236 75.3742 H 0.0 **** 0.053
22629 H22629 -5.21008 13.4755 75.0623 H 0.0 **** 0.053
22630 H22630 -6.69671 14.3619 74.7067 H 0.0 **** 0.053
22631 H22631 -4.75081 14.3739 72.9045 H 0.0 **** 0.053
22632 H22632 -6.40497 14.1627 72.3335 H 0.0 **** 0.053
22633 H22633 8.95212 23.2083 66.7636 H 0.0 **** 0.053
22634 H22634 6.77348 22.8191 67.829 H 0.0 **** 0.053
22635 H22635 7.52513 21.8942 69.1459 H 0.0 **** 0.053
22636 H22636 7.50495 21.2306 67.4974 H 0.0 **** 0.053
22637 H22637 10.0303 24.6326 68.5082 H 0.0 **** 0.053
22638 H22638 9.0926 23.8043 69.7761 H 0.0 **** 0.053
22639 H22639 8.25357 24.7932 68.5622 H 0.0 **** 0.053
22640 H22640 3.51296 14.2038 72.1494 H 0.0 **** 0.41
22641 H22641 -8.33343 10.7541 66.1531 H 0.0 **** 0.1268
22642 H22642 -10.4677 9.51375 66.0235 H 0.0 **** 0.1268
22643 H22643 -12.3215 8.32378 67.1402 H 0.0 **** 0.1268
22644 H22644 -14.1665 7.12299 68.236 H 0.0 **** 0.1268
22645 H22645 -15.284 6.33726 70.3095 H 0.0 **** 0.1268
22646 H22646 -14.4462 6.77364 74.9811 H 0.0 **** 0.1268
22647 H22647 -15.3581 6.18938 72.7689 H 0.0 **** 0.1268
22648 H22648 -8.86749 10.6466 75.3781 H 0.0 **** 0.1268
22649 H22649 -9.17374 9.14986 76.7141 H 0.0 **** 0.053
22650 H22650 -10.4963 10.191 77.2486 H 0.0 **** 0.053
22651 H22651 -10.1405 8.36881 78.8927 H 0.0 **** 0.053
22652 H22652 -10.3074 7.15011 77.6105 H 0.0 **** 0.053
22653 H22653 -12.4791 9.14584 78.477 H 0.0 **** 0.053
22654 H22654 -12.5275 7.40967 78.8061 H 0.0 **** 0.053
22655 C22655 46.5052 10.5736 22.6295 C.3 0.0 **** 0.054
22656 C22656 46.6463 9.07678 22.2665 C.3 0.0 **** -0.106
22657 C22657 48.0188 8.53456 22.716 C.3 0.0 **** -0.053
22658 C22658 49.096 9.59 22.4175 C.3 0.0 **** -0.053
22659 C22659 48.7729 10.8875 23.2031 C.3 0.0 **** 0.054
22660 O22660 47.4186 10.9458 23.6673 O.3 0.0 **** -0.32
22661 C22661 49.2202 9.84529 20.9005 C.3 0.0 **** -0.053
22662 C22662 49.0482 8.54487 20.0645 C.3 0.0 **** 0.107
22663 C22663 49.3694 7.31538 20.8971 C.3 0.0 **** -0.106
22664 C22664 48.3692 7.17493 22.0591 C.3 0.0 **** -0.106
22665 O22665 49.9139 8.52857 18.9189 O.3 0.0 **** -0.32
22666 C22666 49.9365 9.78174 18.2146 C.3 0.0 **** 0.107
22667 C22667 50.7375 10.7888 19.0592 C.3 0.0 **** -0.053
22668 C22668 50.5742 10.4696 20.5744 C.3 0.0 **** -0.106
22669 C22669 50.4851 12.2184 18.7111 C.2 0.0 **** 0.0
22670 C22670 49.4894 12.6251 17.8372 C.2 0.0 **** 0.0
22671 C22671 48.5273 11.6921 17.307 C.2 0.0 **** 0.0
22672 C22672 48.538 10.2604 17.7938 C.3 0.0 **** -0.053
22673 C22673 47.487 12.1062 16.4937 C.2 0.0 **** 0.0
22674 C22674 47.3783 13.4943 16.1114 C.2 0.0 **** 0.0
22675 C22675 48.3674 14.3943 16.6122 C.2 0.0 **** 0.232
22676 C22676 49.3789 14.0188 17.4522 C.2 0.0 **** 0.0
22677 C22677 50.3577 15.0357 17.9818 C.3 0.0 **** -0.106
22678 C22678 51.6908 14.3901 18.3616 C.3 0.0 **** -0.106
22679 C22679 51.4422 13.2123 19.3067 C.3 0.0 **** -0.106
22680 O22680 48.3043 15.7333 16.2769 O.3 0.0 **** -0.464
22681 C22681 47.3758 16.1845 15.3706 C.2 0.0 **** 0.232
22682 C22682 46.349 15.3553 14.8838 C.2 0.0 **** 0.0
22683 C22683 46.3398 13.9743 15.3041 C.2 0.0 **** 0.0
22684 C22684 47.8503 9.32495 16.8277 C.2 0.0 **** 0.0
22685 C22685 46.5923 9.80371 16.2606 C.2 0.0 **** 0.0
22686 C22686 46.4583 11.1734 16.025 C.2 0.0 **** 0.0
22687 C22687 45.642 8.78757 15.8125 C.2 0.0 **** 0.0
22688 C22688 46.1178 7.575 15.4047 C.2 0.0 **** 0.0
22689 C22689 47.5615 7.21629 15.5397 C.3 0.0 **** -0.106
22690 C22690 48.3183 8.10648 16.476 C.2 0.0 **** -0.1268
22691 C22691 45.1679 6.55517 14.8416 C.3 0.0 **** -0.106
22692 C22692 44.003 7.25009 14.1307 C.3 0.0 **** -0.106
22693 C22693 43.3752 8.26082 15.0588 C.2 0.0 **** 0.0
22694 C22694 44.1754 8.98118 15.8803 C.2 0.0 **** 0.0
22695 C22695 43.6147 9.85707 16.9768 C.3 0.0 **** -0.106
22696 C22696 42.0998 9.71474 17.1629 C.3 0.0 **** -0.053
22697 C22697 41.4224 9.66338 15.789 C.3 0.0 **** -0.106
22698 C22698 41.8829 8.41707 15.0332 C.3 0.0 **** -0.106
22699 C22699 45.3415 13.0367 14.8781 C.2 0.0 **** -0.012
22700 C22700 45.4164 11.7055 15.2069 C.2 0.0 **** -0.1268
22701 C22701 45.4412 15.9388 13.9635 C.2 0.0 **** 0.0
22702 C22702 44.3366 15.1788 13.4359 C.2 0.0 **** -0.012
22703 S22703 43.9374 13.5539 13.971 S.2 0.0 **** 0.024
22704 C22704 43.4805 15.7238 12.5133 C.2 0.0 **** -0.1268
22705 C22705 43.6519 17.0523 12.0428 C.2 0.0 **** 0.0
22706 C22706 44.7148 17.8532 12.5626 C.2 0.0 **** 0.0
22707 C22707 45.6008 17.3023 13.5291 C.2 0.0 **** 0.0
22708 C22708 44.859 19.1907 12.1091 C.2 0.0 **** 0.0
22709 C22709 43.9718 19.7091 11.1165 C.2 0.0 **** 0.0
22710 C22710 42.9515 18.858 10.5567 C.2 0.0 **** 0.0
22711 C22711 42.7932 17.563 11.0744 C.2 0.0 **** -0.1268
22712 C22712 42.1478 19.3607 9.49083 C.2 0.0 **** 0.0
22713 C22713 42.253 20.6912 9.132 C.2 0.0 **** 0.042
22714 C22714 43.1668 21.6048 9.73737 C.2 0.0 **** 0.0
22715 C22715 44.0741 21.0678 10.6934 C.2 0.0 **** 0.0
22716 C22716 46.6599 18.1112 14.0632 C.2 0.0 **** 0.0
22717 C22717 47.5306 17.4992 14.9885 C.2 0.0 **** -0.1268
22718 C22718 45.8978 20.0126 12.6584 C.2 0.0 **** 0.0
22719 C22719 46.7983 19.4868 13.6327 C.2 0.0 **** 0.0
22720 C22720 45.0969 21.8983 11.2608 C.2 0.0 **** 0.0
22721 C22721 46.0016 21.3654 12.2157 C.2 0.0 **** 0.0
22722 C22722 43.2209 23.0071 9.40526 C.2 0.0 **** 0.0
22723 C22723 44.2766 23.803 9.94185 C.2 0.0 **** 0.0
22724 C22724 45.2112 23.2543 10.8558 C.2 0.0 **** 0.0
22725 O22725 41.4816 21.1032 8.06672 O.3 0.0 **** -0.202
22726 C22726 40.0603 20.8017 8.15652 C.3 0.0 **** 0.107
22727 C22727 39.8146 19.3608 8.66981 C.3 0.0 **** -0.053
22728 C22728 41.1536 18.6117 8.60903 C.3 0.0 **** 0.107
22729 C22729 38.6792 18.6785 7.89725 C.3 0.0 **** -0.106
22730 C22730 37.5463 19.688 7.68353 C.3 0.0 **** -0.106
22731 C22731 37.9709 20.7474 6.66204 C.3 0.0 **** 0.134
22732 C22732 39.4968 21.0823 6.76453 C.3 0.0 **** -0.053
22733 C22733 39.7401 22.5469 6.36385 C.3 0.0 **** -0.106
22734 C22734 38.8366 22.9672 5.20572 C.3 0.0 **** -0.106
22735 C22735 37.3453 22.8571 5.63066 C.3 0.0 **** 0.081
22736 N22736 37.1082 21.9267 6.74494 N.3 0.0 **** -0.727
22737 C22737 47.8113 20.3756 14.1395 C.2 0.0 **** 0.042
22738 C22738 47.9402 21.6735 13.6695 C.2 0.0 **** 0.042
22739 C22739 47.0305 22.2148 12.7246 C.2 0.0 **** 0.0
22740 O22740 48.9307 22.5274 14.0968 O.3 0.0 **** -0.202
22741 C22741 50.0154 21.8914 14.8071 C.3 0.0 **** 0.107
22742 C22742 49.3981 20.9451 15.8231 C.3 0.0 **** 0.107
22743 O22743 48.6722 19.9222 15.1138 O.3 0.0 **** -0.202
22744 C22744 48.4916 21.6752 16.836 C.3 0.0 **** -0.106
22745 C22745 48.9044 23.1469 17.0548 C.3 0.0 **** -0.106
22746 C22746 50.4205 23.3114 16.8996 C.3 0.0 **** -0.106
22747 C22747 50.865 22.9842 15.4592 C.3 0.0 **** -0.106
22748 C22748 46.2503 24.0909 11.3822 C.2 0.0 **** 0.0
22749 C22749 47.1469 23.5472 12.302 C.2 0.0 **** -0.1268
22750 C22750 44.3757 25.1704 9.56014 C.2 0.0 **** 0.0
22751 C22751 45.4437 25.9664 10.0785 C.2 0.0 **** 0.042
22752 C22752 46.3518 25.4546 10.9635 C.2 0.0 **** -0.1268
22753 C22753 43.4347 25.7527 8.69769 C.2 0.0 **** 0.0
22754 C22754 42.3534 24.9879 8.24097 C.2 0.0 **** 0.0
22755 C22755 42.2673 23.6541 8.59583 C.2 0.0 **** -0.1268
22756 O22756 45.5753 27.2935 9.69883 O.3 0.0 **** -0.0685
22757 C22757 44.701 27.8564 8.79758 C.2 0.0 **** 0.0265
22758 C22758 43.6071 27.1286 8.29866 C.2 0.0 **** 0.0
22759 C22759 41.2541 25.5887 7.40573 C.3 0.0 **** -0.053
22760 C22760 41.6326 26.9262 6.7285 C.3 0.0 **** -0.053
22761 C22761 42.7279 27.7211 7.38825 C.2 0.0 **** 0.0
22762 C22762 40.406 27.8406 6.54955 C.3 0.0 **** -0.053
22763 C22763 39.2001 27.0113 6.12315 C.3 0.0 **** -0.106
22764 C22764 38.7777 26.077 7.28446 C.3 0.0 **** -0.106
22765 C22765 39.9557 25.7412 8.21864 C.3 0.0 **** -0.106
22766 C22766 42.925 29.0466 6.97248 C.2 0.0 **** 0.0
22767 C22767 44.0688 29.762 7.4271 C.2 0.0 **** 0.0
22768 C22768 44.9676 29.1708 8.36975 C.2 0.0 **** 0.0
22769 C22769 40.7941 29.0205 5.70127 C.2 0.0 **** 0.0
22770 C22770 42.0233 29.6556 6.03263 C.2 0.0 **** 0.0
22771 C22771 41.5467 10.8191 18.088 C.3 0.0 **** -0.053
22772 C22772 41.4988 12.1929 17.4066 C.3 0.0 **** -0.159
22773 C22773 40.1625 10.4452 18.6281 C.3 0.0 **** -0.159
22774 O22774 40.903 17.2339 8.89122 O.3 0.0 **** -0.57
22775 C22775 46.1042 29.9217 8.81504 C.2 0.0 **** -0.1268
22776 C22776 46.3507 31.1736 8.32395 C.2 0.0 **** -0.1268
22777 C22777 45.4956 31.7791 7.34443 C.2 0.0 **** 0.0
22778 C22778 44.3414 31.0557 6.9016 C.2 0.0 **** 0.0
22779 C22779 43.4908 31.6209 5.91486 C.2 0.0 **** 0.0
22780 C22780 43.7808 32.8944 5.37108 C.2 0.0 **** 0.0
22781 C22781 44.934 33.6133 5.82387 C.2 0.0 **** 0.0
22782 C22782 45.7634 33.0398 6.80093 C.2 0.0 **** -0.1268
22783 C22783 45.2109 34.8983 5.26251 C.2 0.0 **** -0.1268
22784 C22784 44.3931 35.4391 4.306 C.2 0.0 **** -0.1268
22785 C22785 43.2365 34.7414 3.8417 C.2 0.0 **** 0.0
22786 C22786 42.9273 33.4641 4.38046 C.2 0.0 **** 0.0
22787 C22787 41.7663 32.7632 3.93392 C.2 0.0 **** 0.0
22788 C22788 41.4712 31.4867 4.49107 C.2 0.0 **** 0.0
22789 C22789 42.3285 30.9136 5.47335 C.2 0.0 **** 0.0
22790 C22790 40.9027 33.3397 2.95578 C.2 0.0 **** 0.0
22791 C22791 41.2576 34.6103 2.4236 C.2 0.0 **** -0.1268
22792 C22792 42.3841 35.2809 2.85243 C.2 0.0 **** -0.1268
22793 C22793 39.9925 29.5566 4.71857 C.2 0.0 **** -0.1268
22794 C22794 40.3214 30.77 4.05925 C.2 0.0 **** 0.0
22795 C22795 39.7392 32.5955 2.51905 C.2 0.0 **** 0.052
22796 C22796 39.501 31.3084 3.01972 C.2 0.0 **** 0.0
22797 C22797 38.3813 30.4442 2.48386 C.3 0.0 **** -0.106
22798 C22798 37.9874 30.8317 1.0638 C.3 0.0 **** -0.106
22799 C22799 37.6235 32.3071 1.05242 C.3 0.0 **** -0.086
22800 C22800 38.7196 33.2053 1.61203 C.2 0.0 **** 0.347
22801 O22801 38.6766 34.4056 1.33756 O.2 0.0 **** -0.419
22802 H22802 45.5021 10.805 23.0128 H 0.0 **** 0.053
22803 H22803 46.685 11.2089 21.7391 H 0.0 **** 0.053
22804 H22804 45.8532 8.48219 22.7451 H 0.0 **** 0.053
22805 H22805 46.5303 8.95055 21.1784 H 0.0 **** 0.053
22806 H22806 47.9728 8.40574 23.8073 H 0.0 **** 0.053
22807 H22807 50.0682 9.2079 22.7714 H 0.0 **** 0.053
22808 H22808 48.9778 11.7712 22.5633 H 0.0 **** 0.053
22809 H22809 49.3879 10.9681 24.1104 H 0.0 **** 0.053
22810 H22810 48.4328 10.5614 20.616 H 0.0 **** 0.053
22811 H22811 48.0023 8.46419 19.7104 H 0.0 **** 0.053
22812 H22812 50.3972 7.41581 21.2815 H 0.0 **** 0.053
22813 H22813 49.351 6.42201 20.2566 H 0.0 **** 0.053
22814 H22814 48.7893 6.49011 22.8109 H 0.0 **** 0.053
22815 H22815 47.4422 6.70502 21.6912 H 0.0 **** 0.053
22816 H22816 50.4932 9.5709 17.2897 H 0.0 **** 0.053
22817 H22817 51.8066 10.606 18.8386 H 0.0 **** 0.053
22818 H22818 50.7266 11.3796 21.1734 H 0.0 **** 0.053
22819 H22819 51.3549 9.75292 20.8744 H 0.0 **** 0.053
22820 H22820 47.8937 10.2846 18.696 H 0.0 **** 0.053
22821 H22821 50.5026 15.8364 17.2423 H 0.0 **** 0.053
22822 H22822 49.9253 15.5213 18.8771 H 0.0 **** 0.053
22823 H22823 52.3557 15.1319 18.8298 H 0.0 **** 0.053
22824 H22824 52.1905 14.0215 17.4511 H 0.0 **** 0.053
22825 H22825 51.041 13.6006 20.2643 H 0.0 **** 0.053
22826 H22826 52.3871 12.7034 19.5621 H 0.0 **** 0.053
22827 H22827 48.0473 7.2277 14.539 H 0.0 **** 0.053
22828 H22828 47.6435 6.15848 15.8577 H 0.0 **** 0.053
22829 H22829 49.2638 7.73725 16.8697 H 0.0 **** 0.1268
22830 H22830 45.7058 5.87945 14.1576 H 0.0 **** 0.053
22831 H22831 44.7767 5.9255 15.6664 H 0.0 **** 0.053
22832 H22832 43.2484 6.51956 13.7996 H 0.0 **** 0.053
22833 H22833 44.3823 7.75676 13.2223 H 0.0 **** 0.053
22834 H22834 44.1302 9.60064 17.9196 H 0.0 **** 0.053
22835 H22835 43.8637 10.9141 16.7978 H 0.0 **** 0.053
22836 H22836 41.9085 8.74381 17.657 H 0.0 **** 0.053
22837 H22837 41.7062 10.5601 15.2142 H 0.0 **** 0.053
22838 H22838 40.326 9.67044 15.888 H 0.0 **** 0.053
22839 H22839 41.5462 8.44931 13.9809 H 0.0 **** 0.053
22840 H22840 41.4073 7.51453 15.4643 H 0.0 **** 0.053
22841 H22841 44.6754 11.0182 14.7993 H 0.0 **** 0.1268
22842 H22842 42.6509 15.1359 12.1142 H 0.0 **** 0.1268
22843 H22843 41.9648 16.9452 10.7421 H 0.0 **** 0.1268
22844 H22844 48.3557 18.0452 15.4216 H 0.0 **** 0.1268
22845 H22845 39.6234 21.5264 8.86895 H 0.0 **** 0.053
22846 H22846 39.5238 19.4122 9.73119 H 0.0 **** 0.053
22847 H22847 41.5222 18.699 7.56602 H 0.0 **** 0.053
22848 H22848 39.051 18.318 6.92277 H 0.0 **** 0.053
22849 H22849 38.3405 17.7941 8.45162 H 0.0 **** 0.053
22850 H22850 37.3169 20.1835 8.64425 H 0.0 **** 0.053
22851 H22851 36.6158 19.2102 7.34766 H 0.0 **** 0.053
22852 H22852 37.8077 20.3273 5.65477 H 0.0 **** 0.053
22853 H22853 40.0407 20.4277 6.06253 H 0.0 **** 0.053
22854 H22854 39.5209 23.1905 7.23324 H 0.0 **** 0.053
22855 H22855 40.801 22.7009 6.12433 H 0.0 **** 0.053
22856 H22856 39.0349 22.3149 4.3402 H 0.0 **** 0.053
22857 H22857 39.0666 23.9967 4.88808 H 0.0 **** 0.053
22858 H22858 36.7381 22.5275 4.77056 H 0.0 **** 0.053
22859 H22859 36.9589 23.8413 5.93448 H 0.0 **** 0.053
22860 H22860 37.2716 22.3998 7.63459 H 0.0 **** 0.353
22861 H22861 50.6003 21.3067 14.0777 H 0.0 **** 0.053
22862 H22862 50.2013 20.3974 16.3363 H 0.0 **** 0.053
22863 H22863 47.4572 21.624 16.4664 H 0.0 **** 0.053
22864 H22864 48.5236 21.1196 17.7846 H 0.0 **** 0.053
22865 H22865 48.5774 23.4792 18.051 H 0.0 **** 0.053
22866 H22866 48.3984 23.7837 16.3142 H 0.0 **** 0.053
22867 H22867 50.9277 22.6351 17.6088 H 0.0 **** 0.053
22868 H22868 50.7356 24.3324 17.1606 H 0.0 **** 0.053
22869 H22869 51.9195 22.6704 15.4458 H 0.0 **** 0.053
22870 H22870 50.7878 23.8758 14.8183 H 0.0 **** 0.053
22871 H22871 47.9471 24.1668 12.7038 H 0.0 **** 0.1268
22872 H22872 47.1518 26.0832 11.356 H 0.0 **** 0.1268
22873 H22873 41.4335 23.0834 8.21827 H 0.0 **** 0.1268
22874 H22874 41.0227 24.8724 6.60261 H 0.0 **** 0.053
22875 H22875 41.9989 26.6914 5.70917 H 0.0 **** 0.053
22876 H22876 40.1797 28.2673 7.54752 H 0.0 **** 0.053
22877 H22877 39.4767 26.4234 5.23142 H 0.0 **** 0.053
22878 H22878 38.3555 27.6527 5.83414 H 0.0 **** 0.053
22879 H22879 38.3686 25.1455 6.86849 H 0.0 **** 0.053
22880 H22880 37.9711 26.5481 7.86697 H 0.0 **** 0.053
22881 H22881 39.759 24.8115 8.77354 H 0.0 **** 0.053
22882 H22882 40.0992 26.5292 8.97486 H 0.0 **** 0.053
22883 H22883 42.2388 10.8876 18.9472 H 0.0 **** 0.053
22884 H22884 41.2306 12.9743 18.1334 H 0.0 **** 0.053
22885 H22885 40.737 12.2025 16.6119 H 0.0 **** 0.053
22886 H22886 42.461 12.4704 16.9499 H 0.0 **** 0.053
22887 H22887 40.189 9.4763 19.1513 H 0.0 **** 0.053
22888 H22888 39.4315 10.3671 17.8076 H 0.0 **** 0.053
22889 H22889 39.7922 11.2071 19.3307 H 0.0 **** 0.053
22890 H22890 41.7183 16.7464 8.69664 H 0.0 **** 0.41
22891 H22891 46.7741 29.4708 9.54705 H 0.0 **** 0.1268
22892 H22892 47.2213 31.7364 8.66538 H 0.0 **** 0.1268
22893 H22893 46.6446 33.5898 7.13829 H 0.0 **** 0.1268
22894 H22894 46.0925 35.438 5.6131 H 0.0 **** 0.1268
22895 H22895 44.6139 36.4179 3.87568 H 0.0 **** 0.1268
22896 H22896 40.6129 35.055 1.67319 H 0.0 **** 0.1268
22897 H22897 42.6309 36.2532 2.42075 H 0.0 **** 0.1268
22898 H22898 39.0602 29.0538 4.47558 H 0.0 **** 0.1268
22899 H22899 38.696 29.3914 2.50784 H 0.0 **** 0.053
22900 H22900 37.4987 30.5216 3.14659 H 0.0 **** 0.053
22901 H22901 37.1498 30.211 0.711036 H 0.0 **** 0.053
22902 H22902 38.8413 30.6502 0.390766 H 0.0 **** 0.053
22903 H22903 36.7326 32.4741 1.68575 H 0.0 **** 0.053
22904 H22904 37.3737 32.6892 0.0524523 H 0.0 **** 0.053
22905 C22905 25.3177 -11.2544 19.6981 C.3 0.0 **** 0.054
22906 C22906 24.8892 -12.5504 20.4255 C.3 0.0 **** -0.106
22907 C22907 23.8131 -13.3002 19.6134 C.3 0.0 **** -0.053
22908 C22908 22.8205 -12.2786 19.0349 C.3 0.0 **** -0.053
22909 C22909 23.5795 -11.2991 18.1024 C.3 0.0 **** 0.054
22910 O22910 24.998 -11.3102 18.3037 O.3 0.0 **** -0.32
22911 C22911 22.0624 -11.5409 20.1587 C.3 0.0 **** -0.053
22912 C22912 21.7223 -12.4739 21.3559 C.3 0.0 **** 0.107
22913 C22913 21.688 -13.9289 20.9201 C.3 0.0 **** -0.106
22914 C22914 23.081 -14.3829 20.4468 C.3 0.0 **** -0.106
22915 O22915 20.4417 -12.164 21.927 O.3 0.0 **** -0.32
22916 C22916 20.2286 -10.7521 22.0942 C.3 0.0 **** 0.107
22917 C22917 19.9838 -10.139 20.7038 C.3 0.0 **** -0.053
22918 C22918 20.7699 -10.9337 19.6199 C.3 0.0 **** -0.106
22919 C22919 20.1903 -8.66183 20.6401 C.2 0.0 **** 0.0
22920 C22920 20.7298 -7.92275 21.6809 C.2 0.0 **** 0.0
22921 C22921 21.2644 -8.56046 22.8576 C.2 0.0 **** 0.0
22922 C22922 21.3346 -10.0699 22.9148 C.3 0.0 **** -0.053
22923 C22923 21.8712 -7.8316 23.8656 C.2 0.0 **** 0.0
22924 C22924 21.9305 -6.39152 23.7795 C.2 0.0 **** 0.0
22925 C22925 21.3556 -5.77688 22.6259 C.2 0.0 **** 0.232
22926 C22926 20.79 -6.47641 21.5962 C.2 0.0 **** 0.0
22927 C22927 20.2481 -5.76069 20.385 C.3 0.0 **** -0.106
22928 C22928 19.1664 -6.58183 19.6823 C.3 0.0 **** -0.106
22929 C22929 19.6948 -7.98846 19.3913 C.3 0.0 **** -0.106
22930 O22930 21.3904 -4.40165 22.4964 O.3 0.0 **** -0.464
22931 C22931 21.8598 -3.6142 23.5195 C.2 0.0 **** 0.232
22932 C22932 22.4812 -4.16453 24.6552 C.2 0.0 **** 0.0
22933 C22933 22.5445 -5.60293 24.7601 C.2 0.0 **** 0.0
22934 C22934 21.4314 -10.5826 24.3323 C.2 0.0 **** 0.0
22935 C22935 22.3474 -9.86079 25.2117 C.2 0.0 **** 0.0
22936 C22936 22.4924 -8.48523 25.0209 C.2 0.0 **** 0.0
22937 C22937 22.9 -10.6048 26.342 C.2 0.0 **** 0.0
22938 C22938 22.1802 -11.6404 26.8639 C.2 0.0 **** 0.0
22939 C22939 20.9188 -12.1175 26.2217 C.3 0.0 **** -0.106
22940 C22940 20.7429 -11.642 24.8129 C.2 0.0 **** -0.1268
22941 C22941 22.6813 -12.3496 28.0909 C.3 0.0 **** -0.106
22942 C22942 23.4711 -11.3827 28.9778 C.3 0.0 **** -0.106
22943 C22943 24.5376 -10.7004 28.1566 C.2 0.0 **** 0.0
22944 C22944 24.2561 -10.3492 26.8793 C.2 0.0 **** 0.0
22945 C22945 25.3245 -9.85426 25.9321 C.3 0.0 **** -0.106
22946 C22946 26.7441 -9.9509 26.5022 C.3 0.0 **** -0.053
22947 C22947 26.735 -9.49674 27.9661 C.3 0.0 **** -0.106
22948 C22948 25.8717 -10.4471 28.7955 C.3 0.0 **** -0.106
22949 C22949 23.1571 -6.27724 25.8679 C.2 0.0 **** -0.012
22950 C22950 23.1097 -7.64378 25.995 C.2 0.0 **** -0.1268
22951 C22951 22.9385 -3.24941 25.6376 C.2 0.0 **** 0.0
22952 C22952 23.6178 -3.71593 26.8196 C.2 0.0 **** -0.012
22953 S22953 24.0566 -5.39636 27.0832 S.2 0.0 **** 0.024
22954 C22954 24.0243 -2.83962 27.7932 C.2 0.0 **** -0.1268
22955 C22955 23.7891 -1.4445 27.6746 C.2 0.0 **** 0.0
22956 C22956 23.1474 -0.934243 26.5045 C.2 0.0 **** 0.0
22957 C22957 22.7332 -1.83265 25.4828 C.2 0.0 **** 0.0
22958 C22958 22.945 0.465432 26.3809 C.2 0.0 **** 0.0
22959 C22959 23.3457 1.34209 27.4354 C.2 0.0 **** 0.0
22960 C22960 23.9269 0.795048 28.6362 C.2 0.0 **** 0.0
22961 C22961 24.1745 -0.585049 28.6987 C.2 0.0 **** -0.1268
22962 C22962 24.2193 1.67591 29.7194 C.2 0.0 **** 0.0
22963 C22963 24.0928 3.04003 29.5368 C.2 0.0 **** 0.042
22964 C22964 23.6326 3.63755 28.3254 C.2 0.0 **** 0.0
22965 C22965 23.196 2.75428 27.2985 C.2 0.0 **** 0.0
22966 C22966 22.1019 -1.31934 24.2998 C.2 0.0 **** 0.0
22967 C22967 21.6773 -2.26056 23.3393 C.2 0.0 **** -0.1268
22968 C22968 22.3398 0.987196 25.1901 C.2 0.0 **** 0.0
22969 C22969 21.9184 0.108845 24.1473 C.2 0.0 **** 0.0
22970 C22970 22.614 3.27918 26.097 C.2 0.0 **** 0.0
22971 C22971 22.1796 2.40034 25.0707 C.2 0.0 **** 0.0
22972 C22972 23.5703 5.06354 28.1201 C.2 0.0 **** 0.0
22973 C22973 22.9421 5.56406 26.9408 C.2 0.0 **** 0.0
22974 C22974 22.4614 4.68204 25.9404 C.2 0.0 **** 0.0
22975 O22975 24.3481 3.83325 30.6347 O.3 0.0 **** -0.202
22976 C22976 25.6265 3.61286 31.295 C.3 0.0 **** 0.107
22977 C22977 25.9362 2.10268 31.448 C.3 0.0 **** -0.053
22978 C22978 24.6444 1.33066 31.1432 C.3 0.0 **** 0.107
22979 C22979 26.5419 1.79295 32.8223 C.3 0.0 **** -0.106
22980 C22980 27.5531 2.88781 33.1784 C.3 0.0 **** -0.106
22981 C22981 26.8228 4.19696 33.4928 C.3 0.0 **** 0.134
22982 C22982 25.5393 4.37778 32.6146 C.3 0.0 **** -0.053
22983 C22983 25.2839 5.87286 32.3612 C.3 0.0 **** -0.106
22984 C22984 25.6165 6.7135 33.5928 C.3 0.0 **** -0.106
22985 C22985 27.124 6.56597 33.9432 C.3 0.0 **** 0.081
22986 N22986 27.7404 5.33504 33.4254 N.3 0.0 **** -0.727
22987 C22987 21.3238 0.709371 22.9816 C.2 0.0 **** 0.042
22988 C22988 21.1239 2.07833 22.8916 C.2 0.0 **** 0.042
22989 C22989 21.5679 2.96206 23.9091 C.2 0.0 **** 0.0
22990 O22990 20.5109 2.67405 21.8136 O.3 0.0 **** -0.202
22991 C22991 19.7979 1.76802 20.944 C.3 0.0 **** 0.107
22992 C22992 20.7083 0.579667 20.6836 C.3 0.0 **** 0.107
22993 O22993 20.9446 -0.0982517 21.9329 O.3 0.0 **** -0.202
22994 C22994 22.0342 0.988085 20.0084 C.3 0.0 **** -0.106
22995 C22995 21.9025 2.27218 19.1611 C.3 0.0 **** -0.106
22996 C22996 20.4977 2.37934 18.5574 C.3 0.0 **** -0.106
22997 C22997 19.4326 2.52266 19.664 C.3 0.0 **** -0.106
22998 C22998 21.8472 5.22523 24.7638 C.2 0.0 **** 0.0
22999 C22999 21.4034 4.34845 23.774 C.2 0.0 **** -0.1268
23000 C23000 22.8143 6.97085 26.768 C.2 0.0 **** 0.0
23001 C23001 22.167 7.47665 25.5984 C.2 0.0 **** 0.042
23002 C23002 21.7007 6.64079 24.6219 C.2 0.0 **** -0.1268
23003 C23003 23.3267 7.86768 27.7174 C.2 0.0 **** 0.0
23004 C23004 24.0162 7.37153 28.8316 C.2 0.0 **** 0.0
23005 C23005 24.1236 6.00449 29.01 C.2 0.0 **** -0.1268
23006 O23006 22.0075 8.8428 25.4224 O.3 0.0 **** -0.0685
23007 C23007 22.4414 9.72994 26.3806 C.2 0.0 **** 0.0265
23008 C23008 23.1268 9.28349 27.5234 C.2 0.0 **** 0.0
23009 C23009 24.6836 8.28708 29.8233 C.3 0.0 **** -0.053
23010 C23010 24.1731 9.74599 29.781 C.3 0.0 **** -0.053
23011 C23011 23.5639 10.2019 28.4818 C.2 0.0 **** 0.0
23012 C23012 25.2742 10.746 30.1811 C.3 0.0 **** -0.053
23013 C23013 26.082 10.1873 31.3468 C.3 0.0 **** -0.106
23014 C23014 26.8842 8.94912 30.8742 C.3 0.0 **** -0.106
23015 C23015 26.2156 8.24464 29.6785 C.3 0.0 **** -0.106
23016 C23016 23.3298 11.5743 28.3071 C.2 0.0 **** 0.0
23017 C23017 22.579 12.0205 27.1828 C.2 0.0 **** 0.0
23018 C23018 22.1389 11.0913 26.1884 C.2 0.0 **** 0.0
23019 C23019 24.6645 12.1131 30.3283 C.2 0.0 **** 0.0
23020 C23020 23.7754 12.5194 29.2946 C.2 0.0 **** 0.0
23021 C23021 27.7515 -9.18446 25.6196 C.3 0.0 **** -0.053
23022 C23022 27.6228 -7.66209 25.76 C.3 0.0 **** -0.159
23023 C23023 29.1894 -9.62547 25.9122 C.3 0.0 **** -0.159
23024 O23024 24.8621 -0.0428638 31.4701 O.3 0.0 **** -0.57
23025 C23025 21.3938 11.5746 25.0636 C.2 0.0 **** -0.1268
23026 C23026 21.0753 12.8996 24.9534 C.2 0.0 **** -0.1268
23027 C23027 21.4615 13.8517 25.9543 C.2 0.0 **** 0.0
23028 C23028 22.2259 13.3946 27.076 C.2 0.0 **** 0.0
23029 C23029 22.6011 14.3109 28.0939 C.2 0.0 **** 0.0
23030 C23030 22.2225 15.6709 28.0011 C.2 0.0 **** 0.0
23031 C23031 21.463 16.1206 26.8731 C.2 0.0 **** 0.0
23032 C23032 21.1016 15.201 25.8754 C.2 0.0 **** -0.1268
23033 C23033 21.0893 17.498 26.797 C.2 0.0 **** -0.1268
23034 C23034 21.4463 18.3792 27.7831 C.2 0.0 **** -0.1268
23035 C23035 22.2059 17.9536 28.9154 C.2 0.0 **** 0.0
23036 C23036 22.599 16.593 29.0222 C.2 0.0 **** 0.0
23037 C23037 23.37 16.1587 30.1427 C.2 0.0 **** 0.0
23038 C23038 23.7588 14.7917 30.2276 C.2 0.0 **** 0.0
23039 C23039 23.375 13.8691 29.2129 C.2 0.0 **** 0.0
23040 C23040 23.7617 17.0836 31.1556 C.2 0.0 **** 0.0
23041 C23041 23.3301 18.4328 31.025 C.2 0.0 **** -0.1268
23042 C23042 22.5792 18.8467 29.9447 C.2 0.0 **** -0.1268
23043 C23043 24.995 12.9975 31.3305 C.2 0.0 **** -0.1268
23044 C23044 24.5249 14.337 31.336 C.2 0.0 **** 0.0
23045 C23045 24.5352 16.6055 32.2832 C.2 0.0 **** 0.052
23046 C23046 24.8472 15.2437 32.3931 C.2 0.0 **** 0.0
23047 C23047 25.5264 14.6829 33.6228 C.3 0.0 **** -0.106
23048 C23048 25.2857 15.5467 34.8548 C.3 0.0 **** -0.106
23049 C23049 25.745 16.9619 34.5459 C.3 0.0 **** -0.086
23050 C23050 25.1006 17.5483 33.296 C.2 0.0 **** 0.347
23051 O23051 25.1312 18.7715 33.1521 O.2 0.0 **** -0.419
23052 H23052 26.4037 -11.0988 19.753 H 0.0 **** 0.053
23053 H23053 24.8234 -10.3719 20.1515 H 0.0 **** 0.053
23054 H23054 25.7519 -13.2172 20.5764 H 0.0 **** 0.053
23055 H23055 24.499 -12.2987 21.4244 H 0.0 **** 0.053
23056 H23056 24.325 -13.7821 18.7677 H 0.0 **** 0.053
23057 H23057 22.0742 -12.8197 18.4295 H 0.0 **** 0.053
23058 H23058 23.1973 -10.268 18.2548 H 0.0 **** 0.053
23059 H23059 23.4404 -11.566 17.0454 H 0.0 **** 0.053
23060 H23060 22.7065 -10.7209 20.5146 H 0.0 **** 0.053
23061 H23061 22.4905 -12.3632 22.1455 H 0.0 **** 0.053
23062 H23062 20.9512 -14.03 20.107 H 0.0 **** 0.053
23063 H23063 21.3362 -14.5544 21.7531 H 0.0 **** 0.053
23064 H23064 22.9742 -15.3051 19.8563 H 0.0 **** 0.053
23065 H23065 23.7 -14.6414 21.3217 H 0.0 **** 0.053
23066 H23066 19.3028 -10.6785 22.6835 H 0.0 **** 0.053
23067 H23067 18.9155 -10.3074 20.4681 H 0.0 **** 0.053
23068 H23068 20.9855 -10.2876 18.7561 H 0.0 **** 0.053
23069 H23069 20.1387 -11.7589 19.2542 H 0.0 **** 0.053
23070 H23070 22.3108 -10.3058 22.4446 H 0.0 **** 0.053
23071 H23071 19.8675 -4.7706 20.6743 H 0.0 **** 0.053
23072 H23072 21.076 -5.57413 19.675 H 0.0 **** 0.053
23073 H23073 18.8511 -6.08388 18.7527 H 0.0 **** 0.053
23074 H23074 18.2828 -6.65777 20.3366 H 0.0 **** 0.053
23075 H23075 20.5134 -7.91615 18.6472 H 0.0 **** 0.053
23076 H23076 18.9171 -8.6141 18.9215 H 0.0 **** 0.053
23077 H23077 20.0437 -11.8049 26.8333 H 0.0 **** 0.053
23078 H23078 20.8861 -13.2237 26.2655 H 0.0 **** 0.053
23079 H23079 20.0392 -12.1825 24.1821 H 0.0 **** 0.1268
23080 H23080 21.8348 -12.7923 28.6397 H 0.0 **** 0.053
23081 H23081 23.3356 -13.1912 27.785 H 0.0 **** 0.053
23082 H23082 23.928 -11.9099 29.8297 H 0.0 **** 0.053
23083 H23083 22.7788 -10.6282 29.3986 H 0.0 **** 0.053
23084 H23084 25.2579 -10.4435 25.0 H 0.0 **** 0.053
23085 H23085 25.1234 -8.81674 25.6245 H 0.0 **** 0.053
23086 H23086 27.0414 -11.0162 26.4935 H 0.0 **** 0.053
23087 H23087 26.3125 -8.48033 28.0248 H 0.0 **** 0.053
23088 H23088 27.7571 -9.45127 28.3725 H 0.0 **** 0.053
23089 H23089 25.7091 -10.0439 29.8117 H 0.0 **** 0.053
23090 H23090 26.401 -11.4085 28.9442 H 0.0 **** 0.053
23091 H23091 23.5248 -8.10574 26.8905 H 0.0 **** 0.1268
23092 H23092 24.5316 -3.20517 28.6889 H 0.0 **** 0.1268
23093 H23093 24.7074 -1.00104 29.548 H 0.0 **** 0.1268
23094 H23094 21.1851 -1.94547 22.4309 H 0.0 **** 0.1268
23095 H23095 26.4002 4.0855 30.6613 H 0.0 **** 0.053
23096 H23096 26.6702 1.81621 30.678 H 0.0 **** 0.053
23097 H23097 23.8622 1.73629 31.8177 H 0.0 **** 0.053
23098 H23098 25.7448 1.75443 33.5845 H 0.0 **** 0.053
23099 H23099 27.0054 0.79854 32.8012 H 0.0 **** 0.053
23100 H23100 28.2299 3.04861 32.3198 H 0.0 **** 0.053
23101 H23101 28.1887 2.61141 34.0307 H 0.0 **** 0.053
23102 H23102 26.4825 4.14842 34.5413 H 0.0 **** 0.053
23103 H23103 24.6815 3.96053 33.1688 H 0.0 **** 0.053
23104 H23104 25.9252 6.20265 31.5258 H 0.0 **** 0.053
23105 H23105 24.2465 6.02806 32.0351 H 0.0 **** 0.053
23106 H23106 24.9947 6.37559 34.4372 H 0.0 **** 0.053
23107 H23107 25.3684 7.77262 33.4182 H 0.0 **** 0.053
23108 H23108 27.2533 6.58254 35.0386 H 0.0 **** 0.053
23109 H23109 27.6963 7.41568 33.5422 H 0.0 **** 0.053
23110 H23110 28.0334 5.47264 32.4573 H 0.0 **** 0.353
23111 H23111 18.898 1.42295 21.4799 H 0.0 **** 0.053
23112 H23112 20.1674 -0.159185 20.0753 H 0.0 **** 0.053
23113 H23113 22.7881 1.13095 20.7961 H 0.0 **** 0.053
23114 H23114 22.373 0.147173 19.3857 H 0.0 **** 0.053
23115 H23115 22.6667 2.27404 18.37 H 0.0 **** 0.053
23116 H23116 22.0863 3.15121 19.7964 H 0.0 **** 0.053
23117 H23117 20.2953 1.47356 17.9605 H 0.0 **** 0.053
23118 H23118 20.429 3.23191 17.8659 H 0.0 **** 0.053
23119 H23119 18.4567 2.16289 19.3051 H 0.0 **** 0.053
23120 H23120 19.3022 3.58004 19.9411 H 0.0 **** 0.053
23121 H23121 20.9266 4.74476 22.8788 H 0.0 **** 0.1268
23122 H23122 21.2207 7.04872 23.7317 H 0.0 **** 0.1268
23123 H23123 24.6458 5.64826 29.8839 H 0.0 **** 0.1268
23124 H23124 24.4664 7.89634 30.8291 H 0.0 **** 0.053
23125 H23125 23.3729 9.84106 30.5419 H 0.0 **** 0.053
23126 H23126 25.9582 10.8295 29.3125 H 0.0 **** 0.053
23127 H23127 25.3849 9.91355 32.157 H 0.0 **** 0.053
23128 H23128 26.768 10.9423 31.7565 H 0.0 **** 0.053
23129 H23129 26.9765 8.2385 31.7077 H 0.0 **** 0.053
23130 H23130 27.906 9.25079 30.597 H 0.0 **** 0.053
23131 H23131 26.5485 7.19807 29.6081 H 0.0 **** 0.053
23132 H23132 26.4971 8.72419 28.7276 H 0.0 **** 0.053
23133 H23133 27.5214 -9.45187 24.5721 H 0.0 **** 0.053
23134 H23134 28.2578 -7.1519 25.0202 H 0.0 **** 0.053
23135 H23135 27.9512 -7.33813 26.7597 H 0.0 **** 0.053
23136 H23136 26.5891 -7.31183 25.6185 H 0.0 **** 0.053
23137 H23137 29.3056 -10.7129 25.7809 H 0.0 **** 0.053
23138 H23138 29.4706 -9.37742 26.9481 H 0.0 **** 0.053
23139 H23139 29.9029 -9.11882 25.2447 H 0.0 **** 0.053
23140 H23140 24.0028 -0.489865 31.4259 H 0.0 **** 0.41
23141 H23141 21.0778 10.8626 24.3013 H 0.0 **** 0.1268
23142 H23142 20.5036 13.2581 24.0956 H 0.0 **** 0.1268
23143 H23143 20.5174 15.5481 25.0203 H 0.0 **** 0.1268
23144 H23144 20.5097 17.831 25.9341 H 0.0 **** 0.1268
23145 H23145 21.1518 19.4288 27.723 H 0.0 **** 0.1268
23146 H23146 23.6149 19.1435 31.7934 H 0.0 **** 0.1268
23147 H23147 22.2601 19.8889 29.8761 H 0.0 **** 0.1268
23148 H23148 25.671 12.6668 32.1144 H 0.0 **** 0.1268
23149 H23149 25.1566 13.6642 33.8053 H 0.0 **** 0.053
23150 H23150 26.6141 14.5926 33.4413 H 0.0 **** 0.053
23151 H23151 25.8175 15.1354 35.7262 H 0.0 **** 0.053
23152 H23152 24.2091 15.5445 35.0917 H 0.0 **** 0.053
23153 H23153 26.8356 16.9662 34.3634 H 0.0 **** 0.053
23154 H23154 25.5613 17.6711 35.3655 H 0.0 **** 0.053
23155 C23155 55.6366 64.1077 45.7048 C.3 0.0 **** 0.054
23156 C23156 56.8692 64.9966 45.4169 C.3 0.0 **** -0.106
23157 C23157 57.6397 65.2971 46.7192 C.3 0.0 **** -0.053
23158 C23158 56.6304 65.5768 47.8446 C.3 0.0 **** -0.053
23159 C23159 55.7364 64.3268 48.0525 C.3 0.0 **** 0.054
23160 O23160 55.7748 63.4134 46.9492 O.3 0.0 **** -0.32
23161 C23161 55.799 66.8421 47.5453 C.3 0.0 **** -0.053
23162 C23162 56.6412 67.9567 46.8613 C.3 0.0 **** 0.107
23163 C23163 58.1202 67.7852 47.1637 C.3 0.0 **** -0.106
23164 C23164 58.6439 66.4677 46.5635 C.3 0.0 **** -0.106
23165 O23165 56.258 69.2661 47.3095 O.3 0.0 **** -0.32
23166 C23166 54.8326 69.4434 47.3708 C.3 0.0 **** 0.107
23167 C23167 54.3055 68.6528 48.5815 C.3 0.0 **** -0.053
23168 C23168 55.1919 67.3972 48.8309 C.3 0.0 **** -0.106
23169 C23169 52.8422 68.3609 48.5332 C.2 0.0 **** 0.0
23170 C23170 52.0521 68.611 47.4226 C.2 0.0 **** 0.0
23171 C23171 52.6261 69.0458 46.1741 C.2 0.0 **** 0.0
23172 C23172 54.1299 69.1308 46.0401 C.3 0.0 **** -0.053
23173 C23173 51.8502 69.2248 45.0421 C.2 0.0 **** 0.0
23174 C23174 50.4212 69.0292 45.1082 C.2 0.0 **** 0.0
23175 C23175 49.8675 68.6412 46.366 C.2 0.0 **** 0.232
23176 C23176 50.6167 68.4152 47.4873 C.2 0.0 **** 0.0
23177 C23177 49.967 67.9576 48.7684 C.3 0.0 **** -0.106
23178 C23178 50.8012 68.3403 49.9913 C.3 0.0 **** -0.106
23179 C23179 52.2385 67.8465 49.8097 C.3 0.0 **** -0.106
23180 O23180 48.5053 68.4388 46.4789 O.3 0.0 **** -0.464
23181 C23181 47.6661 68.7258 45.4298 C.2 0.0 **** 0.232
23182 C23182 48.1581 69.0632 44.1559 C.2 0.0 **** 0.0
23183 C23183 49.5877 69.1806 43.9934 C.2 0.0 **** 0.0
23184 C23184 54.5509 70.0425 44.9118 C.2 0.0 **** 0.0
23185 C23185 53.7993 69.9071 43.6667 C.2 0.0 **** 0.0
23186 C23186 52.444 69.5822 43.7507 C.2 0.0 **** 0.0
23187 C23187 54.4829 70.3045 42.4374 C.2 0.0 **** 0.0
23188 C23188 55.461 71.2541 42.5051 C.2 0.0 **** 0.0
23189 C23189 55.943 71.7878 43.8143 C.3 0.0 **** -0.106
23190 C23190 55.5562 70.9429 44.9883 C.2 0.0 **** -0.1268
23191 C23191 56.1021 71.7521 41.2399 C.3 0.0 **** -0.106
23192 C23192 55.1019 71.6991 40.0814 C.3 0.0 **** -0.106
23193 C23193 54.5059 70.3157 39.9914 C.2 0.0 **** 0.0
23194 C23194 54.2315 69.6451 41.1355 C.2 0.0 **** 0.0
23195 C23195 53.8306 68.188 41.1319 C.3 0.0 **** -0.106
23196 C23196 53.9301 67.5265 39.7526 C.3 0.0 **** -0.053
23197 C23197 53.3807 68.4844 38.6897 C.3 0.0 **** -0.106
23198 C23198 54.2494 69.7407 38.6291 C.3 0.0 **** -0.106
23199 C23199 50.205 69.5139 42.7424 C.2 0.0 **** -0.012
23200 C23200 51.5583 69.7235 42.6401 C.2 0.0 **** -0.1268
23201 C23201 47.1939 69.3234 43.1489 C.2 0.0 **** 0.0
23202 C23202 47.6009 69.6436 41.8042 C.2 0.0 **** -0.012
23203 S23203 49.2723 69.6055 41.2647 S.2 0.0 **** 0.024
23204 C23204 46.6745 69.938 40.8367 C.2 0.0 **** -0.1268
23205 C23205 45.284 69.9413 41.1237 C.2 0.0 **** 0.0
23206 C23206 44.8336 69.5984 42.4355 C.2 0.0 **** 0.0
23207 C23207 45.785 69.279 43.4431 C.2 0.0 **** 0.0
23208 C23208 43.4399 69.5739 42.7042 C.2 0.0 **** 0.0
23209 C23209 42.5077 69.9269 41.6808 C.2 0.0 **** 0.0
23210 C23210 42.991 70.3373 40.3859 C.2 0.0 **** 0.0
23211 C23211 44.3705 70.2863 40.1325 C.2 0.0 **** -0.1268
23212 C23212 42.0496 70.7893 39.4142 C.2 0.0 **** 0.0
23213 C23213 40.6973 70.6714 39.6744 C.2 0.0 **** 0.042
23214 C23214 40.1678 70.161 40.8973 C.2 0.0 **** 0.0
23215 C23215 41.1038 69.8535 41.9242 C.2 0.0 **** 0.0
23216 C23216 45.3328 68.9196 44.7575 C.2 0.0 **** 0.0
23217 C23217 46.3225 68.6515 45.7257 C.2 0.0 **** -0.1268
23218 C23218 42.9804 69.1895 44.0071 C.2 0.0 **** 0.0
23219 C23219 43.913 68.8597 45.0358 C.2 0.0 **** 0.0
23220 C23220 40.6426 69.4446 43.2196 C.2 0.0 **** 0.0
23221 C23221 41.5742 69.1356 44.2448 C.2 0.0 **** 0.0
23222 C23222 38.7572 69.9763 41.133 C.2 0.0 **** 0.0
23223 C23223 38.3175 69.618 42.4423 C.2 0.0 **** 0.0
23224 C23224 39.2493 69.3608 43.4793 C.2 0.0 **** 0.0
23225 O23225 39.8413 71.1664 38.7143 O.3 0.0 **** -0.202
23226 C23226 40.0543 70.6779 37.3597 C.3 0.0 **** 0.107
23227 C23227 41.5594 70.6501 36.9938 C.3 0.0 **** -0.053
23228 C23228 42.3125 71.4515 38.0654 C.3 0.0 **** 0.107
23229 C23229 41.7953 71.1433 35.5611 C.3 0.0 **** -0.106
23230 C23230 40.7088 70.5626 34.65 C.3 0.0 **** -0.106
23231 C23231 39.3615 71.2277 34.9472 C.3 0.0 **** 0.134
23232 C23232 39.2021 71.5765 36.4651 C.3 0.0 **** -0.053
23233 C23233 37.7202 71.498 36.8683 C.3 0.0 **** -0.106
23234 C23234 36.8103 72.0222 35.7586 C.3 0.0 **** -0.106
23235 C23235 36.9776 71.1519 34.4813 C.3 0.0 **** 0.081
23236 N23236 38.257 70.4296 34.4133 N.3 0.0 **** -0.727
23237 C23237 43.3736 68.4792 46.3153 C.2 0.0 **** 0.042
23238 C23238 42.0084 68.4772 46.5566 C.2 0.0 **** 0.042
23239 C23239 41.0728 68.7728 45.5317 C.2 0.0 **** 0.0
23240 O23240 41.4675 68.1693 47.7836 O.3 0.0 **** -0.202
23241 C23241 42.408 68.1731 48.8795 C.3 0.0 **** 0.107
23242 C23242 43.6364 67.403 48.4247 C.3 0.0 **** 0.107
23243 O23243 44.2373 68.1097 47.3221 O.3 0.0 **** -0.202
23244 C23244 43.3114 65.9435 48.0442 C.3 0.0 **** -0.106
23245 C23245 42.0825 65.3892 48.7971 C.3 0.0 **** -0.106
23246 C23246 41.9751 66.0166 50.1915 C.3 0.0 **** -0.106
23247 C23247 41.729 67.5362 50.0939 C.3 0.0 **** -0.106
23248 C23248 38.7672 68.9912 44.7785 C.2 0.0 **** 0.0
23249 C23249 39.6941 68.7134 45.783 C.2 0.0 **** -0.1268
23250 C23250 36.922 69.5047 42.6974 C.2 0.0 **** 0.0
23251 C23251 36.4759 69.1667 44.0124 C.2 0.0 **** 0.042
23252 C23252 37.3605 68.9119 45.0236 C.2 0.0 **** -0.1268
23253 C23253 35.9798 69.7034 41.6771 C.2 0.0 **** 0.0
23254 C23254 36.4211 69.9725 40.375 C.2 0.0 **** 0.0
23255 C23255 37.776 70.1019 40.1305 C.2 0.0 **** -0.1268
23256 O23256 35.1203 69.0775 44.2901 O.3 0.0 **** -0.0685
23257 C23257 34.1848 69.3407 43.3158 C.2 0.0 **** 0.0265
23258 C23258 34.5746 69.6287 41.9967 C.2 0.0 **** 0.0
23259 C23259 35.4618 70.0836 39.2197 C.3 0.0 **** -0.053
23260 C23260 33.9949 70.3374 39.6373 C.3 0.0 **** -0.053
23261 C23261 33.6081 69.8876 41.0211 C.2 0.0 **** 0.0
23262 C23262 33.0026 69.7259 38.6303 C.3 0.0 **** -0.053
23263 C23263 33.5064 69.9462 37.2086 C.3 0.0 **** -0.106
23264 C23264 34.7954 69.1172 36.982 C.3 0.0 **** -0.106
23265 C23265 35.5575 68.8565 38.2951 C.3 0.0 **** -0.106
23266 C23266 32.2441 69.854 41.3482 C.2 0.0 **** 0.0
23267 C23267 31.8514 69.6267 42.6976 C.2 0.0 **** 0.0
23268 C23268 32.831 69.3466 43.7015 C.2 0.0 **** 0.0
23269 C23269 31.6119 70.1861 38.9718 C.2 0.0 **** 0.0
23270 C23270 31.2491 70.1244 40.3461 C.2 0.0 **** 0.0
23271 C23271 53.2525 66.1402 39.7502 C.3 0.0 **** -0.053
23272 C23272 51.7211 66.2299 39.7778 C.3 0.0 **** -0.159
23273 C23273 53.7142 65.3018 38.5538 C.3 0.0 **** -0.159
23274 O23274 43.6672 71.5994 37.6367 O.3 0.0 **** -0.57
23275 C23275 32.4015 69.1123 45.0487 C.2 0.0 **** -0.1268
23276 C23276 31.078 69.1875 45.3833 C.2 0.0 **** -0.1268
23277 C23277 30.0737 69.5103 44.4116 C.2 0.0 **** 0.0
23278 C23278 30.4778 69.7264 43.0545 C.2 0.0 **** 0.0
23279 C23279 29.5076 70.0712 42.0764 C.2 0.0 **** 0.0
23280 C23280 28.1464 70.2 42.4397 C.2 0.0 **** 0.0
23281 C23281 27.7503 69.9765 43.7979 C.2 0.0 **** 0.0
23282 C23282 28.7227 69.6353 44.7516 C.2 0.0 **** -0.1268
23283 C23283 26.3707 70.1118 44.146 C.2 0.0 **** -0.1268
23284 C23284 25.4372 70.4509 43.2028 C.2 0.0 **** -0.1268
23285 C23285 25.809 70.6757 41.8421 C.2 0.0 **** 0.0
23286 C23286 27.1704 70.5455 41.4587 C.2 0.0 **** 0.0
23287 C23287 27.5519 70.7545 40.0988 C.2 0.0 **** 0.0
23288 C23288 28.9209 70.6133 39.7342 C.2 0.0 **** 0.0
23289 C23289 29.8969 70.2776 40.7155 C.2 0.0 **** 0.0
23290 C23290 26.574 71.0832 39.1136 C.2 0.0 **** 0.0
23291 C23291 25.2245 71.2266 39.5401 C.2 0.0 **** -0.1268
23292 C23292 24.8613 71.031 40.8563 C.2 0.0 **** -0.1268
23293 C23293 30.6734 70.5554 38.0344 C.2 0.0 **** -0.1268
23294 C23294 29.3235 70.8192 38.386 C.2 0.0 **** 0.0
23295 C23295 26.9989 71.298 37.7455 C.2 0.0 **** 0.052
23296 C23296 28.3589 71.2299 37.4143 C.2 0.0 **** 0.0
23297 C23297 28.8568 71.5882 36.0317 C.3 0.0 **** -0.106
23298 C23298 27.9075 72.5352 35.308 C.3 0.0 **** -0.106
23299 C23299 26.5293 71.8961 35.2692 C.3 0.0 **** -0.086
23300 C23300 26.0081 71.4968 36.6441 C.2 0.0 **** 0.347
23301 O23301 24.7984 71.2978 36.7659 O.2 0.0 **** -0.419
23302 H23302 55.5089 63.3312 44.9383 H 0.0 **** 0.053
23303 H23303 54.7124 64.7192 45.728 H 0.0 **** 0.053
23304 H23304 57.5491 64.5033 44.7055 H 0.0 **** 0.053
23305 H23305 56.5414 65.9379 44.9482 H 0.0 **** 0.053
23306 H23306 58.1906 64.3835 46.986 H 0.0 **** 0.053
23307 H23307 57.1885 65.7584 48.7783 H 0.0 **** 0.053
23308 H23308 54.687 64.6441 48.2272 H 0.0 **** 0.053
23309 H23309 56.0681 63.7388 48.9197 H 0.0 **** 0.053
23310 H23310 54.9762 66.5508 46.873 H 0.0 **** 0.053
23311 H23311 56.5009 67.9105 45.764 H 0.0 **** 0.053
23312 H23312 58.2533 67.7918 48.2576 H 0.0 **** 0.053
23313 H23313 58.6792 68.6443 46.7661 H 0.0 **** 0.053
23314 H23314 59.5995 66.2112 47.0448 H 0.0 **** 0.053
23315 H23315 58.862 66.613 45.4926 H 0.0 **** 0.053
23316 H23316 54.694 70.5181 47.5599 H 0.0 **** 0.053
23317 H23317 54.4584 69.2958 49.4694 H 0.0 **** 0.053
23318 H23318 54.6103 66.6167 49.3436 H 0.0 **** 0.053
23319 H23319 56.021 67.6728 49.5015 H 0.0 **** 0.053
23320 H23320 54.4239 68.1093 45.7243 H 0.0 **** 0.053
23321 H23321 48.9495 68.3682 48.8396 H 0.0 **** 0.053
23322 H23322 49.8512 66.8575 48.742 H 0.0 **** 0.053
23323 H23323 50.3566 67.9181 50.9054 H 0.0 **** 0.053
23324 H23324 50.8087 69.437 50.0996 H 0.0 **** 0.053
23325 H23325 52.2387 66.738 49.8115 H 0.0 **** 0.053
23326 H23326 52.8711 68.1477 50.6617 H 0.0 **** 0.053
23327 H23327 55.566 72.8243 43.9598 H 0.0 **** 0.053
23328 H23328 57.0425 71.9136 43.7714 H 0.0 **** 0.053
23329 H23329 56.1167 71.0759 45.9122 H 0.0 **** 0.1268
23330 H23330 56.4834 72.7747 41.3904 H 0.0 **** 0.053
23331 H23331 56.9803 71.1183 41.0013 H 0.0 **** 0.053
23332 H23332 55.5849 71.9665 39.1286 H 0.0 **** 0.053
23333 H23333 54.3019 72.4437 40.2581 H 0.0 **** 0.053
23334 H23334 54.4777 67.6512 41.8485 H 0.0 **** 0.053
23335 H23335 52.8102 68.0628 41.525 H 0.0 **** 0.053
23336 H23336 55.0018 67.3705 39.5278 H 0.0 **** 0.053
23337 H23337 52.3509 68.7698 38.9604 H 0.0 **** 0.053
23338 H23338 53.3378 67.998 37.7031 H 0.0 **** 0.053
23339 H23339 53.7757 70.5155 37.9989 H 0.0 **** 0.053
23340 H23340 55.2137 69.5118 38.1348 H 0.0 **** 0.053
23341 H23341 51.9721 70.0467 41.6851 H 0.0 **** 0.1268
23342 H23342 46.9948 70.1869 39.8224 H 0.0 **** 0.1268
23343 H23343 44.7449 70.4885 39.1338 H 0.0 **** 0.1268
23344 H23344 46.0539 68.3862 46.7376 H 0.0 **** 0.1268
23345 H23345 39.6466 69.6503 37.3218 H 0.0 **** 0.053
23346 H23346 41.9167 69.6101 37.061 H 0.0 **** 0.053
23347 H23347 41.8412 72.4554 38.1046 H 0.0 **** 0.053
23348 H23348 41.7608 72.2459 35.5325 H 0.0 **** 0.053
23349 H23349 42.8018 70.8513 35.2357 H 0.0 **** 0.053
23350 H23350 40.6242 69.4763 34.8343 H 0.0 **** 0.053
23351 H23351 40.9466 70.6817 33.584 H 0.0 **** 0.053
23352 H23352 39.3312 72.1851 34.3993 H 0.0 **** 0.053
23353 H23353 39.5573 72.6095 36.62 H 0.0 **** 0.053
23354 H23354 37.4645 70.4424 37.0644 H 0.0 **** 0.053
23355 H23355 37.5572 72.0364 37.8118 H 0.0 **** 0.053
23356 H23356 37.0741 73.0699 35.5425 H 0.0 **** 0.053
23357 H23357 35.7583 72.0195 36.0857 H 0.0 **** 0.053
23358 H23358 36.8927 71.7892 33.5848 H 0.0 **** 0.053
23359 H23359 36.1728 70.4046 34.4179 H 0.0 **** 0.053
23360 H23360 38.1917 69.5553 34.9361 H 0.0 **** 0.353
23361 H23361 42.6912 69.2201 49.0783 H 0.0 **** 0.053
23362 H23362 44.3979 67.4437 49.2165 H 0.0 **** 0.053
23363 H23363 43.1386 65.9045 46.9589 H 0.0 **** 0.053
23364 H23364 44.2007 65.3307 48.252 H 0.0 **** 0.053
23365 H23365 42.1545 64.294 48.8681 H 0.0 **** 0.053
23366 H23366 41.1692 65.6216 48.2296 H 0.0 **** 0.053
23367 H23367 42.912 65.8255 50.7424 H 0.0 **** 0.053
23368 H23368 41.1682 65.5483 50.7741 H 0.0 **** 0.053
23369 H23369 42.0835 68.0409 51.005 H 0.0 **** 0.053
23370 H23370 40.6524 67.7492 50.0078 H 0.0 **** 0.053
23371 H23371 39.344 68.4403 46.7773 H 0.0 **** 0.1268
23372 H23372 36.9983 68.6437 46.0167 H 0.0 **** 0.1268
23373 H23373 38.0888 70.3247 39.1226 H 0.0 **** 0.1268
23374 H23374 35.7793 70.9437 38.6106 H 0.0 **** 0.053
23375 H23375 33.8272 71.4328 39.6156 H 0.0 **** 0.053
23376 H23376 32.996 68.6327 38.8149 H 0.0 **** 0.053
23377 H23377 33.7062 71.0224 37.0703 H 0.0 **** 0.053
23378 H23378 32.746 69.6641 36.4665 H 0.0 **** 0.053
23379 H23379 35.452 69.6539 36.2827 H 0.0 **** 0.053
23380 H23380 34.5419 68.1562 36.5086 H 0.0 **** 0.053
23381 H23381 36.6155 68.6316 38.0924 H 0.0 **** 0.053
23382 H23382 35.1497 67.9799 38.823 H 0.0 **** 0.053
23383 H23383 53.5814 65.626 40.6717 H 0.0 **** 0.053
23384 H23384 51.279 65.2314 39.9127 H 0.0 **** 0.053
23385 H23385 51.3417 66.6358 38.8273 H 0.0 **** 0.053
23386 H23386 51.3515 66.8767 40.588 H 0.0 **** 0.053
23387 H23387 54.8108 65.199 38.5407 H 0.0 **** 0.053
23388 H23388 53.4068 65.7718 37.606 H 0.0 **** 0.053
23389 H23389 53.2732 64.2938 38.5824 H 0.0 **** 0.053
23390 H23390 44.0914 72.2343 38.2342 H 0.0 **** 0.41
23391 H23391 33.1528 68.8818 45.8038 H 0.0 **** 0.1268
23392 H23392 30.7606 69.012 46.4127 H 0.0 **** 0.1268
23393 H23393 28.416 69.4717 45.7871 H 0.0 **** 0.1268
23394 H23394 26.0787 69.9406 45.1838 H 0.0 **** 0.1268
23395 H23395 24.3858 70.5599 43.4762 H 0.0 **** 0.1268
23396 H23396 24.4733 71.4844 38.8013 H 0.0 **** 0.1268
23397 H23397 23.8171 71.1529 41.1522 H 0.0 **** 0.1268
23398 H23398 30.9711 70.6024 36.9904 H 0.0 **** 0.1268
23399 H23399 29.8504 72.0505 36.1154 H 0.0 **** 0.053
23400 H23400 28.9899 70.6681 35.4316 H 0.0 **** 0.053
23401 H23401 28.2756 72.7527 34.2939 H 0.0 **** 0.053
23402 H23402 27.8633 73.4901 35.8569 H 0.0 **** 0.053
23403 H23403 26.5682 70.9671 34.6707 H 0.0 **** 0.053
23404 H23404 25.7629 72.5348 34.8076 H 0.0 **** 0.053
23405 C23405 66.9921 28.631 29.1247 C.3 0.0 **** 0.054
23406 C23406 67.348 28.1545 27.6969 C.3 0.0 **** -0.106
23407 C23407 68.1366 29.2433 26.9403 C.3 0.0 **** -0.053
23408 C23408 67.5192 30.6163 27.2524 C.3 0.0 **** -0.053
23409 C23409 67.6081 30.8826 28.7776 C.3 0.0 **** 0.054
23410 O23410 67.8491 29.6977 29.5461 O.3 0.0 **** -0.32
23411 C23411 66.0696 30.7066 26.7305 C.3 0.0 **** -0.053
23412 C23412 65.8838 29.9798 25.3678 C.3 0.0 **** 0.107
23413 C23413 67.2045 29.8683 24.6253 C.3 0.0 **** -0.106
23414 C23414 68.1928 28.9884 25.4123 C.3 0.0 **** -0.106
23415 O23415 64.965 30.677 24.5122 O.3 0.0 **** -0.32
23416 C23416 63.7852 31.124 25.2014 C.3 0.0 **** 0.107
23417 C23417 64.1765 32.3165 26.0924 C.3 0.0 **** -0.053
23418 C23418 65.6487 32.1655 26.5764 C.3 0.0 **** -0.106
23419 C23419 63.2057 32.6075 27.1885 C.2 0.0 **** 0.0
23420 C23420 62.1403 31.7785 27.5021 C.2 0.0 **** 0.0
23421 C23421 61.9785 30.4918 26.8732 C.2 0.0 **** 0.0
23422 C23422 63.0475 29.9891 25.9293 C.3 0.0 **** -0.053
23423 C23423 60.9588 29.6296 27.237 C.2 0.0 **** 0.0
23424 C23424 59.9915 30.0339 28.2298 C.2 0.0 **** 0.0
23425 C23425 60.1448 31.3303 28.8084 C.2 0.0 **** 0.232
23426 C23426 61.1678 32.1831 28.4987 C.2 0.0 **** 0.0
23427 C23427 61.2938 33.5175 29.1889 C.3 0.0 **** -0.106
23428 C23428 62.0618 34.5246 28.3323 C.3 0.0 **** -0.106
23429 C23429 63.3983 33.9183 27.8978 C.3 0.0 **** -0.106
23430 O23430 59.2459 31.7614 29.7652 O.3 0.0 **** -0.464
23431 C23431 58.1391 31.0088 30.0749 C.2 0.0 **** 0.232
23432 C23432 57.9629 29.7062 29.574 C.2 0.0 **** 0.0
23433 C23433 58.9483 29.1993 28.6488 C.2 0.0 **** 0.0
23434 C23434 62.5285 28.9185 24.9988 C.2 0.0 **** 0.0
23435 C23435 61.6759 27.901 25.6079 C.2 0.0 **** 0.0
23436 C23436 60.8444 28.2868 26.6612 C.2 0.0 **** 0.0
23437 C23437 61.6251 26.5997 24.9442 C.2 0.0 **** 0.0
23438 C23438 61.8513 26.5368 23.5996 C.2 0.0 **** 0.0
23439 C23439 62.2863 27.7365 22.8233 C.3 0.0 **** -0.106
23440 C23440 62.8064 28.8507 23.6776 C.2 0.0 **** -0.1268
23441 C23441 61.7 25.2252 22.8812 C.3 0.0 **** -0.106
23442 C23442 60.6335 24.3649 23.5653 C.3 0.0 **** -0.106
23443 C23443 60.9435 24.2523 25.0378 C.2 0.0 **** 0.0
23444 C23444 61.4414 25.3316 25.6867 C.2 0.0 **** 0.0
23445 C23445 61.9682 25.2422 27.1004 C.3 0.0 **** -0.106
23446 C23446 62.0334 23.8099 27.6425 C.3 0.0 **** -0.053
23447 C23447 60.7606 23.0566 27.2403 C.3 0.0 **** -0.106
23448 C23448 60.6904 22.9386 25.7179 C.3 0.0 **** -0.106
23449 C23449 58.8772 27.8859 28.0767 C.2 0.0 **** -0.012
23450 C23450 59.7681 27.4682 27.1188 C.2 0.0 **** -0.1268
23451 C23451 56.7873 29.0224 29.9766 C.2 0.0 **** 0.0
23452 C23452 56.5357 27.6715 29.5429 C.2 0.0 **** -0.012
23453 S23453 57.6892 26.7215 28.6196 S.2 0.0 **** 0.024
23454 C23454 55.3807 27.0204 29.8938 C.2 0.0 **** -0.1268
23455 C23455 54.3914 27.6521 30.6925 C.2 0.0 **** 0.0
23456 C23456 54.6135 28.9797 31.1716 C.2 0.0 **** 0.0
23457 C23457 55.8134 29.6596 30.8244 C.2 0.0 **** 0.0
23458 C23458 53.6325 29.5912 31.9956 C.2 0.0 **** 0.0
23459 C23459 52.4237 28.8955 32.3052 C.2 0.0 **** 0.0
23460 C23460 52.1929 27.5845 31.7514 C.2 0.0 **** 0.0
23461 C23461 53.2107 26.9815 30.996 C.2 0.0 **** -0.1268
23462 C23462 50.9349 26.9535 31.9838 C.2 0.0 **** 0.0
23463 C23463 50.037 27.5341 32.8595 C.2 0.0 **** 0.042
23464 C23464 50.2691 28.775 33.5246 C.2 0.0 **** 0.0
23465 C23465 51.4558 29.479 33.1759 C.2 0.0 **** 0.0
23466 C23466 56.0443 30.988 31.3178 C.2 0.0 **** 0.0
23467 C23467 57.233 31.627 30.9085 C.2 0.0 **** -0.1268
23468 C23468 53.869 30.9071 32.514 C.2 0.0 **** 0.0
23469 C23469 55.0663 31.6107 32.1852 C.2 0.0 **** 0.0
23470 C23470 51.7028 30.7851 33.7155 C.2 0.0 **** 0.0
23471 C23471 52.8864 31.4883 33.3706 C.2 0.0 **** 0.0
23472 C23472 49.3577 29.3385 34.4897 C.2 0.0 **** 0.0
23473 C23473 49.5961 30.6589 34.975 C.2 0.0 **** 0.0
23474 C23474 50.7535 31.3801 34.5876 C.2 0.0 **** 0.0
23475 O23475 48.8231 26.898 33.0065 O.3 0.0 **** -0.202
23476 C23476 48.8834 25.4825 33.3411 C.3 0.0 **** 0.107
23477 C23477 49.9525 24.7427 32.4987 C.3 0.0 **** -0.053
23478 C23478 50.3751 25.6799 31.3581 C.3 0.0 **** 0.107
23479 C23479 49.4451 23.3738 32.0295 C.3 0.0 **** -0.106
23480 C23480 48.6851 22.7043 33.1794 C.3 0.0 **** -0.106
23481 C23481 47.3522 23.4205 33.4171 C.3 0.0 **** 0.134
23482 C23482 47.4595 24.9605 33.1563 C.3 0.0 **** -0.053
23483 C23483 46.4799 25.7163 34.0693 C.3 0.0 **** -0.106
23484 C23484 45.1655 24.9545 34.2314 C.3 0.0 **** -0.106
23485 C23485 45.4315 23.5755 34.8979 C.3 0.0 **** 0.081
23486 N23486 46.8099 23.0888 34.7353 N.3 0.0 **** -0.727
23487 C23487 55.2324 32.9253 32.7484 C.2 0.0 **** 0.042
23488 C23488 54.2526 33.5061 33.5388 C.2 0.0 **** 0.042
23489 C23489 53.0736 32.8024 33.8969 C.2 0.0 **** 0.0
23490 O23490 54.3611 34.7802 34.0466 O.3 0.0 **** -0.202
23491 C23491 55.3921 35.5893 33.4403 C.3 0.0 **** 0.107
23492 C23492 56.6492 34.7391 33.3646 C.3 0.0 **** 0.107
23493 O23493 56.3933 33.6204 32.4932 O.3 0.0 **** -0.202
23494 C23494 57.1289 34.2689 34.7537 C.3 0.0 **** -0.106
23495 C23495 56.7156 35.2332 35.8865 C.3 0.0 **** -0.106
23496 C23496 56.6681 36.6776 35.3759 C.3 0.0 **** -0.106
23497 C23497 55.5795 36.8441 34.2957 C.3 0.0 **** -0.106
23498 C23498 50.9631 32.7002 35.1075 C.2 0.0 **** 0.0
23499 C23499 52.1193 33.3889 34.7411 C.2 0.0 **** -0.1268
23500 C23500 48.6609 31.2463 35.8725 C.2 0.0 **** 0.0
23501 C23501 48.8844 32.5765 36.345 C.2 0.0 **** 0.042
23502 C23502 49.9968 33.2853 35.9846 C.2 0.0 **** -0.1268
23503 C23503 47.5337 30.5362 36.3127 C.2 0.0 **** 0.0
23504 C23504 47.3498 29.2107 35.8981 C.2 0.0 **** 0.0
23505 C23505 48.2476 28.646 35.0109 C.2 0.0 **** -0.1268
23506 O23506 47.9723 33.1784 37.1986 O.3 0.0 **** -0.0685
23507 C23507 46.8265 32.519 37.5804 C.2 0.0 **** 0.0265
23508 C23508 46.5872 31.1928 37.1816 C.2 0.0 **** 0.0
23509 C23509 46.2216 28.3644 36.4254 C.3 0.0 **** -0.053
23510 C23510 45.0667 29.1733 37.0602 C.3 0.0 **** -0.053
23511 C23511 45.4195 30.5396 37.5851 C.2 0.0 **** 0.0
23512 C23512 44.3697 28.3838 38.1843 C.3 0.0 **** -0.053
23513 C23513 44.2279 26.9214 37.7783 C.3 0.0 **** -0.106
23514 C23514 45.6299 26.2666 37.7039 C.3 0.0 **** -0.106
23515 C23515 46.7371 27.2952 37.4057 C.3 0.0 **** -0.106
23516 C23516 44.4831 31.1982 38.3963 C.2 0.0 **** 0.0
23517 C23517 44.6938 32.562 38.7462 C.2 0.0 **** 0.0
23518 C23518 45.8917 33.2363 38.3509 C.2 0.0 **** 0.0
23519 C23519 43.1336 29.127 38.6111 C.2 0.0 **** 0.0
23520 C23520 43.2795 30.5283 38.8084 C.2 0.0 **** 0.0
23521 C23521 62.3072 23.8017 29.1611 C.3 0.0 **** -0.053
23522 C23522 61.0866 24.2322 29.9849 C.3 0.0 **** -0.159
23523 C23523 62.8042 22.4287 29.6253 C.3 0.0 **** -0.159
23524 O23524 51.21 24.9412 30.4648 O.3 0.0 **** -0.57
23525 C23525 46.0776 34.6064 38.7281 C.2 0.0 **** -0.1268
23526 C23526 45.1121 35.2759 39.4272 C.2 0.0 **** -0.1268
23527 C23527 43.8798 34.6443 39.8011 C.2 0.0 **** 0.0
23528 C23528 43.682 33.2689 39.4538 C.2 0.0 **** 0.0
23529 C23529 42.4616 32.6253 39.7901 C.2 0.0 **** 0.0
23530 C23530 41.4443 33.3389 40.4666 C.2 0.0 **** 0.0
23531 C23531 41.6529 34.7125 40.815 C.2 0.0 **** 0.0
23532 C23532 42.8661 35.3325 40.4757 C.2 0.0 **** -0.1268
23533 C23533 40.6135 35.417 41.4978 C.2 0.0 **** -0.1268
23534 C23534 39.4344 34.7967 41.8155 C.2 0.0 **** -0.1268
23535 C23535 39.2058 33.4271 41.4804 C.2 0.0 **** 0.0
23536 C23536 40.2182 32.6941 40.8058 C.2 0.0 **** 0.0
23537 C23537 40.0064 31.3208 40.4777 C.2 0.0 **** 0.0
23538 C23538 41.0363 30.6023 39.8068 C.2 0.0 **** 0.0
23539 C23539 42.2569 31.2487 39.4596 C.2 0.0 **** 0.0
23540 C23540 38.7872 30.6703 40.8319 C.2 0.0 **** 0.0
23541 C23541 37.7886 31.4433 41.4867 C.2 0.0 **** -0.1268
23542 C23542 37.9944 32.7718 41.7953 C.2 0.0 **** -0.1268
23543 C23543 41.935 28.5175 38.9071 C.2 0.0 **** -0.1268
23544 C23544 40.8458 29.2344 39.4683 C.2 0.0 **** 0.0
23545 C23545 38.603 29.2787 40.4741 C.2 0.0 **** 0.052
23546 C23546 39.5935 28.6041 39.7477 C.2 0.0 **** 0.0
23547 C23547 39.3791 27.1985 39.2317 C.3 0.0 **** -0.106
23548 C23548 37.9012 26.8714 39.0566 C.3 0.0 **** -0.106
23549 C23549 37.1976 27.1046 40.3831 C.3 0.0 **** -0.086
23550 C23550 37.4155 28.5035 40.9463 C.2 0.0 **** 0.347
23551 O23551 36.6344 28.9044 41.8106 O.2 0.0 **** -0.419
23552 H23552 67.1223 27.829 29.864 H 0.0 **** 0.053
23553 H23553 65.9376 28.9693 29.1707 H 0.0 **** 0.053
23554 H23554 67.952 27.2348 27.7311 H 0.0 **** 0.053
23555 H23555 66.4233 27.9115 27.1499 H 0.0 **** 0.053
23556 H23556 69.1597 29.2393 27.3437 H 0.0 **** 0.053
23557 H23557 68.1084 31.3911 26.734 H 0.0 **** 0.053
23558 H23558 66.669 31.36 29.1277 H 0.0 **** 0.053
23559 H23559 68.446 31.5521 29.0174 H 0.0 **** 0.053
23560 H23560 65.414 30.2358 27.4804 H 0.0 **** 0.053
23561 H23561 65.4916 28.9588 25.5396 H 0.0 **** 0.053
23562 H23562 67.6129 30.8828 24.4899 H 0.0 **** 0.053
23563 H23563 67.0287 29.4554 23.6216 H 0.0 **** 0.053
23564 H23564 69.2107 29.1713 25.0367 H 0.0 **** 0.053
23565 H23565 67.9737 27.9256 25.2178 H 0.0 **** 0.053
23566 H23566 63.1157 31.4799 24.4045 H 0.0 **** 0.053
23567 H23567 64.1767 33.2111 25.4405 H 0.0 **** 0.053
23568 H23568 65.7947 32.7046 27.5242 H 0.0 **** 0.053
23569 H23569 66.3177 32.6311 25.8357 H 0.0 **** 0.053
23570 H23570 63.7701 29.4789 26.5981 H 0.0 **** 0.053
23571 H23571 60.2964 33.8997 29.4498 H 0.0 **** 0.053
23572 H23572 61.8285 33.3794 30.1478 H 0.0 **** 0.053
23573 H23573 62.2213 35.4595 28.891 H 0.0 **** 0.053
23574 H23574 61.4691 34.7685 27.4357 H 0.0 **** 0.053
23575 H23575 64.0349 33.7764 28.7942 H 0.0 **** 0.053
23576 H23576 63.9531 34.6113 27.2429 H 0.0 **** 0.053
23577 H23577 61.4433 28.1068 22.1991 H 0.0 **** 0.053
23578 H23578 63.0471 27.4298 22.079 H 0.0 **** 0.053
23579 H23579 63.4225 29.6092 23.1976 H 0.0 **** 0.1268
23580 H23580 61.449 25.4041 21.8234 H 0.0 **** 0.053
23581 H23581 62.6709 24.6894 22.8903 H 0.0 **** 0.053
23582 H23582 60.5815 23.3631 23.1112 H 0.0 **** 0.053
23583 H23583 59.6416 24.8357 23.4237 H 0.0 **** 0.053
23584 H23584 62.9764 25.6932 27.1211 H 0.0 **** 0.053
23585 H23585 61.3671 25.8641 27.7811 H 0.0 **** 0.053
23586 H23586 62.8829 23.2996 27.1512 H 0.0 **** 0.053
23587 H23587 59.8821 23.6168 27.6003 H 0.0 **** 0.053
23588 H23588 60.7273 22.0596 27.7057 H 0.0 **** 0.053
23589 H23589 59.7034 22.5568 25.3988 H 0.0 **** 0.053
23590 H23590 61.4228 22.1884 25.3613 H 0.0 **** 0.053
23591 H23591 59.6302 26.4893 26.6602 H 0.0 **** 0.1268
23592 H23592 55.1968 25.999 29.5529 H 0.0 **** 0.1268
23593 H23593 53.0995 25.9551 30.6605 H 0.0 **** 0.1268
23594 H23594 57.4653 32.6308 31.2324 H 0.0 **** 0.1268
23595 H23595 49.1488 25.4177 34.4129 H 0.0 **** 0.053
23596 H23596 50.8427 24.5808 33.1272 H 0.0 **** 0.053
23597 H23597 49.4481 25.9683 30.8206 H 0.0 **** 0.053
23598 H23598 48.778 23.498 31.1593 H 0.0 **** 0.053
23599 H23599 50.294 22.7663 31.6911 H 0.0 **** 0.053
23600 H23600 49.2954 22.7618 34.0988 H 0.0 **** 0.053
23601 H23601 48.4977 21.6377 32.9942 H 0.0 **** 0.053
23602 H23602 46.6246 23.0275 32.6865 H 0.0 **** 0.053
23603 H23603 47.1839 25.1516 32.1053 H 0.0 **** 0.053
23604 H23604 46.9444 25.833 35.0636 H 0.0 **** 0.053
23605 H23605 46.3129 26.7316 33.6846 H 0.0 **** 0.053
23606 H23606 44.706 24.8157 33.2397 H 0.0 **** 0.053
23607 H23607 44.4512 25.5372 34.8347 H 0.0 **** 0.053
23608 H23608 44.7468 22.821 34.4748 H 0.0 **** 0.053
23609 H23609 45.2238 23.6242 35.9771 H 0.0 **** 0.053
23610 H23610 47.4094 23.493 35.4559 H 0.0 **** 0.353
23611 H23611 55.0655 35.8428 32.418 H 0.0 **** 0.053
23612 H23612 57.4354 35.3076 32.8478 H 0.0 **** 0.053
23613 H23613 56.7111 33.2685 34.938 H 0.0 **** 0.053
23614 H23614 58.2228 34.1605 34.7181 H 0.0 **** 0.053
23615 H23615 57.4193 35.1409 36.7268 H 0.0 **** 0.053
23616 H23616 55.7196 34.9538 36.2609 H 0.0 **** 0.053
23617 H23617 57.6538 36.9404 34.9551 H 0.0 **** 0.053
23618 H23618 56.4816 37.3819 36.1999 H 0.0 **** 0.053
23619 H23619 55.8206 37.6913 33.6365 H 0.0 **** 0.053
23620 H23620 54.6055 37.0652 34.7586 H 0.0 **** 0.053
23621 H23621 52.2885 34.3956 35.12 H 0.0 **** 0.1268
23622 H23622 50.1536 34.2947 36.3666 H 0.0 **** 0.1268
23623 H23623 48.0748 27.6293 34.6952 H 0.0 **** 0.1268
23624 H23624 45.7996 27.8109 35.5727 H 0.0 **** 0.053
23625 H23625 44.3034 29.3373 36.2737 H 0.0 **** 0.053
23626 H23626 45.044 28.4207 39.0636 H 0.0 **** 0.053
23627 H23627 43.7249 26.8771 36.7973 H 0.0 **** 0.053
23628 H23628 43.5951 26.3689 38.4874 H 0.0 **** 0.053
23629 H23629 45.6287 25.4979 36.9182 H 0.0 **** 0.053
23630 H23630 45.8523 25.7536 38.6522 H 0.0 **** 0.053
23631 H23631 47.6219 26.8008 36.9771 H 0.0 **** 0.053
23632 H23632 47.0761 27.7918 38.3287 H 0.0 **** 0.053
23633 H23633 63.1161 24.5334 29.3404 H 0.0 **** 0.053
23634 H23634 61.3579 24.3454 31.0452 H 0.0 **** 0.053
23635 H23635 60.2929 23.4716 29.9242 H 0.0 **** 0.053
23636 H23636 60.661 25.1868 29.64 H 0.0 **** 0.053
23637 H23637 63.7022 22.1218 29.0663 H 0.0 **** 0.053
23638 H23638 62.0298 21.6605 29.4704 H 0.0 **** 0.053
23639 H23639 63.0515 22.4386 30.6977 H 0.0 **** 0.053
23640 H23640 51.341 25.4871 29.6742 H 0.0 **** 0.41
23641 H23641 47.0012 35.1073 38.4384 H 0.0 **** 0.1268
23642 H23642 45.2603 36.3206 39.7064 H 0.0 **** 0.1268
23643 H23643 43.0175 36.3818 40.7386 H 0.0 **** 0.1268
23644 H23644 40.7813 36.4637 41.7581 H 0.0 **** 0.1268
23645 H23645 38.6413 35.3422 42.3307 H 0.0 **** 0.1268
23646 H23646 36.8541 30.9616 41.7537 H 0.0 **** 0.1268
23647 H23647 37.2058 33.3387 42.2947 H 0.0 **** 0.1268
23648 H23648 41.8411 27.4472 38.7441 H 0.0 **** 0.1268
23649 H23649 39.9012 27.0839 38.2714 H 0.0 **** 0.053
23650 H23650 39.8392 26.4704 39.9262 H 0.0 **** 0.053
23651 H23651 37.7721 25.8337 38.7131 H 0.0 **** 0.053
23652 H23652 37.4749 27.5321 38.284 H 0.0 **** 0.053
23653 H23653 37.5909 26.4011 41.1402 H 0.0 **** 0.053
23654 H23654 36.1114 26.9416 40.3378 H 0.0 **** 0.053
23655 C23655 8.87983 45.9019 10.8408 C.3 0.0 **** 0.054
23656 C23656 8.79959 45.8844 12.3853 C.3 0.0 **** -0.106
23657 C23657 10.205 46.0271 13.0051 C.3 0.0 **** -0.053
23658 C23658 11.1985 45.1806 12.1928 C.3 0.0 **** -0.053
23659 C23659 11.2277 45.6904 10.7285 C.3 0.0 **** 0.054
23660 O23660 10.098 46.5039 10.3897 O.3 0.0 **** -0.32
23661 C23661 10.8509 43.6793 12.2783 C.3 0.0 **** -0.053
23662 C23662 10.3371 43.2691 13.688 C.3 0.0 **** 0.107
23663 C23663 10.8246 44.2405 14.7495 C.3 0.0 **** -0.106
23664 C23664 10.2384 45.6432 14.5066 C.3 0.0 **** -0.106
23665 O23665 10.791 41.9587 14.0609 O.3 0.0 **** -0.32
23666 C23666 10.671 40.9993 12.9969 C.3 0.0 **** 0.107
23667 C23667 11.7631 41.303 11.9557 C.3 0.0 **** -0.053
23668 C23668 12.069 42.8295 11.9273 C.3 0.0 **** -0.106
23669 C23669 11.5077 40.7116 10.609 C.2 0.0 **** 0.0
23670 C23670 10.315 40.0982 10.2604 C.2 0.0 **** 0.0
23671 C23671 9.17516 40.1148 11.1424 C.2 0.0 **** 0.0
23672 C23672 9.24587 40.9061 12.4291 C.3 0.0 **** -0.053
23673 C23673 7.95992 39.5687 10.7678 C.2 0.0 **** 0.0
23674 C23674 7.82687 38.9134 9.48816 C.2 0.0 **** 0.0
23675 C23675 8.98073 38.8695 8.64804 C.2 0.0 **** 0.232
23676 C23676 10.1797 39.4394 8.97573 C.2 0.0 **** 0.0
23677 C23677 11.3407 39.3972 8.0149 C.3 0.0 **** -0.106
23678 C23678 12.6799 39.5117 8.74393 C.3 0.0 **** -0.106
23679 C23679 12.6676 40.7423 9.65389 C.3 0.0 **** -0.106
23680 O23680 8.9025 38.256 7.41245 O.3 0.0 **** -0.464
23681 C23681 7.76592 37.582 7.03663 C.2 0.0 **** 0.232
23682 C23682 6.58559 37.6329 7.80016 C.2 0.0 **** 0.0
23683 C23683 6.61966 38.3564 9.04892 C.2 0.0 **** 0.0
23684 C23684 8.22695 40.4394 13.4417 C.2 0.0 **** 0.0
23685 C23685 6.88829 40.1696 12.9235 C.2 0.0 **** 0.0
23686 C23686 6.7767 39.6617 11.6277 C.2 0.0 **** 0.0
23687 C23687 5.78023 40.2787 13.8705 C.2 0.0 **** 0.0
23688 C23688 6.02111 40.053 15.1949 C.2 0.0 **** 0.0
23689 C23689 7.40608 39.8397 15.7122 C.3 0.0 **** -0.106
23690 C23690 8.47784 40.2694 14.7591 C.2 0.0 **** -0.1268
23691 C23691 4.87662 40.0565 16.1694 C.3 0.0 **** -0.106
23692 C23692 3.59455 39.5743 15.4846 C.3 0.0 **** -0.106
23693 C23693 3.36204 40.3745 14.2265 C.2 0.0 **** 0.0
23694 C23694 4.42723 40.726 13.4677 C.2 0.0 **** 0.0
23695 C23695 4.30274 41.6947 12.3144 C.3 0.0 **** -0.106
23696 C23696 2.91958 42.3464 12.2058 C.3 0.0 **** -0.053
23697 C23697 1.83891 41.287 12.4485 C.3 0.0 **** -0.106
23698 C23698 1.95253 40.752 13.8759 C.3 0.0 **** -0.106
23699 C23699 5.4784 38.4812 9.90862 C.2 0.0 **** -0.012
23700 C23700 5.56621 39.0833 11.1397 C.2 0.0 **** -0.1268
23701 C23701 5.47285 36.9082 7.30205 C.2 0.0 **** 0.0
23702 C23702 4.21038 36.9276 7.99636 C.2 0.0 **** -0.012
23703 S23703 3.89601 37.9305 9.40387 S.2 0.0 **** 0.024
23704 C23704 3.14335 36.1948 7.54303 C.2 0.0 **** -0.1268
23705 C23705 3.24331 35.3897 6.37786 C.2 0.0 **** 0.0
23706 C23706 4.46648 35.3656 5.63991 C.2 0.0 **** 0.0
23707 C23707 5.57534 36.1316 6.09383 C.2 0.0 **** 0.0
23708 C23708 4.54669 34.5822 4.4587 C.2 0.0 **** 0.0
23709 C23709 3.42621 33.8001 4.0415 C.2 0.0 **** 0.0
23710 C23710 2.22736 33.7868 4.84234 C.2 0.0 **** 0.0
23711 C23711 2.15693 34.6236 5.96698 C.2 0.0 **** -0.1268
23712 C23712 1.16152 32.9162 4.467 C.2 0.0 **** 0.0
23713 C23713 1.23441 32.2336 3.26753 C.2 0.0 **** 0.042
23714 C23714 2.35122 32.3053 2.38214 C.2 0.0 **** 0.0
23715 C23715 3.47778 33.052 2.82776 C.2 0.0 **** 0.0
23716 C23716 6.80006 36.1199 5.34457 C.2 0.0 **** 0.0
23717 C23717 7.87736 36.8671 5.86421 C.2 0.0 **** -0.1268
23718 C23718 5.75787 34.5874 3.69095 C.2 0.0 **** 0.0
23719 C23719 6.88459 35.3504 4.12091 C.2 0.0 **** 0.0
23720 C23720 4.68015 33.0766 2.04567 C.2 0.0 **** 0.0
23721 C23721 5.80426 33.8221 2.48713 C.2 0.0 **** 0.0
23722 C23722 2.38901 31.6451 1.10066 C.2 0.0 **** 0.0
23723 C23723 3.61038 31.6398 0.362958 C.2 0.0 **** 0.0
23724 C23724 4.74869 32.3424 0.832372 C.2 0.0 **** 0.0
23725 O23725 0.193418 31.3758 2.98436 O.3 0.0 **** -0.202
23726 C23726 -1.1423 31.9492 3.06276 C.3 0.0 **** 0.107
23727 C23727 -1.30628 32.8426 4.31768 C.3 0.0 **** -0.053
23728 C23728 -0.108278 32.5728 5.23945 C.3 0.0 **** 0.107
23729 C23729 -2.6706 32.6258 4.98348 C.3 0.0 **** -0.106
23730 C23730 -3.74375 32.5185 3.895 C.3 0.0 **** -0.106
23731 C23731 -3.59708 31.194 3.13975 C.3 0.0 **** 0.134
23732 C23732 -2.0991 30.7597 3.00336 C.3 0.0 **** -0.053
23733 C23733 -1.90005 29.9655 1.70172 C.3 0.0 **** -0.106
23734 C23734 -3.09493 29.0587 1.41172 C.3 0.0 **** -0.106
23735 C23735 -4.37786 29.9167 1.22542 C.3 0.0 **** 0.081
23736 N23736 -4.30922 31.2408 1.86204 N.3 0.0 **** -0.727
23737 C23737 8.06223 35.3077 3.2937 C.2 0.0 **** 0.042
23738 C23738 8.12008 34.5231 2.15218 C.2 0.0 **** 0.042
23739 C23739 6.99503 33.7862 1.69982 C.2 0.0 **** 0.0
23740 O23740 9.24889 34.4219 1.37217 O.3 0.0 **** -0.202
23741 C23741 10.4588 34.9129 1.98906 C.3 0.0 **** 0.107
23742 C23742 10.1355 36.2618 2.60952 C.3 0.0 **** 0.107
23743 O23743 9.15632 36.0649 3.64809 O.3 0.0 **** -0.202
23744 C23744 9.64776 37.2898 1.56735 C.3 0.0 **** -0.106
23745 C23745 10.2045 37.0171 0.153192 C.3 0.0 **** -0.106
23746 C23746 11.6 36.3883 0.234036 C.3 0.0 **** -0.106
23747 C23747 11.5415 35.0037 0.911629 C.3 0.0 **** -0.106
23748 C23748 5.95385 32.3228 0.0552145 C.2 0.0 **** 0.0
23749 C23749 7.05839 33.0408 0.513366 C.2 0.0 **** -0.1268
23750 C23750 3.67271 30.9288 -0.868258 C.2 0.0 **** 0.0
23751 C23751 4.89989 30.903 -1.60047 C.2 0.0 **** 0.042
23752 C23752 6.00641 31.5778 -1.16449 C.2 0.0 **** -0.1268
23753 C23753 2.54689 30.2677 -1.38177 C.2 0.0 **** 0.0
23754 C23754 1.32869 30.3469 -0.694397 C.2 0.0 **** 0.0
23755 C23755 1.27232 31.0211 0.511607 C.2 0.0 **** -0.1268
23756 O23756 4.99099 30.1941 -2.78873 O.3 0.0 **** -0.0685
23757 C23757 3.91461 29.4821 -3.26622 C.2 0.0 **** 0.0265
23758 C23758 2.6736 29.5171 -2.60763 C.2 0.0 **** 0.0
23759 C23759 0.062963 29.753 -1.25322 C.3 0.0 **** -0.053
23760 C23760 0.293735 28.6937 -2.3557 C.3 0.0 **** -0.053
23761 C23761 1.59163 28.7909 -3.11263 C.2 0.0 **** 0.0
23762 C23762 -0.863302 28.669 -3.37226 C.3 0.0 **** -0.053
23763 C23763 -2.19387 28.8284 -2.6458 C.3 0.0 **** -0.106
23764 C23764 -2.28588 30.2514 -2.0406 C.3 0.0 **** -0.106
23765 C23765 -0.896963 30.8501 -1.74819 C.3 0.0 **** -0.106
23766 C23766 1.73305 28.0298 -4.28277 C.2 0.0 **** 0.0
23767 C23767 3.0065 27.9421 -4.91325 C.2 0.0 **** 0.0
23768 C23768 4.11729 28.692 -4.41356 C.2 0.0 **** 0.0
23769 C23769 -0.688102 27.4865 -4.28521 C.2 0.0 **** 0.0
23770 C23770 0.621592 27.279 -4.80066 C.2 0.0 **** 0.0
23771 C23771 2.76286 43.0994 10.8679 C.3 0.0 **** -0.053
23772 C23772 2.59135 42.1529 9.67271 C.3 0.0 **** -0.159
23773 C23773 1.6005 44.0958 10.9279 C.3 0.0 **** -0.159
23774 O23774 -0.346205 33.2388 6.48074 O.3 0.0 **** -0.57
23775 C23775 5.38324 28.5893 -5.07757 C.2 0.0 **** -0.1268
23776 C23776 5.54263 27.7616 -6.154 C.2 0.0 **** -0.1268
23777 C23777 4.46241 26.9612 -6.6539 C.2 0.0 **** 0.0
23778 C23778 3.18243 27.0648 -6.01941 C.2 0.0 **** 0.0
23779 C23779 2.10149 26.2662 -6.47822 C.2 0.0 **** 0.0
23780 C23780 2.28674 25.3718 -7.55857 C.2 0.0 **** 0.0
23781 C23781 3.5686 25.2788 -8.1909 C.2 0.0 **** 0.0
23782 C23782 4.62586 26.0767 -7.72494 C.2 0.0 **** -0.1268
23783 C23783 3.73667 24.3692 -9.28049 C.2 0.0 **** -0.1268
23784 C23784 2.6948 23.5947 -9.71744 C.2 0.0 **** -0.1268
23785 C23785 1.40732 23.673 -9.10376 C.2 0.0 **** 0.0
23786 C23786 1.20213 24.5693 -8.02128 C.2 0.0 **** 0.0
23787 C23787 -0.0839756 24.666 -7.40878 C.2 0.0 **** 0.0
23788 C23788 -0.27006 25.5751 -6.32898 C.2 0.0 **** 0.0
23789 C23789 0.815291 26.3695 -5.86079 C.2 0.0 **** 0.0
23790 C23790 -1.17374 23.8765 -7.882 C.2 0.0 **** 0.0
23791 C23791 -0.923647 22.9744 -8.95315 C.2 0.0 **** -0.1268
23792 C23792 0.322197 22.8788 -9.53728 C.2 0.0 **** -0.1268
23793 C23793 -1.72336 26.6842 -4.70988 C.2 0.0 **** -0.1268
23794 C23794 -1.54195 25.6859 -5.70273 C.2 0.0 **** 0.0
23795 C23795 -2.46198 23.9934 -7.22999 C.2 0.0 **** 0.052
23796 C23796 -2.61279 24.836 -6.12034 C.2 0.0 **** 0.0
23797 C23797 -3.89897 24.8772 -5.32549 C.3 0.0 **** -0.106
23798 C23798 -4.69725 23.5862 -5.45936 C.3 0.0 **** -0.106
23799 C23799 -4.94812 23.328 -6.93571 C.3 0.0 **** -0.086
23800 C23800 -3.67451 23.3075 -7.77175 C.2 0.0 **** 0.347
23801 O23801 -3.72352 22.7777 -8.88294 O.2 0.0 **** -0.419
23802 H23802 8.0679 46.4957 10.3994 H 0.0 **** 0.053
23803 H23803 8.80877 44.8726 10.4355 H 0.0 **** 0.053
23804 H23804 8.16234 46.7033 12.7528 H 0.0 **** 0.053
23805 H23805 8.33586 44.9422 12.718 H 0.0 **** 0.053
23806 H23806 10.4997 47.0811 12.8965 H 0.0 **** 0.053
23807 H23807 12.2054 45.314 12.6226 H 0.0 **** 0.053
23808 H23808 11.2763 44.8258 10.0339 H 0.0 **** 0.053
23809 H23809 12.103 46.3295 10.546 H 0.0 **** 0.053
23810 H23810 10.0626 43.4755 11.536 H 0.0 **** 0.053
23811 H23811 9.22994 43.2684 13.6964 H 0.0 **** 0.053
23812 H23812 11.9256 44.2697 14.7133 H 0.0 **** 0.053
23813 H23813 10.545 43.8681 15.7455 H 0.0 **** 0.053
23814 H23814 10.8297 46.3798 15.071 H 0.0 **** 0.053
23815 H23815 9.21387 45.6883 14.9111 H 0.0 **** 0.053
23816 H23816 10.8898 40.0307 13.4699 H 0.0 **** 0.053
23817 H23817 12.6923 40.8286 12.3253 H 0.0 **** 0.053
23818 H23818 12.4633 43.1201 10.9422 H 0.0 **** 0.053
23819 H23819 12.8558 43.0498 12.6659 H 0.0 **** 0.053
23820 H23820 8.92463 41.9243 12.1296 H 0.0 **** 0.053
23821 H23821 11.2954 38.478 7.4132 H 0.0 **** 0.053
23822 H23822 11.248 40.2358 7.29902 H 0.0 **** 0.053
23823 H23823 13.5063 39.5711 8.01936 H 0.0 **** 0.053
23824 H23824 12.8391 38.6112 9.35894 H 0.0 **** 0.053
23825 H23825 12.6178 41.6528 9.02348 H 0.0 **** 0.053
23826 H23826 13.609 40.8231 10.2232 H 0.0 **** 0.053
23827 H23827 7.54839 38.7685 15.976 H 0.0 **** 0.053
23828 H23828 7.51514 40.364 16.6818 H 0.0 **** 0.053
23829 H23829 9.47302 40.4444 15.1644 H 0.0 **** 0.1268
23830 H23830 5.12377 39.4281 17.04 H 0.0 **** 0.053
23831 H23831 4.72726 41.086 16.554 H 0.0 **** 0.053
23832 H23832 2.72764 39.6654 16.1575 H 0.0 **** 0.053
23833 H23833 3.69805 38.5007 15.2349 H 0.0 **** 0.053
23834 H23834 5.07303 42.4769 12.4373 H 0.0 **** 0.053
23835 H23835 4.55092 41.2018 11.3621 H 0.0 **** 0.053
23836 H23836 2.83174 43.0931 13.017 H 0.0 **** 0.053
23837 H23837 1.98369 40.4562 11.7386 H 0.0 **** 0.053
23838 H23838 0.833802 41.6992 12.2707 H 0.0 **** 0.053
23839 H23839 1.30184 39.8698 14.0174 H 0.0 **** 0.053
23840 H23840 1.58029 41.5075 14.595 H 0.0 **** 0.053
23841 H23841 4.69063 39.0894 11.7885 H 0.0 **** 0.1268
23842 H23842 2.19316 36.2108 8.08171 H 0.0 **** 0.1268
23843 H23843 1.22719 34.7082 6.52086 H 0.0 **** 0.1268
23844 H23844 8.83131 36.8939 5.35843 H 0.0 **** 0.1268
23845 H23845 -1.28161 32.5625 2.15282 H 0.0 **** 0.053
23846 H23846 -1.24079 33.8976 4.00719 H 0.0 **** 0.053
23847 H23847 -0.0852113 31.4786 5.42254 H 0.0 **** 0.053
23848 H23848 -2.65219 31.7016 5.58634 H 0.0 **** 0.053
23849 H23849 -2.87293 33.4508 5.67818 H 0.0 **** 0.053
23850 H23850 -3.62296 33.3555 3.18372 H 0.0 **** 0.053
23851 H23851 -4.76202 32.5962 4.29997 H 0.0 **** 0.053
23852 H23852 -4.099 30.4111 3.73374 H 0.0 **** 0.053
23853 H23853 -1.85066 30.1078 3.85796 H 0.0 **** 0.053
23854 H23854 -1.78885 30.6795 0.867507 H 0.0 **** 0.053
23855 H23855 -0.962459 29.395 1.7479 H 0.0 **** 0.053
23856 H23856 -3.22516 28.3565 2.25071 H 0.0 **** 0.053
23857 H23857 -2.91061 28.4497 0.512291 H 0.0 **** 0.053
23858 H23858 -5.24706 29.3787 1.6403 H 0.0 **** 0.053
23859 H23859 -4.5821 30.0747 0.156035 H 0.0 **** 0.053
23860 H23860 -3.84095 31.9021 1.2412 H 0.0 **** 0.353
23861 H23861 10.7419 34.2067 2.78734 H 0.0 **** 0.053
23862 H23862 11.0223 36.6321 3.14331 H 0.0 **** 0.053
23863 H23863 8.5485 37.2643 1.55192 H 0.0 **** 0.053
23864 H23864 9.94284 38.2915 1.9124 H 0.0 **** 0.053
23865 H23865 10.2334 37.9549 -0.420762 H 0.0 **** 0.053
23866 H23866 9.53237 36.3277 -0.378889 H 0.0 **** 0.053
23867 H23867 12.2607 37.0578 0.811039 H 0.0 **** 0.053
23868 H23868 12.0481 36.2916 -0.765794 H 0.0 **** 0.053
23869 H23869 12.514 34.7568 1.36294 H 0.0 **** 0.053
23870 H23870 11.3234 34.2191 0.170864 H 0.0 **** 0.053
23871 H23871 7.98365 33.0283 -0.0605531 H 0.0 **** 0.1268
23872 H23872 6.92916 31.5546 -1.7452 H 0.0 **** 0.1268
23873 H23873 0.326232 31.0541 1.02851 H 0.0 **** 0.1268
23874 H23874 -0.458096 29.2503 -0.424167 H 0.0 **** 0.053
23875 H23875 0.300976 27.6995 -1.86604 H 0.0 **** 0.053
23876 H23876 -0.732226 29.5561 -4.02423 H 0.0 **** 0.053
23877 H23877 -2.25416 28.0634 -1.85299 H 0.0 **** 0.053
23878 H23878 -3.04249 28.6551 -3.32272 H 0.0 **** 0.053
23879 H23879 -2.86624 30.2108 -1.10802 H 0.0 **** 0.053
23880 H23880 -2.83293 30.9142 -2.72861 H 0.0 **** 0.053
23881 H23881 -0.967798 31.6447 -0.990183 H 0.0 **** 0.053
23882 H23882 -0.469133 31.318 -2.64895 H 0.0 **** 0.053
23883 H23883 3.69494 43.6743 10.7178 H 0.0 **** 0.053
23884 H23884 2.61987 42.7162 8.72794 H 0.0 **** 0.053
23885 H23885 1.61888 41.6393 9.72426 H 0.0 **** 0.053
23886 H23886 3.37464 41.3808 9.63088 H 0.0 **** 0.053
23887 H23887 1.72811 44.805 11.7609 H 0.0 **** 0.053
23888 H23888 0.643224 43.5705 11.0739 H 0.0 **** 0.053
23889 H23889 1.5235 44.6715 9.99295 H 0.0 **** 0.053
23890 H23890 0.331156 32.9362 7.10511 H 0.0 **** 0.41
23891 H23891 6.21978 29.1779 -4.70132 H 0.0 **** 0.1268
23892 H23892 6.51157 27.6862 -6.6507 H 0.0 **** 0.1268
23893 H23893 5.60278 25.9975 -8.20697 H 0.0 **** 0.1268
23894 H23894 4.71743 24.3046 -9.7552 H 0.0 **** 0.1268
23895 H23895 2.83119 22.8965 -10.5456 H 0.0 **** 0.1268
23896 H23896 -1.74268 22.3629 -9.31616 H 0.0 **** 0.1268
23897 H23897 0.482473 22.1731 -10.3552 H 0.0 **** 0.1268
23898 H23898 -2.71541 26.8544 -4.30029 H 0.0 **** 0.1268
23899 H23899 -3.66289 25.06 -4.26777 H 0.0 **** 0.053
23900 H23900 -4.51827 25.7312 -5.6594 H 0.0 **** 0.053
23901 H23901 -5.64244 23.6553 -4.89976 H 0.0 **** 0.053
23902 H23902 -4.11523 22.7562 -5.02648 H 0.0 **** 0.053
23903 H23903 -5.57871 24.1357 -7.35142 H 0.0 **** 0.053
23904 H23904 -5.47702 22.3845 -7.13199 H 0.0 **** 0.053
23905 C23905 55.6976 34.2495 87.1599 C.3 0.0 **** 0.054
23906 C23906 56.7353 33.8845 88.2473 C.3 0.0 **** -0.106
23907 C23907 57.2431 35.1533 88.9629 C.3 0.0 **** -0.053
23908 C23908 57.4533 36.2648 87.9219 C.3 0.0 **** -0.053
23909 C23909 56.1037 36.5735 87.2231 C.3 0.0 **** 0.054
23910 O23910 55.1264 35.5405 87.3981 O.3 0.0 **** -0.32
23911 C23911 58.5556 35.8809 86.9123 C.3 0.0 **** -0.053
23912 C23912 59.7285 35.1079 87.5805 C.3 0.0 **** 0.107
23913 C23913 59.801 35.4077 89.0681 C.3 0.0 **** -0.106
23914 C23914 58.5346 34.9015 89.7824 C.3 0.0 **** -0.106
23915 O23915 60.9964 35.4617 87.0065 O.3 0.0 **** -0.32
23916 C23916 60.9647 35.5238 85.5705 C.3 0.0 **** 0.107
23917 C23917 60.1973 36.7949 85.1651 C.3 0.0 **** -0.053
23918 C23918 59.109 37.1278 86.2278 C.3 0.0 **** -0.106
23919 C23919 59.6891 36.7828 83.7615 C.2 0.0 **** 0.0
23920 C23920 59.7357 35.6645 82.9443 C.2 0.0 **** 0.0
23921 C23921 60.1563 34.3816 83.449 C.2 0.0 **** 0.0
23922 C23922 60.453 34.227 84.9237 C.3 0.0 **** -0.053
23923 C23923 60.1334 33.2472 82.6565 C.2 0.0 **** 0.0
23924 C23924 59.7337 33.3417 81.2723 C.2 0.0 **** 0.0
23925 C23925 59.3629 34.6302 80.7808 C.2 0.0 **** 0.232
23926 C23926 59.3348 35.7577 81.5539 C.2 0.0 **** 0.0
23927 C23927 58.8829 37.0755 80.9777 C.3 0.0 **** -0.106
23928 C23928 59.4753 38.2584 81.7444 C.3 0.0 **** -0.106
23929 C23929 59.1877 38.0997 83.2392 C.3 0.0 **** -0.106
23930 O23930 58.97 34.7711 79.4636 O.3 0.0 **** -0.464
23931 C23931 59.0503 33.712 78.5924 C.2 0.0 **** 0.232
23932 C23932 59.3608 32.4118 79.0305 C.2 0.0 **** 0.0
23933 C23933 59.6763 32.227 80.427 C.2 0.0 **** 0.0
23934 C23934 61.3301 33.0302 85.206 C.2 0.0 **** 0.0
23935 C23935 60.9923 31.806 84.4845 C.2 0.0 **** 0.0
23936 C23936 60.4774 31.9272 83.1923 C.2 0.0 **** 0.0
23937 C23937 61.3936 30.5439 85.103 C.2 0.0 **** 0.0
23938 C23938 62.4801 30.5315 85.9292 C.2 0.0 **** 0.0
23939 C23939 63.1755 31.7928 86.3249 C.3 0.0 **** -0.106
23940 C23940 62.3727 33.0299 86.0665 C.2 0.0 **** -0.1268
23941 C23941 62.9716 29.2267 86.4908 C.3 0.0 **** -0.106
23942 C23942 62.6847 28.0852 85.511 C.3 0.0 **** -0.106
23943 C23943 61.2255 28.1037 85.1271 C.2 0.0 **** 0.0
23944 C23944 60.6089 29.2969 84.9539 C.2 0.0 **** 0.0
23945 C23945 59.1124 29.4051 84.7738 C.3 0.0 **** -0.106
23946 C23946 58.3718 28.0777 84.9721 C.3 0.0 **** -0.053
23947 C23947 59.1557 26.9523 84.2879 C.3 0.0 **** -0.106
23948 C23948 60.5187 26.7903 84.9605 C.3 0.0 **** -0.106
23949 C23949 60.003 30.9488 80.9895 C.2 0.0 **** -0.012
23950 C23950 60.4025 30.8178 82.2969 C.2 0.0 **** -0.1268
23951 C23951 59.3994 31.3979 78.0395 C.2 0.0 **** 0.0
23952 C23952 59.675 30.0293 78.3962 C.2 0.0 **** -0.012
23953 S23953 59.8449 29.4776 80.0553 S.2 0.0 **** 0.024
23954 C23954 59.7559 29.0518 77.4376 C.2 0.0 **** -0.1268
23955 C23955 59.5746 29.3514 76.0617 C.2 0.0 **** 0.0
23956 C23956 59.2677 30.6894 75.6655 C.2 0.0 **** 0.0
23957 C23957 59.1688 31.7085 76.6526 C.2 0.0 **** 0.0
23958 C23958 59.0571 30.973 74.2905 C.2 0.0 **** 0.0
23959 C23959 59.1906 29.9354 73.3175 C.2 0.0 **** 0.0
23960 C23960 59.5703 28.609 73.7361 C.2 0.0 **** 0.0
23961 C23961 59.7055 28.3465 75.1083 C.2 0.0 **** -0.1268
23962 C23962 59.804 27.6158 72.7393 C.2 0.0 **** 0.0
23963 C23963 59.5068 27.8974 71.4192 C.2 0.0 **** 0.042
23964 C23964 59.0163 29.1598 70.9698 C.2 0.0 **** 0.0
23965 C23965 58.9284 30.1975 71.9398 C.2 0.0 **** 0.0
23966 C23966 58.8455 33.0503 76.257 C.2 0.0 **** 0.0
23967 C23967 58.8001 34.0258 77.2744 C.2 0.0 **** -0.1268
23968 C23968 58.7072 32.3052 73.8916 C.2 0.0 **** 0.0
23969 C23969 58.5969 33.3462 74.8615 C.2 0.0 **** 0.0
23970 C23970 58.5536 31.524 71.5428 C.2 0.0 **** 0.0
23971 C23971 58.4635 32.56 72.5087 C.2 0.0 **** 0.0
23972 C23972 58.6428 29.4224 69.602 C.2 0.0 **** 0.0
23973 C23973 58.3221 30.7589 69.2187 C.2 0.0 **** 0.0
23974 C23974 58.284 31.803 70.177 C.2 0.0 **** 0.0
23975 O23975 59.7964 26.9118 70.5004 O.3 0.0 **** -0.202
23976 C23976 59.2451 25.595 70.7852 C.3 0.0 **** 0.107
23977 C23977 59.4134 25.2174 72.2782 C.3 0.0 **** -0.053
23978 C23978 60.3953 26.2191 72.9026 C.3 0.0 **** 0.107
23979 C23979 59.8277 23.7498 72.4401 C.3 0.0 **** -0.106
23980 C23980 59.026 22.8949 71.4529 C.3 0.0 **** -0.106
23981 C23981 59.5045 23.1554 70.0214 C.3 0.0 **** 0.134
23982 C23982 59.9383 24.6448 69.8102 C.3 0.0 **** -0.053
23983 C23983 59.6713 25.0672 68.3559 C.3 0.0 **** -0.106
23984 C23984 59.9707 23.9308 67.3796 C.3 0.0 **** -0.106
23985 C23985 59.0418 22.7199 67.6758 C.3 0.0 **** 0.081
23986 N23986 58.514 22.6929 69.0483 N.3 0.0 **** -0.727
23987 C23987 58.2373 34.6556 74.3831 C.2 0.0 **** 0.042
23988 C23988 58.0511 34.9099 73.0329 C.2 0.0 **** 0.042
23989 C23989 58.1275 33.8751 72.0651 C.2 0.0 **** 0.0
23990 O23990 57.759 36.1616 72.5422 O.3 0.0 **** -0.202
23991 C23991 57.9838 37.2449 73.4704 C.3 0.0 **** 0.107
23992 C23992 57.3725 36.8362 74.8001 C.3 0.0 **** 0.107
23993 O23993 58.0761 35.6784 75.2907 O.3 0.0 **** -0.202
23994 C23994 55.8566 36.568 74.6958 C.3 0.0 **** -0.106
23995 C23995 55.1842 37.3719 73.5619 C.3 0.0 **** -0.106
23996 C23996 55.891 38.7171 73.3608 C.3 0.0 **** -0.106
23997 C23997 57.3459 38.5097 72.8919 C.3 0.0 **** -0.106
23998 C23998 57.945 33.1306 69.7536 C.2 0.0 **** 0.0
23999 C23999 57.8834 34.1438 70.7102 C.2 0.0 **** -0.1268
24000 C24000 58.0227 31.0355 67.8552 C.2 0.0 **** 0.0
24001 C24001 57.7214 32.3763 67.4626 C.2 0.0 **** 0.042
24002 C24002 57.6767 33.3948 68.3739 C.2 0.0 **** -0.1268
24003 C24003 58.0028 30.0126 66.8952 C.2 0.0 **** 0.0
24004 C24004 58.2364 28.6899 67.2933 C.2 0.0 **** 0.0
24005 C24005 58.5464 28.4232 68.6142 C.2 0.0 **** -0.1268
24006 O24006 57.4534 32.6732 66.1349 O.3 0.0 **** -0.0685
24007 C24007 57.5016 31.6914 65.1719 C.2 0.0 **** 0.0265
24008 C24008 57.7448 30.3507 65.5163 C.2 0.0 **** 0.0
24009 C24009 58.1176 27.5391 66.3296 C.3 0.0 **** -0.053
24010 C24010 58.1817 27.9512 64.8407 C.3 0.0 **** -0.053
24011 C24011 57.7841 29.3682 64.5232 C.2 0.0 **** 0.0
24012 C24012 57.3565 27.002 63.9514 C.3 0.0 **** -0.053
24013 C24013 57.5422 25.563 64.4187 C.3 0.0 **** -0.106
24014 C24014 56.8988 25.3857 65.8168 C.3 0.0 **** -0.106
24015 C24015 56.8526 26.7069 66.6075 C.3 0.0 **** -0.106
24016 C24016 57.5733 29.7103 63.1789 C.2 0.0 **** 0.0
24017 C24017 57.3918 31.0767 62.8226 C.2 0.0 **** 0.0
24018 C24018 57.3357 32.0889 63.8317 C.2 0.0 **** 0.0
24019 C24019 57.6297 27.3222 62.5074 C.2 0.0 **** 0.0
24020 C24020 57.6177 28.7008 62.1561 C.2 0.0 **** 0.0
24021 C24021 56.9041 28.1846 84.5078 C.3 0.0 **** -0.053
24022 C24022 56.7678 28.2206 82.9801 C.3 0.0 **** -0.159
24023 C24023 56.0564 27.049 85.0904 C.3 0.0 **** -0.159
24024 O24024 60.7098 25.7674 74.2209 O.3 0.0 **** -0.57
24025 C24025 57.1416 33.4538 63.4401 C.2 0.0 **** -0.1268
24026 C24026 57.0446 33.795 62.1198 C.2 0.0 **** -0.1268
24027 C24027 57.1415 32.812 61.0798 C.2 0.0 **** 0.0
24028 C24028 57.3133 31.4387 61.449 C.2 0.0 **** 0.0
24029 C24029 57.4364 30.4474 60.4396 C.2 0.0 **** 0.0
24030 C24030 57.389 30.8136 59.0739 C.2 0.0 **** 0.0
24031 C24031 57.2113 32.1885 58.7137 C.2 0.0 **** 0.0
24032 C24032 57.0901 33.1552 59.7248 C.2 0.0 **** -0.1268
24033 C24033 57.1663 32.5392 57.3289 C.2 0.0 **** -0.1268
24034 C24034 57.292 31.5827 56.3565 C.2 0.0 **** -0.1268
24035 C24035 57.4672 30.2054 56.6925 C.2 0.0 **** 0.0
24036 C24036 57.5119 29.8193 58.0586 C.2 0.0 **** 0.0
24037 C24037 57.673 28.444 58.4066 C.2 0.0 **** 0.0
24038 C24038 57.7093 28.0774 59.7818 C.2 0.0 **** 0.0
24039 C24039 57.596 29.0712 60.7956 C.2 0.0 **** 0.0
24040 C24040 57.7786 27.4469 57.392 C.2 0.0 **** 0.0
24041 C24041 57.752 27.8749 56.0356 C.2 0.0 **** -0.1268
24042 C24042 57.6035 29.2054 55.7038 C.2 0.0 **** -0.1268
24043 C24043 57.7849 26.3694 61.5256 C.2 0.0 **** -0.1268
24044 C24044 57.8713 26.7137 60.1511 C.2 0.0 **** 0.0
24045 C24045 57.9512 26.0625 57.782 C.2 0.0 **** 0.052
24046 C24046 58.0608 25.7238 59.1374 C.2 0.0 **** 0.0
24047 C24047 58.3847 24.3137 59.5784 C.3 0.0 **** -0.106
24048 C24048 59.1239 23.5313 58.4998 C.3 0.0 **** -0.106
24049 C24049 58.2866 23.5535 57.2319 C.3 0.0 **** -0.086
24050 C24050 57.9183 24.9592 56.774 C.2 0.0 **** 0.347
24051 O24051 57.5519 25.1073 55.6071 O.2 0.0 **** -0.419
24052 H24052 54.8557 33.5439 87.1499 H 0.0 **** 0.053
24053 H24053 56.1655 34.2365 86.1552 H 0.0 **** 0.053
24054 H24054 56.2964 33.2048 88.9937 H 0.0 **** 0.053
24055 H24055 57.58 33.3506 87.7839 H 0.0 **** 0.053
24056 H24056 56.4436 35.4815 89.6431 H 0.0 **** 0.053
24057 H24057 57.7848 37.177 88.4457 H 0.0 **** 0.053
24058 H24058 56.2742 36.7345 86.1381 H 0.0 **** 0.053
24059 H24059 55.6378 37.4785 87.6374 H 0.0 **** 0.053
24060 H24060 58.0962 35.2402 86.1426 H 0.0 **** 0.053
24061 H24061 59.5802 34.0185 87.4499 H 0.0 **** 0.053
24062 H24062 59.9089 36.4967 89.1975 H 0.0 **** 0.053
24063 H24063 60.7014 34.942 89.4939 H 0.0 **** 0.053
24064 H24064 58.4591 35.391 90.7649 H 0.0 **** 0.053
24065 H24065 58.6302 33.8207 89.9778 H 0.0 **** 0.053
24066 H24066 62.018 35.6342 85.2737 H 0.0 **** 0.053
24067 H24067 60.9204 37.6312 85.2198 H 0.0 **** 0.053
24068 H24068 58.2915 37.7025 85.768 H 0.0 **** 0.053
24069 H24069 59.5538 37.768 87.0059 H 0.0 **** 0.053
24070 H24070 59.4656 33.9847 85.3665 H 0.0 **** 0.053
24071 H24071 59.1425 37.1261 79.9104 H 0.0 **** 0.053
24072 H24072 57.7789 37.1317 81.0266 H 0.0 **** 0.053
24073 H24073 59.0612 39.2056 81.3662 H 0.0 **** 0.053
24074 H24074 60.566 38.2852 81.5888 H 0.0 **** 0.053
24075 H24075 58.0947 38.1835 83.404 H 0.0 **** 0.053
24076 H24076 59.642 38.9208 83.8191 H 0.0 **** 0.053
24077 H24077 64.1526 31.8649 85.7981 H 0.0 **** 0.053
24078 H24078 63.4593 31.7298 87.3937 H 0.0 **** 0.053
24079 H24079 62.6558 33.9358 86.5998 H 0.0 **** 0.1268
24080 H24080 64.0478 29.2973 86.7158 H 0.0 **** 0.053
24081 H24081 62.4589 29.0269 87.4537 H 0.0 **** 0.053
24082 H24082 62.9488 27.1105 85.9501 H 0.0 **** 0.053
24083 H24083 63.3136 28.2141 84.6091 H 0.0 **** 0.053
24084 H24084 58.7324 30.1531 85.4925 H 0.0 **** 0.053
24085 H24085 58.8671 29.8165 83.7828 H 0.0 **** 0.053
24086 H24086 58.36 27.8545 86.0554 H 0.0 **** 0.053
24087 H24087 59.3047 27.2112 83.2268 H 0.0 **** 0.053
24088 H24088 58.596 26.0049 84.319 H 0.0 **** 0.053
24089 H24089 61.1655 26.1092 84.3779 H 0.0 **** 0.053
24090 H24090 60.3989 26.3048 85.9487 H 0.0 **** 0.053
24091 H24091 60.7112 29.8376 82.6593 H 0.0 **** 0.1268
24092 H24092 59.9731 28.0188 77.7186 H 0.0 **** 0.1268
24093 H24093 59.8858 27.3319 75.4497 H 0.0 **** 0.1268
24094 H24094 58.5743 35.0572 77.0469 H 0.0 **** 0.1268
24095 H24095 58.1686 25.6373 70.5347 H 0.0 **** 0.053
24096 H24096 58.4458 25.3578 72.7859 H 0.0 **** 0.053
24097 H24097 61.3183 26.1886 72.2875 H 0.0 **** 0.053
24098 H24098 60.9078 23.64 72.2423 H 0.0 **** 0.053
24099 H24099 59.6646 23.437 73.4792 H 0.0 **** 0.053
24100 H24100 57.956 23.16 71.5303 H 0.0 **** 0.053
24101 H24101 59.0991 21.8208 71.6718 H 0.0 **** 0.053
24102 H24102 60.4032 22.5384 69.8501 H 0.0 **** 0.053
24103 H24103 61.0211 24.7192 70.0079 H 0.0 **** 0.053
24104 H24104 58.6072 25.3435 68.2595 H 0.0 **** 0.053
24105 H24105 60.2486 25.9699 68.1135 H 0.0 **** 0.053
24106 H24106 61.0268 23.6352 67.4851 H 0.0 **** 0.053
24107 H24107 59.8366 24.2676 66.3392 H 0.0 **** 0.053
24108 H24108 59.5908 21.7796 67.4984 H 0.0 **** 0.053
24109 H24109 58.1809 22.7199 66.9909 H 0.0 **** 0.053
24110 H24110 57.6812 23.2796 69.113 H 0.0 **** 0.353
24111 H24111 59.0732 37.3628 73.5947 H 0.0 **** 0.053
24112 H24112 57.5845 37.6153 75.5461 H 0.0 **** 0.053
24113 H24113 55.7115 35.4903 74.5321 H 0.0 **** 0.053
24114 H24114 55.3996 36.8118 75.666 H 0.0 **** 0.053
24115 H24115 54.1201 37.5231 73.7956 H 0.0 **** 0.053
24116 H24116 55.2357 36.7978 72.625 H 0.0 **** 0.053
24117 H24117 55.8826 39.2713 74.315 H 0.0 **** 0.053
24118 H24118 55.3532 39.3407 72.6317 H 0.0 **** 0.053
24119 H24119 57.9641 39.3774 73.1664 H 0.0 **** 0.053
24120 H24120 57.39 38.4186 71.7957 H 0.0 **** 0.053
24121 H24121 57.6364 35.1589 70.4033 H 0.0 **** 0.1268
24122 H24122 57.4328 34.4085 68.0544 H 0.0 **** 0.1268
24123 H24123 58.7372 27.3985 68.8918 H 0.0 **** 0.1268
24124 H24124 58.9673 26.8648 66.5165 H 0.0 **** 0.053
24125 H24125 59.2354 27.8501 64.5122 H 0.0 **** 0.053
24126 H24126 56.2912 27.2671 64.107 H 0.0 **** 0.053
24127 H24127 58.6227 25.3435 64.4567 H 0.0 **** 0.053
24128 H24128 57.0959 24.8514 63.7096 H 0.0 **** 0.053
24129 H24129 57.473 24.6422 66.3873 H 0.0 **** 0.053
24130 H24130 55.8782 24.9873 65.7094 H 0.0 **** 0.053
24131 H24131 56.7724 26.5111 67.6875 H 0.0 **** 0.053
24132 H24132 55.9671 27.3022 66.3338 H 0.0 **** 0.053
24133 H24133 56.5146 29.1384 84.9084 H 0.0 **** 0.053
24134 H24134 55.7276 28.4334 82.691 H 0.0 **** 0.053
24135 H24135 57.0409 27.2464 82.5458 H 0.0 **** 0.053
24136 H24136 57.4113 28.9843 82.5175 H 0.0 **** 0.053
24137 H24137 56.1165 27.0328 86.1901 H 0.0 **** 0.053
24138 H24138 56.4036 26.0721 84.7178 H 0.0 **** 0.053
24139 H24139 54.9992 27.1566 84.8039 H 0.0 **** 0.053
24140 H24140 61.4434 26.3121 74.5454 H 0.0 **** 0.41
24141 H24141 57.0819 34.2166 64.2163 H 0.0 **** 0.1268
24142 H24142 56.9014 34.8376 61.8305 H 0.0 **** 0.1268
24143 H24143 56.9607 34.2029 59.4445 H 0.0 **** 0.1268
24144 H24144 57.0317 33.5896 57.0643 H 0.0 **** 0.1268
24145 H24145 57.2641 31.8576 55.3003 H 0.0 **** 0.1268
24146 H24146 57.8397 27.1265 55.2554 H 0.0 **** 0.1268
24147 H24147 57.5912 29.5018 54.6528 H 0.0 **** 0.1268
24148 H24148 57.7974 25.3219 61.8144 H 0.0 **** 0.1268
24149 H24149 58.9941 24.3532 60.4922 H 0.0 **** 0.053
24150 H24150 57.4523 23.7821 59.8473 H 0.0 **** 0.053
24151 H24151 59.3172 22.5003 58.8328 H 0.0 **** 0.053
24152 H24152 60.1001 24.0084 58.3137 H 0.0 **** 0.053
24153 H24153 57.3315 23.0251 57.409 H 0.0 **** 0.053
24154 H24154 58.7684 23.0534 56.3797 H 0.0 **** 0.053
24155 C24155 69.9505 42.1611 29.3056 C.3 0.0 **** 0.054
24156 C24156 71.39 42.2925 29.8559 C.3 0.0 **** -0.106
24157 C24157 71.7958 41.0203 30.6283 C.3 0.0 **** -0.053
24158 C24158 70.601 40.5433 31.4699 C.3 0.0 **** -0.053
24159 C24159 69.4109 40.2173 30.5305 C.3 0.0 **** 0.054
24160 O24160 69.5476 40.7896 29.2242 O.3 0.0 **** -0.32
24161 C24161 70.2246 41.586 32.5437 C.3 0.0 **** -0.053
24162 C24162 71.4729 42.283 33.1565 C.3 0.0 **** 0.107
24163 C24163 72.712 41.4181 32.9992 C.3 0.0 **** -0.106
24164 C24164 73.0534 41.2312 31.5096 C.3 0.0 **** -0.106
24165 O24165 71.3039 42.5442 34.5584 O.3 0.0 **** -0.32
24166 C24166 70.0096 43.0832 34.8768 C.3 0.0 **** 0.107
24167 C24167 68.9776 41.9477 34.7566 C.3 0.0 **** -0.053
24168 C24168 69.4218 40.9309 33.6643 C.3 0.0 **** -0.106
24169 C24169 67.5669 42.4142 34.6116 C.2 0.0 **** 0.0
24170 C24170 67.22 43.7417 34.4169 C.2 0.0 **** 0.0
24171 C24171 68.2205 44.756 34.1987 C.2 0.0 **** 0.0
24172 C24172 69.6719 44.35 34.0748 C.3 0.0 **** -0.053
24173 C24173 67.8758 46.0691 33.9299 C.2 0.0 **** 0.0
24174 C24174 66.4867 46.4628 33.9181 C.2 0.0 **** 0.0
24175 C24175 65.5137 45.4511 34.1803 C.2 0.0 **** 0.232
24176 C24176 65.8254 44.1388 34.405 C.2 0.0 **** 0.0
24177 C24177 64.7398 43.116 34.6244 C.3 0.0 **** -0.106
24178 C24178 65.2477 41.919 35.429 C.3 0.0 **** -0.106
24179 C24179 66.5115 41.3567 34.774 C.3 0.0 **** -0.106
24180 O24180 64.1712 45.778 34.177 O.3 0.0 **** -0.464
24181 C24181 63.7698 47.0854 34.0471 C.2 0.0 **** 0.232
24182 C24182 64.6783 48.1141 33.7384 C.2 0.0 **** 0.0
24183 C24183 66.0771 47.772 33.6377 C.2 0.0 **** 0.0
24184 C24184 70.6108 45.5008 34.3493 C.2 0.0 **** 0.0
24185 C24185 70.2458 46.7808 33.7479 C.2 0.0 **** 0.0
24186 C24186 68.8884 47.0829 33.6218 C.2 0.0 **** 0.0
24187 C24187 71.333 47.7243 33.4944 C.2 0.0 **** 0.0
24188 C24188 72.448 47.6709 34.28 C.2 0.0 **** 0.0
24189 C24189 72.641 46.5877 35.2903 C.3 0.0 **** -0.106
24190 C24190 71.7366 45.4111 35.0923 C.2 0.0 **** -0.1268
24191 C24191 73.5306 48.6988 34.1044 C.3 0.0 **** -0.106
24192 C24192 72.9301 50.0281 33.6379 C.3 0.0 **** -0.106
24193 C24193 72.0704 49.7944 32.4199 C.2 0.0 **** 0.0
24194 C24194 71.3207 48.6685 32.3537 C.2 0.0 **** 0.0
24195 C24195 70.5987 48.2617 31.09 C.3 0.0 **** -0.106
24196 C24196 70.9333 49.1419 29.8804 C.3 0.0 **** -0.053
24197 C24197 70.9663 50.6112 30.3157 C.3 0.0 **** -0.106
24198 C24198 72.0915 50.8239 31.3282 C.3 0.0 **** -0.106
24199 C24199 67.0939 48.7337 33.3238 C.2 0.0 **** -0.012
24200 C24200 68.4268 48.4038 33.339 C.2 0.0 **** -0.1268
24201 C24201 64.1425 49.4215 33.615 C.2 0.0 **** 0.0
24202 C24202 64.9888 50.5347 33.2675 C.2 0.0 **** -0.012
24203 S24203 66.6837 50.3642 32.8388 S.2 0.0 **** 0.024
24204 C24204 64.4847 51.8078 33.1884 C.2 0.0 **** -0.1268
24205 C24205 63.1149 52.0761 33.4482 C.2 0.0 **** 0.0
24206 C24206 62.2326 50.9979 33.765 C.2 0.0 **** 0.0
24207 C24207 62.742 49.6721 33.8371 C.2 0.0 **** 0.0
24208 C24208 60.8584 51.2722 33.9922 C.2 0.0 **** 0.0
24209 C24209 60.3794 52.6172 33.9411 C.2 0.0 **** 0.0
24210 C24210 61.3036 53.6948 33.6892 C.2 0.0 **** 0.0
24211 C24211 62.642 53.3838 33.4027 C.2 0.0 **** -0.1268
24212 C24212 60.825 55.0372 33.7502 C.2 0.0 **** 0.0
24213 C24213 59.4691 55.2678 33.8864 C.2 0.0 **** 0.042
24214 C24214 58.499 54.2301 34.0218 C.2 0.0 **** 0.0
24215 C24215 58.9914 52.898 34.1146 C.2 0.0 **** 0.0
24216 C24216 61.8532 48.5861 34.1404 C.2 0.0 **** 0.0
24217 C24217 62.4221 47.2992 34.2373 C.2 0.0 **** -0.1268
24218 C24218 59.9603 50.189 34.2687 C.2 0.0 **** 0.0
24219 C24219 60.4436 48.8483 34.3427 C.2 0.0 **** 0.0
24220 C24220 58.0879 51.8125 34.3661 C.2 0.0 **** 0.0
24221 C24221 58.5764 50.4831 34.4572 C.2 0.0 **** 0.0
24222 C24222 57.0801 54.4774 34.0931 C.2 0.0 **** 0.0
24223 C24223 56.2047 53.3915 34.394 C.2 0.0 **** 0.0
24224 C24224 56.7024 52.0717 34.5365 C.2 0.0 **** 0.0
24225 O24225 59.0765 56.5854 33.9831 O.3 0.0 **** -0.202
24226 C24226 59.5507 57.4692 32.928 C.3 0.0 **** 0.107
24227 C24227 61.0436 57.2164 32.6008 C.3 0.0 **** -0.053
24228 C24228 61.6218 56.3376 33.7194 C.3 0.0 **** 0.107
24229 C24229 61.7991 58.5333 32.3847 C.3 0.0 **** -0.106
24230 C24230 60.919 59.4828 31.565 C.3 0.0 **** -0.106
24231 C24231 59.746 59.9795 32.4156 C.3 0.0 **** 0.134
24232 C24232 59.2401 58.8842 33.4133 C.3 0.0 **** -0.053
24233 C24233 57.732 59.0562 33.66 C.3 0.0 **** -0.106
24234 C24234 57.3403 60.5316 33.7215 C.3 0.0 **** -0.106
24235 C24235 57.6573 61.2207 32.3645 C.3 0.0 **** 0.081
24236 N24236 58.6867 60.5326 31.5707 N.3 0.0 **** -0.727
24237 C24237 59.4793 47.8158 34.6199 C.2 0.0 **** 0.042
24238 C24238 58.1449 48.1116 34.8524 C.2 0.0 **** 0.042
24239 C24239 57.6494 49.4372 34.7499 C.2 0.0 **** 0.0
24240 O24240 57.212 47.1519 35.1712 O.3 0.0 **** -0.202
24241 C24241 57.7637 45.8788 35.5717 C.3 0.0 **** 0.107
24242 C24242 58.8472 45.5191 34.5689 C.3 0.0 **** 0.107
24243 O24243 59.8956 46.5038 34.6552 O.3 0.0 **** -0.202
24244 C24244 58.3047 45.4032 33.1292 C.3 0.0 **** -0.106
24245 C24245 56.8139 45.0039 33.0827 C.3 0.0 **** -0.106
24246 C24246 56.4593 44.1007 34.2693 C.3 0.0 **** -0.106
24247 C24247 56.6272 44.8548 35.6045 C.3 0.0 **** -0.106
24248 C24248 55.7881 51.0057 34.8266 C.2 0.0 **** 0.0
24249 C24249 56.2857 49.7074 34.9368 C.2 0.0 **** -0.1268
24250 C24250 54.8115 53.6441 34.5361 C.2 0.0 **** 0.0
24251 C24251 53.9333 52.5634 34.8582 C.2 0.0 **** 0.042
24252 C24252 54.3954 51.2839 34.9958 C.2 0.0 **** -0.1268
24253 C24253 54.285 54.9311 34.3498 C.2 0.0 **** 0.0
24254 C24254 55.1383 55.9762 33.9724 C.2 0.0 **** 0.0
24255 C24255 56.4948 55.7356 33.8532 C.2 0.0 **** -0.1268
24256 O24256 52.5761 52.7914 35.0281 O.3 0.0 **** -0.0685
24257 C24257 52.0581 54.0616 34.9191 C.2 0.0 **** 0.0265
24258 C24258 52.8733 55.1473 34.5559 C.2 0.0 **** 0.0
24259 C24259 54.6143 57.3504 33.6499 C.3 0.0 **** -0.053
24260 C24260 53.1961 57.6318 34.1981 C.3 0.0 **** -0.053
24261 C24261 52.3258 56.4283 34.4453 C.2 0.0 **** 0.0
24262 C24262 52.4238 58.6163 33.2997 C.3 0.0 **** -0.053
24263 C24263 53.3579 59.7211 32.82 C.3 0.0 **** -0.106
24264 C24264 54.4167 59.1232 31.8601 C.3 0.0 **** -0.106
24265 C24265 54.676 57.6303 32.1374 C.3 0.0 **** -0.106
24266 C24266 50.9599 56.6389 34.6874 C.2 0.0 **** 0.0
24267 C24267 50.148 55.5518 35.1186 C.2 0.0 **** 0.0
24268 C24268 50.6941 54.2338 35.2215 C.2 0.0 **** 0.0
24269 C24269 51.1483 59.0131 33.9912 C.2 0.0 **** 0.0
24270 C24270 50.3968 57.9572 34.5781 C.2 0.0 **** 0.0
24271 C24271 69.9719 48.8627 28.7061 C.3 0.0 **** -0.053
24272 C24272 68.5682 49.4357 28.9414 C.3 0.0 **** -0.159
24273 C24273 70.5456 49.3873 27.3859 C.3 0.0 **** -0.159
24274 O24274 63.0363 56.2604 33.5351 O.3 0.0 **** -0.57
24275 C24275 49.8471 53.1595 35.6488 C.2 0.0 **** -0.1268
24276 C24276 48.5428 53.3902 35.9875 C.2 0.0 **** -0.1268
24277 C24277 47.9746 54.7063 35.9391 C.2 0.0 **** 0.0
24278 C24278 48.7967 55.7914 35.4937 C.2 0.0 **** 0.0
24279 C24279 48.2674 57.1088 35.459 C.2 0.0 **** 0.0
24280 C24280 46.9328 57.3496 35.8618 C.2 0.0 **** 0.0
24281 C24281 46.116 56.2578 36.3004 C.2 0.0 **** 0.0
24282 C24282 46.6554 54.9616 36.3273 C.2 0.0 **** -0.1268
24283 C24283 44.7703 56.5207 36.704 C.2 0.0 **** -0.1268
24284 C24284 44.2634 57.7929 36.6762 C.2 0.0 **** -0.1268
24285 C24285 45.0588 58.8963 36.2399 C.2 0.0 **** 0.0
24286 C24286 46.3991 58.6719 35.827 C.2 0.0 **** 0.0
24287 C24287 47.1994 59.7649 35.376 C.2 0.0 **** 0.0
24288 C24288 48.5386 59.5176 34.9608 C.2 0.0 **** 0.0
24289 C24289 49.0745 58.1988 35.0045 C.2 0.0 **** 0.0
24290 C24290 46.6611 61.085 35.3245 C.2 0.0 **** 0.0
24291 C24291 45.3224 61.2735 35.7672 C.2 0.0 **** -0.1268
24292 C24292 44.5551 60.2159 36.209 C.2 0.0 **** -0.1268
24293 C24293 50.6423 60.2936 33.9934 C.2 0.0 **** -0.1268
24294 C24294 49.3542 60.5918 34.5103 C.2 0.0 **** 0.0
24295 C24295 47.5053 62.1713 34.871 C.2 0.0 **** 0.052
24296 C24296 48.8441 61.9269 34.5367 C.2 0.0 **** 0.0
24297 C24297 49.7948 63.0535 34.198 C.3 0.0 **** -0.106
24298 C24298 49.3561 64.3778 34.8111 C.3 0.0 **** -0.106
24299 C24299 47.9375 64.6723 34.3526 C.3 0.0 **** -0.086
24300 C24300 46.9576 63.545 34.6535 C.2 0.0 **** 0.347
24301 O24301 45.7544 63.8097 34.6429 O.2 0.0 **** -0.419
24302 H24302 69.8682 42.5611 28.2858 H 0.0 **** 0.053
24303 H24303 69.2361 42.7144 29.9476 H 0.0 **** 0.053
24304 H24304 72.1075 42.4577 29.0376 H 0.0 **** 0.053
24305 H24305 71.4507 43.1702 30.5187 H 0.0 **** 0.053
24306 H24306 72.0071 40.2425 29.88 H 0.0 **** 0.053
24307 H24307 70.8891 39.6161 31.993 H 0.0 **** 0.053
24308 H24308 68.4655 40.5757 30.9889 H 0.0 **** 0.053
24309 H24309 69.323 39.1353 30.3589 H 0.0 **** 0.053
24310 H24310 69.5888 42.3467 32.0632 H 0.0 **** 0.053
24311 H24311 71.6519 43.2474 32.6428 H 0.0 **** 0.053
24312 H24312 72.5177 40.4441 33.4767 H 0.0 **** 0.053
24313 H24313 73.5529 41.8785 33.5373 H 0.0 **** 0.053
24314 H24314 73.7355 40.3742 31.4046 H 0.0 **** 0.053
24315 H24315 73.6027 42.1148 31.145 H 0.0 **** 0.053
24316 H24316 70.0859 43.3846 35.9319 H 0.0 **** 0.053
24317 H24317 69.0155 41.3845 35.7087 H 0.0 **** 0.053
24318 H24318 68.5455 40.4112 33.2494 H 0.0 **** 0.053
24319 H24319 70.0601 40.1632 34.1295 H 0.0 **** 0.053
24320 H24320 69.7893 44.1194 32.9965 H 0.0 **** 0.053
24321 H24321 63.8766 43.5861 35.1172 H 0.0 **** 0.053
24322 H24322 64.3746 42.7603 33.6424 H 0.0 **** 0.053
24323 H24323 64.4676 41.1456 35.4984 H 0.0 **** 0.053
24324 H24324 65.488 42.2437 36.4544 H 0.0 **** 0.053
24325 H24325 66.2433 40.9314 33.7861 H 0.0 **** 0.053
24326 H24326 66.9213 40.5171 35.3606 H 0.0 **** 0.053
24327 H24327 72.5002 46.999 36.3143 H 0.0 **** 0.053
24328 H24328 73.7016 46.2687 35.2808 H 0.0 **** 0.053
24329 H24329 72.0179 44.4728 35.5674 H 0.0 **** 0.1268
24330 H24330 74.0867 48.8221 35.0475 H 0.0 **** 0.053
24331 H24331 74.2599 48.3365 33.3516 H 0.0 **** 0.053
24332 H24332 73.7196 50.761 33.4097 H 0.0 **** 0.053
24333 H24333 72.318 50.4566 34.4549 H 0.0 **** 0.053
24334 H24334 70.8589 47.2113 30.8679 H 0.0 **** 0.053
24335 H24335 69.5094 48.255 31.2476 H 0.0 **** 0.053
24336 H24336 71.953 48.8796 29.5417 H 0.0 **** 0.053
24337 H24337 70.0032 50.8687 30.7861 H 0.0 **** 0.053
24338 H24338 71.0969 51.2776 29.4493 H 0.0 **** 0.053
24339 H24339 72.0241 51.8284 31.7846 H 0.0 **** 0.053
24340 H24340 73.0728 50.8016 30.8153 H 0.0 **** 0.053
24341 H24341 69.1664 49.1853 33.1661 H 0.0 **** 0.1268
24342 H24342 65.1371 52.6455 32.9317 H 0.0 **** 0.1268
24343 H24343 63.3286 54.1706 33.1062 H 0.0 **** 0.1268
24344 H24344 61.8142 46.4383 34.4736 H 0.0 **** 0.1268
24345 H24345 58.9362 57.2581 32.0329 H 0.0 **** 0.053
24346 H24346 61.1035 56.6307 31.6696 H 0.0 **** 0.053
24347 H24347 61.4167 56.8611 34.6761 H 0.0 **** 0.053
24348 H24348 62.0419 58.9917 33.3586 H 0.0 **** 0.053
24349 H24349 62.755 58.3281 31.8863 H 0.0 **** 0.053
24350 H24350 60.5244 58.9422 30.6856 H 0.0 **** 0.053
24351 H24351 61.4788 60.3449 31.1773 H 0.0 **** 0.053
24352 H24352 60.1092 60.8212 33.0299 H 0.0 **** 0.053
24353 H24353 59.7732 59.0173 34.3699 H 0.0 **** 0.053
24354 H24354 57.1831 58.5802 32.8292 H 0.0 **** 0.053
24355 H24355 57.436 58.5218 34.5729 H 0.0 **** 0.053
24356 H24356 57.9005 61.0186 34.5357 H 0.0 **** 0.053
24357 H24357 56.2705 60.6393 33.9621 H 0.0 **** 0.053
24358 H24358 57.9943 62.2557 32.5441 H 0.0 **** 0.053
24359 H24359 56.7504 61.2842 31.745 H 0.0 **** 0.053
24360 H24360 58.2626 59.779 31.0283 H 0.0 **** 0.353
24361 H24361 58.2208 46.0065 36.5671 H 0.0 **** 0.053
24362 H24362 59.3308 44.5837 34.8845 H 0.0 **** 0.053
24363 H24363 58.452 46.372 32.6302 H 0.0 **** 0.053
24364 H24364 58.9191 44.6663 32.5915 H 0.0 **** 0.053
24365 H24365 56.5951 44.4986 32.1306 H 0.0 **** 0.053
24366 H24366 56.1903 45.9092 33.1242 H 0.0 **** 0.053
24367 H24367 57.1196 43.2166 34.2552 H 0.0 **** 0.053
24368 H24368 55.4295 43.7238 34.1848 H 0.0 **** 0.053
24369 H24369 56.8115 44.1449 36.4247 H 0.0 **** 0.053
24370 H24370 55.7074 45.4044 35.8569 H 0.0 **** 0.053
24371 H24371 55.6058 48.8883 35.1659 H 0.0 **** 0.1268
24372 H24372 53.7058 50.4721 35.2299 H 0.0 **** 0.1268
24373 H24373 57.1321 56.5606 33.5767 H 0.0 **** 0.1268
24374 H24374 55.2935 58.0793 34.1178 H 0.0 **** 0.053
24375 H24375 53.3119 58.1305 35.1811 H 0.0 **** 0.053
24376 H24376 52.0996 58.0442 32.407 H 0.0 **** 0.053
24377 H24377 53.8432 60.1764 33.7001 H 0.0 **** 0.053
24378 H24378 52.8025 60.5217 32.3111 H 0.0 **** 0.053
24379 H24379 55.358 59.6804 31.968 H 0.0 **** 0.053
24380 H24380 54.088 59.2504 30.8172 H 0.0 **** 0.053
24381 H24381 55.66 57.3278 31.7483 H 0.0 **** 0.053
24382 H24382 53.9329 56.9972 31.6272 H 0.0 **** 0.053
24383 H24383 69.8833 47.7639 28.6246 H 0.0 **** 0.053
24384 H24384 67.8785 49.1019 28.1518 H 0.0 **** 0.053
24385 H24385 68.5924 50.5362 28.9182 H 0.0 **** 0.053
24386 H24386 68.1461 49.1316 29.9113 H 0.0 **** 0.053
24387 H24387 71.5395 48.9566 27.186 H 0.0 **** 0.053
24388 H24388 70.6511 50.4835 27.4143 H 0.0 **** 0.053
24389 H24389 69.8855 49.1396 26.5407 H 0.0 **** 0.053
24390 H24390 63.408 55.8407 34.3262 H 0.0 **** 0.41
24391 H24391 50.2664 52.1552 35.7071 H 0.0 **** 0.1268
24392 H24392 47.9063 52.5668 36.3161 H 0.0 **** 0.1268
24393 H24393 46.03 54.1336 36.6683 H 0.0 **** 0.1268
24394 H24394 44.1561 55.6824 37.0377 H 0.0 **** 0.1268
24395 H24395 43.237 57.9886 36.9926 H 0.0 **** 0.1268
24396 H24396 44.9049 62.2743 35.7403 H 0.0 **** 0.1268
24397 H24397 43.5318 60.3948 36.5462 H 0.0 **** 0.1268
24398 H24398 51.2337 61.0876 33.5455 H 0.0 **** 0.1268
24399 H24399 50.8016 62.7946 34.5546 H 0.0 **** 0.053
24400 H24400 49.8707 63.1618 33.0994 H 0.0 **** 0.053
24401 H24401 50.0451 65.1858 34.5219 H 0.0 **** 0.053
24402 H24402 49.3858 64.2936 35.9098 H 0.0 **** 0.053
24403 H24403 47.9236 64.8103 33.2555 H 0.0 **** 0.053
24404 H24404 47.5171 65.5892 34.7895 H 0.0 **** 0.053
24405 C24405 53.6148 33.141 45.3463 C.3 0.0 **** 0.054
24406 C24406 53.9181 31.6267 45.2605 C.3 0.0 **** -0.106
24407 C24407 53.3589 31.0329 43.9511 C.3 0.0 **** -0.053
24408 C24408 51.9746 31.6426 43.6762 C.3 0.0 **** -0.053
24409 C24409 52.1132 33.1799 43.5261 C.3 0.0 **** 0.054
24410 O24410 53.3435 33.6915 44.0529 O.3 0.0 **** -0.32
24411 C24411 50.9666 31.2553 44.7788 C.3 0.0 **** -0.053
24412 C24412 51.1696 29.7975 45.2821 C.3 0.0 **** 0.107
24413 C24413 51.8725 28.9521 44.2337 C.3 0.0 **** -0.106
24414 C24414 53.294 29.4843 43.9764 C.3 0.0 **** -0.106
24415 O24415 49.9197 29.1586 45.5849 O.3 0.0 **** -0.32
24416 C24416 49.021 30.0047 46.3222 C.3 0.0 **** 0.107
24417 C24417 48.4739 31.0731 45.3587 C.3 0.0 **** -0.053
24418 C24418 49.5357 31.4103 44.271 C.3 0.0 **** -0.106
24419 C24419 47.8992 32.2728 46.0362 C.2 0.0 **** 0.0
24420 C24420 48.006 32.5023 47.3987 C.2 0.0 **** 0.0
24421 C24421 48.8113 31.6559 48.2427 C.2 0.0 **** 0.0
24422 C24422 49.6405 30.558 47.6152 C.3 0.0 **** -0.053
24423 C24423 48.9807 31.9247 49.5897 C.2 0.0 **** 0.0
24424 C24424 48.2977 33.0444 50.1937 C.2 0.0 **** 0.0
24425 C24425 47.4699 33.844 49.3485 C.2 0.0 **** 0.232
24426 C24426 47.3206 33.6261 48.0069 C.2 0.0 **** 0.0
24427 C24427 46.4688 34.5442 47.1676 C.3 0.0 **** -0.106
24428 C24428 45.9429 33.8384 45.9172 C.3 0.0 **** -0.106
24429 C24429 47.1081 33.2003 45.1572 C.3 0.0 **** -0.106
24430 O24430 46.798 34.9284 49.8794 O.3 0.0 **** -0.464
24431 C24431 46.8196 35.1714 51.2314 C.2 0.0 **** 0.232
24432 C24432 47.6544 34.4484 52.1027 C.2 0.0 **** 0.0
24433 C24433 48.4424 33.3742 51.5467 C.2 0.0 **** 0.0
24434 C24434 50.0097 29.4832 48.6102 C.2 0.0 **** 0.0
24435 C24435 50.4465 29.9508 49.9232 C.2 0.0 **** 0.0
24436 C24436 49.8683 31.1162 50.4302 C.2 0.0 **** 0.0
24437 C24437 51.3206 29.0594 50.6834 C.2 0.0 **** 0.0
24438 C24438 51.237 27.7141 50.4683 C.2 0.0 **** 0.0
24439 C24439 50.3824 27.1478 49.3819 C.3 0.0 **** -0.106
24440 C24440 49.9643 28.1561 48.3571 C.2 0.0 **** -0.1268
24441 C24441 52.0506 26.7745 51.3137 C.3 0.0 **** -0.106
24442 C24442 52.2543 27.3609 52.7137 C.3 0.0 **** -0.106
24443 C24443 52.8108 28.7589 52.5998 C.2 0.0 **** 0.0
24444 C24444 52.3673 29.5611 51.6029 C.2 0.0 **** 0.0
24445 C24445 53.0185 30.8899 51.296 C.3 0.0 **** -0.106
24446 C24446 54.2998 31.1461 52.0977 C.3 0.0 **** -0.053
24447 C24447 54.0868 30.7041 53.5497 C.3 0.0 **** -0.106
24448 C24448 53.8416 29.1961 53.599 C.3 0.0 **** -0.106
24449 C24449 49.3323 32.5718 52.335 C.2 0.0 **** -0.012
24450 C24450 49.9888 31.4894 51.8028 C.2 0.0 **** -0.1268
24451 C24451 47.5999 34.8004 53.4755 C.2 0.0 **** 0.0
24452 C24452 48.4428 34.1397 54.4395 C.2 0.0 **** -0.012
24453 S24453 49.6799 32.9715 54.0027 S.2 0.0 **** 0.024
24454 C24454 48.3642 34.4456 55.7741 C.2 0.0 **** -0.1268
24455 C24455 47.45 35.4198 56.2548 C.2 0.0 **** 0.0
24456 C24456 46.6175 36.1227 55.3307 C.2 0.0 **** 0.0
24457 C24457 46.6998 35.8225 53.943 C.2 0.0 **** 0.0
24458 C24458 45.729 37.1172 55.8176 C.2 0.0 **** 0.0
24459 C24459 45.6467 37.3783 57.2198 C.2 0.0 **** 0.0
24460 C24460 46.4464 36.6059 58.1377 C.2 0.0 **** 0.0
24461 C24461 47.3627 35.6776 57.6194 C.2 0.0 **** -0.1268
24462 C24462 46.2692 36.8072 59.5387 C.2 0.0 **** 0.0
24463 C24463 45.4632 37.8403 59.9784 C.2 0.0 **** 0.042
24464 C24464 44.7418 38.7084 59.1054 C.2 0.0 **** 0.0
24465 C24465 44.7971 38.4122 57.7145 C.2 0.0 **** 0.0
24466 C24466 45.8745 36.539 53.0119 C.2 0.0 **** 0.0
24467 C24467 45.9707 36.171 51.6539 C.2 0.0 **** -0.1268
24468 C24468 44.9217 37.8554 54.8904 C.2 0.0 **** 0.0
24469 C24469 44.9874 37.5778 53.4921 C.2 0.0 **** 0.0
24470 C24470 44.0079 39.1685 56.7855 C.2 0.0 **** 0.0
24471 C24471 44.0629 38.8761 55.3978 C.2 0.0 **** 0.0
24472 C24472 43.9592 39.8268 59.5704 C.2 0.0 **** 0.0
24473 C24473 43.143 40.5334 58.6374 C.2 0.0 **** 0.0
24474 C24474 43.1602 40.2046 57.2585 C.2 0.0 **** 0.0
24475 O24475 45.2988 37.9538 61.3421 O.3 0.0 **** -0.202
24476 C24476 46.5231 38.0103 62.1277 C.3 0.0 **** 0.107
24477 C24477 47.5605 36.9672 61.6422 C.3 0.0 **** -0.053
24478 C24478 46.8358 35.9957 60.6995 C.3 0.0 **** 0.107
24479 C24479 48.2637 36.2872 62.8232 C.3 0.0 **** -0.106
24480 C24480 48.5834 37.3431 63.8866 C.3 0.0 **** -0.106
24481 C24481 47.2944 37.809 64.5704 C.3 0.0 **** 0.134
24482 C24482 46.0822 37.8358 63.58 C.3 0.0 **** -0.053
24483 C24483 45.0974 38.9445 63.9868 C.3 0.0 **** -0.106
24484 C24484 44.9779 39.0565 65.5058 C.3 0.0 **** -0.106
24485 C24485 46.3567 39.4298 66.1193 C.3 0.0 **** 0.081
24486 N24486 47.5043 39.0774 65.2696 N.3 0.0 **** -0.727
24487 C24487 44.1495 38.3648 52.6252 C.2 0.0 **** 0.042
24488 C24488 43.2795 39.3205 53.1272 C.2 0.0 **** 0.042
24489 C24489 43.2302 39.6253 54.5121 C.2 0.0 **** 0.0
24490 O24490 42.4298 40.0498 52.328 O.3 0.0 **** -0.202
24491 C24491 42.2616 39.5326 50.9902 C.3 0.0 **** 0.107
24492 C24492 43.6451 39.2057 50.4537 C.3 0.0 **** 0.107
24493 O24493 44.2153 38.1604 51.2651 O.3 0.0 **** -0.202
24494 C24494 44.5668 40.4421 50.4041 C.3 0.0 **** -0.106
24495 C24495 43.7854 41.7637 50.2401 C.3 0.0 **** -0.106
24496 C24496 42.5109 41.5393 49.4185 C.3 0.0 **** -0.106
24497 C24497 41.5407 40.593 50.1552 C.3 0.0 **** -0.106
24498 C24498 42.3345 40.9471 56.3509 C.2 0.0 **** 0.0
24499 C24499 42.381 40.6329 54.9927 C.2 0.0 **** -0.1268
24500 C24500 42.3144 41.5918 59.1047 C.2 0.0 **** 0.0
24501 C24501 41.4793 42.2888 58.1775 C.2 0.0 **** 0.042
24502 C24502 41.4858 41.9874 56.8437 C.2 0.0 **** -0.1268
24503 C24503 42.3161 41.9721 60.4551 C.2 0.0 **** 0.0
24504 C24504 43.1816 41.3299 61.3503 C.2 0.0 **** 0.0
24505 C24505 43.9726 40.2885 60.9009 C.2 0.0 **** -0.1268
24506 O24506 40.644 43.3053 58.6153 O.3 0.0 **** -0.0685
24507 C24507 40.5832 43.6393 59.9488 C.2 0.0 **** 0.0265
24508 C24508 41.4204 43.0164 60.8901 C.2 0.0 **** 0.0
24509 C24509 43.3079 41.7699 62.7847 C.3 0.0 **** -0.053
24510 C24510 42.1256 42.629 63.2897 C.3 0.0 **** -0.053
24511 C24511 41.3464 43.3745 62.2389 C.2 0.0 **** 0.0
24512 C24512 42.5719 43.6324 64.3699 C.3 0.0 **** -0.053
24513 C24513 43.572 42.9697 65.3102 C.3 0.0 **** -0.106
24514 C24514 44.8839 42.6703 64.5428 C.3 0.0 **** -0.106
24515 C24515 44.6457 42.4905 63.0315 C.3 0.0 **** -0.106
24516 C24516 40.4438 44.362 62.6617 C.2 0.0 **** 0.0
24517 C24517 39.5506 44.9461 61.7194 C.2 0.0 **** 0.0
24518 C24518 39.6269 44.5978 60.3342 C.2 0.0 **** 0.0
24519 C24519 41.3542 44.2814 64.9686 C.2 0.0 **** 0.0
24520 C24520 40.364 44.728 64.0499 C.2 0.0 **** 0.0
24521 C24521 54.7615 32.6116 51.9552 C.3 0.0 **** -0.053
24522 C24522 53.8788 33.5894 52.7419 C.3 0.0 **** -0.159
24523 C24523 56.2287 32.7709 52.367 C.3 0.0 **** -0.159
24524 O24524 47.7277 34.9202 60.4016 O.3 0.0 **** -0.57
24525 C24525 38.7198 45.2117 59.4099 C.2 0.0 **** -0.1268
24526 C24526 37.7698 46.0936 59.8444 C.2 0.0 **** -0.1268
24527 C24527 37.6356 46.4315 61.2319 C.2 0.0 **** 0.0
24528 C24528 38.5459 45.8468 62.1705 C.2 0.0 **** 0.0
24529 C24529 38.4207 46.1447 63.5533 C.2 0.0 **** 0.0
24530 C24530 37.4015 47.0165 64.0034 C.2 0.0 **** 0.0
24531 C24531 36.499 47.6013 63.0572 C.2 0.0 **** 0.0
24532 C24532 36.6381 47.2964 61.6936 C.2 0.0 **** -0.1268
24533 C24533 35.4754 48.4792 63.5308 C.2 0.0 **** -0.1268
24534 C24534 35.3519 48.7603 64.8657 C.2 0.0 **** -0.1268
24535 C24535 36.2422 48.1908 65.8266 C.2 0.0 **** 0.0
24536 C24536 37.2745 47.3176 65.3918 C.2 0.0 **** 0.0
24537 C24537 38.1789 46.7531 66.3416 C.2 0.0 **** 0.0
24538 C24538 39.2104 45.8848 65.8842 C.2 0.0 **** 0.0
24539 C24539 39.3313 45.5768 64.4991 C.2 0.0 **** 0.0
24540 C24540 38.0634 47.0671 67.7282 C.2 0.0 **** 0.0
24541 C24541 37.0034 47.9276 68.1277 C.2 0.0 **** -0.1268
24542 C24542 36.1274 48.465 67.2078 C.2 0.0 **** -0.1268
24543 C24543 41.2066 44.5447 66.312 C.2 0.0 **** -0.1268
24544 C24544 40.1207 45.3096 66.813 C.2 0.0 **** 0.0
24545 C24545 38.9923 46.4681 68.6646 C.2 0.0 **** 0.052
24546 C24546 39.9555 45.5566 68.2113 C.2 0.0 **** 0.0
24547 C24547 40.8471 44.8023 69.1724 C.3 0.0 **** -0.106
24548 C24548 40.2223 44.678 70.5566 C.3 0.0 **** -0.106
24549 C24549 39.8924 46.0729 71.0612 C.3 0.0 **** -0.086
24550 C24550 39.0173 46.8719 70.1035 C.2 0.0 **** 0.347
24551 O24551 38.419 47.8514 70.5512 O.2 0.0 **** -0.419
24552 H24552 54.4716 33.7043 45.7407 H 0.0 **** 0.053
24553 H24553 52.7485 33.3274 46.0121 H 0.0 **** 0.053
24554 H24554 55.0026 31.4425 45.3016 H 0.0 **** 0.053
24555 H24555 53.4718 31.1134 46.1269 H 0.0 **** 0.053
24556 H24556 54.0297 31.3518 43.1401 H 0.0 **** 0.053
24557 H24557 51.5967 31.2376 42.7226 H 0.0 **** 0.053
24558 H24558 51.2625 33.6819 44.0327 H 0.0 **** 0.053
24559 H24559 52.1106 33.4793 42.4686 H 0.0 **** 0.053
24560 H24560 51.1102 31.9493 45.6224 H 0.0 **** 0.053
24561 H24561 51.7885 29.8022 46.2002 H 0.0 **** 0.053
24562 H24562 51.2753 28.9806 43.308 H 0.0 **** 0.053
24563 H24563 51.9024 27.9043 44.5654 H 0.0 **** 0.053
24564 H24564 53.6609 29.076 43.0227 H 0.0 **** 0.053
24565 H24565 53.9738 29.1097 44.7593 H 0.0 **** 0.053
24566 H24566 48.197 29.3406 46.6221 H 0.0 **** 0.053
24567 H24567 47.6359 30.6032 44.8091 H 0.0 **** 0.053
24568 H24568 49.3774 32.4293 43.8879 H 0.0 **** 0.053
24569 H24569 49.4056 30.7233 43.4199 H 0.0 **** 0.053
24570 H24570 50.5925 31.0636 47.3549 H 0.0 **** 0.053
24571 H24571 45.6426 34.9451 47.7723 H 0.0 **** 0.053
24572 H24572 47.074 35.4178 46.8598 H 0.0 **** 0.053
24573 H24573 45.4018 34.55 45.275 H 0.0 **** 0.053
24574 H24574 45.2325 33.05 46.2143 H 0.0 **** 0.053
24575 H24575 47.7628 34.0045 44.7655 H 0.0 **** 0.053
24576 H24576 46.7486 32.6487 44.2721 H 0.0 **** 0.053
24577 H24577 49.481 26.6684 49.8235 H 0.0 **** 0.053
24578 H24578 50.9178 26.3051 48.9022 H 0.0 **** 0.053
24579 H24579 49.6224 27.7836 47.3929 H 0.0 **** 0.1268
24580 H24580 51.5568 25.7908 51.3619 H 0.0 **** 0.053
24581 H24581 53.0365 26.6109 50.8328 H 0.0 **** 0.053
24582 H24582 52.9309 26.7312 53.3123 H 0.0 **** 0.053
24583 H24583 51.282 27.3839 53.2426 H 0.0 **** 0.053
24584 H24584 53.2445 30.921 50.2152 H 0.0 **** 0.053
24585 H24585 52.3123 31.718 51.4603 H 0.0 **** 0.053
24586 H24586 55.0974 30.5062 51.676 H 0.0 **** 0.053
24587 H24587 53.2071 31.2268 53.9596 H 0.0 **** 0.053
24588 H24588 54.9506 30.9744 54.1763 H 0.0 **** 0.053
24589 H24589 53.5145 28.8843 54.6078 H 0.0 **** 0.053
24590 H24590 54.7889 28.6515 53.4181 H 0.0 **** 0.053
24591 H24591 50.5969 30.866 52.4579 H 0.0 **** 0.1268
24592 H24592 49.0026 33.9329 56.4972 H 0.0 **** 0.1268
24593 H24593 48.0479 35.1638 58.2862 H 0.0 **** 0.1268
24594 H24594 45.3708 36.6603 50.9008 H 0.0 **** 0.1268
24595 H24595 46.9374 39.0282 62.0025 H 0.0 **** 0.053
24596 H24596 48.3245 37.4866 61.042 H 0.0 **** 0.053
24597 H24597 45.9681 35.5919 61.2611 H 0.0 **** 0.053
24598 H24598 47.6106 35.5075 63.2514 H 0.0 **** 0.053
24599 H24599 49.1681 35.7788 62.4659 H 0.0 **** 0.053
24600 H24600 49.0691 38.2094 63.4021 H 0.0 **** 0.053
24601 H24601 49.2862 36.9746 64.6464 H 0.0 **** 0.053
24602 H24602 47.0447 37.073 65.3537 H 0.0 **** 0.053
24603 H24603 45.5658 36.8628 63.6416 H 0.0 **** 0.053
24604 H24604 45.4669 39.9061 63.5906 H 0.0 **** 0.053
24605 H24605 44.1197 38.7714 63.5169 H 0.0 **** 0.053
24606 H24606 44.6294 38.0929 65.9109 H 0.0 **** 0.053
24607 H24607 44.2225 39.8097 65.7812 H 0.0 **** 0.053
24608 H24608 46.4789 38.9237 67.0919 H 0.0 **** 0.053
24609 H24609 46.41 40.5112 66.3143 H 0.0 **** 0.053
24610 H24610 47.6694 39.8151 64.5836 H 0.0 **** 0.353
24611 H24611 41.6719 38.6032 51.0588 H 0.0 **** 0.053
24612 H24612 43.5446 38.7488 49.459 H 0.0 **** 0.053
24613 H24613 45.157 40.4649 51.3317 H 0.0 **** 0.053
24614 H24614 45.2752 40.3063 49.5738 H 0.0 **** 0.053
24615 H24615 44.4282 42.5173 49.7621 H 0.0 **** 0.053
24616 H24616 43.5076 42.151 51.2315 H 0.0 **** 0.053
24617 H24617 42.7868 41.1041 48.4427 H 0.0 **** 0.053
24618 H24618 42.0059 42.4927 49.2046 H 0.0 **** 0.053
24619 H24619 40.8773 40.0892 49.4363 H 0.0 **** 0.053
24620 H24620 40.8955 41.1596 50.844 H 0.0 **** 0.053
24621 H24621 41.7532 41.1812 54.2921 H 0.0 **** 0.1268
24622 H24622 40.8494 42.5401 56.1518 H 0.0 **** 0.1268
24623 H24623 44.6186 39.8005 61.6135 H 0.0 **** 0.1268
24624 H24624 43.3374 40.8616 63.4057 H 0.0 **** 0.053
24625 H24625 41.4019 41.9459 63.7774 H 0.0 **** 0.053
24626 H24626 43.1029 44.4508 63.8431 H 0.0 **** 0.053
24627 H24627 43.1254 42.0377 65.6964 H 0.0 **** 0.053
24628 H24628 43.7856 43.6067 66.1803 H 0.0 **** 0.053
24629 H24629 45.3395 41.756 64.9487 H 0.0 **** 0.053
24630 H24630 45.6051 43.4859 64.7054 H 0.0 **** 0.053
24631 H24631 45.4633 41.9124 62.5751 H 0.0 **** 0.053
24632 H24632 44.6273 43.463 62.5145 H 0.0 **** 0.053
24633 H24633 54.6809 32.8655 50.8824 H 0.0 **** 0.053
24634 H24634 54.1529 34.6292 52.5084 H 0.0 **** 0.053
24635 H24635 54.0143 33.445 53.8249 H 0.0 **** 0.053
24636 H24636 52.8083 33.4628 52.5197 H 0.0 **** 0.053
24637 H24637 56.8795 32.0995 51.7848 H 0.0 **** 0.053
24638 H24638 56.3628 32.5315 53.4339 H 0.0 **** 0.053
24639 H24639 56.5733 33.8048 52.2133 H 0.0 **** 0.053
24640 H24640 47.2146 34.2392 59.9399 H 0.0 **** 0.41
24641 H24641 38.7966 44.9543 58.3536 H 0.0 **** 0.1268
24642 H24642 37.0802 46.5529 59.1339 H 0.0 **** 0.1268
24643 H24643 35.9435 47.7405 60.9771 H 0.0 **** 0.1268
24644 H24644 34.7918 48.919 62.8023 H 0.0 **** 0.1268
24645 H24645 34.5634 49.426 65.2222 H 0.0 **** 0.1268
24646 H24646 36.9006 48.1671 69.1807 H 0.0 **** 0.1268
24647 H24647 35.3214 49.119 67.5476 H 0.0 **** 0.1268
24648 H24648 41.9705 44.1904 66.9988 H 0.0 **** 0.1268
24649 H24649 41.0502 43.8018 68.7654 H 0.0 **** 0.053
24650 H24650 41.8262 45.3114 69.253 H 0.0 **** 0.053
24651 H24651 40.9047 44.1556 71.2442 H 0.0 **** 0.053
24652 H24652 39.3009 44.0773 70.4834 H 0.0 **** 0.053
24653 H24653 40.8257 46.6527 71.1852 H 0.0 **** 0.053
24654 H24654 39.388 46.0777 72.0379 H 0.0 **** 0.053
24655 C24655 43.3099 51.7554 45.0611 C.3 0.0 **** 0.054
24656 C24656 41.8549 51.2676 45.2537 C.3 0.0 **** -0.106
24657 C24657 40.8539 52.383 44.8883 C.3 0.0 **** -0.053
24658 C24658 41.3819 53.7241 45.4232 C.3 0.0 **** -0.053
24659 C24659 42.7548 54.0307 44.7704 C.3 0.0 **** 0.054
24660 O24660 43.3691 52.8802 44.1773 O.3 0.0 **** -0.32
24661 C24661 41.4604 53.7168 46.9645 C.3 0.0 **** -0.053
24662 C24662 40.2742 52.9489 47.6149 C.3 0.0 **** 0.107
24663 C24663 39.0791 52.898 46.6782 C.3 0.0 **** -0.106
24664 C24664 39.4224 52.0964 45.4094 C.3 0.0 **** -0.106
24665 O24665 39.8406 53.5707 48.8345 O.3 0.0 **** -0.32
24666 C24666 40.9325 53.9634 49.6833 C.3 0.0 **** 0.107
24667 C24667 41.6048 55.1972 49.0551 C.3 0.0 **** -0.053
24668 C24668 41.4826 55.1445 47.5037 C.3 0.0 **** -0.106
24669 C24669 42.9911 55.456 49.5447 C.2 0.0 **** 0.0
24670 C24670 43.6908 54.5733 50.3521 C.2 0.0 **** 0.0
24671 C24671 43.1716 53.265 50.6621 C.2 0.0 **** 0.0
24672 C24672 41.8873 52.8043 50.01 C.3 0.0 **** -0.053
24673 C24673 43.8997 52.3529 51.4059 C.2 0.0 **** 0.0
24674 C24674 45.1895 52.7226 51.9393 C.2 0.0 **** 0.0
24675 C24675 45.6658 54.0389 51.6572 C.2 0.0 **** 0.232
24676 C24676 44.9862 54.9429 50.8888 C.2 0.0 **** 0.0
24677 C24677 45.5759 56.2981 50.5912 C.3 0.0 **** -0.106
24678 C24678 44.4904 57.3285 50.2781 C.3 0.0 **** -0.106
24679 C24679 43.5728 56.792 49.1769 C.3 0.0 **** -0.106
24680 O24680 46.896 54.4384 52.1432 O.3 0.0 **** -0.464
24681 C24681 47.6081 53.6293 52.995 C.2 0.0 **** 0.232
24682 C24682 47.2125 52.3073 53.2678 C.2 0.0 **** 0.0
24683 C24683 45.9778 51.8379 52.6853 C.2 0.0 **** 0.0
24684 C24684 41.2281 51.6836 50.7786 C.2 0.0 **** 0.0
24685 C24685 42.1179 50.6321 51.2644 C.2 0.0 **** 0.0
24686 C24686 43.411 50.9926 51.6482 C.2 0.0 **** 0.0
24687 C24687 41.5236 49.315 51.4846 C.2 0.0 **** 0.0
24688 C24688 40.1959 49.2343 51.7907 C.2 0.0 **** 0.0
24689 C24689 39.3133 50.4391 51.7653 C.3 0.0 **** -0.106
24690 C24690 39.902 51.6016 51.0279 C.2 0.0 **** -0.1268
24691 C24691 39.5899 47.8996 52.1239 C.3 0.0 **** -0.106
24692 C24692 40.6317 46.9943 52.7875 C.3 0.0 **** -0.106
24693 C24693 41.8702 46.9343 51.9274 C.2 0.0 **** 0.0
24694 C24694 42.2778 48.0559 51.2873 C.2 0.0 **** 0.0
24695 C24695 43.3783 48.0306 50.2518 C.3 0.0 **** -0.106
24696 C24696 43.8513 46.6175 49.8921 C.3 0.0 **** -0.053
24697 C24697 43.9709 45.7815 51.1712 C.3 0.0 **** -0.106
24698 C24698 42.5935 45.6243 51.8152 C.3 0.0 **** -0.106
24699 C24699 45.4759 50.5097 52.8882 C.2 0.0 **** -0.012
24700 C24700 44.2477 50.123 52.4108 C.2 0.0 **** -0.1268
24701 C24701 48.0369 51.5651 54.1516 C.2 0.0 **** 0.0
24702 C24702 47.7323 50.192 54.4649 C.2 0.0 **** -0.012
24703 S24703 46.4339 49.2903 53.6988 S.2 0.0 **** 0.024
24704 C24704 48.5011 49.4824 55.3517 C.2 0.0 **** -0.1268
24705 C24705 49.6207 50.0731 55.9945 C.2 0.0 **** 0.0
24706 C24706 49.9785 51.4223 55.6894 C.2 0.0 **** 0.0
24707 C24707 49.1958 52.1634 54.7617 C.2 0.0 **** 0.0
24708 C24708 51.1183 51.994 56.3135 C.2 0.0 **** 0.0
24709 C24709 51.8697 51.2357 57.263 C.2 0.0 **** 0.0
24710 C24710 51.4463 49.9009 57.6059 C.2 0.0 **** 0.0
24711 C24711 50.3557 49.3415 56.922 C.2 0.0 **** -0.1268
24712 C24712 52.1457 49.2025 58.6345 C.2 0.0 **** 0.0
24713 C24713 53.3009 49.7494 59.1603 C.2 0.0 **** 0.042
24714 C24714 53.8264 51.017 58.7687 C.2 0.0 **** 0.0
24715 C24715 53.0474 51.7814 57.8553 C.2 0.0 **** 0.0
24716 C24716 49.5635 53.5142 54.443 C.2 0.0 **** 0.0
24717 C24717 48.7277 54.2124 53.547 C.2 0.0 **** -0.1268
24718 C24718 51.5068 53.3333 55.9793 C.2 0.0 **** 0.0
24719 C24719 50.7421 54.0983 55.0484 C.2 0.0 **** 0.0
24720 C24720 53.4514 53.1119 57.5026 C.2 0.0 **** 0.0
24721 C24721 52.6772 53.8753 56.5904 C.2 0.0 **** 0.0
24722 C24722 55.0693 51.5481 59.2714 C.2 0.0 **** 0.0
24723 C24723 55.4266 52.8912 58.9484 C.2 0.0 **** 0.0
24724 C24724 54.6232 53.6701 58.0779 C.2 0.0 **** 0.0
24725 O24725 53.9044 49.0466 60.1808 O.3 0.0 **** -0.202
24726 C24726 54.188 47.6453 59.9068 C.3 0.0 **** 0.107
24727 C24727 52.9971 46.9503 59.2005 C.3 0.0 **** -0.053
24728 C24728 51.7831 47.8839 59.3104 C.3 0.0 **** 0.107
24729 C24729 52.7586 45.5433 59.7618 C.3 0.0 **** -0.106
24730 C24730 54.1118 44.8572 59.9759 C.3 0.0 **** -0.106
24731 C24731 54.8467 45.499 61.1565 C.3 0.0 **** 0.134
24732 C24732 54.5666 47.0362 61.2557 C.3 0.0 **** -0.053
24733 C24733 55.7882 47.7541 61.8534 C.3 0.0 **** -0.106
24734 C24734 56.4442 46.9202 62.9527 C.3 0.0 **** -0.106
24735 C24735 56.9545 45.5751 62.3636 C.3 0.0 **** 0.081
24736 N24736 56.2717 45.1668 61.1266 N.3 0.0 **** -0.727
24737 C24737 51.1991 55.4331 54.7616 C.2 0.0 **** 0.042
24738 C24738 52.3073 55.9734 55.3956 C.2 0.0 **** 0.042
24739 C24739 53.092 55.2101 56.2984 C.2 0.0 **** 0.0
24740 O24740 52.7355 57.2631 55.1806 O.3 0.0 **** -0.202
24741 C24741 51.7791 58.1173 54.5164 C.3 0.0 **** 0.107
24742 C24742 51.2227 57.341 53.3346 C.3 0.0 **** 0.107
24743 O24743 50.5163 56.1892 53.8353 O.3 0.0 **** -0.202
24744 C24744 52.3183 56.9322 52.3279 C.3 0.0 **** -0.106
24745 C24745 53.5241 57.8966 52.3327 C.3 0.0 **** -0.106
24746 C24746 53.0732 59.3235 52.6646 C.3 0.0 **** -0.106
24747 C24747 52.4974 59.4005 54.0936 C.3 0.0 **** -0.106
24748 C24748 55.0235 55.012 57.7681 C.2 0.0 **** 0.0
24749 C24749 54.24 55.7588 56.8885 C.2 0.0 **** -0.1268
24750 C24750 56.6164 53.4432 59.5006 C.2 0.0 **** 0.0
24751 C24751 56.9676 54.795 59.1969 C.2 0.0 **** 0.042
24752 C24752 56.2065 55.5595 58.3566 C.2 0.0 **** -0.1268
24753 C24753 57.4567 52.6785 60.3236 C.2 0.0 **** 0.0
24754 C24754 57.1437 51.3351 60.5688 C.2 0.0 **** 0.0
24755 C24755 55.9778 50.8039 60.0486 C.2 0.0 **** -0.1268
24756 O24756 58.108 55.3618 59.7455 O.3 0.0 **** -0.0685
24757 C24757 58.9018 54.6452 60.6115 C.2 0.0 **** 0.0265
24758 C24758 58.6246 53.2983 60.9016 C.2 0.0 **** 0.0
24759 C24759 58.0646 50.4364 61.3506 C.3 0.0 **** -0.053
24760 C24760 59.0972 51.1904 62.2202 C.3 0.0 **** -0.053
24761 C24761 59.4469 52.5871 61.7796 C.2 0.0 **** 0.0
24762 C24762 60.4022 50.3876 62.3786 C.3 0.0 **** -0.053
24763 C24763 60.0806 48.9104 62.5731 C.3 0.0 **** -0.106
24764 C24764 59.4698 48.3377 61.2697 C.3 0.0 **** -0.106
24765 C24765 58.7685 49.4225 60.4305 C.3 0.0 **** -0.106
24766 C24766 60.5576 53.208 62.3706 C.2 0.0 **** 0.0
24767 C24767 60.8007 54.5896 62.128 C.2 0.0 **** 0.0
24768 C24768 59.9743 55.3239 61.2204 C.2 0.0 **** 0.0
24769 C24769 61.2742 51.0665 63.399 C.2 0.0 **** 0.0
24770 C24770 61.4016 52.4782 63.2774 C.2 0.0 **** 0.0
24771 C24771 45.1464 46.6608 49.0542 C.3 0.0 **** -0.053
24772 C24772 46.3782 47.0378 49.8876 C.3 0.0 **** -0.159
24773 C24773 45.3809 45.3306 48.3309 C.3 0.0 **** -0.159
24774 O24774 50.6357 47.1751 58.8393 O.3 0.0 **** -0.57
24775 C24775 60.2523 56.711 60.9905 C.2 0.0 **** -0.1268
24776 C24776 61.2709 57.3385 61.6522 C.2 0.0 **** -0.1268
24777 C24777 62.0908 56.6444 62.6026 C.2 0.0 **** 0.0
24778 C24778 61.8451 55.252 62.8315 C.2 0.0 **** 0.0
24779 C24779 62.6258 54.5457 63.7846 C.2 0.0 **** 0.0
24780 C24780 63.6434 55.2137 64.5054 C.2 0.0 **** 0.0
24781 C24781 63.8861 56.6049 64.266 C.2 0.0 **** 0.0
24782 C24782 63.1054 57.2873 63.3192 C.2 0.0 **** -0.1268
24783 C24783 64.9181 57.2628 65.0042 C.2 0.0 **** -0.1268
24784 C24784 65.6658 56.5817 65.928 C.2 0.0 **** -0.1268
24785 C24785 65.4431 55.1936 66.181 C.2 0.0 **** 0.0
24786 C24786 64.4291 54.5059 65.4626 C.2 0.0 **** 0.0
24787 C24787 64.2064 53.1152 65.6972 C.2 0.0 **** 0.0
24788 C24788 63.1889 52.4433 64.9622 C.2 0.0 **** 0.0
24789 C24789 62.3981 53.1521 64.0133 C.2 0.0 **** 0.0
24790 C24790 65.0031 52.4025 66.6418 C.2 0.0 **** 0.0
24791 C24791 65.9937 53.1305 67.3576 C.2 0.0 **** -0.1268
24792 C24792 66.2006 54.4756 67.1333 C.2 0.0 **** -0.1268
24793 C24793 62.0093 50.3946 64.3498 C.2 0.0 **** -0.1268
24794 C24794 62.9485 51.059 65.1815 C.2 0.0 **** 0.0
24795 C24795 64.7424 50.9946 66.8612 C.2 0.0 **** 0.052
24796 C24796 63.6889 50.3627 66.1867 C.2 0.0 **** 0.0
24797 C24797 63.2939 48.9354 66.494 C.3 0.0 **** -0.106
24798 C24798 63.7027 48.5178 67.9013 C.3 0.0 **** -0.106
24799 C24799 65.1984 48.74 68.0524 C.3 0.0 **** -0.086
24800 C24800 65.6355 50.162 67.7233 C.2 0.0 **** 0.347
24801 O24801 66.7349 50.5362 68.1345 O.2 0.0 **** -0.419
24802 H24802 43.9406 50.9798 44.6055 H 0.0 **** 0.053
24803 H24803 43.76 52.032 46.0356 H 0.0 **** 0.053
24804 H24804 41.652 50.3861 44.6263 H 0.0 **** 0.053
24805 H24805 41.7071 50.9579 46.3004 H 0.0 **** 0.053
24806 H24806 40.8308 52.4487 43.7907 H 0.0 **** 0.053
24807 H24807 40.6771 54.5201 45.1297 H 0.0 **** 0.053
24808 H24808 43.441 54.46 45.5301 H 0.0 **** 0.053
24809 H24809 42.6533 54.7538 43.949 H 0.0 **** 0.053
24810 H24810 42.4047 53.2258 47.2493 H 0.0 **** 0.053
24811 H24811 40.5828 51.9108 47.845 H 0.0 **** 0.053
24812 H24812 38.7979 53.9314 46.4187 H 0.0 **** 0.053
24813 H24813 38.2207 52.4523 47.2008 H 0.0 **** 0.053
24814 H24814 38.6831 52.3301 44.6287 H 0.0 **** 0.053
24815 H24815 39.3262 51.0183 45.6188 H 0.0 **** 0.053
24816 H24816 40.4564 54.2606 50.6293 H 0.0 **** 0.053
24817 H24817 41.0046 56.0748 49.3628 H 0.0 **** 0.053
24818 H24818 42.3012 55.7131 47.0381 H 0.0 **** 0.053
24819 H24819 40.5416 55.6313 47.2028 H 0.0 **** 0.053
24820 H24820 42.2246 52.3532 49.0547 H 0.0 **** 0.053
24821 H24821 46.2022 56.6269 51.433 H 0.0 **** 0.053
24822 H24822 46.2537 56.214 49.7207 H 0.0 **** 0.053
24823 H24823 44.9454 58.2839 49.9751 H 0.0 **** 0.053
24824 H24824 43.8926 57.5162 51.1847 H 0.0 **** 0.053
24825 H24825 44.1536 56.7086 48.2365 H 0.0 **** 0.053
24826 H24826 42.7553 57.501 48.9625 H 0.0 **** 0.053
24827 H24827 39.0635 50.7445 52.8055 H 0.0 **** 0.053
24828 H24828 38.3326 50.1605 51.3325 H 0.0 **** 0.053
24829 H24829 39.2223 52.3837 50.6937 H 0.0 **** 0.1268
24830 H24830 38.7113 48.0388 52.774 H 0.0 **** 0.053
24831 H24831 39.2227 47.4223 51.1927 H 0.0 **** 0.053
24832 H24832 40.2316 45.9808 52.9471 H 0.0 **** 0.053
24833 H24833 40.8847 47.4024 53.785 H 0.0 **** 0.053
24834 H24834 43.0087 48.5405 49.3442 H 0.0 **** 0.053
24835 H24835 44.2391 48.6317 50.5821 H 0.0 **** 0.053
24836 H24836 43.0694 46.1468 49.2672 H 0.0 **** 0.053
24837 H24837 44.6429 46.2972 51.8765 H 0.0 **** 0.053
24838 H24838 44.4118 44.7953 50.9594 H 0.0 **** 0.053
24839 H24839 42.6798 45.1776 52.8225 H 0.0 **** 0.053
24840 H24840 41.9808 44.9103 51.2309 H 0.0 **** 0.053
24841 H24841 43.8767 49.1273 52.6525 H 0.0 **** 0.1268
24842 H24842 48.2563 48.4442 55.5878 H 0.0 **** 0.1268
24843 H24843 50.0878 48.3028 57.0887 H 0.0 **** 0.1268
24844 H24844 48.9381 55.2354 53.2718 H 0.0 **** 0.1268
24845 H24845 55.0741 47.6211 59.2452 H 0.0 **** 0.053
24846 H24846 53.2329 46.8557 58.1285 H 0.0 **** 0.053
24847 H24847 51.6456 48.1047 60.3892 H 0.0 **** 0.053
24848 H24848 52.2136 45.6078 60.7192 H 0.0 **** 0.053
24849 H24849 52.1178 44.9792 59.0724 H 0.0 **** 0.053
24850 H24850 54.7243 44.9719 59.0632 H 0.0 **** 0.053
24851 H24851 54.0121 43.7774 60.1522 H 0.0 **** 0.053
24852 H24852 54.4533 45.047 62.0831 H 0.0 **** 0.053
24853 H24853 53.7039 47.1862 61.9267 H 0.0 **** 0.053
24854 H24854 56.5261 47.921 61.0499 H 0.0 **** 0.053
24855 H24855 55.499 48.7486 62.2196 H 0.0 **** 0.053
24856 H24856 55.7067 46.7315 63.7492 H 0.0 **** 0.053
24857 H24857 57.2773 47.4737 63.4146 H 0.0 **** 0.053
24858 H24858 56.8276 44.772 63.1093 H 0.0 **** 0.053
24859 H24859 58.0303 45.6366 62.142 H 0.0 **** 0.053
24860 H24860 56.7054 45.6222 60.3226 H 0.0 **** 0.353
24861 H24861 50.9625 58.3272 55.2272 H 0.0 **** 0.053
24862 H24862 50.4431 57.9426 52.8461 H 0.0 **** 0.053
24863 H24863 52.6483 55.9136 52.5781 H 0.0 **** 0.053
24864 H24864 51.8629 56.8877 51.3277 H 0.0 **** 0.053
24865 H24865 54.0273 57.8655 51.3551 H 0.0 **** 0.053
24866 H24866 54.2536 57.5679 53.0875 H 0.0 **** 0.053
24867 H24867 52.3047 59.634 51.9361 H 0.0 **** 0.053
24868 H24868 53.9063 60.0346 52.5632 H 0.0 **** 0.053
24869 H24869 51.7973 60.2449 54.1794 H 0.0 **** 0.053
24870 H24870 53.3008 59.5745 54.8258 H 0.0 **** 0.053
24871 H24871 54.5255 56.7823 56.6504 H 0.0 **** 0.1268
24872 H24872 56.4996 56.5849 58.1289 H 0.0 **** 0.1268
24873 H24873 55.752 49.7716 60.2651 H 0.0 **** 0.1268
24874 H24874 57.4403 49.8394 62.0327 H 0.0 **** 0.053
24875 H24875 58.6666 51.291 63.2365 H 0.0 **** 0.053
24876 H24876 60.9529 50.4847 61.4213 H 0.0 **** 0.053
24877 H24877 59.3699 48.8138 63.4114 H 0.0 **** 0.053
24878 H24878 60.9784 48.3383 62.8473 H 0.0 **** 0.053
24879 H24879 58.7445 47.5523 61.5251 H 0.0 **** 0.053
24880 H24880 60.258 47.8609 60.667 H 0.0 **** 0.053
24881 H24881 58.0307 48.9712 59.7499 H 0.0 **** 0.053
24882 H24882 59.4895 49.9596 59.7941 H 0.0 **** 0.053
24883 H24883 45.0004 47.4429 48.2868 H 0.0 **** 0.053
24884 H24884 47.2517 47.1914 49.2363 H 0.0 **** 0.053
24885 H24885 46.6277 46.2306 50.5935 H 0.0 **** 0.053
24886 H24886 46.2256 47.9574 50.4727 H 0.0 **** 0.053
24887 H24887 44.5181 45.0642 47.7002 H 0.0 **** 0.053
24888 H24888 45.5361 44.5148 49.0548 H 0.0 **** 0.053
24889 H24889 46.2747 45.38 47.6905 H 0.0 **** 0.053
24890 H24890 49.8565 47.7092 59.0581 H 0.0 **** 0.41
24891 H24891 59.629 57.2585 60.2837 H 0.0 **** 0.1268
24892 H24892 61.4725 58.3963 61.4743 H 0.0 **** 0.1268
24893 H24893 63.2908 58.3494 63.1449 H 0.0 **** 0.1268
24894 H24894 65.0949 58.3233 64.8157 H 0.0 **** 0.1268
24895 H24895 66.448 57.0913 66.494 H 0.0 **** 0.1268
24896 H24896 66.6002 52.6009 68.0845 H 0.0 **** 0.1268
24897 H24897 66.9665 55.0065 67.7026 H 0.0 **** 0.1268
24898 H24898 61.8938 49.3171 64.4313 H 0.0 **** 0.1268
24899 H24899 62.2064 48.8294 66.3763 H 0.0 **** 0.053
24900 H24900 63.756 48.252 65.7567 H 0.0 **** 0.053
24901 H24901 63.4344 47.4667 68.0869 H 0.0 **** 0.053
24902 H24902 63.1556 49.1342 68.6333 H 0.0 **** 0.053
24903 H24903 65.7439 48.0786 67.354 H 0.0 **** 0.053
24904 H24904 65.5758 48.5124 69.0595 H 0.0 **** 0.053
24905 C24905 18.438 23.0609 17.8661 C.3 0.0 **** 0.054
24906 C24906 19.6276 22.4747 18.662 C.3 0.0 **** -0.106
24907 C24907 20.9628 23.0547 18.1517 C.3 0.0 **** -0.053
24908 C24908 20.9198 23.1344 16.617 C.3 0.0 **** -0.053
24909 C24909 19.7563 24.0644 16.1852 C.3 0.0 **** 0.054
24910 O24910 18.7962 24.2898 17.2246 O.3 0.0 **** -0.32
24911 C24911 20.8036 21.7292 15.9895 C.3 0.0 **** -0.053
24912 C24912 21.6319 20.664 16.7634 C.3 0.0 **** 0.107
24913 C24913 22.7588 21.3145 17.5476 C.3 0.0 **** -0.106
24914 C24914 22.1916 22.2435 18.6364 C.3 0.0 **** -0.106
24915 O24915 22.2226 19.7005 15.8775 O.3 0.0 **** -0.32
24916 C24916 21.3134 19.2382 14.8643 C.3 0.0 **** 0.107
24917 C24917 21.1281 20.3699 13.8377 C.3 0.0 **** -0.053
24918 C24918 21.2646 21.7555 14.5347 C.3 0.0 **** -0.106
24919 C24919 19.9057 20.2358 12.9913 C.2 0.0 **** 0.0
24920 C24920 18.9223 19.2862 13.2188 C.2 0.0 **** 0.0
24921 C24921 18.9466 18.4441 14.3883 C.2 0.0 **** 0.0
24922 C24922 20.0073 18.6705 15.442 C.3 0.0 **** -0.053
24923 C24923 17.9279 17.5468 14.6575 C.2 0.0 **** 0.0
24924 C24924 16.8334 17.3973 13.7277 C.2 0.0 **** 0.0
24925 C24925 16.8515 18.2098 12.5536 C.2 0.0 **** 0.232
24926 C24926 17.8225 19.1346 12.2861 C.2 0.0 **** 0.0
24927 C24927 17.7482 19.9936 11.0493 C.3 0.0 **** -0.106
24928 C24928 19.1317 20.4812 10.618 C.3 0.0 **** -0.106
24929 C24929 19.8341 21.151 11.8014 C.3 0.0 **** -0.106
24930 O24930 15.8244 18.1052 11.6352 O.3 0.0 **** -0.464
24931 C24931 14.8538 17.1435 11.7776 C.2 0.0 **** 0.232
24932 C24932 14.7584 16.3503 12.9354 C.2 0.0 **** 0.0
24933 C24933 15.7678 16.5175 13.9537 C.2 0.0 **** 0.0
24934 C24934 20.2161 17.4529 16.3111 C.2 0.0 **** 0.0
24935 C24935 19.0041 16.7678 16.753 C.2 0.0 **** 0.0
24936 C24936 17.9072 16.7528 15.8892 C.2 0.0 **** 0.0
24937 C24937 19.098 15.993 17.9888 C.2 0.0 **** 0.0
24938 C24938 20.3067 15.4704 18.3484 C.2 0.0 **** 0.0
24939 C24939 21.5531 15.7896 17.5896 C.3 0.0 **** -0.106
24940 C24940 21.4242 16.9824 16.6939 C.2 0.0 **** -0.1268
24941 C24941 20.4025 14.5836 19.5583 C.3 0.0 **** -0.106
24942 C24942 19.0942 13.8125 19.7564 C.3 0.0 **** -0.106
24943 C24943 17.9348 14.7784 19.7651 C.2 0.0 **** 0.0
24944 C24944 17.9588 15.838 18.9222 C.2 0.0 **** 0.0
24945 C24945 16.9454 16.9554 19.0131 C.3 0.0 **** -0.106
24946 C24946 16.0205 16.8487 20.2309 C.3 0.0 **** -0.053
24947 C24947 15.5848 15.3903 20.411 C.3 0.0 **** -0.106
24948 C24948 16.8046 14.5219 20.7186 C.3 0.0 **** -0.106
24949 C24949 15.7717 15.7694 15.1774 C.2 0.0 **** -0.012
24950 C24950 16.801 15.871 16.0807 C.2 0.0 **** -0.1268
24951 C24951 13.7048 15.4015 12.9726 C.2 0.0 **** 0.0
24952 C24952 13.5053 14.5671 14.1303 C.2 0.0 **** -0.012
24953 S24953 14.4291 14.7359 15.6149 S.2 0.0 **** 0.024
24954 C24954 12.5151 13.6185 14.1554 C.2 0.0 **** -0.1268
24955 C24955 11.6541 13.4216 13.0438 C.2 0.0 **** 0.0
24956 C24956 11.7952 14.2482 11.887 C.2 0.0 **** 0.0
24957 C24957 12.8104 15.2436 11.8553 C.2 0.0 **** 0.0
24958 C24958 10.9092 14.0647 10.7931 C.2 0.0 **** 0.0
24959 C24959 9.91671 13.0381 10.8408 C.2 0.0 **** 0.0
24960 C24960 9.84111 12.1714 11.9905 C.2 0.0 **** 0.0
24961 C24961 10.6868 12.4221 13.0822 C.2 0.0 **** -0.1268
24962 C24962 8.91625 11.0856 11.9712 C.2 0.0 **** 0.0
24963 C24963 8.00964 10.9858 10.9328 C.2 0.0 **** 0.042
24964 C24964 7.96751 11.8891 9.82886 C.2 0.0 **** 0.0
24965 C24965 8.98694 12.8804 9.77023 C.2 0.0 **** 0.0
24966 C24966 12.9432 16.0848 10.6994 C.2 0.0 **** 0.0
24967 C24967 13.9924 17.0271 10.7087 C.2 0.0 **** -0.1268
24968 C24968 11.0188 14.9194 9.64687 C.2 0.0 **** 0.0
24969 C24969 12.0255 15.9293 9.59015 C.2 0.0 **** 0.0
24970 C24970 9.07949 13.7514 8.63411 C.2 0.0 **** 0.0
24971 C24971 10.0941 14.742 8.57428 C.2 0.0 **** 0.0
24972 C24972 6.97386 11.8188 8.78617 C.2 0.0 **** 0.0
24973 C24973 7.11381 12.6596 7.64186 C.2 0.0 **** 0.0
24974 C24974 8.16001 13.6129 7.56116 C.2 0.0 **** 0.0
24975 O24975 7.17328 9.8905 10.9502 O.3 0.0 **** -0.202
24976 C24976 6.42791 9.67913 12.1826 C.3 0.0 **** 0.107
24977 C24977 7.32115 9.88518 13.4315 C.3 0.0 **** -0.053
24978 C24978 8.78059 9.92882 12.9563 C.3 0.0 **** 0.107
24979 C24979 7.04152 8.82139 14.5001 C.3 0.0 **** -0.106
24980 C24980 5.52911 8.59231 14.59 C.3 0.0 **** -0.106
24981 C24981 5.0325 7.85858 13.3405 C.3 0.0 **** 0.134
24982 C24982 5.82635 8.28031 12.0587 C.3 0.0 **** -0.053
24983 C24983 4.91513 8.18712 10.8235 C.3 0.0 **** -0.106
24984 C24984 3.98198 6.9803 10.9068 C.3 0.0 **** -0.106
24985 C24985 3.05171 7.11481 12.1451 C.3 0.0 **** 0.081
24986 N24986 3.58212 7.99331 13.1988 N.3 0.0 **** -0.727
24987 C24987 12.0682 16.7498 8.40785 C.2 0.0 **** 0.042
24988 C24988 11.2006 16.5408 7.34686 C.2 0.0 **** 0.042
24989 C24989 10.1765 15.5605 7.40712 C.2 0.0 **** 0.0
24990 O24990 11.2528 17.2743 6.1841 O.3 0.0 **** -0.202
24991 C24991 12.4632 18.0411 6.00413 C.3 0.0 **** 0.107
24992 C24992 12.7458 18.7556 7.31503 C.3 0.0 **** 0.107
24993 O24993 12.9949 17.7653 8.33159 O.3 0.0 **** -0.202
24994 C24994 11.6031 19.7068 7.72764 C.3 0.0 **** -0.106
24995 C24995 10.8076 20.2449 6.51859 C.3 0.0 **** -0.106
24996 C24996 11.7172 20.3856 5.29291 C.3 0.0 **** -0.106
24997 C24997 12.2465 19.0095 4.83943 C.3 0.0 **** -0.106
24998 C24998 8.25887 14.448 6.39942 C.2 0.0 **** 0.0
24999 C24999 9.27561 15.4012 6.34392 C.2 0.0 **** -0.1268
25000 C25000 6.17589 12.5431 6.57794 C.2 0.0 **** 0.0
25001 C25001 6.32403 13.3683 5.42043 C.2 0.0 **** 0.042
25002 C25002 7.32486 14.2953 5.32716 C.2 0.0 **** -0.1268
25003 C25003 5.10118 11.6444 6.65372 C.2 0.0 **** 0.0
25004 C25004 4.92167 10.882 7.81529 C.2 0.0 **** 0.0
25005 C25005 5.84352 10.9806 8.84126 C.2 0.0 **** -0.1268
25006 O25006 5.4377 13.2524 4.36033 O.3 0.0 **** -0.0685
25007 C25007 4.42223 12.3243 4.39194 C.2 0.0 **** 0.0265
25008 C25008 4.2067 11.5252 5.52774 C.2 0.0 **** 0.0
25009 C25009 3.7259 9.98547 7.99827 C.3 0.0 **** -0.053
25010 C25010 2.99733 9.62562 6.68279 C.3 0.0 **** -0.053
25011 C25011 3.16607 10.5925 5.54106 C.2 0.0 **** 0.0
25012 C25012 1.49105 9.39758 6.91051 C.3 0.0 **** -0.053
25013 C25013 1.27436 8.63183 8.2106 C.3 0.0 **** -0.106
25014 C25014 1.68193 9.52313 9.41032 C.3 0.0 **** -0.106
25015 C25015 2.73791 10.575 9.02117 C.3 0.0 **** -0.106
25016 C25016 2.32518 10.4527 4.42662 C.2 0.0 **** 0.0
25017 C25017 2.58347 11.2154 3.25254 C.2 0.0 **** 0.0
25018 C25018 3.63672 12.1829 3.23231 C.2 0.0 **** 0.0
25019 C25019 0.882974 8.84632 5.65005 C.2 0.0 **** 0.0
25020 C25020 1.25696 9.4904 4.43789 C.2 0.0 **** 0.0
25021 C25021 14.8433 17.8407 20.1241 C.3 0.0 **** -0.053
25022 C25022 13.798 17.4092 19.0873 C.3 0.0 **** -0.159
25023 C25023 14.1803 18.0598 21.4879 C.3 0.0 **** -0.159
25024 O25024 9.62221 9.92084 14.1107 O.3 0.0 **** -0.57
25025 C25025 3.86389 12.9414 2.03769 C.2 0.0 **** -0.1268
25026 C25026 3.10988 12.7244 0.918082 C.2 0.0 **** -0.1268
25027 C25027 2.07553 11.7311 0.888748 C.2 0.0 **** 0.0
25028 C25028 1.81629 10.9767 2.0784 C.2 0.0 **** 0.0
25029 C25029 0.814417 9.97026 2.07062 C.2 0.0 **** 0.0
25030 C25030 0.0737578 9.71339 0.892939 C.2 0.0 **** 0.0
25031 C25031 0.335679 10.4765 -0.290559 C.2 0.0 **** 0.0
25032 C25032 1.32914 11.4685 -0.264575 C.2 0.0 **** -0.1268
25033 C25033 -0.422412 10.2023 -1.47078 C.2 0.0 **** -0.1268
25034 C25034 -1.38379 9.22668 -1.4785 C.2 0.0 **** -0.1268
25035 C25035 -1.66378 8.45543 -0.309257 C.2 0.0 **** 0.0
25036 C25036 -0.933378 8.70345 0.883321 C.2 0.0 **** 0.0
25037 C25037 -1.21379 7.94813 2.06207 C.2 0.0 **** 0.0
25038 C25038 -0.474298 8.21655 3.24869 C.2 0.0 **** 0.0
25039 C25039 0.537803 9.21848 3.25573 C.2 0.0 **** 0.0
25040 C25040 -2.23264 6.94972 2.05827 C.2 0.0 **** 0.0
25041 C25041 -2.927 6.71485 0.839117 C.2 0.0 **** -0.1268
25042 C25042 -2.64797 7.44177 -0.299399 C.2 0.0 **** -0.1268
25043 C25043 -0.0641677 7.84723 5.62759 C.2 0.0 **** -0.1268
25044 C25044 -0.735407 7.47471 4.43345 C.2 0.0 **** 0.0
25045 C25045 -2.48299 6.19599 3.26971 C.2 0.0 **** 0.052
25046 C25046 -1.69744 6.41769 4.40891 C.2 0.0 **** 0.0
25047 C25047 -1.83095 5.55469 5.64389 C.3 0.0 **** -0.106
25048 C25048 -2.39572 4.17654 5.32194 C.3 0.0 **** -0.106
25049 C25049 -3.72448 4.35745 4.60716 C.3 0.0 **** -0.086
25050 C25050 -3.6318 5.24527 3.37239 C.2 0.0 **** 0.347
25051 O25051 -4.54302 5.17915 2.54587 O.2 0.0 **** -0.419
25052 H25052 17.5893 23.2987 18.5218 H 0.0 **** 0.053
25053 H25053 18.0869 22.3386 17.1022 H 0.0 **** 0.053
25054 H25054 19.5279 22.6985 19.7352 H 0.0 **** 0.053
25055 H25055 19.6313 21.3777 18.5616 H 0.0 **** 0.053
25056 H25056 21.0357 24.0825 18.5362 H 0.0 **** 0.053
25057 H25057 21.8645 23.58 16.2629 H 0.0 **** 0.053
25058 H25058 19.2424 23.6323 15.3012 H 0.0 **** 0.053
25059 H25059 20.1239 25.0646 15.9162 H 0.0 **** 0.053
25060 H25060 19.7405 21.4406 16.0092 H 0.0 **** 0.053
25061 H25061 20.9761 20.1255 17.4746 H 0.0 **** 0.053
25062 H25062 23.3881 21.8827 16.8437 H 0.0 **** 0.053
25063 H25063 23.3951 20.5358 17.9921 H 0.0 **** 0.053
25064 H25064 22.986 22.9269 18.9719 H 0.0 **** 0.053
25065 H25065 21.9019 21.6449 19.5157 H 0.0 **** 0.053
25066 H25066 21.8384 18.4014 14.3805 H 0.0 **** 0.053
25067 H25067 21.9876 20.3097 13.1429 H 0.0 **** 0.053
25068 H25068 20.7069 22.5201 13.9738 H 0.0 **** 0.053
25069 H25069 22.3236 22.0579 14.524 H 0.0 **** 0.053
25070 H25070 19.5593 19.4378 16.1055 H 0.0 **** 0.053
25071 H25071 17.2534 19.4401 10.2383 H 0.0 **** 0.053
25072 H25072 17.1062 20.8706 11.2566 H 0.0 **** 0.053
25073 H25073 19.0449 21.1786 9.77084 H 0.0 **** 0.053
25074 H25074 19.7337 19.6214 10.2821 H 0.0 **** 0.053
25075 H25075 19.2851 22.077 12.0657 H 0.0 **** 0.053
25076 H25076 20.8522 21.4743 11.5261 H 0.0 **** 0.053
25077 H25077 21.8662 14.9055 16.9915 H 0.0 **** 0.053
25078 H25078 22.3868 15.9292 18.3052 H 0.0 **** 0.053
25079 H25079 22.3416 17.4642 16.36 H 0.0 **** 0.1268
25080 H25080 21.2575 13.8968 19.4527 H 0.0 **** 0.053
25081 H25081 20.6051 15.2067 20.453 H 0.0 **** 0.053
25082 H25082 19.1131 13.2345 20.6935 H 0.0 **** 0.053
25083 H25083 18.9729 13.0851 18.9306 H 0.0 **** 0.053
25084 H25084 17.4925 17.9145 19.0455 H 0.0 **** 0.053
25085 H25085 16.3387 17.0077 18.0963 H 0.0 **** 0.053
25086 H25086 16.6062 17.1267 21.1271 H 0.0 **** 0.053
25087 H25087 15.1157 15.0372 19.4781 H 0.0 **** 0.053
25088 H25088 14.8346 15.2975 21.2112 H 0.0 **** 0.053
25089 H25089 16.5424 13.4488 20.6797 H 0.0 **** 0.053
25090 H25090 17.1462 14.7014 21.7567 H 0.0 **** 0.053
25091 H25091 16.7967 15.2287 16.961 H 0.0 **** 0.1268
25092 H25092 12.3778 12.9861 15.0355 H 0.0 **** 0.1268
25093 H25093 10.5729 11.8495 13.9974 H 0.0 **** 0.1268
25094 H25094 14.1576 17.6845 9.86772 H 0.0 **** 0.1268
25095 H25095 5.60606 10.4194 12.191 H 0.0 **** 0.053
25096 H25096 7.09516 10.8728 13.8643 H 0.0 **** 0.053
25097 H25097 8.95812 8.9965 12.3813 H 0.0 **** 0.053
25098 H25098 7.54989 7.87868 14.2343 H 0.0 **** 0.053
25099 H25099 7.4641 9.14735 15.4589 H 0.0 **** 0.053
25100 H25100 5.01855 9.5697 14.6621 H 0.0 **** 0.053
25101 H25101 5.24302 8.02281 15.4848 H 0.0 **** 0.053
25102 H25102 5.22022 6.78108 13.4868 H 0.0 **** 0.053
25103 H25103 6.66977 7.58078 11.9306 H 0.0 **** 0.053
25104 H25104 4.30227 9.10333 10.7686 H 0.0 **** 0.053
25105 H25105 5.52203 8.16539 9.90814 H 0.0 **** 0.053
25106 H25106 4.5871 6.06273 10.9832 H 0.0 **** 0.053
25107 H25107 3.38126 6.89014 9.9877 H 0.0 **** 0.053
25108 H25108 2.87235 6.11868 12.5839 H 0.0 **** 0.053
25109 H25109 2.07038 7.51256 11.8467 H 0.0 **** 0.053
25110 H25110 3.35467 8.96598 12.9887 H 0.0 **** 0.353
25111 H25111 13.2831 17.3341 5.79413 H 0.0 **** 0.053
25112 H25112 13.6982 19.2978 7.22919 H 0.0 **** 0.053
25113 H25113 10.9333 19.1603 8.40745 H 0.0 **** 0.053
25114 H25114 12.0404 20.5361 8.30263 H 0.0 **** 0.053
25115 H25115 10.3505 21.2115 6.77641 H 0.0 **** 0.053
25116 H25116 9.98994 19.5492 6.27858 H 0.0 **** 0.053
25117 H25117 12.5643 21.0442 5.55036 H 0.0 **** 0.053
25118 H25118 11.1859 20.8697 4.46034 H 0.0 **** 0.053
25119 H25119 13.1939 19.125 4.29192 H 0.0 **** 0.053
25120 H25120 11.5349 18.5288 4.15072 H 0.0 **** 0.053
25121 H25121 9.36969 16.0366 5.46469 H 0.0 **** 0.1268
25122 H25122 7.41217 14.9232 4.43978 H 0.0 **** 0.1268
25123 H25123 5.69099 10.3714 9.71816 H 0.0 **** 0.1268
25124 H25124 4.08609 9.04288 8.43801 H 0.0 **** 0.053
25125 H25125 3.40942 8.66021 6.32715 H 0.0 **** 0.053
25126 H25126 1.03337 10.3997 7.03481 H 0.0 **** 0.053
25127 H25127 1.8853 7.71354 8.18249 H 0.0 **** 0.053
25128 H25128 0.227005 8.31609 8.31909 H 0.0 **** 0.053
25129 H25129 2.08236 8.8879 10.213 H 0.0 **** 0.053
25130 H25130 0.793108 10.0295 9.81713 H 0.0 **** 0.053
25131 H25131 3.29036 10.9182 9.9089 H 0.0 **** 0.053
25132 H25132 2.26503 11.4693 8.58528 H 0.0 **** 0.053
25133 H25133 15.2718 18.8055 19.7965 H 0.0 **** 0.053
25134 H25134 13.0494 18.2024 18.9418 H 0.0 **** 0.053
25135 H25135 13.2654 16.5082 19.429 H 0.0 **** 0.053
25136 H25136 14.2452 17.1811 18.1079 H 0.0 **** 0.053
25137 H25137 14.9129 18.4042 22.2347 H 0.0 **** 0.053
25138 H25138 13.7326 17.1241 21.8591 H 0.0 **** 0.053
25139 H25139 13.3763 18.8085 21.4219 H 0.0 **** 0.053
25140 H25140 10.5324 9.78922 13.8034 H 0.0 **** 0.41
25141 H25141 4.65668 13.6893 2.0366 H 0.0 **** 0.1268
25142 H25142 3.29293 13.3036 0.0113051 H 0.0 **** 0.1268
25143 H25143 1.52879 12.0434 -1.17156 H 0.0 **** 0.1268
25144 H25144 -0.214835 10.7883 -2.36796 H 0.0 **** 0.1268
25145 H25145 -1.95468 9.01688 -2.38515 H 0.0 **** 0.1268
25146 H25146 -3.69834 5.9524 0.821886 H 0.0 **** 0.1268
25147 H25147 -3.19631 7.23406 -1.22073 H 0.0 **** 0.1268
25148 H25148 -0.332309 7.36317 6.56282 H 0.0 **** 0.1268
25149 H25149 -0.845225 5.45051 6.11865 H 0.0 **** 0.053
25150 H25150 -2.48231 6.05766 6.3835 H 0.0 **** 0.053
25151 H25151 -2.51408 3.58205 6.24057 H 0.0 **** 0.053
25152 H25152 -1.68775 3.64061 4.66874 H 0.0 **** 0.053
25153 H25153 -4.4474 4.84597 5.28651 H 0.0 **** 0.053
25154 H25154 -4.18348 3.41065 4.28895 H 0.0 **** 0.053
25155 C25155 41.0872 60.3876 54.3649 C.3 0.0 **** 0.054
25156 C25156 42.3232 59.6904 53.7497 C.3 0.0 **** -0.106
25157 C25157 42.3082 59.8131 52.212 C.3 0.0 **** -0.053
25158 C25158 40.8712 59.6036 51.7072 C.3 0.0 **** -0.053
25159 C25159 39.9503 60.6909 52.3192 C.3 0.0 **** 0.054
25160 O25160 40.5237 61.3425 53.4592 O.3 0.0 **** -0.32
25161 C25161 40.3733 58.1769 52.021 C.3 0.0 **** -0.053
25162 C25162 41.4943 57.1099 51.8643 C.3 0.0 **** 0.107
25163 C25163 42.5865 57.6004 50.9292 C.3 0.0 **** -0.106
25164 C25164 43.2923 58.8326 51.5241 C.3 0.0 **** -0.106
25165 O25165 40.9874 55.8782 51.3275 O.3 0.0 **** -0.32
25166 C25166 39.7502 55.4685 51.9345 C.3 0.0 **** 0.107
25167 C25167 38.6344 56.3912 51.4123 C.3 0.0 **** -0.053
25168 C25168 39.2058 57.8077 51.1099 C.3 0.0 **** -0.106
25169 C25169 37.4031 56.4026 52.2564 C.2 0.0 **** 0.0
25170 C25170 37.3236 55.7876 53.4957 C.2 0.0 **** 0.0
25171 C25171 38.4844 55.2073 54.1228 C.2 0.0 **** 0.0
25172 C25172 39.8372 55.3634 53.4653 C.3 0.0 **** -0.053
25173 C25173 38.4253 54.6587 55.392 C.2 0.0 **** 0.0
25174 C25174 37.1671 54.6079 56.0985 C.2 0.0 **** 0.0
25175 C25175 36.0207 55.1488 55.4409 C.2 0.0 **** 0.232
25176 C25176 36.0608 55.7355 54.2065 C.2 0.0 **** 0.0
25177 C25177 34.8176 56.3313 53.5962 C.3 0.0 **** -0.106
25178 C25178 34.9019 56.3695 52.0699 C.3 0.0 **** -0.106
25179 C25179 36.1991 57.0601 51.6426 C.3 0.0 **** -0.106
25180 O25180 34.7946 55.1261 56.0775 O.3 0.0 **** -0.464
25181 C25181 34.6426 54.48 57.2803 C.2 0.0 **** 0.232
25182 C25182 35.7429 53.9734 57.9955 C.2 0.0 **** 0.0
25183 C25183 37.0489 54.0791 57.3896 C.2 0.0 **** 0.0
25184 C25184 40.8244 54.323 53.9391 C.2 0.0 **** 0.0
25185 C25185 40.8323 54.0569 55.3753 C.2 0.0 **** 0.0
25186 C25186 39.6221 54.1472 56.0657 C.2 0.0 **** 0.0
25187 C25187 42.0747 53.5361 55.9425 C.2 0.0 **** 0.0
25188 C25188 42.9103 52.8106 55.1435 C.2 0.0 **** 0.0
25189 C25189 42.6558 52.6596 53.6793 C.3 0.0 **** -0.106
25190 C25190 41.6766 53.6516 53.1327 C.2 0.0 **** -0.1268
25191 C25191 44.1394 52.1779 55.7339 C.3 0.0 **** -0.106
25192 C25192 43.8939 51.807 57.1993 C.3 0.0 **** -0.106
25193 C25193 43.377 53.0123 57.9458 C.2 0.0 **** 0.0
25194 C25194 42.5161 53.8502 57.3207 C.2 0.0 **** 0.0
25195 C25195 42.1169 55.1792 57.9194 C.3 0.0 **** -0.106
25196 C25196 42.8974 55.541 59.1881 C.3 0.0 **** -0.053
25197 C25197 43.0268 54.2984 60.076 C.3 0.0 **** -0.106
25198 C25198 43.8493 53.2316 59.3533 C.3 0.0 **** -0.106
25199 C25199 38.2436 53.6035 58.0249 C.2 0.0 **** -0.012
25200 C25200 39.4569 53.6199 57.382 C.2 0.0 **** -0.1268
25201 C25201 35.4614 53.3398 59.2328 C.2 0.0 **** 0.0
25202 C25202 36.5258 52.8198 60.0531 C.2 0.0 **** -0.012
25203 S25203 38.2287 53.0381 59.6808 S.2 0.0 **** 0.024
25204 C25204 36.2573 52.1684 61.2298 C.2 0.0 **** -0.1268
25205 C25205 34.9243 51.9798 61.6808 C.2 0.0 **** 0.0
25206 C25206 33.8393 52.507 60.9152 C.2 0.0 **** 0.0
25207 C25207 34.1071 53.1954 59.6999 C.2 0.0 **** 0.0
25208 C25208 32.512 52.3408 61.3904 C.2 0.0 **** 0.0
25209 C25209 32.2702 51.6202 62.6001 C.2 0.0 **** 0.0
25210 C25210 33.3771 51.0374 63.317 C.2 0.0 **** 0.0
25211 C25211 34.6812 51.277 62.8568 C.2 0.0 **** -0.1268
25212 C25212 33.1044 50.231 64.4616 C.2 0.0 **** 0.0
25213 C25213 31.813 50.1601 64.9487 C.2 0.0 **** 0.042
25214 C25214 30.7004 50.8155 64.3414 C.2 0.0 **** 0.0
25215 C25215 30.9455 51.4938 63.1145 C.2 0.0 **** 0.0
25216 C25216 33.0184 53.7387 58.9376 C.2 0.0 **** 0.0
25217 C25217 33.3417 54.3762 57.7218 C.2 0.0 **** -0.1268
25218 C25218 31.4222 52.9044 60.6479 C.2 0.0 **** 0.0
25219 C25219 31.6625 53.6039 59.4274 C.2 0.0 **** 0.0
25220 C25220 29.8572 52.0791 62.3858 C.2 0.0 **** 0.0
25221 C25221 30.0993 52.7576 61.163 C.2 0.0 **** 0.0
25222 C25222 29.3695 50.7933 64.8958 C.2 0.0 **** 0.0
25223 C25223 28.2942 51.3366 64.1312 C.2 0.0 **** 0.0
25224 C25224 28.5324 51.9679 62.8844 C.2 0.0 **** 0.0
25225 O25225 31.6087 49.3298 66.0297 O.3 0.0 **** -0.202
25226 C25226 32.4799 49.5507 67.1748 C.3 0.0 **** 0.107
25227 C25227 33.9507 49.7665 66.7388 C.3 0.0 **** -0.053
25228 C25228 34.0626 49.3558 65.2635 C.3 0.0 **** 0.107
25229 C25229 34.9228 49.0312 67.6694 C.3 0.0 **** -0.106
25230 C25230 34.4524 49.2046 69.1174 C.3 0.0 **** -0.106
25231 C25231 33.178 48.3897 69.3581 C.3 0.0 **** 0.134
25232 C25232 32.2611 48.347 68.0898 C.3 0.0 **** -0.053
25233 C25233 30.7861 48.2456 68.5126 C.3 0.0 **** -0.106
25234 C25234 30.6156 47.346 69.7357 C.3 0.0 **** -0.106
25235 C25235 31.3915 47.9422 70.9437 C.3 0.0 **** 0.081
25236 N25236 32.4856 48.8486 70.563 N.3 0.0 **** -0.727
25237 C25237 30.5172 54.1447 58.7428 C.2 0.0 **** 0.042
25238 C25238 29.2294 53.956 59.2204 C.2 0.0 **** 0.042
25239 C25239 28.9832 53.2897 60.4487 C.2 0.0 **** 0.0
25240 O25240 28.1134 54.4157 58.56 O.3 0.0 **** -0.202
25241 C25241 28.3389 54.8101 57.1892 C.3 0.0 **** 0.107
25242 C25242 29.5904 55.6716 57.1659 C.3 0.0 **** 0.107
25243 O25243 30.7087 54.8655 57.5853 O.3 0.0 **** -0.202
25244 C25244 29.4532 56.9366 58.0386 C.3 0.0 **** -0.106
25245 C25245 27.9904 57.4111 58.1772 C.3 0.0 **** -0.106
25246 C25246 27.1939 57.0838 56.9092 C.3 0.0 **** -0.106
25247 C25247 27.0985 55.5589 56.6974 C.3 0.0 **** -0.106
25248 C25248 27.4261 52.5126 62.1522 C.2 0.0 **** 0.0
25249 C25249 27.6763 53.156 60.9403 C.2 0.0 **** -0.1268
25250 C25250 26.9689 51.2525 64.6427 C.2 0.0 **** 0.0
25251 C25251 25.886 51.7765 63.871 C.2 0.0 **** 0.042
25252 C25252 26.0978 52.3917 62.6683 C.2 0.0 **** -0.1268
25253 C25253 26.7106 50.6792 65.8969 C.2 0.0 **** 0.0
25254 C25254 27.7797 50.2234 66.6791 C.2 0.0 **** 0.0
25255 C25255 29.0656 50.287 66.1744 C.2 0.0 **** -0.1268
25256 O25256 24.5837 51.6811 64.3376 O.3 0.0 **** -0.0685
25257 C25257 24.3098 51.0567 65.5328 C.2 0.0 **** 0.0265
25258 C25258 25.3448 50.5699 66.3494 C.2 0.0 **** 0.0
25259 C25259 27.574 49.7026 68.0768 C.3 0.0 **** -0.053
25260 C25260 26.1179 49.2873 68.3896 C.3 0.0 **** -0.053
25261 C25261 25.0448 49.9438 67.5623 C.2 0.0 **** 0.0
25262 C25262 25.7766 49.4867 69.8784 C.3 0.0 **** -0.053
25263 C25263 26.9596 49.0636 70.7416 C.3 0.0 **** -0.106
25264 C25264 28.1405 50.0406 70.5161 C.3 0.0 **** -0.106
25265 C25265 28.0895 50.7036 69.1266 C.3 0.0 **** -0.106
25266 C25266 23.7118 49.8039 67.9772 C.2 0.0 **** 0.0
25267 C25267 22.661 50.2381 67.1204 C.2 0.0 **** 0.0
25268 C25268 22.9563 50.8929 65.8835 C.2 0.0 **** 0.0
25269 C25269 24.4337 48.8705 70.16 C.2 0.0 **** 0.0
25270 C25270 23.4021 49.1561 69.2228 C.2 0.0 **** 0.0
25271 C25271 42.265 56.7533 59.9036 C.3 0.0 **** -0.053
25272 C25272 40.9518 56.4019 60.6147 C.3 0.0 **** -0.159
25273 C25273 43.2504 57.3879 60.8903 C.3 0.0 **** -0.159
25274 O25274 35.4457 49.3628 64.9059 O.3 0.0 **** -0.57
25275 C25275 21.8751 51.3269 65.0488 C.2 0.0 **** -0.1268
25276 C25276 20.577 51.0912 65.4077 C.2 0.0 **** -0.1268
25277 C25277 20.2455 50.3978 66.6187 C.2 0.0 **** 0.0
25278 C25278 21.3096 49.9747 67.4791 C.2 0.0 **** 0.0
25279 C25279 21.0114 49.2649 68.6724 C.2 0.0 **** 0.0
25280 C25280 19.6685 48.9769 69.0117 C.2 0.0 **** 0.0
25281 C25281 18.6103 49.4089 68.1484 C.2 0.0 **** 0.0
25282 C25282 18.9234 50.1105 66.9731 C.2 0.0 **** -0.1268
25283 C25283 17.26 49.1083 68.5076 C.2 0.0 **** -0.1268
25284 C25284 16.9745 48.4177 69.6556 C.2 0.0 **** -0.1268
25285 C25285 18.0134 47.9798 70.5326 C.2 0.0 **** 0.0
25286 C25286 19.367 48.2648 70.2102 C.2 0.0 **** 0.0
25287 C25287 20.4131 47.8439 71.086 C.2 0.0 **** 0.0
25288 C25288 21.7628 48.1448 70.7473 C.2 0.0 **** 0.0
25289 C25289 22.0646 48.8477 69.546 C.2 0.0 **** 0.0
25290 C25290 20.1114 47.1467 72.2934 C.2 0.0 **** 0.0
25291 C25291 18.7459 46.8602 72.5708 C.2 0.0 **** -0.1268
25292 C25292 17.7388 47.2622 71.7183 C.2 0.0 **** -0.1268
25293 C25293 24.1421 48.1513 71.2973 C.2 0.0 **** -0.1268
25294 C25294 22.8206 47.7332 71.6039 C.2 0.0 **** 0.0
25295 C25295 21.1989 46.7262 73.153 C.2 0.0 **** 0.052
25296 C25296 22.5265 46.9623 72.7712 C.2 0.0 **** 0.0
25297 C25297 23.6896 46.4137 73.5675 C.3 0.0 **** -0.106
25298 C25298 23.3006 45.1824 74.3765 C.3 0.0 **** -0.106
25299 C25299 22.1224 45.5447 75.2652 C.3 0.0 **** -0.086
25300 C25300 20.9418 46.1269 74.498 C.2 0.0 **** 0.347
25301 O25301 19.8408 46.1299 75.0508 O.2 0.0 **** -0.419
25302 H25302 41.3484 60.9494 55.2721 H 0.0 **** 0.053
25303 H25303 40.3142 59.6411 54.6368 H 0.0 **** 0.053
25304 H25304 43.2541 60.1345 54.1343 H 0.0 **** 0.053
25305 H25305 42.329 58.6284 54.0421 H 0.0 **** 0.053
25306 H25306 42.5992 60.8452 51.9681 H 0.0 **** 0.053
25307 H25307 40.8639 59.7251 50.6111 H 0.0 **** 0.053
25308 H25308 38.9792 60.2371 52.6083 H 0.0 **** 0.053
25309 H25309 39.7535 61.4981 51.5997 H 0.0 **** 0.053
25310 H25310 40.0138 58.1693 53.0624 H 0.0 **** 0.053
25311 H25311 41.9482 56.8976 52.8516 H 0.0 **** 0.053
25312 H25312 42.1265 57.8489 49.9591 H 0.0 **** 0.053
25313 H25313 43.3059 56.7894 50.7462 H 0.0 **** 0.053
25314 H25314 43.8422 59.35 50.7237 H 0.0 **** 0.053
25315 H25315 44.0452 58.5052 52.2598 H 0.0 **** 0.053
25316 H25316 39.5775 54.4509 51.5543 H 0.0 **** 0.053
25317 H25317 38.3256 55.9878 50.4289 H 0.0 **** 0.053
25318 H25318 38.4102 58.5634 51.1877 H 0.0 **** 0.053
25319 H25319 39.5707 57.8312 50.0709 H 0.0 **** 0.053
25320 H25320 40.2107 56.3305 53.8587 H 0.0 **** 0.053
25321 H25321 33.9318 55.7715 53.9294 H 0.0 **** 0.053
25322 H25322 34.6876 57.3627 53.9752 H 0.0 **** 0.053
25323 H25323 34.027 56.89 51.6512 H 0.0 **** 0.053
25324 H25324 34.8967 55.3395 51.678 H 0.0 **** 0.053
25325 H25325 36.1526 58.1261 51.9432 H 0.0 **** 0.053
25326 H25326 36.303 57.0626 50.5443 H 0.0 **** 0.053
25327 H25327 42.3017 51.6274 53.4635 H 0.0 **** 0.053
25328 H25328 43.6188 52.7242 53.136 H 0.0 **** 0.053
25329 H25329 41.6744 53.8182 52.0568 H 0.0 **** 0.1268
25330 H25330 44.427 51.2942 55.1422 H 0.0 **** 0.053
25331 H25331 44.9853 52.8921 55.6686 H 0.0 **** 0.053
25332 H25332 44.8152 51.434 57.6733 H 0.0 **** 0.053
25333 H25333 43.1515 50.987 57.2469 H 0.0 **** 0.053
25334 H25334 42.2695 55.9611 57.1541 H 0.0 **** 0.053
25335 H25335 41.0377 55.202 58.1345 H 0.0 **** 0.053
25336 H25336 43.9203 55.8331 58.8854 H 0.0 **** 0.053
25337 H25337 42.0209 53.8991 60.2849 H 0.0 **** 0.053
25338 H25338 43.4875 54.5498 61.0436 H 0.0 **** 0.053
25339 H25339 43.8088 52.2699 59.8965 H 0.0 **** 0.053
25340 H25340 44.9192 53.5178 59.3459 H 0.0 **** 0.053
25341 H25341 40.3229 53.1806 57.8768 H 0.0 **** 0.1268
25342 H25342 37.0717 51.7713 61.84 H 0.0 **** 0.1268
25343 H25343 35.5315 50.9378 63.4401 H 0.0 **** 0.1268
25344 H25344 32.5717 54.7976 57.0924 H 0.0 **** 0.1268
25345 H25345 32.1106 50.4584 67.688 H 0.0 **** 0.053
25346 H25346 34.1765 50.8435 66.7899 H 0.0 **** 0.053
25347 H25347 33.6826 48.3158 65.191 H 0.0 **** 0.053
25348 H25348 34.954 47.9592 67.4096 H 0.0 **** 0.053
25349 H25349 35.9375 49.4212 67.519 H 0.0 **** 0.053
25350 H25350 34.239 50.2728 69.3033 H 0.0 **** 0.053
25351 H25351 35.2185 48.9069 69.8464 H 0.0 **** 0.053
25352 H25352 33.4791 47.3482 69.5641 H 0.0 **** 0.053
25353 H25353 32.5247 47.4497 67.5047 H 0.0 **** 0.053
25354 H25354 30.4222 49.2564 68.7651 H 0.0 **** 0.053
25355 H25355 30.175 47.8986 67.6683 H 0.0 **** 0.053
25356 H25356 30.9964 46.3399 69.4977 H 0.0 **** 0.053
25357 H25357 29.5492 47.2317 69.9875 H 0.0 **** 0.053
25358 H25358 31.8157 47.1251 71.5515 H 0.0 **** 0.053
25359 H25359 30.7094 48.5048 71.5982 H 0.0 **** 0.053
25360 H25360 32.1199 49.7879 70.4024 H 0.0 **** 0.353
25361 H25361 28.5188 53.8958 56.5996 H 0.0 **** 0.053
25362 H25362 29.8247 55.9346 56.1246 H 0.0 **** 0.053
25363 H25363 29.8737 56.7141 59.03 H 0.0 **** 0.053
25364 H25364 30.0754 57.727 57.5938 H 0.0 **** 0.053
25365 H25365 27.9692 58.4916 58.3815 H 0.0 **** 0.053
25366 H25366 27.5207 56.9061 59.0343 H 0.0 **** 0.053
25367 H25367 27.6941 57.5497 56.0428 H 0.0 **** 0.053
25368 H25368 26.1828 57.5143 56.9558 H 0.0 **** 0.053
25369 H25369 26.9432 55.3291 55.6326 H 0.0 **** 0.053
25370 H25370 26.2367 55.1454 57.2435 H 0.0 **** 0.053
25371 H25371 26.8461 53.5667 60.3679 H 0.0 **** 0.1268
25372 H25372 25.2581 52.7954 62.1015 H 0.0 **** 0.1268
25373 H25373 29.8693 49.9152 66.7902 H 0.0 **** 0.1268
25374 H25374 28.1989 48.8033 68.1877 H 0.0 **** 0.053
25375 H25375 26.0318 48.2002 68.192 H 0.0 **** 0.053
25376 H25376 25.629 50.5754 70.0274 H 0.0 **** 0.053
25377 H25377 27.2464 48.0352 70.4634 H 0.0 **** 0.053
25378 H25378 26.6902 49.0434 71.8072 H 0.0 **** 0.053
25379 H25379 29.0877 49.4931 70.6215 H 0.0 **** 0.053
25380 H25380 28.1334 50.8194 71.2941 H 0.0 **** 0.053
25381 H25381 29.0864 51.0642 68.8311 H 0.0 **** 0.053
25382 H25382 27.4298 51.5857 69.132 H 0.0 **** 0.053
25383 H25383 42.0405 57.5006 59.1206 H 0.0 **** 0.053
25384 H25384 40.4638 57.312 60.9946 H 0.0 **** 0.053
25385 H25385 41.1441 55.7437 61.4761 H 0.0 **** 0.053
25386 H25386 40.2393 55.886 59.9532 H 0.0 **** 0.053
25387 H25387 44.1857 57.678 60.3861 H 0.0 **** 0.053
25388 H25388 43.5052 56.6814 61.6963 H 0.0 **** 0.053
25389 H25389 42.8187 58.2849 61.3599 H 0.0 **** 0.053
25390 H25390 35.5194 48.9538 64.0299 H 0.0 **** 0.41
25391 H25391 22.1086 51.8411 64.1166 H 0.0 **** 0.1268
25392 H25392 19.7601 51.4213 64.7636 H 0.0 **** 0.1268
25393 H25393 18.1129 50.4323 66.3154 H 0.0 **** 0.1268
25394 H25394 16.4606 49.4406 67.8428 H 0.0 **** 0.1268
25395 H25395 15.9414 48.1847 69.921 H 0.0 **** 0.1268
25396 H25396 18.5049 46.3233 73.482 H 0.0 **** 0.1268
25397 H25397 16.7006 47.0228 71.958 H 0.0 **** 0.1268
25398 H25398 24.9446 47.9381 71.9983 H 0.0 **** 0.1268
25399 H25399 24.5099 46.1628 72.8804 H 0.0 **** 0.053
25400 H25400 24.0795 47.1948 74.2473 H 0.0 **** 0.053
25401 H25401 24.1544 44.8241 74.9715 H 0.0 **** 0.053
25402 H25402 23.0147 44.3727 73.6853 H 0.0 **** 0.053
25403 H25403 22.4309 46.3181 75.9928 H 0.0 **** 0.053
25404 H25404 21.7389 44.6976 75.8515 H 0.0 **** 0.053
25405 C25405 13.931 40.86 4.80835 C.3 0.0 **** 0.054
25406 C25406 14.9838 40.484 3.73941 C.3 0.0 **** -0.106
25407 C25407 14.5964 39.1685 3.03293 C.3 0.0 **** -0.053
25408 C25408 14.0511 38.1812 4.07764 C.3 0.0 **** -0.053
25409 C25409 12.7955 38.7918 4.75257 C.3 0.0 **** 0.054
25410 O25410 12.6813 40.207 4.56024 O.3 0.0 **** -0.32
25411 C25411 15.1375 37.8028 5.1065 C.3 0.0 **** -0.053
25412 C25412 16.5451 37.6653 4.45895 C.3 0.0 **** 0.107
25413 C25413 16.4346 37.3695 2.97286 C.3 0.0 **** -0.106
25414 C25414 15.7728 38.5484 2.23633 C.3 0.0 **** -0.106
25415 O25415 17.3053 36.6028 5.05518 O.3 0.0 **** -0.32
25416 C25416 17.2221 36.5902 6.4904 C.3 0.0 **** 0.107
25417 C25417 15.8229 36.0825 6.88238 C.3 0.0 **** -0.053
25418 C25418 14.7802 36.4913 5.80071 C.3 0.0 **** -0.106
25419 C25419 15.4148 36.4253 8.27685 C.2 0.0 **** 0.0
25420 C25420 16.1393 37.2779 9.09457 C.2 0.0 **** 0.0
25421 C25421 17.2765 38.0105 8.59727 C.2 0.0 **** 0.0
25422 C25422 17.6249 37.9293 7.128 C.3 0.0 **** -0.053
25423 C25423 17.9571 38.9188 9.38906 C.2 0.0 **** 0.0
25424 C25424 17.5673 39.1104 10.766 C.2 0.0 **** 0.0
25425 C25425 16.4656 38.3421 11.2511 C.2 0.0 **** 0.232
25426 C25426 15.7492 37.4713 10.4777 C.2 0.0 **** 0.0
25427 C25427 14.5647 36.7318 11.046 C.3 0.0 **** -0.106
25428 C25428 14.2976 35.4298 10.29 C.3 0.0 **** -0.106
25429 C25429 14.1929 35.7169 8.79033 C.3 0.0 **** -0.106
25430 O25430 16.0529 38.4924 12.5612 O.3 0.0 **** -0.464
25431 C25431 16.7659 39.2784 13.4335 C.2 0.0 **** 0.232
25432 C25432 17.8272 40.094 13.0009 C.2 0.0 **** 0.0
25433 C25433 18.208 40.0255 11.6101 C.2 0.0 **** 0.0
25434 C25434 19.0615 38.3117 6.86102 C.2 0.0 **** 0.0
25435 C25435 19.5536 39.4862 7.5764 C.2 0.0 **** 0.0
25436 C25436 19.0584 39.7279 8.85933 C.2 0.0 **** 0.0
25437 C25437 20.6644 40.2134 6.96487 C.2 0.0 **** 0.0
25438 C25438 21.5311 39.5346 6.15794 C.2 0.0 **** 0.0
25439 C25439 21.2905 38.1111 5.77469 C.3 0.0 **** -0.106
25440 C25440 19.8869 37.6506 6.01908 C.2 0.0 **** -0.1268
25441 C25441 22.7383 40.2393 5.605 C.3 0.0 **** -0.106
25442 C25442 23.2148 41.3204 6.57943 C.3 0.0 **** -0.106
25443 C25443 22.0594 42.2225 6.9376 C.2 0.0 **** 0.0
25444 C25444 20.8298 41.6787 7.10005 C.2 0.0 **** 0.0
25445 C25445 19.592 42.5319 7.25374 C.3 0.0 **** -0.106
25446 C25446 19.847 44.0286 7.04224 C.3 0.0 **** -0.053
25447 C25447 21.1529 44.4244 7.74009 C.3 0.0 **** -0.106
25448 C25448 22.327 43.6912 7.09156 C.3 0.0 **** -0.106
25449 C25449 19.2699 40.8125 11.0533 C.2 0.0 **** -0.012
25450 C25450 19.6814 40.6503 9.75317 C.2 0.0 **** -0.1268
25451 C25451 18.4778 40.8721 13.9922 C.2 0.0 **** 0.0
25452 C25452 19.5535 41.7639 13.6403 C.2 0.0 **** -0.012
25453 S25453 20.0536 42.0698 11.9844 S.2 0.0 **** 0.024
25454 C25454 20.2147 42.4868 14.6001 C.2 0.0 **** -0.1268
25455 C25455 19.867 42.3816 15.9727 C.2 0.0 **** 0.0
25456 C25456 18.7855 41.5337 16.3635 C.2 0.0 **** 0.0
25457 C25457 18.0846 40.7893 15.375 C.2 0.0 **** 0.0
25458 C25458 18.4251 41.4594 17.7346 C.2 0.0 **** 0.0
25459 C25459 19.1647 42.1964 18.7097 C.2 0.0 **** 0.0
25460 C25460 20.2961 42.9894 18.2977 C.2 0.0 **** 0.0
25461 C25461 20.5846 43.0945 16.9281 C.2 0.0 **** -0.1268
25462 C25462 21.0859 43.6294 19.2984 C.2 0.0 **** 0.0
25463 C25463 20.6599 43.6102 20.613 C.2 0.0 **** 0.042
25464 C25464 19.4816 42.9366 21.0539 C.2 0.0 **** 0.0
25465 C25465 18.7775 42.1711 20.0826 C.2 0.0 **** 0.0
25466 C25466 16.9879 39.9487 15.7649 C.2 0.0 **** 0.0
25467 C25467 16.3564 39.2045 14.747 C.2 0.0 **** -0.1268
25468 C25468 17.3135 40.6429 18.1274 C.2 0.0 **** 0.0
25469 C25469 16.5898 39.8887 17.1558 C.2 0.0 **** 0.0
25470 C25470 17.65 41.3746 20.4731 C.2 0.0 **** 0.0
25471 C25471 16.9451 40.6118 19.5059 C.2 0.0 **** 0.0
25472 C25472 19.0073 42.9804 22.415 C.2 0.0 **** 0.0
25473 C25473 17.9161 42.1422 22.7926 C.2 0.0 **** 0.0
25474 C25474 17.2466 41.3407 21.8339 C.2 0.0 **** 0.0
25475 O25475 21.4896 44.2084 21.5367 O.3 0.0 **** -0.202
25476 C25476 21.8868 45.5776 21.2421 C.3 0.0 **** 0.107
25477 C25477 22.2746 45.7505 19.7523 C.3 0.0 **** -0.053
25478 C25478 22.4228 44.3479 19.1453 C.3 0.0 **** 0.107
25479 C25479 23.5178 46.6349 19.5975 C.3 0.0 **** -0.106
25480 C25480 23.4133 47.8142 20.5703 C.3 0.0 **** -0.106
25481 C25481 23.6042 47.3276 22.0101 C.3 0.0 **** 0.134
25482 C25482 23.0084 45.8965 22.2291 C.3 0.0 **** -0.053
25483 C25483 22.5161 45.7499 23.6785 C.3 0.0 **** -0.106
25484 C25484 23.4469 46.4604 24.6598 C.3 0.0 **** -0.106
25485 C25485 23.4834 47.9828 24.3472 C.3 0.0 **** 0.081
25486 N25486 23.1072 48.3186 22.9655 N.3 0.0 **** -0.727
25487 C25487 15.4839 39.097 17.628 C.2 0.0 **** 0.042
25488 C25488 15.1612 39.03 18.9747 C.2 0.0 **** 0.042
25489 C25489 15.8546 39.8005 19.9436 C.2 0.0 **** 0.0
25490 O25490 14.1438 38.2413 19.4603 O.3 0.0 **** -0.202
25491 C25491 13.6545 37.2451 18.5364 C.3 0.0 **** 0.107
25492 C25492 13.4513 37.9314 17.196 C.3 0.0 **** 0.107
25493 O25493 14.7309 38.3896 16.7178 O.3 0.0 **** -0.202
25494 C25494 12.4348 39.0896 17.2736 C.3 0.0 **** -0.106
25495 C25495 11.3919 38.8953 18.3955 C.3 0.0 **** -0.106
25496 C25496 11.0996 37.4059 18.6092 C.3 0.0 **** -0.106
25497 C25497 12.358 36.6633 19.1036 C.3 0.0 **** -0.106
25498 C25498 16.1461 40.5213 22.2514 C.2 0.0 **** 0.0
25499 C25499 15.4776 39.7585 21.294 C.2 0.0 **** -0.1268
25500 C25500 17.4909 42.1287 24.1507 C.2 0.0 **** 0.0
25501 C25501 16.412 41.2751 24.5381 C.2 0.0 **** 0.042
25502 C25502 15.7527 40.4981 23.6262 C.2 0.0 **** -0.1268
25503 C25503 18.1018 42.95 25.1101 C.2 0.0 **** 0.0
25504 C25504 19.1166 43.8318 24.716 C.2 0.0 **** 0.0
25505 C25505 19.5434 43.8314 23.4007 C.2 0.0 **** -0.1268
25506 O25506 15.999 41.2257 25.8609 O.3 0.0 **** -0.0685
25507 C25507 16.6374 41.9725 26.8244 C.2 0.0 **** 0.0265
25508 C25508 17.6703 42.8628 26.4843 C.2 0.0 **** 0.0
25509 C25509 19.7303 44.8148 25.6774 C.3 0.0 **** -0.053
25510 C25510 19.5024 44.4697 27.1672 C.3 0.0 **** -0.053
25511 C25511 18.3017 43.6159 27.4778 C.2 0.0 **** 0.0
25512 C25512 19.4398 45.7362 28.0417 C.3 0.0 **** -0.053
25513 C25513 20.4909 46.7379 27.5776 C.3 0.0 **** -0.106
25514 C25514 20.1189 47.2629 26.1684 C.3 0.0 **** -0.106
25515 C25515 19.2675 46.252 25.3771 C.3 0.0 **** -0.106
25516 C25516 17.9049 43.4957 28.8182 C.2 0.0 **** 0.0
25517 C25517 16.904 42.5469 29.1714 C.2 0.0 **** 0.0
25518 C25518 16.2411 41.7809 28.1616 C.2 0.0 **** 0.0
25519 C25519 19.4331 45.3315 29.4903 C.2 0.0 **** 0.0
25520 C25520 18.5568 44.2671 29.8415 C.2 0.0 **** 0.0
25521 C25521 18.6286 44.868 7.48064 C.3 0.0 **** -0.053
25522 C25522 18.4788 44.9421 9.00574 C.3 0.0 **** -0.159
25523 C25523 18.6852 46.2777 6.88306 C.3 0.0 **** -0.159
25524 O25524 22.9687 44.4891 17.8327 O.3 0.0 **** -0.57
25525 C25525 15.2308 40.8414 28.5498 C.2 0.0 **** -0.1268
25526 C25526 14.9237 40.6504 29.8683 C.2 0.0 **** -0.1268
25527 C25527 15.5998 41.3685 30.9097 C.2 0.0 **** 0.0
25528 C25528 16.5975 42.3287 30.5434 C.2 0.0 **** 0.0
25529 C25529 17.2997 43.0364 31.5547 C.2 0.0 **** 0.0
25530 C25530 17.0151 42.7955 32.9194 C.2 0.0 **** 0.0
25531 C25531 16.0117 41.8377 33.2766 C.2 0.0 **** 0.0
25532 C25532 15.3265 41.1479 32.2636 C.2 0.0 **** -0.1268
25533 C25533 15.7384 41.6075 34.6605 C.2 0.0 **** -0.1268
25534 C25534 16.4213 42.2862 35.6348 C.2 0.0 **** -0.1268
25535 C25535 17.4237 43.2477 35.3017 C.2 0.0 **** 0.0
25536 C25536 17.7187 43.5059 33.9366 C.2 0.0 **** 0.0
25537 C25537 18.7092 44.4746 33.5914 C.2 0.0 **** 0.0
25538 C25538 18.9856 44.7227 32.2169 C.2 0.0 **** 0.0
25539 C25539 18.2897 44.0067 31.2014 C.2 0.0 **** 0.0
25540 C25540 19.4013 45.1979 34.6076 C.2 0.0 **** 0.0
25541 C25541 19.0943 44.8956 35.9633 C.2 0.0 **** -0.1268
25542 C25542 18.1419 43.9538 36.2926 C.2 0.0 **** -0.1268
25543 C25543 20.1365 45.9889 30.4746 C.2 0.0 **** -0.1268
25544 C25544 19.9697 45.6815 31.8504 C.2 0.0 **** 0.0
25545 C25545 20.407 46.166 34.2206 C.2 0.0 **** 0.052
25546 C25546 20.7228 46.3467 32.8672 C.2 0.0 **** 0.0
25547 C25547 21.8633 47.2397 32.4319 C.3 0.0 **** -0.106
25548 C25548 22.9146 47.4001 33.5232 C.3 0.0 **** -0.106
25549 C25549 22.2301 47.9204 34.7762 C.3 0.0 **** -0.086
25550 C25550 21.0574 47.0587 35.2277 C.2 0.0 **** 0.347
25551 O25551 20.6629 47.1851 36.3879 O.2 0.0 **** -0.419
25552 H25552 13.7152 41.9371 4.80351 H 0.0 **** 0.053
25553 H25553 14.2905 40.5888 5.82119 H 0.0 **** 0.053
25554 H25554 15.0766 41.2805 2.98528 H 0.0 **** 0.053
25555 H25555 15.9704 40.3776 4.21754 H 0.0 **** 0.053
25556 H25556 13.7766 39.4046 2.33883 H 0.0 **** 0.053
25557 H25557 13.7466 37.2562 3.55986 H 0.0 **** 0.053
25558 H25558 12.813 38.5716 5.84047 H 0.0 **** 0.053
25559 H25559 11.8717 38.3722 4.33021 H 0.0 **** 0.053
25560 H25560 15.1691 38.5986 5.86784 H 0.0 **** 0.053
25561 H25561 17.1088 38.6096 4.58676 H 0.0 **** 0.053
25562 H25562 15.8396 36.4508 2.84556 H 0.0 **** 0.053
25563 H25563 17.4341 37.1652 2.56296 H 0.0 **** 0.053
25564 H25564 15.4212 38.2027 1.25267 H 0.0 **** 0.053
25565 H25565 16.5259 39.3299 2.0425 H 0.0 **** 0.053
25566 H25566 17.9709 35.8488 6.80579 H 0.0 **** 0.053
25567 H25567 15.8649 34.9772 6.84052 H 0.0 **** 0.053
25568 H25568 13.7766 36.559 6.24615 H 0.0 **** 0.053
25569 H25569 14.7375 35.7051 5.03061 H 0.0 **** 0.053
25570 H25570 17.012 38.7307 6.66781 H 0.0 **** 0.053
25571 H25571 14.7209 36.5419 12.1177 H 0.0 **** 0.053
25572 H25572 13.6688 37.3776 10.9777 H 0.0 **** 0.053
25573 H25573 13.3771 34.9537 10.6609 H 0.0 **** 0.053
25574 H25574 15.1298 34.7287 10.4648 H 0.0 **** 0.053
25575 H25575 13.2899 36.333 8.60635 H 0.0 **** 0.053
25576 H25576 14.0419 34.7856 8.21864 H 0.0 **** 0.053
25577 H25577 22.0006 37.4498 6.31868 H 0.0 **** 0.053
25578 H25578 21.5659 37.971 4.71108 H 0.0 **** 0.053
25579 H25579 19.5487 36.7606 5.49091 H 0.0 **** 0.1268
25580 H25580 23.5369 39.5088 5.39893 H 0.0 **** 0.053
25581 H25581 22.4763 40.705 4.6332 H 0.0 **** 0.053
25582 H25582 24.0364 41.911 6.14495 H 0.0 **** 0.053
25583 H25583 23.6126 40.8365 7.49231 H 0.0 **** 0.053
25584 H25584 18.8377 42.1778 6.52849 H 0.0 **** 0.053
25585 H25585 19.1298 42.3752 8.24029 H 0.0 **** 0.053
25586 H25586 19.9921 44.1982 5.95893 H 0.0 **** 0.053
25587 H25587 21.0928 44.1409 8.8036 H 0.0 **** 0.053
25588 H25588 21.3091 45.5133 7.69905 H 0.0 **** 0.053
25589 H25589 23.2496 43.8248 7.68541 H 0.0 **** 0.053
25590 H25590 22.5506 44.1339 6.10135 H 0.0 **** 0.053
25591 H25591 20.5402 41.2183 9.39616 H 0.0 **** 0.1268
25592 H25592 21.034 43.154 14.3229 H 0.0 **** 0.1268
25593 H25593 21.3643 43.7698 16.5898 H 0.0 **** 0.1268
25594 H25594 15.5321 38.5434 14.9706 H 0.0 **** 0.1268
25595 H25595 21.0169 46.2204 21.4736 H 0.0 **** 0.053
25596 H25596 21.4387 46.2402 19.2276 H 0.0 **** 0.053
25597 H25597 23.1537 43.8014 19.7766 H 0.0 **** 0.053
25598 H25598 24.4265 46.0475 19.8143 H 0.0 **** 0.053
25599 H25599 23.6003 46.9694 18.5557 H 0.0 **** 0.053
25600 H25600 22.4138 48.2754 20.4741 H 0.0 **** 0.053
25601 H25601 24.145 48.6043 20.3527 H 0.0 **** 0.053
25602 H25602 24.6889 47.2491 22.1972 H 0.0 **** 0.053
25603 H25603 23.8094 45.1592 22.0505 H 0.0 **** 0.053
25604 H25604 21.5117 46.2007 23.7562 H 0.0 **** 0.053
25605 H25605 22.3988 44.6873 23.9311 H 0.0 **** 0.053
25606 H25606 24.4573 46.0296 24.5728 H 0.0 **** 0.053
25607 H25607 23.1174 46.2929 25.6977 H 0.0 **** 0.053
25608 H25608 24.4973 48.3754 24.5341 H 0.0 **** 0.053
25609 H25609 22.8023 48.5287 25.0167 H 0.0 **** 0.053
25610 H25610 22.0915 48.3807 22.8863 H 0.0 **** 0.353
25611 H25611 14.4325 36.4705 18.4312 H 0.0 **** 0.053
25612 H25612 13.1397 37.1826 16.454 H 0.0 **** 0.053
25613 H25613 12.9932 40.0232 17.4345 H 0.0 **** 0.053
25614 H25614 11.939 39.1744 16.2955 H 0.0 **** 0.053
25615 H25615 10.4703 39.44 18.1431 H 0.0 **** 0.053
25616 H25616 11.7783 39.3215 19.3332 H 0.0 **** 0.053
25617 H25617 10.7594 36.968 17.6551 H 0.0 **** 0.053
25618 H25618 10.28 37.2635 19.3288 H 0.0 **** 0.053
25619 H25619 12.3015 35.5966 18.8401 H 0.0 **** 0.053
25620 H25620 12.4343 36.7189 20.2004 H 0.0 **** 0.053
25621 H25621 14.6459 39.1241 21.5966 H 0.0 **** 0.1268
25622 H25622 14.9241 39.8631 23.9415 H 0.0 **** 0.1268
25623 H25623 20.3368 44.5087 23.1265 H 0.0 **** 0.1268
25624 H25624 20.8175 44.8077 25.5053 H 0.0 **** 0.053
25625 H25625 20.3832 43.8934 27.5142 H 0.0 **** 0.053
25626 H25626 18.445 46.1936 27.8674 H 0.0 **** 0.053
25627 H25627 21.4718 46.2331 27.5586 H 0.0 **** 0.053
25628 H25628 20.578 47.5801 28.2787 H 0.0 **** 0.053
25629 H25629 21.0397 47.4778 25.608 H 0.0 **** 0.053
25630 H25630 19.5703 48.2132 26.2577 H 0.0 **** 0.053
25631 H25631 19.3422 46.443 24.2959 H 0.0 **** 0.053
25632 H25632 18.2006 46.3441 25.6353 H 0.0 **** 0.053
25633 H25633 17.7337 44.3628 7.0734 H 0.0 **** 0.053
25634 H25634 17.5302 45.4296 9.27651 H 0.0 **** 0.053
25635 H25635 19.2951 45.5364 9.44469 H 0.0 **** 0.053
25636 H25636 18.497 43.9489 9.47966 H 0.0 **** 0.053
25637 H25637 18.7573 46.2406 5.7846 H 0.0 **** 0.053
25638 H25638 19.5618 46.8271 7.26165 H 0.0 **** 0.053
25639 H25639 17.7892 46.8579 7.15096 H 0.0 **** 0.053
25640 H25640 23.205 43.6018 17.5213 H 0.0 **** 0.41
25641 H25641 14.7178 40.2749 27.7727 H 0.0 **** 0.1268
25642 H25642 14.156 39.9295 30.1551 H 0.0 **** 0.1268
25643 H25643 14.5666 40.4143 32.5417 H 0.0 **** 0.1268
25644 H25644 14.9729 40.8749 34.9227 H 0.0 **** 0.1268
25645 H25645 16.2131 42.1008 36.6904 H 0.0 **** 0.1268
25646 H25646 19.6201 45.4334 36.7449 H 0.0 **** 0.1268
25647 H25647 17.9326 43.7419 37.3433 H 0.0 **** 0.1268
25648 H25648 20.8052 46.7954 30.186 H 0.0 **** 0.1268
25649 H25649 22.3266 46.8178 31.529 H 0.0 **** 0.053
25650 H25650 21.4719 48.2345 32.1465 H 0.0 **** 0.053
25651 H25651 23.7147 48.0802 33.1936 H 0.0 **** 0.053
25652 H25652 23.3753 46.4195 33.7266 H 0.0 **** 0.053
25653 H25653 21.8177 48.9279 34.5822 H 0.0 **** 0.053
25654 H25654 22.907 48.0188 35.6367 H 0.0 **** 0.053
25655 C25655 53.0329 24.081 22.0489 C.3 0.0 **** 0.054
25656 C25656 51.7422 23.2286 22.0568 C.3 0.0 **** -0.106
25657 C25657 50.5903 23.9915 22.743 C.3 0.0 **** -0.053
25658 C25658 51.1395 24.7195 23.9807 C.3 0.0 **** -0.053
25659 C25659 52.2325 25.727 23.5388 C.3 0.0 **** 0.054
25660 O25660 52.7394 25.4714 22.2233 O.3 0.0 **** -0.32
25661 C25661 51.6642 23.7163 25.0296 C.3 0.0 **** -0.053
25662 C25662 50.7862 22.4351 25.1158 C.3 0.0 **** 0.107
25663 C25663 49.3784 22.7046 24.6122 C.3 0.0 **** -0.106
25664 C25664 49.4014 23.0696 23.1167 C.3 0.0 **** -0.106
25665 O25665 50.6775 21.9524 26.4638 O.3 0.0 **** -0.32
25666 C25666 51.9334 21.9543 27.1636 C.3 0.0 **** 0.107
25667 C25667 52.2898 23.4135 27.4994 C.3 0.0 **** -0.053
25668 C25668 51.7255 24.3695 26.4077 C.3 0.0 **** -0.106
25669 C25669 53.7326 23.6358 27.8118 C.2 0.0 **** 0.0
25670 C25670 54.7071 22.6654 27.6411 C.2 0.0 **** 0.0
25671 C25671 54.4099 21.4044 27.0096 C.2 0.0 **** 0.0
25672 C25672 53.0336 21.1742 26.4268 C.3 0.0 **** -0.053
25673 C25673 55.3954 20.4629 26.77 C.2 0.0 **** 0.0
25674 C25674 56.7499 20.7089 27.2056 C.2 0.0 **** 0.0
25675 C25675 57.0136 21.9459 27.8685 C.2 0.0 **** 0.232
25676 C25676 56.0678 22.9108 28.0782 C.2 0.0 **** 0.0
25677 C25677 56.4319 24.2151 28.7408 C.3 0.0 **** -0.106
25678 C25678 55.2217 24.8614 29.4158 C.3 0.0 **** -0.106
25679 C25679 54.0701 24.971 28.4135 C.3 0.0 **** -0.106
25680 O25680 58.295 22.2286 28.3014 O.3 0.0 **** -0.464
25681 C25681 59.2882 21.2839 28.2116 C.2 0.0 **** 0.232
25682 C25682 59.0991 20.0702 27.5261 C.2 0.0 **** 0.0
25683 C25683 57.7911 19.801 26.9778 C.2 0.0 **** 0.0
25684 C25684 52.7213 19.7052 26.2661 C.2 0.0 **** 0.0
25685 C25685 53.7971 18.8786 25.7251 C.2 0.0 **** 0.0
25686 C25686 55.1118 19.218 26.0504 C.2 0.0 **** 0.0
25687 C25687 53.4029 17.651 25.0366 C.2 0.0 **** 0.0
25688 C25688 52.2333 17.0433 25.3915 C.2 0.0 **** 0.0
25689 C25689 51.286 17.6754 26.3581 C.3 0.0 **** -0.106
25690 C25690 51.5368 19.1346 26.5805 C.2 0.0 **** -0.1268
25691 C25691 51.8624 15.7256 24.7705 C.3 0.0 **** -0.106
25692 C25692 53.1229 14.9242 24.4328 C.3 0.0 **** -0.106
25693 C25693 54.0574 15.7757 23.6089 C.2 0.0 **** 0.0
25694 C25694 54.1674 17.0943 23.8971 C.2 0.0 **** 0.0
25695 C25695 54.9165 18.0498 22.9971 C.3 0.0 **** -0.106
25696 C25696 55.3783 17.4183 21.6789 C.3 0.0 **** -0.053
25697 C25697 55.9336 16.0166 21.9549 C.3 0.0 **** -0.106
25698 C25698 54.8215 15.1188 22.4968 C.3 0.0 **** -0.106
25699 C25699 57.4808 18.6013 26.2555 C.2 0.0 **** -0.012
25700 C25700 56.2029 18.3223 25.8373 C.2 0.0 **** -0.1268
25701 C25701 60.2033 19.1808 27.4887 C.2 0.0 **** 0.0
25702 C25702 60.1169 17.9284 26.7814 C.2 0.0 **** -0.012
25703 S25703 58.7301 17.4598 25.8103 S.2 0.0 **** 0.024
25704 C25704 61.1663 17.0454 26.7774 C.2 0.0 **** -0.1268
25705 C25705 62.3723 17.3299 27.4705 C.2 0.0 **** 0.0
25706 C25706 62.5137 18.574 28.1586 C.2 0.0 **** 0.0
25707 C25707 61.4366 19.5026 28.1585 C.2 0.0 **** 0.0
25708 C25708 63.735 18.8628 28.8223 C.2 0.0 **** 0.0
25709 C25709 64.7902 17.8996 28.83 C.2 0.0 **** 0.0
25710 C25710 64.596 16.6233 28.188 C.2 0.0 **** 0.0
25711 C25711 63.4032 16.3956 27.4843 C.2 0.0 **** -0.1268
25712 C25712 65.6196 15.6362 28.3007 C.2 0.0 **** 0.0
25713 C25713 66.8291 15.9766 28.8765 C.2 0.0 **** 0.042
25714 C25714 67.1118 17.2646 29.4219 C.2 0.0 **** 0.0
25715 C25715 66.0404 18.201 29.4475 C.2 0.0 **** 0.0
25716 C25716 61.5834 20.7595 28.837 C.2 0.0 **** 0.0
25717 C25717 60.4684 21.623 28.8364 C.2 0.0 **** -0.1268
25718 C25718 63.8981 20.1273 29.4786 C.2 0.0 **** 0.0
25719 C25719 62.8352 21.0795 29.4905 C.2 0.0 **** 0.0
25720 C25720 66.2136 19.4757 30.0826 C.2 0.0 **** 0.0
25721 C25721 65.1472 20.4119 30.1077 C.2 0.0 **** 0.0
25722 C25722 68.3993 17.6321 29.9573 C.2 0.0 **** 0.0
25723 C25723 68.5356 18.8837 30.6288 C.2 0.0 **** 0.0
25724 C25724 67.4523 19.7956 30.6982 C.2 0.0 **** 0.0
25725 O25725 67.7593 14.9666 28.9947 O.3 0.0 **** -0.202
25726 C25726 68.0646 14.2369 27.7726 C.3 0.0 **** 0.107
25727 C25727 66.7808 13.9024 26.9728 C.3 0.0 **** -0.053
25728 C25728 65.5792 14.1673 27.8913 C.3 0.0 **** 0.107
25729 C25729 66.8323 12.4795 26.403 C.3 0.0 **** -0.106
25730 C25730 68.2407 12.2111 25.8624 C.3 0.0 **** -0.106
25731 C25731 69.2326 12.075 27.0215 C.3 0.0 **** 0.134
25732 C25732 68.8686 13.0167 28.2182 C.3 0.0 **** -0.053
25733 C25733 70.1481 13.4471 28.9545 C.3 0.0 **** -0.106
25734 C25734 71.1622 12.3067 29.0268 C.3 0.0 **** -0.106
25735 C25735 71.5871 11.8843 27.5923 C.3 0.0 **** 0.081
25736 N25736 70.6092 12.2354 26.5513 N.3 0.0 **** -0.727
25737 C25737 63.0778 22.3276 30.1662 C.2 0.0 **** 0.042
25738 C25738 64.2744 22.5795 30.8193 C.2 0.0 **** 0.042
25739 C25739 65.348 21.6522 30.7861 C.2 0.0 **** 0.0
25740 O25740 64.5141 23.7407 31.5171 O.3 0.0 **** -0.202
25741 C25741 63.3389 24.529 31.8053 C.3 0.0 **** 0.107
25742 C25742 62.5279 24.6182 30.5235 C.3 0.0 **** 0.107
25743 O25743 62.095 23.292 30.1626 O.3 0.0 **** -0.202
25744 C25744 63.312 25.2838 29.3734 C.3 0.0 **** -0.106
25745 C25745 64.3836 26.2753 29.8762 C.3 0.0 **** -0.106
25746 C25746 63.9336 26.9407 31.1816 C.3 0.0 **** -0.106
25747 C25747 63.7951 25.8992 32.311 C.3 0.0 **** -0.106
25748 C25748 67.6335 21.0489 31.3715 C.2 0.0 **** 0.0
25749 C25749 66.5692 21.9495 31.4088 C.2 0.0 **** -0.1268
25750 C25750 69.7852 19.2193 31.2213 C.2 0.0 **** 0.0
25751 C25751 69.9206 20.4626 31.9132 C.2 0.0 **** 0.042
25752 C25752 68.8876 21.3555 31.9869 C.2 0.0 **** -0.1268
25753 C25753 70.8887 18.3584 31.1236 C.2 0.0 **** 0.0
25754 C25754 70.772 17.1697 30.3914 C.2 0.0 **** 0.0
25755 C25755 69.5527 16.8338 29.8321 C.2 0.0 **** -0.1268
25756 O25756 71.1209 20.798 32.5211 O.3 0.0 **** -0.0685
25757 C25757 72.1886 19.9303 32.4941 C.2 0.0 **** 0.0265
25758 C25758 72.1194 18.7189 31.7851 C.2 0.0 **** 0.0
25759 C25759 71.9513 16.2631 30.1584 C.3 0.0 **** -0.053
25760 C25760 73.127 16.4896 31.1368 C.3 0.0 **** -0.053
25761 C25761 73.2173 17.8545 31.7659 C.2 0.0 **** 0.0
25762 C25762 74.4828 16.1632 30.4825 C.3 0.0 **** -0.053
25763 C25763 74.3541 14.9117 29.622 C.3 0.0 **** -0.106
25764 C25764 73.4389 15.21 28.4081 C.3 0.0 **** -0.106
25765 C25765 72.437 16.3431 28.6998 C.3 0.0 **** -0.106
25766 C25766 74.3973 18.1922 32.4459 C.2 0.0 **** 0.0
25767 C25767 74.445 19.3877 33.2174 C.2 0.0 **** 0.0
25768 C25768 73.3326 20.2868 33.2329 C.2 0.0 **** 0.0
25769 C25769 75.5556 16.1951 31.5363 C.2 0.0 **** 0.0
25770 C25770 75.5258 17.3015 32.4302 C.2 0.0 **** 0.0
25771 C25771 56.3648 18.3426 20.9348 C.3 0.0 **** -0.053
25772 C25772 57.7508 18.3803 21.5917 C.3 0.0 **** -0.159
25773 C25773 56.4866 17.947 19.4596 C.3 0.0 **** -0.159
25774 O25774 64.4064 13.6789 27.2378 O.3 0.0 **** -0.57
25775 C25775 73.4168 21.4868 34.0119 C.2 0.0 **** -0.1268
25776 C25776 74.529 21.7583 34.7593 C.2 0.0 **** -0.1268
25777 C25777 75.6443 20.8575 34.8026 C.2 0.0 **** 0.0
25778 C25778 75.591 19.6627 34.0143 C.2 0.0 **** 0.0
25779 C25779 76.6708 18.7413 34.0569 C.2 0.0 **** 0.0
25780 C25780 77.7961 19.0018 34.8739 C.2 0.0 **** 0.0
25781 C25781 77.8435 20.2018 35.6545 C.2 0.0 **** 0.0
25782 C25782 76.7675 21.1023 35.5994 C.2 0.0 **** -0.1268
25783 C25783 78.9883 20.4475 36.4741 C.2 0.0 **** -0.1268
25784 C25784 80.026 19.5545 36.5192 C.2 0.0 **** -0.1268
25785 C25785 80.0013 18.353 35.7471 C.2 0.0 **** 0.0
25786 C25786 78.8818 18.0779 34.9174 C.2 0.0 **** 0.0
25787 C25787 78.852 16.8867 34.1308 C.2 0.0 **** 0.0
25788 C25788 77.7232 16.6328 33.3013 C.2 0.0 **** 0.0
25789 C25789 76.6348 17.5507 33.2649 C.2 0.0 **** 0.0
25790 C25790 79.9451 15.9706 34.1606 C.2 0.0 **** 0.0
25791 C25791 81.0382 16.2694 35.0205 C.2 0.0 **** -0.1268
25792 C25792 81.0597 17.4177 35.7843 C.2 0.0 **** -0.1268
25793 C25793 76.5884 15.2875 31.6084 C.2 0.0 **** -0.1268
25794 C25794 77.6714 15.4515 32.5113 C.2 0.0 **** 0.0
25795 C25795 79.876 14.7673 33.357 C.2 0.0 **** 0.052
25796 C25796 78.7272 14.4922 32.603 C.2 0.0 **** 0.0
25797 C25797 78.5574 13.1818 31.8668 C.3 0.0 **** -0.106
25798 C25798 79.3914 12.0656 32.4835 C.3 0.0 **** -0.106
25799 C25799 80.8427 12.5147 32.5195 C.3 0.0 **** -0.086
25800 C25800 81.0468 13.8467 33.2304 C.2 0.0 **** 0.347
25801 O25801 82.1837 14.1268 33.6135 O.2 0.0 **** -0.419
25802 H25802 53.5648 24.0024 21.0909 H 0.0 **** 0.053
25803 H25803 53.7232 23.7497 22.8504 H 0.0 **** 0.053
25804 H25804 51.4383 22.9703 21.0309 H 0.0 **** 0.053
25805 H25805 51.9319 22.2804 22.5842 H 0.0 **** 0.053
25806 H25806 50.243 24.7569 22.0338 H 0.0 **** 0.053
25807 H25807 50.317 25.288 24.4462 H 0.0 **** 0.053
25808 H25808 53.0727 25.7069 24.264 H 0.0 **** 0.053
25809 H25809 51.8371 26.7515 23.4968 H 0.0 **** 0.053
25810 H25810 52.6874 23.4309 24.7373 H 0.0 **** 0.053
25811 H25811 51.2325 21.6342 24.4951 H 0.0 **** 0.053
25812 H25812 48.95 23.5288 25.2051 H 0.0 **** 0.053
25813 H25813 48.7491 21.8204 24.7882 H 0.0 **** 0.053
25814 H25814 48.4501 23.5557 22.8533 H 0.0 **** 0.053
25815 H25815 49.4591 22.1481 22.5144 H 0.0 **** 0.053
25816 H25816 51.731 21.4131 28.0995 H 0.0 **** 0.053
25817 H25817 51.7355 23.6695 28.4226 H 0.0 **** 0.053
25818 H25818 52.3233 25.292 26.3639 H 0.0 **** 0.053
25819 H25819 50.701 24.6635 26.6853 H 0.0 **** 0.053
25820 H25820 53.1136 21.5769 25.3967 H 0.0 **** 0.053
25821 H25821 57.2472 24.0544 29.4608 H 0.0 **** 0.053
25822 H25822 56.8311 24.9093 27.9772 H 0.0 **** 0.053
25823 H25823 55.4887 25.8528 29.8125 H 0.0 **** 0.053
25824 H25824 54.9008 24.2372 30.2655 H 0.0 **** 0.053
25825 H25825 54.3564 25.6864 27.6167 H 0.0 **** 0.053
25826 H25826 53.1704 25.3965 28.8893 H 0.0 **** 0.053
25827 H25827 51.3261 17.1371 27.3308 H 0.0 **** 0.053
25828 H25828 50.248 17.508 26.0097 H 0.0 **** 0.053
25829 H25829 50.7275 19.7268 27.0043 H 0.0 **** 0.1268
25830 H25830 51.2031 15.1632 25.4508 H 0.0 **** 0.053
25831 H25831 51.2801 15.909 23.8446 H 0.0 **** 0.053
25832 H25832 52.8712 14.0011 23.8875 H 0.0 **** 0.053
25833 H25833 53.6213 14.6183 25.3728 H 0.0 **** 0.053
25834 H25834 54.2579 18.9111 22.7854 H 0.0 **** 0.053
25835 H25835 55.7839 18.4802 23.5204 H 0.0 **** 0.053
25836 H25836 54.4896 17.295 21.0321 H 0.0 **** 0.053
25837 H25837 56.7374 16.0895 22.7057 H 0.0 **** 0.053
25838 H25838 56.3729 15.579 21.0454 H 0.0 **** 0.053
25839 H25839 55.234 14.1617 22.865 H 0.0 **** 0.053
25840 H25840 54.1258 14.842 21.6808 H 0.0 **** 0.053
25841 H25841 56.0013 17.3651 25.357 H 0.0 **** 0.1268
25842 H25842 61.087 16.0952 26.2443 H 0.0 **** 0.1268
25843 H25843 63.2816 15.4848 26.9063 H 0.0 **** 0.1268
25844 H25844 60.5049 22.5794 29.337 H 0.0 **** 0.1268
25845 H25845 68.7182 14.8899 27.1644 H 0.0 **** 0.053
25846 H25846 66.7007 14.6062 26.129 H 0.0 **** 0.053
25847 H25847 65.7445 13.5734 28.814 H 0.0 **** 0.053
25848 H25848 66.5868 11.749 27.1929 H 0.0 **** 0.053
25849 H25849 66.067 12.3703 25.6243 H 0.0 **** 0.053
25850 H25850 68.549 13.0557 25.22 H 0.0 **** 0.053
25851 H25851 68.2856 11.3092 25.2366 H 0.0 **** 0.053
25852 H25852 69.1648 11.0416 27.4023 H 0.0 **** 0.053
25853 H25853 68.2296 12.4521 28.9182 H 0.0 **** 0.053
25854 H25854 70.6035 14.2893 28.4055 H 0.0 **** 0.053
25855 H25855 69.8978 13.8283 29.9538 H 0.0 **** 0.053
25856 H25856 70.7069 11.4539 29.5555 H 0.0 **** 0.053
25857 H25857 72.0455 12.6093 29.6116 H 0.0 **** 0.053
25858 H25858 71.7494 10.7936 27.5598 H 0.0 **** 0.053
25859 H25859 72.5428 12.3565 27.3203 H 0.0 **** 0.053
25860 H25860 70.7509 13.2009 26.2516 H 0.0 **** 0.353
25861 H25861 62.7507 23.9924 32.5683 H 0.0 **** 0.053
25862 H25862 61.5932 25.1593 30.7282 H 0.0 **** 0.053
25863 H25863 63.7831 24.4889 28.7771 H 0.0 **** 0.053
25864 H25864 62.5902 25.7939 28.7189 H 0.0 **** 0.053
25865 H25865 64.5808 27.0316 29.1023 H 0.0 **** 0.053
25866 H25866 65.3258 25.7369 30.056 H 0.0 **** 0.053
25867 H25867 62.9634 27.4387 31.013 H 0.0 **** 0.053
25868 H25868 64.6397 27.7264 31.4882 H 0.0 **** 0.053
25869 H25869 63.0836 26.2523 33.0724 H 0.0 **** 0.053
25870 H25870 64.7599 25.7486 32.8193 H 0.0 **** 0.053
25871 H25871 66.6879 22.9013 31.9241 H 0.0 **** 0.1268
25872 H25872 69.0165 22.3039 32.5095 H 0.0 **** 0.1268
25873 H25873 69.4853 15.9058 29.2867 H 0.0 **** 0.1268
25874 H25874 71.604 15.2285 30.3025 H 0.0 **** 0.053
25875 H25875 73.0046 15.7756 31.9755 H 0.0 **** 0.053
25876 H25876 74.7206 17.0088 29.8059 H 0.0 **** 0.053
25877 H25877 73.929 14.1031 30.2407 H 0.0 **** 0.053
25878 H25878 75.3365 14.564 29.2721 H 0.0 **** 0.053
25879 H25879 72.8865 14.2986 28.1392 H 0.0 **** 0.053
25880 H25880 74.0535 15.4801 27.5357 H 0.0 **** 0.053
25881 H25881 71.5725 16.2819 28.0215 H 0.0 **** 0.053
25882 H25882 72.8947 17.3306 28.5303 H 0.0 **** 0.053
25883 H25883 55.9378 19.3612 20.9786 H 0.0 **** 0.053
25884 H25884 58.3808 19.1481 21.1182 H 0.0 **** 0.053
25885 H25885 58.2605 17.4118 21.4721 H 0.0 **** 0.053
25886 H25886 57.7005 18.6001 22.669 H 0.0 **** 0.053
25887 H25887 55.5022 17.9499 18.9653 H 0.0 **** 0.053
25888 H25888 56.9123 16.9357 19.3605 H 0.0 **** 0.053
25889 H25889 57.1476 18.6397 18.9168 H 0.0 **** 0.053
25890 H25890 63.6838 13.7053 27.8838 H 0.0 **** 0.41
25891 H25891 72.5719 22.1752 34.0039 H 0.0 **** 0.1268
25892 H25892 74.5825 22.6725 35.3531 H 0.0 **** 0.1268
25893 H25893 76.8063 22.0129 36.2013 H 0.0 **** 0.1268
25894 H25894 79.0148 21.3641 37.0662 H 0.0 **** 0.1268
25895 H25895 80.8946 19.7441 37.1527 H 0.0 **** 0.1268
25896 H25896 81.8715 15.5761 35.0577 H 0.0 **** 0.1268
25897 H25897 81.9121 17.6159 36.4377 H 0.0 **** 0.1268
25898 H25898 76.5904 14.4458 30.921 H 0.0 **** 0.1268
25899 H25899 77.4953 12.8995 31.8745 H 0.0 **** 0.053
25900 H25900 78.8389 13.31 30.8045 H 0.0 **** 0.053
25901 H25901 79.2759 11.1335 31.9097 H 0.0 **** 0.053
25902 H25902 79.0328 11.8715 33.5076 H 0.0 **** 0.053
25903 H25903 81.2132 12.6545 31.4871 H 0.0 **** 0.053
25904 H25904 81.5146 11.7882 32.9982 H 0.0 **** 0.053
25905 C25905 0.272324 66.7038 -3.72776 C.3 0.0 **** 0.054
25906 C25906 -0.0261456 65.8283 -4.96741 C.3 0.0 **** -0.106
25907 C25907 -1.40235 66.1842 -5.5667 C.3 0.0 **** -0.053
25908 C25908 -2.40302 66.4116 -4.42193 C.3 0.0 **** -0.053
25909 C25909 -1.90885 67.5843 -3.53559 C.3 0.0 **** 0.054
25910 O25910 -0.52322 67.8941 -3.72756 O.3 0.0 **** -0.32
25911 C25911 -2.61991 65.119 -3.607 C.3 0.0 **** -0.053
25912 C25912 -2.62636 63.8474 -4.50287 C.3 0.0 **** 0.107
25913 C25913 -2.98908 64.1932 -5.93709 C.3 0.0 **** -0.106
25914 C25914 -1.91918 65.11 -6.55764 C.3 0.0 **** -0.106
25915 O25915 -3.57512 62.8737 -4.04045 O.3 0.0 **** -0.32
25916 C25916 -3.54199 62.6907 -2.61484 C.3 0.0 **** 0.107
25917 C25917 -4.18518 63.9265 -1.96053 C.3 0.0 **** -0.053
25918 C25918 -3.93522 65.1896 -2.83598 C.3 0.0 **** -0.106
25919 C25919 -3.83632 64.1092 -0.520545 C.2 0.0 **** 0.0
25920 C25920 -2.87854 63.3505 0.133198 C.2 0.0 **** 0.0
25921 C25921 -2.04484 62.4155 -0.579678 C.2 0.0 **** 0.0
25922 C25922 -2.14328 62.335 -2.08651 C.3 0.0 **** -0.053
25923 C25923 -1.03747 61.7108 0.0558118 C.2 0.0 **** 0.0
25924 C25924 -0.837541 61.8614 1.4778 C.2 0.0 **** 0.0
25925 C25925 -1.70322 62.7597 2.17262 C.2 0.0 **** 0.232
25926 C25926 -2.67657 63.5004 1.56128 C.2 0.0 **** 0.0
25927 C25927 -3.51961 64.4676 2.35284 C.3 0.0 **** -0.106
25928 C25928 -4.87103 64.7167 1.68227 C.3 0.0 **** -0.106
25929 C25929 -4.65475 65.1266 0.223568 C.3 0.0 **** -0.106
25930 O25930 -1.54931 62.9402 3.53386 O.3 0.0 **** -0.464
25931 C25931 -0.65686 62.1749 4.2446 C.2 0.0 **** 0.232
25932 C25932 0.25343 61.3119 3.60793 C.2 0.0 **** 0.0
25933 C25933 0.174141 61.1868 2.17194 C.2 0.0 **** 0.0
25934 C25934 -1.61556 61.0253 -2.62284 C.2 0.0 **** 0.0
25935 C25935 -0.367557 60.5493 -2.03189 C.2 0.0 **** 0.0
25936 C25936 -0.13295 60.8258 -0.683533 C.2 0.0 **** 0.0
25937 C25937 0.453467 59.6605 -2.85196 C.2 0.0 **** 0.0
25938 C25938 -0.156122 58.8838 -3.79438 C.2 0.0 **** 0.0
25939 C25939 -1.61108 59.0249 -4.10161 C.3 0.0 **** -0.106
25940 C25940 -2.21358 60.2974 -3.59228 C.2 0.0 **** -0.1268
25941 C25941 0.655448 57.8876 -4.57446 C.3 0.0 **** -0.106
25942 C25942 1.81886 57.3686 -3.72453 C.3 0.0 **** -0.106
25943 C25943 2.60143 58.535 -3.17303 C.2 0.0 **** 0.0
25944 C25944 1.93224 59.6431 -2.77515 C.2 0.0 **** 0.0
25945 C25945 2.6493 60.9218 -2.40833 C.3 0.0 **** -0.106
25946 C25946 4.15575 60.884 -2.68929 C.3 0.0 **** -0.053
25947 C25947 4.71926 59.5268 -2.25373 C.3 0.0 **** -0.106
25948 C25948 4.09539 58.4148 -3.09683 C.3 0.0 **** -0.106
25949 C25949 1.05135 60.3426 1.41369 C.2 0.0 **** -0.012
25950 C25950 0.885901 60.1602 0.0626891 C.2 0.0 **** -0.1268
25951 C25951 1.13576 60.5849 4.4473 C.2 0.0 **** 0.0
25952 C25952 2.12637 59.7018 3.88595 C.2 0.0 **** -0.012
25953 S25953 2.42192 59.5519 2.16084 S.2 0.0 **** 0.024
25954 C25954 2.9538 58.9639 4.69331 C.2 0.0 **** -0.1268
25955 C25955 2.86354 59.04 6.10816 C.2 0.0 **** 0.0
25956 C25956 1.91737 59.9266 6.70802 C.2 0.0 **** 0.0
25957 C25957 1.06313 60.7061 5.88025 C.2 0.0 **** 0.0
25958 C25958 1.85627 60.019 8.12333 C.2 0.0 **** 0.0
25959 C25959 2.70693 59.2033 8.93087 C.2 0.0 **** 0.0
25960 C25960 3.60331 58.2654 8.3018 C.2 0.0 **** 0.0
25961 C25961 3.68712 58.2467 6.9009 C.2 0.0 **** -0.1268
25962 C25962 4.36411 57.3849 9.12684 C.2 0.0 **** 0.0
25963 C25963 4.34839 57.558 10.4979 C.2 0.0 **** 0.042
25964 C25964 3.56662 58.5501 11.162 C.2 0.0 **** 0.0
25965 C25965 2.69164 59.3272 10.3521 C.2 0.0 **** 0.0
25966 C25966 0.122472 61.6086 6.48196 C.2 0.0 **** 0.0
25967 C25967 -0.725073 62.3258 5.61236 C.2 0.0 **** -0.1268
25968 C25968 0.938087 60.9383 8.73023 C.2 0.0 **** 0.0
25969 C25969 0.0722232 61.7358 7.92348 C.2 0.0 **** 0.0
25970 C25970 1.79148 60.2647 10.9593 C.2 0.0 **** 0.0
25971 C25971 0.919292 61.0421 10.1535 C.2 0.0 **** 0.0
25972 C25972 3.60992 58.7691 12.5866 C.2 0.0 **** 0.0
25973 C25973 2.67176 59.6688 13.1752 C.2 0.0 **** 0.0
25974 C25974 1.7654 60.4056 12.3719 C.2 0.0 **** 0.0
25975 O25975 5.06919 56.6478 11.2406 O.3 0.0 **** -0.202
25976 C25976 6.46144 56.4717 10.8537 C.3 0.0 **** 0.107
25977 C25977 6.61888 56.3857 9.31491 C.3 0.0 **** -0.053
25978 C25978 5.21895 56.1905 8.71515 C.3 0.0 **** 0.107
25979 C25979 7.62817 55.3022 8.91625 C.3 0.0 **** -0.106
25980 C25980 8.82514 55.3619 9.87104 C.3 0.0 **** -0.106
25981 C25981 8.41796 54.856 11.2582 C.3 0.0 **** 0.134
25982 C25982 6.93935 55.2327 11.6089 C.3 0.0 **** -0.053
25983 C25983 6.79496 55.4312 13.127 C.3 0.0 **** -0.106
25984 C25984 7.64057 54.4246 13.9054 C.3 0.0 **** -0.106
25985 C25985 9.14468 54.6216 13.5653 C.3 0.0 **** 0.081
25986 N25986 9.38401 55.2805 12.2723 N.3 0.0 **** -0.727
25987 C25987 -0.817738 62.6379 8.60691 C.2 0.0 **** 0.042
25988 C25988 -0.868322 62.6987 9.99105 C.2 0.0 **** 0.042
25989 C25989 0.0102659 61.9332 10.8006 C.2 0.0 **** 0.0
25990 O25990 -1.74503 63.5123 10.6711 O.3 0.0 **** -0.202
25991 C25991 -2.82367 64.0443 9.87168 C.3 0.0 **** 0.107
25992 C25992 -2.21561 64.5672 8.58106 C.3 0.0 **** 0.107
25993 O25993 -1.63801 63.4581 7.86508 O.3 0.0 **** -0.202
25994 C25994 -1.17417 65.6789 8.82662 C.3 0.0 **** -0.106
25995 C25995 -1.43907 66.4693 10.1263 C.3 0.0 **** -0.106
25996 C25996 -2.94235 66.544 10.4162 C.3 0.0 **** -0.106
25997 C25997 -3.52246 65.1393 10.6804 C.3 0.0 **** -0.106
25998 C25998 0.846429 61.3091 13.001 C.2 0.0 **** 0.0
25999 C25999 -0.0213093 62.0492 12.198 C.2 0.0 **** -0.1268
26000 C26000 2.66351 59.8338 14.5887 C.2 0.0 **** 0.0
26001 C26001 1.71178 60.7178 15.1849 C.2 0.0 **** 0.042
26002 C26002 0.832717 61.4389 14.4252 C.2 0.0 **** -0.1268
26003 C26003 3.58313 59.1563 15.4034 C.2 0.0 **** 0.0
26004 C26004 4.55555 58.3392 14.8121 C.2 0.0 **** 0.0
26005 C26005 4.5518 58.1633 13.4405 C.2 0.0 **** -0.1268
26006 O26006 1.66789 60.8732 16.5621 O.3 0.0 **** -0.0685
26007 C26007 2.51664 60.1596 17.3769 C.2 0.0 **** 0.0265
26008 C26008 3.50151 59.3161 16.8351 C.2 0.0 **** 0.0
26009 C26009 5.63612 57.6774 15.6253 C.3 0.0 **** -0.053
26010 C26010 5.32519 57.5874 17.1373 C.3 0.0 **** -0.053
26011 C26011 4.35701 58.6045 17.6806 C.2 0.0 **** 0.0
26012 C26012 6.60967 57.6344 17.9862 C.3 0.0 **** -0.053
26013 C26013 7.70244 56.8085 17.3174 C.3 0.0 **** -0.106
26014 C26014 8.12912 57.4902 15.9933 C.3 0.0 **** -0.106
26015 C26015 7.00116 58.3498 15.3918 C.3 0.0 **** -0.106
26016 C26016 4.24521 58.7327 19.0733 C.2 0.0 **** 0.0
26017 C26017 3.20617 59.5359 19.6229 C.2 0.0 **** 0.0
26018 C26018 2.33383 60.2797 18.7676 C.2 0.0 **** 0.0
26019 C26019 6.26234 57.3292 19.4175 C.2 0.0 **** 0.0
26020 C26020 5.12219 57.9977 19.9439 C.2 0.0 **** 0.0
26021 C26021 4.8721 62.09 -2.04617 C.3 0.0 **** -0.053
26022 C26022 4.98755 61.9656 -0.521359 C.3 0.0 **** -0.159
26023 C26023 6.25558 62.3065 -2.66797 C.3 0.0 **** -0.159
26024 O26024 5.36915 55.9141 7.32163 O.3 0.0 **** -0.57
26025 C26025 1.30441 61.0868 19.3532 C.2 0.0 **** -0.1268
26026 C26026 1.13135 61.1233 20.7089 C.2 0.0 **** -0.1268
26027 C26027 1.95873 60.3553 21.5937 C.2 0.0 **** 0.0
26028 C26028 3.00819 59.5588 21.0316 C.2 0.0 **** 0.0
26029 C26029 3.82707 58.7697 21.8822 C.2 0.0 **** 0.0
26030 C26030 3.60863 58.7701 23.28 C.2 0.0 **** 0.0
26031 C26031 2.56058 59.5739 23.8341 C.2 0.0 **** 0.0
26032 C26032 1.76129 60.3488 22.9784 C.2 0.0 **** -0.1268
26033 C26033 2.35476 59.5609 25.2484 C.2 0.0 **** -0.1268
26034 C26034 3.14119 58.794 26.0667 C.2 0.0 **** -0.1268
26035 C26035 4.19375 57.9871 25.5364 C.2 0.0 **** 0.0
26036 C26036 4.43046 57.9787 24.1359 C.2 0.0 **** 0.0
26037 C26037 5.48835 57.1865 23.5957 C.2 0.0 **** 0.0
26038 C26038 5.71267 57.1968 22.1898 C.2 0.0 **** 0.0
26039 C26039 4.88612 57.9796 21.3341 C.2 0.0 **** 0.0
26040 C26040 6.32177 56.4081 24.4527 C.2 0.0 **** 0.0
26041 C26041 6.03956 56.4248 25.8469 C.2 0.0 **** -0.1268
26042 C26042 5.01194 57.1858 26.3639 C.2 0.0 **** -0.1268
26043 C26043 7.03034 56.538 20.2421 C.2 0.0 **** -0.1268
26044 C26044 6.7592 56.4135 21.63 C.2 0.0 **** 0.0
26045 C26045 7.37916 55.6086 23.8686 C.2 0.0 **** 0.052
26046 C26046 7.54163 55.5688 22.4772 C.2 0.0 **** 0.0
26047 C26047 8.53747 54.6379 21.8219 C.3 0.0 **** -0.106
26048 C26048 8.85414 53.4302 22.6955 C.3 0.0 **** -0.106
26049 C26049 9.34344 53.9291 24.0449 C.3 0.0 **** -0.086
26050 C26050 8.37586 54.8921 24.7215 C.2 0.0 **** 0.347
26051 O26051 8.50237 55.0794 25.9326 O.2 0.0 **** -0.419
26052 H26052 1.31817 67.0395 -3.71083 H 0.0 **** 0.053
26053 H26053 0.0812067 66.1361 -2.79506 H 0.0 **** 0.053
26054 H26054 0.746295 65.9674 -5.7392 H 0.0 **** 0.053
26055 H26055 -0.0049748 64.7652 -4.6796 H 0.0 **** 0.053
26056 H26056 -1.28459 67.1388 -6.09997 H 0.0 **** 0.053
26057 H26057 -3.37493 66.6971 -4.85797 H 0.0 **** 0.053
26058 H26058 -2.08411 67.3427 -2.46636 H 0.0 **** 0.053
26059 H26059 -2.44342 68.5152 -3.77128 H 0.0 **** 0.053
26060 H26060 -1.79698 65.0404 -2.87865 H 0.0 **** 0.053
26061 H26061 -1.62155 63.3824 -4.4985 H 0.0 **** 0.053
26062 H26062 -3.97192 64.6916 -5.93557 H 0.0 **** 0.053
26063 H26063 -3.09765 63.2689 -6.52236 H 0.0 **** 0.053
26064 H26064 -2.33887 65.5935 -7.45256 H 0.0 **** 0.053
26065 H26065 -1.0676 64.5003 -6.90171 H 0.0 **** 0.053
26066 H26066 -4.18389 61.8165 -2.43171 H 0.0 **** 0.053
26067 H26067 -5.27992 63.7658 -1.99048 H 0.0 **** 0.053
26068 H26068 -3.96139 66.0957 -2.21269 H 0.0 **** 0.053
26069 H26069 -4.75028 65.2817 -3.57105 H 0.0 **** 0.053
26070 H26070 -1.43234 63.11 -2.43822 H 0.0 **** 0.053
26071 H26071 -3.6501 64.097 3.37975 H 0.0 **** 0.053
26072 H26072 -2.97941 65.4292 2.44142 H 0.0 **** 0.053
26073 H26073 -5.43102 65.4927 2.22616 H 0.0 **** 0.053
26074 H26074 -5.46909 63.7915 1.71103 H 0.0 **** 0.053
26075 H26075 -4.14921 66.1128 0.200386 H 0.0 **** 0.053
26076 H26076 -5.61818 65.2713 -0.293924 H 0.0 **** 0.053
26077 H26077 -2.16894 58.1558 -3.68808 H 0.0 **** 0.053
26078 H26078 -1.76057 58.9345 -5.19534 H 0.0 **** 0.053
26079 H26079 -3.15486 60.6217 -4.03287 H 0.0 **** 0.1268
26080 H26080 0.00995446 57.0614 -4.91305 H 0.0 **** 0.053
26081 H26081 1.05203 58.3749 -5.48834 H 0.0 **** 0.053
26082 H26082 2.47928 56.714 -4.31447 H 0.0 **** 0.053
26083 H26083 1.41699 56.7574 -2.8935 H 0.0 **** 0.053
26084 H26084 2.18687 61.7502 -2.97424 H 0.0 **** 0.053
26085 H26085 2.48053 61.1744 -1.35043 H 0.0 **** 0.053
26086 H26086 4.29878 60.9601 -3.78343 H 0.0 **** 0.053
26087 H26087 4.47174 59.3582 -1.19291 H 0.0 **** 0.053
26088 H26088 5.81637 59.5073 -2.34183 H 0.0 **** 0.053
26089 H26089 4.35232 57.4207 -2.68755 H 0.0 **** 0.053
26090 H26090 4.52192 58.4288 -4.11883 H 0.0 **** 0.053
26091 H26091 1.53085 59.4525 -0.457698 H 0.0 **** 0.1268
26092 H26092 3.69606 58.2916 4.25693 H 0.0 **** 0.1268
26093 H26093 4.43061 57.6251 6.41178 H 0.0 **** 0.1268
26094 H26094 -1.46388 63.0135 5.9969 H 0.0 **** 0.1268
26095 H26095 7.013 57.3527 11.232 H 0.0 **** 0.053
26096 H26096 6.99323 57.3543 8.94675 H 0.0 **** 0.053
26097 H26097 4.7808 55.2983 9.20862 H 0.0 **** 0.053
26098 H26098 7.15304 54.3076 8.97006 H 0.0 **** 0.053
26099 H26099 7.92967 55.4508 7.87167 H 0.0 **** 0.053
26100 H26100 9.16958 56.4086 9.95474 H 0.0 **** 0.053
26101 H26101 9.68203 54.7785 9.50741 H 0.0 **** 0.053
26102 H26102 8.46645 53.7537 11.2414 H 0.0 **** 0.053
26103 H26103 6.28842 54.3984 11.297 H 0.0 **** 0.053
26104 H26104 7.13515 56.4495 13.3825 H 0.0 **** 0.053
26105 H26105 5.73633 55.377 13.4152 H 0.0 **** 0.053
26106 H26106 7.32059 53.4045 13.6392 H 0.0 **** 0.053
26107 H26107 7.47769 54.537 14.9892 H 0.0 **** 0.053
26108 H26108 9.65331 53.6427 13.5534 H 0.0 **** 0.053
26109 H26109 9.63749 55.227 14.3405 H 0.0 **** 0.053
26110 H26110 9.33092 56.2939 12.3825 H 0.0 **** 0.353
26111 H26111 -3.51133 63.2148 9.63684 H 0.0 **** 0.053
26112 H26112 -3.02198 64.9209 7.92295 H 0.0 **** 0.053
26113 H26113 -0.179382 65.2117 8.86471 H 0.0 **** 0.053
26114 H26114 -1.18196 66.3517 7.95662 H 0.0 **** 0.053
26115 H26115 -1.00915 67.478 10.0406 H 0.0 **** 0.053
26116 H26116 -0.937396 65.9695 10.9682 H 0.0 **** 0.053
26117 H26117 -3.45108 67.0003 9.54977 H 0.0 **** 0.053
26118 H26118 -3.14638 67.196 11.2782 H 0.0 **** 0.053
26119 H26119 -4.59821 65.1197 10.4504 H 0.0 **** 0.053
26120 H26120 -3.4169 64.8704 11.7426 H 0.0 **** 0.053
26121 H26121 -0.731317 62.7327 12.6611 H 0.0 **** 0.1268
26122 H26122 0.122899 62.117 14.9001 H 0.0 **** 0.1268
26123 H26123 5.30128 57.5169 13.0118 H 0.0 **** 0.1268
26124 H26124 5.74211 56.6466 15.254 H 0.0 **** 0.053
26125 H26125 4.86305 56.5976 17.324 H 0.0 **** 0.053
26126 H26126 6.94781 58.6903 17.9924 H 0.0 **** 0.053
26127 H26127 7.30834 55.7962 17.1247 H 0.0 **** 0.053
26128 H26128 8.57529 56.6922 17.9754 H 0.0 **** 0.053
26129 H26129 8.42245 56.7185 15.2676 H 0.0 **** 0.053
26130 H26130 9.01594 58.119 16.1669 H 0.0 **** 0.053
26131 H26131 7.15772 58.4968 14.3125 H 0.0 **** 0.053
26132 H26132 6.98505 59.3548 15.8426 H 0.0 **** 0.053
26133 H26133 4.25629 62.9801 -2.27092 H 0.0 **** 0.053
26134 H26134 5.37764 62.8984 -0.0871102 H 0.0 **** 0.053
26135 H26135 5.68439 61.1568 -0.25235 H 0.0 **** 0.053
26136 H26136 4.02123 61.7466 -0.0421347 H 0.0 **** 0.053
26137 H26137 6.18468 62.4329 -3.75985 H 0.0 **** 0.053
26138 H26138 6.91223 61.4447 -2.46873 H 0.0 **** 0.053
26139 H26139 6.74352 63.1992 -2.24792 H 0.0 **** 0.053
26140 H26140 4.50196 55.6381 6.98694 H 0.0 **** 0.41
26141 H26141 0.655614 61.6645 18.6951 H 0.0 **** 0.1268
26142 H26142 0.341839 61.7372 21.1459 H 0.0 **** 0.1268
26143 H26143 0.959727 60.9554 23.4057 H 0.0 **** 0.1268
26144 H26144 1.55297 60.1759 25.6612 H 0.0 **** 0.1268
26145 H26145 2.97453 58.7827 27.1456 H 0.0 **** 0.1268
26146 H26146 6.66147 55.8304 26.5076 H 0.0 **** 0.1268
26147 H26147 4.81862 57.1735 27.4387 H 0.0 **** 0.1268
26148 H26148 7.89387 56.0308 19.8203 H 0.0 **** 0.1268
26149 H26149 8.1349 54.3022 20.8559 H 0.0 **** 0.053
26150 H26150 9.47152 55.1869 21.5973 H 0.0 **** 0.053
26151 H26151 9.60503 52.7878 22.211 H 0.0 **** 0.053
26152 H26152 7.93874 52.8302 22.8263 H 0.0 **** 0.053
26153 H26153 10.2913 54.4833 23.9138 H 0.0 **** 0.053
26154 H26154 9.54861 53.122 24.7625 H 0.0 **** 0.053
26155 C26155 52.919 73.8679 33.3454 C.3 0.0 **** 0.054
26156 C26156 51.8383 74.7125 32.6305 C.3 0.0 **** -0.106
26157 C26157 52.4399 76.0302 32.0999 C.3 0.0 **** -0.053
26158 C26158 53.4087 76.5968 33.1506 C.3 0.0 **** -0.053
26159 C26159 54.548 75.5747 33.4002 C.3 0.0 **** 0.054
26160 O26160 54.2358 74.2549 32.938 O.3 0.0 **** -0.32
26161 C26161 52.6652 76.9668 34.4514 C.3 0.0 **** -0.053
26162 C26162 51.2577 77.5703 34.1786 C.3 0.0 **** 0.107
26163 C26163 51.1821 78.1677 32.7837 C.3 0.0 **** -0.106
26164 C26164 51.3568 77.071 31.7174 C.3 0.0 **** -0.106
26165 O26165 50.9336 78.6119 35.1124 O.3 0.0 **** -0.32
26166 C26166 51.2677 78.2733 36.4691 C.3 0.0 **** 0.107
26167 C26167 52.7985 78.3407 36.6142 C.3 0.0 **** -0.053
26168 C26168 53.4832 77.9641 35.2674 C.3 0.0 **** -0.106
26169 C26169 53.3357 77.6007 37.7942 C.2 0.0 **** 0.0
26170 C26170 52.5612 76.7725 38.5908 C.2 0.0 **** 0.0
26171 C26171 51.1982 76.4566 38.245 C.2 0.0 **** 0.0
26172 C26172 50.6329 76.9528 36.9332 C.3 0.0 **** -0.053
26173 C26173 50.4453 75.5716 38.9969 C.2 0.0 **** 0.0
26174 C26174 51.0035 74.9828 40.1913 C.2 0.0 **** 0.0
26175 C26175 52.3405 75.3435 40.5399 C.2 0.0 **** 0.232
26176 C26176 53.1202 76.1805 39.7908 C.2 0.0 **** 0.0
26177 C26177 54.5422 76.4758 40.195 C.3 0.0 **** -0.106
26178 C26178 55.0177 77.8198 39.6421 C.3 0.0 **** -0.106
26179 C26179 54.775 77.8706 38.1318 C.3 0.0 **** -0.106
26180 O26180 52.9198 74.8039 41.6723 O.3 0.0 **** -0.464
26181 C26181 52.1839 74.0234 42.5306 C.2 0.0 **** 0.232
26182 C26182 50.8814 73.5966 42.2144 C.2 0.0 **** 0.0
26183 C26183 50.2958 74.0702 40.9828 C.2 0.0 **** 0.0
26184 C26184 49.1228 76.9835 36.9386 C.2 0.0 **** 0.0
26185 C26185 48.4622 75.8212 37.5269 C.2 0.0 **** 0.0
26186 C26186 49.0898 75.1824 38.5981 C.2 0.0 **** 0.0
26187 C26187 47.1056 75.5306 37.0666 C.2 0.0 **** 0.0
26188 C26188 46.3295 76.5581 36.6137 C.2 0.0 **** 0.0
26189 C26189 46.8787 77.937 36.4453 C.3 0.0 **** -0.106
26190 C26190 48.3748 77.9929 36.4397 C.2 0.0 **** -0.1268
26191 C26191 44.8982 76.2974 36.2356 C.3 0.0 **** -0.106
26192 C26192 44.3233 75.16 37.0848 C.3 0.0 **** -0.106
26193 C26193 45.2326 73.9586 37.0023 C.2 0.0 **** 0.0
26194 C26194 46.5726 74.1522 36.973 C.2 0.0 **** 0.0
26195 C26195 47.5374 73.0252 36.6846 C.3 0.0 **** -0.106
26196 C26196 46.8503 71.7179 36.2741 C.3 0.0 **** -0.053
26197 C26197 45.6295 71.483 37.1706 C.3 0.0 **** -0.106
26198 C26198 44.6055 72.5962 36.9495 C.3 0.0 **** -0.106
26199 C26199 48.9787 73.6991 40.5531 C.2 0.0 **** -0.012
26200 C26200 48.4055 74.2474 39.432 C.2 0.0 **** -0.1268
26201 C26201 50.2276 72.7817 43.1736 C.2 0.0 **** 0.0
26202 C26202 48.9048 72.2675 42.9244 C.2 0.0 **** -0.012
26203 S26203 48.0575 72.4758 41.3998 S.2 0.0 **** 0.024
26204 C26204 48.2505 71.5146 43.8657 C.2 0.0 **** -0.1268
26205 C26205 48.849 71.217 45.1183 C.2 0.0 **** 0.0
26206 C26206 50.1721 71.6794 45.3956 C.2 0.0 **** 0.0
26207 C26207 50.8648 72.4502 44.4216 C.2 0.0 **** 0.0
26208 C26208 50.7741 71.3501 46.6384 C.2 0.0 **** 0.0
26209 C26209 50.0444 70.5984 47.6098 C.2 0.0 **** 0.0
26210 C26210 48.6853 70.2042 47.3334 C.2 0.0 **** 0.0
26211 C26211 48.1434 70.4875 46.0701 C.2 0.0 **** -0.1268
26212 C26212 47.9393 69.5498 48.3581 C.2 0.0 **** 0.0
26213 C26213 48.5782 69.1663 49.522 C.2 0.0 **** 0.042
26214 C26214 49.954 69.4301 49.7939 C.2 0.0 **** 0.0
26215 C26215 50.6586 70.2161 48.8394 C.2 0.0 **** 0.0
26216 C26216 52.2001 72.9024 44.6932 C.2 0.0 **** 0.0
26217 C26217 52.822 73.6957 43.7069 C.2 0.0 **** -0.1268
26218 C26218 52.1173 71.7754 46.9051 C.2 0.0 **** 0.0
26219 C26219 52.8372 72.5463 45.9438 C.2 0.0 **** 0.0
26220 C26220 52.0111 70.6194 49.0967 C.2 0.0 **** 0.0
26221 C26221 52.7163 71.4018 48.1454 C.2 0.0 **** 0.0
26222 C26222 50.6297 68.9652 50.98 C.2 0.0 **** 0.0
26223 C26223 51.957 69.4193 51.2408 C.2 0.0 **** 0.0
26224 C26224 52.6408 70.2444 50.3126 C.2 0.0 **** 0.0
26225 O26225 47.7922 68.5784 50.4895 O.3 0.0 **** -0.202
26226 C26226 46.9909 67.4435 50.0548 C.3 0.0 **** 0.107
26227 C26227 46.3154 67.7133 48.687 C.3 0.0 **** -0.053
26228 C26228 46.4516 69.2136 48.3899 C.3 0.0 **** 0.107
26229 C26229 44.8708 67.1991 48.6663 C.3 0.0 **** -0.106
26230 C26230 44.8183 65.8355 49.3633 C.3 0.0 **** -0.106
26231 C26231 45.0234 66.0069 50.8715 C.3 0.0 **** 0.134
26232 C26232 46.0162 67.1721 51.1994 C.3 0.0 **** -0.053
26233 C26233 46.7764 66.8627 52.4999 C.3 0.0 **** -0.106
26234 C26234 45.8742 66.1786 53.5256 C.3 0.0 **** -0.106
26235 C26235 45.369 64.82 52.9638 C.3 0.0 **** 0.081
26236 N26236 45.3905 64.735 51.4956 N.3 0.0 **** -0.727
26237 C26237 54.1824 72.9312 46.2833 C.2 0.0 **** 0.042
26238 C26238 54.7424 72.6093 47.5101 C.2 0.0 **** 0.042
26239 C26239 54.0462 71.8167 48.459 C.2 0.0 **** 0.0
26240 O26240 56.0053 73.0086 47.8822 O.3 0.0 **** -0.202
26241 C26241 56.5779 74.0512 47.0633 C.3 0.0 **** 0.107
26242 C26242 56.3474 73.6652 45.6119 C.3 0.0 **** 0.107
26243 O26243 54.928 73.6369 45.3657 O.3 0.0 **** -0.202
26244 C26244 57.0061 72.3184 45.2471 C.3 0.0 **** -0.106
26245 C26245 58.2425 72.003 46.1165 C.3 0.0 **** -0.106
26246 C26246 58.9634 73.2944 46.5192 C.3 0.0 **** -0.106
26247 C26247 58.0627 74.1718 47.4128 C.3 0.0 **** -0.106
26248 C26248 53.9788 70.6694 50.606 C.2 0.0 **** 0.0
26249 C26249 54.6513 71.4577 49.6724 C.2 0.0 **** -0.1268
26250 C26250 52.6013 69.0206 52.4454 C.2 0.0 **** 0.0
26251 C26251 53.9229 69.4898 52.721 C.2 0.0 **** 0.042
26252 C26252 54.5985 70.2832 51.8357 C.2 0.0 **** -0.1268
26253 C26253 51.9676 68.1632 53.3573 C.2 0.0 **** 0.0
26254 C26254 50.6977 67.6541 53.0556 C.2 0.0 **** 0.0
26255 C26255 50.0632 68.0564 51.8947 C.2 0.0 **** -0.1268
26256 O26256 54.5592 69.1359 53.9012 O.3 0.0 **** -0.0685
26257 C26257 53.9206 68.3544 54.8365 C.2 0.0 **** 0.0265
26258 C26258 52.6408 67.829 54.589 C.2 0.0 **** 0.0
26259 C26259 50.0176 66.644 53.9412 C.3 0.0 **** -0.053
26260 C26260 50.589 66.5737 55.3762 C.3 0.0 **** -0.053
26261 C26261 52.0123 67.0328 55.5503 C.2 0.0 **** 0.0
26262 C26262 50.4558 65.16 55.9732 C.3 0.0 **** -0.053
26263 C26263 49.1066 64.5622 55.5915 C.3 0.0 **** -0.106
26264 C26264 49.0676 64.3056 54.0642 C.3 0.0 **** -0.106
26265 C26265 50.01 65.2481 53.2919 C.3 0.0 **** -0.106
26266 C26266 52.6558 66.7456 56.7637 C.2 0.0 **** 0.0
26267 C26267 53.9236 67.3307 57.0413 C.2 0.0 **** 0.0
26268 C26268 54.5825 68.1355 56.0595 C.2 0.0 **** 0.0
26269 C26269 50.827 65.2065 57.4301 C.2 0.0 **** 0.0
26270 C26270 52.0081 65.93 57.7549 C.2 0.0 **** 0.0
26271 C26271 47.8504 70.5427 36.2652 C.3 0.0 **** -0.053
26272 C26272 48.2395 70.086 37.6772 C.3 0.0 **** -0.159
26273 C26273 47.3069 69.3611 35.4553 C.3 0.0 **** -0.159
26274 O26274 45.6663 69.5088 47.2336 O.3 0.0 **** -0.57
26275 C26275 55.8629 68.7015 56.3669 C.2 0.0 **** -0.1268
26276 C26276 56.437 68.5068 57.5923 C.2 0.0 **** -0.1268
26277 C26277 55.7842 67.7431 58.616 C.2 0.0 **** 0.0
26278 C26278 54.514 67.1495 58.323 C.2 0.0 **** 0.0
26279 C26279 53.8341 66.4085 59.3257 C.2 0.0 **** 0.0
26280 C26280 54.4087 66.2555 60.6094 C.2 0.0 **** 0.0
26281 C26281 55.682 66.8477 60.8919 C.2 0.0 **** 0.0
26282 C26282 56.3406 67.5761 59.8883 C.2 0.0 **** -0.1268
26283 C26283 56.2463 66.6828 62.1946 C.2 0.0 **** -0.1268
26284 C26284 55.5861 65.9733 63.1626 C.2 0.0 **** -0.1268
26285 C26285 54.3169 65.3719 62.9023 C.2 0.0 **** 0.0
26286 C26286 53.7277 65.511 61.6175 C.2 0.0 **** 0.0
26287 C26287 52.4657 64.9029 61.3415 C.2 0.0 **** 0.0
26288 C26288 51.8952 65.0494 60.0453 C.2 0.0 **** 0.0
26289 C26289 52.5707 65.8007 59.0416 C.2 0.0 **** 0.0
26290 C26290 51.792 64.1437 62.3437 C.2 0.0 **** 0.0
26291 C26291 52.4029 64.0457 63.6247 C.2 0.0 **** -0.1268
26292 C26292 53.6187 64.6409 63.8894 C.2 0.0 **** -0.1268
26293 C26293 50.155 64.5195 58.4161 C.2 0.0 **** -0.1268
26294 C26294 50.6382 64.4541 59.7493 C.2 0.0 **** 0.0
26295 C26295 50.5084 63.5492 62.0314 C.2 0.0 **** 0.052
26296 C26296 49.9227 63.7637 60.7764 C.2 0.0 **** 0.0
26297 C26297 48.5237 63.2824 60.462 C.3 0.0 **** -0.106
26298 C26298 47.6772 63.1207 61.7187 C.3 0.0 **** -0.106
26299 C26299 48.4025 62.1819 62.6684 C.3 0.0 **** -0.086
26300 C26300 49.8262 62.6224 62.9852 C.2 0.0 **** 0.347
26301 O26301 50.3685 62.1442 63.9827 O.2 0.0 **** -0.419
26302 H26302 52.8281 72.8011 33.0996 H 0.0 **** 0.053
26303 H26303 52.8309 73.9731 34.4453 H 0.0 **** 0.053
26304 H26304 51.4006 74.1551 31.7883 H 0.0 **** 0.053
26305 H26305 51.0181 74.9297 33.333 H 0.0 **** 0.053
26306 H26306 53.0289 75.7786 31.2059 H 0.0 **** 0.053
26307 H26307 53.8585 77.5207 32.75 H 0.0 **** 0.053
26308 H26308 54.7826 75.5357 34.4845 H 0.0 **** 0.053
26309 H26309 55.4622 75.8563 32.8591 H 0.0 **** 0.053
26310 H26310 52.5516 76.046 35.0456 H 0.0 **** 0.053
26311 H26311 50.4891 76.7778 34.2619 H 0.0 **** 0.053
26312 H26312 51.9735 78.9287 32.6892 H 0.0 **** 0.053
26313 H26313 50.2206 78.6855 32.6568 H 0.0 **** 0.053
26314 H26314 51.611 77.5442 30.7571 H 0.0 **** 0.053
26315 H26315 50.397 76.5503 31.5653 H 0.0 **** 0.053
26316 H26316 50.8173 79.0737 37.0745 H 0.0 **** 0.053
26317 H26317 53.0533 79.405 36.7805 H 0.0 **** 0.053
26318 H26318 54.4921 77.5663 35.4518 H 0.0 **** 0.053
26319 H26319 53.6031 78.8755 34.6606 H 0.0 **** 0.053
26320 H26320 50.9129 76.1604 36.2097 H 0.0 **** 0.053
26321 H26321 54.6345 76.4438 41.2901 H 0.0 **** 0.053
26322 H26322 55.2012 75.6749 39.8094 H 0.0 **** 0.053
26323 H26323 56.0835 77.9724 39.871 H 0.0 **** 0.053
26324 H26324 54.4528 78.6337 40.1248 H 0.0 **** 0.053
26325 H26325 55.4285 77.1229 37.6392 H 0.0 **** 0.053
26326 H26326 55.0719 78.8483 37.7159 H 0.0 **** 0.053
26327 H26327 46.4832 78.5999 37.2463 H 0.0 **** 0.053
26328 H26328 46.4697 78.3784 35.5154 H 0.0 **** 0.053
26329 H26329 48.8451 78.8784 36.0152 H 0.0 **** 0.1268
26330 H26330 44.3062 77.2194 36.3514 H 0.0 **** 0.053
26331 H26331 44.8482 76.0213 35.1627 H 0.0 **** 0.053
26332 H26332 43.3087 74.891 36.752 H 0.0 **** 0.053
26333 H26333 44.2395 75.4981 38.1357 H 0.0 **** 0.053
26334 H26334 48.2202 73.3539 35.8808 H 0.0 **** 0.053
26335 H26335 48.1905 72.8392 37.5508 H 0.0 **** 0.053
26336 H26336 46.4765 71.8411 35.2405 H 0.0 **** 0.053
26337 H26337 45.9505 71.4916 38.2251 H 0.0 **** 0.053
26338 H26338 45.1772 70.499 36.9733 H 0.0 **** 0.053
26339 H26339 43.8006 72.545 37.7053 H 0.0 **** 0.053
26340 H26340 44.0992 72.4577 35.9742 H 0.0 **** 0.053
26341 H26341 47.3754 73.9905 39.186 H 0.0 **** 0.1268
26342 H26342 47.2447 71.1363 43.6693 H 0.0 **** 0.1268
26343 H26343 47.1621 70.1067 45.8047 H 0.0 **** 0.1268
26344 H26344 53.8215 74.0794 43.8498 H 0.0 **** 0.1268
26345 H26345 47.6788 66.5821 49.9626 H 0.0 **** 0.053
26346 H26346 46.8801 67.1792 47.9063 H 0.0 **** 0.053
26347 H26347 46.0204 69.7526 49.2587 H 0.0 **** 0.053
26348 H26348 44.2098 67.9134 49.1864 H 0.0 **** 0.053
26349 H26349 44.5184 67.1424 47.6286 H 0.0 **** 0.053
26350 H26350 45.6208 65.1916 48.9602 H 0.0 **** 0.053
26351 H26351 43.8722 65.3072 49.1819 H 0.0 **** 0.053
26352 H26352 44.0518 66.2875 51.313 H 0.0 **** 0.053
26353 H26353 45.4286 68.0947 51.3432 H 0.0 **** 0.053
26354 H26354 47.6169 66.1875 52.2639 H 0.0 **** 0.053
26355 H26355 47.2219 67.7819 52.9039 H 0.0 **** 0.053
26356 H26356 45.021 66.8384 53.7505 H 0.0 **** 0.053
26357 H26357 46.4138 66.0214 54.4732 H 0.0 **** 0.053
26358 H26358 44.3356 64.639 53.305 H 0.0 **** 0.053
26359 H26359 45.9817 63.9925 53.3513 H 0.0 **** 0.053
26360 H26360 46.3204 64.4608 51.176 H 0.0 **** 0.353
26361 H26361 56.0352 74.9867 47.2788 H 0.0 **** 0.053
26362 H26362 56.7163 74.4728 44.9637 H 0.0 **** 0.053
26363 H26363 56.2512 71.5272 45.3628 H 0.0 **** 0.053
26364 H26364 57.2802 72.3501 44.1824 H 0.0 **** 0.053
26365 H26365 58.9211 71.3343 45.5669 H 0.0 **** 0.053
26366 H26366 57.9253 71.4725 47.0264 H 0.0 **** 0.053
26367 H26367 59.2371 73.8504 45.6061 H 0.0 **** 0.053
26368 H26368 59.9037 73.0742 47.0455 H 0.0 **** 0.053
26369 H26369 58.3612 75.2281 47.3376 H 0.0 **** 0.053
26370 H26370 58.1679 73.8835 48.47 H 0.0 **** 0.053
26371 H26371 55.6643 71.7962 49.8845 H 0.0 **** 0.1268
26372 H26372 55.6111 70.62 52.0607 H 0.0 **** 0.1268
26373 H26373 49.0797 67.6621 51.6934 H 0.0 **** 0.1268
26374 H26374 48.961 66.9406 54.0268 H 0.0 **** 0.053
26375 H26375 49.9742 67.2411 56.0126 H 0.0 **** 0.053
26376 H26376 51.2412 64.5389 55.4972 H 0.0 **** 0.053
26377 H26377 48.3133 65.2694 55.8879 H 0.0 **** 0.053
26378 H26378 48.9172 63.6241 56.1324 H 0.0 **** 0.053
26379 H26379 48.0396 64.4438 53.7005 H 0.0 **** 0.053
26380 H26380 49.3427 63.2604 53.8549 H 0.0 **** 0.053
26381 H26381 49.6974 65.3345 52.2403 H 0.0 **** 0.053
26382 H26382 51.0393 64.856 53.2782 H 0.0 **** 0.053
26383 H26383 48.7633 70.9085 35.7604 H 0.0 **** 0.053
26384 H26384 49.0512 69.3443 37.6322 H 0.0 **** 0.053
26385 H26385 47.3823 69.6106 38.1784 H 0.0 **** 0.053
26386 H26386 48.5768 70.9196 38.3117 H 0.0 **** 0.053
26387 H26387 47.056 69.6665 34.4272 H 0.0 **** 0.053
26388 H26388 46.3942 68.956 35.9206 H 0.0 **** 0.053
26389 H26389 48.043 68.5445 35.4031 H 0.0 **** 0.053
26390 H26390 45.6305 70.4739 47.1477 H 0.0 **** 0.41
26391 H26391 56.3663 69.2985 55.6066 H 0.0 **** 0.1268
26392 H26392 57.4103 68.9455 57.8193 H 0.0 **** 0.1268
26393 H26393 57.3086 68.0305 60.111 H 0.0 **** 0.1268
26394 H26394 57.2165 67.1386 62.4007 H 0.0 **** 0.1268
26395 H26395 56.0189 65.8569 64.1581 H 0.0 **** 0.1268
26396 H26396 51.896 63.4777 64.3974 H 0.0 **** 0.1268
26397 H26397 54.0591 64.5503 64.8847 H 0.0 **** 0.1268
26398 H26398 49.2515 63.9777 58.1495 H 0.0 **** 0.1268
26399 H26399 48.0422 63.9964 59.7792 H 0.0 **** 0.053
26400 H26400 48.5721 62.3178 59.9221 H 0.0 **** 0.053
26401 H26401 46.6768 62.738 61.4654 H 0.0 **** 0.053
26402 H26402 47.5449 64.1067 62.1934 H 0.0 **** 0.053
26403 H26403 48.4833 61.1794 62.2089 H 0.0 **** 0.053
26404 H26404 47.8864 62.0459 63.6294 H 0.0 **** 0.053
26405 C26405 18.4256 45.8103 35.3533 C.3 0.0 **** 0.054
26406 C26406 17.6769 45.1795 36.5508 C.3 0.0 **** -0.106
26407 C26407 17.3808 46.2425 37.6288 C.3 0.0 **** -0.053
26408 C26408 18.6051 47.1606 37.7759 C.3 0.0 **** -0.053
26409 C26409 18.8829 47.8641 36.4221 C.3 0.0 **** 0.054
26410 O26410 18.2381 47.2291 35.3113 O.3 0.0 **** -0.32
26411 C26411 19.8322 46.375 38.2847 C.3 0.0 **** -0.053
26412 C26412 19.4497 45.2922 39.3338 C.3 0.0 **** 0.107
26413 C26413 18.1332 45.6316 40.012 C.3 0.0 **** -0.106
26414 C26414 16.9815 45.6184 38.9904 C.3 0.0 **** -0.106
26415 O26415 20.4454 45.1692 40.3612 O.3 0.0 **** -0.32
26416 C26416 21.7869 45.1592 39.8444 C.3 0.0 **** 0.107
26417 C26417 22.1353 46.5896 39.3951 C.3 0.0 **** -0.053
26418 C26418 20.8545 47.3252 38.9024 C.3 0.0 **** -0.106
26419 C26419 23.2837 46.671 38.4447 C.2 0.0 **** 0.0
26420 C26420 23.8749 45.5585 37.8674 C.2 0.0 **** 0.0
26421 C26421 23.3223 44.2386 38.0404 C.2 0.0 **** 0.0
26422 C26422 22.0129 44.0749 38.7789 C.3 0.0 **** -0.053
26423 C26423 23.8658 43.1356 37.4054 C.2 0.0 **** 0.0
26424 C26424 25.0481 43.2822 36.5897 C.2 0.0 **** 0.0
26425 C26425 25.6051 44.5913 36.4673 C.2 0.0 **** 0.232
26426 C26426 25.0624 45.7039 37.0481 C.2 0.0 **** 0.0
26427 C26427 25.6778 47.0631 36.8324 C.3 0.0 **** -0.106
26428 C26428 25.3464 48.0199 37.9782 C.3 0.0 **** -0.106
26429 C26429 23.8329 48.049 38.2038 C.3 0.0 **** -0.106
26430 O26430 26.7347 44.783 35.695 O.3 0.0 **** -0.464
26431 C26431 27.3969 43.7119 35.146 C.2 0.0 **** 0.232
26432 C26432 26.8688 42.4089 35.1926 C.2 0.0 **** 0.0
26433 C26433 25.6333 42.2062 35.9112 C.2 0.0 **** 0.0
26434 C26434 21.8265 42.6711 39.304 C.2 0.0 **** 0.0
26435 C26435 22.1893 41.5928 38.388 C.2 0.0 **** 0.0
26436 C26436 23.2537 41.8081 37.5104 C.2 0.0 **** 0.0
26437 C26437 21.5277 40.3052 38.5902 C.2 0.0 **** 0.0
26438 C26438 21.0972 39.9754 39.8428 C.2 0.0 **** 0.0
26439 C26439 21.158 40.951 40.9723 C.3 0.0 **** -0.106
26440 C26440 21.3522 42.3692 40.5334 C.2 0.0 **** -0.1268
26441 C26441 20.5103 38.6142 40.0924 C.3 0.0 **** -0.106
26442 C26442 21.1441 37.5825 39.1548 C.3 0.0 **** -0.106
26443 C26443 21.0447 38.0671 37.7291 C.2 0.0 **** 0.0
26444 C26444 21.2109 39.3865 37.4728 C.2 0.0 **** 0.0
26445 C26445 20.9243 39.9792 36.1125 C.3 0.0 **** -0.106
26446 C26446 20.2834 38.9891 35.1333 C.3 0.0 **** -0.053
26447 C26447 20.9823 37.6304 35.2554 C.3 0.0 **** -0.106
26448 C26448 20.7577 37.0589 36.6552 C.3 0.0 **** -0.106
26449 C26449 24.9978 40.9253 36.0227 C.2 0.0 **** -0.012
26450 C26450 23.8812 40.7403 36.8003 C.2 0.0 **** -0.1268
26451 C26451 27.6373 41.3876 34.5777 C.2 0.0 **** 0.0
26452 C26452 27.1627 40.0275 34.5443 C.2 0.0 **** -0.012
26453 S26453 25.5747 39.5429 35.1181 S.2 0.0 **** 0.024
26454 C26454 27.9204 39.0282 33.9891 C.2 0.0 **** -0.1268
26455 C26455 29.1982 39.2951 33.4307 C.2 0.0 **** 0.0
26456 C26456 29.6946 40.6347 33.4133 C.2 0.0 **** 0.0
26457 C26457 28.9116 41.6808 33.9749 C.2 0.0 **** 0.0
26458 C26458 30.9596 40.8964 32.8245 C.2 0.0 **** 0.0
26459 C26459 31.7373 39.8222 32.2932 C.2 0.0 **** 0.0
26460 C26460 31.2449 38.4703 32.3867 C.2 0.0 **** 0.0
26461 C26461 29.9622 38.2535 32.9137 C.2 0.0 **** -0.1268
26462 C26462 32.084 37.403 31.949 C.2 0.0 **** 0.0
26463 C26463 33.2699 37.6947 31.3021 C.2 0.0 **** 0.042
26464 C26464 33.7455 39.0218 31.0806 C.2 0.0 **** 0.0
26465 C26465 32.985 40.0807 31.6514 C.2 0.0 **** 0.0
26466 C26466 29.4029 43.0295 33.9442 C.2 0.0 **** 0.0
26467 C26467 28.6012 44.0184 34.5511 C.2 0.0 **** -0.1268
26468 C26468 31.444 42.2449 32.7662 C.2 0.0 **** 0.0
26469 C26469 30.6771 43.3144 33.3181 C.2 0.0 **** 0.0
26470 C26470 33.4588 41.4323 31.5699 C.2 0.0 **** 0.0
26471 C26471 32.7012 42.4902 32.1368 C.2 0.0 **** 0.0
26472 C26472 34.9488 39.3187 30.3436 C.2 0.0 **** 0.0
26473 C26473 35.4286 40.6622 30.318 C.2 0.0 **** 0.0
26474 C26474 34.6958 41.7098 30.9307 C.2 0.0 **** 0.0
26475 O26475 34.0551 36.6201 30.9439 O.3 0.0 **** -0.202
26476 C26476 33.395 35.5815 30.1664 C.3 0.0 **** 0.107
26477 C26477 31.9907 35.252 30.7315 C.3 0.0 **** -0.053
26478 C26478 31.885 35.9002 32.1194 C.3 0.0 **** 0.107
26479 C26479 31.7254 33.7417 30.7233 C.3 0.0 **** -0.106
26480 C26480 32.2514 33.1514 29.4107 C.3 0.0 **** -0.106
26481 C26481 33.783 33.1577 29.4069 C.3 0.0 **** 0.134
26482 C26482 34.3661 34.4021 30.157 C.3 0.0 **** -0.053
26483 C26483 35.7105 34.8089 29.5312 C.3 0.0 **** -0.106
26484 C26484 36.5272 33.586 29.1168 C.3 0.0 **** -0.106
26485 C26485 35.7549 32.7739 28.0393 C.3 0.0 **** 0.081
26486 N26486 34.3017 33.0006 28.0474 N.3 0.0 **** -0.727
26487 C26487 31.229 44.6403 33.2164 C.2 0.0 **** 0.042
26488 C26488 32.4736 44.8675 32.6494 C.2 0.0 **** 0.042
26489 C26489 33.2289 43.8153 32.07 C.2 0.0 **** 0.0
26490 O26490 33.0485 46.1159 32.5862 O.3 0.0 **** -0.202
26491 C26491 32.4336 47.1107 33.4333 C.3 0.0 **** 0.107
26492 C26492 30.9303 47.004 33.2395 C.3 0.0 **** 0.107
26493 O26493 30.5011 45.7063 33.6956 O.3 0.0 **** -0.202
26494 C26494 30.504 47.2532 31.7777 C.3 0.0 **** -0.106
26495 C26495 31.4848 48.1721 31.0176 C.3 0.0 **** -0.106
26496 C26496 32.1205 49.19 31.9712 C.3 0.0 **** -0.106
26497 C26497 32.9835 48.4823 33.036 C.3 0.0 **** -0.106
26498 C26498 35.2058 43.049 30.8721 C.2 0.0 **** 0.0
26499 C26499 34.462 44.0753 31.4542 C.2 0.0 **** -0.1268
26500 C26500 36.6536 40.9476 29.6524 C.2 0.0 **** 0.0
26501 C26501 37.149 42.2883 29.642 C.2 0.0 **** 0.042
26502 C26502 36.4538 43.3114 30.2247 C.2 0.0 **** -0.1268
26503 C26503 37.3732 39.9393 28.9938 C.2 0.0 **** 0.0
26504 C26504 36.8543 38.6386 28.9513 C.2 0.0 **** 0.0
26505 C26505 35.6741 38.3566 29.6143 C.2 0.0 **** -0.1268
26506 O26506 38.3539 42.5843 29.0228 O.3 0.0 **** -0.0685
26507 C26507 39.1045 41.5916 28.4358 C.2 0.0 **** 0.0265
26508 C26508 38.636 40.2679 28.3777 C.2 0.0 **** 0.0
26509 C26509 37.5247 37.5429 28.1659 C.3 0.0 **** -0.053
26510 C26510 39.0044 37.8272 27.8187 C.3 0.0 **** -0.053
26511 C26511 39.4118 39.2759 27.7719 C.2 0.0 **** 0.0
26512 C26512 39.4157 37.1615 26.4919 C.3 0.0 **** -0.053
26513 C26513 38.7977 35.7714 26.397 C.3 0.0 **** -0.106
26514 C26514 37.2591 35.8967 26.2671 C.3 0.0 **** -0.106
26515 C26515 36.7265 37.1985 26.8953 C.3 0.0 **** -0.106
26516 C26516 40.6579 39.5943 27.211 C.2 0.0 **** 0.0
26517 C26517 41.1614 40.9209 27.3274 C.2 0.0 **** 0.0
26518 C26518 40.3702 41.9474 27.9326 C.2 0.0 **** 0.0
26519 C26519 40.9042 37.292 26.3191 C.2 0.0 **** 0.0
26520 C26520 41.4586 38.5736 26.5913 C.2 0.0 **** 0.0
26521 C26521 20.2712 39.5553 33.6979 C.3 0.0 **** -0.053
26522 C26522 21.661 39.5507 33.048 C.3 0.0 **** -0.159
26523 C26523 19.2696 38.8027 32.8158 C.3 0.0 **** -0.159
26524 O26524 30.6777 35.4425 32.7308 O.3 0.0 **** -0.57
26525 C26525 40.9025 43.2749 28.0249 C.2 0.0 **** -0.1268
26526 C26526 42.162 43.5557 27.5733 C.2 0.0 **** -0.1268
26527 C26527 42.9998 42.5414 27.002 C.2 0.0 **** 0.0
26528 C26528 42.48 41.2123 26.8795 C.2 0.0 **** 0.0
26529 C26529 43.2961 40.183 26.3398 C.2 0.0 **** 0.0
26530 C26530 44.6178 40.4683 25.9236 C.2 0.0 **** 0.0
26531 C26531 45.1276 41.8014 26.0444 C.2 0.0 **** 0.0
26532 C26532 44.3063 42.807 26.5792 C.2 0.0 **** -0.1268
26533 C26533 46.4654 42.0703 25.619 C.2 0.0 **** -0.1268
26534 C26534 47.2535 41.0749 25.1049 C.2 0.0 **** -0.1268
26535 C26535 46.7651 39.7392 24.9726 C.2 0.0 **** 0.0
26536 C26536 45.4389 39.4361 25.3807 C.2 0.0 **** 0.0
26537 C26537 44.9351 38.1074 25.2406 C.2 0.0 **** 0.0
26538 C26538 43.601 37.826 25.6502 C.2 0.0 **** 0.0
26539 C26539 42.7843 38.8545 26.201 C.2 0.0 **** 0.0
26540 C26540 45.7497 37.0783 24.6818 C.2 0.0 **** 0.0
26541 C26541 47.0795 37.4153 24.3056 C.2 0.0 **** -0.1268
26542 C26542 47.5647 38.6984 24.4494 C.2 0.0 **** -0.1268
26543 C26543 41.7111 36.2897 25.829 C.2 0.0 **** -0.1268
26544 C26544 43.0796 36.5092 25.522 C.2 0.0 **** 0.0
26545 C26545 45.2089 35.7396 24.5641 C.2 0.0 **** 0.052
26546 C26546 43.921 35.4588 25.0402 C.2 0.0 **** 0.0
26547 C26547 43.3761 34.0481 25.0671 C.3 0.0 **** -0.106
26548 C26548 44.4864 33.0054 25.1117 C.3 0.0 **** -0.106
26549 C26549 45.4097 33.2368 23.9271 C.3 0.0 **** -0.086
26550 C26550 45.9557 34.6573 23.8534 C.2 0.0 **** 0.347
26551 O26551 46.9545 34.8551 23.1598 O.2 0.0 **** -0.419
26552 H26552 18.0512 45.4277 34.394 H 0.0 **** 0.053
26553 H26553 19.5096 45.5863 35.4101 H 0.0 **** 0.053
26554 H26554 16.7277 44.7279 36.2241 H 0.0 **** 0.053
26555 H26555 18.2875 44.3691 36.9796 H 0.0 **** 0.053
26556 H26556 16.5478 46.8562 37.2561 H 0.0 **** 0.053
26557 H26557 18.3729 47.9365 38.5244 H 0.0 **** 0.053
26558 H26558 19.977 47.899 36.2379 H 0.0 **** 0.053
26559 H26559 18.4998 48.8943 36.4219 H 0.0 **** 0.053
26560 H26560 20.2989 45.8837 37.416 H 0.0 **** 0.053
26561 H26561 19.3429 44.3097 38.8345 H 0.0 **** 0.053
26562 H26562 18.2283 46.6271 40.4749 H 0.0 **** 0.053
26563 H26563 17.9423 44.9157 40.8242 H 0.0 **** 0.053
26564 H26564 16.1217 46.1582 39.4149 H 0.0 **** 0.053
26565 H26565 16.6487 44.5805 38.8253 H 0.0 **** 0.053
26566 H26566 22.4154 44.8943 40.7073 H 0.0 **** 0.053
26567 H26567 22.4523 47.1373 40.3032 H 0.0 **** 0.053
26568 H26568 21.1217 48.1142 38.1839 H 0.0 **** 0.053
26569 H26569 20.3752 47.8215 39.761 H 0.0 **** 0.053
26570 H26570 21.2469 44.2018 37.9871 H 0.0 **** 0.053
26571 H26571 26.765 46.9653 36.7009 H 0.0 **** 0.053
26572 H26572 25.2927 47.4882 35.8861 H 0.0 **** 0.053
26573 H26573 25.7269 49.0288 37.7567 H 0.0 **** 0.053
26574 H26574 25.8408 47.6716 38.8995 H 0.0 **** 0.053
26575 H26575 23.3477 48.5027 37.3164 H 0.0 **** 0.053
26576 H26576 23.5719 48.7013 39.0543 H 0.0 **** 0.053
26577 H26577 21.9708 40.6629 41.675 H 0.0 **** 0.053
26578 H26578 20.2389 40.8555 41.583 H 0.0 **** 0.053
26579 H26579 21.0948 43.156 41.2405 H 0.0 **** 0.1268
26580 H26580 20.6519 38.333 41.1482 H 0.0 **** 0.053
26581 H26581 19.4156 38.6508 39.9183 H 0.0 **** 0.053
26582 H26582 20.6547 36.6013 39.2566 H 0.0 **** 0.053
26583 H26583 22.2067 37.4438 39.4327 H 0.0 **** 0.053
26584 H26584 20.2578 40.8494 36.2498 H 0.0 **** 0.053
26585 H26585 21.841 40.3938 35.6663 H 0.0 **** 0.053
26586 H26586 19.2307 38.8426 35.4394 H 0.0 **** 0.053
26587 H26587 22.0636 37.7658 35.0895 H 0.0 **** 0.053
26588 H26588 20.6182 36.9282 34.4899 H 0.0 **** 0.053
26589 H26589 21.3925 36.1697 36.8227 H 0.0 **** 0.053
26590 H26590 19.7158 36.6966 36.7545 H 0.0 **** 0.053
26591 H26591 23.4766 39.7347 36.913 H 0.0 **** 0.1268
26592 H26592 27.5541 37.9991 33.9762 H 0.0 **** 0.1268
26593 H26593 29.5309 37.2575 32.8949 H 0.0 **** 0.1268
26594 H26594 28.9146 45.0517 34.5747 H 0.0 **** 0.1268
26595 H26595 33.2959 35.9678 29.1346 H 0.0 **** 0.053
26596 H26596 31.2343 35.7358 30.0931 H 0.0 **** 0.053
26597 H26597 32.7461 35.5288 32.7126 H 0.0 **** 0.053
26598 H26598 32.2331 33.2661 31.58 H 0.0 **** 0.053
26599 H26599 30.6512 33.5591 30.8531 H 0.0 **** 0.053
26600 H26600 31.8853 33.7631 28.5663 H 0.0 **** 0.053
26601 H26601 31.8907 32.1285 29.2358 H 0.0 **** 0.053
26602 H26602 34.124 32.2671 29.9622 H 0.0 **** 0.053
26603 H26603 34.5359 34.1207 31.2101 H 0.0 **** 0.053
26604 H26604 35.5104 35.4196 28.6339 H 0.0 **** 0.053
26605 H26605 36.2699 35.4515 30.2245 H 0.0 **** 0.053
26606 H26606 36.7129 32.9603 30.0044 H 0.0 **** 0.053
26607 H26607 37.5127 33.8905 28.7298 H 0.0 **** 0.053
26608 H26608 35.937 31.6958 28.1865 H 0.0 **** 0.053
26609 H26609 36.1225 33.0244 27.0331 H 0.0 **** 0.053
26610 H26610 34.0761 33.8347 27.504 H 0.0 **** 0.353
26611 H26611 32.6813 46.864 34.4792 H 0.0 **** 0.053
26612 H26612 30.4306 47.707 33.9211 H 0.0 **** 0.053
26613 H26613 30.4311 46.2789 31.273 H 0.0 **** 0.053
26614 H26614 29.4941 47.6888 31.7865 H 0.0 **** 0.053
26615 H26615 30.9555 48.6833 30.2001 H 0.0 **** 0.053
26616 H26616 32.2803 47.5633 30.563 H 0.0 **** 0.053
26617 H26617 31.3192 49.7667 32.4642 H 0.0 **** 0.053
26618 H26618 32.7357 49.9166 31.4203 H 0.0 **** 0.053
26619 H26619 33.0673 49.1068 33.938 H 0.0 **** 0.053
26620 H26620 34.006 48.3216 32.6613 H 0.0 **** 0.053
26621 H26621 34.8401 45.096 31.4262 H 0.0 **** 0.1268
26622 H26622 36.8443 44.3292 30.1945 H 0.0 **** 0.1268
26623 H26623 35.3041 37.3441 29.5792 H 0.0 **** 0.1268
26624 H26624 37.506 36.6345 28.7872 H 0.0 **** 0.053
26625 H26625 39.6272 37.3615 28.6084 H 0.0 **** 0.053
26626 H26626 38.9781 37.776 25.6793 H 0.0 **** 0.053
26627 H26627 39.067 35.2054 27.305 H 0.0 **** 0.053
26628 H26628 39.2002 35.2122 25.5404 H 0.0 **** 0.053
26629 H26629 36.7835 35.0364 26.759 H 0.0 **** 0.053
26630 H26630 36.9704 35.8575 25.2055 H 0.0 **** 0.053
26631 H26631 35.6599 37.1005 27.1477 H 0.0 **** 0.053
26632 H26632 36.8018 38.0398 26.1883 H 0.0 **** 0.053
26633 H26633 19.9333 40.6049 33.775 H 0.0 **** 0.053
26634 H26634 21.6379 40.0831 32.0853 H 0.0 **** 0.053
26635 H26635 21.9903 38.5191 32.8495 H 0.0 **** 0.053
26636 H26636 22.4238 40.0285 33.6814 H 0.0 **** 0.053
26637 H26637 18.2588 38.8277 33.2527 H 0.0 **** 0.053
26638 H26638 19.5643 37.747 32.7041 H 0.0 **** 0.053
26639 H26639 19.2212 39.2418 31.8078 H 0.0 **** 0.053
26640 H26640 30.6974 35.7272 33.6574 H 0.0 **** 0.41
26641 H26641 40.286 44.0551 28.4711 H 0.0 **** 0.1268
26642 H26642 42.561 44.5686 27.6518 H 0.0 **** 0.1268
26643 H26643 44.7022 43.8205 26.6745 H 0.0 **** 0.1268
26644 H26644 46.8453 43.0889 25.7161 H 0.0 **** 0.1268
26645 H26645 48.2771 41.2848 24.7883 H 0.0 **** 0.1268
26646 H26646 47.711 36.639 23.8871 H 0.0 **** 0.1268
26647 H26647 48.5919 38.9236 24.1547 H 0.0 **** 0.1268
26648 H26648 41.2705 35.316 25.6328 H 0.0 **** 0.1268
26649 H26649 42.7218 33.9315 25.9424 H 0.0 **** 0.053
26650 H26650 42.7415 33.8748 24.1774 H 0.0 **** 0.053
26651 H26651 44.0643 31.9891 25.0965 H 0.0 **** 0.053
26652 H26652 45.0483 33.1174 26.0534 H 0.0 **** 0.053
26653 H26653 44.8543 33.069 22.9858 H 0.0 **** 0.053
26654 H26654 46.2744 32.5583 23.9063 H 0.0 **** 0.053
26655 C26655 43.8262 15.0358 43.8435 C.3 0.0 **** 0.054
26656 C26656 43.5797 15.3386 42.3469 C.3 0.0 **** -0.106
26657 C26657 44.8639 15.8751 41.6814 C.3 0.0 **** -0.053
26658 C26658 45.5574 16.8507 42.6461 C.3 0.0 **** -0.053
26659 C26659 45.9291 16.1014 43.952 C.3 0.0 **** 0.054
26660 O26660 45.2212 14.8668 44.1175 O.3 0.0 **** -0.32
26661 C26661 44.675 18.0874 42.9172 C.3 0.0 **** -0.053
26662 C26662 43.8981 18.5504 41.6516 C.3 0.0 **** 0.107
26663 C26663 44.5917 18.0802 40.3843 C.3 0.0 **** -0.106
26664 C26664 44.5923 16.5425 40.3088 C.3 0.0 **** -0.106
26665 O26665 43.7954 19.981 41.5821 O.3 0.0 **** -0.32
26666 C26666 43.446 20.5805 42.8412 C.3 0.0 **** 0.107
26667 C26667 44.6783 20.5106 43.7608 C.3 0.0 **** -0.053
26668 C26668 45.5254 19.2468 43.4293 C.3 0.0 **** -0.106
26669 C26669 44.3695 20.6687 45.2128 C.2 0.0 **** 0.0
26670 C26670 43.0796 20.6932 45.7188 C.2 0.0 **** 0.0
26671 C26671 41.9382 20.4236 44.8811 C.2 0.0 **** 0.0
26672 C26672 42.1563 20.0025 43.4452 C.3 0.0 **** -0.053
26673 C26673 40.6551 20.3735 45.3972 C.2 0.0 **** 0.0
26674 C26674 40.4286 20.6497 46.7962 C.2 0.0 **** 0.0
26675 C26675 41.5685 20.9579 47.5992 C.2 0.0 **** 0.232
26676 C26676 42.8504 20.9706 47.1235 C.2 0.0 **** 0.0
26677 C26677 44.0104 21.2552 48.0433 C.3 0.0 **** -0.106
26678 C26678 45.2113 21.8142 47.2795 C.3 0.0 **** -0.106
26679 C26679 45.5548 20.8882 46.1103 C.3 0.0 **** -0.106
26680 O26680 41.4033 21.2265 48.9445 O.3 0.0 **** -0.464
26681 C26681 40.146 21.3214 49.4898 C.2 0.0 **** 0.232
26682 C26682 38.9924 20.981 48.7602 C.2 0.0 **** 0.0
26683 C26683 39.1559 20.5992 47.3776 C.2 0.0 **** 0.0
26684 C26684 40.9348 20.2413 42.5895 C.2 0.0 **** 0.0
26685 C26685 39.6547 19.8656 43.1842 C.2 0.0 **** 0.0
26686 C26686 39.504 20.0139 44.5644 C.2 0.0 **** 0.0
26687 C26687 38.5696 19.5383 42.2612 C.2 0.0 **** 0.0
26688 C26688 38.5669 20.1061 41.02 C.2 0.0 **** 0.0
26689 C26689 39.7121 20.9344 40.5368 C.3 0.0 **** -0.106
26690 C26690 40.9625 20.7614 41.3421 C.2 0.0 **** -0.1268
26691 C26691 37.4063 19.8655 40.0954 C.3 0.0 **** -0.106
26692 C26692 36.1183 19.6685 40.9 C.3 0.0 **** -0.106
26693 C26693 36.3329 18.6 41.9438 C.2 0.0 **** 0.0
26694 C26694 37.5276 18.5349 42.5782 C.2 0.0 **** 0.0
26695 C26695 37.8928 17.3775 43.4788 C.3 0.0 **** -0.106
26696 C26696 36.8665 16.239 43.4631 C.3 0.0 **** -0.053
26697 C26697 35.4526 16.8298 43.4946 C.3 0.0 **** -0.106
26698 C26698 35.2075 17.6487 42.2274 C.3 0.0 **** -0.106
26699 C26699 38.0552 20.2271 46.5367 C.2 0.0 **** -0.012
26700 C26700 38.2256 19.9715 45.1982 C.2 0.0 **** -0.1268
26701 C26701 37.7515 21.1058 49.4357 C.2 0.0 **** 0.0
26702 C26702 36.518 20.7481 48.7825 C.2 0.0 **** -0.012
26703 S26703 36.4453 20.0139 47.1883 S.2 0.0 **** 0.024
26704 C26704 35.3116 20.9067 49.4153 C.2 0.0 **** -0.1268
26705 C26705 35.2329 21.4305 50.7326 C.2 0.0 **** 0.0
26706 C26706 36.4331 21.7684 51.4301 C.2 0.0 **** 0.0
26707 C26707 37.6904 21.5959 50.7882 C.2 0.0 **** 0.0
26708 C26708 36.346 22.2618 52.7584 C.2 0.0 **** 0.0
26709 C26709 35.0682 22.4518 53.3686 C.2 0.0 **** 0.0
26710 C26710 33.8699 22.1698 52.618 C.2 0.0 **** 0.0
26711 C26711 33.9918 21.6205 51.3322 C.2 0.0 **** -0.1268
26712 C26712 32.6056 22.4691 53.2067 C.2 0.0 **** 0.0
26713 C26713 32.5506 22.8652 54.5296 C.2 0.0 **** 0.042
26714 C26714 33.7037 23.0457 55.3507 C.2 0.0 **** 0.0
26715 C26715 34.9711 22.8957 54.721 C.2 0.0 **** 0.0
26716 C26716 38.8978 21.9209 51.4939 C.2 0.0 **** 0.0
26717 C26717 40.1119 21.7669 50.793 C.2 0.0 **** -0.1268
26718 C26718 37.5491 22.5626 53.4785 C.2 0.0 **** 0.0
26719 C26719 38.8243 22.3948 52.8602 C.2 0.0 **** 0.0
26720 C26720 36.1747 23.1727 55.4507 C.2 0.0 **** 0.0
26721 C26721 37.4398 23.022 54.8253 C.2 0.0 **** 0.0
26722 C26722 33.6334 23.3913 56.749 C.2 0.0 **** 0.0
26723 C26723 34.8389 23.7116 57.442 C.2 0.0 **** 0.0
26724 C26724 36.0983 23.6107 56.799 C.2 0.0 **** 0.0
26725 O26725 31.304 23.1813 55.0252 O.3 0.0 **** -0.202
26726 C26726 30.2727 22.17 54.8447 C.3 0.0 **** 0.107
26727 C26727 30.315 21.5606 53.421 C.3 0.0 **** -0.053
26728 C26728 31.2234 22.4515 52.5615 C.3 0.0 **** 0.107
26729 C26729 28.9036 21.3709 52.8523 C.3 0.0 **** -0.106
26730 C26730 27.9898 20.8332 53.9585 C.3 0.0 **** -0.106
26731 C26731 27.7192 21.9269 54.9961 C.3 0.0 **** 0.134
26732 C26732 28.9578 22.8632 55.1975 C.3 0.0 **** -0.053
26733 C26733 28.9894 23.387 56.6429 C.3 0.0 **** -0.106
26734 C26734 27.5833 23.6871 57.1598 C.3 0.0 **** -0.106
26735 C26735 26.7339 22.3851 57.1698 C.3 0.0 **** 0.081
26736 N26736 27.2159 21.3496 56.2432 N.3 0.0 **** -0.727
26737 C26737 39.9852 22.7136 53.6498 C.2 0.0 **** 0.042
26738 C26738 39.8727 23.2077 54.9402 C.2 0.0 **** 0.042
26739 C26739 38.6111 23.348 55.5743 C.2 0.0 **** 0.0
26740 O26740 40.9619 23.5703 55.6985 O.3 0.0 **** -0.202
26741 C26741 42.1938 23.7177 54.9595 C.3 0.0 **** 0.107
26742 C26742 42.3247 22.5066 54.0511 C.3 0.0 **** 0.107
26743 O26743 41.2362 22.523 53.107 O.3 0.0 **** -0.202
26744 C26744 42.3641 21.1798 54.8376 C.3 0.0 **** -0.106
26745 C26745 42.93 21.3475 56.2644 C.3 0.0 **** -0.106
26746 C26746 43.9791 22.4644 56.3016 C.3 0.0 **** -0.106
26747 C26747 43.343 23.8285 55.9637 C.3 0.0 **** -0.106
26748 C26748 37.2877 23.9297 57.5341 C.2 0.0 **** 0.0
26749 C26749 38.5229 23.7997 56.8992 C.2 0.0 **** -0.1268
26750 C26750 34.7672 24.1226 58.8026 C.2 0.0 **** 0.0
26751 C26751 35.9699 24.4648 59.4949 C.2 0.0 **** 0.042
26752 C26752 37.1933 24.3699 58.8915 C.2 0.0 **** -0.1268
26753 C26753 33.5393 24.1819 59.4786 C.2 0.0 **** 0.0
26754 C26754 32.3694 23.7858 58.8174 C.2 0.0 **** 0.0
26755 C26755 32.4357 23.405 57.4897 C.2 0.0 **** -0.1268
26756 O26756 35.9209 24.8938 60.8126 O.3 0.0 **** -0.0685
26757 C26757 34.7161 25.0251 61.4643 C.2 0.0 **** 0.0265
26758 C26758 33.512 24.6543 60.8418 C.2 0.0 **** 0.0
26759 C26759 31.0418 23.7217 59.5249 C.3 0.0 **** -0.053
26760 C26760 30.9838 24.5373 60.8372 C.3 0.0 **** -0.053
26761 C26761 32.2997 24.7906 61.5236 C.2 0.0 **** 0.0
26762 C26762 30.0152 23.9079 61.8561 C.3 0.0 **** -0.053
26763 C26763 28.7667 23.4047 61.1408 C.3 0.0 **** -0.106
26764 C26764 29.1401 22.2122 60.2252 C.3 0.0 **** -0.106
26765 C26765 30.6118 22.2645 59.7731 C.3 0.0 **** -0.106
26766 C26766 32.2761 25.2897 62.8347 C.2 0.0 **** 0.0
26767 C26767 33.4878 25.7262 63.4414 C.2 0.0 **** 0.0
26768 C26768 34.736 25.5784 62.7586 C.2 0.0 **** 0.0
26769 C26769 29.8401 24.8523 63.0137 C.2 0.0 **** 0.0
26770 C26770 31.0289 25.4342 63.5354 C.2 0.0 **** 0.0
26771 C26771 37.1424 15.2257 44.5938 C.3 0.0 **** -0.053
26772 C26772 36.7642 15.7668 45.9787 C.3 0.0 **** -0.159
26773 C26773 36.4287 13.8958 44.3298 C.3 0.0 **** -0.159
26774 O26774 31.1152 22.0159 51.2052 O.3 0.0 **** -0.57
26775 C26775 35.9389 26.0187 63.4015 C.2 0.0 **** -0.1268
26776 C26776 35.8973 26.6038 64.6364 C.2 0.0 **** -0.1268
26777 C26777 34.6588 26.8087 65.3304 C.2 0.0 **** 0.0
26778 C26778 33.4465 26.3562 64.7163 C.2 0.0 **** 0.0
26779 C26779 32.2036 26.5677 65.37 C.2 0.0 **** 0.0
26780 C26780 32.1618 27.222 66.6236 C.2 0.0 **** 0.0
26781 C26781 33.3795 27.6661 67.2331 C.2 0.0 **** 0.0
26782 C26782 34.5995 27.4477 66.5732 C.2 0.0 **** -0.1268
26783 C26783 33.3173 28.3256 68.4996 C.2 0.0 **** -0.1268
26784 C26784 32.117 28.5348 69.1255 C.2 0.0 **** -0.1268
26785 C26785 30.8907 28.0979 68.5377 C.2 0.0 **** 0.0
26786 C26786 30.9145 27.4347 67.282 C.2 0.0 **** 0.0
26787 C26787 29.6963 26.9815 66.691 C.2 0.0 **** 0.0
26788 C26788 29.7428 26.3136 65.4345 C.2 0.0 **** 0.0
26789 C26789 30.9872 26.1096 64.7727 C.2 0.0 **** 0.0
26790 C26790 28.4502 27.1785 67.3567 C.2 0.0 **** 0.0
26791 C26791 28.4645 27.8664 68.6018 C.2 0.0 **** -0.1268
26792 C26792 29.6428 28.3091 69.1658 C.2 0.0 **** -0.1268
26793 C26793 28.6344 25.0916 63.634 C.2 0.0 **** -0.1268
26794 C26794 28.5415 25.856 64.8266 C.2 0.0 **** 0.0
26795 C26795 27.2332 26.7144 66.7227 C.2 0.0 **** 0.052
26796 C26796 27.2846 26.126 65.4518 C.2 0.0 **** 0.0
26797 C26797 26.0264 25.7603 64.6962 C.3 0.0 **** -0.106
26798 C26798 24.8286 26.5903 65.1416 C.3 0.0 **** -0.106
26799 C26799 24.6605 26.4233 66.6426 C.3 0.0 **** -0.086
26800 C26800 25.9192 26.757 67.4337 C.2 0.0 **** 0.347
26801 O26801 25.7984 26.9869 68.638 O.2 0.0 **** -0.419
26802 H26802 43.342 14.0995 44.1528 H 0.0 **** 0.053
26803 H26803 43.4255 15.8524 44.4771 H 0.0 **** 0.053
26804 H26804 43.2528 14.4327 41.8137 H 0.0 **** 0.053
26805 H26805 42.7692 16.0782 42.2507 H 0.0 **** 0.053
26806 H26806 45.5353 15.0161 41.5372 H 0.0 **** 0.053
26807 H26807 46.4904 17.2041 42.176 H 0.0 **** 0.053
26808 H26808 45.7307 16.7559 44.8264 H 0.0 **** 0.053
26809 H26809 46.9923 15.823 43.9634 H 0.0 **** 0.053
26810 H26810 43.9517 17.8169 43.703 H 0.0 **** 0.053
26811 H26811 42.8743 18.1291 41.667 H 0.0 **** 0.053
26812 H26812 45.6233 18.4676 40.3896 H 0.0 **** 0.053
26813 H26813 44.0895 18.5135 39.5075 H 0.0 **** 0.053
26814 H26814 45.3487 16.2213 39.5772 H 0.0 **** 0.053
26815 H26815 43.619 16.1931 39.9266 H 0.0 **** 0.053
26816 H26816 43.2411 21.6339 42.6003 H 0.0 **** 0.053
26817 H26817 45.3224 21.3694 43.4913 H 0.0 **** 0.053
26818 H26818 46.1022 18.9333 44.312 H 0.0 **** 0.053
26819 H26819 46.2537 19.5012 42.6433 H 0.0 **** 0.053
26820 H26820 42.2663 18.9008 43.508 H 0.0 **** 0.053
26821 H26821 43.6952 21.942 48.8419 H 0.0 **** 0.053
26822 H26822 44.3101 20.3171 48.5479 H 0.0 **** 0.053
26823 H26823 46.0743 21.9279 47.9531 H 0.0 **** 0.053
26824 H26824 44.9611 22.8128 46.886 H 0.0 **** 0.053
26825 H26825 45.9113 19.9194 46.5141 H 0.0 **** 0.053
26826 H26826 46.393 21.2927 45.518 H 0.0 **** 0.053
26827 H26827 39.4213 22.008 40.5248 H 0.0 **** 0.053
26828 H26828 39.9016 20.7032 39.4703 H 0.0 **** 0.053
26829 H26829 41.9026 21.0678 40.8863 H 0.0 **** 0.1268
26830 H26830 37.31 20.7052 39.3886 H 0.0 **** 0.053
26831 H26831 37.6057 18.9602 39.4866 H 0.0 **** 0.053
26832 H26832 35.2788 19.3932 40.2427 H 0.0 **** 0.053
26833 H26833 35.8459 20.6238 41.3888 H 0.0 **** 0.053
26834 H26834 38.8788 16.9929 43.1623 H 0.0 **** 0.053
26835 H26835 38.043 17.7206 44.5138 H 0.0 **** 0.053
26836 H26836 36.9729 15.6996 42.5033 H 0.0 **** 0.053
26837 H26837 35.3571 17.4875 44.3741 H 0.0 **** 0.053
26838 H26838 34.6949 16.0374 43.5936 H 0.0 **** 0.053
26839 H26839 34.2668 18.2235 42.3073 H 0.0 **** 0.053
26840 H26840 35.0643 16.9736 41.3612 H 0.0 **** 0.053
26841 H26841 37.3494 19.7645 44.5842 H 0.0 **** 0.1268
26842 H26842 34.3819 20.6396 48.9076 H 0.0 **** 0.1268
26843 H26843 33.1047 21.3025 50.7935 H 0.0 **** 0.1268
26844 H26844 41.0572 22.0036 51.2587 H 0.0 **** 0.1268
26845 H26845 30.4673 21.3771 55.591 H 0.0 **** 0.053
26846 H26846 30.7969 20.5715 53.4779 H 0.0 **** 0.053
26847 H26847 30.8226 23.4836 52.6357 H 0.0 **** 0.053
26848 H26848 28.5159 22.3344 52.479 H 0.0 **** 0.053
26849 H26849 28.9455 20.6933 51.9902 H 0.0 **** 0.053
26850 H26850 28.4856 19.9791 54.4544 H 0.0 **** 0.053
26851 H26851 27.0343 20.4569 53.5682 H 0.0 **** 0.053
26852 H26852 26.9039 22.5623 54.6098 H 0.0 **** 0.053
26853 H26853 28.8557 23.7212 54.5116 H 0.0 **** 0.053
26854 H26854 29.4443 22.6149 57.2871 H 0.0 **** 0.053
26855 H26855 29.6406 24.2691 56.7101 H 0.0 **** 0.053
26856 H26856 27.1147 24.4423 56.5087 H 0.0 **** 0.053
26857 H26857 27.6262 24.1211 58.1715 H 0.0 **** 0.053
26858 H26858 25.6886 22.6225 56.9089 H 0.0 **** 0.053
26859 H26859 26.7182 21.9447 58.1778 H 0.0 **** 0.053
26860 H26860 27.9583 20.8054 56.6844 H 0.0 **** 0.353
26861 H26861 42.1098 24.6263 54.3402 H 0.0 **** 0.053
26862 H26862 43.2226 22.6221 53.4276 H 0.0 **** 0.053
26863 H26863 41.3411 20.779 54.8817 H 0.0 **** 0.053
26864 H26864 42.9681 20.4613 54.2643 H 0.0 **** 0.053
26865 H26865 43.3632 20.3958 56.6054 H 0.0 **** 0.053
26866 H26866 42.1127 21.6019 56.9555 H 0.0 **** 0.053
26867 H26867 44.7736 22.2328 55.5717 H 0.0 **** 0.053
26868 H26868 44.4648 22.5173 57.2871 H 0.0 **** 0.053
26869 H26869 44.102 24.5158 55.5612 H 0.0 **** 0.053
26870 H26870 42.9326 24.2994 56.8701 H 0.0 **** 0.053
26871 H26871 39.4346 24.0468 57.4408 H 0.0 **** 0.1268
26872 H26872 38.0995 24.6245 59.4423 H 0.0 **** 0.1268
26873 H26873 31.5185 23.1197 56.9992 H 0.0 **** 0.1268
26874 H26874 30.2866 24.1457 58.8456 H 0.0 **** 0.053
26875 H26875 30.5723 25.5364 60.5905 H 0.0 **** 0.053
26876 H26876 30.5325 23.0249 62.2826 H 0.0 **** 0.053
26877 H26877 28.3446 24.2337 60.5476 H 0.0 **** 0.053
26878 H26878 27.9918 23.0969 61.8571 H 0.0 **** 0.053
26879 H26879 28.4889 22.2185 59.3397 H 0.0 **** 0.053
26880 H26880 28.9525 21.2644 60.7528 H 0.0 **** 0.053
26881 H26881 30.7572 21.6775 58.8537 H 0.0 **** 0.053
26882 H26882 31.2758 21.8214 60.5322 H 0.0 **** 0.053
26883 H26883 38.2309 15.0335 44.5873 H 0.0 **** 0.053
26884 H26884 37.0992 15.0759 46.7669 H 0.0 **** 0.053
26885 H26885 35.6715 15.868 46.0677 H 0.0 **** 0.053
26886 H26886 37.2083 16.7533 46.1812 H 0.0 **** 0.053
26887 H26887 36.718 13.4771 43.3529 H 0.0 **** 0.053
26888 H26888 35.3356 14.0328 44.3293 H 0.0 **** 0.053
26889 H26889 36.6697 13.1555 45.1078 H 0.0 **** 0.053
26890 H26890 31.5626 22.676 50.6535 H 0.0 **** 0.41
26891 H26891 36.8876 25.8859 62.8819 H 0.0 **** 0.1268
26892 H26892 36.8179 26.9403 65.1166 H 0.0 **** 0.1268
26893 H26893 35.5246 27.7936 67.0397 H 0.0 **** 0.1268
26894 H26894 34.2504 28.6614 68.9555 H 0.0 **** 0.1268
26895 H26895 32.0751 29.0456 70.0895 H 0.0 **** 0.1268
26896 H26896 27.522 28.0293 69.1135 H 0.0 **** 0.1268
26897 H26897 29.6192 28.8378 70.1211 H 0.0 **** 0.1268
26898 H26898 27.7367 24.643 63.2172 H 0.0 **** 0.1268
26899 H26899 26.1981 25.9036 63.6202 H 0.0 **** 0.053
26900 H26900 25.8043 24.6855 64.8368 H 0.0 **** 0.053
26901 H26901 23.9208 26.2815 64.6013 H 0.0 **** 0.053
26902 H26902 25.0144 27.6496 64.9 H 0.0 **** 0.053
26903 H26903 24.4197 25.369 66.8737 H 0.0 **** 0.053
26904 H26904 23.846 27.0304 67.0627 H 0.0 **** 0.053
26905 C26905 71.4771 38.7059 1.16255 C.3 0.0 **** 0.054
26906 C26906 71.559 39.4642 -0.183026 C.3 0.0 **** -0.106
26907 C26907 72.7762 40.4117 -0.200736 C.3 0.0 **** -0.053
26908 C26908 72.8997 41.0935 1.17164 C.3 0.0 **** -0.053
26909 C26909 73.1054 40.0119 2.2638 C.3 0.0 **** 0.054
26910 O26910 72.7428 38.6949 1.8316 O.3 0.0 **** -0.32
26911 C26911 71.6749 41.9865 1.46198 C.3 0.0 **** -0.053
26912 C26912 71.1615 42.7205 0.19024 C.3 0.0 **** 0.107
26913 C26913 72.264 42.8487 -0.847191 C.3 0.0 **** -0.106
26914 C26914 72.703 41.4584 -1.34184 C.3 0.0 **** -0.106
26915 O26915 70.6951 44.0451 0.490325 O.3 0.0 **** -0.32
26916 C26916 69.8782 44.0981 1.67218 C.3 0.0 **** 0.107
26917 C26917 70.7969 43.9253 2.89491 C.3 0.0 **** -0.053
26918 C26918 72.0121 43.0225 2.53085 C.3 0.0 **** -0.106
26919 C26919 70.0872 43.5115 4.1414 C.2 0.0 **** 0.0
26920 C26920 68.7537 43.1355 4.1694 C.2 0.0 **** 0.0
26921 C26921 67.99 42.9827 2.95663 C.2 0.0 **** 0.0
26922 C26922 68.6832 43.133 1.6211 C.3 0.0 **** -0.053
26923 C26923 66.6804 42.5356 2.97534 C.2 0.0 **** 0.0
26924 C26924 66.0287 42.2633 4.23463 C.2 0.0 **** 0.0
26925 C26925 66.7895 42.4635 5.42634 C.2 0.0 **** 0.232
26926 C26926 68.0975 42.8618 5.43322 C.2 0.0 **** 0.0
26927 C26927 68.8527 43.003 6.73034 C.3 0.0 **** -0.106
26928 C26928 70.0126 43.9912 6.60237 C.3 0.0 **** -0.106
26929 C26929 70.8894 43.6049 5.40882 C.3 0.0 **** -0.106
26930 O26930 66.2106 42.2134 6.65581 O.3 0.0 **** -0.464
26931 C26931 64.8777 41.8942 6.74964 C.2 0.0 **** 0.232
26932 C26932 64.0938 41.6364 5.61047 C.2 0.0 **** 0.0
26933 C26933 64.7117 41.7948 4.31542 C.2 0.0 **** 0.0
26934 C26934 67.7117 43.441 0.506343 C.2 0.0 **** 0.0
26935 C26935 66.4729 42.6671 0.506329 C.2 0.0 **** 0.0
26936 C26936 65.9311 42.2965 1.73868 C.2 0.0 **** 0.0
26937 C26937 65.7995 42.5005 -0.780244 C.2 0.0 **** 0.0
26938 C26938 65.9679 43.4559 -1.74039 C.2 0.0 **** 0.0
26939 C26939 66.9294 44.5847 -1.55969 C.3 0.0 **** -0.106
26940 C26940 67.9229 44.3599 -0.462381 C.2 0.0 **** -0.1268
26941 C26941 65.2015 43.3568 -3.0297 C.3 0.0 **** -0.106
26942 C26942 63.8517 42.673 -2.79385 C.3 0.0 **** -0.106
26943 C26943 64.0676 41.3616 -2.07912 C.2 0.0 **** 0.0
26944 C26944 65.025 41.2861 -1.12431 C.2 0.0 **** 0.0
26945 C26945 65.442 39.9687 -0.512353 C.3 0.0 **** -0.106
26946 C26946 64.8061 38.7485 -1.18799 C.3 0.0 **** -0.053
26947 C26947 63.3279 39.0384 -1.47142 C.3 0.0 **** -0.106
26948 C26948 63.2103 40.1925 -2.46682 C.3 0.0 **** -0.106
26949 C26949 64.0146 41.5557 3.08496 C.2 0.0 **** -0.012
26950 C26950 64.5929 41.8163 1.86696 C.2 0.0 **** -0.1268
26951 C26951 62.7339 41.3021 5.83527 C.2 0.0 **** 0.0
26952 C26952 61.8606 40.9879 4.73305 C.2 0.0 **** -0.012
26953 S26953 62.4113 40.8549 3.07027 S.2 0.0 **** 0.024
26954 C26954 60.5346 40.7057 4.94046 C.2 0.0 **** -0.1268
26955 C26955 59.9737 40.7154 6.24472 C.2 0.0 **** 0.0
26956 C26956 60.8099 40.9901 7.37016 C.2 0.0 **** 0.0
26957 C26957 62.1891 41.2716 7.16777 C.2 0.0 **** 0.0
26958 C26958 60.2465 40.9665 8.67301 C.2 0.0 **** 0.0
26959 C26959 58.8518 40.7088 8.84475 C.2 0.0 **** 0.0
26960 C26960 58.0161 40.5044 7.68778 C.2 0.0 **** 0.0
26961 C26961 58.6157 40.4676 6.41931 C.2 0.0 **** -0.1268
26962 C26962 56.6097 40.3571 7.87509 C.2 0.0 **** 0.0
26963 C26963 56.104 40.2513 9.15698 C.2 0.0 **** 0.042
26964 C26964 56.907 40.3298 10.334 C.2 0.0 **** 0.0
26965 C26965 58.2863 40.6295 10.1522 C.2 0.0 **** 0.0
26966 C26966 63.0334 41.5329 8.29933 C.2 0.0 **** 0.0
26967 C26967 64.3831 41.8444 8.03455 C.2 0.0 **** -0.1268
26968 C26968 61.0896 41.1997 9.80933 C.2 0.0 **** 0.0
26969 C26969 62.478 41.4803 9.63554 C.2 0.0 **** 0.0
26970 C26970 59.1339 40.8375 11.2908 C.2 0.0 **** 0.0
26971 C26971 60.5101 41.1346 11.112 C.2 0.0 **** 0.0
26972 C26972 56.3812 40.1486 11.6644 C.2 0.0 **** 0.0
26973 C26973 57.2282 40.4096 12.7827 C.2 0.0 **** 0.0
26974 C26974 58.5903 40.7577 12.6 C.2 0.0 **** 0.0
26975 O26975 54.7339 40.155 9.27115 O.3 0.0 **** -0.202
26976 C26976 54.1018 39.1086 8.4808 C.3 0.0 **** 0.107
26977 C26977 54.6803 39.0509 7.04484 C.3 0.0 **** -0.053
26978 C26978 55.5041 40.3278 6.82447 C.3 0.0 **** 0.107
26979 C26979 53.5744 38.8314 6.00541 C.3 0.0 **** -0.106
26980 C26980 52.5847 37.7929 6.54395 C.3 0.0 **** -0.106
26981 C26981 51.7643 38.3922 7.69019 C.3 0.0 **** 0.134
26982 C26982 52.6032 39.3978 8.5482 C.3 0.0 **** -0.053
26983 C26983 52.1108 39.3819 10.0049 C.3 0.0 **** -0.106
26984 C26984 50.5918 39.236 10.08 C.3 0.0 **** -0.106
26985 C26985 50.1573 37.8867 9.44167 C.3 0.0 **** 0.081
26986 N26986 51.1285 37.3388 8.48259 N.3 0.0 **** -0.727
26987 C26987 63.2589 41.6986 10.8253 C.2 0.0 **** 0.042
26988 C26988 62.6817 41.6845 12.0858 C.2 0.0 **** 0.042
26989 C26989 61.3093 41.3754 12.2706 C.2 0.0 **** 0.0
26990 O26990 63.3925 41.9417 13.2353 O.3 0.0 **** -0.202
26991 C26991 64.6867 42.5473 13.0258 C.3 0.0 **** 0.107
26992 C26992 65.3758 41.7709 11.9163 C.3 0.0 **** 0.107
26993 O26993 64.6113 41.9277 10.705 O.3 0.0 **** -0.202
26994 C26994 65.5674 40.281 12.2689 C.3 0.0 **** -0.106
26995 C26995 65.6714 40.0355 13.7897 C.3 0.0 **** -0.106
26996 C26996 66.3287 41.2322 14.4864 C.3 0.0 **** -0.106
26997 C26997 65.4571 42.4972 14.3469 C.3 0.0 **** -0.106
26998 C26998 59.4118 41.0001 13.7502 C.2 0.0 **** 0.0
26999 C26999 60.7571 41.3144 13.5586 C.2 0.0 **** -0.1268
27000 C27000 56.6931 40.3015 14.0969 C.2 0.0 **** 0.0
27001 C27001 57.5318 40.5824 15.2196 C.2 0.0 **** 0.042
27002 C27002 58.8485 40.9161 15.0621 C.2 0.0 **** -0.1268
27003 C27003 55.3629 39.9089 14.3084 C.2 0.0 **** 0.0
27004 C27004 54.5611 39.5732 13.2097 C.2 0.0 **** 0.0
27005 C27005 55.0744 39.6967 11.9317 C.2 0.0 **** -0.1268
27006 O27006 57.0241 40.5098 16.5079 O.3 0.0 **** -0.0685
27007 C27007 55.7021 40.1961 16.7253 C.2 0.0 **** 0.0265
27008 C27008 54.8515 39.8642 15.6569 C.2 0.0 **** 0.0
27009 C27009 53.164 39.0387 13.3817 C.3 0.0 **** -0.053
27010 C27010 52.544 39.3226 14.7695 C.3 0.0 **** -0.053
27011 C27011 53.5133 39.5432 15.9003 C.2 0.0 **** 0.0
27012 C27012 51.5514 38.2207 15.1856 C.3 0.0 **** -0.053
27013 C27013 50.7203 37.7916 13.982 C.3 0.0 **** -0.106
27014 C27014 51.6308 37.0764 12.9527 C.3 0.0 **** -0.106
27015 C27015 53.0975 37.5356 13.0558 C.3 0.0 **** -0.106
27016 C27016 53.0117 39.5418 17.2107 C.2 0.0 **** 0.0
27017 C27017 53.8555 39.9411 18.2855 C.2 0.0 **** 0.0
27018 C27018 55.2303 40.2579 18.0502 C.2 0.0 **** 0.0
27019 C27019 50.8287 38.657 16.4305 C.2 0.0 **** 0.0
27020 C27020 51.634 39.2159 17.4615 C.2 0.0 **** 0.0
27021 C27021 65.0408 37.4682 -0.359122 C.3 0.0 **** -0.053
27022 C27022 64.1802 37.4188 0.910027 C.3 0.0 **** -0.159
27023 C27023 64.8115 36.2122 -1.20605 C.3 0.0 **** -0.159
27024 O27024 55.8782 40.3808 5.44676 O.3 0.0 **** -0.57
27025 C27025 56.0555 40.6465 19.1558 C.2 0.0 **** -0.1268
27026 C27026 55.5338 40.7478 20.4154 C.2 0.0 **** -0.1268
27027 C27027 54.1495 40.4813 20.68 C.2 0.0 **** 0.0
27028 C27028 53.3114 40.0698 19.5938 C.2 0.0 **** 0.0
27029 C27029 51.9317 39.8227 19.8223 C.2 0.0 **** 0.0
27030 C27030 51.3861 39.9812 21.1179 C.2 0.0 **** 0.0
27031 C27031 52.2327 40.3875 22.1995 C.2 0.0 **** 0.0
27032 C27032 53.5947 40.6265 21.9556 C.2 0.0 **** -0.1268
27033 C27033 51.6634 40.5428 23.5012 C.2 0.0 **** -0.1268
27034 C27034 50.3311 40.3105 23.7186 C.2 0.0 **** -0.1268
27035 C27035 49.4688 39.9019 22.6556 C.2 0.0 **** 0.0
27036 C27036 50.0008 39.7328 21.3496 C.2 0.0 **** 0.0
27037 C27037 49.1514 39.3116 20.2821 C.2 0.0 **** 0.0
27038 C27038 49.7058 39.1424 18.9817 C.2 0.0 **** 0.0
27039 C27039 51.087 39.3995 18.7483 C.2 0.0 **** 0.0
27040 C27040 47.7695 39.0464 20.5164 C.2 0.0 **** 0.0
27041 C27041 47.2689 39.2485 21.8325 C.2 0.0 **** -0.1268
27042 C27042 48.0913 39.6625 22.8595 C.2 0.0 **** -0.1268
27043 C27043 49.4846 38.4535 16.6493 C.2 0.0 **** -0.1268
27044 C27044 48.8777 38.7259 17.9033 C.2 0.0 **** 0.0
27045 C27045 46.9355 38.6303 19.4075 C.2 0.0 **** 0.052
27046 C27046 47.4766 38.5402 18.1178 C.2 0.0 **** 0.0
27047 C27047 46.6095 38.2501 16.913 C.3 0.0 **** -0.106
27048 C27048 45.1578 38.6532 17.1411 C.3 0.0 **** -0.106
27049 C27049 44.654 37.947 18.3887 C.3 0.0 **** -0.086
27050 C27050 45.5209 38.1953 19.6168 C.2 0.0 **** 0.347
27051 O27051 45.0307 37.9664 20.7237 O.2 0.0 **** -0.419
27052 H27052 71.2027 37.6521 1.01796 H 0.0 **** 0.053
27053 H27053 70.7177 39.1683 1.82447 H 0.0 **** 0.053
27054 H27054 71.6428 38.7593 -1.02432 H 0.0 **** 0.053
27055 H27055 70.6324 40.0396 -0.336996 H 0.0 **** 0.053
27056 H27056 73.6696 39.7863 -0.342911 H 0.0 **** 0.053
27057 H27057 73.7904 41.7437 1.16074 H 0.0 **** 0.053
27058 H27058 72.5141 40.2759 3.16553 H 0.0 **** 0.053
27059 H27059 74.1624 39.9346 2.55453 H 0.0 **** 0.053
27060 H27060 70.8728 41.3387 1.85049 H 0.0 **** 0.053
27061 H27061 70.3244 42.1508 -0.257429 H 0.0 **** 0.053
27062 H27062 73.1122 43.3814 -0.38769 H 0.0 **** 0.053
27063 H27063 71.911 43.4671 -1.68486 H 0.0 **** 0.053
27064 H27064 73.6826 41.5478 -1.83482 H 0.0 **** 0.053
27065 H27065 71.9974 41.1022 -2.11035 H 0.0 **** 0.053
27066 H27066 69.4648 45.1174 1.67896 H 0.0 **** 0.053
27067 H27067 71.2301 44.9214 3.10767 H 0.0 **** 0.053
27068 H27068 72.4 42.5251 3.43215 H 0.0 **** 0.053
27069 H27069 72.8233 43.6564 2.13935 H 0.0 **** 0.053
27070 H27070 69.0685 42.1151 1.40878 H 0.0 **** 0.053
27071 H27071 68.1645 43.3031 7.53355 H 0.0 **** 0.053
27072 H27072 69.2533 42.0145 7.02474 H 0.0 **** 0.053
27073 H27073 70.6039 44.0097 7.53054 H 0.0 **** 0.053
27074 H27074 69.6123 45.0053 6.44135 H 0.0 **** 0.053
27075 H27075 71.3773 42.633 5.62325 H 0.0 **** 0.053
27076 H27076 71.7105 44.3285 5.27029 H 0.0 **** 0.053
27077 H27077 66.3709 45.5279 -1.37033 H 0.0 **** 0.053
27078 H27078 67.4474 44.7763 -2.51976 H 0.0 **** 0.053
27079 H27079 68.8293 44.9629 -0.470988 H 0.0 **** 0.1268
27080 H27080 65.069 44.3602 -3.46493 H 0.0 **** 0.053
27081 H27081 65.7922 42.7693 -3.76172 H 0.0 **** 0.053
27082 H27082 63.3218 42.5039 -3.74427 H 0.0 **** 0.053
27083 H27083 63.2111 43.3358 -2.18054 H 0.0 **** 0.053
27084 H27084 66.5426 39.8945 -0.572127 H 0.0 **** 0.053
27085 H27085 65.2163 39.9498 0.564732 H 0.0 **** 0.053
27086 H27086 65.3031 38.6046 -2.16557 H 0.0 **** 0.053
27087 H27087 62.8298 39.3212 -0.529664 H 0.0 **** 0.053
27088 H27088 62.8163 38.1434 -1.85742 H 0.0 **** 0.053
27089 H27089 62.162 40.5322 -2.55191 H 0.0 **** 0.053
27090 H27090 63.4888 39.8479 -3.48188 H 0.0 **** 0.053
27091 H27091 63.9991 41.6888 0.962145 H 0.0 **** 0.1268
27092 H27092 59.8798 40.4765 4.09665 H 0.0 **** 0.1268
27093 H27093 58.0222 40.2097 5.54773 H 0.0 **** 0.1268
27094 H27094 65.0717 42.0629 8.83743 H 0.0 **** 0.1268
27095 H27095 54.3022 38.1515 8.99771 H 0.0 **** 0.053
27096 H27096 55.3808 38.2028 6.98356 H 0.0 **** 0.053
27097 H27097 54.8325 41.1838 7.04295 H 0.0 **** 0.053
27098 H27098 53.0511 39.7824 5.80657 H 0.0 **** 0.053
27099 H27099 54.0238 38.5149 5.05566 H 0.0 **** 0.053
27100 H27100 53.1462 36.9186 6.9199 H 0.0 **** 0.053
27101 H27101 51.9049 37.4179 5.76664 H 0.0 **** 0.053
27102 H27102 50.9378 38.9719 7.24459 H 0.0 **** 0.053
27103 H27103 52.455 40.4099 8.13492 H 0.0 **** 0.053
27104 H27104 52.5732 38.5243 10.5232 H 0.0 **** 0.053
27105 H27105 52.4559 40.2833 10.5293 H 0.0 **** 0.053
27106 H27106 50.123 40.0781 9.54611 H 0.0 **** 0.053
27107 H27107 50.248 39.2905 11.1253 H 0.0 **** 0.053
27108 H27108 49.1934 38.0164 8.92102 H 0.0 **** 0.053
27109 H27109 49.9984 37.1268 10.2211 H 0.0 **** 0.053
27110 H27110 51.8483 36.8115 8.97838 H 0.0 **** 0.353
27111 H27111 64.524 43.5859 12.6926 H 0.0 **** 0.053
27112 H27112 66.3392 42.2493 11.6895 H 0.0 **** 0.053
27113 H27113 64.7178 39.7202 11.8529 H 0.0 **** 0.053
27114 H27114 66.4725 39.923 11.7567 H 0.0 **** 0.053
27115 H27115 66.2422 39.1144 13.9781 H 0.0 **** 0.053
27116 H27116 64.6643 39.8882 14.2071 H 0.0 **** 0.053
27117 H27117 67.3188 41.4101 14.0327 H 0.0 **** 0.053
27118 H27118 66.5056 41.0209 15.5512 H 0.0 **** 0.053
27119 H27119 66.0782 43.4014 14.4311 H 0.0 **** 0.053
27120 H27120 64.7112 42.5443 15.1552 H 0.0 **** 0.053
27121 H27121 61.3919 41.5102 14.4213 H 0.0 **** 0.1268
27122 H27122 59.4737 41.1146 15.9333 H 0.0 **** 0.1268
27123 H27123 54.4315 39.4468 11.1024 H 0.0 **** 0.1268
27124 H27124 52.5275 39.5362 12.6341 H 0.0 **** 0.053
27125 H27125 51.9557 40.2582 14.6863 H 0.0 **** 0.053
27126 H27126 52.159 37.3476 15.4982 H 0.0 **** 0.053
27127 H27127 50.2592 38.6894 13.5364 H 0.0 **** 0.053
27128 H27128 49.8988 37.1247 14.2804 H 0.0 **** 0.053
27129 H27129 51.2584 37.2789 11.9386 H 0.0 **** 0.053
27130 H27130 51.5767 35.9869 13.1012 H 0.0 **** 0.053
27131 H27131 53.6331 37.3405 12.1144 H 0.0 **** 0.053
27132 H27132 53.6339 36.9771 13.8392 H 0.0 **** 0.053
27133 H27133 66.1026 37.4809 -0.0519273 H 0.0 **** 0.053
27134 H27134 64.4718 36.5651 1.5402 H 0.0 **** 0.053
27135 H27135 63.1177 37.2928 0.650501 H 0.0 **** 0.053
27136 H27136 64.2696 38.3334 1.51563 H 0.0 **** 0.053
27137 H27137 65.4495 36.2169 -2.10394 H 0.0 **** 0.053
27138 H27138 63.7623 36.1504 -1.53632 H 0.0 **** 0.053
27139 H27139 65.0322 35.3004 -0.630428 H 0.0 **** 0.053
27140 H27140 56.2573 41.2583 5.28413 H 0.0 **** 0.41
27141 H27141 57.1063 40.8687 18.9706 H 0.0 **** 0.1268
27142 H27142 56.1686 41.0489 21.2507 H 0.0 **** 0.1268
27143 H27143 54.2345 40.9418 22.7828 H 0.0 **** 0.1268
27144 H27144 52.3162 40.8538 24.3188 H 0.0 **** 0.1268
27145 H27145 49.9004 40.4378 24.7137 H 0.0 **** 0.1268
27146 H27146 46.2178 39.0578 22.021 H 0.0 **** 0.1268
27147 H27147 47.675 39.8124 23.8579 H 0.0 **** 0.1268
27148 H27148 48.8849 38.031 15.8476 H 0.0 **** 0.1268
27149 H27149 47.0116 38.7868 16.0423 H 0.0 **** 0.053
27150 H27150 46.6596 37.1726 16.6663 H 0.0 **** 0.053
27151 H27151 44.5432 38.4008 16.2636 H 0.0 **** 0.053
27152 H27152 45.1047 39.7454 17.2804 H 0.0 **** 0.053
27153 H27153 44.6575 36.8537 18.2229 H 0.0 **** 0.053
27154 H27154 43.6245 38.2196 18.6612 H 0.0 **** 0.053
27155 C27155 50.5003 63.3936 26.5366 C.3 0.0 **** 0.054
27156 C27156 50.8191 64.0344 27.9078 C.3 0.0 **** -0.106
27157 C27157 52.1248 63.4542 28.4894 C.3 0.0 **** -0.053
27158 C27158 52.1603 61.9399 28.2265 C.3 0.0 **** -0.053
27159 C27159 52.1202 61.6849 26.6973 C.3 0.0 **** 0.054
27160 O27160 51.6711 62.8191 25.9459 O.3 0.0 **** -0.32
27161 C27161 51.013 61.2194 28.9657 C.3 0.0 **** -0.053
27162 C27162 50.7329 61.8334 30.3672 C.3 0.0 **** 0.107
27163 C27163 51.9559 62.5627 30.8968 C.3 0.0 **** -0.106
27164 C27164 52.2976 63.7652 29.9982 C.3 0.0 **** -0.106
27165 O27165 50.3796 60.8277 31.3295 O.3 0.0 **** -0.32
27166 C27166 49.4413 59.8662 30.8177 C.3 0.0 **** 0.107
27167 C27167 50.1877 58.9497 29.8319 C.3 0.0 **** -0.053
27168 C27168 51.333 59.7359 29.1287 C.3 0.0 **** -0.106
27169 C27169 49.2975 58.2066 28.8916 C.2 0.0 **** 0.0
27170 C27170 47.9372 58.4465 28.7807 C.2 0.0 **** 0.0
27171 C27171 47.3078 59.5414 29.4754 C.2 0.0 **** 0.0
27172 C27172 48.1637 60.5117 30.2581 C.3 0.0 **** -0.053
27173 C27173 45.9645 59.8298 29.3091 C.2 0.0 **** 0.0
27174 C27174 45.1453 58.9915 28.466 C.2 0.0 **** 0.0
27175 C27175 45.7794 57.886 27.8218 C.2 0.0 **** 0.232
27176 C27176 47.1129 57.6055 27.9346 C.2 0.0 **** 0.0
27177 C27177 47.7229 56.4495 27.1832 C.3 0.0 **** -0.106
27178 C27178 48.9891 55.9365 27.87 C.3 0.0 **** -0.106
27179 C27179 49.9522 57.1012 28.1118 C.3 0.0 **** -0.106
27180 O27180 45.038 57.0565 27.0025 O.3 0.0 **** -0.464
27181 C27181 43.6767 57.2099 26.8991 C.2 0.0 **** 0.232
27182 C27182 43.0075 58.3074 27.4703 C.2 0.0 **** 0.0
27183 C27183 43.7852 59.2426 28.2478 C.2 0.0 **** 0.0
27184 C27184 47.3672 61.2632 31.2983 C.2 0.0 **** 0.0
27185 C27185 46.0609 61.7565 30.8696 C.2 0.0 **** 0.0
27186 C27186 45.3428 60.9942 29.9461 C.2 0.0 **** 0.0
27187 C27187 45.5278 62.9163 31.5817 C.2 0.0 **** 0.0
27188 C27188 45.9083 63.1268 32.8755 C.2 0.0 **** 0.0
27189 C27189 46.9578 62.2877 33.528 C.3 0.0 **** -0.106
27190 C27190 47.787 61.5008 32.5611 C.2 0.0 **** -0.1268
27191 C27191 45.2908 64.252 33.6579 C.3 0.0 **** -0.106
27192 C27192 43.8571 64.5051 33.1827 C.3 0.0 **** -0.106
27193 C27193 43.8465 64.69 31.6851 C.2 0.0 **** 0.0
27194 C27194 44.6726 63.9318 30.9257 C.2 0.0 **** 0.0
27195 C27195 44.8717 64.197 29.4513 C.3 0.0 **** -0.106
27196 C27196 44.1914 65.4799 28.9602 C.3 0.0 **** -0.053
27197 C27197 42.796 65.5855 29.5854 C.3 0.0 **** -0.106
27198 C27198 42.9195 65.7169 31.1033 C.3 0.0 **** -0.106
27199 C27199 43.2143 60.4003 28.8732 C.2 0.0 **** -0.012
27200 C27200 43.955 61.2144 29.6944 C.2 0.0 **** -0.1268
27201 C27201 41.6027 58.3646 27.2834 C.2 0.0 **** 0.0
27202 C27202 40.8348 59.4681 27.802 C.2 0.0 **** -0.012
27203 S27203 41.5577 60.874 28.568 S.2 0.0 **** 0.024
27204 C27204 39.4711 59.5077 27.6617 C.2 0.0 **** -0.1268
27205 C27205 38.7667 58.4646 27.0049 C.2 0.0 **** 0.0
27206 C27206 39.4909 57.3666 26.4471 C.2 0.0 **** 0.0
27207 C27207 40.9065 57.3217 26.5756 C.2 0.0 **** 0.0
27208 C27208 38.7806 56.3442 25.7648 C.2 0.0 **** 0.0
27209 C27209 37.3558 56.4004 25.6753 C.2 0.0 **** 0.0
27210 C27210 36.6432 57.4826 26.3077 C.2 0.0 **** 0.0
27211 C27211 37.3789 58.5115 26.9161 C.2 0.0 **** -0.1268
27212 C27212 35.2169 57.4618 26.2997 C.2 0.0 **** 0.0
27213 C27213 34.5572 56.5029 25.5546 C.2 0.0 **** 0.042
27214 C27214 35.2216 55.4793 24.8148 C.2 0.0 **** 0.0
27215 C27215 36.6369 55.4071 24.946 C.2 0.0 **** 0.0
27216 C27216 41.6366 56.2264 26.0022 C.2 0.0 **** 0.0
27217 C27217 43.0335 56.2152 26.1954 C.2 0.0 **** -0.1268
27218 C27218 39.5059 55.2616 25.1663 C.2 0.0 **** 0.0
27219 C27219 40.9271 55.1938 25.2762 C.2 0.0 **** 0.0
27220 C27220 37.3636 54.3373 24.3253 C.2 0.0 **** 0.0
27221 C27221 38.7752 54.2642 24.4533 C.2 0.0 **** 0.0
27222 C27222 34.5282 54.526 23.9842 C.2 0.0 **** 0.0
27223 C27223 35.2625 53.4416 23.4179 C.2 0.0 **** 0.0
27224 C27224 36.6661 53.3422 23.5912 C.2 0.0 **** 0.0
27225 O27225 33.1807 56.5101 25.6241 O.3 0.0 **** -0.202
27226 C27226 32.5362 57.7836 25.338 C.3 0.0 **** 0.107
27227 C27227 33.2682 58.9609 26.0294 C.3 0.0 **** -0.053
27228 C27228 34.2443 58.3637 27.0532 C.3 0.0 **** 0.107
27229 C27229 32.2736 59.9654 26.6239 C.3 0.0 **** -0.106
27230 C27230 31.1222 60.1705 25.6338 C.3 0.0 **** -0.106
27231 C27231 30.2432 58.9172 25.5814 C.3 0.0 **** 0.134
27232 C27232 31.0798 57.6064 25.7637 C.3 0.0 **** -0.053
27233 C27233 30.4223 56.4529 24.9879 C.3 0.0 **** -0.106
27234 C27234 28.8981 56.5255 25.0631 C.3 0.0 **** -0.106
27235 C27235 28.3985 57.8477 24.4157 C.3 0.0 **** 0.081
27236 N27236 29.4102 58.9146 24.3781 N.3 0.0 **** -0.727
27237 C27237 41.5832 54.0786 24.6446 C.2 0.0 **** 0.042
27238 C27238 40.8653 53.0854 23.9965 C.2 0.0 **** 0.042
27239 C27239 39.4554 53.1605 23.8549 C.2 0.0 **** 0.0
27240 O27240 41.461 51.9821 23.4301 O.3 0.0 **** -0.202
27241 C27241 42.8283 51.7554 23.836 C.3 0.0 **** 0.107
27242 C27242 43.5544 53.0871 23.7455 C.3 0.0 **** 0.107
27243 O27243 42.9572 53.9989 24.6879 O.3 0.0 **** -0.202
27244 C27244 43.5426 53.6704 22.3171 C.3 0.0 **** -0.106
27245 C27245 43.442 52.581 21.2276 C.3 0.0 **** -0.106
27246 C27246 44.1385 51.2943 21.6843 C.3 0.0 **** -0.106
27247 C27247 43.4299 50.6919 22.915 C.3 0.0 **** -0.106
27248 C27248 37.3695 52.2436 22.9954 C.2 0.0 **** 0.0
27249 C27249 38.7539 52.1718 23.1493 C.2 0.0 **** -0.1268
27250 C27250 34.5698 52.4587 22.6568 C.2 0.0 **** 0.0
27251 C27251 35.2975 51.3592 22.1052 C.2 0.0 **** 0.042
27252 C27252 36.6517 51.2493 22.2594 C.2 0.0 **** -0.1268
27253 C27253 33.1896 52.5599 22.4263 C.2 0.0 **** 0.0
27254 C27254 32.4896 53.671 22.9144 C.2 0.0 **** 0.0
27255 C27255 33.1583 54.6162 23.6704 C.2 0.0 **** -0.1268
27256 O27256 34.6385 50.3757 21.3832 O.3 0.0 **** -0.0685
27257 C27257 33.2742 50.4255 21.2113 C.2 0.0 **** 0.0265
27258 C27258 32.5229 51.5114 21.6926 C.2 0.0 **** 0.0
27259 C27259 31.0327 53.8895 22.6032 C.3 0.0 **** -0.053
27260 C27260 30.2896 52.6197 22.1274 C.3 0.0 **** -0.053
27261 C27261 31.1389 51.545 21.5024 C.2 0.0 **** 0.0
27262 C27262 29.1428 52.9613 21.1574 C.3 0.0 **** -0.053
27263 C27263 28.4161 54.2129 21.6356 C.3 0.0 **** -0.106
27264 C27264 29.358 55.4367 21.5136 C.3 0.0 **** -0.106
27265 C27265 30.8436 55.0377 21.5952 C.3 0.0 **** -0.106
27266 C27266 30.491 50.5016 20.824 C.2 0.0 **** 0.0
27267 C27267 31.2421 49.3712 20.394 C.2 0.0 **** 0.0
27268 C27268 32.661 49.3323 20.5706 C.2 0.0 **** 0.0
27269 C27269 28.3313 51.7208 20.9022 C.2 0.0 **** 0.0
27270 C27270 29.0665 50.5333 20.6316 C.2 0.0 **** 0.0
27271 C27271 44.1893 65.5536 27.4188 C.3 0.0 **** -0.053
27272 C27272 43.1866 64.583 26.7813 C.3 0.0 **** -0.159
27273 C27273 43.9265 66.9832 26.9346 C.3 0.0 **** -0.159
27274 O27274 34.7797 59.4353 27.8316 O.3 0.0 **** -0.57
27275 C27275 33.3888 48.1839 20.1173 C.2 0.0 **** -0.1268
27276 C27276 32.7381 47.1218 19.5537 C.2 0.0 **** -0.1268
27277 C27277 31.3119 47.1078 19.4021 C.2 0.0 **** 0.0
27278 C27278 30.5665 48.2544 19.8279 C.2 0.0 **** 0.0
27279 C27279 29.1511 48.258 19.7119 C.2 0.0 **** 0.0
27280 C27280 28.4787 47.134 19.1771 C.2 0.0 **** 0.0
27281 C27281 29.2324 45.9939 18.7486 C.2 0.0 **** 0.0
27282 C27282 30.6313 46.0081 18.8695 C.2 0.0 **** -0.1268
27283 C27283 28.5355 44.8676 18.2113 C.2 0.0 **** -0.1268
27284 C27284 27.1698 44.87 18.1064 C.2 0.0 **** -0.1268
27285 C27285 26.3982 45.9969 18.5248 C.2 0.0 **** 0.0
27286 C27286 27.0572 47.1359 19.0592 C.2 0.0 **** 0.0
27287 C27287 26.2975 48.2735 19.4682 C.2 0.0 **** 0.0
27288 C27288 26.9779 49.4074 19.9958 C.2 0.0 **** 0.0
27289 C27289 28.3965 49.4018 20.1223 C.2 0.0 **** 0.0
27290 C27290 24.8773 48.2831 19.3347 C.2 0.0 **** 0.0
27291 C27291 24.2516 47.1156 18.8161 C.2 0.0 **** -0.1268
27292 C27292 24.9887 46.0159 18.429 C.2 0.0 **** -0.1268
27293 C27293 26.9569 51.7056 20.8214 C.2 0.0 **** -0.1268
27294 C27294 26.241 50.5503 20.4115 C.2 0.0 **** 0.0
27295 C27295 24.1381 49.4507 19.7693 C.2 0.0 **** 0.052
27296 C27296 24.8127 50.5298 20.3562 C.2 0.0 **** 0.0
27297 C27297 24.0654 51.702 20.9522 C.3 0.0 **** -0.106
27298 C27298 22.6488 51.3266 21.3694 C.3 0.0 **** -0.106
27299 C27299 21.9304 50.7477 20.1619 C.3 0.0 **** -0.086
27300 C27300 22.6703 49.5811 19.5191 C.2 0.0 **** 0.347
27301 O27301 22.0329 48.8356 18.7736 O.2 0.0 **** -0.419
27302 H27302 50.1331 64.1379 25.8169 H 0.0 **** 0.053
27303 H27303 49.7232 62.6106 26.644 H 0.0 **** 0.053
27304 H27304 50.924 65.1261 27.814 H 0.0 **** 0.053
27305 H27305 49.9839 63.8503 28.6019 H 0.0 **** 0.053
27306 H27306 52.9563 63.9083 27.9309 H 0.0 **** 0.053
27307 H27307 53.1109 61.539 28.6163 H 0.0 **** 0.053
27308 H27308 51.4599 60.8191 26.4812 H 0.0 **** 0.053
27309 H27309 53.1218 61.4619 26.3038 H 0.0 **** 0.053
27310 H27310 50.1064 61.3106 28.3464 H 0.0 **** 0.053
27311 H27311 49.8972 62.5563 30.2979 H 0.0 **** 0.053
27312 H27312 52.7971 61.8516 30.9279 H 0.0 **** 0.053
27313 H27313 51.7712 62.8884 31.9305 H 0.0 **** 0.053
27314 H27314 53.3318 64.0807 30.2021 H 0.0 **** 0.053
27315 H27315 51.652 64.6182 30.2647 H 0.0 **** 0.053
27316 H27316 49.1418 59.2754 31.6958 H 0.0 **** 0.053
27317 H27317 50.6976 58.1792 30.4414 H 0.0 **** 0.053
27318 H27318 51.5578 59.2866 28.1501 H 0.0 **** 0.053
27319 H27319 52.2475 59.655 29.7371 H 0.0 **** 0.053
27320 H27320 48.4595 61.2689 29.5039 H 0.0 **** 0.053
27321 H27321 46.9821 55.6453 27.0679 H 0.0 **** 0.053
27322 H27322 47.9781 56.7791 26.1582 H 0.0 **** 0.053
27323 H27323 49.467 55.1562 27.2582 H 0.0 **** 0.053
27324 H27324 48.7215 55.484 28.8386 H 0.0 **** 0.053
27325 H27325 50.3047 57.483 27.1326 H 0.0 **** 0.053
27326 H27326 50.8568 56.7627 28.6448 H 0.0 **** 0.053
27327 H27327 46.4856 61.5984 34.2624 H 0.0 **** 0.053
27328 H27328 47.6015 62.9356 34.1546 H 0.0 **** 0.053
27329 H27329 48.7477 61.1252 32.9094 H 0.0 **** 0.1268
27330 H27330 45.3184 64.0192 34.7344 H 0.0 **** 0.053
27331 H27331 45.8961 65.1705 33.5167 H 0.0 **** 0.053
27332 H27332 43.4264 65.3899 33.6769 H 0.0 **** 0.053
27333 H27333 43.2245 63.6401 33.4604 H 0.0 **** 0.053
27334 H27334 45.9574 64.2543 29.2555 H 0.0 **** 0.053
27335 H27335 44.5215 63.344 28.8504 H 0.0 **** 0.053
27336 H27336 44.7804 66.3395 29.331 H 0.0 **** 0.053
27337 H27337 42.2249 64.6733 29.3469 H 0.0 **** 0.053
27338 H27338 42.2395 66.4392 29.1691 H 0.0 **** 0.053
27339 H27339 41.9308 65.6193 31.5876 H 0.0 **** 0.053
27340 H27340 43.2755 66.7315 31.3686 H 0.0 **** 0.053
27341 H27341 43.4602 62.0399 30.2056 H 0.0 **** 0.1268
27342 H27342 38.8981 60.3454 28.0656 H 0.0 **** 0.1268
27343 H27343 36.8666 59.3866 27.3035 H 0.0 **** 0.1268
27344 H27344 43.6435 55.4158 25.8012 H 0.0 **** 0.1268
27345 H27345 32.5712 57.921 24.241 H 0.0 **** 0.053
27346 H27346 33.876 59.4863 25.2756 H 0.0 **** 0.053
27347 H27347 33.6477 57.7056 27.7183 H 0.0 **** 0.053
27348 H27348 31.8821 59.5844 27.5827 H 0.0 **** 0.053
27349 H27349 32.7938 60.9053 26.8475 H 0.0 **** 0.053
27350 H27350 31.5391 60.362 24.6284 H 0.0 **** 0.053
27351 H27351 30.5012 61.0408 25.8862 H 0.0 **** 0.053
27352 H27352 29.5412 58.9634 26.4315 H 0.0 **** 0.053
27353 H27353 31.0901 57.3513 26.8369 H 0.0 **** 0.053
27354 H27354 30.7266 56.5225 23.9293 H 0.0 **** 0.053
27355 H27355 30.7989 55.4886 25.3554 H 0.0 **** 0.053
27356 H27356 28.5878 56.4778 26.1192 H 0.0 **** 0.053
27357 H27357 28.443 55.6588 24.5578 H 0.0 **** 0.053
27358 H27358 27.5212 58.2231 24.9693 H 0.0 **** 0.053
27359 H27359 28.0693 57.6682 23.3814 H 0.0 **** 0.053
27360 H27360 30.0066 58.8005 23.5576 H 0.0 **** 0.353
27361 H27361 42.8178 51.4204 24.8867 H 0.0 **** 0.053
27362 H27362 44.5834 52.9594 24.1106 H 0.0 **** 0.053
27363 H27363 42.6919 54.3628 22.2386 H 0.0 **** 0.053
27364 H27364 44.4574 54.2664 22.1845 H 0.0 **** 0.053
27365 H27365 43.8848 52.9514 20.2913 H 0.0 **** 0.053
27366 H27366 42.3832 52.3615 21.0251 H 0.0 **** 0.053
27367 H27367 45.188 51.5257 21.9349 H 0.0 **** 0.053
27368 H27368 44.1666 50.5513 20.8738 H 0.0 **** 0.053
27369 H27369 44.1305 50.0734 23.4957 H 0.0 **** 0.053
27370 H27370 42.6044 50.0338 22.6027 H 0.0 **** 0.053
27371 H27371 39.3013 51.3389 22.7108 H 0.0 **** 0.1268
27372 H27372 37.189 50.4084 21.8196 H 0.0 **** 0.1268
27373 H27373 32.5932 55.4539 24.0475 H 0.0 **** 0.1268
27374 H27374 30.5446 54.2223 23.5319 H 0.0 **** 0.053
27375 H27375 29.8188 52.1563 23.0173 H 0.0 **** 0.053
27376 H27376 29.6126 53.2018 20.1824 H 0.0 **** 0.053
27377 H27377 28.1091 54.0608 22.6844 H 0.0 **** 0.053
27378 H27378 27.4987 54.3889 21.056 H 0.0 **** 0.053
27379 H27379 29.13 56.15 22.3183 H 0.0 **** 0.053
27380 H27380 29.1704 55.9579 20.5623 H 0.0 **** 0.053
27381 H27381 31.461 55.8969 21.898 H 0.0 **** 0.053
27382 H27382 31.2221 54.7149 20.6124 H 0.0 **** 0.053
27383 H27383 45.2033 65.2642 27.0873 H 0.0 **** 0.053
27384 H27384 43.3096 64.5652 25.688 H 0.0 **** 0.053
27385 H27385 42.1542 64.9003 26.9946 H 0.0 **** 0.053
27386 H27386 43.3026 63.5533 27.1524 H 0.0 **** 0.053
27387 H27387 44.6614 67.6867 27.3569 H 0.0 **** 0.053
27388 H27388 42.9224 67.3197 27.2381 H 0.0 **** 0.053
27389 H27389 43.9796 67.0459 25.8371 H 0.0 **** 0.053
27390 H27390 35.2671 59.0398 28.5706 H 0.0 **** 0.41
27391 H27391 34.4718 48.1701 20.2393 H 0.0 **** 0.1268
27392 H27392 33.3001 46.2494 19.2154 H 0.0 **** 0.1268
27393 H27393 31.2007 45.1337 18.5466 H 0.0 **** 0.1268
27394 H27394 29.1185 44.0032 17.8885 H 0.0 **** 0.1268
27395 H27395 26.6425 44.0039 17.7019 H 0.0 **** 0.1268
27396 H27396 23.1714 47.1081 18.7176 H 0.0 **** 0.1268
27397 H27397 24.4776 45.1333 18.0385 H 0.0 **** 0.1268
27398 H27398 26.4126 52.621 21.0374 H 0.0 **** 0.1268
27399 H27399 24.6214 52.0786 21.8223 H 0.0 **** 0.053
27400 H27400 24.028 52.5325 20.222 H 0.0 **** 0.053
27401 H27401 22.1169 52.2038 21.7679 H 0.0 **** 0.053
27402 H27402 22.6975 50.5744 22.1738 H 0.0 **** 0.053
27403 H27403 21.8358 51.5235 19.3797 H 0.0 **** 0.053
27404 H27404 20.9115 50.3996 20.3834 H 0.0 **** 0.053
27405 C27405 12.7299 47.7138 32.817 C.3 0.0 **** 0.054
27406 C27406 13.4569 48.9209 33.4546 C.3 0.0 **** -0.106
27407 C27407 14.9861 48.7237 33.4048 C.3 0.0 **** -0.053
27408 C27408 15.3129 47.2586 33.7366 C.3 0.0 **** -0.053
27409 C27409 14.6404 46.3342 32.6886 C.3 0.0 **** 0.054
27410 O27410 13.6002 46.9825 31.9466 O.3 0.0 **** -0.32
27411 C27411 14.8893 46.9064 35.1783 C.3 0.0 **** -0.053
27412 C27412 15.1337 48.0786 36.1711 C.3 0.0 **** 0.107
27413 C27413 16.207 49.0192 35.65 C.3 0.0 **** -0.106
27414 C27414 15.7453 49.6941 34.3455 C.3 0.0 **** -0.106
27415 O27415 15.5608 47.6073 37.4586 O.3 0.0 **** -0.32
27416 C27416 14.7996 46.4802 37.9245 C.3 0.0 **** 0.107
27417 C27417 15.2241 45.2473 37.1067 C.3 0.0 **** -0.053
27418 C27418 15.6445 45.6743 35.6696 C.3 0.0 **** -0.106
27419 C27419 14.2443 44.1215 37.1415 C.2 0.0 **** 0.0
27420 C27420 12.9815 44.228 37.7023 C.2 0.0 **** 0.0
27421 C27421 12.4712 45.4919 38.1709 C.2 0.0 **** 0.0
27422 C27422 13.2862 46.7467 37.9522 C.3 0.0 **** -0.053
27423 C27423 11.1836 45.617 38.6628 C.2 0.0 **** 0.0
27424 C27424 10.3349 44.4537 38.7679 C.2 0.0 **** 0.0
27425 C27425 10.8756 43.2036 38.339 C.2 0.0 **** 0.232
27426 C27426 12.1279 43.0607 37.8088 C.2 0.0 **** 0.0
27427 C27427 12.6125 41.7159 37.3297 C.3 0.0 **** -0.106
27428 C27428 14.1386 41.6246 37.3566 C.3 0.0 **** -0.106
27429 C27429 14.7393 42.8107 36.5983 C.3 0.0 **** -0.106
27430 O27430 10.101 42.062 38.4171 O.3 0.0 **** -0.464
27431 C27431 8.86491 42.0949 39.0155 C.2 0.0 **** 0.232
27432 C27432 8.263 43.3033 39.4108 C.2 0.0 **** 0.0
27433 C27433 9.01958 44.5212 39.243 C.2 0.0 **** 0.0
27434 C27434 12.8904 47.8554 38.8984 C.2 0.0 **** 0.0
27435 C27435 11.4557 48.0448 39.0963 C.2 0.0 **** 0.0
27436 C27436 10.6338 46.9167 39.0582 C.2 0.0 **** 0.0
27437 C27437 11.0165 49.3784 39.5028 C.2 0.0 **** 0.0
27438 C27438 11.8786 50.1702 40.2049 C.2 0.0 **** 0.0
27439 C27439 13.2966 49.7643 40.441 C.3 0.0 **** -0.106
27440 C27440 13.7637 48.6588 39.5459 C.2 0.0 **** -0.1268
27441 C27441 11.4106 51.5015 40.7228 C.3 0.0 **** -0.106
27442 C27442 9.91352 51.4508 41.0413 C.3 0.0 **** -0.106
27443 C27443 9.15882 50.9333 39.8414 C.2 0.0 **** 0.0
27444 C27444 9.71168 49.9477 39.0952 C.2 0.0 **** 0.0
27445 C27445 9.12209 49.521 37.7708 C.3 0.0 **** -0.106
27446 C27446 7.96692 50.4104 37.2971 C.3 0.0 **** -0.053
27447 C27447 7.05319 50.7309 38.4852 C.3 0.0 **** -0.106
27448 C27448 7.82486 51.5436 39.5247 C.3 0.0 **** -0.106
27449 C27449 8.50896 45.8118 39.6046 C.2 0.0 **** -0.012
27450 C27450 9.28808 46.9405 39.534 C.2 0.0 **** -0.1268
27451 C27451 6.97817 43.2108 40.0043 C.2 0.0 **** 0.0
27452 C27452 6.2672 44.3964 40.4105 C.2 0.0 **** -0.012
27453 S27453 6.84209 46.0256 40.0923 S.2 0.0 **** 0.024
27454 C27454 5.04336 44.3112 41.0237 C.2 0.0 **** -0.1268
27455 C27455 4.4343 43.0552 41.2831 C.2 0.0 **** 0.0
27456 C27456 5.08884 41.8548 40.8686 C.2 0.0 **** 0.0
27457 C27457 6.35233 41.9321 40.2204 C.2 0.0 **** 0.0
27458 C27458 4.45725 40.6054 41.1042 C.2 0.0 **** 0.0
27459 C27459 3.20102 40.5556 41.7828 C.2 0.0 **** 0.0
27460 C27460 2.59528 41.7764 42.2535 C.2 0.0 **** 0.0
27461 C27461 3.21212 42.9989 41.9457 C.2 0.0 **** -0.1268
27462 C27462 1.39686 41.695 43.0229 C.2 0.0 **** 0.0
27463 C27463 0.7612 40.4755 43.1605 C.2 0.0 **** 0.042
27464 C27464 1.26038 39.2561 42.6127 C.2 0.0 **** 0.0
27465 C27465 2.53239 39.3103 41.9768 C.2 0.0 **** 0.0
27466 C27466 7.00377 40.7272 39.7899 C.2 0.0 **** 0.0
27467 C27467 8.27222 40.8632 39.1887 C.2 0.0 **** -0.1268
27468 C27468 5.0896 39.4002 40.6525 C.2 0.0 **** 0.0
27469 C27469 6.35553 39.4489 39.9956 C.2 0.0 **** 0.0
27470 C27470 3.15208 38.1064 41.5028 C.2 0.0 **** 0.0
27471 C27471 4.41972 38.1583 40.8667 C.2 0.0 **** 0.0
27472 C27472 0.555186 38.0014 42.7015 C.2 0.0 **** 0.0
27473 C27473 1.21049 36.8095 42.2701 C.2 0.0 **** 0.0
27474 C27474 2.49968 36.8582 41.6823 C.2 0.0 **** 0.0
27475 O27475 -0.367087 40.4564 43.9518 O.3 0.0 **** -0.202
27476 C27476 -1.39445 41.4323 43.6181 C.3 0.0 **** 0.107
27477 C27477 -0.783263 42.8245 43.3214 C.3 0.0 **** -0.053
27478 C27478 0.678308 42.7997 43.7913 C.3 0.0 **** 0.107
27479 C27479 -1.62255 43.9472 43.9434 C.3 0.0 **** -0.106
27480 C27480 -3.10752 43.6313 43.736 C.3 0.0 **** -0.106
27481 C27481 -3.52504 42.4562 44.6253 C.3 0.0 **** 0.134
27482 C27482 -2.3739 41.4079 44.7903 C.3 0.0 **** -0.053
27483 C27483 -2.96804 40.0015 44.974 C.3 0.0 **** -0.106
27484 C27484 -4.2361 40.0371 45.8254 C.3 0.0 **** -0.106
27485 C27485 -5.32256 40.8978 45.1214 C.3 0.0 **** 0.081
27486 N27486 -4.78356 41.8717 44.1601 N.3 0.0 **** -0.727
27487 C27487 6.92323 38.1968 39.5679 C.2 0.0 **** 0.042
27488 C27488 6.29299 36.9886 39.823 C.2 0.0 **** 0.042
27489 C27489 5.01993 36.9324 40.4471 C.2 0.0 **** 0.0
27490 O27490 6.83688 35.7743 39.473 O.3 0.0 **** -0.202
27491 C27491 8.23862 35.8141 39.128 C.3 0.0 **** 0.107
27492 C27492 8.43947 36.9876 38.1838 C.3 0.0 **** 0.107
27493 O27493 8.12178 38.2027 38.89 O.3 0.0 **** -0.202
27494 C27494 7.60573 36.856 36.8922 C.3 0.0 **** -0.106
27495 C27495 7.31704 35.387 36.5144 C.3 0.0 **** -0.106
27496 C27496 8.471 34.4792 36.9546 C.3 0.0 **** -0.106
27497 C27497 8.61192 34.4739 38.4907 C.3 0.0 **** -0.106
27498 C27498 3.11921 35.6391 41.2503 C.2 0.0 **** 0.0
27499 C27499 4.37568 35.7028 40.6481 C.2 0.0 **** -0.1268
27500 C27500 0.546235 35.5602 42.422 C.2 0.0 **** 0.0
27501 C27501 1.20695 34.3614 42.0108 C.2 0.0 **** 0.042
27502 C27502 2.44869 34.39 41.4389 C.2 0.0 **** -0.1268
27503 C27503 -0.750346 35.488 42.953 C.2 0.0 **** 0.0
27504 C27504 -1.42044 36.6693 43.2968 C.2 0.0 **** 0.0
27505 C27505 -0.76836 37.8819 43.1676 C.2 0.0 **** -0.1268
27506 O27506 0.589513 33.1306 42.1745 O.3 0.0 **** -0.0685
27507 C27507 -0.652353 33.0401 42.7603 C.2 0.0 **** 0.0265
27508 C27508 -1.36174 34.1938 43.1356 C.2 0.0 **** 0.0
27509 C27509 -2.85142 36.6616 43.7651 C.3 0.0 **** -0.053
27510 C27510 -3.34629 35.2848 44.2654 C.3 0.0 **** -0.053
27511 C27511 -2.62418 34.0796 43.724 C.2 0.0 **** 0.0
27512 C27512 -4.85587 35.0996 44.0212 C.3 0.0 **** -0.053
27513 C27513 -5.59195 36.4003 44.3207 C.3 0.0 **** -0.106
27514 C27514 -5.19415 37.4725 43.2757 C.3 0.0 **** -0.106
27515 C27515 -3.79557 37.2164 42.6831 C.3 0.0 **** -0.106
27516 C27516 -3.19556 32.8159 43.9366 C.2 0.0 **** 0.0
27517 C27517 -2.45017 31.646 43.6166 C.2 0.0 **** 0.0
27518 C27518 -1.16329 31.7506 43.0011 C.2 0.0 **** 0.0
27519 C27519 -5.31425 33.8464 44.7154 C.2 0.0 **** 0.0
27520 C27520 -4.4925 32.6975 44.5458 C.2 0.0 **** 0.0
27521 C27521 7.22994 49.7744 36.0997 C.3 0.0 **** -0.053
27522 C27522 6.35871 48.5794 36.508 C.3 0.0 **** -0.159
27523 C27523 6.38879 50.8149 35.3531 C.3 0.0 **** -0.159
27524 O27524 1.19355 44.1293 43.705 O.3 0.0 **** -0.57
27525 C27525 -0.443311 30.5531 42.6823 C.2 0.0 **** -0.1268
27526 C27526 -0.958708 29.3248 42.9905 C.2 0.0 **** -0.1268
27527 C27527 -2.22555 29.1842 43.6483 C.2 0.0 **** 0.0
27528 C27528 -2.97259 30.3669 43.9562 C.2 0.0 **** 0.0
27529 C27529 -4.21863 30.2586 44.6288 C.2 0.0 **** 0.0
27530 C27530 -4.72178 28.9875 44.9931 C.2 0.0 **** 0.0
27531 C27531 -3.97082 27.8097 44.6762 C.2 0.0 **** 0.0
27532 C27532 -2.74125 27.9354 44.0099 C.2 0.0 **** -0.1268
27533 C27533 -4.49506 26.5345 45.0527 C.2 0.0 **** -0.1268
27534 C27534 -5.69388 26.4321 45.7073 C.2 0.0 **** -0.1268
27535 C27535 -6.46093 27.5929 46.0309 C.2 0.0 **** 0.0
27536 C27536 -5.97339 28.8765 45.668 C.2 0.0 **** 0.0
27537 C27537 -6.73776 30.043 45.9742 C.2 0.0 **** 0.0
27538 C27538 -6.23392 31.3199 45.5964 C.2 0.0 **** 0.0
27539 C27539 -4.97978 31.4314 44.9309 C.2 0.0 **** 0.0
27540 C27540 -7.99769 29.9318 46.6338 C.2 0.0 **** 0.0
27541 C27541 -8.44193 28.6313 47.0012 C.2 0.0 **** -0.1268
27542 C27542 -7.69697 27.5076 46.71 C.2 0.0 **** -0.1268
27543 C27543 -6.50432 33.7389 45.3994 C.2 0.0 **** -0.1268
27544 C27544 -6.97751 32.495 45.8935 C.2 0.0 **** 0.0
27545 C27545 -8.74116 31.1374 46.9375 C.2 0.0 **** 0.052
27546 C27546 -8.19961 32.3924 46.6279 C.2 0.0 **** 0.0
27547 C27547 -8.8763 33.6752 47.0569 C.3 0.0 **** -0.106
27548 C27548 -9.77132 33.4723 48.2733 C.3 0.0 **** -0.106
27549 C27549 -10.7759 32.3781 47.9528 C.3 0.0 **** -0.086
27550 C27550 -10.1287 31.0787 47.4901 C.2 0.0 **** 0.347
27551 O27551 -10.8047 30.0498 47.5378 O.2 0.0 **** -0.419
27552 H27552 11.8812 48.033 32.1969 H 0.0 **** 0.053
27553 H27553 12.3421 47.0339 33.6019 H 0.0 **** 0.053
27554 H27554 13.1998 49.8537 32.9297 H 0.0 **** 0.053
27555 H27555 13.1268 49.0384 34.4989 H 0.0 **** 0.053
27556 H27556 15.3013 48.908 32.3674 H 0.0 **** 0.053
27557 H27557 16.4046 47.1189 33.667 H 0.0 **** 0.053
27558 H27558 14.2238 45.4384 33.1947 H 0.0 **** 0.053
27559 H27559 15.3626 45.9984 31.9312 H 0.0 **** 0.053
27560 H27560 13.8138 46.6681 35.1625 H 0.0 **** 0.053
27561 H27561 14.1983 48.6555 36.3054 H 0.0 **** 0.053
27562 H27562 17.1262 48.4357 35.4794 H 0.0 **** 0.053
27563 H27563 16.4409 49.7716 36.4168 H 0.0 **** 0.053
27564 H27564 16.6231 50.1104 33.829 H 0.0 **** 0.053
27565 H27565 15.0897 50.5473 34.5854 H 0.0 **** 0.053
27566 H27566 15.1181 46.3418 38.9682 H 0.0 **** 0.053
27567 H27567 16.149 44.8605 37.5757 H 0.0 **** 0.053
27568 H27568 15.5041 44.8387 34.9681 H 0.0 **** 0.053
27569 H27569 16.7188 45.9172 35.6691 H 0.0 **** 0.053
27570 H27570 12.976 47.0893 36.9442 H 0.0 **** 0.053
27571 H27571 12.158 40.9173 37.9334 H 0.0 **** 0.053
27572 H27572 12.2608 41.5532 36.2933 H 0.0 **** 0.053
27573 H27573 14.473 40.672 36.9181 H 0.0 **** 0.053
27574 H27574 14.4878 41.6518 38.4016 H 0.0 **** 0.053
27575 H27575 14.4763 42.7193 35.5253 H 0.0 **** 0.053
27576 H27576 15.8415 42.7897 36.6396 H 0.0 **** 0.053
27577 H27577 13.4304 49.4657 41.5042 H 0.0 **** 0.053
27578 H27578 13.9498 50.6525 40.3351 H 0.0 **** 0.053
27579 H27579 14.8377 48.5231 39.43 H 0.0 **** 0.1268
27580 H27580 11.9974 51.7854 41.6109 H 0.0 **** 0.053
27581 H27581 11.6006 52.2793 39.9554 H 0.0 **** 0.053
27582 H27582 9.53548 52.4448 41.3271 H 0.0 **** 0.053
27583 H27583 9.74913 50.7815 41.9077 H 0.0 **** 0.053
27584 H27584 9.92921 49.5279 37.0165 H 0.0 **** 0.053
27585 H27585 8.78458 48.4742 37.8128 H 0.0 **** 0.053
27586 H27586 8.39689 51.3682 36.9492 H 0.0 **** 0.053
27587 H27587 6.7142 49.7872 38.9432 H 0.0 **** 0.053
27588 H27588 6.15568 51.2777 38.1578 H 0.0 **** 0.053
27589 H27589 7.24424 51.6361 40.4607 H 0.0 **** 0.053
27590 H27590 7.96691 52.5816 39.1657 H 0.0 **** 0.053
27591 H27591 8.88045 47.8868 39.8887 H 0.0 **** 0.1268
27592 H27592 4.51672 45.2164 41.3345 H 0.0 **** 0.1268
27593 H27593 2.71857 43.9324 42.1977 H 0.0 **** 0.1268
27594 H27594 8.82394 39.9981 38.8514 H 0.0 **** 0.1268
27595 H27595 -1.91185 41.0568 42.7154 H 0.0 **** 0.053
27596 H27596 -0.766687 42.974 42.23 H 0.0 **** 0.053
27597 H27597 0.666637 42.4922 44.8574 H 0.0 **** 0.053
27598 H27598 -1.40196 44.0284 45.0216 H 0.0 **** 0.053
27599 H27599 -1.34092 44.9066 43.4914 H 0.0 **** 0.053
27600 H27600 -3.27591 43.3614 42.6777 H 0.0 **** 0.053
27601 H27601 -3.75385 44.4945 43.9457 H 0.0 **** 0.053
27602 H27602 -3.73445 42.8549 45.6326 H 0.0 **** 0.053
27603 H27603 -1.79688 41.6698 45.6934 H 0.0 **** 0.053
27604 H27604 -3.22216 39.5944 43.9802 H 0.0 **** 0.053
27605 H27605 -2.21396 39.3267 45.4014 H 0.0 **** 0.053
27606 H27606 -3.9943 40.4623 46.8127 H 0.0 **** 0.053
27607 H27607 -4.61385 39.0173 46.0017 H 0.0 **** 0.053
27608 H27608 -5.90801 41.4472 45.878 H 0.0 **** 0.053
27609 H27609 -6.02968 40.2539 44.5777 H 0.0 **** 0.053
27610 H27610 -4.63054 41.4216 43.2568 H 0.0 **** 0.353
27611 H27611 8.80976 35.9937 40.0541 H 0.0 **** 0.053
27612 H27612 9.51021 37.0828 37.9538 H 0.0 **** 0.053
27613 H27613 6.66183 37.4008 37.0387 H 0.0 **** 0.053
27614 H27614 8.14941 37.3638 36.0821 H 0.0 **** 0.053
27615 H27615 7.15312 35.3088 35.4296 H 0.0 **** 0.053
27616 H27616 6.39274 35.0556 37.0103 H 0.0 **** 0.053
27617 H27617 9.40653 34.8427 36.496 H 0.0 **** 0.053
27618 H27618 8.32421 33.4507 36.5936 H 0.0 **** 0.053
27619 H27619 9.64194 34.2172 38.78 H 0.0 **** 0.053
27620 H27620 7.95434 33.7123 38.9372 H 0.0 **** 0.053
27621 H27621 4.86338 34.7851 40.3229 H 0.0 **** 0.1268
27622 H27622 2.92951 33.4642 41.1213 H 0.0 **** 0.1268
27623 H27623 -1.30079 38.7752 43.4538 H 0.0 **** 0.1268
27624 H27624 -2.92356 37.36 44.6128 H 0.0 **** 0.053
27625 H27625 -3.20168 35.2579 45.3639 H 0.0 **** 0.053
27626 H27626 -4.97917 34.8893 42.9396 H 0.0 **** 0.053
27627 H27627 -5.32184 36.7295 45.3386 H 0.0 **** 0.053
27628 H27628 -6.68152 36.255 44.3101 H 0.0 **** 0.053
27629 H27629 -5.21009 38.4637 43.7507 H 0.0 **** 0.053
27630 H27630 -5.93741 37.4954 42.464 H 0.0 **** 0.053
27631 H27631 -3.37315 38.1441 42.2683 H 0.0 **** 0.053
27632 H27632 -3.84357 36.4978 41.8496 H 0.0 **** 0.053
27633 H27633 8.00962 49.4083 35.407 H 0.0 **** 0.053
27634 H27634 5.96003 48.0711 35.6172 H 0.0 **** 0.053
27635 H27635 5.50089 48.9158 37.1105 H 0.0 **** 0.053
27636 H27636 6.91322 47.8372 37.1021 H 0.0 **** 0.053
27637 H27637 7.00856 51.6633 35.0226 H 0.0 **** 0.053
27638 H27638 5.59129 51.2105 36.002 H 0.0 **** 0.053
27639 H27639 5.90707 50.3734 34.4674 H 0.0 **** 0.053
27640 H27640 2.05596 44.134 44.1482 H 0.0 **** 0.41
27641 H27641 0.528558 30.6413 42.197 H 0.0 **** 0.1268
27642 H27642 -0.401326 28.4183 42.7482 H 0.0 **** 0.1268
27643 H27643 -2.16996 27.0344 43.7759 H 0.0 **** 0.1268
27644 H27644 -3.91505 25.6428 44.8079 H 0.0 **** 0.1268
27645 H27645 -6.08578 25.4557 45.9988 H 0.0 **** 0.1268
27646 H27646 -9.39474 28.535 47.5105 H 0.0 **** 0.1268
27647 H27647 -8.06419 26.5236 47.0094 H 0.0 **** 0.1268
27648 H27648 -7.11539 34.6289 45.5237 H 0.0 **** 0.1268
27649 H27649 -8.10901 34.4292 47.282 H 0.0 **** 0.053
27650 H27650 -9.47615 34.0802 46.2199 H 0.0 **** 0.053
27651 H27651 -10.2768 34.4119 48.5435 H 0.0 **** 0.053
27652 H27652 -9.14928 33.1713 49.1321 H 0.0 **** 0.053
27653 H27653 -11.4329 32.7083 47.1269 H 0.0 **** 0.053
27654 H27654 -11.4345 32.127 48.7963 H 0.0 **** 0.053
27655 C27655 42.4462 2.26114 7.41869 C.3 0.0 **** 0.054
27656 C27656 41.3418 1.17875 7.45178 C.3 0.0 **** -0.106
27657 C27657 40.8462 0.862887 6.02545 C.3 0.0 **** -0.053
27658 C27658 40.7307 2.1756 5.23364 C.3 0.0 **** -0.053
27659 C27659 42.1246 2.85095 5.15629 C.3 0.0 **** 0.054
27660 O27660 43.0525 2.34662 6.12451 O.3 0.0 **** -0.32
27661 C27661 39.6674 3.10744 5.85245 C.3 0.0 **** -0.053
27662 C27662 38.4341 2.32585 6.38879 C.3 0.0 **** 0.107
27663 C27663 38.2975 0.981097 5.69516 C.3 0.0 **** -0.106
27664 C27664 39.5063 0.0834595 6.01668 C.3 0.0 **** -0.106
27665 O27665 37.211 3.04761 6.17583 O.3 0.0 **** -0.32
27666 C27666 37.3177 4.44269 6.50641 C.3 0.0 **** 0.107
27667 C27667 38.1517 5.12989 5.41037 C.3 0.0 **** -0.053
27668 C27668 39.1964 4.1341 4.826 C.3 0.0 **** -0.106
27669 C27669 38.7296 6.4458 5.81419 C.2 0.0 **** 0.0
27670 C27670 38.6827 6.93242 7.1109 C.2 0.0 **** 0.0
27671 C27671 38.1894 6.12625 8.19903 C.2 0.0 **** 0.0
27672 C27672 37.8127 4.68459 7.94115 C.3 0.0 **** -0.053
27673 C27673 38.21 6.58069 9.50609 C.2 0.0 **** 0.0
27674 C27674 38.6826 7.91307 9.7996 C.2 0.0 **** 0.0
27675 C27675 39.1257 8.71105 8.70141 C.2 0.0 **** 0.232
27676 C27676 39.1567 8.27036 7.40739 C.2 0.0 **** 0.0
27677 C27677 39.6862 9.1529 6.30575 C.3 0.0 **** -0.106
27678 C27678 39.1004 8.76986 4.94626 C.3 0.0 **** -0.106
27679 C27679 39.3057 7.27332 4.69983 C.3 0.0 **** -0.106
27680 O27680 39.5898 9.99195 8.93189 O.3 0.0 **** -0.464
27681 C27681 39.5143 10.5485 10.1856 C.2 0.0 **** 0.232
27682 C27682 39.1335 9.79515 11.3109 C.2 0.0 **** 0.0
27683 C27683 38.741 8.42161 11.1028 C.2 0.0 **** 0.0
27684 C27684 36.8783 4.14219 8.99663 C.2 0.0 **** 0.0
27685 C27685 37.2062 4.48575 10.3779 C.2 0.0 **** 0.0
27686 C27686 37.7901 5.73009 10.6233 C.2 0.0 **** 0.0
27687 C27687 36.7271 3.57456 11.4155 C.2 0.0 **** 0.0
27688 C27688 35.6005 2.84113 11.1791 C.2 0.0 **** 0.0
27689 C27689 34.9335 2.84187 9.84258 C.3 0.0 **** -0.106
27690 C27690 35.7942 3.37652 8.74024 C.2 0.0 **** -0.1268
27691 C27691 35.0327 1.97853 12.2714 C.3 0.0 **** -0.106
27692 C27692 35.326 2.59553 13.642 C.3 0.0 **** -0.106
27693 C27693 36.8025 2.88356 13.7608 C.2 0.0 **** 0.0
27694 C27694 37.4712 3.33547 12.6734 C.2 0.0 **** 0.0
27695 C27695 38.978 3.44956 12.6514 C.3 0.0 **** -0.106
27696 C27696 39.6574 2.85737 13.8914 C.3 0.0 **** -0.053
27697 C27697 38.8677 3.25778 15.1425 C.3 0.0 **** -0.106
27698 C27698 37.4672 2.64791 15.0855 C.3 0.0 **** -0.106
27699 C27699 38.3386 7.55553 12.1729 C.2 0.0 **** -0.012
27700 C27700 37.8687 6.28721 11.9353 C.2 0.0 **** -0.1268
27701 C27701 39.1073 10.4765 12.5545 C.2 0.0 **** 0.0
27702 C27702 38.763 9.78086 13.7686 C.2 0.0 **** -0.012
27703 S27703 38.4888 8.04744 13.8455 S.2 0.0 **** 0.024
27704 C27704 38.6944 10.4435 14.9674 C.2 0.0 **** -0.1268
27705 C27705 38.9563 11.836 15.0564 C.2 0.0 **** 0.0
27706 C27706 39.3326 12.5595 13.8833 C.2 0.0 **** 0.0
27707 C27707 39.4194 11.8797 12.6371 C.2 0.0 **** 0.0
27708 C27708 39.6231 13.9451 13.9882 C.2 0.0 **** 0.0
27709 C27709 39.5004 14.6085 15.2475 C.2 0.0 **** 0.0
27710 C27710 39.0506 13.8708 16.4018 C.2 0.0 **** 0.0
27711 C27711 38.8364 12.4892 16.2792 C.2 0.0 **** -0.1268
27712 C27712 38.8308 14.575 17.6227 C.2 0.0 **** 0.0
27713 C27713 39.2048 15.9021 17.7166 C.2 0.0 **** 0.042
27714 C27714 39.7643 16.6456 16.6347 C.2 0.0 **** 0.0
27715 C27715 39.8416 15.9879 15.375 C.2 0.0 **** 0.0
27716 C27716 39.8123 12.6027 11.4605 C.2 0.0 **** 0.0
27717 C27717 39.8425 11.8852 10.2468 C.2 0.0 **** -0.1268
27718 C27718 40.0424 14.6671 12.8222 C.2 0.0 **** 0.0
27719 C27719 40.1421 14.0091 11.5599 C.2 0.0 **** 0.0
27720 C27720 40.2855 16.7051 14.2146 C.2 0.0 **** 0.0
27721 C27721 40.3652 16.0507 12.9577 C.2 0.0 **** 0.0
27722 C27722 40.2162 18.0091 16.7614 C.2 0.0 **** 0.0
27723 C27723 40.6057 18.719 15.5865 C.2 0.0 **** 0.0
27724 C27724 40.6342 18.0771 14.3227 C.2 0.0 **** 0.0
27725 O27725 38.9255 16.5366 18.9078 O.3 0.0 **** -0.202
27726 C27726 39.412 15.8753 20.1099 C.3 0.0 **** 0.107
27727 C27727 39.1543 14.3484 20.0644 C.3 0.0 **** -0.053
27728 C27728 38.1802 14.0761 18.9092 C.3 0.0 **** 0.107
27729 C27729 38.6777 13.8215 21.4234 C.3 0.0 **** -0.106
27730 C27730 39.4959 14.4925 22.5317 C.3 0.0 **** -0.106
27731 C27731 39.1006 15.9669 22.6588 C.3 0.0 **** 0.134
27732 C27732 38.7342 16.5971 21.2732 C.3 0.0 **** -0.053
27733 C27733 39.0901 18.0931 21.2673 C.3 0.0 **** -0.106
27734 C27734 38.7983 18.7427 22.619 C.3 0.0 **** -0.106
27735 C27735 39.665 18.0768 23.7245 C.3 0.0 **** 0.081
27736 N27736 40.1212 16.7191 23.3898 N.3 0.0 **** -0.727
27737 C27737 40.5743 14.8009 10.4377 C.2 0.0 **** 0.042
27738 C27738 40.838 16.1561 10.5635 C.2 0.0 **** 0.042
27739 C27739 40.7722 16.8119 11.8201 C.2 0.0 **** 0.0
27740 O27740 41.2013 16.948 9.49873 O.3 0.0 **** -0.202
27741 C27741 40.9703 16.3613 8.19951 C.3 0.0 **** 0.107
27742 C27742 41.4978 14.937 8.24557 C.3 0.0 **** 0.107
27743 O27743 40.7274 14.1948 9.21087 O.3 0.0 **** -0.202
27744 C27744 43.0059 14.8757 8.56571 C.3 0.0 **** -0.106
27745 C27745 43.7645 16.1427 8.11478 C.3 0.0 **** -0.106
27746 C27746 43.1195 16.7403 6.85925 C.3 0.0 **** -0.106
27747 C27747 41.6836 17.2208 7.15362 C.3 0.0 **** -0.106
27748 C27748 41.0436 18.8221 13.1677 C.2 0.0 **** 0.0
27749 C27749 41.0945 18.1722 11.9346 C.2 0.0 **** -0.1268
27750 C27750 40.9839 20.0864 15.697 C.2 0.0 **** 0.0
27751 C27751 41.3546 20.8076 14.52 C.2 0.0 **** 0.042
27752 C27752 41.3912 20.2036 13.2937 C.2 0.0 **** -0.1268
27753 C27753 41.0142 20.7322 16.9421 C.2 0.0 **** 0.0
27754 C27754 40.7115 20.0066 18.1017 C.2 0.0 **** 0.0
27755 C27755 40.3251 18.6833 17.993 C.2 0.0 **** -0.1268
27756 O27756 41.7006 22.148 14.6005 O.3 0.0 **** -0.0685
27757 C27757 41.6646 22.8116 15.8054 C.2 0.0 **** 0.0265
27758 C27758 41.3542 22.1335 16.9966 C.2 0.0 **** 0.0
27759 C27759 40.8359 20.6156 19.4731 C.3 0.0 **** -0.053
27760 C27760 40.8627 22.1616 19.4791 C.3 0.0 **** -0.053
27761 C27761 41.3286 22.8254 18.2105 C.2 0.0 **** 0.0
27762 C27762 41.6959 22.7117 20.6521 C.3 0.0 **** -0.053
27763 C27763 41.4331 21.8855 21.9058 C.3 0.0 **** -0.106
27764 C27764 41.9977 20.4561 21.7114 C.3 0.0 **** -0.106
27765 C27765 42.0531 20.0496 20.2266 C.3 0.0 **** -0.106
27766 C27766 41.6199 24.1973 18.2508 C.2 0.0 **** 0.0
27767 C27767 41.8702 24.8974 17.0367 C.2 0.0 **** 0.0
27768 C27768 41.9129 24.1972 15.7902 C.2 0.0 **** 0.0
27769 C27769 41.5083 24.2021 20.7296 C.2 0.0 **** 0.0
27770 C27770 41.5897 24.9108 19.4987 C.2 0.0 **** 0.0
27771 C27771 41.1497 3.246 13.9472 C.3 0.0 **** -0.053
27772 C27772 41.3645 4.71607 14.3301 C.3 0.0 **** -0.159
27773 C27773 41.9237 2.32989 14.9007 C.3 0.0 **** -0.159
27774 O27774 37.7826 12.7058 18.9792 O.3 0.0 **** -0.57
27775 C27775 42.1775 24.9302 14.5874 C.2 0.0 **** -0.1268
27776 C27776 42.354 26.2855 14.6194 C.2 0.0 **** -0.1268
27777 C27777 42.2732 27.0258 15.8453 C.2 0.0 **** 0.0
27778 C27778 42.0318 26.3107 17.0627 C.2 0.0 **** 0.0
27779 C27779 41.9229 27.0209 18.2877 C.2 0.0 **** 0.0
27780 C27780 42.0532 28.4295 18.307 C.2 0.0 **** 0.0
27781 C27781 42.3002 29.1359 17.0857 C.2 0.0 **** 0.0
27782 C27782 42.406 28.4176 15.8838 C.2 0.0 **** -0.1268
27783 C27783 42.4284 30.5589 17.1249 C.2 0.0 **** -0.1268
27784 C27784 42.3164 31.243 18.3063 C.2 0.0 **** -0.1268
27785 C27785 42.0731 30.559 19.5365 C.2 0.0 **** 0.0
27786 C27786 41.9448 29.1445 19.5364 C.2 0.0 **** 0.0
27787 C27787 41.715 28.4486 20.7618 C.2 0.0 **** 0.0
27788 C27788 41.5954 27.0301 20.7406 C.2 0.0 **** 0.0
27789 C27789 41.6941 26.317 19.5118 C.2 0.0 **** 0.0
27790 C27790 41.6237 29.1612 21.9942 C.2 0.0 **** 0.0
27791 C27791 41.735 30.5787 21.9509 C.2 0.0 **** -0.1268
27792 C27792 41.9497 31.2477 20.7639 C.2 0.0 **** -0.1268
27793 C27793 41.3677 24.898 21.9093 C.2 0.0 **** -0.1268
27794 C27794 41.364 26.317 21.949 C.2 0.0 **** 0.0
27795 C27795 41.3799 28.4233 23.2166 C.2 0.0 **** 0.052
27796 C27796 41.1891 27.0356 23.1723 C.2 0.0 **** 0.0
27797 C27797 40.7909 26.2507 24.4023 C.3 0.0 **** -0.106
27798 C27798 40.0785 27.1199 25.4313 C.3 0.0 **** -0.106
27799 C27799 40.9792 28.2953 25.7727 C.3 0.0 **** -0.086
27800 C27800 41.4226 29.0927 24.5524 C.2 0.0 **** 0.347
27801 O27801 41.8529 30.2326 24.7346 O.2 0.0 **** -0.419
27802 H27802 43.2605 2.03096 8.11912 H 0.0 **** 0.053
27803 H27803 42.0296 3.25093 7.69337 H 0.0 **** 0.053
27804 H27804 41.7165 0.25218 7.91304 H 0.0 **** 0.053
27805 H27805 40.5022 1.52995 8.07238 H 0.0 **** 0.053
27806 H27806 41.6218 0.250562 5.54286 H 0.0 **** 0.053
27807 H27807 40.4074 1.93763 4.20644 H 0.0 **** 0.053
27808 H27808 42.0154 3.94733 5.29189 H 0.0 **** 0.053
27809 H27809 42.6024 2.66932 4.18336 H 0.0 **** 0.053
27810 H27810 40.1409 3.64735 6.68799 H 0.0 **** 0.053
27811 H27811 38.548 2.14886 7.47579 H 0.0 **** 0.053
27812 H27812 38.224 1.15678 4.60977 H 0.0 **** 0.053
27813 H27813 37.3599 0.499352 6.00763 H 0.0 **** 0.053
27814 H27814 39.5501 -0.733373 5.28076 H 0.0 **** 0.053
27815 H27815 39.3605 -0.390159 7.00149 H 0.0 **** 0.053
27816 H27816 36.2857 4.81984 6.45727 H 0.0 **** 0.053
27817 H27817 37.4585 5.34541 4.57474 H 0.0 **** 0.053
27818 H27818 40.0571 4.68291 4.41591 H 0.0 **** 0.053
27819 H27819 38.737 3.58502 3.98897 H 0.0 **** 0.053
27820 H27820 38.7667 4.13547 8.07608 H 0.0 **** 0.053
27821 H27821 39.4831 10.2076 6.54077 H 0.0 **** 0.053
27822 H27822 40.7876 9.05601 6.26294 H 0.0 **** 0.053
27823 H27823 39.5682 9.36428 4.14664 H 0.0 **** 0.053
27824 H27824 38.0207 8.99087 4.93842 H 0.0 **** 0.053
27825 H27825 40.3913 7.07316 4.59883 H 0.0 **** 0.053
27826 H27826 38.8536 6.96414 3.74227 H 0.0 **** 0.053
27827 H27827 33.9878 3.42525 9.89439 H 0.0 **** 0.053
27828 H27828 34.5938 1.81434 9.60693 H 0.0 **** 0.053
27829 H27829 35.5184 3.12484 7.71753 H 0.0 **** 0.1268
27830 H27830 33.9499 1.84465 12.1184 H 0.0 **** 0.053
27831 H27831 35.4881 0.968971 12.2137 H 0.0 **** 0.053
27832 H27832 35.0038 1.92623 14.4549 H 0.0 **** 0.053
27833 H27833 34.7489 3.53425 13.7486 H 0.0 **** 0.053
27834 H27834 39.3487 2.93802 11.7452 H 0.0 **** 0.053
27835 H27835 39.2884 4.49853 12.5299 H 0.0 **** 0.053
27836 H27836 39.606 1.75531 13.8126 H 0.0 **** 0.053
27837 H27837 38.7824 4.35619 15.1779 H 0.0 **** 0.053
27838 H27838 39.3892 2.93948 16.0582 H 0.0 **** 0.053
27839 H27839 36.8257 3.06235 15.8846 H 0.0 **** 0.053
27840 H27840 37.5185 1.56012 15.2873 H 0.0 **** 0.053
27841 H27841 37.5056 5.69276 12.7734 H 0.0 **** 0.1268
27842 H27842 38.4247 9.90765 15.8804 H 0.0 **** 0.1268
27843 H27843 38.6012 11.8981 17.1588 H 0.0 **** 0.1268
27844 H27844 40.118 12.3687 9.32107 H 0.0 **** 0.1268
27845 H27845 40.5007 16.0641 20.1611 H 0.0 **** 0.053
27846 H27846 40.0995 13.8413 19.8131 H 0.0 **** 0.053
27847 H27847 37.289 14.7135 19.0849 H 0.0 **** 0.053
27848 H27848 37.6057 14.0456 21.5587 H 0.0 **** 0.053
27849 H27849 38.7761 12.7288 21.4461 H 0.0 **** 0.053
27850 H27850 40.5698 14.4266 22.2794 H 0.0 **** 0.053
27851 H27851 39.3717 13.9969 23.5042 H 0.0 **** 0.053
27852 H27852 38.1893 16.0182 23.2789 H 0.0 **** 0.053
27853 H27853 37.6463 16.4909 21.1239 H 0.0 **** 0.053
27854 H27854 40.1673 18.1975 21.0513 H 0.0 **** 0.053
27855 H27855 38.56 18.6034 20.4516 H 0.0 **** 0.053
27856 H27856 37.7279 18.6237 22.8513 H 0.0 **** 0.053
27857 H27857 38.9975 19.8255 22.5801 H 0.0 **** 0.053
27858 H27858 39.091 18.026 24.6652 H 0.0 **** 0.053
27859 H27859 40.559 18.6843 23.9294 H 0.0 **** 0.053
27860 H27860 40.971 16.7661 22.8263 H 0.0 **** 0.353
27861 H27861 39.8812 16.3378 8.02801 H 0.0 **** 0.053
27862 H27862 41.2775 14.4426 7.28879 H 0.0 **** 0.053
27863 H27863 43.1187 14.7338 9.65034 H 0.0 **** 0.053
27864 H27864 43.422 13.9819 8.07809 H 0.0 **** 0.053
27865 H27865 44.8203 15.8961 7.92958 H 0.0 **** 0.053
27866 H27866 43.7391 16.8914 8.92025 H 0.0 **** 0.053
27867 H27867 43.1003 15.9721 6.06725 H 0.0 **** 0.053
27868 H27868 43.7166 17.5776 6.46896 H 0.0 **** 0.053
27869 H27869 41.0851 17.2273 6.23042 H 0.0 **** 0.053
27870 H27870 41.6917 18.2524 7.53763 H 0.0 **** 0.053
27871 H27871 41.3945 18.7263 11.0466 H 0.0 **** 0.1268
27872 H27872 41.6887 20.7697 12.4104 H 0.0 **** 0.1268
27873 H27873 40.0823 18.1516 18.8994 H 0.0 **** 0.1268
27874 H27874 39.9532 20.3042 20.0522 H 0.0 **** 0.053
27875 H27875 39.824 22.5121 19.642 H 0.0 **** 0.053
27876 H27876 42.7611 22.571 20.3785 H 0.0 **** 0.053
27877 H27877 40.3445 21.8535 22.0826 H 0.0 **** 0.053
27878 H27878 41.8878 22.3489 22.7929 H 0.0 **** 0.053
27879 H27879 41.3679 19.741 22.2593 H 0.0 **** 0.053
27880 H27880 43.0068 20.3917 22.1467 H 0.0 **** 0.053
27881 H27881 42.0711 18.954 20.1239 H 0.0 **** 0.053
27882 H27882 42.973 20.421 19.7478 H 0.0 **** 0.053
27883 H27883 41.5538 3.09524 12.9294 H 0.0 **** 0.053
27884 H27884 42.4252 4.99004 14.2269 H 0.0 **** 0.053
27885 H27885 41.0776 4.88694 15.3792 H 0.0 **** 0.053
27886 H27886 40.7743 5.40451 13.7064 H 0.0 **** 0.053
27887 H27887 41.8074 1.27207 14.6166 H 0.0 **** 0.053
27888 H27888 41.5596 2.4451 15.9341 H 0.0 **** 0.053
27889 H27889 42.9974 2.57202 14.8985 H 0.0 **** 0.053
27890 H27890 37.0543 12.584 18.3507 H 0.0 **** 0.41
27891 H27891 42.2263 24.3862 13.6442 H 0.0 **** 0.1268
27892 H27892 42.5505 26.8362 13.6978 H 0.0 **** 0.1268
27893 H27893 42.5886 28.9619 14.9547 H 0.0 **** 0.1268
27894 H27894 42.6154 31.0885 16.189 H 0.0 **** 0.1268
27895 H27895 42.4081 32.3306 18.329 H 0.0 **** 0.1268
27896 H27896 41.659 31.1321 22.8807 H 0.0 **** 0.1268
27897 H27897 42.0264 32.3371 20.7642 H 0.0 **** 0.1268
27898 H27898 41.3014 24.3388 22.8387 H 0.0 **** 0.1268
27899 H27899 40.1379 25.4189 24.1029 H 0.0 **** 0.053
27900 H27900 41.6879 25.7939 24.8617 H 0.0 **** 0.053
27901 H27901 39.8302 26.5332 26.3288 H 0.0 **** 0.053
27902 H27902 39.1316 27.485 25.001 H 0.0 **** 0.053
27903 H27903 41.9037 27.9263 26.2543 H 0.0 **** 0.053
27904 H27904 40.5229 29.0079 26.4743 H 0.0 **** 0.053
27905 C27905 46.7868 53.4423 62.0385 C.3 0.0 **** 0.054
27906 C27906 48.0158 52.6061 61.6112 C.3 0.0 **** -0.106
27907 C27907 47.8533 51.1361 62.0497 C.3 0.0 **** -0.053
27908 C27908 47.2454 51.0993 63.4613 C.3 0.0 **** -0.053
27909 C27909 45.8551 51.786 63.4379 C.3 0.0 **** 0.054
27910 O27910 45.6492 52.6081 62.2826 O.3 0.0 **** -0.32
27911 C27911 48.1945 51.7443 64.4933 C.3 0.0 **** -0.053
27912 C27912 49.6896 51.4287 64.2021 C.3 0.0 **** 0.107
27913 C27913 49.8281 50.1597 63.3784 C.3 0.0 **** -0.106
27914 C27914 49.1845 50.3439 61.992 C.3 0.0 **** -0.106
27915 O27915 50.441 51.2425 65.4116 O.3 0.0 **** -0.32
27916 C27916 50.1459 52.2305 66.4134 C.3 0.0 **** 0.107
27917 C27917 48.753 51.9223 66.9912 C.3 0.0 **** -0.053
27918 C27918 47.8521 51.2684 65.9025 C.3 0.0 **** -0.106
27919 C27919 48.1132 53.0726 67.6956 C.2 0.0 **** 0.0
27920 C27920 48.6311 54.3579 67.6811 C.2 0.0 **** 0.0
27921 C27921 49.7624 54.7033 66.8576 C.2 0.0 **** 0.0
27922 C27922 50.3319 53.6709 65.9108 C.3 0.0 **** -0.053
27923 C27923 50.2362 56.0015 66.7832 C.2 0.0 **** 0.0
27924 C27924 49.6301 57.0381 67.585 C.2 0.0 **** 0.0
27925 C27925 48.5387 56.6654 68.4271 C.2 0.0 **** 0.232
27926 C27926 48.0237 55.4001 68.4859 C.2 0.0 **** 0.0
27927 C27927 46.8359 55.0919 69.3616 C.3 0.0 **** -0.106
27928 C27928 46.7981 53.6165 69.7612 C.3 0.0 **** -0.106
27929 C27929 46.8941 52.741 68.5094 C.3 0.0 **** -0.106
27930 O27930 47.9236 57.6226 69.2111 O.3 0.0 **** -0.464
27931 C27931 48.4279 58.8985 69.282 C.2 0.0 **** 0.232
27932 C27932 49.4675 59.3341 68.4404 C.2 0.0 **** 0.0
27933 C27933 50.0562 58.3711 67.5404 C.2 0.0 **** 0.0
27934 C27934 51.7539 53.987 65.5113 C.2 0.0 **** 0.0
27935 C27935 52.0304 55.3835 65.1847 C.2 0.0 **** 0.0
27936 C27936 51.3302 56.3709 65.8807 C.2 0.0 **** 0.0
27937 C27937 53.1531 55.6404 64.2847 C.2 0.0 **** 0.0
27938 C27938 54.1859 54.7487 64.2489 C.2 0.0 **** 0.0
27939 C27939 54.1289 53.4563 64.9956 C.3 0.0 **** -0.106
27940 C27940 52.7497 53.0759 65.4369 C.2 0.0 **** -0.1268
27941 C27941 55.3968 55.0474 63.4098 C.3 0.0 **** -0.106
27942 C27942 55.6274 56.5593 63.3294 C.3 0.0 **** -0.106
27943 C27943 54.3579 57.2409 62.8809 C.2 0.0 **** 0.0
27944 C27944 53.1695 56.7744 63.3325 C.2 0.0 **** 0.0
27945 C27945 51.8536 57.2645 62.7738 C.3 0.0 **** -0.106
27946 C27946 52.0072 58.191 61.5623 C.3 0.0 **** -0.053
27947 C27947 53.1552 59.1739 61.8174 C.3 0.0 **** -0.106
27948 C27948 54.4718 58.4075 61.9438 C.3 0.0 **** -0.106
27949 C27949 51.1174 58.6996 66.6332 C.2 0.0 **** -0.012
27950 C27950 51.7308 57.741 65.8646 C.2 0.0 **** -0.1268
27951 C27951 49.8932 60.6779 68.597 C.2 0.0 **** 0.0
27952 C27952 50.9284 61.2253 67.7573 C.2 0.0 **** -0.012
27953 S27953 51.6419 60.3539 66.4092 S.2 0.0 **** 0.024
27954 C27954 51.374 62.5106 67.9321 C.2 0.0 **** -0.1268
27955 C27955 50.8357 63.3464 68.9457 C.2 0.0 **** 0.0
27956 C27956 49.7852 62.8556 69.7805 C.2 0.0 **** 0.0
27957 C27957 49.3067 61.5287 69.5996 C.2 0.0 **** 0.0
27958 C27958 49.2319 63.7096 70.7705 C.2 0.0 **** 0.0
27959 C27959 49.7513 65.0285 70.949 C.2 0.0 **** 0.0
27960 C27960 50.8588 65.4747 70.141 C.2 0.0 **** 0.0
27961 C27961 51.3383 64.6311 69.1269 C.2 0.0 **** -0.1268
27962 C27962 51.4321 66.7531 70.4091 C.2 0.0 **** 0.0
27963 C27963 50.8179 67.5943 71.3175 C.2 0.0 **** 0.042
27964 C27964 49.6495 67.243 72.0577 C.2 0.0 **** 0.0
27965 C27965 49.167 65.913 71.9038 C.2 0.0 **** 0.0
27966 C27966 48.2407 61.0399 70.428 C.2 0.0 **** 0.0
27967 C27967 47.8348 59.7039 70.2295 C.2 0.0 **** -0.1268
27968 C27968 48.1488 63.2369 71.5829 C.2 0.0 **** 0.0
27969 C27969 47.6461 61.9113 71.4198 C.2 0.0 **** 0.0
27970 C27970 48.0669 65.4499 72.6996 C.2 0.0 **** 0.0
27971 C27971 47.5827 64.1245 72.5466 C.2 0.0 **** 0.0
27972 C27972 48.9753 68.1523 72.951 C.2 0.0 **** 0.0
27973 C27973 47.9164 67.6574 73.7694 C.2 0.0 **** 0.0
27974 C27974 47.4692 66.3173 73.6515 C.2 0.0 **** 0.0
27975 O27975 51.4456 68.7963 71.5639 O.3 0.0 **** -0.202
27976 C27976 51.7627 69.6 70.3923 C.3 0.0 **** 0.107
27977 C27977 52.3522 68.7351 69.2502 C.3 0.0 **** -0.053
27978 C27978 52.7099 67.3646 69.8431 C.3 0.0 **** 0.107
27979 C27979 53.5235 69.4443 68.5599 C.3 0.0 **** -0.106
27980 C27980 53.1736 70.9256 68.3833 C.3 0.0 **** -0.106
27981 C27981 53.1887 71.6356 69.7404 C.3 0.0 **** 0.134
27982 C27982 52.6926 70.7027 70.8956 C.3 0.0 **** -0.053
27983 C27983 52.0039 71.5398 71.9863 C.3 0.0 **** -0.106
27984 C27984 52.713 72.8767 72.1962 C.3 0.0 **** -0.106
27985 C27985 52.6642 73.7132 70.8868 C.3 0.0 **** 0.081
27986 N27986 52.471 72.9092 69.6705 N.3 0.0 **** -0.727
27987 C27987 46.5545 61.5126 72.2698 C.2 0.0 **** 0.042
27988 C27988 46.0414 62.3607 73.2391 C.2 0.0 **** 0.042
27989 C27989 46.5132 63.6906 73.3873 C.2 0.0 **** 0.0
27990 O27990 45.0348 61.9883 74.0999 O.3 0.0 **** -0.202
27991 C27991 44.7768 60.5684 74.1538 C.3 0.0 **** 0.107
27992 C27992 44.7174 60.0643 72.7216 C.3 0.0 **** 0.107
27993 O27993 46.0098 60.2576 72.1144 O.3 0.0 **** -0.202
27994 C27994 43.6046 60.7482 71.9002 C.3 0.0 **** -0.106
27995 C27995 42.4267 61.2297 72.7746 C.3 0.0 **** -0.106
27996 C27996 42.2353 60.3035 73.9808 C.3 0.0 **** -0.106
27997 C27997 43.4651 60.3497 74.9108 C.3 0.0 **** -0.106
27998 C27998 46.3936 65.8619 74.4837 C.2 0.0 **** 0.0
27999 C27999 45.9439 64.5495 74.3389 C.2 0.0 **** -0.1268
28000 C28000 47.296 68.5333 74.7038 C.2 0.0 **** 0.0
28001 C28001 46.2491 68.0367 75.5405 C.2 0.0 **** 0.042
28002 C28002 45.8028 66.7482 75.438 C.2 0.0 **** -0.1268
28003 C28003 47.6836 69.8778 74.8054 C.2 0.0 **** 0.0
28004 C28004 48.666 70.3785 73.9411 C.2 0.0 **** 0.0
28005 C28005 49.2828 69.5233 73.0464 C.2 0.0 **** -0.1268
28006 O28006 45.649 68.8651 76.4768 O.3 0.0 **** -0.0685
28007 C28007 46.0696 70.1656 76.6359 C.2 0.0 **** 0.0265
28008 C28008 47.0609 70.7131 75.8037 C.2 0.0 **** 0.0
28009 C28009 49.0421 71.8364 73.928 C.3 0.0 **** -0.053
28010 C28010 48.6249 72.6092 75.2006 C.3 0.0 **** -0.053
28011 C28011 47.4695 72.038 75.9788 C.2 0.0 **** 0.0
28012 C28012 48.3234 74.0885 74.8948 C.3 0.0 **** -0.053
28013 C28013 49.3417 74.6286 73.8973 C.3 0.0 **** -0.106
28014 C28014 49.1403 73.9365 72.5261 C.3 0.0 **** -0.106
28015 C28015 48.5071 72.5393 72.6672 C.3 0.0 **** -0.106
28016 C28016 46.8889 72.8326 76.9789 C.2 0.0 **** 0.0
28017 C28017 45.9322 72.2592 77.8636 C.2 0.0 **** 0.0
28018 C28018 45.496 70.9087 77.6851 C.2 0.0 **** 0.0
28019 C28019 48.1354 74.8282 76.1909 C.2 0.0 **** 0.0
28020 C28020 47.3117 74.1945 77.1625 C.2 0.0 **** 0.0
28021 C28021 50.6691 58.8752 61.2119 C.3 0.0 **** -0.053
28022 C28022 50.2875 59.9753 62.211 C.3 0.0 **** -0.159
28023 C28023 50.6925 59.4366 59.7865 C.3 0.0 **** -0.159
28024 O28024 53.4313 66.629 68.8535 O.3 0.0 **** -0.57
28025 C28025 44.524 70.3649 78.587 C.2 0.0 **** -0.1268
28026 C28026 44.0411 71.1102 79.6265 C.2 0.0 **** -0.1268
28027 C28027 44.4896 72.4521 79.8619 C.2 0.0 **** 0.0
28028 C28028 45.4443 73.0236 78.9599 C.2 0.0 **** 0.0
28029 C28029 45.9239 74.3415 79.1829 C.2 0.0 **** 0.0
28030 C28030 45.4605 75.0887 80.2914 C.2 0.0 **** 0.0
28031 C28031 44.5015 74.5114 81.1851 C.2 0.0 **** 0.0
28032 C28032 44.0374 73.2075 80.9487 C.2 0.0 **** -0.1268
28033 C28033 44.0455 75.2814 82.2996 C.2 0.0 **** -0.1268
28034 C28034 44.5142 76.55 82.5171 C.2 0.0 **** -0.1268
28035 C28035 45.4684 77.1465 81.6374 C.2 0.0 **** 0.0
28036 C28036 45.9405 76.4127 80.5167 C.2 0.0 **** 0.0
28037 C28037 46.8841 77.0037 79.6228 C.2 0.0 **** 0.0
28038 C28038 47.3401 76.2533 78.5022 C.2 0.0 **** 0.0
28039 C28039 46.868 74.9277 78.2823 C.2 0.0 **** 0.0
28040 C28040 47.3516 78.3341 79.8377 C.2 0.0 **** 0.0
28041 C28041 46.8729 79.0289 80.983 C.2 0.0 **** -0.1268
28042 C28042 45.9669 78.4516 81.8482 C.2 0.0 **** -0.1268
28043 C28043 48.6246 76.0926 76.4314 C.2 0.0 **** -0.1268
28044 C28044 48.2815 76.8214 77.6004 C.2 0.0 **** 0.0
28045 C28045 48.3165 78.8978 78.9159 C.2 0.0 **** 0.052
28046 C28046 48.8141 78.1223 77.86 C.2 0.0 **** 0.0
28047 C28047 49.9254 78.6227 76.9643 C.3 0.0 **** -0.106
28048 C28048 50.7841 79.6776 77.651 C.3 0.0 **** -0.106
28049 C28049 49.8779 80.8045 78.118 C.3 0.0 **** -0.086
28050 C28050 48.7297 80.3317 79.001 C.2 0.0 **** 0.347
28051 O28051 48.1571 81.1701 79.6989 O.2 0.0 **** -0.419
28052 H28052 46.482 54.1461 61.252 H 0.0 **** 0.053
28053 H28053 47.0131 54.0284 62.9516 H 0.0 **** 0.053
28054 H28054 48.1511 52.6402 60.5193 H 0.0 **** 0.053
28055 H28055 48.9255 53.0343 62.0612 H 0.0 **** 0.053
28056 H28056 47.1291 50.6732 61.3636 H 0.0 **** 0.053
28057 H28057 47.1025 50.0455 63.7537 H 0.0 **** 0.053
28058 H28058 45.729 52.403 64.3521 H 0.0 **** 0.053
28059 H28059 45.0444 51.0446 63.4072 H 0.0 **** 0.053
28060 H28060 48.0433 52.8348 64.4513 H 0.0 **** 0.053
28061 H28061 50.1443 52.2646 63.6361 H 0.0 **** 0.053
28062 H28062 49.3403 49.3366 63.9251 H 0.0 **** 0.053
28063 H28063 50.8915 49.8972 63.2829 H 0.0 **** 0.053
28064 H28064 49.0149 49.3539 61.5428 H 0.0 **** 0.053
28065 H28065 49.8878 50.8726 61.3278 H 0.0 **** 0.053
28066 H28066 50.9004 52.0662 67.1968 H 0.0 **** 0.053
28067 H28067 48.896 51.1371 67.7581 H 0.0 **** 0.053
28068 H28068 46.7912 51.461 66.1206 H 0.0 **** 0.053
28069 H28069 47.9929 50.1764 65.9311 H 0.0 **** 0.053
28070 H28070 49.7278 53.7975 64.9895 H 0.0 **** 0.053
28071 H28071 46.8462 55.7416 70.2486 H 0.0 **** 0.053
28072 H28072 45.9079 55.3397 68.8123 H 0.0 **** 0.053
28073 H28073 45.8771 53.3952 70.3218 H 0.0 **** 0.053
28074 H28074 47.6522 53.3949 70.4215 H 0.0 **** 0.053
28075 H28075 45.9789 52.8857 67.9008 H 0.0 **** 0.053
28076 H28076 46.911 51.6705 68.7754 H 0.0 **** 0.053
28077 H28077 54.8042 53.5017 65.8785 H 0.0 **** 0.053
28078 H28078 54.5711 52.6567 64.3696 H 0.0 **** 0.053
28079 H28079 52.5722 52.0333 65.6955 H 0.0 **** 0.1268
28080 H28080 56.2772 54.5318 63.8254 H 0.0 **** 0.053
28081 H28081 55.2436 54.6407 62.3894 H 0.0 **** 0.053
28082 H28082 56.4505 56.7983 62.6381 H 0.0 **** 0.053
28083 H28083 55.9246 56.9347 64.3276 H 0.0 **** 0.053
28084 H28084 51.2494 56.3833 62.4929 H 0.0 **** 0.053
28085 H28085 51.2646 57.7738 63.5517 H 0.0 **** 0.053
28086 H28086 52.2972 57.5694 60.6945 H 0.0 **** 0.053
28087 H28087 52.9617 59.7171 62.7568 H 0.0 **** 0.053
28088 H28088 53.2212 59.9225 61.0131 H 0.0 **** 0.053
28089 H28089 55.2804 59.0721 62.299 H 0.0 **** 0.053
28090 H28090 54.8017 58.0531 60.9477 H 0.0 **** 0.053
28091 H28091 52.5811 58.0251 65.245 H 0.0 **** 0.1268
28092 H28092 52.1648 62.9127 67.2948 H 0.0 **** 0.1268
28093 H28093 52.0986 64.9892 68.4398 H 0.0 **** 0.1268
28094 H28094 47.0466 59.2674 70.825 H 0.0 **** 0.1268
28095 H28095 50.8157 70.0612 70.0543 H 0.0 **** 0.053
28096 H28096 51.5649 68.5638 68.4988 H 0.0 **** 0.053
28097 H28097 53.3827 67.5543 70.7048 H 0.0 **** 0.053
28098 H28098 54.4369 69.3435 69.1708 H 0.0 **** 0.053
28099 H28099 53.7315 68.9553 67.5998 H 0.0 **** 0.053
28100 H28100 52.1636 71.0091 67.9428 H 0.0 **** 0.053
28101 H28101 53.8587 71.4399 67.6953 H 0.0 **** 0.053
28102 H28102 54.236 71.8945 69.9725 H 0.0 **** 0.053
28103 H28103 53.5719 70.2021 71.3353 H 0.0 **** 0.053
28104 H28104 50.9641 71.7377 71.6738 H 0.0 **** 0.053
28105 H28105 51.9423 70.9648 72.9202 H 0.0 **** 0.053
28106 H28106 53.7583 72.6872 72.4881 H 0.0 **** 0.053
28107 H28107 52.2479 73.4369 73.0231 H 0.0 **** 0.053
28108 H28108 53.6012 74.2853 70.7773 H 0.0 **** 0.053
28109 H28109 51.8462 74.4475 70.9305 H 0.0 **** 0.053
28110 H28110 51.4769 72.7264 69.5279 H 0.0 **** 0.353
28111 H28111 45.6256 60.09 74.6702 H 0.0 **** 0.053
28112 H28112 44.586 58.9729 72.7314 H 0.0 **** 0.053
28113 H28113 44.0501 61.5991 71.3647 H 0.0 **** 0.053
28114 H28114 43.255 60.035 71.1394 H 0.0 **** 0.053
28115 H28115 41.5096 61.2738 72.169 H 0.0 **** 0.053
28116 H28116 42.6305 62.2487 73.1355 H 0.0 **** 0.053
28117 H28117 42.0805 59.2727 73.6187 H 0.0 **** 0.053
28118 H28118 41.3329 60.575 74.548 H 0.0 **** 0.053
28119 H28119 43.5409 59.4186 75.492 H 0.0 **** 0.053
28120 H28120 43.3718 61.1731 75.6354 H 0.0 **** 0.053
28121 H28121 45.1342 64.1858 74.9697 H 0.0 **** 0.1268
28122 H28122 44.9944 66.3935 76.0781 H 0.0 **** 0.1268
28123 H28123 50.0468 69.9302 72.4029 H 0.0 **** 0.1268
28124 H28124 50.1393 71.8921 73.8596 H 0.0 **** 0.053
28125 H28125 49.4905 72.6031 75.8927 H 0.0 **** 0.053
28126 H28126 47.3301 74.1151 74.4031 H 0.0 **** 0.053
28127 H28127 50.3543 74.431 74.2882 H 0.0 **** 0.053
28128 H28128 49.2501 75.7181 73.7824 H 0.0 **** 0.053
28129 H28129 50.1124 73.8441 72.0215 H 0.0 **** 0.053
28130 H28130 48.5046 74.5634 71.882 H 0.0 **** 0.053
28131 H28131 48.7256 71.9222 71.7826 H 0.0 **** 0.053
28132 H28132 47.4097 72.6063 72.7352 H 0.0 **** 0.053
28133 H28133 49.8921 58.0902 61.2544 H 0.0 **** 0.053
28134 H28134 49.2707 60.3437 62.0085 H 0.0 **** 0.053
28135 H28135 50.9747 60.8309 62.1231 H 0.0 **** 0.053
28136 H28136 50.3204 59.6266 63.2544 H 0.0 **** 0.053
28137 H28137 50.9307 58.6496 59.0537 H 0.0 **** 0.053
28138 H28138 51.4521 60.229 59.6915 H 0.0 **** 0.053
28139 H28139 49.7198 59.8759 59.5176 H 0.0 **** 0.053
28140 H28140 53.7872 65.8369 69.2849 H 0.0 **** 0.41
28141 H28141 44.1837 69.341 78.433 H 0.0 **** 0.1268
28142 H28142 43.3043 70.6863 80.3111 H 0.0 **** 0.1268
28143 H28143 43.3106 72.7701 81.6368 H 0.0 **** 0.1268
28144 H28144 43.3156 74.8326 82.9757 H 0.0 **** 0.1268
28145 H28145 44.1675 77.1306 83.3743 H 0.0 **** 0.1268
28146 H28146 47.2277 80.0383 81.1613 H 0.0 **** 0.1268
28147 H28147 45.6221 79.0103 82.7209 H 0.0 **** 0.1268
28148 H28148 49.2568 76.5577 75.6799 H 0.0 **** 0.1268
28149 H28149 50.553 77.7732 76.6603 H 0.0 **** 0.053
28150 H28150 49.4966 79.0428 76.0347 H 0.0 **** 0.053
28151 H28151 51.5628 80.0485 76.9673 H 0.0 **** 0.053
28152 H28152 51.2923 79.2212 78.5162 H 0.0 **** 0.053
28153 H28153 49.4137 81.2942 77.2419 H 0.0 **** 0.053
28154 H28154 50.4077 81.5916 78.6732 H 0.0 **** 0.053
28155 C28155 5.86476 63.2469 43.2393 C.3 0.0 **** 0.054
28156 C28156 4.61813 63.1747 42.3266 C.3 0.0 **** -0.106
28157 C28157 4.59596 64.3608 41.3405 C.3 0.0 **** -0.053
28158 C28158 5.03999 65.634 42.0789 C.3 0.0 **** -0.053
28159 C28159 6.4817 65.4379 42.6156 C.3 0.0 **** 0.054
28160 O28160 6.88736 64.0644 42.6598 O.3 0.0 **** -0.32
28161 C28161 4.04719 66.0012 43.202 C.3 0.0 **** -0.053
28162 C28162 2.57022 65.7203 42.8029 C.3 0.0 **** 0.107
28163 C28163 2.40638 65.7107 41.2925 C.3 0.0 **** -0.106
28164 C28164 3.21186 64.5556 40.6702 C.3 0.0 **** -0.106
28165 O28165 1.6772 66.7149 43.3277 O.3 0.0 **** -0.32
28166 C28166 1.9507 67.047 44.6995 C.3 0.0 **** 0.107
28167 C28167 3.2379 67.89 44.7384 C.3 0.0 **** -0.053
28168 C28168 4.18834 67.4738 43.5775 C.3 0.0 **** -0.106
28169 C28169 3.89995 67.9367 46.0757 C.2 0.0 **** 0.0
28170 C28170 3.50706 67.1514 47.1478 C.2 0.0 **** 0.0
28171 C28171 2.50912 66.1221 46.9999 C.2 0.0 **** 0.0
28172 C28172 1.95395 65.8207 45.626 C.3 0.0 **** -0.053
28173 C28173 2.16765 65.2865 48.049 C.2 0.0 **** 0.0
28174 C28174 2.77533 65.4708 49.3457 C.2 0.0 **** 0.0
28175 C28175 3.72918 66.5247 49.4818 C.2 0.0 **** 0.232
28176 C28176 4.11617 67.3353 48.4508 C.2 0.0 **** 0.0
28177 C28177 5.16779 68.3955 48.6577 C.3 0.0 **** -0.106
28178 C28178 5.02592 69.5346 47.6476 C.3 0.0 **** -0.106
28179 C28179 4.98717 68.9629 46.2283 C.3 0.0 **** -0.106
28180 O28180 4.34034 66.7388 50.7024 O.3 0.0 **** -0.464
28181 C28181 3.95083 66.0311 51.8135 C.2 0.0 **** 0.232
28182 C28182 3.05386 64.9508 51.7293 C.2 0.0 **** 0.0
28183 C28183 2.481 64.6476 50.4394 C.2 0.0 **** 0.0
28184 C28184 0.619285 65.1167 45.6925 C.2 0.0 **** 0.0
28185 C28185 0.509631 64.0471 46.681 C.2 0.0 **** 0.0
28186 C28186 1.21744 64.184 47.8768 C.2 0.0 **** 0.0
28187 C28187 -0.479612 63.0039 46.4169 C.2 0.0 **** 0.0
28188 C28188 -1.57992 63.3134 45.6708 C.2 0.0 **** 0.0
28189 C28189 -1.72392 64.6426 45.0046 C.3 0.0 **** -0.106
28190 C28190 -0.441991 65.4101 44.9083 C.2 0.0 **** -0.1268
28191 C28191 -2.6592 62.2853 45.4767 C.3 0.0 **** -0.106
28192 C28192 -2.73964 61.363 46.6966 C.3 0.0 **** -0.106
28193 C28193 -1.37156 60.8011 46.9963 C.2 0.0 **** 0.0
28194 C28194 -0.287476 61.597 46.837 C.2 0.0 **** 0.0
28195 C28195 1.12101 61.0549 46.9154 C.3 0.0 **** -0.106
28196 C28196 1.18654 59.5271 47.0216 C.3 0.0 **** -0.053
28197 C28197 0.112732 59.04 48.0009 C.3 0.0 **** -0.106
28198 C28198 -1.27459 59.375 47.4534 C.3 0.0 **** -0.106
28199 C28199 1.55993 63.5683 50.2301 C.2 0.0 **** -0.012
28200 C28200 0.948641 63.3679 49.0168 C.2 0.0 **** -0.1268
28201 C28201 2.73899 64.288 52.9431 C.2 0.0 **** 0.0
28202 C28202 1.85647 63.149 52.9531 C.2 0.0 **** -0.012
28203 S28203 1.21743 62.4079 51.4943 S.2 0.0 **** 0.024
28204 C28204 1.51451 62.5304 54.1284 C.2 0.0 **** -0.1268
28205 C28205 2.01339 62.9896 55.3758 C.2 0.0 **** 0.0
28206 C28206 2.91681 64.0959 55.4102 C.2 0.0 **** 0.0
28207 C28207 3.2882 64.7368 54.1962 C.2 0.0 **** 0.0
28208 C28208 3.43486 64.5278 56.6594 C.2 0.0 **** 0.0
28209 C28209 3.02255 63.8835 57.8661 C.2 0.0 **** 0.0
28210 C28210 2.05565 62.8155 57.8104 C.2 0.0 **** 0.0
28211 C28211 1.61428 62.3686 56.5552 C.2 0.0 **** -0.1268
28212 C28212 1.57649 62.2597 59.0336 C.2 0.0 **** 0.0
28213 C28213 2.16256 62.6397 60.2262 C.2 0.0 **** 0.042
28214 C28214 3.20572 63.6086 60.3226 C.2 0.0 **** 0.0
28215 C28215 3.57783 64.2741 59.1209 C.2 0.0 **** 0.0
28216 C28216 4.20781 65.839 54.2283 C.2 0.0 **** 0.0
28217 C28217 4.50839 66.4599 52.9982 C.2 0.0 **** -0.1268
28218 C28218 4.37464 65.6103 56.6959 C.2 0.0 **** 0.0
28219 C28219 4.7681 66.2687 55.4924 C.2 0.0 **** 0.0
28220 C28220 4.53719 65.3401 59.1558 C.2 0.0 **** 0.0
28221 C28221 4.9112 66.0039 57.9585 C.2 0.0 **** 0.0
28222 C28222 3.85908 63.9475 61.5626 C.2 0.0 **** 0.0
28223 C28223 4.77223 65.0437 61.5843 C.2 0.0 **** 0.0
28224 C28224 5.10446 65.7395 60.3946 C.2 0.0 **** 0.0
28225 O28225 1.62483 62.0998 61.3747 O.3 0.0 **** -0.202
28226 C28226 1.51294 60.6487 61.4033 C.3 0.0 **** 0.107
28227 C28227 0.974705 60.092 60.0615 C.3 0.0 **** -0.053
28228 C28228 0.429887 61.2776 59.2521 C.3 0.0 **** 0.107
28229 C28229 -0.0440183 58.9689 60.291 C.3 0.0 **** -0.106
28230 C28230 0.457761 58.0659 61.4227 C.3 0.0 **** -0.106
28231 C28231 0.359883 58.799 62.764 C.3 0.0 **** 0.134
28232 C28232 0.638915 60.3325 62.6157 C.3 0.0 **** -0.053
28233 C28233 1.27837 60.8759 63.9043 C.3 0.0 **** -0.106
28234 C28234 0.676574 60.2209 65.1464 C.3 0.0 **** -0.106
28235 C28235 0.944759 58.6898 65.1202 C.3 0.0 **** 0.081
28236 N28236 1.19498 58.1496 63.7753 N.3 0.0 **** -0.727
28237 C28237 5.71897 67.3432 55.6112 C.2 0.0 **** 0.042
28238 C28238 6.19896 67.7555 56.8448 C.2 0.0 **** 0.042
28239 C28239 5.83804 67.0869 58.0431 C.2 0.0 **** 0.0
28240 O28240 7.06692 68.8126 56.9929 O.3 0.0 **** -0.202
28241 C28241 7.18586 69.6669 55.8346 C.3 0.0 **** 0.107
28242 C28242 7.3547 68.766 54.6227 C.3 0.0 **** 0.107
28243 O28243 6.15969 67.9755 54.4701 O.3 0.0 **** -0.202
28244 C28244 8.6087 67.8724 54.7211 C.3 0.0 **** -0.106
28245 C28245 9.72336 68.5 55.5858 C.3 0.0 **** -0.106
28246 C28246 9.69581 70.0287 55.4763 C.3 0.0 **** -0.106
28247 C28247 8.38124 70.5979 56.0484 C.3 0.0 **** -0.106
28248 C28248 6.03626 66.8279 60.4565 C.2 0.0 **** 0.0
28249 C28249 6.37655 67.4866 59.2751 C.2 0.0 **** -0.1268
28250 C28250 5.36475 65.4272 62.82 C.2 0.0 **** 0.0
28251 C28251 6.26385 66.5378 62.8506 C.2 0.0 **** 0.042
28252 C28252 6.59822 67.218 61.7124 C.2 0.0 **** -0.1268
28253 C28253 5.09357 64.7241 64.0035 C.2 0.0 **** 0.0
28254 C28254 4.26176 63.5977 63.96 C.2 0.0 **** 0.0
28255 C28255 3.67039 63.2362 62.7634 C.2 0.0 **** -0.1268
28256 O28256 6.83161 66.9458 64.0481 O.3 0.0 **** -0.0685
28257 C28257 6.51759 66.3096 65.2271 C.2 0.0 **** 0.0265
28258 C28258 5.67767 65.1829 65.2406 C.2 0.0 **** 0.0
28259 C28259 4.02494 62.7396 65.1744 C.3 0.0 **** -0.053
28260 C28260 4.36991 63.43 66.5142 C.3 0.0 **** -0.053
28261 C28261 5.37592 64.5483 66.4485 C.2 0.0 **** 0.0
28262 C28262 4.83772 62.4144 67.5738 C.3 0.0 **** -0.053
28263 C28263 3.98858 61.1513 67.4903 C.3 0.0 **** -0.106
28264 C28264 4.27403 60.4232 66.153 C.3 0.0 **** -0.106
28265 C28265 4.75689 61.3905 65.0556 C.3 0.0 **** -0.106
28266 C28266 5.91436 65.0246 67.6534 C.2 0.0 **** 0.0
28267 C28267 6.71195 66.2039 67.6479 C.2 0.0 **** 0.0
28268 C28268 7.03894 66.8536 66.4163 C.2 0.0 **** 0.0
28269 C28269 4.95022 63.1098 68.9028 C.2 0.0 **** 0.0
28270 C28270 5.60104 64.3749 68.8971 C.2 0.0 **** 0.0
28271 C28271 2.61205 59.0546 47.3765 C.3 0.0 **** -0.053
28272 C28272 2.98174 59.3356 48.8388 C.3 0.0 **** -0.159
28273 C28273 2.79625 57.5673 47.0582 C.3 0.0 **** -0.159
28274 O28274 -0.243725 60.7577 58.1045 O.3 0.0 **** -0.57
28275 C28275 7.85252 68.0331 66.4447 C.2 0.0 **** -0.1268
28276 C28276 8.28541 68.5551 67.6318 C.2 0.0 **** -0.1268
28277 C28277 7.93913 67.9554 68.888 C.2 0.0 **** 0.0
28278 C28278 7.14538 66.7631 68.8822 C.2 0.0 **** 0.0
28279 C28279 6.76751 66.1619 70.112 C.2 0.0 **** 0.0
28280 C28280 7.17372 66.737 71.3391 C.2 0.0 **** 0.0
28281 C28281 7.97215 67.9262 71.3354 C.2 0.0 **** 0.0
28282 C28282 8.33749 68.5066 70.1101 C.2 0.0 **** -0.1268
28283 C28283 8.3725 68.4929 72.5849 C.2 0.0 **** -0.1268
28284 C28284 8.00155 67.9155 73.7703 C.2 0.0 **** -0.1268
28285 C28285 7.20811 66.7281 73.7979 C.2 0.0 **** 0.0
28286 C28286 6.79579 66.1343 72.5753 C.2 0.0 **** 0.0
28287 C28287 6.01387 64.9397 72.5901 C.2 0.0 **** 0.0
28288 C28288 5.61594 64.3572 71.3535 C.2 0.0 **** 0.0
28289 C28289 5.98531 64.9643 70.1193 C.2 0.0 **** 0.0
28290 C28290 5.64994 64.3265 73.8256 C.2 0.0 **** 0.0
28291 C28291 6.0625 64.963 75.0291 C.2 0.0 **** -0.1268
28292 C28292 6.81162 66.1209 75.0105 C.2 0.0 **** -0.1268
28293 C28293 4.55604 62.5507 70.0977 C.2 0.0 **** -0.1268
28294 C28294 4.83492 63.1689 71.3448 C.2 0.0 **** 0.0
28295 C28295 4.84752 63.1207 73.8027 C.2 0.0 **** 0.052
28296 C28296 4.39908 62.5996 72.5815 C.2 0.0 **** 0.0
28297 C28297 3.443 61.429 72.5226 C.3 0.0 **** -0.106
28298 C28298 2.61502 61.3005 73.7954 C.3 0.0 **** -0.106
28299 C28299 3.56456 61.2014 74.9776 C.3 0.0 **** -0.086
28300 C28300 4.56103 62.3516 75.0519 C.2 0.0 **** 0.347
28301 O28301 5.12868 62.5533 76.1266 O.2 0.0 **** -0.419
28302 H28302 6.3171 62.2568 43.3869 H 0.0 **** 0.053
28303 H28303 5.59494 63.6506 44.2358 H 0.0 **** 0.053
28304 H28304 4.60664 62.2343 41.7546 H 0.0 **** 0.053
28305 H28305 3.70801 63.1846 42.9471 H 0.0 **** 0.053
28306 H28306 5.34513 64.1484 40.5639 H 0.0 **** 0.053
28307 H28307 5.05256 66.4697 41.3594 H 0.0 **** 0.053
28308 H28308 6.56344 65.8755 43.6325 H 0.0 **** 0.053
28309 H28309 7.21927 65.9312 41.9671 H 0.0 **** 0.053
28310 H28310 4.30165 65.3941 44.0855 H 0.0 **** 0.053
28311 H28311 2.25887 64.7327 43.1948 H 0.0 **** 0.053
28312 H28312 2.75378 66.68 40.9 H 0.0 **** 0.053
28313 H28313 1.34023 65.6239 41.0385 H 0.0 **** 0.053
28314 H28314 3.33771 64.7474 39.5941 H 0.0 **** 0.053
28315 H28315 2.63691 63.6189 40.7559 H 0.0 **** 0.053
28316 H28316 1.1033 67.677 45.0074 H 0.0 **** 0.053
28317 H28317 2.94037 68.9313 44.5096 H 0.0 **** 0.053
28318 H28318 5.23223 67.6997 43.8409 H 0.0 **** 0.053
28319 H28319 3.94545 68.0722 42.6852 H 0.0 **** 0.053
28320 H28320 2.66418 65.0759 45.2129 H 0.0 **** 0.053
28321 H28321 5.12045 68.7735 49.6891 H 0.0 **** 0.053
28322 H28322 6.16908 67.9381 48.5457 H 0.0 **** 0.053
28323 H28323 5.85589 70.2492 47.7573 H 0.0 **** 0.053
28324 H28324 4.08806 70.0799 47.8414 H 0.0 **** 0.053
28325 H28325 5.97272 68.5108 45.9979 H 0.0 **** 0.053
28326 H28326 4.84289 69.7633 45.483 H 0.0 **** 0.053
28327 H28327 -2.48457 65.2518 45.5409 H 0.0 **** 0.053
28328 H28328 -2.16669 64.4978 43.9997 H 0.0 **** 0.053
28329 H28329 -0.39041 66.2167 44.1789 H 0.0 **** 0.1268
28330 H28330 -3.62344 62.7848 45.2907 H 0.0 **** 0.053
28331 H28331 -2.43357 61.6851 44.5719 H 0.0 **** 0.053
28332 H28332 -3.45687 60.5446 46.5278 H 0.0 **** 0.053
28333 H28333 -3.10839 61.9415 47.5655 H 0.0 **** 0.053
28334 H28334 1.66866 61.3882 46.0158 H 0.0 **** 0.053
28335 H28335 1.66583 61.5041 47.7597 H 0.0 **** 0.053
28336 H28336 0.93709 59.107 46.0293 H 0.0 **** 0.053
28337 H28337 0.251641 59.5482 48.9691 H 0.0 **** 0.053
28338 H28338 0.204133 57.958 48.1821 H 0.0 **** 0.053
28339 H28339 -2.05259 59.1921 48.2169 H 0.0 **** 0.053
28340 H28340 -1.52487 58.6978 46.6136 H 0.0 **** 0.053
28341 H28341 0.200942 62.5803 48.9257 H 0.0 **** 0.1268
28342 H28342 0.838392 61.6724 54.125 H 0.0 **** 0.1268
28343 H28343 0.969767 61.4978 56.4871 H 0.0 **** 0.1268
28344 H28344 5.18337 67.3017 52.95 H 0.0 **** 0.1268
28345 H28345 2.52946 60.2524 61.5855 H 0.0 **** 0.053
28346 H28346 1.82024 59.6757 59.4909 H 0.0 **** 0.053
28347 H28347 -0.312764 61.7913 59.897 H 0.0 **** 0.053
28348 H28348 -1.0241 59.3993 60.5593 H 0.0 **** 0.053
28349 H28349 -0.189962 58.412 59.3568 H 0.0 **** 0.053
28350 H28350 1.51325 57.7996 61.2325 H 0.0 **** 0.053
28351 H28351 -0.0977961 57.1201 61.4831 H 0.0 **** 0.053
28352 H28352 -0.678191 58.7015 63.1253 H 0.0 **** 0.053
28353 H28353 -0.325449 60.8438 62.4556 H 0.0 **** 0.053
28354 H28354 2.35988 60.6573 63.8795 H 0.0 **** 0.053
28355 H28355 1.18441 61.9698 63.9394 H 0.0 **** 0.053
28356 H28356 -0.407398 60.4171 65.1668 H 0.0 **** 0.053
28357 H28357 1.09805 60.6653 66.0622 H 0.0 **** 0.053
28358 H28358 0.082012 58.1549 65.5522 H 0.0 **** 0.053
28359 H28359 1.81715 58.4421 65.743 H 0.0 **** 0.053
28360 H28360 2.17767 58.2722 63.5278 H 0.0 **** 0.353
28361 H28361 6.24533 70.234 55.7348 H 0.0 **** 0.053
28362 H28362 7.38339 69.387 53.7161 H 0.0 **** 0.053
28363 H28363 8.30453 66.9032 55.1423 H 0.0 **** 0.053
28364 H28364 8.97229 67.6814 53.7008 H 0.0 **** 0.053
28365 H28365 10.7013 68.1055 55.2731 H 0.0 **** 0.053
28366 H28366 9.57592 68.2146 56.6379 H 0.0 **** 0.053
28367 H28367 9.79379 70.3126 54.4144 H 0.0 **** 0.053
28368 H28368 10.552 70.4777 56.0008 H 0.0 **** 0.053
28369 H28369 8.15711 71.5746 55.5943 H 0.0 **** 0.053
28370 H28370 8.47016 70.7617 57.1334 H 0.0 **** 0.053
28371 H28371 7.07553 68.321 59.3066 H 0.0 **** 0.1268
28372 H28372 7.29587 68.055 61.7567 H 0.0 **** 0.1268
28373 H28373 3.02193 62.3744 62.76 H 0.0 **** 0.1268
28374 H28374 2.95159 62.4972 65.2012 H 0.0 **** 0.053
28375 H28375 3.43705 63.8827 66.9055 H 0.0 **** 0.053
28376 H28376 5.87707 62.1344 67.3081 H 0.0 **** 0.053
28377 H28377 2.92547 61.4385 67.558 H 0.0 **** 0.053
28378 H28378 4.19192 60.4761 68.3336 H 0.0 **** 0.053
28379 H28379 3.35846 59.9186 65.8135 H 0.0 **** 0.053
28380 H28380 5.03126 59.6396 66.3096 H 0.0 **** 0.053
28381 H28381 4.58053 60.9643 64.0565 H 0.0 **** 0.053
28382 H28382 5.84177 61.5659 65.1309 H 0.0 **** 0.053
28383 H28383 3.30433 59.6275 46.7327 H 0.0 **** 0.053
28384 H28384 4.0442 59.1119 49.0174 H 0.0 **** 0.053
28385 H28385 2.38985 58.6996 49.515 H 0.0 **** 0.053
28386 H28386 2.80314 60.3834 49.1247 H 0.0 **** 0.053
28387 H28387 2.56817 57.3563 46.0015 H 0.0 **** 0.053
28388 H28388 2.12771 56.9496 47.6789 H 0.0 **** 0.053
28389 H28389 3.82873 57.2438 47.2599 H 0.0 **** 0.053
28390 H28390 -0.715864 61.4952 57.6882 H 0.0 **** 0.41
28391 H28391 8.11202 68.5116 65.5005 H 0.0 **** 0.1268
28392 H28392 8.90084 69.4564 67.6442 H 0.0 **** 0.1268
28393 H28393 8.94144 69.4167 70.1133 H 0.0 **** 0.1268
28394 H28394 8.97985 69.3998 72.5719 H 0.0 **** 0.1268
28395 H28395 8.30437 68.3571 74.7218 H 0.0 **** 0.1268
28396 H28396 5.78471 64.5104 75.975 H 0.0 **** 0.1268
28397 H28397 7.10893 66.5871 75.9523 H 0.0 **** 0.1268
28398 H28398 4.05516 61.5865 70.081 H 0.0 **** 0.1268
28399 H28399 2.77697 61.5513 71.657 H 0.0 **** 0.053
28400 H28400 4.00752 60.4927 72.3527 H 0.0 **** 0.053
28401 H28401 1.95318 60.4229 73.7401 H 0.0 **** 0.053
28402 H28402 1.97562 62.1922 73.9008 H 0.0 **** 0.053
28403 H28403 4.16471 60.2764 74.8946 H 0.0 **** 0.053
28404 H28404 3.05189 61.1567 75.949 H 0.0 **** 0.053
28405 C28405 27.5216 29.164 47.5845 C.3 0.0 **** 0.054
28406 C28406 28.205 29.8027 46.3527 C.3 0.0 **** -0.106
28407 C28407 28.395 31.3194 46.561 C.3 0.0 **** -0.053
28408 C28408 27.1368 31.8939 47.2321 C.3 0.0 **** -0.053
28409 C28409 26.9316 31.2073 48.6074 C.3 0.0 **** 0.054
28410 O28410 27.6693 29.987 48.7467 O.3 0.0 **** -0.32
28411 C28411 25.9016 31.7455 46.3188 C.3 0.0 **** -0.053
28412 C28412 26.2434 31.9702 44.8181 C.3 0.0 **** 0.107
28413 C28413 27.4997 32.8107 44.6654 C.3 0.0 **** -0.106
28414 C28414 28.7186 32.0683 45.2429 C.3 0.0 **** -0.106
28415 O28415 25.1838 32.6478 44.125 O.3 0.0 **** -0.32
28416 C28416 23.8817 32.1304 44.4471 C.3 0.0 **** 0.107
28417 C28417 23.5226 32.5951 45.8698 C.3 0.0 **** -0.053
28418 C28418 24.8117 32.7307 46.7325 C.3 0.0 **** -0.106
28419 C28419 22.44 31.7989 46.5199 C.2 0.0 **** 0.0
28420 C28420 21.923 30.6325 45.9789 C.2 0.0 **** 0.0
28421 C28421 22.5014 30.0269 44.8059 C.2 0.0 **** 0.0
28422 C28422 23.7615 30.6162 44.213 C.3 0.0 **** -0.053
28423 C28423 22.0356 28.8233 44.3061 C.2 0.0 **** 0.0
28424 C28424 20.908 28.1711 44.929 C.2 0.0 **** 0.0
28425 C28425 20.3221 28.8105 46.0635 C.2 0.0 **** 0.232
28426 C28426 20.7905 29.9763 46.6031 C.2 0.0 **** 0.0
28427 C28427 20.1512 30.5665 47.8343 C.3 0.0 **** -0.106
28428 C28428 20.3749 32.0769 47.9164 C.3 0.0 **** -0.106
28429 C28429 21.8679 32.3849 47.78 C.3 0.0 **** -0.106
28430 O28430 19.2427 28.2237 46.6959 O.3 0.0 **** -0.464
28431 C28431 18.6517 27.0994 46.1727 C.2 0.0 **** 0.232
28432 C28432 19.2138 26.4009 45.0887 C.2 0.0 **** 0.0
28433 C28433 20.4027 26.9458 44.4776 C.2 0.0 **** 0.0
28434 C28434 23.953 30.2162 42.7692 C.2 0.0 **** 0.0
28435 C28435 23.6859 28.8154 42.4534 C.2 0.0 **** 0.0
28436 C28436 22.6781 28.163 43.1664 C.2 0.0 **** 0.0
28437 C28437 24.37 28.2603 41.287 C.2 0.0 **** 0.0
28438 C28438 24.7234 29.099 40.2698 C.2 0.0 **** 0.0
28439 C28439 24.5566 30.579 40.3832 C.3 0.0 **** -0.106
28440 C28440 24.3508 31.056 41.7874 C.2 0.0 **** -0.1268
28441 C28441 25.332 28.5327 39.0174 C.3 0.0 **** -0.106
28442 C28442 24.7947 27.1226 38.7565 C.3 0.0 **** -0.106
28443 C28443 24.977 26.2758 39.9921 C.2 0.0 **** 0.0
28444 C28444 24.7897 26.8424 41.2078 C.2 0.0 **** 0.0
28445 C28445 25.1509 26.1257 42.4883 C.3 0.0 **** -0.106
28446 C28446 25.8863 24.7996 42.2641 C.3 0.0 **** -0.053
28447 C28447 25.2214 24.0393 41.1112 C.3 0.0 **** -0.106
28448 C28448 25.3666 24.8373 39.8156 C.3 0.0 **** -0.106
28449 C28449 21.0668 26.3201 43.371 C.2 0.0 **** -0.012
28450 C28450 22.1326 26.9142 42.741 C.2 0.0 **** -0.1268
28451 C28451 18.5198 25.2457 44.6466 C.2 0.0 **** 0.0
28452 C28452 19.0357 24.4452 43.5652 C.2 0.0 **** -0.012
28453 S28453 20.5944 24.7322 42.8076 S.2 0.0 **** 0.024
28454 C28454 18.3477 23.3516 43.105 C.2 0.0 **** -0.1268
28455 C28455 17.1038 22.9702 43.6731 C.2 0.0 **** 0.0
28456 C28456 16.5702 23.7162 44.7686 C.2 0.0 **** 0.0
28457 C28457 17.2816 24.8444 45.2622 C.2 0.0 **** 0.0
28458 C28458 15.3413 23.3082 45.3505 C.2 0.0 **** 0.0
28459 C28459 14.6339 22.1878 44.8161 C.2 0.0 **** 0.0
28460 C28460 15.1587 21.4951 43.6657 C.2 0.0 **** 0.0
28461 C28461 16.4082 21.8816 43.1563 C.2 0.0 **** -0.1268
28462 C28462 14.3836 20.4494 43.0822 C.2 0.0 **** 0.0
28463 C28463 13.2365 20.0184 43.7215 C.2 0.0 **** 0.042
28464 C28464 12.7381 20.595 44.9279 C.2 0.0 **** 0.0
28465 C28465 13.426 21.7367 45.4267 C.2 0.0 **** 0.0
28466 C28466 16.7537 25.5856 46.3728 C.2 0.0 **** 0.0
28467 C28467 17.4823 26.7176 46.7931 C.2 0.0 **** -0.1268
28468 C28468 14.8222 24.0276 46.4771 C.2 0.0 **** 0.0
28469 C28469 15.5175 25.1608 46.9956 C.2 0.0 **** 0.0
28470 C28470 12.9189 22.4401 46.5695 C.2 0.0 **** 0.0
28471 C28471 13.6043 23.5778 47.0699 C.2 0.0 **** 0.0
28472 C28472 11.5797 20.0936 45.6252 C.2 0.0 **** 0.0
28473 C28473 11.0631 20.8366 46.7284 C.2 0.0 **** 0.0
28474 C28474 11.7209 22.0031 47.1937 C.2 0.0 **** 0.0
28475 O28475 12.5099 19.0359 43.084 O.3 0.0 **** -0.202
28476 C28476 13.2521 17.8438 42.7005 C.3 0.0 **** 0.107
28477 C28477 14.6237 18.2027 42.0759 C.3 0.0 **** -0.053
28478 C28478 14.6149 19.7073 41.7697 C.3 0.0 **** 0.107
28479 C28479 14.9336 17.318 40.8623 C.3 0.0 **** -0.106
28480 C28480 14.5164 15.8776 41.1774 C.3 0.0 **** -0.106
28481 C28481 12.9891 15.767 41.2105 C.3 0.0 **** 0.134
28482 C28482 12.3195 17.065 41.7745 C.3 0.0 **** -0.053
28483 C28483 11.0095 16.7078 42.4963 C.3 0.0 **** -0.106
28484 C28484 10.2597 15.5899 41.7737 C.3 0.0 **** -0.106
28485 C28485 11.1276 14.3003 41.7487 C.3 0.0 **** 0.081
28486 N28486 12.5695 14.5471 41.9015 N.3 0.0 **** -0.727
28487 C28487 14.9347 25.8271 48.1311 C.2 0.0 **** 0.042
28488 C28488 13.7257 25.4176 48.672 C.2 0.0 **** 0.042
28489 C28489 13.0433 24.2734 48.1836 C.2 0.0 **** 0.0
28490 O28490 13.1196 26.067 49.7226 O.3 0.0 **** -0.202
28491 C28491 13.6454 27.3814 50.0081 C.3 0.0 **** 0.107
28492 C28492 15.1609 27.2719 50.0122 C.3 0.0 **** 0.107
28493 O28493 15.5962 26.8973 48.6907 O.3 0.0 **** -0.202
28494 C28494 15.6786 26.28 51.0746 C.3 0.0 **** -0.106
28495 C28495 14.7253 26.146 52.2818 C.3 0.0 **** -0.106
28496 C28496 13.996 27.4684 52.5436 C.3 0.0 **** -0.106
28497 C28497 13.0835 27.8382 51.3561 C.3 0.0 **** -0.106
28498 C28498 11.1766 22.7149 48.3134 C.2 0.0 **** 0.0
28499 C28499 11.848 23.8451 48.7796 C.2 0.0 **** -0.1268
28500 C28500 9.8786 20.3841 47.3743 C.2 0.0 **** 0.0
28501 C28501 9.34553 21.1364 48.4664 C.2 0.0 **** 0.042
28502 C28502 9.96861 22.2616 48.9305 C.2 0.0 **** -0.1268
28503 C28503 9.23596 19.2051 46.9677 C.2 0.0 **** 0.0
28504 C28504 9.79492 18.4359 45.9388 C.2 0.0 **** 0.0
28505 C28505 10.9349 18.8851 45.2978 C.2 0.0 **** -0.1268
28506 O28506 8.17755 20.7288 49.0929 O.3 0.0 **** -0.0685
28507 C28507 7.49861 19.6142 48.6568 C.2 0.0 **** 0.0265
28508 C28508 8.00913 18.8151 47.6195 C.2 0.0 **** 0.0
28509 C28509 9.21259 17.1069 45.5364 C.3 0.0 **** -0.053
28510 C28510 7.75236 16.8903 45.9964 C.3 0.0 **** -0.053
28511 C28511 7.30629 17.6841 47.1956 C.2 0.0 **** 0.0
28512 C28512 7.45272 15.4021 46.2574 C.3 0.0 **** -0.053
28513 C28513 8.11674 14.5449 45.186 C.3 0.0 **** -0.106
28514 C28514 9.65622 14.6271 45.338 C.3 0.0 **** -0.106
28515 C28515 10.1057 15.9425 46.0018 C.3 0.0 **** -0.106
28516 C28516 6.09263 17.3335 47.8061 C.2 0.0 **** 0.0
28517 C28517 5.5432 18.1784 48.8117 C.2 0.0 **** 0.0
28518 C28518 6.26031 19.3306 49.2634 C.2 0.0 **** 0.0
28519 C28519 5.97634 15.2331 46.4901 C.2 0.0 **** 0.0
28520 C28520 5.36679 16.1724 47.3677 C.2 0.0 **** 0.0
28521 C28521 25.98 23.9871 43.5726 C.3 0.0 **** -0.053
28522 C28522 24.6386 23.3629 43.9789 C.3 0.0 **** -0.159
28523 C28523 27.0614 22.9061 43.4753 C.3 0.0 **** -0.159
28524 O28524 15.7906 20.0127 41.0178 O.3 0.0 **** -0.57
28525 C28525 5.68381 20.1547 50.2845 C.2 0.0 **** -0.1268
28526 C28526 4.45039 19.8684 50.8001 C.2 0.0 **** -0.1268
28527 C28527 3.68407 18.7471 50.3387 C.2 0.0 **** 0.0
28528 C28528 4.2503 17.897 49.3345 C.2 0.0 **** 0.0
28529 C28529 3.50386 16.7939 48.8419 C.2 0.0 **** 0.0
28530 C28530 2.20588 16.5339 49.3411 C.2 0.0 **** 0.0
28531 C28531 1.64969 17.3859 50.3493 C.2 0.0 **** 0.0
28532 C28532 2.40225 18.4714 50.8256 C.2 0.0 **** -0.1268
28533 C28533 0.336793 17.1077 50.841 C.2 0.0 **** -0.1268
28534 C28534 -0.384476 16.0472 50.36 C.2 0.0 **** -0.1268
28535 C28535 0.151278 15.183 49.3569 C.2 0.0 **** 0.0
28536 C28536 1.45488 15.4261 48.8482 C.2 0.0 **** 0.0
28537 C28537 2.0062 14.561 47.8551 C.2 0.0 **** 0.0
28538 C28538 3.31697 14.8188 47.3627 C.2 0.0 **** 0.0
28539 C28539 4.06319 15.9305 47.848 C.2 0.0 **** 0.0
28540 C28540 1.2627 13.4427 47.3739 C.2 0.0 **** 0.0
28541 C28541 -0.0477049 13.245 47.891 C.2 0.0 **** -0.1268
28542 C28542 -0.579419 14.0874 48.845 C.2 0.0 **** -0.1268
28543 C28543 5.23496 14.1863 45.9897 C.2 0.0 **** -0.1268
28544 C28544 3.88473 13.9715 46.3718 C.2 0.0 **** 0.0
28545 C28545 1.84977 12.5922 46.3588 C.2 0.0 **** 0.052
28546 C28546 3.10982 12.9002 45.8283 C.2 0.0 **** 0.0
28547 C28547 3.69321 12.1232 44.6692 C.3 0.0 **** -0.106
28548 C28548 2.6139 11.4586 43.8234 C.3 0.0 **** -0.106
28549 C28549 1.76728 10.5802 44.7293 C.3 0.0 **** -0.086
28550 C28550 1.18577 11.3256 45.9242 C.2 0.0 **** 0.347
28551 O28551 0.231317 10.815 46.5125 O.2 0.0 **** -0.419
28552 H28552 27.972 28.1954 47.8411 H 0.0 **** 0.053
28553 H28553 26.4433 28.9976 47.389 H 0.0 **** 0.053
28554 H28554 29.1873 29.3417 46.168 H 0.0 **** 0.053
28555 H28555 27.5908 29.6203 45.4566 H 0.0 **** 0.053
28556 H28556 29.233 31.446 47.2618 H 0.0 **** 0.053
28557 H28557 27.2941 32.9714 47.4067 H 0.0 **** 0.053
28558 H28558 25.852 31.001 48.7634 H 0.0 **** 0.053
28559 H28559 27.283 31.8471 49.429 H 0.0 **** 0.053
28560 H28560 25.5102 30.7238 46.4484 H 0.0 **** 0.053
28561 H28561 26.4132 30.9942 44.3236 H 0.0 **** 0.053
28562 H28562 27.3437 33.7662 45.1918 H 0.0 **** 0.053
28563 H28563 27.6558 33.0498 43.6037 H 0.0 **** 0.053
28564 H28564 29.5309 32.7915 45.4098 H 0.0 **** 0.053
28565 H28565 29.0925 31.3434 44.5011 H 0.0 **** 0.053
28566 H28566 23.2038 32.6185 43.7316 H 0.0 **** 0.053
28567 H28567 23.1281 33.625 45.7753 H 0.0 **** 0.053
28568 H28568 24.571 32.6046 47.7985 H 0.0 **** 0.053
28569 H28569 25.2163 33.7481 46.6126 H 0.0 **** 0.053
28570 H28570 24.5757 30.113 44.7729 H 0.0 **** 0.053
28571 H28571 19.0789 30.3241 47.8522 H 0.0 **** 0.053
28572 H28572 20.5874 30.0891 48.7322 H 0.0 **** 0.053
28573 H28573 19.9808 32.4713 48.8654 H 0.0 **** 0.053
28574 H28574 19.8292 32.572 47.0968 H 0.0 **** 0.053
28575 H28575 22.3991 31.9788 48.6642 H 0.0 **** 0.053
28576 H28576 22.0506 33.4727 47.7941 H 0.0 **** 0.053
28577 H28577 23.7065 30.9117 39.7475 H 0.0 **** 0.053
28578 H28578 25.4341 31.0782 39.9278 H 0.0 **** 0.053
28579 H28579 24.5358 32.1087 41.995 H 0.0 **** 0.1268
28580 H28580 25.1269 29.201 38.1658 H 0.0 **** 0.053
28581 H28581 26.4345 28.4945 39.1319 H 0.0 **** 0.053
28582 H28582 25.3049 26.6566 37.899 H 0.0 **** 0.053
28583 H28583 23.7202 27.1856 38.4976 H 0.0 **** 0.053
28584 H28584 25.7803 26.8012 43.095 H 0.0 **** 0.053
28585 H28585 24.255 25.9481 43.1024 H 0.0 **** 0.053
28586 H28586 26.9196 25.0342 41.9465 H 0.0 **** 0.053
28587 H28587 24.1505 23.9083 41.337 H 0.0 **** 0.053
28588 H28588 25.6576 23.0352 40.9959 H 0.0 **** 0.053
28589 H28589 24.7485 24.3969 39.012 H 0.0 **** 0.053
28590 H28590 26.4095 24.7772 39.4477 H 0.0 **** 0.053
28591 H28591 22.5582 26.4363 41.8589 H 0.0 **** 0.1268
28592 H28592 18.7444 22.7564 42.2793 H 0.0 **** 0.1268
28593 H28593 16.8691 21.306 42.3597 H 0.0 **** 0.1268
28594 H28594 17.1376 27.3277 47.615 H 0.0 **** 0.1268
28595 H28595 13.4101 17.2541 43.6229 H 0.0 **** 0.053
28596 H28596 15.4073 18.0338 42.8316 H 0.0 **** 0.053
28597 H28597 13.7267 19.8993 41.1329 H 0.0 **** 0.053
28598 H28598 14.3828 17.6847 39.9791 H 0.0 **** 0.053
28599 H28599 16.0013 17.3915 40.6202 H 0.0 **** 0.053
28600 H28600 14.9211 15.5913 42.165 H 0.0 **** 0.053
28601 H28601 14.9184 15.1559 40.4532 H 0.0 **** 0.053
28602 H28602 12.6375 15.6579 40.1703 H 0.0 **** 0.053
28603 H28603 12.0864 17.729 40.9249 H 0.0 **** 0.053
28604 H28604 11.2523 16.3665 43.5174 H 0.0 **** 0.053
28605 H28605 10.3851 17.6044 42.61 H 0.0 **** 0.053
28606 H28606 10.0323 15.9156 40.746 H 0.0 **** 0.053
28607 H28607 9.29438 15.3892 42.2653 H 0.0 **** 0.053
28608 H28608 10.9679 13.7644 40.7977 H 0.0 **** 0.053
28609 H28609 10.8225 13.6165 42.5546 H 0.0 **** 0.053
28610 H28610 12.8069 14.6238 42.8913 H 0.0 **** 0.353
28611 H28611 13.3341 28.0546 49.192 H 0.0 **** 0.053
28612 H28612 15.5917 28.2719 50.1634 H 0.0 **** 0.053
28613 H28613 15.8148 25.3021 50.5905 H 0.0 **** 0.053
28614 H28614 16.6722 26.6192 51.4025 H 0.0 **** 0.053
28615 H28615 15.2939 25.8333 53.1699 H 0.0 **** 0.053
28616 H28616 13.9812 25.3623 52.0763 H 0.0 **** 0.053
28617 H28617 14.7442 28.2642 52.7004 H 0.0 **** 0.053
28618 H28618 13.3986 27.4142 53.4656 H 0.0 **** 0.053
28619 H28619 12.9197 28.9257 51.3231 H 0.0 **** 0.053
28620 H28620 12.0942 27.3683 51.4671 H 0.0 **** 0.053
28621 H28621 11.4426 24.4017 49.6231 H 0.0 **** 0.1268
28622 H28622 9.551 22.8138 49.7731 H 0.0 **** 0.1268
28623 H28623 11.3363 18.2822 44.4986 H 0.0 **** 0.1268
28624 H28624 9.21571 17.0662 44.4365 H 0.0 **** 0.053
28625 H28625 7.09107 17.2009 45.163 H 0.0 **** 0.053
28626 H28626 7.92645 15.1481 47.2271 H 0.0 **** 0.053
28627 H28627 7.80288 14.9164 44.1957 H 0.0 **** 0.053
28628 H28628 7.79056 13.4973 45.2529 H 0.0 **** 0.053
28629 H28629 10.1224 14.5444 44.346 H 0.0 **** 0.053
28630 H28630 10.0179 13.7744 45.933 H 0.0 **** 0.053
28631 H28631 11.1551 16.1639 45.7549 H 0.0 **** 0.053
28632 H28632 10.054 15.8706 47.0998 H 0.0 **** 0.053
28633 H28633 26.2805 24.6971 44.3647 H 0.0 **** 0.053
28634 H28634 24.7117 22.9098 44.979 H 0.0 **** 0.053
28635 H28635 24.3544 22.567 43.2733 H 0.0 **** 0.053
28636 H28636 23.8204 24.0987 43.9991 H 0.0 **** 0.053
28637 H28637 28.0388 23.3443 43.2186 H 0.0 **** 0.053
28638 H28638 26.8066 22.1679 42.6983 H 0.0 **** 0.053
28639 H28639 27.1656 22.3631 44.427 H 0.0 **** 0.053
28640 H28640 15.6991 20.9227 40.6959 H 0.0 **** 0.41
28641 H28641 6.24492 21.0205 50.6358 H 0.0 **** 0.1268
28642 H28642 4.01714 20.5041 51.5742 H 0.0 **** 0.1268
28643 H28643 1.97092 19.1213 51.5902 H 0.0 **** 0.1268
28644 H28644 -0.0789401 17.7632 51.6085 H 0.0 **** 0.1268
28645 H28645 -1.38975 15.844 50.7343 H 0.0 **** 0.1268
28646 H28646 -0.625807 12.4026 47.5266 H 0.0 **** 0.1268
28647 H28647 -1.59029 13.9106 49.2186 H 0.0 **** 0.1268
28648 H28648 5.71664 13.4826 45.3162 H 0.0 **** 0.1268
28649 H28649 4.2893 12.8026 44.0439 H 0.0 **** 0.053
28650 H28650 4.39201 11.3536 45.0482 H 0.0 **** 0.053
28651 H28651 3.06601 10.8732 43.0084 H 0.0 **** 0.053
28652 H28652 1.98582 12.2387 43.3628 H 0.0 **** 0.053
28653 H28653 2.39054 9.7668 45.145 H 0.0 **** 0.053
28654 H28654 0.926571 10.0976 44.211 H 0.0 **** 0.053
28655 C28655 46.9213 4.66028 20.9686 C.3 0.0 **** 0.054
28656 C28656 47.7923 3.41604 21.261 C.3 0.0 **** -0.106
28657 C28657 48.4215 3.51003 22.6664 C.3 0.0 **** -0.053
28658 C28658 48.8881 4.95445 22.9102 C.3 0.0 **** -0.053
28659 C28659 47.6673 5.90735 22.8282 C.3 0.0 **** 0.054
28660 O28660 46.5333 5.32001 22.1786 O.3 0.0 **** -0.32
28661 C28661 50.0038 5.35358 21.9215 C.3 0.0 **** -0.053
28662 C28662 50.983 4.18114 21.6278 C.3 0.0 **** 0.107
28663 C28663 50.9692 3.16413 22.7563 C.3 0.0 **** -0.106
28664 C28664 49.583 2.50399 22.8702 C.3 0.0 **** -0.106
28665 O28665 52.3353 4.64027 21.4769 O.3 0.0 **** -0.32
28666 C28666 52.4394 5.82185 20.6645 C.3 0.0 **** 0.107
28667 C28667 51.9118 7.01249 21.4849 C.3 0.0 **** -0.053
28668 C28668 50.7975 6.53902 22.4639 C.3 0.0 **** -0.106
28669 C28669 51.5328 8.20154 20.6657 C.2 0.0 **** 0.0
28670 C28670 51.4811 8.18714 19.2809 C.2 0.0 **** 0.0
28671 C28671 51.6568 6.96664 18.5347 C.2 0.0 **** 0.0
28672 C28672 51.7961 5.65739 19.2785 C.3 0.0 **** -0.053
28673 C28673 51.532 6.93437 17.1568 C.2 0.0 **** 0.0
28674 C28674 51.2743 8.15308 16.4267 C.2 0.0 **** 0.0
28675 C28675 51.1474 9.35839 17.1818 C.2 0.0 **** 0.232
28676 C28676 51.2226 9.4102 18.5461 C.2 0.0 **** 0.0
28677 C28677 51.0277 10.713 19.2792 C.3 0.0 **** -0.106
28678 C28678 51.7227 10.7026 20.6412 C.3 0.0 **** -0.106
28679 C28679 51.2843 9.46901 21.434 C.3 0.0 **** -0.106
28680 O28680 50.8975 10.55 16.5285 O.3 0.0 **** -0.464
28681 C28681 50.8926 10.6078 15.156 C.2 0.0 **** 0.232
28682 C28682 50.9631 9.44776 14.3635 C.2 0.0 **** 0.0
28683 C28683 51.1232 8.17985 15.0349 C.2 0.0 **** 0.0
28684 C28684 52.4537 4.5904 18.4356 C.2 0.0 **** 0.0
28685 C28685 51.9992 4.49986 17.0505 C.2 0.0 **** 0.0
28686 C28686 51.6239 5.67969 16.4049 C.2 0.0 **** 0.0
28687 C28687 52.149 3.20422 16.3907 C.2 0.0 **** 0.0
28688 C28688 53.1443 2.3662 16.8032 C.2 0.0 **** 0.0
28689 C28689 53.9853 2.67968 17.9972 C.3 0.0 **** -0.106
28690 C28690 53.4047 3.73935 18.8814 C.2 0.0 **** -0.1268
28691 C28691 53.3815 1.07623 16.0689 C.3 0.0 **** -0.106
28692 C28692 53.0122 1.23098 14.5907 C.3 0.0 **** -0.106
28693 C28693 51.612 1.78143 14.4747 C.2 0.0 **** 0.0
28694 C28694 51.2008 2.71777 15.3625 C.2 0.0 **** 0.0
28695 C28695 49.7595 3.16499 15.4432 C.3 0.0 **** -0.106
28696 C28696 48.812 2.34836 14.557 C.3 0.0 **** -0.053
28697 C28697 49.4735 2.10564 13.1958 C.3 0.0 **** -0.106
28698 C28698 50.732 1.25734 13.3779 C.3 0.0 **** -0.106
28699 C28699 51.2021 6.93122 14.3337 C.2 0.0 **** -0.012
28700 C28700 51.4609 5.75224 14.9885 C.2 0.0 **** -0.1268
28701 C28701 50.9346 9.6338 12.9577 C.2 0.0 **** 0.0
28702 C28702 50.9675 8.50383 12.0642 C.2 0.0 **** -0.012
28703 S28703 50.9056 6.83581 12.6117 S.2 0.0 **** 0.024
28704 C28704 50.9833 8.67882 10.704 C.2 0.0 **** -0.1268
28705 C28705 50.9708 9.97605 10.1272 C.2 0.0 **** 0.0
28706 C28706 50.906 11.1244 10.9747 C.2 0.0 **** 0.0
28707 C28707 50.8763 10.9542 12.3863 C.2 0.0 **** 0.0
28708 C28708 50.8622 12.4162 10.3876 C.2 0.0 **** 0.0
28709 C28709 50.922 12.5589 8.96734 C.2 0.0 **** 0.0
28710 C28710 51.0583 11.3878 8.13755 C.2 0.0 **** 0.0
28711 C28711 51.0313 10.1227 8.74483 C.2 0.0 **** -0.1268
28712 C28712 51.2256 11.5593 6.73134 C.2 0.0 **** 0.0
28713 C28713 51.0914 12.8203 6.18164 C.2 0.0 **** 0.042
28714 C28714 50.839 13.9962 6.94966 C.2 0.0 **** 0.0
28715 C28715 50.8244 13.8486 8.36506 C.2 0.0 **** 0.0
28716 C28716 50.7958 12.107 13.2384 C.2 0.0 **** 0.0
28717 C28717 50.8095 11.8785 14.63 C.2 0.0 **** -0.1268
28718 C28718 50.7543 13.5703 11.2319 C.2 0.0 **** 0.0
28719 C28719 50.7183 13.4284 12.6514 C.2 0.0 **** 0.0
28720 C28720 50.691 15.0019 9.20768 C.2 0.0 **** 0.0
28721 C28721 50.6743 14.857 10.6194 C.2 0.0 **** 0.0
28722 C28722 50.631 15.2962 6.36139 C.2 0.0 **** 0.0
28723 C28723 50.5512 16.4357 7.21646 C.2 0.0 **** 0.0
28724 C28724 50.5876 16.2931 8.62648 C.2 0.0 **** 0.0
28725 O28725 51.308 12.9253 4.82458 O.3 0.0 **** -0.202
28726 C28726 50.5409 12.0158 3.9859 C.3 0.0 **** 0.107
28727 C28727 50.5184 10.582 4.57209 C.3 0.0 **** -0.053
28728 C28728 51.582 10.5156 5.67751 C.3 0.0 **** 0.107
28729 C28729 50.69 9.52633 3.47307 C.3 0.0 **** -0.106
28730 C28730 49.8579 9.9378 2.25395 C.3 0.0 **** -0.106
28731 C28731 50.494 11.1501 1.5671 C.3 0.0 **** 0.134
28732 C28732 51.1651 12.1213 2.59551 C.3 0.0 **** -0.053
28733 C28733 51.0938 13.5666 2.07508 C.3 0.0 **** -0.106
28734 C28734 51.3022 13.6272 0.562787 C.3 0.0 **** -0.106
28735 C28735 50.1784 12.8315 -0.158859 C.3 0.0 **** 0.081
28736 N28736 49.5342 11.8109 0.681735 N.3 0.0 **** -0.727
28737 C28737 50.6044 14.6339 13.4304 C.2 0.0 **** 0.042
28738 C28738 50.578 15.8848 12.8332 C.2 0.0 **** 0.042
28739 C28739 50.5815 16.0343 11.4222 C.2 0.0 **** 0.0
28740 O28740 50.5229 17.0553 13.5542 O.3 0.0 **** -0.202
28741 C28741 50.8268 16.9174 14.9592 C.3 0.0 **** 0.107
28742 C28742 50.0464 15.7204 15.476 C.3 0.0 **** 0.107
28743 O28743 50.5208 14.5389 14.8015 O.3 0.0 **** -0.202
28744 C28744 48.5224 15.8899 15.304 C.3 0.0 **** -0.106
28745 C28745 48.0816 17.3697 15.3078 C.3 0.0 **** -0.106
28746 C28746 48.9988 18.2042 16.2088 C.3 0.0 **** -0.106
28747 C28747 50.4409 18.2209 15.6616 C.3 0.0 **** -0.106
28748 C28748 50.4919 17.4623 9.45158 C.2 0.0 **** 0.0
28749 C28749 50.5007 17.3067 10.8376 C.2 0.0 **** -0.1268
28750 C28750 50.4179 17.7286 6.6368 C.2 0.0 **** 0.0
28751 C28751 50.3587 18.8749 7.48833 C.2 0.0 **** 0.042
28752 C28752 50.3889 18.7557 8.85019 C.2 0.0 **** -0.1268
28753 C28753 50.3277 17.8943 5.24657 C.2 0.0 **** 0.0
28754 C28754 50.3225 16.7651 4.41738 C.2 0.0 **** 0.0
28755 C28755 50.4716 15.5101 4.97857 C.2 0.0 **** -0.1268
28756 O28756 50.2562 20.1463 6.94423 O.3 0.0 **** -0.0685
28757 C28757 50.2395 20.3273 5.58025 C.2 0.0 **** 0.0265
28758 C28758 50.2459 19.2288 4.70381 C.2 0.0 **** 0.0
28759 C28759 50.1159 16.8746 2.92997 C.3 0.0 **** -0.053
28760 C28760 50.3721 18.288 2.3577 C.3 0.0 **** -0.053
28761 C28761 50.223 19.4348 3.32178 C.2 0.0 **** 0.0
28762 C28762 49.4939 18.5703 1.12406 C.3 0.0 **** -0.053
28763 C28763 49.418 17.3257 0.247267 C.3 0.0 **** -0.106
28764 C28764 48.635 16.2153 0.991514 C.3 0.0 **** -0.106
28765 C28765 48.7201 16.3695 2.52184 C.3 0.0 **** -0.106
28766 C28766 50.1852 20.7366 2.7997 C.2 0.0 **** 0.0
28767 C28767 50.2445 21.8498 3.68521 C.2 0.0 **** 0.0
28768 C28768 50.254 21.6512 5.10168 C.2 0.0 **** 0.0
28769 C28769 49.9382 19.8605 0.491342 C.2 0.0 **** 0.0
28770 C28770 50.1658 20.9496 1.37793 C.2 0.0 **** 0.0
28771 C28771 47.4239 3.01582 14.4636 C.3 0.0 **** -0.053
28772 C28772 47.4291 4.27177 13.5824 C.3 0.0 **** -0.159
28773 C28773 46.3663 2.02384 13.9687 C.3 0.0 **** -0.159
28774 O28774 51.7075 9.15347 6.08953 O.3 0.0 **** -0.57
28775 C28775 50.3038 22.7936 5.96567 C.2 0.0 **** -0.1268
28776 C28776 50.3758 24.0575 5.4495 C.2 0.0 **** -0.1268
28777 C28777 50.4137 24.2913 4.03485 C.2 0.0 **** 0.0
28778 C28778 50.3425 23.1653 3.15233 C.2 0.0 **** 0.0
28779 C28779 50.4024 23.3657 1.74769 C.2 0.0 **** 0.0
28780 C28780 50.5309 24.6723 1.22069 C.2 0.0 **** 0.0
28781 C28781 50.5956 25.793 2.11036 C.2 0.0 **** 0.0
28782 C28782 50.5339 25.5765 3.49634 C.2 0.0 **** -0.1268
28783 C28783 50.726 27.1053 1.5594 C.2 0.0 **** -0.1268
28784 C28784 50.7903 27.2963 0.204548 C.2 0.0 **** -0.1268
28785 C28785 50.7248 26.1938 -0.701344 C.2 0.0 **** 0.0
28786 C28786 50.5905 24.8757 -0.189801 C.2 0.0 **** 0.0
28787 C28787 50.5104 23.7671 -1.08602 C.2 0.0 **** 0.0
28788 C28788 50.3699 22.4544 -0.552892 C.2 0.0 **** 0.0
28789 C28789 50.32 22.2505 0.855709 C.2 0.0 **** 0.0
28790 C28790 50.5525 23.971 -2.49724 C.2 0.0 **** 0.0
28791 C28791 50.7101 25.3031 -2.97081 C.2 0.0 **** -0.1268
28792 C28792 50.7944 26.3706 -2.1014 C.2 0.0 **** -0.1268
28793 C28793 50.0328 20.0564 -0.868228 C.2 0.0 **** -0.1268
28794 C28794 50.2906 21.3356 -1.42707 C.2 0.0 **** 0.0
28795 C28795 50.4786 22.8219 -3.3762 C.2 0.0 **** 0.052
28796 C28796 50.4164 21.5295 -2.83774 C.2 0.0 **** 0.0
28797 C28797 50.4831 20.3006 -3.71693 C.3 0.0 **** -0.106
28798 C28798 51.1872 20.5792 -5.03928 C.3 0.0 **** -0.106
28799 C28799 50.4774 21.7336 -5.72692 C.3 0.0 **** -0.086
28800 C28800 50.3677 22.9806 -4.85833 C.2 0.0 **** 0.347
28801 O28801 50.1318 24.0528 -5.41732 O.2 0.0 **** -0.419
28802 H28802 45.9864 4.39003 20.4589 H 0.0 **** 0.053
28803 H28803 47.4681 5.37509 20.3216 H 0.0 **** 0.053
28804 H28804 47.1918 2.4955 21.1994 H 0.0 **** 0.053
28805 H28805 48.5839 3.335 20.4993 H 0.0 **** 0.053
28806 H28806 47.6244 3.29112 23.3918 H 0.0 **** 0.053
28807 H28807 49.3066 5.02006 23.9284 H 0.0 **** 0.053
28808 H28808 47.9548 6.83581 22.2918 H 0.0 **** 0.053
28809 H28809 47.3093 6.18403 23.8297 H 0.0 **** 0.053
28810 H28810 49.5221 5.66288 20.9801 H 0.0 **** 0.053
28811 H28811 50.6835 3.66992 20.6924 H 0.0 **** 0.053
28812 H28812 51.229 3.68259 23.6934 H 0.0 **** 0.053
28813 H28813 51.7479 2.40822 22.58 H 0.0 **** 0.053
28814 H28814 49.4967 2.02306 23.8561 H 0.0 **** 0.053
28815 H28815 49.4965 1.69977 22.1211 H 0.0 **** 0.053
28816 H28816 53.5193 5.9528 20.5013 H 0.0 **** 0.053
28817 H28817 52.7456 7.34304 22.1336 H 0.0 **** 0.053
28818 H28818 50.12 7.37264 22.7009 H 0.0 **** 0.053
28819 H28819 51.264 6.22504 23.411 H 0.0 **** 0.053
28820 H28820 50.7484 5.32265 19.42 H 0.0 **** 0.053
28821 H28821 51.3845 11.5483 18.6596 H 0.0 **** 0.053
28822 H28822 49.9449 10.8848 19.4293 H 0.0 **** 0.053
28823 H28823 51.4916 11.6248 21.196 H 0.0 **** 0.053
28824 H28824 52.8142 10.6663 20.4939 H 0.0 **** 0.053
28825 H28825 50.2064 9.56319 21.6749 H 0.0 **** 0.053
28826 H28826 51.805 9.41696 22.4051 H 0.0 **** 0.053
28827 H28827 55.0044 2.98302 17.6705 H 0.0 **** 0.053
28828 H28828 54.1613 1.74855 18.5706 H 0.0 **** 0.053
28829 H28829 53.7738 3.80149 19.9038 H 0.0 **** 0.1268
28830 H28830 54.4321 0.765809 16.1865 H 0.0 **** 0.053
28831 H28831 52.762 0.277131 16.5244 H 0.0 **** 0.053
28832 H28832 53.0862 0.268385 14.061 H 0.0 **** 0.053
28833 H28833 53.7301 1.92147 14.1075 H 0.0 **** 0.053
28834 H28834 49.4355 3.094 16.4969 H 0.0 **** 0.053
28835 H28835 49.6672 4.23243 15.1912 H 0.0 **** 0.053
28836 H28836 48.6715 1.35935 15.0319 H 0.0 **** 0.053
28837 H28837 49.7525 3.07588 12.7533 H 0.0 **** 0.053
28838 H28838 48.7763 1.61553 12.499 H 0.0 **** 0.053
28839 H28839 51.3168 1.21649 12.4409 H 0.0 **** 0.053
28840 H28840 50.4538 0.207388 13.5943 H 0.0 **** 0.053
28841 H28841 51.5847 4.84009 14.4052 H 0.0 **** 0.1268
28842 H28842 51.0161 7.81508 10.0361 H 0.0 **** 0.1268
28843 H28843 51.0253 9.2278 8.13047 H 0.0 **** 0.1268
28844 H28844 50.7632 12.7002 15.3294 H 0.0 **** 0.1268
28845 H28845 49.5093 12.4127 3.94287 H 0.0 **** 0.053
28846 H28846 49.5424 10.4169 5.0558 H 0.0 **** 0.053
28847 H28847 52.5401 10.8375 5.21967 H 0.0 **** 0.053
28848 H28848 51.7541 9.44518 3.19248 H 0.0 **** 0.053
28849 H28849 50.3909 8.5442 3.86051 H 0.0 **** 0.053
28850 H28850 48.8377 10.2039 2.58502 H 0.0 **** 0.053
28851 H28851 49.748 9.12251 1.52582 H 0.0 **** 0.053
28852 H28852 51.3005 10.7798 0.911288 H 0.0 **** 0.053
28853 H28853 52.2251 11.8337 2.69928 H 0.0 **** 0.053
28854 H28854 50.0963 13.9763 2.31009 H 0.0 **** 0.053
28855 H28855 51.8201 14.1953 2.60793 H 0.0 **** 0.053
28856 H28856 52.288 13.2001 0.318437 H 0.0 **** 0.053
28857 H28857 51.3124 14.6722 0.214125 H 0.0 **** 0.053
28858 H28858 50.5921 12.3327 -1.05164 H 0.0 **** 0.053
28859 H28859 49.3908 13.5138 -0.511688 H 0.0 **** 0.053
28860 H28860 48.7973 12.2375 1.24475 H 0.0 **** 0.353
28861 H28861 51.9063 16.7125 15.0531 H 0.0 **** 0.053
28862 H28862 50.3076 15.5508 16.5303 H 0.0 **** 0.053
28863 H28863 48.2308 15.4113 14.3579 H 0.0 **** 0.053
28864 H28864 48.0242 15.336 16.1132 H 0.0 **** 0.053
28865 H28865 47.0363 17.4439 15.6419 H 0.0 **** 0.053
28866 H28866 48.1276 17.7686 14.2837 H 0.0 **** 0.053
28867 H28867 48.9906 17.773 17.2245 H 0.0 **** 0.053
28868 H28868 48.6276 19.2353 16.3033 H 0.0 **** 0.053
28869 H28869 51.1569 18.4122 16.4748 H 0.0 **** 0.053
28870 H28870 50.5668 19.0307 14.9266 H 0.0 **** 0.053
28871 H28871 50.4382 18.1853 11.4778 H 0.0 **** 0.1268
28872 H28872 50.3301 19.643 9.48147 H 0.0 **** 0.1268
28873 H28873 50.48 14.6582 4.31697 H 0.0 **** 0.1268
28874 H28874 50.8341 16.1941 2.44745 H 0.0 **** 0.053
28875 H28875 51.4231 18.32 2.00725 H 0.0 **** 0.053
28876 H28876 48.4716 18.7736 1.50184 H 0.0 **** 0.053
28877 H28877 50.4453 16.9929 0.0212054 H 0.0 **** 0.053
28878 H28878 48.9331 17.5432 -0.715008 H 0.0 **** 0.053
28879 H28879 49.0378 15.2339 0.70359 H 0.0 **** 0.053
28880 H28880 47.5793 16.2311 0.679943 H 0.0 **** 0.053
28881 H28881 48.5168 15.4102 3.02123 H 0.0 **** 0.053
28882 H28882 47.9625 17.0784 2.89177 H 0.0 **** 0.053
28883 H28883 47.1496 3.31971 15.4904 H 0.0 **** 0.053
28884 H28884 46.4626 4.79343 13.6494 H 0.0 **** 0.053
28885 H28885 47.5886 4.0015 12.5271 H 0.0 **** 0.053
28886 H28886 48.2189 4.98327 13.8677 H 0.0 **** 0.053
28887 H28887 46.3265 1.13155 14.6132 H 0.0 **** 0.053
28888 H28888 46.5929 1.69106 12.9432 H 0.0 **** 0.053
28889 H28889 45.3668 2.48448 13.9545 H 0.0 **** 0.053
28890 H28890 52.4839 9.09717 6.66776 H 0.0 **** 0.41
28891 H28891 50.2924 22.6341 7.04377 H 0.0 **** 0.1268
28892 H28892 50.418 24.9215 6.11508 H 0.0 **** 0.1268
28893 H28893 50.5897 26.4342 4.17035 H 0.0 **** 0.1268
28894 H28894 50.7756 27.9529 2.24537 H 0.0 **** 0.1268
28895 H28895 50.8971 28.3005 -0.210196 H 0.0 **** 0.1268
28896 H28896 50.7516 25.4697 -4.04185 H 0.0 **** 0.1268
28897 H28897 50.9193 27.3808 -2.49701 H 0.0 **** 0.1268
28898 H28898 49.8613 19.2109 -1.52904 H 0.0 **** 0.1268
28899 H28899 51.0089 19.5002 -3.17765 H 0.0 **** 0.053
28900 H28900 49.4611 19.9253 -3.91409 H 0.0 **** 0.053
28901 H28901 51.1922 19.6792 -5.67274 H 0.0 **** 0.053
28902 H28902 52.2368 20.8497 -4.83865 H 0.0 **** 0.053
28903 H28903 49.4415 21.4368 -5.97521 H 0.0 **** 0.053
28904 H28904 50.9508 22.0395 -6.67067 H 0.0 **** 0.053
28905 C28905 65.5585 14.802 49.3037 C.3 0.0 **** 0.054
28906 C28906 66.526 15.4226 50.3387 C.3 0.0 **** -0.106
28907 C28907 66.8468 16.8869 49.9745 C.3 0.0 **** -0.053
28908 C28908 67.0423 16.9929 48.4533 C.3 0.0 **** -0.053
28909 C28909 65.7365 16.5589 47.738 C.3 0.0 **** 0.054
28910 O28910 64.8493 15.8148 48.5818 O.3 0.0 **** -0.32
28911 C28911 68.2606 16.1667 47.9895 C.3 0.0 **** -0.053
28912 C28912 69.4376 16.225 49.0049 C.3 0.0 **** 0.107
28913 C28913 69.3501 17.4712 49.8695 C.3 0.0 **** -0.106
28914 C28914 68.079 17.4369 50.7374 C.3 0.0 **** -0.106
28915 O28915 70.7122 16.247 48.3437 O.3 0.0 **** -0.32
28916 C28916 70.8016 15.3002 47.2655 C.3 0.0 **** 0.107
28917 C28917 69.9565 15.831 46.0936 C.3 0.0 **** -0.053
28918 C28918 68.7522 16.6589 46.631 C.3 0.0 **** -0.106
28919 C28919 69.5775 14.7918 45.0911 C.2 0.0 **** 0.0
28920 C28920 69.8012 13.4369 45.2769 C.2 0.0 **** 0.0
28921 C28921 70.2947 12.9212 46.529 C.2 0.0 **** 0.0
28922 C28922 70.4734 13.8626 47.6988 C.3 0.0 **** -0.053
28923 C28923 70.4488 11.5627 46.744 C.2 0.0 **** 0.0
28924 C28924 70.1656 10.6272 45.6813 C.2 0.0 **** 0.0
28925 C28925 69.7199 11.1623 44.4347 C.2 0.0 **** 0.232
28926 C28926 69.5175 12.4959 44.2107 C.2 0.0 **** 0.0
28927 C28927 68.996 12.9834 42.8828 C.3 0.0 **** -0.106
28928 C28928 69.4042 14.4323 42.6146 C.3 0.0 **** -0.106
28929 C28929 69.0021 15.3093 43.8028 C.3 0.0 **** -0.106
28930 O28930 69.4331 10.3069 43.3881 O.3 0.0 **** -0.464
28931 C28931 69.6894 8.96141 43.4939 C.2 0.0 **** 0.232
28932 C28932 70.0813 8.37339 44.7102 C.2 0.0 **** 0.0
28933 C28933 70.2884 9.24198 45.8445 C.2 0.0 **** 0.0
28934 C28934 71.4311 13.3146 48.7302 C.2 0.0 **** 0.0
28935 C28935 71.2753 11.9 49.059 C.2 0.0 **** 0.0
28936 C28936 70.8672 11.0319 48.0444 C.2 0.0 **** 0.0
28937 C28937 71.7376 11.475 50.3789 C.2 0.0 **** 0.0
28938 C28938 72.7433 12.1743 50.9812 C.2 0.0 **** 0.0
28939 C28939 73.2791 13.4375 50.3911 C.3 0.0 **** -0.106
28940 C28940 72.3891 14.0404 49.3489 C.2 0.0 **** -0.1268
28941 C28941 73.3043 11.6912 52.2894 C.3 0.0 **** -0.106
28942 C28942 73.2137 10.1648 52.3747 C.3 0.0 **** -0.106
28943 C28943 71.7988 9.72571 52.0877 C.2 0.0 **** 0.0
28944 C28944 71.0902 10.3799 51.1369 C.2 0.0 **** 0.0
28945 C28945 69.6119 10.1403 50.9348 C.3 0.0 **** -0.106
28946 C28946 68.9852 9.2323 51.999 C.3 0.0 **** -0.053
28947 C28947 69.9289 8.05873 52.2843 C.3 0.0 **** -0.106
28948 C28948 71.2365 8.58128 52.879 C.3 0.0 **** -0.106
28949 C28949 70.6833 8.75723 47.1353 C.2 0.0 **** -0.012
28950 C28950 70.9765 9.61389 48.1678 C.2 0.0 **** -0.1268
28951 C28951 70.3026 6.97249 44.6984 C.2 0.0 **** 0.0
28952 C28952 70.6734 6.27508 45.9036 C.2 0.0 **** -0.012
28953 S28953 70.7475 7.04321 47.4817 S.2 0.0 **** 0.024
28954 C28954 70.9303 4.92792 45.8898 C.2 0.0 **** -0.1268
28955 C28955 70.8436 4.17287 44.6905 C.2 0.0 **** 0.0
28956 C28956 70.4481 4.81725 43.4782 C.2 0.0 **** 0.0
28957 C28957 70.167 6.21131 43.4837 C.2 0.0 **** 0.0
28958 C28958 70.3338 4.04757 42.2909 C.2 0.0 **** 0.0
28959 C28959 70.6498 2.65438 42.3082 C.2 0.0 **** 0.0
28960 C28960 71.1145 2.04318 43.5286 C.2 0.0 **** 0.0
28961 C28961 71.1523 2.81616 44.6994 C.2 0.0 **** -0.1268
28962 C28962 71.5278 0.678239 43.4978 C.2 0.0 **** 0.0
28963 C28963 71.323 -0.0663035 42.3516 C.2 0.0 **** 0.042
28964 C28964 70.7572 0.463767 41.1535 C.2 0.0 **** 0.0
28965 C28965 70.4867 1.86083 41.1339 C.2 0.0 **** 0.0
28966 C28966 69.7547 6.8567 42.2692 C.2 0.0 **** 0.0
28967 C28967 69.528 8.24745 42.3267 C.2 0.0 **** -0.1268
28968 C28968 69.8964 4.68036 41.0806 C.2 0.0 **** 0.0
28969 C28969 69.6034 6.07688 41.0586 C.2 0.0 **** 0.0
28970 C28970 70.0249 2.48766 39.929 C.2 0.0 **** 0.0
28971 C28971 69.7527 3.88041 39.9074 C.2 0.0 **** 0.0
28972 C28972 70.4827 -0.337002 39.9861 C.2 0.0 **** 0.0
28973 C28973 70.0725 0.313378 38.7841 C.2 0.0 **** 0.0
28974 C28974 69.8517 1.71337 38.7515 C.2 0.0 **** 0.0
28975 O28975 71.7842 -1.36495 42.3717 O.3 0.0 **** -0.202
28976 C28976 71.3365 -2.18148 43.4906 C.3 0.0 **** 0.107
28977 C28977 71.4072 -1.40334 44.8283 C.3 0.0 **** -0.053
28978 C28978 72.2314 -0.131356 44.5825 C.3 0.0 **** 0.107
28979 C28979 71.9422 -2.2875 45.9613 C.3 0.0 **** -0.106
28980 C28980 71.3149 -3.68054 45.8436 C.3 0.0 **** -0.106
28981 C28981 71.8911 -4.41663 44.6302 C.3 0.0 **** 0.134
28982 C28982 72.1994 -3.44132 43.4449 C.3 0.0 **** -0.053
28983 C28983 72.0231 -4.17354 42.1042 C.3 0.0 **** -0.106
28984 C28984 72.5132 -5.6182 42.1875 C.3 0.0 **** -0.106
28985 C28985 71.6802 -6.39998 43.2418 C.3 0.0 **** 0.081
28986 N28986 71.0383 -5.5439 44.251 N.3 0.0 **** -0.727
28987 C28987 69.1655 6.63742 39.8068 C.2 0.0 **** 0.042
28988 C28988 69.076 5.86703 38.6576 C.2 0.0 **** 0.042
28989 C28989 69.3347 4.47202 38.6769 C.2 0.0 **** 0.0
28990 O28990 68.7116 6.38663 37.437 O.3 0.0 **** -0.202
28991 C28991 68.7506 7.82791 37.3549 C.3 0.0 **** 0.107
28992 C28992 68.0656 8.37098 38.5978 C.3 0.0 **** 0.107
28993 O28993 68.8292 7.97155 39.7526 O.3 0.0 **** -0.202
28994 C28994 66.5969 7.9119 38.7112 C.3 0.0 **** -0.106
28995 C28995 65.9543 7.62023 37.3378 C.3 0.0 **** -0.106
28996 C28996 66.5462 8.53466 36.2594 C.3 0.0 **** -0.106
28997 C28997 68.0497 8.25191 36.0625 C.3 0.0 **** -0.106
28998 C28998 69.4278 2.32744 37.5268 C.2 0.0 **** 0.0
28999 C28999 69.1868 3.7012 37.5144 C.2 0.0 **** -0.1268
29000 C29000 69.8698 -0.464885 37.6101 C.2 0.0 **** 0.0
29001 C29001 69.4792 0.184642 36.3983 C.2 0.0 **** 0.042
29002 C29002 69.2585 1.53322 36.3495 C.2 0.0 **** -0.1268
29003 C29003 70.0312 -1.85844 37.6269 C.2 0.0 **** 0.0
29004 C29004 70.3523 -2.50002 38.8302 C.2 0.0 **** 0.0
29005 C29005 70.5685 -1.74257 39.9667 C.2 0.0 **** -0.1268
29006 O29006 69.3025 -0.550433 35.2359 O.3 0.0 **** -0.0685
29007 C29007 69.5278 -1.90785 35.2221 C.2 0.0 **** 0.0265
29008 C29008 69.8651 -2.59791 36.399 C.2 0.0 **** 0.0
29009 C29009 70.428 -4.00026 38.9331 C.3 0.0 **** -0.053
29010 C29010 70.5841 -4.72095 37.5741 C.3 0.0 **** -0.053
29011 C29011 70.0842 -3.97767 36.3639 C.2 0.0 **** 0.0
29012 C29012 69.9337 -6.11714 37.5923 C.3 0.0 **** -0.053
29013 C29013 70.2123 -6.80043 38.9261 C.3 0.0 **** -0.106
29014 C29014 69.4677 -6.04917 40.058 C.3 0.0 **** -0.106
29015 C29015 69.2276 -4.5673 39.7125 C.3 0.0 **** -0.106
29016 C29016 69.9615 -4.68449 35.1581 C.2 0.0 **** 0.0
29017 C29017 69.6841 -3.97624 33.9546 C.2 0.0 **** 0.0
29018 C29018 69.444 -2.56642 33.9807 C.2 0.0 **** 0.0
29019 C29019 70.3018 -6.84562 36.3289 C.2 0.0 **** 0.0
29020 C29020 70.1909 -6.10333 35.1203 C.2 0.0 **** 0.0
29021 C29021 67.5606 8.80007 51.5928 C.3 0.0 **** -0.053
29022 C29022 67.5568 7.758 50.4668 C.3 0.0 **** -0.159
29023 C29023 66.7757 8.27951 52.8013 C.3 0.0 **** -0.159
29024 O29024 72.4696 0.492573 45.8453 O.3 0.0 **** -0.57
29025 C29025 69.1574 -1.8851 32.7528 C.2 0.0 **** -0.1268
29026 C29026 69.1455 -2.56137 31.5646 C.2 0.0 **** -0.1268
29027 C29027 69.4261 -3.96631 31.496 C.2 0.0 **** 0.0
29028 C29028 69.6932 -4.67184 32.7136 C.2 0.0 **** 0.0
29029 C29029 69.9979 -6.05829 32.6727 C.2 0.0 **** 0.0
29030 C29030 70.0368 -6.7415 31.4344 C.2 0.0 **** 0.0
29031 C29031 69.7627 -6.02937 30.2223 C.2 0.0 **** 0.0
29032 C29032 69.4622 -4.65904 30.2815 C.2 0.0 **** -0.1268
29033 C29033 69.8072 -6.73645 28.9809 C.2 0.0 **** -0.1268
29034 C29034 70.1077 -8.07226 28.9426 C.2 0.0 **** -0.1268
29035 C29035 70.3816 -8.803 30.139 C.2 0.0 **** 0.0
29036 C29036 70.3419 -8.13414 31.3913 C.2 0.0 **** 0.0
29037 C29037 70.6006 -8.85711 32.5951 C.2 0.0 **** 0.0
29038 C29038 70.5499 -8.16913 33.8405 C.2 0.0 **** 0.0
29039 C29039 70.2545 -6.77656 33.8828 C.2 0.0 **** 0.0
29040 C29040 70.8889 -10.2536 32.5545 C.2 0.0 **** 0.0
29041 C29041 70.9417 -10.8835 31.2801 C.2 0.0 **** -0.1268
29042 C29042 70.6983 -10.1798 30.119 C.2 0.0 **** -0.1268
29043 C29043 70.6321 -8.18144 36.2812 C.2 0.0 **** -0.1268
29044 C29044 70.8065 -8.869 35.0515 C.2 0.0 **** 0.0
29045 C29045 71.1561 -10.9527 33.7947 C.2 0.0 **** 0.052
29046 C29046 71.1772 -10.2488 35.0064 C.2 0.0 **** 0.0
29047 C29047 71.5924 -10.9118 36.3009 C.3 0.0 **** -0.106
29048 C29048 72.4944 -12.117 36.0643 C.3 0.0 **** -0.106
29049 C29049 71.7738 -13.0808 35.1364 C.3 0.0 **** -0.086
29050 C29050 71.3164 -12.4383 33.8327 C.2 0.0 **** 0.347
29051 O29051 71.0421 -13.1819 32.8895 O.2 0.0 **** -0.419
29052 H29052 64.791 14.1821 49.787 H 0.0 **** 0.053
29053 H29053 66.1123 14.1625 48.5876 H 0.0 **** 0.053
29054 H29054 66.0891 15.3933 51.3486 H 0.0 **** 0.053
29055 H29055 67.4549 14.8315 50.3732 H 0.0 **** 0.053
29056 H29056 65.9631 17.4858 50.2387 H 0.0 **** 0.053
29057 H29057 67.2389 18.0476 48.1981 H 0.0 **** 0.053
29058 H29058 65.9862 15.9502 46.8439 H 0.0 **** 0.053
29059 H29059 65.1527 17.4304 47.4103 H 0.0 **** 0.053
29060 H29060 67.9334 15.1205 47.8795 H 0.0 **** 0.053
29061 H29061 69.4048 15.3375 49.666 H 0.0 **** 0.053
29062 H29062 69.343 18.3524 49.2078 H 0.0 **** 0.053
29063 H29063 70.2493 17.5473 50.4975 H 0.0 **** 0.053
29064 H29064 67.8714 18.4524 51.1067 H 0.0 **** 0.053
29065 H29065 68.2585 16.8111 51.6272 H 0.0 **** 0.053
29066 H29066 71.8618 15.311 46.9731 H 0.0 **** 0.053
29067 H29067 70.5898 16.5596 45.5522 H 0.0 **** 0.053
29068 H29068 67.9279 16.648 45.9026 H 0.0 **** 0.053
29069 H29069 69.0643 17.7087 46.7475 H 0.0 **** 0.053
29070 H29070 69.4781 13.8665 48.1877 H 0.0 **** 0.053
29071 H29071 69.3427 12.3195 42.0778 H 0.0 **** 0.053
29072 H29072 67.8916 12.9147 42.881 H 0.0 **** 0.053
29073 H29073 68.9377 14.796 41.6863 H 0.0 **** 0.053
29074 H29074 70.497 14.4853 42.482 H 0.0 **** 0.053
29075 H29075 67.8959 15.3414 43.8654 H 0.0 **** 0.053
29076 H29076 69.3242 16.3535 43.6509 H 0.0 **** 0.053
29077 H29077 74.2877 13.2531 49.9596 H 0.0 **** 0.053
29078 H29078 73.4722 14.1638 51.2047 H 0.0 **** 0.053
29079 H29079 72.5375 15.0911 49.105 H 0.0 **** 0.1268
29080 H29080 74.3449 12.0353 52.4008 H 0.0 **** 0.053
29081 H29081 72.7298 12.1441 53.1229 H 0.0 **** 0.053
29082 H29082 73.5288 9.80406 53.3663 H 0.0 **** 0.053
29083 H29083 73.9048 9.71814 51.634 H 0.0 **** 0.053
29084 H29084 69.1012 11.1199 50.9353 H 0.0 **** 0.053
29085 H29085 69.4173 9.72145 49.9357 H 0.0 **** 0.053
29086 H29086 68.8989 9.81582 52.9347 H 0.0 **** 0.053
29087 H29087 70.1459 7.53371 51.3397 H 0.0 **** 0.053
29088 H29088 69.4605 7.33072 52.9643 H 0.0 **** 0.053
29089 H29089 71.9935 7.77747 52.9299 H 0.0 **** 0.053
29090 H29090 71.0763 8.89812 53.9281 H 0.0 **** 0.053
29091 H29091 71.3431 9.20223 49.1079 H 0.0 **** 0.1268
29092 H29092 71.2183 4.41079 46.8079 H 0.0 **** 0.1268
29093 H29093 71.3966 2.34902 45.6484 H 0.0 **** 0.1268
29094 H29094 69.2269 8.79904 41.4483 H 0.0 **** 0.1268
29095 H29095 70.287 -2.46239 43.2826 H 0.0 **** 0.053
29096 H29096 70.3897 -1.07888 45.0987 H 0.0 **** 0.053
29097 H29097 73.2038 -0.456891 44.1585 H 0.0 **** 0.053
29098 H29098 73.041 -2.36249 45.8929 H 0.0 **** 0.053
29099 H29099 71.7183 -1.81784 46.9275 H 0.0 **** 0.053
29100 H29100 70.222 -3.576 45.7175 H 0.0 **** 0.053
29101 H29101 71.4693 -4.28834 46.7456 H 0.0 **** 0.053
29102 H29102 72.8555 -4.85933 44.9326 H 0.0 **** 0.053
29103 H29103 73.2487 -3.11243 43.534 H 0.0 **** 0.053
29104 H29104 70.9503 -4.17972 41.8452 H 0.0 **** 0.053
29105 H29105 72.5318 -3.62048 41.303 H 0.0 **** 0.053
29106 H29106 73.5791 -5.62061 42.4666 H 0.0 **** 0.053
29107 H29107 72.4402 -6.10993 41.2043 H 0.0 **** 0.053
29108 H29108 72.3288 -7.12313 43.7647 H 0.0 **** 0.053
29109 H29109 70.8868 -6.98187 42.7496 H 0.0 **** 0.053
29110 H29110 70.1514 -5.18766 43.8924 H 0.0 **** 0.353
29111 H29111 69.8087 8.13833 37.3609 H 0.0 **** 0.053
29112 H29112 68.1366 9.46797 38.5953 H 0.0 **** 0.053
29113 H29113 66.569 7.01043 39.3403 H 0.0 **** 0.053
29114 H29114 66.0351 8.69408 39.2425 H 0.0 **** 0.053
29115 H29115 64.8643 7.75159 37.4034 H 0.0 **** 0.053
29116 H29116 66.1421 6.5725 37.0601 H 0.0 **** 0.053
29117 H29117 66.4014 9.58559 36.5632 H 0.0 **** 0.053
29118 H29118 66.0184 8.40974 35.3025 H 0.0 **** 0.053
29119 H29119 68.5568 9.1406 35.6579 H 0.0 **** 0.053
29120 H29120 68.1988 7.43903 35.3352 H 0.0 **** 0.053
29121 H29121 68.8733 4.18389 36.5901 H 0.0 **** 0.1268
29122 H29122 68.9492 2.00663 35.4171 H 0.0 **** 0.1268
29123 H29123 70.8298 -2.25953 40.8766 H 0.0 **** 0.1268
29124 H29124 71.3177 -4.24399 39.5337 H 0.0 **** 0.053
29125 H29125 71.6675 -4.88295 37.4055 H 0.0 **** 0.053
29126 H29126 68.8386 -5.95825 37.5226 H 0.0 **** 0.053
29127 H29127 71.3011 -6.79167 39.1037 H 0.0 **** 0.053
29128 H29128 69.8994 -7.85409 38.9089 H 0.0 **** 0.053
29129 H29129 70.0569 -6.11427 40.9836 H 0.0 **** 0.053
29130 H29130 68.5027 -6.53953 40.2585 H 0.0 **** 0.053
29131 H29131 69.0713 -3.97527 40.6269 H 0.0 **** 0.053
29132 H29132 68.3175 -4.44428 39.1041 H 0.0 **** 0.053
29133 H29133 67.0491 9.7068 51.2213 H 0.0 **** 0.053
29134 H29134 66.5308 7.5771 50.1127 H 0.0 **** 0.053
29135 H29135 67.9577 6.79847 50.8283 H 0.0 **** 0.053
29136 H29136 68.1637 8.06896 49.6029 H 0.0 **** 0.053
29137 H29137 66.7398 9.03157 53.6052 H 0.0 **** 0.053
29138 H29138 67.2449 7.36996 53.2091 H 0.0 **** 0.053
29139 H29139 65.7425 8.02291 52.5221 H 0.0 **** 0.053
29140 H29140 73.1171 1.19959 45.7005 H 0.0 **** 0.41
29141 H29141 68.9578 -0.814086 32.7839 H 0.0 **** 0.1268
29142 H29142 68.9307 -2.03346 30.6338 H 0.0 **** 0.1268
29143 H29143 69.2598 -4.11963 29.3535 H 0.0 **** 0.1268
29144 H29144 69.598 -6.18498 28.0625 H 0.0 **** 0.1268
29145 H29145 70.1473 -8.60541 27.9907 H 0.0 **** 0.1268
29146 H29146 71.1681 -11.9434 31.2361 H 0.0 **** 0.1268
29147 H29147 70.7508 -10.692 29.156 H 0.0 **** 0.1268
29148 H29148 70.7178 -8.73006 37.2153 H 0.0 **** 0.1268
29149 H29149 72.1124 -10.1768 36.9313 H 0.0 **** 0.053
29150 H29150 70.6943 -11.2272 36.8649 H 0.0 **** 0.053
29151 H29151 72.7538 -12.6 37.0186 H 0.0 **** 0.053
29152 H29152 73.4338 -11.7779 35.5978 H 0.0 **** 0.053
29153 H29153 70.8609 -13.46 35.632 H 0.0 **** 0.053
29154 H29154 72.3739 -13.9618 34.8677 H 0.0 **** 0.053
29155 C29155 55.5359 51.0559 47.8805 C.3 0.0 **** 0.054
29156 C29156 55.984 49.6118 47.5548 C.3 0.0 **** -0.106
29157 C29157 56.351 48.8514 48.8459 C.3 0.0 **** -0.053
29158 C29158 57.1265 49.7952 49.7793 C.3 0.0 **** -0.053
29159 C29159 56.2327 51.0116 50.1349 C.3 0.0 **** 0.054
29160 O29160 55.1215 51.1768 49.2456 O.3 0.0 **** -0.32
29161 C29161 58.4676 50.225 49.1478 C.3 0.0 **** -0.053
29162 C29162 59.143 49.0733 48.3496 C.3 0.0 **** 0.107
29163 C29163 58.6603 47.7173 48.8359 C.3 0.0 **** -0.106
29164 C29164 57.1529 47.5541 48.5686 C.3 0.0 **** -0.106
29165 O29165 60.5724 49.0967 48.4853 O.3 0.0 **** -0.32
29166 C29166 61.1266 50.4172 48.358 C.3 0.0 **** 0.107
29167 C29167 60.7889 51.2015 49.6385 C.3 0.0 **** -0.053
29168 C29168 59.4316 50.7139 50.2253 C.3 0.0 **** -0.106
29169 C29169 60.8881 52.684 49.4936 C.2 0.0 **** 0.0
29170 C29170 61.0858 53.3187 48.2777 C.2 0.0 **** 0.0
29171 C29171 61.0687 52.587 47.0361 C.2 0.0 **** 0.0
29172 C29172 60.7243 51.1146 47.0489 C.3 0.0 **** -0.053
29173 C29173 61.1912 53.2269 45.8151 C.2 0.0 **** 0.0
29174 C29174 61.397 54.6552 45.7661 C.2 0.0 **** 0.0
29175 C29175 61.4549 55.3548 47.0097 C.2 0.0 **** 0.232
29176 C29176 61.2929 54.753 48.2268 C.2 0.0 **** 0.0
29177 C29177 61.3157 55.5653 49.4966 C.3 0.0 **** -0.106
29178 C29178 61.7257 54.717 50.7009 C.3 0.0 **** -0.106
29179 C29179 60.8445 53.4678 50.7751 C.3 0.0 **** -0.106
29180 O29180 61.6472 56.7231 47.0147 O.3 0.0 **** -0.464
29181 C29181 61.906 57.3976 45.8463 C.2 0.0 **** 0.232
29182 C29182 61.8132 56.7704 44.5905 C.2 0.0 **** 0.0
29183 C29183 61.5125 55.3588 44.5611 C.2 0.0 **** 0.0
29184 C29184 61.2218 50.4023 45.8133 C.2 0.0 **** 0.0
29185 C29185 61.0177 51.1012 44.5471 C.2 0.0 **** 0.0
29186 C29186 61.0867 52.4958 44.5492 C.2 0.0 **** 0.0
29187 C29187 60.9407 50.2758 43.3433 C.2 0.0 **** 0.0
29188 C29188 61.5911 49.0758 43.3248 C.2 0.0 **** 0.0
29189 C29189 62.2543 48.5274 44.5456 C.3 0.0 **** -0.106
29190 C29190 61.8206 49.1904 45.8161 C.2 0.0 **** -0.1268
29191 C29191 61.612 48.2614 42.0615 C.3 0.0 **** -0.106
29192 C29192 61.5695 49.1799 40.8368 C.3 0.0 **** -0.106
29193 C29193 60.4065 50.1334 40.9604 C.2 0.0 **** 0.0
29194 C29194 60.1005 50.6386 42.1791 C.2 0.0 **** 0.0
29195 C29195 58.8361 51.4297 42.4224 C.3 0.0 **** -0.106
29196 C29196 57.8847 51.4528 41.2206 C.3 0.0 **** -0.053
29197 C29197 58.6947 51.6614 39.9362 C.3 0.0 **** -0.106
29198 C29198 59.6336 50.4747 39.7201 C.3 0.0 **** -0.106
29199 C29199 61.3881 54.6138 43.3419 C.2 0.0 **** -0.012
29200 C29200 61.2072 53.2525 43.3447 C.2 0.0 **** -0.1268
29201 C29201 62.089 57.5743 43.455 C.2 0.0 **** 0.0
29202 C29202 61.9868 57.0301 42.1247 C.2 0.0 **** -0.012
29203 S29203 61.3935 55.412 41.7847 S.2 0.0 **** 0.024
29204 C29204 62.2934 57.79 41.025 C.2 0.0 **** -0.1268
29205 C29205 62.7247 59.1363 41.1558 C.2 0.0 **** 0.0
29206 C29206 62.8097 59.7269 42.454 C.2 0.0 **** 0.0
29207 C29207 62.4818 58.9519 43.6005 C.2 0.0 **** 0.0
29208 C29208 63.2117 61.0832 42.5723 C.2 0.0 **** 0.0
29209 C29209 63.5626 61.8297 41.4057 C.2 0.0 **** 0.0
29210 C29210 63.5361 61.1895 40.1141 C.2 0.0 **** 0.0
29211 C29211 63.0703 59.8686 40.0243 C.2 0.0 **** -0.1268
29212 C29212 63.9939 61.9197 38.9773 C.2 0.0 **** 0.0
29213 C29213 64.2953 63.2619 39.1103 C.2 0.0 **** 0.042
29214 C29214 64.2241 63.9708 40.3466 C.2 0.0 **** 0.0
29215 C29215 63.9158 63.2082 41.508 C.2 0.0 **** 0.0
29216 C29216 62.5524 59.549 44.9043 C.2 0.0 **** 0.0
29217 C29217 62.254 58.721 46.0062 C.2 0.0 **** -0.1268
29218 C29218 63.2581 61.6937 43.8691 C.2 0.0 **** 0.0
29219 C29219 62.9301 60.9406 45.0361 C.2 0.0 **** 0.0
29220 C29220 63.938 63.8268 42.8021 C.2 0.0 **** 0.0
29221 C29221 63.629 63.0687 43.9615 C.2 0.0 **** 0.0
29222 C29222 64.4728 65.3865 40.4627 C.2 0.0 **** 0.0
29223 C29223 64.54 65.971 41.7627 C.2 0.0 **** 0.0
29224 C29224 64.2822 65.1989 42.9234 C.2 0.0 **** 0.0
29225 O29225 64.7736 63.8987 37.9854 O.3 0.0 **** -0.202
29226 C29226 63.9604 63.7659 36.7853 C.3 0.0 **** 0.107
29227 C29227 63.4586 62.3127 36.5947 C.3 0.0 **** -0.053
29228 C29228 64.2498 61.418 37.5597 C.3 0.0 **** 0.107
29229 C29229 63.5444 61.8801 35.126 C.3 0.0 **** -0.106
29230 C29230 63.0834 63.0406 34.238 C.3 0.0 **** -0.106
29231 C29231 64.1274 64.1612 34.2519 C.3 0.0 **** 0.134
29232 C29232 64.8312 64.2894 35.6445 C.3 0.0 **** -0.053
29233 C29233 65.2352 65.7519 35.8951 C.3 0.0 **** -0.106
29234 C29234 65.7221 66.425 34.6129 C.3 0.0 **** -0.106
29235 C29235 64.5793 66.4463 33.5592 C.3 0.0 **** 0.081
29236 N29236 63.5499 65.4177 33.7727 N.3 0.0 **** -0.727
29237 C29237 62.996 61.6255 46.3008 C.2 0.0 **** 0.042
29238 C29238 63.4057 62.9469 46.3909 C.2 0.0 **** 0.042
29239 C29239 63.7032 63.7126 45.2339 C.2 0.0 **** 0.0
29240 O29240 63.5286 63.6104 47.5899 O.3 0.0 **** -0.202
29241 C29241 63.5267 62.7599 48.757 C.3 0.0 **** 0.107
29242 C29242 62.3806 61.7749 48.5977 C.3 0.0 **** 0.107
29243 O29243 62.644 60.9486 47.4471 O.3 0.0 **** -0.202
29244 C29244 61.011 62.4759 48.4823 C.3 0.0 **** -0.106
29245 C29245 60.9787 63.8453 49.195 C.3 0.0 **** -0.106
29246 C29246 61.9033 63.84 50.4175 C.3 0.0 **** -0.106
29247 C29247 63.3741 63.6471 49.9943 C.3 0.0 **** -0.106
29248 C29248 64.3476 65.8266 44.2112 C.2 0.0 **** 0.0
29249 C29249 64.0646 65.0634 45.3438 C.2 0.0 **** -0.1268
29250 C29250 64.856 67.3531 41.8851 C.2 0.0 **** 0.0
29251 C29251 64.9452 67.9384 43.186 C.2 0.0 **** 0.042
29252 C29252 64.6964 67.2096 44.3159 C.2 0.0 **** -0.1268
29253 C29253 65.0652 68.1525 40.7513 C.2 0.0 **** 0.0
29254 C29254 64.9154 67.5917 39.4762 C.2 0.0 **** 0.0
29255 C29255 64.6275 66.2444 39.3567 C.2 0.0 **** -0.1268
29256 O29256 65.2784 69.2767 43.3299 O.3 0.0 **** -0.0685
29257 C29257 65.5566 70.0537 42.2287 C.2 0.0 **** 0.0265
29258 C29258 65.4343 69.5362 40.9278 C.2 0.0 **** 0.0
29259 C29259 65.0171 68.4253 38.2265 C.3 0.0 **** -0.053
29260 C29260 65.7326 69.7813 38.4266 C.3 0.0 **** -0.053
29261 C29261 65.7163 70.3442 39.823 C.2 0.0 **** 0.0
29262 C29262 65.1968 70.8554 37.4613 C.3 0.0 **** -0.053
29263 C29263 64.9583 70.2426 36.0861 C.3 0.0 **** -0.106
29264 C29264 63.7913 69.227 36.1673 C.3 0.0 **** -0.106
29265 C29265 63.6355 68.6318 37.5796 C.3 0.0 **** -0.106
29266 C29266 66.1148 71.6774 40.003 C.2 0.0 **** 0.0
29267 C29267 66.3016 72.1821 41.321 C.2 0.0 **** 0.0
29268 C29268 66.0025 71.3689 42.4591 C.2 0.0 **** 0.0
29269 C29269 66.0693 72.077 37.5545 C.2 0.0 **** 0.0
29270 C29270 66.4092 72.508 38.867 C.2 0.0 **** 0.0
29271 C29271 56.7596 52.4897 41.4215 C.3 0.0 **** -0.053
29272 C29272 57.252 53.9346 41.2674 C.3 0.0 **** -0.159
29273 C29273 55.5873 52.2236 40.4716 C.3 0.0 **** -0.159
29274 O29274 63.9387 60.0569 37.257 O.3 0.0 **** -0.57
29275 C29275 66.1918 71.9107 43.7724 C.2 0.0 **** -0.1268
29276 C29276 66.6835 73.175 43.9425 C.2 0.0 **** -0.1268
29277 C29277 67.0363 74.0016 42.8247 C.2 0.0 **** 0.0
29278 C29278 66.8344 73.4887 41.5027 C.2 0.0 **** 0.0
29279 C29279 67.1975 74.276 40.3779 C.2 0.0 **** 0.0
29280 C29280 67.7559 75.5629 40.5613 C.2 0.0 **** 0.0
29281 C29281 67.949 76.0702 41.8868 C.2 0.0 **** 0.0
29282 C29282 67.5833 75.2786 42.9873 C.2 0.0 **** -0.1268
29283 C29283 68.5149 77.3723 42.0521 C.2 0.0 **** -0.1268
29284 C29284 68.8708 78.1277 40.9663 C.2 0.0 **** -0.1268
29285 C29285 68.6846 77.6431 39.6356 C.2 0.0 **** 0.0
29286 C29286 68.1206 76.3555 39.4329 C.2 0.0 **** 0.0
29287 C29287 67.9172 75.866 38.1071 C.2 0.0 **** 0.0
29288 C29288 67.3449 74.5751 37.9258 C.2 0.0 **** 0.0
29289 C29289 66.9895 73.7798 39.0525 C.2 0.0 **** 0.0
29290 C29290 68.2657 76.6649 36.9778 C.2 0.0 **** 0.0
29291 C29291 68.8486 77.9395 37.2212 C.2 0.0 **** -0.1268
29292 C29292 69.0501 78.4056 38.5036 C.2 0.0 **** -0.1268
29293 C29293 66.4561 72.8291 36.4679 C.2 0.0 **** -0.1268
29294 C29294 67.1357 74.0669 36.6143 C.2 0.0 **** 0.0
29295 C29295 68.0546 76.1319 35.6475 C.2 0.0 **** 0.052
29296 C29296 67.5607 74.8307 35.4832 C.2 0.0 **** 0.0
29297 C29297 67.4621 74.187 34.1181 C.3 0.0 **** -0.106
29298 C29298 68.4416 74.7984 33.1238 C.3 0.0 **** -0.106
29299 C29299 68.1944 76.2966 33.0661 C.3 0.0 **** -0.086
29300 C29300 68.2589 76.9738 34.4295 C.2 0.0 **** 0.347
29301 O29301 68.4163 78.1954 34.4588 O.2 0.0 **** -0.419
29302 H29302 54.6711 51.3585 47.2744 H 0.0 **** 0.053
29303 H29303 56.3582 51.7726 47.6832 H 0.0 **** 0.053
29304 H29304 55.1855 49.0634 47.032 H 0.0 **** 0.053
29305 H29305 56.8512 49.641 46.8762 H 0.0 **** 0.053
29306 H29306 55.4068 48.5909 49.346 H 0.0 **** 0.053
29307 H29307 57.3563 49.254 50.7123 H 0.0 **** 0.053
29308 H29308 56.8447 51.9377 50.1303 H 0.0 **** 0.053
29309 H29309 55.7842 50.8991 51.132 H 0.0 **** 0.053
29310 H29310 58.2618 51.0632 48.463 H 0.0 **** 0.053
29311 H29311 58.8947 49.1682 47.2748 H 0.0 **** 0.053
29312 H29312 58.8725 47.6402 49.9145 H 0.0 **** 0.053
29313 H29313 59.2331 46.9223 48.3373 H 0.0 **** 0.053
29314 H29314 56.7671 46.7322 49.1902 H 0.0 **** 0.053
29315 H29315 56.9963 47.2531 47.5196 H 0.0 **** 0.053
29316 H29316 62.2143 50.2592 48.314 H 0.0 **** 0.053
29317 H29317 61.5484 50.9178 50.3921 H 0.0 **** 0.053
29318 H29318 58.9639 51.514 50.8179 H 0.0 **** 0.053
29319 H29319 59.6206 49.8739 50.9123 H 0.0 **** 0.053
29320 H29320 59.6179 51.1027 46.9754 H 0.0 **** 0.053
29321 H29321 61.9843 56.4299 49.376 H 0.0 **** 0.053
29322 H29322 60.3068 55.9822 49.6771 H 0.0 **** 0.053
29323 H29323 61.647 55.305 51.628 H 0.0 **** 0.053
29324 H29324 62.7779 54.4088 50.5893 H 0.0 **** 0.053
29325 H29325 59.8034 53.7772 50.9971 H 0.0 **** 0.053
29326 H29326 61.149 52.8177 51.6128 H 0.0 **** 0.053
29327 H29327 63.359 48.6065 44.4413 H 0.0 **** 0.053
29328 H29328 62.0744 47.4357 44.5959 H 0.0 **** 0.053
29329 H29329 62.002 48.6601 46.7494 H 0.0 **** 0.1268
29330 H29330 62.5058 47.6175 42.0456 H 0.0 **** 0.053
29331 H29331 60.7335 47.5847 42.0484 H 0.0 **** 0.053
29332 H29332 61.4841 48.5964 39.9068 H 0.0 **** 0.053
29333 H29333 62.5179 49.7478 40.7758 H 0.0 **** 0.053
29334 H29334 58.3198 50.9933 43.2961 H 0.0 **** 0.053
29335 H29335 59.0729 52.4621 42.7216 H 0.0 **** 0.053
29336 H29336 57.4073 50.4578 41.1467 H 0.0 **** 0.053
29337 H29337 59.2927 52.5823 40.0336 H 0.0 **** 0.053
29338 H29338 58.0317 51.7911 39.0671 H 0.0 **** 0.053
29339 H29339 60.347 50.6824 38.9018 H 0.0 **** 0.053
29340 H29340 59.0565 49.5901 39.3867 H 0.0 **** 0.053
29341 H29341 61.1919 52.7197 42.3942 H 0.0 **** 0.1268
29342 H29342 62.2198 57.3648 40.0214 H 0.0 **** 0.1268
29343 H29343 62.942 59.4053 39.051 H 0.0 **** 0.1268
29344 H29344 62.2982 59.1012 47.0162 H 0.0 **** 0.1268
29345 H29345 63.0936 64.4419 36.9092 H 0.0 **** 0.053
29346 H29346 62.4026 62.2635 36.9048 H 0.0 **** 0.053
29347 H29347 65.3253 61.5916 37.3483 H 0.0 **** 0.053
29348 H29348 64.5831 61.6039 34.8754 H 0.0 **** 0.053
29349 H29349 62.9343 60.9807 34.9742 H 0.0 **** 0.053
29350 H29350 62.1257 63.4338 34.6244 H 0.0 **** 0.053
29351 H29351 62.898 62.7281 33.2012 H 0.0 **** 0.053
29352 H29352 64.914 63.8967 33.5247 H 0.0 **** 0.053
29353 H29353 65.7425 63.6678 35.628 H 0.0 **** 0.053
29354 H29354 64.3538 66.3012 36.2686 H 0.0 **** 0.053
29355 H29355 65.9916 65.8031 36.6899 H 0.0 **** 0.053
29356 H29356 66.5896 65.8691 34.2223 H 0.0 **** 0.053
29357 H29357 66.0678 67.4503 34.8201 H 0.0 **** 0.053
29358 H29358 65.0028 66.3068 32.5501 H 0.0 **** 0.053
29359 H29359 64.0744 67.4238 33.5602 H 0.0 **** 0.053
29360 H29360 62.8608 65.7494 34.4488 H 0.0 **** 0.353
29361 H29361 64.4798 62.2054 48.7728 H 0.0 **** 0.053
29362 H29362 62.3934 61.0712 49.4422 H 0.0 **** 0.053
29363 H29363 60.7806 62.6005 47.4143 H 0.0 **** 0.053
29364 H29364 60.2476 61.804 48.9012 H 0.0 **** 0.053
29365 H29365 59.9465 64.0854 49.4895 H 0.0 **** 0.053
29366 H29366 61.3117 64.6291 48.4987 H 0.0 **** 0.053
29367 H29367 61.5993 63.0212 51.0919 H 0.0 **** 0.053
29368 H29368 61.8035 64.7724 50.9922 H 0.0 **** 0.053
29369 H29369 63.9559 63.2098 50.8195 H 0.0 **** 0.053
29370 H29370 63.8379 64.616 49.7534 H 0.0 **** 0.053
29371 H29371 64.1189 65.523 46.3294 H 0.0 **** 0.1268
29372 H29372 64.7582 67.6794 45.2982 H 0.0 **** 0.1268
29373 H29373 64.5327 65.8339 38.3638 H 0.0 **** 0.1268
29374 H29374 65.6076 67.8515 37.4959 H 0.0 **** 0.053
29375 H29375 66.8009 69.6353 38.17 H 0.0 **** 0.053
29376 H29376 64.2121 71.1758 37.8577 H 0.0 **** 0.053
29377 H29377 65.8865 69.7439 35.7589 H 0.0 **** 0.053
29378 H29378 64.7294 71.0151 35.3382 H 0.0 **** 0.053
29379 H29379 63.9691 68.4139 35.4493 H 0.0 **** 0.053
29380 H29380 62.8508 69.7157 35.87 H 0.0 **** 0.053
29381 H29381 63.1019 67.6702 37.5395 H 0.0 **** 0.053
29382 H29382 63.0353 69.2929 38.2246 H 0.0 **** 0.053
29383 H29383 56.3932 52.3619 42.4565 H 0.0 **** 0.053
29384 H29384 56.4596 54.6438 41.5502 H 0.0 **** 0.053
29385 H29385 57.5235 54.1396 40.2204 H 0.0 **** 0.053
29386 H29386 58.135 54.1473 41.889 H 0.0 **** 0.053
29387 H29387 55.2 51.2 40.5961 H 0.0 **** 0.053
29388 H29388 55.9007 52.3418 39.4221 H 0.0 **** 0.053
29389 H29389 54.7624 52.9293 40.6528 H 0.0 **** 0.053
29390 H29390 64.5555 59.5015 37.7582 H 0.0 **** 0.41
29391 H29391 65.9443 71.2908 44.6339 H 0.0 **** 0.1268
29392 H29392 66.8287 73.5778 44.9465 H 0.0 **** 0.1268
29393 H29393 67.7382 75.668 43.9959 H 0.0 **** 0.1268
29394 H29394 68.6592 77.7498 43.066 H 0.0 **** 0.1268
29395 H29395 69.3093 79.1186 41.0991 H 0.0 **** 0.1268
29396 H29396 69.1252 78.5526 36.3702 H 0.0 **** 0.1268
29397 H29397 69.5038 79.3871 38.6565 H 0.0 **** 0.1268
29398 H29398 66.1922 72.4804 35.4731 H 0.0 **** 0.1268
29399 H29399 67.6541 73.109 34.2136 H 0.0 **** 0.053
29400 H29400 66.4307 74.2874 33.7304 H 0.0 **** 0.053
29401 H29401 68.3259 74.336 32.1317 H 0.0 **** 0.053
29402 H29402 69.4712 74.6004 33.4641 H 0.0 **** 0.053
29403 H29403 67.1796 76.49 32.6718 H 0.0 **** 0.053
29404 H29404 68.8939 76.8313 32.4079 H 0.0 **** 0.053
29405 C29405 49.9002 14.1644 75.2355 C.3 0.0 **** 0.054
29406 C29406 48.9813 15.404 75.3423 C.3 0.0 **** -0.106
29407 C29407 47.7872 15.1176 76.276 C.3 0.0 **** -0.053
29408 C29408 47.2719 13.6942 76.0073 C.3 0.0 **** -0.053
29409 C29409 48.406 12.6765 76.2953 C.3 0.0 **** 0.054
29410 O29410 49.7065 13.2761 76.3415 O.3 0.0 **** -0.32
29411 C29411 46.7244 13.5623 74.5704 C.3 0.0 **** -0.053
29412 C29412 45.9735 14.8417 74.1023 C.3 0.0 **** 0.107
29413 C29413 45.4695 15.643 75.2905 C.3 0.0 **** -0.106
29414 C29414 46.6506 16.1616 76.131 C.3 0.0 **** -0.106
29415 O29415 44.8378 14.5241 73.2828 O.3 0.0 **** -0.32
29416 C29416 45.1199 13.5135 72.3 C.3 0.0 **** 0.107
29417 C29417 45.2305 12.1606 73.0255 C.3 0.0 **** -0.053
29418 C29418 45.7806 12.3673 74.4674 C.3 0.0 **** -0.106
29419 C29419 45.9471 11.1056 72.2496 C.2 0.0 **** 0.0
29420 C29420 46.617 11.356 71.0626 C.2 0.0 **** 0.0
29421 C29421 46.787 12.6975 70.5638 C.2 0.0 **** 0.0
29422 C29422 46.3175 13.8646 71.4029 C.3 0.0 **** -0.053
29423 C29423 47.5189 12.9584 69.4186 C.2 0.0 **** 0.0
29424 C29424 48.0874 11.8684 68.6613 C.2 0.0 **** 0.0
29425 C29425 47.8697 10.5441 69.1492 C.2 0.0 **** 0.232
29426 C29426 47.1884 10.2624 70.3007 C.2 0.0 **** 0.0
29427 C29427 47.0421 8.84086 70.7809 C.3 0.0 **** -0.106
29428 C29428 45.808 8.66966 71.6673 C.3 0.0 **** -0.106
29429 C29429 45.8326 9.70835 72.7912 C.3 0.0 **** -0.106
29430 O29430 48.3964 9.46801 68.4608 O.3 0.0 **** -0.464
29431 C29431 49.0195 9.64911 67.25 C.2 0.0 **** 0.232
29432 C29432 49.3046 10.931 66.7458 C.2 0.0 **** 0.0
29433 C29433 48.8494 12.0718 67.5044 C.2 0.0 **** 0.0
29434 C29434 46.1019 15.1103 70.5764 C.2 0.0 **** 0.0
29435 C29435 47.131 15.4036 69.5823 C.2 0.0 **** 0.0
29436 C29436 47.7659 14.3278 68.9586 C.2 0.0 **** 0.0
29437 C29437 47.2845 16.8019 69.185 C.2 0.0 **** 0.0
29438 C29438 46.2036 17.6316 69.2644 C.2 0.0 **** 0.0
29439 C29439 44.9174 17.1832 69.8773 C.3 0.0 **** -0.106
29440 C29440 45.0455 15.9436 70.7072 C.2 0.0 **** -0.1268
29441 C29441 46.3127 19.0441 68.762 C.3 0.0 **** -0.106
29442 C29442 47.3096 19.1196 67.6019 C.3 0.0 **** -0.106
29443 C29443 48.6161 18.4886 68.0165 C.2 0.0 **** 0.0
29444 C29444 48.5905 17.3828 68.7979 C.2 0.0 **** 0.0
29445 C29445 49.8443 16.8158 69.4227 C.3 0.0 **** -0.106
29446 C29446 51.083 17.6963 69.2225 C.3 0.0 **** -0.053
29447 C29447 51.1039 18.2232 67.7834 C.3 0.0 **** -0.106
29448 C29448 49.8918 19.1238 67.5462 C.3 0.0 **** -0.106
29449 C29449 49.0853 13.4254 67.0933 C.2 0.0 **** -0.012
29450 C29450 48.5501 14.4896 67.7767 C.2 0.0 **** -0.1268
29451 C29451 49.9648 10.9901 65.492 C.2 0.0 **** 0.0
29452 C29452 50.3293 12.257 64.9103 C.2 0.0 **** -0.012
29453 S29453 50.125 13.7945 65.7351 S.2 0.0 **** 0.024
29454 C29454 50.9294 12.3226 63.6787 C.2 0.0 **** -0.1268
29455 C29455 51.2104 11.1483 62.9318 C.2 0.0 **** 0.0
29456 C29456 50.8953 9.8688 63.484 C.2 0.0 **** 0.0
29457 C29457 50.2846 9.78855 64.7658 C.2 0.0 **** 0.0
29458 C29458 51.2089 8.69914 62.7431 C.2 0.0 **** 0.0
29459 C29459 51.7965 8.81028 61.4456 C.2 0.0 **** 0.0
29460 C29460 52.0395 10.1148 60.8816 C.2 0.0 **** 0.0
29461 C29461 51.7803 11.249 61.6665 C.2 0.0 **** -0.1268
29462 C29462 52.5251 10.2037 59.5433 C.2 0.0 **** 0.0
29463 C29463 52.9023 9.05067 58.8811 C.2 0.0 **** 0.042
29464 C29464 52.7907 7.74308 59.4415 C.2 0.0 **** 0.0
29465 C29465 52.1649 7.64115 60.7156 C.2 0.0 **** 0.0
29466 C29466 49.9814 8.50267 65.328 C.2 0.0 **** 0.0
29467 C29467 49.3405 8.48648 66.5841 C.2 0.0 **** -0.1268
29468 C29468 50.9337 7.41113 63.3103 C.2 0.0 **** 0.0
29469 C29469 50.3253 7.30126 64.5965 C.2 0.0 **** 0.0
29470 C29470 51.9133 6.35219 61.2929 C.2 0.0 **** 0.0
29471 C29471 51.291 6.24811 62.5642 C.2 0.0 **** 0.0
29472 C29472 53.2514 6.55254 58.7708 C.2 0.0 **** 0.0
29473 C29473 52.9462 5.27923 59.3379 C.2 0.0 **** 0.0
29474 C29474 52.2774 5.17734 60.5837 C.2 0.0 **** 0.0
29475 O29475 53.3211 9.20024 57.5766 O.3 0.0 **** -0.202
29476 C29476 54.3768 10.1779 57.3557 C.3 0.0 **** 0.107
29477 C29477 54.1217 11.4819 58.1523 C.3 0.0 **** -0.053
29478 C29478 52.6737 11.4393 58.6612 C.3 0.0 **** 0.107
29479 C29479 54.4555 12.7225 57.315 C.3 0.0 **** -0.106
29480 C29480 55.7508 12.4643 56.538 C.3 0.0 **** -0.106
29481 C29481 55.5016 11.4439 55.4233 C.3 0.0 **** 0.134
29482 C29482 54.4468 10.3651 55.8411 C.3 0.0 **** -0.053
29483 C29483 54.756 9.03103 55.1415 C.3 0.0 **** -0.106
29484 C29484 55.2518 9.25046 53.7132 C.3 0.0 **** -0.106
29485 C29485 56.574 10.0679 53.7314 C.3 0.0 **** 0.081
29486 N29486 56.7625 10.8729 54.9478 N.3 0.0 **** -0.727
29487 C29487 50.0853 5.97369 65.0994 C.2 0.0 **** 0.042
29488 C29488 50.3875 4.84729 64.3497 C.2 0.0 **** 0.042
29489 C29489 51.0213 4.94576 63.084 C.2 0.0 **** 0.0
29490 O29490 50.121 3.56881 64.7825 O.3 0.0 **** -0.202
29491 C29491 49.2156 3.48434 65.9044 C.3 0.0 **** 0.107
29492 C29492 49.6702 4.50788 66.9313 C.3 0.0 **** 0.107
29493 O29493 49.5415 5.82235 66.3553 O.3 0.0 **** -0.202
29494 C29494 51.1095 4.25084 67.4244 C.3 0.0 **** -0.106
29495 C29495 51.5128 2.7627 67.3412 C.3 0.0 **** -0.106
29496 C29496 50.2945 1.85962 67.5643 C.3 0.0 **** -0.106
29497 C29497 49.2537 2.05236 66.4422 C.3 0.0 **** -0.106
29498 C29498 52.0001 3.87892 61.1259 C.2 0.0 **** 0.0
29499 C29499 51.3666 3.79171 62.3654 C.2 0.0 **** -0.1268
29500 C29500 53.3363 4.10019 58.643 C.2 0.0 **** 0.0
29501 C29501 53.0144 2.82239 59.1965 C.2 0.0 **** 0.042
29502 C29502 52.373 2.70541 60.3984 C.2 0.0 **** -0.1268
29503 C29503 54.0444 4.17169 57.4339 C.2 0.0 **** 0.0
29504 C29504 54.414 5.42369 56.9253 C.2 0.0 **** 0.0
29505 C29505 54.0184 6.57003 57.5898 C.2 0.0 **** -0.1268
29506 O29506 53.3608 1.66074 58.5231 O.3 0.0 **** -0.0685
29507 C29507 53.9916 1.7184 57.3015 C.2 0.0 **** 0.0265
29508 C29508 54.3723 2.94944 56.7406 C.2 0.0 **** 0.0
29509 C29509 55.2694 5.55798 55.6935 C.3 0.0 **** -0.053
29510 C29510 55.3094 4.29013 54.8093 C.3 0.0 **** -0.053
29511 C29511 55.017 2.98521 55.5012 C.2 0.0 **** 0.0
29512 C29512 56.6513 4.1577 54.0648 C.3 0.0 **** -0.053
29513 C29513 57.1046 5.52561 53.5678 C.3 0.0 **** -0.106
29514 C29514 57.4597 6.42449 54.7785 C.3 0.0 **** -0.106
29515 C29515 56.6954 6.01421 56.0515 C.3 0.0 **** -0.106
29516 C29516 55.296 1.79495 54.8127 C.2 0.0 **** 0.0
29517 C29517 54.8527 0.553198 55.3496 C.2 0.0 **** 0.0
29518 C29518 54.2046 0.503082 56.6237 C.2 0.0 **** 0.0
29519 C29519 56.5497 3.03611 53.0677 C.2 0.0 **** 0.0
29520 C29520 55.9555 1.83111 53.5355 C.2 0.0 **** 0.0
29521 C29521 52.3695 16.9475 69.6293 C.3 0.0 **** -0.053
29522 C29522 52.7715 15.868 68.616 C.3 0.0 **** -0.159
29523 C29523 53.529 17.9235 69.8541 C.3 0.0 **** -0.159
29524 O29524 52.3654 12.7149 59.2259 O.3 0.0 **** -0.57
29525 C29525 53.7796 -0.764376 57.1405 C.2 0.0 **** -0.1268
29526 C29526 53.9577 -1.90983 56.4157 C.2 0.0 **** -0.1268
29527 C29527 54.5629 -1.89073 55.1154 C.2 0.0 **** 0.0
29528 C29528 55.0154 -0.637915 54.5888 C.2 0.0 **** 0.0
29529 C29529 55.5964 -0.586071 53.294 C.2 0.0 **** 0.0
29530 C29530 55.7291 -1.76705 52.5264 C.2 0.0 **** 0.0
29531 C29531 55.2792 -3.01646 53.0632 C.2 0.0 **** 0.0
29532 C29532 54.7082 -3.04938 54.3456 C.2 0.0 **** -0.1268
29533 C29533 55.4212 -4.19877 52.2728 C.2 0.0 **** -0.1268
29534 C29534 55.9757 -4.14596 51.0214 C.2 0.0 **** -0.1268
29535 C29535 56.4338 -2.91169 50.4673 C.2 0.0 **** 0.0
29536 C29536 56.313 -1.71715 51.226 C.2 0.0 **** 0.0
29537 C29537 56.7797 -0.479698 50.688 C.2 0.0 **** 0.0
29538 C29538 56.6548 0.7052 51.4673 C.2 0.0 **** 0.0
29539 C29539 56.0632 0.656992 52.7619 C.2 0.0 **** 0.0
29540 C29540 57.3795 -0.431579 49.3946 C.2 0.0 **** 0.0
29541 C29541 57.4624 -1.64458 48.6561 C.2 0.0 **** -0.1268
29542 C29542 57.0037 -2.83667 49.1766 C.2 0.0 **** -0.1268
29543 C29543 57.0793 3.0873 51.7978 C.2 0.0 **** -0.1268
29544 C29544 57.1108 1.9489 50.9502 C.2 0.0 **** 0.0
29545 C29545 57.8325 0.8431 48.8766 C.2 0.0 **** 0.052
29546 C29546 57.6355 2.01335 49.6221 C.2 0.0 **** 0.0
29547 C29547 57.9626 3.37762 49.0568 C.3 0.0 **** -0.106
29548 C29548 57.932 3.3893 47.5333 C.3 0.0 **** -0.106
29549 C29549 58.8843 2.31932 47.026 C.3 0.0 **** -0.086
29550 C29550 58.6005 0.935796 47.5976 C.2 0.0 **** 0.347
29551 O29551 59.0713 -0.0383996 47.0084 O.2 0.0 **** -0.419
29552 H29552 50.9623 14.4442 75.2553 H 0.0 **** 0.053
29553 H29553 49.709 13.6183 74.2901 H 0.0 **** 0.053
29554 H29554 49.538 16.2708 75.7301 H 0.0 **** 0.053
29555 H29555 48.6172 15.6783 74.3396 H 0.0 **** 0.053
29556 H29556 48.1703 15.1435 77.3066 H 0.0 **** 0.053
29557 H29557 46.44 13.4862 76.7008 H 0.0 **** 0.053
29558 H29558 48.3982 11.8809 75.5212 H 0.0 **** 0.053
29559 H29559 48.2766 12.2027 77.2785 H 0.0 **** 0.053
29560 H29560 47.5809 13.384 73.9008 H 0.0 **** 0.053
29561 H29561 46.6583 15.4822 73.5135 H 0.0 **** 0.053
29562 H29562 44.8195 14.992 75.8971 H 0.0 **** 0.053
29563 H29563 44.848 16.4773 74.9348 H 0.0 **** 0.053
29564 H29564 46.2798 16.4558 77.1243 H 0.0 **** 0.053
29565 H29565 47.0592 17.0743 75.6667 H 0.0 **** 0.053
29566 H29566 44.2304 13.4987 71.6531 H 0.0 **** 0.053
29567 H29567 44.1965 11.7894 73.1608 H 0.0 **** 0.053
29568 H29568 46.2851 11.4542 74.8166 H 0.0 **** 0.053
29569 H29569 44.935 12.548 75.1497 H 0.0 **** 0.053
29570 H29570 47.1864 14.0858 72.0554 H 0.0 **** 0.053
29571 H29571 47.0091 8.15671 69.9208 H 0.0 **** 0.053
29572 H29572 47.9424 8.56055 71.3599 H 0.0 **** 0.053
29573 H29573 45.7715 7.64986 72.0799 H 0.0 **** 0.053
29574 H29574 44.8996 8.81719 71.061 H 0.0 **** 0.053
29575 H29575 46.6871 9.48881 73.4624 H 0.0 **** 0.053
29576 H29576 44.9298 9.63209 73.4205 H 0.0 **** 0.053
29577 H29577 44.1571 17.0228 69.0813 H 0.0 **** 0.053
29578 H29578 44.4947 18.0116 70.4788 H 0.0 **** 0.053
29579 H29579 44.2558 15.7343 71.4269 H 0.0 **** 0.1268
29580 H29580 45.3195 19.4116 68.4582 H 0.0 **** 0.053
29581 H29581 46.6544 19.7005 69.5881 H 0.0 **** 0.053
29582 H29582 47.4748 20.1623 67.2887 H 0.0 **** 0.053
29583 H29583 46.8917 18.5824 66.7286 H 0.0 **** 0.053
29584 H29584 49.6582 16.677 70.5027 H 0.0 **** 0.053
29585 H29585 50.0484 15.8044 69.0395 H 0.0 **** 0.053
29586 H29586 50.9869 18.5736 69.8892 H 0.0 **** 0.053
29587 H29587 51.0617 17.3696 67.0871 H 0.0 **** 0.053
29588 H29588 52.0365 18.7701 67.5758 H 0.0 **** 0.053
29589 H29589 49.7916 19.3728 66.474 H 0.0 **** 0.053
29590 H29590 50.0346 20.0949 68.0592 H 0.0 **** 0.053
29591 H29591 48.6954 15.496 67.3848 H 0.0 **** 0.1268
29592 H29592 51.1944 13.289 63.2438 H 0.0 **** 0.1268
29593 H29593 52.0556 12.2337 61.3017 H 0.0 **** 0.1268
29594 H29594 49.0731 7.55479 67.0605 H 0.0 **** 0.1268
29595 H29595 55.3201 9.71414 57.7 H 0.0 **** 0.053
29596 H29596 54.7738 11.4827 59.0403 H 0.0 **** 0.053
29597 H29597 52.0271 11.2785 57.7739 H 0.0 **** 0.053
29598 H29598 53.6313 12.935 56.6126 H 0.0 **** 0.053
29599 H29599 54.5404 13.5957 57.9741 H 0.0 **** 0.053
29600 H29600 56.5144 12.0649 57.2298 H 0.0 **** 0.053
29601 H29601 56.1706 13.3824 56.1045 H 0.0 **** 0.053
29602 H29602 55.0743 11.985 54.5618 H 0.0 **** 0.053
29603 H29603 53.4515 10.7132 55.5166 H 0.0 **** 0.053
29604 H29604 55.5438 8.50915 55.7117 H 0.0 **** 0.053
29605 H29605 53.8724 8.37879 55.1662 H 0.0 **** 0.053
29606 H29606 54.4785 9.79007 53.1433 H 0.0 **** 0.053
29607 H29607 55.4078 8.28593 53.2042 H 0.0 **** 0.053
29608 H29608 56.603 10.7452 52.8611 H 0.0 **** 0.053
29609 H29609 57.4413 9.39711 53.6417 H 0.0 **** 0.053
29610 H29610 57.17 10.2981 55.6864 H 0.0 **** 0.353
29611 H29611 48.208 3.75455 65.5467 H 0.0 **** 0.053
29612 H29612 48.9607 4.51205 67.771 H 0.0 **** 0.053
29613 H29613 51.7924 4.86179 66.8164 H 0.0 **** 0.053
29614 H29614 51.1855 4.61466 68.4595 H 0.0 **** 0.053
29615 H29615 52.296 2.5491 68.0833 H 0.0 **** 0.053
29616 H29616 51.9362 2.55243 66.3479 H 0.0 **** 0.053
29617 H29617 49.8409 2.10601 68.5396 H 0.0 **** 0.053
29618 H29618 50.5912 0.801692 67.6152 H 0.0 **** 0.053
29619 H29619 48.2496 1.78003 66.8003 H 0.0 **** 0.053
29620 H29620 49.4787 1.39491 65.5884 H 0.0 **** 0.053
29621 H29621 51.1408 2.8132 62.7864 H 0.0 **** 0.1268
29622 H29622 52.1479 1.7202 60.8082 H 0.0 **** 0.1268
29623 H29623 54.3024 7.5217 57.1691 H 0.0 **** 0.1268
29624 H29624 54.8404 6.36654 55.0821 H 0.0 **** 0.053
29625 H29625 54.5293 4.40269 54.0301 H 0.0 **** 0.053
29626 H29626 57.3954 3.81164 54.8103 H 0.0 **** 0.053
29627 H29627 56.2867 5.97273 52.9775 H 0.0 **** 0.053
29628 H29628 57.9726 5.4407 52.8988 H 0.0 **** 0.053
29629 H29629 57.2222 7.46966 54.5347 H 0.0 **** 0.053
29630 H29630 58.5427 6.37953 54.971 H 0.0 **** 0.053
29631 H29631 56.6446 6.85317 56.7619 H 0.0 **** 0.053
29632 H29632 57.2106 5.19422 56.5765 H 0.0 **** 0.053
29633 H29633 52.1541 16.4493 70.5923 H 0.0 **** 0.053
29634 H29634 53.6082 15.2678 69.0039 H 0.0 **** 0.053
29635 H29635 53.1024 16.3291 67.6726 H 0.0 **** 0.053
29636 H29636 51.9434 15.1825 68.3798 H 0.0 **** 0.053
29637 H29637 53.2672 18.6844 70.6063 H 0.0 **** 0.053
29638 H29638 53.7861 18.4461 68.919 H 0.0 **** 0.053
29639 H29639 54.4312 17.3947 70.1973 H 0.0 **** 0.053
29640 H29640 51.4114 12.7312 59.3987 H 0.0 **** 0.41
29641 H29641 53.3029 -0.795851 58.1201 H 0.0 **** 0.1268
29642 H29642 53.6268 -2.87012 56.8151 H 0.0 **** 0.1268
29643 H29643 54.3614 -4.00387 54.7476 H 0.0 **** 0.1268
29644 H29644 55.0744 -5.14592 52.69 H 0.0 **** 0.1268
29645 H29645 56.0749 -5.05135 50.4194 H 0.0 **** 0.1268
29646 H29646 57.9092 -1.61892 47.668 H 0.0 **** 0.1268
29647 H29647 57.0782 -3.74981 48.5822 H 0.0 **** 0.1268
29648 H29648 57.5236 4.01833 51.4563 H 0.0 **** 0.1268
29649 H29649 57.2441 4.11132 49.4484 H 0.0 **** 0.053
29650 H29650 58.9609 3.69934 49.409 H 0.0 **** 0.053
29651 H29651 58.206 4.38313 47.1479 H 0.0 **** 0.053
29652 H29652 56.9066 3.17204 47.1919 H 0.0 **** 0.053
29653 H29653 59.9187 2.57181 47.3246 H 0.0 **** 0.053
29654 H29654 58.8892 2.22029 45.9312 H 0.0 **** 0.053
29655 C29655 50.3085 71.5672 27.3523 C.3 0.0 **** 0.054
29656 C29656 48.788 71.3224 27.4947 C.3 0.0 **** -0.106
29657 C29657 48.4139 71.0642 28.9689 C.3 0.0 **** -0.053
29658 C29658 49.486 70.1663 29.6074 C.3 0.0 **** -0.053
29659 C29659 50.8592 70.8841 29.5431 C.3 0.0 **** 0.054
29660 O29660 50.8912 71.9615 28.5992 O.3 0.0 **** -0.32
29661 C29661 49.5239 68.7786 28.9331 C.3 0.0 **** -0.053
29662 C29662 48.1062 68.2681 28.5471 C.3 0.0 **** 0.107
29663 C29663 47.0373 68.9334 29.3976 C.3 0.0 **** -0.106
29664 C29664 47.0001 70.4488 29.1283 C.3 0.0 **** -0.106
29665 O29665 47.9818 66.8492 28.7297 O.3 0.0 **** -0.32
29666 C29666 49.1166 66.1181 28.235 C.3 0.0 **** 0.107
29667 C29667 50.2897 66.345 29.2053 C.3 0.0 **** -0.053
29668 C29668 50.1857 67.7568 29.8537 C.3 0.0 **** -0.106
29669 C29669 51.6319 66.0422 28.6259 C.2 0.0 **** 0.0
29670 C29670 51.836 65.7585 27.2849 C.2 0.0 **** 0.0
29671 C29671 50.771 65.8759 26.321 C.2 0.0 **** 0.0
29672 C29672 49.4305 66.42 26.7611 C.3 0.0 **** -0.053
29673 C29673 50.9883 65.6659 24.9704 C.2 0.0 **** 0.0
29674 C29674 52.2944 65.2651 24.5033 C.2 0.0 **** 0.0
29675 C29675 53.3244 65.1118 25.4805 C.2 0.0 **** 0.232
29676 C29676 53.1471 65.3556 26.8142 C.2 0.0 **** 0.0
29677 C29677 54.296 65.2214 27.781 C.3 0.0 **** -0.106
29678 C29678 53.8069 64.9328 29.2007 C.3 0.0 **** -0.106
29679 C29679 52.7661 65.9779 29.6097 C.3 0.0 **** -0.106
29680 O29680 54.5921 64.7326 25.0823 O.3 0.0 **** -0.464
29681 C29681 54.8401 64.3829 23.7771 C.2 0.0 **** 0.232
29682 C29682 53.8794 64.5607 22.7651 C.2 0.0 **** 0.0
29683 C29683 52.5777 65.0532 23.1486 C.2 0.0 **** 0.0
29684 C29684 48.3181 66.0251 25.8188 C.2 0.0 **** 0.0
29685 C29685 48.6202 66.1304 24.3937 C.2 0.0 **** 0.0
29686 C29686 49.928 65.8698 23.9795 C.2 0.0 **** 0.0
29687 C29687 47.486 66.32 23.4913 C.2 0.0 **** 0.0
29688 C29688 46.2626 65.8413 23.8617 C.2 0.0 **** 0.0
29689 C29689 46.0284 65.2604 25.2177 C.3 0.0 **** -0.106
29690 C29690 47.0965 65.599 26.2108 C.2 0.0 **** -0.1268
29691 C29691 45.108 65.9324 22.9036 C.3 0.0 **** -0.106
29692 C29692 45.6088 65.8474 21.4588 C.3 0.0 **** -0.106
29693 C29693 46.6989 66.8679 21.2411 C.2 0.0 **** 0.0
29694 C29694 47.5856 67.1017 22.2376 C.2 0.0 **** 0.0
29695 C29695 48.572 68.2451 22.1783 C.3 0.0 **** -0.106
29696 C29696 48.3541 69.1837 20.9862 C.3 0.0 **** -0.053
29697 C29697 48.0549 68.3522 19.7338 C.3 0.0 **** -0.106
29698 C29698 46.746 67.5859 19.9241 C.3 0.0 **** -0.106
29699 C29699 51.521 65.2787 22.2054 C.2 0.0 **** -0.012
29700 C29700 50.2608 65.6456 22.6095 C.2 0.0 **** -0.1268
29701 C29701 54.2573 64.1763 21.4533 C.2 0.0 **** 0.0
29702 C29702 53.3535 64.3522 20.3449 C.2 0.0 **** -0.012
29703 S29703 51.8011 65.1627 20.4821 S.2 0.0 **** 0.024
29704 C29704 53.6968 63.9433 19.0816 C.2 0.0 **** -0.1268
29705 C29705 54.9505 63.3305 18.8199 C.2 0.0 **** 0.0
29706 C29706 55.8905 63.1653 19.883 C.2 0.0 **** 0.0
29707 C29707 55.5501 63.5974 21.1945 C.2 0.0 **** 0.0
29708 C29708 57.1538 62.5802 19.6051 C.2 0.0 **** 0.0
29709 C29709 57.4583 62.1294 18.2841 C.2 0.0 **** 0.0
29710 C29710 56.4657 62.2434 17.2446 C.2 0.0 **** 0.0
29711 C29711 55.2529 62.8868 17.5362 C.2 0.0 **** -0.1268
29712 C29712 56.7497 61.6889 15.9613 C.2 0.0 **** 0.0
29713 C29713 58.0173 61.2054 15.6974 C.2 0.0 **** 0.042
29714 C29714 59.0708 61.1785 16.6595 C.2 0.0 **** 0.0
29715 C29715 58.7439 61.5895 17.9822 C.2 0.0 **** 0.0
29716 C29716 56.4999 63.4456 22.2604 C.2 0.0 **** 0.0
29717 C29717 56.092 63.8557 23.5466 C.2 0.0 **** -0.1268
29718 C29718 58.1172 62.4506 20.6593 C.2 0.0 **** 0.0
29719 C29719 57.8037 62.8797 21.9838 C.2 0.0 **** 0.0
29720 C29720 59.7175 61.4827 19.0304 C.2 0.0 **** 0.0
29721 C29721 59.3944 61.8937 20.3499 C.2 0.0 **** 0.0
29722 C29722 60.4095 60.7371 16.3552 C.2 0.0 **** 0.0
29723 C29723 61.3467 60.5904 17.4211 C.2 0.0 **** 0.0
29724 C29724 61.004 60.9526 18.7482 C.2 0.0 **** 0.0
29725 O29725 58.2141 60.6434 14.4544 O.3 0.0 **** -0.202
29726 C29726 57.8315 61.4668 13.3165 C.3 0.0 **** 0.107
29727 C29727 56.468 62.164 13.5504 C.3 0.0 **** -0.053
29728 C29728 55.8125 61.504 14.772 C.3 0.0 **** 0.107
29729 C29729 55.6028 62.1381 12.2845 C.3 0.0 **** -0.106
29730 C29730 56.4891 62.4344 11.0702 C.3 0.0 **** -0.106
29731 C29731 57.414 61.2459 10.7908 C.3 0.0 **** 0.134
29732 C29732 57.8651 60.5316 12.1089 C.3 0.0 **** -0.053
29733 C29733 59.2683 59.9299 11.9253 C.3 0.0 **** -0.106
29734 C29734 59.4506 59.3544 10.5218 C.3 0.0 **** -0.106
29735 C29735 59.3011 60.483 9.46318 C.3 0.0 **** 0.081
29736 N29736 58.5302 61.6444 9.93226 N.3 0.0 **** -0.727
29737 C29737 58.8251 62.7204 22.9859 C.2 0.0 **** 0.042
29738 C29738 60.0458 62.1325 22.692 C.2 0.0 **** 0.042
29739 C29739 60.3783 61.7319 21.372 C.2 0.0 **** 0.0
29740 O29740 61.0196 61.9197 23.6402 O.3 0.0 **** -0.202
29741 C29741 60.5713 62.0393 25.0078 C.3 0.0 **** 0.107
29742 C29742 59.7439 63.3102 25.1037 C.3 0.0 **** 0.107
29743 O29743 58.5803 63.1629 24.2666 O.3 0.0 **** -0.202
29744 C29744 60.5503 64.5701 24.7253 C.3 0.0 **** -0.106
29745 C29745 62.0631 64.4135 24.9916 C.3 0.0 **** -0.106
29746 C29746 62.3076 63.4989 26.197 C.3 0.0 **** -0.106
29747 C29747 61.8041 62.0686 25.9138 C.3 0.0 **** -0.106
29748 C29748 61.9786 60.8018 19.7895 C.2 0.0 **** 0.0
29749 C29749 61.6391 61.1877 21.0861 C.2 0.0 **** -0.1268
29750 C29750 62.6468 60.0869 17.1358 C.2 0.0 **** 0.0
29751 C29751 63.5821 59.9183 18.2033 C.2 0.0 **** 0.042
29752 C29752 63.2699 60.2657 19.4884 C.2 0.0 **** -0.1268
29753 C29753 63.0297 59.769 15.8241 C.2 0.0 **** 0.0
29754 C29754 62.1332 59.9943 14.7713 C.2 0.0 **** 0.0
29755 C29755 60.8632 60.4651 15.05 C.2 0.0 **** -0.1268
29756 O29756 64.8451 59.4038 17.9523 O.3 0.0 **** -0.0685
29757 C29757 65.2078 59.0208 16.6814 C.2 0.0 **** 0.0265
29758 C29758 64.3407 59.2128 15.5921 C.2 0.0 **** 0.0
29759 C29759 62.5274 59.7781 13.3343 C.3 0.0 **** -0.053
29760 C29760 63.774 58.8826 13.1477 C.3 0.0 **** -0.053
29761 C29761 64.731 58.8216 14.3085 C.2 0.0 **** 0.0
29762 C29762 64.5652 59.2649 11.8826 C.3 0.0 **** -0.053
29763 C29763 63.6009 59.5851 10.7463 C.3 0.0 **** -0.106
29764 C29764 62.8202 60.8809 11.0796 C.3 0.0 **** -0.106
29765 C29765 62.7074 61.1178 12.5975 C.3 0.0 **** -0.106
29766 C29766 65.9916 58.2432 14.0962 C.2 0.0 **** 0.0
29767 C29767 66.8433 57.989 15.2084 C.2 0.0 **** 0.0
29768 C29768 66.4604 58.3979 16.5245 C.2 0.0 **** 0.0
29769 C29769 65.6318 58.2322 11.6411 C.2 0.0 **** 0.0
29770 C29770 66.3922 57.8366 12.7766 C.2 0.0 **** 0.0
29771 C29771 49.5412 70.1552 20.8186 C.3 0.0 **** -0.053
29772 C29772 50.7935 69.4683 20.2584 C.3 0.0 **** -0.159
29773 C29773 49.1558 71.3527 19.944 C.3 0.0 **** -0.159
29774 O29774 54.477 61.9998 14.8795 O.3 0.0 **** -0.57
29775 C29775 67.3454 58.1361 17.621 C.2 0.0 **** -0.1268
29776 C29776 68.5257 57.4749 17.424 C.2 0.0 **** -0.1268
29777 C29777 68.9203 57.011 16.1254 C.2 0.0 **** 0.0
29778 C29778 68.0616 57.2812 15.0113 C.2 0.0 **** 0.0
29779 C29779 68.4157 56.8126 13.7183 C.2 0.0 **** 0.0
29780 C29780 69.6126 56.0822 13.5299 C.2 0.0 **** 0.0
29781 C29781 70.4682 55.8215 14.6486 C.2 0.0 **** 0.0
29782 C29782 70.103 56.2933 15.9197 C.2 0.0 **** -0.1268
29783 C29783 71.6729 55.0815 14.4388 C.2 0.0 **** -0.1268
29784 C29784 72.0097 54.6245 13.1922 C.2 0.0 **** -0.1268
29785 C29785 71.173 54.8752 12.062 C.2 0.0 **** 0.0
29786 C29786 69.9704 55.6113 12.232 C.2 0.0 **** 0.0
29787 C29787 69.1329 55.8797 11.1072 C.2 0.0 **** 0.0
29788 C29788 67.9346 56.6245 11.2981 C.2 0.0 **** 0.0
29789 C29789 67.5726 57.0866 12.5957 C.2 0.0 **** 0.0
29790 C29790 69.4984 55.4241 9.80578 C.2 0.0 **** 0.0
29791 C29791 70.6987 54.6711 9.67924 C.2 0.0 **** -0.1268
29792 C29792 71.5012 54.4077 10.7697 C.2 0.0 **** -0.1268
29793 C29793 65.9611 57.745 10.3961 C.2 0.0 **** -0.1268
29794 C29794 67.0845 56.9013 10.1923 C.2 0.0 **** 0.0
29795 C29795 68.6195 55.7061 8.68941 C.2 0.0 **** 0.052
29796 C29796 67.4064 56.3746 8.903 C.2 0.0 **** 0.0
29797 C29797 66.3976 56.5606 7.79151 C.3 0.0 **** -0.106
29798 C29798 66.5444 55.5058 6.70167 C.3 0.0 **** -0.106
29799 C29799 67.9733 55.544 6.18612 C.3 0.0 **** -0.086
29800 C29800 69.0177 55.3873 7.28442 C.2 0.0 **** 0.347
29801 O29801 70.1588 55.063 6.952 O.2 0.0 **** -0.419
29802 H29802 50.5237 72.3818 26.6474 H 0.0 **** 0.053
29803 H29803 50.8171 70.654 26.9836 H 0.0 **** 0.053
29804 H29804 48.2166 72.1887 27.1277 H 0.0 **** 0.053
29805 H29805 48.4957 70.4592 26.876 H 0.0 **** 0.053
29806 H29806 48.4437 72.0355 29.4839 H 0.0 **** 0.053
29807 H29807 49.2282 70.0137 30.6688 H 0.0 **** 0.053
29808 H29808 51.6516 70.1502 29.2863 H 0.0 **** 0.053
29809 H29809 51.1145 71.3441 30.5081 H 0.0 **** 0.053
29810 H29810 50.1343 68.8666 28.0201 H 0.0 **** 0.053
29811 H29811 47.9022 68.5006 27.484 H 0.0 **** 0.053
29812 H29812 47.264 68.7343 30.4574 H 0.0 **** 0.053
29813 H29813 46.0605 68.4755 29.1856 H 0.0 **** 0.053
29814 H29814 46.4637 70.9445 29.9513 H 0.0 **** 0.053
29815 H29815 46.4183 70.645 28.2127 H 0.0 **** 0.053
29816 H29816 48.8114 65.0627 28.2864 H 0.0 **** 0.053
29817 H29817 50.1509 65.6321 30.0406 H 0.0 **** 0.053
29818 H29818 51.1821 68.1099 30.1582 H 0.0 **** 0.053
29819 H29819 49.5766 67.6856 30.7686 H 0.0 **** 0.053
29820 H29820 49.5422 67.5174 26.648 H 0.0 **** 0.053
29821 H29821 54.9876 64.44 27.4346 H 0.0 **** 0.053
29822 H29822 54.8766 66.1634 27.7852 H 0.0 **** 0.053
29823 H29823 54.6535 64.93 29.9041 H 0.0 **** 0.053
29824 H29824 53.3441 63.9331 29.2314 H 0.0 **** 0.053
29825 H29825 53.2621 66.9664 29.6843 H 0.0 **** 0.053
29826 H29826 52.3668 65.7661 30.616 H 0.0 **** 0.053
29827 H29827 45.9264 64.1553 25.1412 H 0.0 **** 0.053
29828 H29828 45.0369 65.5892 25.5861 H 0.0 **** 0.053
29829 H29829 46.8553 65.4929 27.2671 H 0.0 **** 0.1268
29830 H29830 44.378 65.136 23.1196 H 0.0 **** 0.053
29831 H29831 44.5806 66.8958 23.0574 H 0.0 **** 0.053
29832 H29832 44.7871 66.0121 20.7444 H 0.0 **** 0.053
29833 H29833 46.0017 64.8297 21.2701 H 0.0 **** 0.053
29834 H29834 48.493 68.8169 23.1202 H 0.0 **** 0.053
29835 H29835 49.606 67.8683 22.1632 H 0.0 **** 0.053
29836 H29836 47.4552 69.7937 21.1945 H 0.0 **** 0.053
29837 H29837 48.875 67.633 19.5751 H 0.0 **** 0.053
29838 H29838 48.0005 68.9907 18.8387 H 0.0 **** 0.053
29839 H29839 46.6002 66.8504 19.112 H 0.0 **** 0.053
29840 H29840 45.8858 68.2793 19.8479 H 0.0 **** 0.053
29841 H29841 49.4716 65.7339 21.8633 H 0.0 **** 0.1268
29842 H29842 53.0006 64.0745 18.25 H 0.0 **** 0.1268
29843 H29843 54.5372 63.0774 16.7427 H 0.0 **** 0.1268
29844 H29844 56.7514 63.7599 24.3966 H 0.0 **** 0.1268
29845 H29845 58.6208 62.232 13.1948 H 0.0 **** 0.053
29846 H29846 56.6543 63.2168 13.8161 H 0.0 **** 0.053
29847 H29847 55.771 60.4149 14.5638 H 0.0 **** 0.053
29848 H29848 55.1298 61.1474 12.1725 H 0.0 **** 0.053
29849 H29849 54.788 62.8664 12.3844 H 0.0 **** 0.053
29850 H29850 57.1032 63.3289 11.2798 H 0.0 **** 0.053
29851 H29851 55.904 62.6607 10.1683 H 0.0 **** 0.053
29852 H29852 56.8404 60.503 10.2106 H 0.0 **** 0.053
29853 H29853 57.1538 59.7147 12.3184 H 0.0 **** 0.053
29854 H29854 60.0157 60.7273 12.079 H 0.0 **** 0.053
29855 H29855 59.4585 59.174 12.6992 H 0.0 **** 0.053
29856 H29856 58.6936 58.5717 10.3533 H 0.0 **** 0.053
29857 H29857 60.4358 58.8707 10.4258 H 0.0 **** 0.053
29858 H29858 58.8077 60.0824 8.56147 H 0.0 **** 0.053
29859 H29859 60.2901 60.8482 9.14911 H 0.0 **** 0.053
29860 H29860 59.1389 62.2815 10.4477 H 0.0 **** 0.353
29861 H29861 59.9278 61.1717 25.2297 H 0.0 **** 0.053
29862 H29862 59.3343 63.3949 26.1203 H 0.0 **** 0.053
29863 H29863 60.374 64.7807 23.6605 H 0.0 **** 0.053
29864 H29864 60.1435 65.419 25.2941 H 0.0 **** 0.053
29865 H29865 62.5146 65.4028 25.1565 H 0.0 **** 0.053
29866 H29866 62.5479 63.9753 24.1066 H 0.0 **** 0.053
29867 H29867 61.7794 63.9131 27.0729 H 0.0 **** 0.053
29868 H29868 63.3752 63.4693 26.4603 H 0.0 **** 0.053
29869 H29869 61.5654 61.553 26.856 H 0.0 **** 0.053
29870 H29870 62.5845 61.4756 25.4127 H 0.0 **** 0.053
29871 H29871 62.3648 61.0709 21.8894 H 0.0 **** 0.1268
29872 H29872 64.0031 60.14 20.2858 H 0.0 **** 0.1268
29873 H29873 60.187 60.6153 14.2233 H 0.0 **** 0.1268
29874 H29874 61.6867 59.2721 12.8355 H 0.0 **** 0.053
29875 H29875 63.4181 57.8446 12.9921 H 0.0 **** 0.053
29876 H29876 65.1171 60.1961 12.1224 H 0.0 **** 0.053
29877 H29877 62.909 58.7344 10.6235 H 0.0 **** 0.053
29878 H29878 64.133 59.705 9.79186 H 0.0 **** 0.053
29879 H29879 61.8117 60.8167 10.6473 H 0.0 **** 0.053
29880 H29880 63.3147 61.745 10.6098 H 0.0 **** 0.053
29881 H29881 61.8578 61.779 12.8258 H 0.0 **** 0.053
29882 H29882 63.6058 61.6214 12.9882 H 0.0 **** 0.053
29883 H29883 49.7828 70.5361 21.8277 H 0.0 **** 0.053
29884 H29884 51.6527 70.1554 20.2813 H 0.0 **** 0.053
29885 H29885 50.6337 69.1707 19.2105 H 0.0 **** 0.053
29886 H29886 51.067 68.5645 20.8239 H 0.0 **** 0.053
29887 H29887 48.2784 71.8774 20.3538 H 0.0 **** 0.053
29888 H29888 48.9078 71.0255 18.9216 H 0.0 **** 0.053
29889 H29889 49.9851 72.0724 19.8698 H 0.0 **** 0.053
29890 H29890 54.0239 61.4656 15.5499 H 0.0 **** 0.41
29891 H29891 67.0542 58.467 18.6178 H 0.0 **** 0.1268
29892 H29892 69.1914 57.2758 18.2657 H 0.0 **** 0.1268
29893 H29893 70.7562 56.0865 16.7703 H 0.0 **** 0.1268
29894 H29894 72.3179 54.8869 15.2976 H 0.0 **** 0.1268
29895 H29895 72.9276 54.0536 13.0395 H 0.0 **** 0.1268
29896 H29896 70.9828 54.3122 8.69581 H 0.0 **** 0.1268
29897 H29897 72.4144 53.823 10.6396 H 0.0 **** 0.1268
29898 H29898 65.3649 58.0542 9.54185 H 0.0 **** 0.1268
29899 H29899 65.3841 56.5191 8.2145 H 0.0 **** 0.053
29900 H29900 66.5102 57.5682 7.3484 H 0.0 **** 0.053
29901 H29901 65.8222 55.6838 5.89043 H 0.0 **** 0.053
29902 H29902 66.3256 54.5134 7.12889 H 0.0 **** 0.053
29903 H29903 68.1694 56.5224 5.70945 H 0.0 **** 0.053
29904 H29904 68.1864 54.7773 5.42778 H 0.0 **** 0.053
29905 C29905 -4.96983 37.626 84.414 C.3 0.0 **** 0.054
29906 C29906 -4.46173 37.0849 85.7709 C.3 0.0 **** -0.106
29907 C29907 -4.45933 38.2012 86.8357 C.3 0.0 **** -0.053
29908 C29908 -3.95482 39.5039 86.1938 C.3 0.0 **** -0.053
29909 C29909 -4.90212 39.9025 85.0325 C.3 0.0 **** 0.054
29910 O29910 -5.7335 38.8249 84.5848 O.3 0.0 **** -0.32
29911 C29911 -2.49053 39.3638 85.7269 C.3 0.0 **** -0.053
29912 C29912 -1.6348 38.5109 86.7066 C.3 0.0 **** 0.107
29913 C29913 -2.2402 38.5106 88.1001 C.3 0.0 **** -0.106
29914 C29914 -3.62227 37.8323 88.0872 C.3 0.0 **** -0.106
29915 O29915 -0.293707 39.012 86.8188 O.3 0.0 **** -0.32
29916 C29916 0.284287 39.3577 85.5486 C.3 0.0 **** 0.107
29917 C29917 -0.37793 40.6591 85.0619 C.3 0.0 **** -0.053
29918 C29918 -1.84638 40.739 85.5734 C.3 0.0 **** -0.106
29919 C29919 -0.232406 40.9106 83.5976 C.2 0.0 **** 0.0
29920 C29920 0.288206 39.9795 82.713 C.2 0.0 **** 0.0
29921 C29921 0.598421 38.6359 83.1321 C.2 0.0 **** 0.0
29922 C29922 0.252207 38.2001 84.5382 C.3 0.0 **** -0.053
29923 C29923 1.04799 37.6818 82.236 C.2 0.0 **** 0.0
29924 C29924 1.27014 38.0374 80.8543 C.2 0.0 **** 0.0
29925 C29925 0.998362 39.3855 80.4697 C.2 0.0 **** 0.232
29926 C29926 0.512127 40.335 81.3251 C.2 0.0 **** 0.0
29927 C29927 0.200393 41.7261 80.8348 C.3 0.0 **** -0.106
29928 C29928 0.266753 42.7509 81.9677 C.3 0.0 **** -0.106
29929 C29929 -0.611511 42.2886 83.1329 C.3 0.0 **** -0.106
29930 O29930 1.19259 39.7734 79.1578 O.3 0.0 **** -0.464
29931 C29931 1.75964 38.912 78.2502 C.2 0.0 **** 0.232
29932 C29932 2.00161 37.5612 78.5592 C.2 0.0 **** 0.0
29933 C29933 1.70915 37.1121 79.8996 C.2 0.0 **** 0.0
29934 C29934 1.05675 36.9995 84.9771 C.2 0.0 **** 0.0
29935 C29935 1.20417 35.9334 83.9896 C.2 0.0 **** 0.0
29936 C29936 1.28057 36.2931 82.6426 C.2 0.0 **** 0.0
29937 C29937 1.446 34.5869 84.5041 C.2 0.0 **** 0.0
29938 C29938 2.06853 34.4447 85.7104 C.2 0.0 **** 0.0
29939 C29939 2.37681 35.6233 86.5746 C.3 0.0 **** -0.106
29940 C29940 1.62394 36.861 86.1963 C.2 0.0 **** -0.1268
29941 C29941 2.42063 33.0704 86.2075 C.3 0.0 **** -0.106
29942 C29942 2.71433 32.1384 85.0283 C.3 0.0 **** -0.106
29943 C29943 1.56782 32.1866 84.0484 C.2 0.0 **** 0.0
29944 C29944 0.950696 33.3703 83.8202 C.2 0.0 **** 0.0
29945 C29945 -0.326789 33.4647 83.0184 C.3 0.0 **** -0.106
29946 C29946 -0.921628 32.1015 82.6472 C.3 0.0 **** -0.053
29947 C29947 0.204051 31.1603 82.2042 C.3 0.0 **** -0.106
29948 C29948 1.15759 30.911 83.3727 C.3 0.0 **** -0.106
29949 C29949 1.90994 35.7584 80.3291 C.2 0.0 **** -0.012
29950 C29950 1.7247 35.3826 81.6368 C.2 0.0 **** -0.1268
29951 C29951 2.57722 36.7667 77.535 C.2 0.0 **** 0.0
29952 C29952 2.83057 35.3639 77.7454 C.2 0.0 **** -0.012
29953 S29953 2.33784 34.4985 79.1926 S.2 0.0 **** 0.024
29954 C29954 3.42603 34.5999 76.7744 C.2 0.0 **** -0.1268
29955 C29955 3.81666 35.1616 75.5304 C.2 0.0 **** 0.0
29956 C29956 3.55565 36.5413 75.2663 C.2 0.0 **** 0.0
29957 C29957 2.9271 37.3397 76.2612 C.2 0.0 **** 0.0
29958 C29958 3.92148 37.0862 74.0075 C.2 0.0 **** 0.0
29959 C29959 4.57728 36.2679 73.0371 C.2 0.0 **** 0.0
29960 C29960 4.89264 34.8975 73.3552 C.2 0.0 **** 0.0
29961 C29961 4.45795 34.3714 74.5816 C.2 0.0 **** -0.1268
29962 C29962 5.64331 34.1306 72.4153 C.2 0.0 **** 0.0
29963 C29963 5.90824 34.6598 71.1664 C.2 0.0 **** 0.042
29964 C29964 5.51414 35.9703 70.7617 C.2 0.0 **** 0.0
29965 C29965 4.90055 36.7907 71.7496 C.2 0.0 **** 0.0
29966 C29966 2.65068 38.7225 75.991 C.2 0.0 **** 0.0
29967 C29967 2.06211 39.474 77.0292 C.2 0.0 **** -0.1268
29968 C29968 3.62375 38.4594 73.7209 C.2 0.0 **** 0.0
29969 C29969 2.98978 39.2823 74.6994 C.2 0.0 **** 0.0
29970 C29970 4.58027 38.1571 71.4528 C.2 0.0 **** 0.0
29971 C29971 3.96664 38.9766 72.4357 C.2 0.0 **** 0.0
29972 C29972 5.73329 36.488 69.4338 C.2 0.0 **** 0.0
29973 C29973 5.45457 37.8632 69.1747 C.2 0.0 **** 0.0
29974 C29974 4.88982 38.6937 70.1753 C.2 0.0 **** 0.0
29975 O29975 6.67484 33.8866 70.3213 O.3 0.0 **** -0.202
29976 C29976 6.21145 32.5227 70.1118 C.3 0.0 **** 0.107
29977 C29977 5.76809 31.8609 71.4405 C.3 0.0 **** -0.053
29978 C29978 6.26555 32.7489 72.5901 C.3 0.0 **** 0.107
29979 C29979 6.24058 30.4043 71.524 C.3 0.0 **** -0.106
29980 C29980 6.04269 29.7381 70.1584 C.3 0.0 **** -0.106
29981 C29981 7.05324 30.2935 69.1502 C.3 0.0 **** 0.134
29982 C29982 7.35975 31.8082 69.4012 C.3 0.0 **** -0.053
29983 C29983 7.69288 32.5031 68.0705 C.3 0.0 **** -0.106
29984 C29984 8.51019 31.5939 67.1542 C.3 0.0 **** -0.106
29985 C29985 7.69118 30.3194 66.8054 C.3 0.0 **** 0.081
29986 N29986 6.63451 30.0029 67.7784 N.3 0.0 **** -0.727
29987 C29987 2.71999 40.6487 74.3347 C.2 0.0 **** 0.042
29988 C29988 3.10049 41.1607 73.1037 C.2 0.0 **** 0.042
29989 C29989 3.7025 40.3424 72.1131 C.2 0.0 **** 0.0
29990 O29990 2.9031 42.4751 72.7485 O.3 0.0 **** -0.202
29991 C29991 2.58253 43.3585 73.845 C.3 0.0 **** 0.107
29992 C29992 1.51355 42.6741 74.6803 C.3 0.0 **** 0.107
29993 O29993 2.06898 41.4647 75.2327 O.3 0.0 **** -0.202
29994 C29994 0.230007 42.384 73.8746 C.3 0.0 **** -0.106
29995 C29995 0.0184216 43.3759 72.7104 C.3 0.0 **** -0.106
29996 C29996 0.582186 44.7558 73.0671 C.3 0.0 **** -0.106
29997 C29997 2.11108 44.6923 73.2619 C.3 0.0 **** -0.106
29998 C29998 4.6129 40.0677 69.8712 C.2 0.0 **** 0.0
29999 C29999 4.03143 40.8676 70.8548 C.2 0.0 **** -0.1268
30000 C30000 5.73668 38.3961 67.8857 C.2 0.0 **** 0.0
30001 C30001 5.47888 39.778 67.6276 C.2 0.0 **** 0.042
30002 C30002 4.9313 40.5927 68.5796 C.2 0.0 **** -0.1268
30003 C30003 6.24766 37.5848 66.8614 C.2 0.0 **** 0.0
30004 C30004 6.44027 36.2174 67.0974 C.2 0.0 **** 0.0
30005 C30005 6.18478 35.703 68.3553 C.2 0.0 **** -0.1268
30006 O30006 5.77145 40.3247 66.3873 O.3 0.0 **** -0.0685
30007 C30007 6.33994 39.5563 65.3973 C.2 0.0 **** 0.0265
30008 C30008 6.56635 38.1824 65.5873 C.2 0.0 **** 0.0
30009 C30009 6.87897 35.2784 66.0052 C.3 0.0 **** -0.053
30010 C30010 7.52496 35.9805 64.7884 C.3 0.0 **** -0.053
30011 C30011 7.13981 37.4191 64.5667 C.2 0.0 **** 0.0
30012 C30012 7.27501 35.2017 63.4832 C.3 0.0 **** -0.053
30013 C30013 7.40866 33.7051 63.7399 C.3 0.0 **** -0.106
30014 C30014 6.25494 33.2327 64.6594 C.3 0.0 **** -0.106
30015 C30015 5.72245 34.3678 65.5544 C.3 0.0 **** -0.106
30016 C30016 7.48557 38.0151 63.3445 C.2 0.0 **** 0.0
30017 C30017 7.31666 39.4186 63.1756 C.2 0.0 **** 0.0
30018 C30018 6.71781 40.2073 64.2077 C.2 0.0 **** 0.0
30019 C30019 8.09997 35.8116 62.3832 C.2 0.0 **** 0.0
30020 C30020 8.07948 37.2314 62.2956 C.2 0.0 **** 0.0
30021 C30021 -2.05165 32.2521 81.6072 C.3 0.0 **** -0.053
30022 C30022 -1.52522 32.5872 80.2056 C.3 0.0 **** -0.159
30023 C30023 -2.92901 30.9969 81.5593 C.3 0.0 **** -0.159
30024 O30024 6.03657 32.0539 73.817 O.3 0.0 **** -0.57
30025 C30025 6.55287 41.616 64.0019 C.2 0.0 **** -0.1268
30026 C30026 6.99055 42.2101 62.8509 C.2 0.0 **** -0.1268
30027 C30027 7.63584 41.4574 61.8144 C.2 0.0 **** 0.0
30028 C30028 7.79122 40.0443 61.9892 C.2 0.0 **** 0.0
30029 C30029 8.44793 39.2783 60.9899 C.2 0.0 **** 0.0
30030 C30030 8.94654 39.9074 59.8249 C.2 0.0 **** 0.0
30031 C30031 8.7817 41.3201 59.6557 C.2 0.0 **** 0.0
30032 C30032 8.12892 42.0618 60.6534 C.2 0.0 **** -0.1268
30033 C30033 9.29249 41.938 58.4724 C.2 0.0 **** -0.1268
30034 C30034 9.93157 41.1987 57.5126 C.2 0.0 **** -0.1268
30035 C30035 10.1047 39.7884 57.659 C.2 0.0 **** 0.0
30036 C30036 9.60579 39.1396 58.8198 C.2 0.0 **** 0.0
30037 C30037 9.76097 37.7284 58.9709 C.2 0.0 **** 0.0
30038 C30038 9.24837 37.0966 60.1393 C.2 0.0 **** 0.0
30039 C30039 8.59845 37.8645 61.1473 C.2 0.0 **** 0.0
30040 C30040 10.4049 36.9571 57.9583 C.2 0.0 **** 0.0
30041 C30041 10.911 37.6456 56.8209 C.2 0.0 **** -0.1268
30042 C30042 10.7654 39.0102 56.6823 C.2 0.0 **** -0.1268
30043 C30043 8.76904 35.0788 61.4287 C.2 0.0 **** -0.1268
30044 C30044 9.39393 35.6926 60.3115 C.2 0.0 **** 0.0
30045 C30045 10.5535 35.529 58.15 C.2 0.0 **** 0.052
30046 C30046 10.1118 34.9309 59.3379 C.2 0.0 **** 0.0
30047 C30047 10.3773 33.4722 59.6371 C.3 0.0 **** -0.106
30048 C30048 11.5917 32.9441 58.8833 C.3 0.0 **** -0.106
30049 C30049 11.3802 33.1917 57.399 C.3 0.0 **** -0.086
30050 C30050 11.0826 34.6481 57.0645 C.2 0.0 **** 0.347
30051 O30051 11.2355 35.0139 55.898 O.2 0.0 **** -0.419
30052 H30052 -5.63863 36.9101 83.9169 H 0.0 **** 0.053
30053 H30053 -4.11944 37.8282 83.7324 H 0.0 **** 0.053
30054 H30054 -5.09537 36.2566 86.1233 H 0.0 **** 0.053
30055 H30055 -3.44438 36.6811 85.6473 H 0.0 **** 0.053
30056 H30056 -5.50485 38.3619 87.1366 H 0.0 **** 0.053
30057 H30057 -3.98714 40.3035 86.9527 H 0.0 **** 0.053
30058 H30058 -4.30423 40.2817 84.1775 H 0.0 **** 0.053
30059 H30059 -5.60183 40.6917 85.3415 H 0.0 **** 0.053
30060 H30060 -2.4993 38.875 84.7396 H 0.0 **** 0.053
30061 H30061 -1.58569 37.4652 86.3462 H 0.0 **** 0.053
30062 H30062 -2.32496 39.5549 88.4415 H 0.0 **** 0.053
30063 H30063 -1.56087 37.9983 88.7963 H 0.0 **** 0.053
30064 H30064 -4.1665 38.1137 89.0011 H 0.0 **** 0.053
30065 H30065 -3.49474 36.7379 88.1234 H 0.0 **** 0.053
30066 H30066 1.3428 39.5584 85.7702 H 0.0 **** 0.053
30067 H30067 0.150098 41.4903 85.5674 H 0.0 **** 0.053
30068 H30068 -2.44953 41.3676 84.9017 H 0.0 **** 0.053
30069 H30069 -1.85433 41.2252 86.5617 H 0.0 **** 0.053
30070 H30070 -0.794262 37.8434 84.4527 H 0.0 **** 0.053
30071 H30071 0.88327 41.9965 80.0166 H 0.0 **** 0.053
30072 H30072 -0.816915 41.7364 80.3997 H 0.0 **** 0.053
30073 H30073 -0.052724 43.7408 81.6077 H 0.0 **** 0.053
30074 H30074 1.3081 42.8427 82.3166 H 0.0 **** 0.053
30075 H30075 -1.67166 42.3032 82.8093 H 0.0 **** 0.053
30076 H30076 -0.547093 42.9918 83.9804 H 0.0 **** 0.053
30077 H30077 3.46968 35.8299 86.5534 H 0.0 **** 0.053
30078 H30078 2.18182 35.3578 87.6321 H 0.0 **** 0.053
30079 H30079 1.54493 37.6511 86.9412 H 0.0 **** 0.1268
30080 H30080 3.28121 33.1289 86.8929 H 0.0 **** 0.053
30081 H30081 1.57262 32.6668 86.7973 H 0.0 **** 0.053
30082 H30082 2.8765 31.1046 85.3714 H 0.0 **** 0.053
30083 H30083 3.64872 32.4642 84.532 H 0.0 **** 0.053
30084 H30084 -1.0613 34.0421 83.6079 H 0.0 **** 0.053
30085 H30085 -0.170926 34.0572 82.104 H 0.0 **** 0.053
30086 H30086 -1.36928 31.6668 83.5605 H 0.0 **** 0.053
30087 H30087 0.761055 31.63 81.3771 H 0.0 **** 0.053
30088 H30088 -0.201224 30.2084 81.8282 H 0.0 **** 0.053
30089 H30089 2.06545 30.3804 83.0321 H 0.0 **** 0.053
30090 H30090 0.684176 30.2349 84.1112 H 0.0 **** 0.053
30091 H30091 1.96028 34.36 81.931 H 0.0 **** 0.1268
30092 H30092 3.62046 33.5391 76.9477 H 0.0 **** 0.1268
30093 H30093 4.59132 33.3154 74.7949 H 0.0 **** 0.1268
30094 H30094 1.83728 40.5223 76.8989 H 0.0 **** 0.1268
30095 H30095 5.3483 32.5799 69.4224 H 0.0 **** 0.053
30096 H30096 4.66728 31.8666 71.4841 H 0.0 **** 0.053
30097 H30097 7.35959 32.8707 72.4502 H 0.0 **** 0.053
30098 H30098 7.30628 30.3705 71.8085 H 0.0 **** 0.053
30099 H30099 5.68659 29.8859 72.3168 H 0.0 **** 0.053
30100 H30100 5.01948 29.9484 69.7979 H 0.0 **** 0.053
30101 H30101 6.13921 28.6449 70.2065 H 0.0 **** 0.053
30102 H30102 8.00381 29.7519 69.2942 H 0.0 **** 0.053
30103 H30103 8.23752 31.8761 70.0661 H 0.0 **** 0.053
30104 H30104 6.74786 32.7591 67.5611 H 0.0 **** 0.053
30105 H30105 8.20938 33.4537 68.2606 H 0.0 **** 0.053
30106 H30106 9.44632 31.3169 67.6649 H 0.0 **** 0.053
30107 H30107 8.79545 32.1268 66.2331 H 0.0 **** 0.053
30108 H30108 8.36819 29.4512 66.7363 H 0.0 **** 0.053
30109 H30109 7.21183 30.4285 65.8212 H 0.0 **** 0.053
30110 H30110 5.79214 30.5383 67.5644 H 0.0 **** 0.353
30111 H30111 3.49249 43.4838 74.4553 H 0.0 **** 0.053
30112 H30112 1.29457 43.2953 75.5604 H 0.0 **** 0.053
30113 H30113 0.294769 41.3564 73.4884 H 0.0 **** 0.053
30114 H30114 -0.62265 42.4151 74.5687 H 0.0 **** 0.053
30115 H30115 -1.05307 43.4436 72.4715 H 0.0 **** 0.053
30116 H30116 0.531515 43.0018 71.8121 H 0.0 **** 0.053
30117 H30117 0.102614 45.1084 73.9963 H 0.0 **** 0.053
30118 H30118 0.339232 45.4948 72.2895 H 0.0 **** 0.053
30119 H30119 2.44752 45.5071 73.9202 H 0.0 **** 0.053
30120 H30120 2.62963 44.8228 72.2996 H 0.0 **** 0.053
30121 H30121 3.82347 41.9151 70.6426 H 0.0 **** 0.1268
30122 H30122 4.73156 41.6415 68.3573 H 0.0 **** 0.1268
30123 H30123 6.35604 34.6501 68.5153 H 0.0 **** 0.1268
30124 H30124 7.63912 34.6077 66.4341 H 0.0 **** 0.053
30125 H30125 8.62179 35.9804 64.9474 H 0.0 **** 0.053
30126 H30126 6.22265 35.3966 63.1936 H 0.0 **** 0.053
30127 H30127 8.38677 33.5169 64.2144 H 0.0 **** 0.053
30128 H30128 7.39404 33.1352 62.8 H 0.0 **** 0.053
30129 H30129 6.61222 32.409 65.2935 H 0.0 **** 0.053
30130 H30130 5.43191 32.8314 64.0483 H 0.0 **** 0.053
30131 H30131 5.21178 33.9584 66.4391 H 0.0 **** 0.053
30132 H30132 4.97648 34.9773 65.0201 H 0.0 **** 0.053
30133 H30133 -2.68265 33.0942 81.9458 H 0.0 **** 0.053
30134 H30134 -2.35899 32.8202 79.5264 H 0.0 **** 0.053
30135 H30135 -0.98186 31.7282 79.7825 H 0.0 **** 0.053
30136 H30136 -0.83909 33.4478 80.2079 H 0.0 **** 0.053
30137 H30137 -3.34316 30.7639 82.553 H 0.0 **** 0.053
30138 H30138 -2.34527 30.1253 81.2228 H 0.0 **** 0.053
30139 H30139 -3.76696 31.1258 80.8575 H 0.0 **** 0.053
30140 H30140 6.49261 32.546 74.517 H 0.0 **** 0.41
30141 H30141 6.07923 42.2066 64.7859 H 0.0 **** 0.1268
30142 H30142 6.86487 43.2843 62.7047 H 0.0 **** 0.1268
30143 H30143 8.01119 43.1396 60.5219 H 0.0 **** 0.1268
30144 H30144 9.16305 43.0152 58.3529 H 0.0 **** 0.1268
30145 H30145 10.326 41.6774 56.6141 H 0.0 **** 0.1268
30146 H30146 11.4098 37.0708 56.0481 H 0.0 **** 0.1268
30147 H30147 11.1691 39.5094 55.7988 H 0.0 **** 0.1268
30148 H30148 8.77832 33.9957 61.516 H 0.0 **** 0.1268
30149 H30149 10.5286 33.3482 60.7186 H 0.0 **** 0.053
30150 H30150 9.48797 32.8683 59.3748 H 0.0 **** 0.053
30151 H30151 11.7422 31.874 59.0922 H 0.0 **** 0.053
30152 H30152 12.4912 33.4794 59.2289 H 0.0 **** 0.053
30153 H30153 10.5094 32.6086 57.0462 H 0.0 **** 0.053
30154 H30154 12.2343 32.887 56.7777 H 0.0 **** 0.053
30155 C30155 10.6962 13.6836 54.4743 C.3 0.0 **** 0.054
30156 C30156 11.9919 14.1209 53.7516 C.3 0.0 **** -0.106
30157 C30157 11.9989 13.6166 52.2937 C.3 0.0 **** -0.053
30158 C30158 11.4438 12.1834 52.2573 C.3 0.0 **** -0.053
30159 C30159 9.9891 12.1842 52.7946 C.3 0.0 **** 0.054
30160 O30160 9.66094 13.3639 53.5384 O.3 0.0 **** -0.32
30161 C30161 12.3525 11.2142 53.0426 C.3 0.0 **** -0.053
30162 C30162 13.8624 11.5467 52.871 C.3 0.0 **** 0.107
30163 C30163 14.107 12.3221 51.5876 C.3 0.0 **** -0.106
30164 C30164 13.4034 13.6904 51.642 C.3 0.0 **** -0.106
30165 O30165 14.6677 10.3589 52.8179 O.3 0.0 **** -0.32
30166 C30166 14.3027 9.38837 53.8138 C.3 0.0 **** 0.107
30167 C30167 12.9691 8.74788 53.389 C.3 0.0 **** -0.053
30168 C30168 12.1074 9.7751 52.5973 C.3 0.0 **** -0.106
30169 C30169 12.2349 8.06843 54.4972 C.2 0.0 **** 0.0
30170 C30170 12.6142 8.15461 55.8272 C.2 0.0 **** 0.0
30171 C30171 13.6759 9.03246 56.2509 C.2 0.0 **** 0.0
30172 C30172 14.3201 9.95628 55.2418 C.3 0.0 **** -0.053
30173 C30173 14.0081 9.1774 57.5865 C.2 0.0 **** 0.0
30174 C30174 13.3224 8.39732 58.5896 C.2 0.0 **** 0.0
30175 C30175 12.3038 7.5012 58.1438 C.2 0.0 **** 0.232
30176 C30176 11.9268 7.37173 56.8358 C.2 0.0 **** 0.0
30177 C30177 10.8066 6.44116 56.4458 C.3 0.0 **** -0.106
30178 C30178 10.9369 5.9802 54.9937 C.3 0.0 **** -0.106
30179 C30179 11.0841 7.19759 54.0778 C.3 0.0 **** -0.106
30180 O30180 11.617 6.73526 59.0662 O.3 0.0 **** -0.464
30181 C30181 11.9865 6.73534 60.3894 C.2 0.0 **** 0.232
30182 C30182 12.947 7.63156 60.8922 C.2 0.0 **** 0.0
30183 C30183 13.6044 8.51225 59.9562 C.2 0.0 **** 0.0
30184 C30184 15.6874 10.4201 55.6853 C.2 0.0 **** 0.0
30185 C30185 15.8051 10.8137 57.0869 C.2 0.0 **** 0.0
30186 C30186 15.0277 10.1338 58.0266 C.2 0.0 **** 0.0
30187 C30187 16.8651 11.764 57.4182 C.2 0.0 **** 0.0
30188 C30188 17.9842 11.8008 56.6376 C.2 0.0 **** 0.0
30189 C30189 18.0873 11.0001 55.3809 C.3 0.0 **** -0.106
30190 C30190 16.7705 10.4934 54.8798 C.2 0.0 **** -0.1268
30191 C30191 19.1294 12.6953 57.0224 C.3 0.0 **** -0.106
30192 C30192 19.1972 12.8461 58.5449 C.3 0.0 **** -0.106
30193 C30193 17.8494 13.2755 59.0705 C.2 0.0 **** 0.0
30194 C30194 16.7316 12.7619 58.5042 C.2 0.0 **** 0.0
30195 C30195 15.3543 13.2919 58.8298 C.3 0.0 **** -0.106
30196 C30196 15.3707 14.5452 59.7121 C.3 0.0 **** -0.053
30197 C30197 16.4168 14.3728 60.8191 C.3 0.0 **** -0.106
30198 C30198 17.8099 14.2633 60.1996 C.3 0.0 **** -0.106
30199 C30199 14.5956 9.47034 60.352 C.2 0.0 **** -0.012
30200 C30200 15.2814 10.2208 59.4287 C.2 0.0 **** -0.1268
30201 C30201 13.2339 7.54609 62.2786 C.2 0.0 **** 0.0
30202 C30202 14.1784 8.44482 62.8922 C.2 0.0 **** -0.012
30203 S30203 14.9359 9.7812 62.0401 S.2 0.0 **** 0.024
30204 C30204 14.4919 8.33946 64.2232 C.2 0.0 **** -0.1268
30205 C30205 13.9016 7.34203 65.0432 C.2 0.0 **** 0.0
30206 C30206 12.9358 6.44988 64.4841 C.2 0.0 **** 0.0
30207 C30207 12.5937 6.55844 63.108 C.2 0.0 **** 0.0
30208 C30208 12.3278 5.47629 65.3195 C.2 0.0 **** 0.0
30209 C30209 12.7112 5.37121 66.6918 C.2 0.0 **** 0.0
30210 C30210 13.7392 6.23689 67.2138 C.2 0.0 **** 0.0
30211 C30211 14.2719 7.23226 66.3799 C.2 0.0 **** -0.1268
30212 C30212 14.1833 6.04265 68.5554 C.2 0.0 **** 0.0
30213 C30213 13.5136 5.14777 69.3683 C.2 0.0 **** 0.042
30214 C30214 12.413 4.35152 68.9312 C.2 0.0 **** 0.0
30215 C30215 12.0682 4.43283 67.5528 C.2 0.0 **** 0.0
30216 C30216 11.6122 5.67225 62.5489 C.2 0.0 **** 0.0
30217 C30217 11.3427 5.80073 61.1706 C.2 0.0 **** -0.1268
30218 C30218 11.327 4.60609 64.774 C.2 0.0 **** 0.0
30219 C30219 10.9614 4.69603 63.3975 C.2 0.0 **** 0.0
30220 C30220 11.0489 3.57904 67.0143 C.2 0.0 **** 0.0
30221 C30221 10.702 3.65964 65.6404 C.2 0.0 **** 0.0
30222 C30222 11.6759 3.47228 69.8048 C.2 0.0 **** 0.0
30223 C30223 10.7017 2.59606 69.2399 C.2 0.0 **** 0.0
30224 C30224 10.3943 2.6423 67.8568 C.2 0.0 **** 0.0
30225 O30225 14.0191 4.97414 70.6386 O.3 0.0 **** -0.202
30226 C30226 14.2122 6.18858 71.4177 C.3 0.0 **** 0.107
30227 C30227 14.8524 7.3149 70.5683 C.3 0.0 **** -0.053
30228 C30228 15.371 6.67971 69.2701 C.3 0.0 **** 0.107
30229 C30229 15.92 8.07621 71.3634 C.3 0.0 **** -0.106
30230 C30230 15.4109 8.30064 72.7912 C.3 0.0 **** -0.106
30231 C30231 15.3948 6.97533 73.5589 C.3 0.0 **** 0.134
30232 C30232 15.0368 5.76532 72.6321 C.3 0.0 **** -0.053
30233 C30233 14.2993 4.68552 73.4413 C.3 0.0 **** -0.106
30234 C30234 14.8704 4.55679 74.8525 C.3 0.0 **** -0.106
30235 C30235 14.692 5.89686 75.6201 C.3 0.0 **** 0.081
30236 N30236 14.5454 7.0712 74.7468 N.3 0.0 **** -0.727
30237 C30237 9.9456 3.79104 62.9263 C.2 0.0 **** 0.042
30238 C30238 9.37753 2.83931 63.7591 C.2 0.0 **** 0.042
30239 C30239 9.71153 2.76321 65.1361 C.2 0.0 **** 0.0
30240 O30240 8.4438 1.92768 63.3233 O.3 0.0 **** -0.202
30241 C30241 8.33826 1.80606 61.8882 C.3 0.0 **** 0.107
30242 C30242 8.2863 3.21318 61.317 C.3 0.0 **** 0.107
30243 O30243 9.53104 3.87462 61.6159 O.3 0.0 **** -0.202
30244 C30244 7.08205 4.02076 61.8446 C.3 0.0 **** -0.106
30245 C30245 5.88865 3.1244 62.2401 C.3 0.0 **** -0.106
30246 C30246 5.83447 1.87495 61.3539 C.3 0.0 **** -0.106
30247 C30247 7.08183 0.993239 61.5688 C.3 0.0 **** -0.106
30248 C30248 9.39972 1.75338 67.33 C.2 0.0 **** 0.0
30249 C30249 9.08593 1.82752 65.973 C.2 0.0 **** -0.1268
30250 C30250 10.023 1.6764 70.0877 C.2 0.0 **** 0.0
30251 C30251 9.06143 0.782224 69.5232 C.2 0.0 **** 0.042
30252 C30252 8.75 0.815323 68.1922 C.2 0.0 **** -0.1268
30253 C30253 10.2703 1.64435 71.4684 C.2 0.0 **** 0.0
30254 C30254 11.1663 2.56389 72.029 C.2 0.0 **** 0.0
30255 C30255 11.8406 3.44462 71.2032 C.2 0.0 **** -0.1268
30256 O30256 8.40804 -0.140495 70.326 O.3 0.0 **** -0.0685
30257 C30257 8.69447 -0.230616 71.6689 C.2 0.0 **** 0.0265
30258 C30258 9.59557 0.65909 72.2784 C.2 0.0 **** 0.0
30259 C30259 11.3866 2.65064 73.5159 C.3 0.0 **** -0.053
30260 C30260 10.9316 1.3965 74.2975 C.3 0.0 **** -0.053
30261 C30261 9.86814 0.553653 73.645 C.2 0.0 **** 0.0
30262 C30262 10.4667 1.75158 75.7224 C.3 0.0 **** -0.053
30263 C30263 11.39 2.80703 76.32 C.3 0.0 **** -0.106
30264 C30264 11.2186 4.14034 75.5501 C.3 0.0 **** -0.106
30265 C30265 10.7405 3.91883 74.1026 C.3 0.0 **** -0.106
30266 C30266 9.23966 -0.43348 74.4191 C.2 0.0 **** 0.0
30267 C30267 8.37732 -1.37538 73.7898 C.2 0.0 **** 0.0
30268 C30268 8.08 -1.26859 72.3947 C.2 0.0 **** 0.0
30269 C30269 10.2436 0.480949 76.4959 C.2 0.0 **** 0.0
30270 C30270 9.52271 -0.545345 75.8243 C.2 0.0 **** 0.0
30271 C30271 13.9577 14.8743 60.2377 C.3 0.0 **** -0.053
30272 C30272 13.4949 13.908 61.3359 C.3 0.0 **** -0.159
30273 C30273 13.8762 16.3214 60.7343 C.3 0.0 **** -0.159
30274 O30274 16.1336 7.66396 68.5697 O.3 0.0 **** -0.57
30275 C30275 7.19989 -2.22703 71.794 C.2 0.0 **** -0.1268
30276 C30276 6.67497 -3.25195 72.531 C.2 0.0 **** -0.1268
30277 C30277 6.98735 -3.41553 73.9213 C.2 0.0 **** 0.0
30278 C30278 7.84721 -2.45641 74.5477 C.2 0.0 **** 0.0
30279 C30279 8.19259 -2.60745 75.9169 C.2 0.0 **** 0.0
30280 C30280 7.6891 -3.70041 76.6608 C.2 0.0 **** 0.0
30281 C30281 6.82525 -4.65164 76.0279 C.2 0.0 **** 0.0
30282 C30282 6.49332 -4.48615 74.6736 C.2 0.0 **** -0.1268
30283 C30283 6.32688 -5.74947 76.7955 C.2 0.0 **** -0.1268
30284 C30284 6.66637 -5.89737 78.1142 C.2 0.0 **** -0.1268
30285 C30285 7.52387 -4.95954 78.7665 C.2 0.0 **** 0.0
30286 C30286 8.03427 -3.85346 78.0362 C.2 0.0 **** 0.0
30287 C30287 8.88137 -2.90213 78.6812 C.2 0.0 **** 0.0
30288 C30288 9.37754 -1.79732 77.9328 C.2 0.0 **** 0.0
30289 C30289 9.04054 -1.64959 76.5569 C.2 0.0 **** 0.0
30290 C30290 9.21323 -3.0449 80.0612 C.2 0.0 **** 0.0
30291 C30291 8.70116 -4.17746 80.7531 C.2 0.0 **** -0.1268
30292 C30292 7.88905 -5.09814 80.1244 C.2 0.0 **** -0.1268
30293 C30293 10.6047 0.310656 77.8136 C.2 0.0 **** -0.1268
30294 C30294 10.2246 -0.839125 78.5544 C.2 0.0 **** 0.0
30295 C30295 10.0834 -2.06603 80.68 C.2 0.0 **** 0.052
30296 C30296 10.6256 -1.02538 79.9138 C.2 0.0 **** 0.0
30297 C30297 11.6489 -0.0698239 80.4861 C.3 0.0 **** -0.106
30298 C30298 12.4136 -0.680771 81.654 C.3 0.0 **** -0.106
30299 C30299 11.4095 -1.13387 82.7006 C.3 0.0 **** -0.086
30300 C30300 10.3463 -2.07693 82.1514 C.2 0.0 **** 0.347
30301 O30301 9.71135 -2.76025 82.9563 O.2 0.0 **** -0.419
30302 H30302 10.294 14.4867 55.1068 H 0.0 **** 0.053
30303 H30303 10.8888 12.8042 55.1209 H 0.0 **** 0.053
30304 H30304 12.0878 15.2175 53.7507 H 0.0 **** 0.053
30305 H30305 12.8655 13.7224 54.2915 H 0.0 **** 0.053
30306 H30306 11.3057 14.2562 51.7281 H 0.0 **** 0.053
30307 H30307 11.4219 11.843 51.2085 H 0.0 **** 0.053
30308 H30308 9.82819 11.2921 53.4354 H 0.0 **** 0.053
30309 H30309 9.26022 12.1547 51.9725 H 0.0 **** 0.053
30310 H30310 12.0864 11.2955 54.1087 H 0.0 **** 0.053
30311 H30311 14.2083 12.1628 53.7233 H 0.0 **** 0.053
30312 H30312 13.7262 11.7245 50.7436 H 0.0 **** 0.053
30313 H30313 15.1884 12.4455 51.4326 H 0.0 **** 0.053
30314 H30314 13.3245 14.092 50.6206 H 0.0 **** 0.053
30315 H30315 14.0256 14.4011 52.2104 H 0.0 **** 0.053
30316 H30316 15.0949 8.62706 53.7636 H 0.0 **** 0.053
30317 H30317 13.2183 7.95504 52.658 H 0.0 **** 0.053
30318 H30318 11.0397 9.5264 52.6885 H 0.0 **** 0.053
30319 H30319 12.363 9.70677 51.5282 H 0.0 **** 0.053
30320 H30320 13.6767 10.8592 55.2637 H 0.0 **** 0.053
30321 H30321 10.777 5.5826 57.132 H 0.0 **** 0.053
30322 H30322 9.84059 6.96594 56.5712 H 0.0 **** 0.053
30323 H30323 10.0627 5.37762 54.7034 H 0.0 **** 0.053
30324 H30324 11.8303 5.34306 54.8915 H 0.0 **** 0.053
30325 H30325 10.1398 7.77776 54.0995 H 0.0 **** 0.053
30326 H30326 11.222 6.88863 53.0278 H 0.0 **** 0.053
30327 H30327 18.7821 10.1451 55.5355 H 0.0 **** 0.053
30328 H30328 18.5907 11.6084 54.6042 H 0.0 **** 0.053
30329 H30329 16.7119 10.1859 53.8371 H 0.0 **** 0.1268
30330 H30330 20.072 12.2913 56.6198 H 0.0 **** 0.053
30331 H30331 18.9872 13.6918 56.5568 H 0.0 **** 0.053
30332 H30332 19.968 13.5763 58.8367 H 0.0 **** 0.053
30333 H30333 19.4852 11.8757 58.9933 H 0.0 **** 0.053
30334 H30334 14.8374 13.514 57.8791 H 0.0 **** 0.053
30335 H30335 14.7403 12.5145 59.3096 H 0.0 **** 0.053
30336 H30336 15.6965 15.3967 59.0858 H 0.0 **** 0.053
30337 H30337 16.1974 13.4501 61.3808 H 0.0 **** 0.053
30338 H30338 16.3779 15.2092 61.5338 H 0.0 **** 0.053
30339 H30339 18.5552 13.9655 60.9596 H 0.0 **** 0.053
30340 H30340 18.1431 15.2554 59.8372 H 0.0 **** 0.053
30341 H30341 16.0767 10.8823 59.7714 H 0.0 **** 0.1268
30342 H30342 15.2152 9.02125 64.6763 H 0.0 **** 0.1268
30343 H30343 14.968 7.96082 66.7838 H 0.0 **** 0.1268
30344 H30344 10.6242 5.15935 60.6817 H 0.0 **** 0.1268
30345 H30345 13.2117 6.51037 71.7627 H 0.0 **** 0.053
30346 H30346 14.0638 8.02934 70.283 H 0.0 **** 0.053
30347 H30347 16.0474 5.85164 69.5668 H 0.0 **** 0.053
30348 H30348 16.8581 7.49543 71.3852 H 0.0 **** 0.053
30349 H30349 16.1473 9.02236 70.8562 H 0.0 **** 0.053
30350 H30350 14.3841 8.70693 72.7497 H 0.0 **** 0.053
30351 H30351 16.0157 9.03369 73.3424 H 0.0 **** 0.053
30352 H30352 16.416 6.79246 73.935 H 0.0 **** 0.053
30353 H30353 15.9775 5.33791 72.2454 H 0.0 **** 0.053
30354 H30354 13.235 4.96766 73.5162 H 0.0 **** 0.053
30355 H30355 14.3285 3.72712 72.9053 H 0.0 **** 0.053
30356 H30356 15.9387 4.29579 74.7855 H 0.0 **** 0.053
30357 H30357 14.3758 3.73722 75.3979 H 0.0 **** 0.053
30358 H30358 15.5597 6.06397 76.2807 H 0.0 **** 0.053
30359 H30359 13.8032 5.85346 76.2669 H 0.0 **** 0.053
30360 H30360 13.572 7.16971 74.4558 H 0.0 **** 0.353
30361 H30361 9.24878 1.30178 61.5238 H 0.0 **** 0.053
30362 H30362 8.27063 3.15371 60.2195 H 0.0 **** 0.053
30363 H30363 7.41824 4.60671 62.7123 H 0.0 **** 0.053
30364 H30364 6.78506 4.73831 61.0657 H 0.0 **** 0.053
30365 H30365 4.95304 3.69732 62.1618 H 0.0 **** 0.053
30366 H30366 5.99572 2.81336 63.2899 H 0.0 **** 0.053
30367 H30367 5.77732 2.18844 60.2974 H 0.0 **** 0.053
30368 H30368 4.92715 1.28679 61.5556 H 0.0 **** 0.053
30369 H30369 7.27365 0.377377 60.6774 H 0.0 **** 0.053
30370 H30370 6.9258 0.30016 62.4097 H 0.0 **** 0.053
30371 H30371 8.33965 1.15315 65.5559 H 0.0 **** 0.1268
30372 H30372 8.00423 0.13201 67.7846 H 0.0 **** 0.1268
30373 H30373 12.5365 4.1318 71.6579 H 0.0 **** 0.1268
30374 H30374 12.4691 2.76131 73.6819 H 0.0 **** 0.053
30375 H30375 11.8147 0.736796 74.412 H 0.0 **** 0.053
30376 H30376 9.46073 2.20728 75.624 H 0.0 **** 0.053
30377 H30377 12.4297 2.44554 76.246 H 0.0 **** 0.053
30378 H30378 11.1808 2.96314 77.3879 H 0.0 **** 0.053
30379 H30379 12.1783 4.67586 75.5365 H 0.0 **** 0.053
30380 H30380 10.5001 4.78589 76.0784 H 0.0 **** 0.053
30381 H30381 10.9941 4.78472 73.4725 H 0.0 **** 0.053
30382 H30382 9.64487 3.81357 74.0585 H 0.0 **** 0.053
30383 H30383 13.2692 14.7711 59.3791 H 0.0 **** 0.053
30384 H30384 12.4389 14.088 61.5876 H 0.0 **** 0.053
30385 H30385 14.0852 14.056 62.2533 H 0.0 **** 0.053
30386 H30386 13.5976 12.853 61.0395 H 0.0 **** 0.053
30387 H30387 14.1722 17.0295 59.9442 H 0.0 **** 0.053
30388 H30388 14.5449 16.4766 61.596 H 0.0 **** 0.053
30389 H30389 12.8546 16.5724 61.0579 H 0.0 **** 0.053
30390 H30390 16.5843 7.21363 67.8388 H 0.0 **** 0.41
30391 H30391 6.96427 -2.12778 70.7345 H 0.0 **** 0.1268
30392 H30392 6.00918 -3.97993 72.0641 H 0.0 **** 0.1268
30393 H30393 5.83896 -5.21772 74.1945 H 0.0 **** 0.1268
30394 H30394 5.67018 -6.46971 76.3041 H 0.0 **** 0.1268
30395 H30395 6.28833 -6.74203 78.6935 H 0.0 **** 0.1268
30396 H30396 8.95343 -4.30103 81.8008 H 0.0 **** 0.1268
30397 H30397 7.51562 -5.95921 80.6827 H 0.0 **** 0.1268
30398 H30398 11.1601 1.10332 78.3076 H 0.0 **** 0.1268
30399 H30399 12.3522 0.22175 79.6935 H 0.0 **** 0.053
30400 H30400 11.1488 0.859876 80.8175 H 0.0 **** 0.053
30401 H30401 13.1266 0.0456371 82.0726 H 0.0 **** 0.053
30402 H30402 12.9944 -1.54486 81.2917 H 0.0 **** 0.053
30403 H30403 10.8686 -0.255962 83.1 H 0.0 **** 0.053
30404 H30404 11.8712 -1.63648 83.5624 H 0.0 **** 0.053
30405 C30405 -10.4713 5.75121 26.3636 C.3 0.0 **** 0.054
30406 C30406 -11.0006 7.01703 27.0776 C.3 0.0 **** -0.106
30407 C30407 -11.3469 8.11601 26.0519 C.3 0.0 **** -0.053
30408 C30408 -10.2637 8.1418 24.9612 C.3 0.0 **** -0.053
30409 C30409 -10.2236 6.76572 24.2472 C.3 0.0 **** 0.054
30410 O30410 -10.87 5.72407 24.9888 O.3 0.0 **** -0.32
30411 C30411 -8.89092 8.53143 25.5488 C.3 0.0 **** -0.053
30412 C30412 -9.00707 9.61529 26.6585 C.3 0.0 **** 0.107
30413 C30413 -10.2886 10.4167 26.5053 C.3 0.0 **** -0.106
30414 C30414 -11.5177 9.51142 26.705 C.3 0.0 **** -0.106
30415 O30415 -7.91079 10.5419 26.6163 O.3 0.0 **** -0.32
30416 C30416 -6.63804 9.89768 26.4373 C.3 0.0 **** 0.107
30417 C30417 -6.54984 9.4133 24.979 C.3 0.0 **** -0.053
30418 C30418 -7.96656 9.04503 24.4482 C.3 0.0 **** -0.106
30419 C30419 -5.52208 8.35608 24.7452 C.2 0.0 **** 0.0
30420 C30420 -4.83028 7.72711 25.7681 C.2 0.0 **** 0.0
30421 C30421 -5.16219 7.95596 27.1518 C.2 0.0 **** 0.0
30422 C30422 -6.35649 8.81801 27.4942 C.3 0.0 **** -0.053
30423 C30423 -4.52427 7.27407 28.1733 C.2 0.0 **** 0.0
30424 C30424 -3.45991 6.34746 27.868 C.2 0.0 **** 0.0
30425 C30425 -3.11725 6.16853 26.4933 C.2 0.0 **** 0.232
30426 C30426 -3.76094 6.79639 25.4632 C.2 0.0 **** 0.0
30427 C30427 -3.37712 6.51884 24.0319 C.3 0.0 **** -0.106
30428 C30428 -3.73593 7.68893 23.1153 C.3 0.0 **** -0.106
30429 C30429 -5.2086 8.05984 23.3056 C.3 0.0 **** -0.106
30430 O30430 -2.1073 5.29011 26.1503 O.3 0.0 **** -0.464
30431 C30431 -1.34902 4.6823 27.1213 C.2 0.0 **** 0.232
30432 C30432 -1.67135 4.78298 28.4869 C.2 0.0 **** 0.0
30433 C30433 -2.78902 5.61826 28.8572 C.2 0.0 **** 0.0
30434 C30434 -6.2819 9.36216 28.9012 C.2 0.0 **** 0.0
30435 C30435 -5.85226 8.41805 29.9295 C.2 0.0 **** 0.0
30436 C30436 -4.92004 7.44102 29.5746 C.2 0.0 **** 0.0
30437 C30437 -6.29348 8.68645 31.2969 C.2 0.0 **** 0.0
30438 C30438 -6.54895 9.97562 31.6655 C.2 0.0 **** 0.0
30439 C30439 -6.52608 11.0915 30.6728 C.3 0.0 **** -0.106
30440 C30440 -6.58686 10.6324 29.249 C.2 0.0 **** -0.1268
30441 C30441 -6.90129 10.2842 33.0938 C.3 0.0 **** -0.106
30442 C30442 -6.21387 9.29216 34.0365 C.3 0.0 **** -0.106
30443 C30443 -6.51936 7.88164 33.5958 C.2 0.0 **** 0.0
30444 C30444 -6.57568 7.6072 32.2708 C.2 0.0 **** 0.0
30445 C30445 -7.07525 6.27954 31.7497 C.3 0.0 **** -0.106
30446 C30446 -7.65267 5.36936 32.8396 C.3 0.0 **** -0.053
30447 C30447 -6.75181 5.42661 34.0783 C.3 0.0 **** -0.106
30448 C30448 -6.7548 6.843 34.6531 C.3 0.0 **** -0.106
30449 C30449 -3.2142 5.79377 30.2157 C.2 0.0 **** -0.012
30450 C30450 -4.21186 6.67625 30.55 C.2 0.0 **** -0.1268
30451 C30451 -0.822206 4.09914 29.394 C.2 0.0 **** 0.0
30452 C30452 -1.09098 4.1152 30.8096 C.2 0.0 **** -0.012
30453 S30453 -2.52767 4.84109 31.513 S.2 0.0 **** 0.024
30454 C30454 -0.249968 3.49173 31.6956 C.2 0.0 **** -0.1268
30455 C30455 0.915071 2.81174 31.2528 C.2 0.0 **** 0.0
30456 C30456 1.20354 2.74311 29.8552 C.2 0.0 **** 0.0
30457 C30457 0.331355 3.37518 28.9266 C.2 0.0 **** 0.0
30458 C30458 2.35387 2.03408 29.42 C.2 0.0 **** 0.0
30459 C30459 3.22801 1.4327 30.3768 C.2 0.0 **** 0.0
30460 C30460 2.95246 1.57667 31.7846 C.2 0.0 **** 0.0
30461 C30461 1.77223 2.2258 32.1791 C.2 0.0 **** -0.1268
30462 C30462 3.89487 1.06252 32.724 C.2 0.0 **** 0.0
30463 C30463 4.95742 0.303242 32.2716 C.2 0.0 **** 0.042
30464 C30464 5.20777 0.0335235 30.8929 C.2 0.0 **** 0.0
30465 C30465 4.35666 0.672556 29.9481 C.2 0.0 **** 0.0
30466 C30466 0.612192 3.29384 27.5209 C.2 0.0 **** 0.0
30467 C30467 -0.265666 3.97297 26.6508 C.2 0.0 **** -0.1268
30468 C30468 2.62537 1.92589 28.0161 C.2 0.0 **** 0.0
30469 C30469 1.76457 2.54674 27.0621 C.2 0.0 **** 0.0
30470 C30470 4.61505 0.542326 28.543 C.2 0.0 **** 0.0
30471 C30471 3.76656 1.17718 27.5989 C.2 0.0 **** 0.0
30472 C30472 6.27808 -0.817222 30.4345 C.2 0.0 **** 0.0
30473 C30473 6.54882 -0.89237 29.0355 C.2 0.0 **** 0.0
30474 C30474 5.73064 -0.21428 28.0971 C.2 0.0 **** 0.0
30475 O30475 5.85538 -0.126587 33.2248 O.3 0.0 **** -0.202
30476 C30476 5.28545 -0.834104 34.3622 C.3 0.0 **** 0.107
30477 C30477 4.00577 -0.135022 34.8853 C.3 0.0 **** -0.053
30478 C30478 3.93792 1.25503 34.2366 C.3 0.0 **** 0.107
30479 C30479 3.96766 -0.11377 36.4182 C.3 0.0 **** -0.106
30480 C30480 4.44774 -1.46964 36.9465 C.3 0.0 **** -0.106
30481 C30481 5.95417 -1.62156 36.7148 C.3 0.0 **** 0.134
30482 C30482 6.41515 -0.934435 35.3857 C.3 0.0 **** -0.053
30483 C30483 7.61867 -1.68835 34.7959 C.3 0.0 **** -0.106
30484 C30484 8.56427 -2.17678 35.892 C.3 0.0 **** -0.106
30485 C30485 7.82175 -3.1725 36.8269 C.3 0.0 **** 0.081
30486 N30486 6.35843 -3.02445 36.8166 N.3 0.0 **** -0.727
30487 C30487 2.10167 2.38884 25.6712 C.2 0.0 **** 0.042
30488 C30488 3.23908 1.70357 25.2727 C.2 0.0 **** 0.042
30489 C30489 4.0833 1.05644 26.2118 C.2 0.0 **** 0.0
30490 O30490 3.61405 1.582 23.9546 O.3 0.0 **** -0.202
30491 C30491 2.94204 2.48216 23.047 C.3 0.0 **** 0.107
30492 C30492 1.45961 2.43491 23.3772 C.3 0.0 **** 0.107
30493 O30493 1.27285 2.93361 24.7161 O.3 0.0 **** -0.202
30494 C30494 0.863723 1.02059 23.2181 C.3 0.0 **** -0.106
30495 C30495 1.62057 0.166951 22.1776 C.3 0.0 **** -0.106
30496 C30496 2.18638 1.05206 21.0614 C.3 0.0 **** -0.106
30497 C30497 3.24221 2.03017 21.6163 C.3 0.0 **** -0.106
30498 C30498 6.02866 -0.325219 26.6987 C.2 0.0 **** 0.0
30499 C30499 5.19993 0.323599 25.7835 C.2 0.0 **** -0.1268
30500 C30500 7.64896 -1.67409 28.5841 C.2 0.0 **** 0.0
30501 C30501 7.93696 -1.73561 27.1855 C.2 0.0 **** 0.042
30502 C30502 7.15652 -1.09091 26.2662 C.2 0.0 **** -0.1268
30503 C30503 8.44397 -2.39668 29.4864 C.2 0.0 **** 0.0
30504 C30504 8.12185 -2.38561 30.8498 C.2 0.0 **** 0.0
30505 C30505 7.06502 -1.61084 31.2914 C.2 0.0 **** -0.1268
30506 O30506 9.02016 -2.46915 26.7257 O.3 0.0 **** -0.0685
30507 C30507 9.85021 -3.12358 27.6067 C.2 0.0 **** 0.0265
30508 C30508 9.57957 -3.13286 28.9858 C.2 0.0 **** 0.0
30509 C30509 8.86932 -3.22948 31.8479 C.3 0.0 **** -0.053
30510 C30510 10.2506 -3.71883 31.3546 C.3 0.0 **** -0.053
30511 C30511 10.4326 -3.8084 29.8627 C.2 0.0 **** 0.0
30512 C30512 10.6277 -5.07758 31.9746 C.3 0.0 **** -0.053
30513 C30513 10.2163 -5.10881 33.442 C.3 0.0 **** -0.106
30514 C30514 8.67082 -5.08955 33.5468 C.3 0.0 **** -0.106
30515 C30515 8.01354 -4.41601 32.3272 C.3 0.0 **** -0.106
30516 C30516 11.5585 -4.48796 29.3737 C.2 0.0 **** 0.0
30517 C30517 11.8687 -4.42411 27.9857 C.2 0.0 **** 0.0
30518 C30518 10.9954 -3.74771 27.0769 C.2 0.0 **** 0.0
30519 C30519 12.0571 -5.39381 31.6293 C.2 0.0 **** 0.0
30520 C30520 12.4389 -5.17967 30.2757 C.2 0.0 **** 0.0
30521 C30521 -7.88541 3.94042 32.3055 C.3 0.0 **** -0.053
30522 C30522 -6.5786 3.1592 32.1162 C.3 0.0 **** -0.159
30523 C30523 -8.84383 3.16127 33.2121 C.3 0.0 **** -0.159
30524 O30524 2.87558 1.98142 34.8568 O.3 0.0 **** -0.57
30525 C30525 11.3315 -3.71059 25.6842 C.2 0.0 **** -0.1268
30526 C30526 12.4866 -4.28261 25.2285 C.2 0.0 **** -0.1268
30527 C30527 13.4072 -4.92977 26.1179 C.2 0.0 **** 0.0
30528 C30528 13.0807 -4.99816 27.5109 C.2 0.0 **** 0.0
30529 C30529 13.9852 -5.61168 28.4176 C.2 0.0 **** 0.0
30530 C30530 15.2043 -6.15454 27.9479 C.2 0.0 **** 0.0
30531 C30531 15.5201 -6.08685 26.5524 C.2 0.0 **** 0.0
30532 C30532 14.6136 -5.4776 25.6699 C.2 0.0 **** -0.1268
30533 C30533 16.7565 -6.64029 26.0967 C.2 0.0 **** -0.1268
30534 C30534 17.6309 -7.22575 26.9736 C.2 0.0 **** -0.1268
30535 C30535 17.3354 -7.30695 28.3687 C.2 0.0 **** 0.0
30536 C30536 16.1137 -6.77176 28.8569 C.2 0.0 **** 0.0
30537 C30537 15.8014 -6.85916 30.2474 C.2 0.0 **** 0.0
30538 C30538 14.5688 -6.32173 30.7153 C.2 0.0 **** 0.0
30539 C30539 13.665 -5.69705 29.8092 C.2 0.0 **** 0.0
30540 C30540 16.7024 -7.49155 31.1546 C.2 0.0 **** 0.0
30541 C30541 17.9257 -7.99549 30.6318 C.2 0.0 **** -0.1268
30542 C30542 18.2268 -7.9025 29.289 C.2 0.0 **** -0.1268
30543 C30543 12.9532 -5.95727 32.5099 C.2 0.0 **** -0.1268
30544 C30544 14.2385 -6.39572 32.0965 C.2 0.0 **** 0.0
30545 C30545 16.3572 -7.5531 32.5601 C.2 0.0 **** 0.052
30546 C30546 15.1765 -6.95407 33.0195 C.2 0.0 **** 0.0
30547 C30547 14.8517 -6.87103 34.4944 C.3 0.0 **** -0.106
30548 C30548 16.1033 -6.93155 35.3613 C.3 0.0 **** -0.106
30549 C30549 16.8651 -8.2004 35.0164 C.3 0.0 **** -0.086
30550 C30550 17.185 -8.33009 33.5324 C.2 0.0 **** 0.347
30551 O30551 18.0728 -9.11752 33.2013 O.2 0.0 **** -0.419
30552 H30552 -10.8745 4.83359 26.8132 H 0.0 **** 0.053
30553 H30553 -9.36553 5.70343 26.4246 H 0.0 **** 0.053
30554 H30554 -11.8992 6.78485 27.6694 H 0.0 **** 0.053
30555 H30555 -10.2386 7.38674 27.782 H 0.0 **** 0.053
30556 H30556 -12.2934 7.82412 25.5739 H 0.0 **** 0.053
30557 H30557 -10.5359 8.90735 24.2154 H 0.0 **** 0.053
30558 H30558 -9.16925 6.47648 24.0547 H 0.0 **** 0.053
30559 H30559 -10.7533 6.80006 23.2848 H 0.0 **** 0.053
30560 H30560 -8.44151 7.62285 25.9806 H 0.0 **** 0.053
30561 H30561 -9.01421 9.13105 27.6542 H 0.0 **** 0.053
30562 H30562 -10.2984 10.8658 25.499 H 0.0 **** 0.053
30563 H30563 -10.2931 11.2454 27.2278 H 0.0 **** 0.053
30564 H30564 -12.4036 10.0157 26.2907 H 0.0 **** 0.053
30565 H30565 -11.7072 9.38184 27.7833 H 0.0 **** 0.053
30566 H30566 -5.89789 10.6964 26.5923 H 0.0 **** 0.053
30567 H30567 -6.23243 10.2851 24.3754 H 0.0 **** 0.053
30568 H30568 -7.88897 8.3021 23.6407 H 0.0 **** 0.053
30569 H30569 -8.43012 9.94469 24.0137 H 0.0 **** 0.053
30570 H30570 -7.20476 8.10378 27.4948 H 0.0 **** 0.053
30571 H30571 -2.30494 6.28307 23.9708 H 0.0 **** 0.053
30572 H30572 -3.90936 5.61323 23.6842 H 0.0 **** 0.053
30573 H30573 -3.53202 7.42917 22.0653 H 0.0 **** 0.053
30574 H30574 -3.10987 8.55895 23.3716 H 0.0 **** 0.053
30575 H30575 -5.83803 7.22236 22.9433 H 0.0 **** 0.053
30576 H30576 -5.48107 8.92999 22.6847 H 0.0 **** 0.053
30577 H30577 -5.61633 11.713 30.8262 H 0.0 **** 0.053
30578 H30578 -7.35844 11.7885 30.8923 H 0.0 **** 0.053
30579 H30579 -6.88944 11.3591 28.4969 H 0.0 **** 0.1268
30580 H30580 -6.6196 11.322 33.3335 H 0.0 **** 0.053
30581 H30581 -8.00083 10.2166 33.2217 H 0.0 **** 0.053
30582 H30582 -6.54051 9.44324 35.0772 H 0.0 **** 0.053
30583 H30583 -5.12082 9.46638 34.0126 H 0.0 **** 0.053
30584 H30584 -7.84717 6.47847 30.9848 H 0.0 **** 0.053
30585 H30585 -6.27681 5.74572 31.2121 H 0.0 **** 0.053
30586 H30586 -8.63807 5.77616 33.1344 H 0.0 **** 0.053
30587 H30587 -5.7233 5.15657 33.7879 H 0.0 **** 0.053
30588 H30588 -7.07904 4.70159 34.8393 H 0.0 **** 0.053
30589 H30589 -5.98222 6.95046 35.4363 H 0.0 **** 0.053
30590 H30590 -7.71722 7.04347 35.1632 H 0.0 **** 0.053
30591 H30591 -4.45038 6.83002 31.6022 H 0.0 **** 0.1268
30592 H30592 -0.459276 3.51689 32.7674 H 0.0 **** 0.1268
30593 H30593 1.49346 2.25121 33.2279 H 0.0 **** 0.1268
30594 H30594 -0.108069 3.96359 25.5824 H 0.0 **** 0.1268
30595 H30595 5.03233 -1.85236 34.012 H 0.0 **** 0.053
30596 H30596 3.12865 -0.698366 34.5289 H 0.0 **** 0.053
30597 H30597 4.8971 1.76313 34.4672 H 0.0 **** 0.053
30598 H30598 4.61947 0.690963 36.7994 H 0.0 **** 0.053
30599 H30599 2.94965 0.119767 36.7547 H 0.0 **** 0.053
30600 H30600 3.91626 -2.27615 36.4096 H 0.0 **** 0.053
30601 H30601 4.22763 -1.60629 38.0141 H 0.0 **** 0.053
30602 H30602 6.4747 -1.09968 37.536 H 0.0 **** 0.053
30603 H30603 6.72443 0.0979932 35.6214 H 0.0 **** 0.053
30604 H30604 7.24571 -2.56355 34.2365 H 0.0 **** 0.053
30605 H30605 8.14018 -1.05395 34.0664 H 0.0 **** 0.053
30606 H30606 8.92442 -1.30973 36.4686 H 0.0 **** 0.053
30607 H30607 9.45238 -2.65805 35.4522 H 0.0 **** 0.053
30608 H30608 8.17478 -3.04099 37.8638 H 0.0 **** 0.053
30609 H30609 8.05058 -4.21014 36.5419 H 0.0 **** 0.053
30610 H30610 5.96102 -3.54552 36.0339 H 0.0 **** 0.353
30611 H30611 3.32212 3.49979 23.2371 H 0.0 **** 0.053
30612 H30612 0.92853 3.15992 22.7442 H 0.0 **** 0.053
30613 H30613 0.888209 0.527701 24.2008 H 0.0 **** 0.053
30614 H30614 -0.194064 1.12593 22.9358 H 0.0 **** 0.053
30615 H30615 0.945963 -0.596818 21.7637 H 0.0 **** 0.053
30616 H30616 2.45052 -0.360938 22.6701 H 0.0 **** 0.053
30617 H30617 1.35912 1.61884 20.6008 H 0.0 **** 0.053
30618 H30618 2.6318 0.442488 20.2615 H 0.0 **** 0.053
30619 H30619 3.31813 2.91823 20.9713 H 0.0 **** 0.053
30620 H30620 4.23687 1.55867 21.6309 H 0.0 **** 0.053
30621 H30621 5.4182 0.256668 24.7188 H 0.0 **** 0.1268
30622 H30622 7.3873 -1.16125 25.2027 H 0.0 **** 0.1268
30623 H30623 6.84751 -1.60747 32.3478 H 0.0 **** 0.1268
30624 H30624 9.04469 -2.607 32.7386 H 0.0 **** 0.053
30625 H30625 11.008 -2.99199 31.7103 H 0.0 **** 0.053
30626 H30626 10.0285 -5.84552 31.445 H 0.0 **** 0.053
30627 H30627 10.6518 -4.22972 33.9469 H 0.0 **** 0.053
30628 H30628 10.6137 -5.99896 33.95 H 0.0 **** 0.053
30629 H30629 8.377 -4.55192 34.4594 H 0.0 **** 0.053
30630 H30630 8.29127 -6.11817 33.6459 H 0.0 **** 0.053
30631 H30631 7.00213 -4.06145 32.577 H 0.0 **** 0.053
30632 H30632 7.89563 -5.1291 31.496 H 0.0 **** 0.053
30633 H30633 -8.36623 4.04729 31.3159 H 0.0 **** 0.053
30634 H30634 -6.77196 2.20192 31.6093 H 0.0 **** 0.053
30635 H30635 -6.12052 2.93236 33.0914 H 0.0 **** 0.053
30636 H30636 -5.8381 3.71468 31.5209 H 0.0 **** 0.053
30637 H30637 -9.8009 3.69378 33.3288 H 0.0 **** 0.053
30638 H30638 -8.40805 3.02415 34.2146 H 0.0 **** 0.053
30639 H30639 -9.05265 2.16156 32.8018 H 0.0 **** 0.053
30640 H30640 2.94109 2.90114 34.5568 H 0.0 **** 0.41
30641 H30641 10.6516 -3.20876 24.9959 H 0.0 **** 0.1268
30642 H30642 12.7367 -4.24556 24.1668 H 0.0 **** 0.1268
30643 H30643 14.8622 -5.42348 24.6077 H 0.0 **** 0.1268
30644 H30644 16.9888 -6.58293 25.0317 H 0.0 **** 0.1268
30645 H30645 18.5771 -7.64036 26.6206 H 0.0 **** 0.1268
30646 H30646 18.6225 -8.47123 31.3136 H 0.0 **** 0.1268
30647 H30647 19.1765 -8.29565 28.92 H 0.0 **** 0.1268
30648 H30648 12.6451 -6.10748 33.5411 H 0.0 **** 0.1268
30649 H30649 14.3083 -5.93626 34.6913 H 0.0 **** 0.053
30650 H30650 14.1679 -7.69475 34.7741 H 0.0 **** 0.053
30651 H30651 15.837 -6.90332 36.4288 H 0.0 **** 0.053
30652 H30652 16.7296 -6.04886 35.1521 H 0.0 **** 0.053
30653 H30653 16.2535 -9.08319 35.2799 H 0.0 **** 0.053
30654 H30654 17.8148 -8.30305 35.5604 H 0.0 **** 0.053
30655 C30655 34.8491 44.8378 64.0506 C.3 0.0 **** 0.054
30656 C30656 35.4317 45.3201 62.7014 C.3 0.0 **** -0.106
30657 C30657 35.8905 46.7896 62.8008 C.3 0.0 **** -0.053
30658 C30658 34.8559 47.5828 63.6156 C.3 0.0 **** -0.053
30659 C30659 34.7537 46.9782 65.04 C.3 0.0 **** 0.054
30660 O30660 35.2998 45.657 65.1347 O.3 0.0 **** -0.32
30661 C30661 33.4893 47.6156 62.8991 C.3 0.0 **** -0.053
30662 C30662 33.6322 47.7387 61.3551 C.3 0.0 **** 0.107
30663 C30663 34.9689 48.3552 60.9791 C.3 0.0 **** -0.106
30664 C30664 36.1267 47.4376 61.4126 C.3 0.0 **** -0.106
30665 O30665 32.602 48.5627 60.7879 O.3 0.0 **** -0.32
30666 C30666 31.2977 48.2771 61.321 C.3 0.0 **** 0.107
30667 C30667 31.2361 48.8343 62.7545 C.3 0.0 **** -0.053
30668 C30668 32.6456 48.7786 63.4138 C.3 0.0 **** -0.106
30669 C30669 30.1511 48.2465 63.5946 C.2 0.0 **** 0.0
30670 C30670 29.379 47.1672 63.1955 C.2 0.0 **** 0.0
30671 C30671 29.6696 46.4418 61.9844 C.2 0.0 **** 0.0
30672 C30672 30.9035 46.7978 61.186 C.3 0.0 **** -0.053
30673 C30673 28.9478 45.3185 61.6205 C.2 0.0 **** 0.0
30674 C30674 27.8377 44.8795 62.4328 C.2 0.0 **** 0.0
30675 C30675 27.5393 45.6383 63.605 C.2 0.0 **** 0.232
30676 C30676 28.2636 46.7251 64.0099 C.2 0.0 **** 0.0
30677 C30677 27.9199 47.447 65.288 C.3 0.0 **** -0.106
30678 C30678 28.3914 48.9012 65.2581 C.3 0.0 **** -0.106
30679 C30679 29.8766 48.954 64.8918 C.3 0.0 **** -0.106
30680 O30680 26.4881 45.2561 64.4163 O.3 0.0 **** -0.464
30681 C30681 25.6532 44.2309 64.0431 C.2 0.0 **** 0.232
30682 C30682 25.9266 43.4191 62.9274 C.2 0.0 **** 0.0
30683 C30683 27.0812 43.7426 62.1234 C.2 0.0 **** 0.0
30684 C30684 30.8088 46.3316 59.7525 C.2 0.0 **** 0.0
30685 C30685 30.277 44.9861 59.5519 C.2 0.0 **** 0.0
30686 C30686 29.2974 44.5295 60.4359 C.2 0.0 **** 0.0
30687 C30687 30.68 44.2932 58.3296 C.2 0.0 **** 0.0
30688 C30688 31.0049 45.0332 57.2297 C.2 0.0 **** 0.0
30689 C30689 31.0954 46.523 57.2888 C.3 0.0 **** -0.106
30690 C30690 31.1827 47.0664 58.6812 C.2 0.0 **** -0.1268
30691 C30691 31.3194 44.3394 55.9338 C.3 0.0 **** -0.106
30692 C30692 30.531 43.0309 55.827 C.3 0.0 **** -0.106
30693 C30693 30.7602 42.2003 57.0659 C.2 0.0 **** 0.0
30694 C30694 30.8512 42.8237 58.2647 C.2 0.0 **** 0.0
30695 C30695 31.2826 42.0931 59.5153 C.3 0.0 **** -0.106
30696 C30696 31.7547 40.6578 59.2566 C.3 0.0 **** -0.053
30697 C30697 30.8108 39.9862 58.253 C.3 0.0 **** -0.106
30698 C30698 30.8842 40.7128 56.9102 C.3 0.0 **** -0.106
30699 C30699 27.4624 42.985 60.9668 C.2 0.0 **** -0.012
30700 C30700 28.5019 43.3768 60.1594 C.2 0.0 **** -0.1268
30701 C30701 24.9986 42.3828 62.6508 C.2 0.0 **** 0.0
30702 C30702 25.2111 41.4783 61.5494 C.2 0.0 **** -0.012
30703 S30703 26.6632 41.4822 60.5609 S.2 0.0 **** 0.024
30704 C30704 24.296 40.5012 61.251 C.2 0.0 **** -0.1268
30705 C30705 23.1073 40.3468 62.0118 C.2 0.0 **** 0.0
30706 C30706 22.8711 41.201 63.1324 C.2 0.0 **** 0.0
30707 C30707 23.8195 42.2093 63.4587 C.2 0.0 **** 0.0
30708 C30708 21.6948 41.0183 63.906 C.2 0.0 **** 0.0
30709 C30709 20.7454 40.016 63.5385 C.2 0.0 **** 0.0
30710 C30710 20.9733 39.2143 62.362 C.2 0.0 **** 0.0
30711 C30711 22.1771 39.3744 61.6583 C.2 0.0 **** -0.1268
30712 C30712 19.9622 38.2954 61.9519 C.2 0.0 **** 0.0
30713 C30713 18.8709 38.0782 62.7716 C.2 0.0 **** 0.042
30714 C30714 18.6586 38.7627 64.0056 C.2 0.0 **** 0.0
30715 C30715 19.5871 39.7882 64.3397 C.2 0.0 **** 0.0
30716 C30716 23.5903 43.0583 64.5937 C.2 0.0 **** 0.0
30717 C30717 24.5451 44.0653 64.8449 C.2 0.0 **** -0.1268
30718 C30718 21.4731 41.8448 65.0568 C.2 0.0 **** 0.0
30719 C30719 22.4105 42.8614 65.4097 C.2 0.0 **** 0.0
30720 C30720 19.3771 40.5974 65.5055 C.2 0.0 **** 0.0
30721 C30721 20.3027 41.6194 65.8417 C.2 0.0 **** 0.0
30722 C30722 17.5537 38.4795 64.8879 C.2 0.0 **** 0.0
30723 C30723 17.3348 39.3281 66.0139 C.2 0.0 **** 0.0
30724 C30724 18.2328 40.3822 66.3179 C.2 0.0 **** 0.0
30725 O30725 17.9091 37.2121 62.2977 O.3 0.0 **** -0.202
30726 C30726 18.3853 35.9034 61.8737 C.3 0.0 **** 0.107
30727 C30727 19.6863 36.0129 61.0399 C.3 0.0 **** -0.053
30728 C30728 19.8715 37.4891 60.6601 C.3 0.0 **** 0.107
30729 C30729 19.6644 35.0556 59.8421 C.3 0.0 **** -0.106
30730 C30730 19.0752 33.7135 60.2887 C.3 0.0 **** -0.106
30731 C30731 17.5725 33.8582 60.5476 C.3 0.0 **** 0.134
30732 C30732 17.2114 35.2642 61.1339 C.3 0.0 **** -0.053
30733 C30733 15.9853 35.1489 62.0549 C.3 0.0 **** -0.106
30734 C30734 14.9665 34.1508 61.5072 C.3 0.0 **** -0.106
30735 C30735 15.6038 32.7353 61.4245 C.3 0.0 **** 0.081
30736 N30736 17.0729 32.7441 61.3546 N.3 0.0 **** -0.727
30737 C30737 22.1196 43.6463 66.5812 C.2 0.0 **** 0.042
30738 C30738 20.9563 43.4577 67.3115 C.2 0.0 **** 0.042
30739 C30739 20.0344 42.429 66.987 C.2 0.0 **** 0.0
30740 O30740 20.6271 44.2274 68.4033 O.3 0.0 **** -0.202
30741 C30741 21.3928 45.4441 68.541 C.3 0.0 **** 0.107
30742 C30742 22.8545 45.0854 68.332 C.3 0.0 **** 0.107
30743 O30743 23.02 44.6074 66.9828 O.3 0.0 **** -0.202
30744 C30744 23.3617 44.0515 69.3588 C.3 0.0 **** -0.106
30745 C30745 22.5925 44.1107 70.6963 C.3 0.0 **** -0.106
30746 C30746 22.1313 45.5424 70.9913 C.3 0.0 **** -0.106
30747 C30747 21.1209 46.0249 69.9303 C.3 0.0 **** -0.106
30748 C30748 17.9843 41.2051 67.4659 C.2 0.0 **** 0.0
30749 C30749 18.8899 42.2211 67.7707 C.2 0.0 **** -0.1268
30750 C30750 16.2045 39.096 66.8467 C.2 0.0 **** 0.0
30751 C30751 15.9692 39.9562 67.9635 C.2 0.0 **** 0.042
30752 C30752 16.8266 40.9753 68.2736 C.2 0.0 **** -0.1268
30753 C30753 15.3281 38.0287 66.599 C.2 0.0 **** 0.0
30754 C30754 15.5955 37.1493 65.5417 C.2 0.0 **** 0.0
30755 C30755 16.6826 37.3857 64.7205 C.2 0.0 **** -0.1268
30756 O30756 14.8592 39.7651 68.7724 O.3 0.0 **** -0.0685
30757 C30757 13.9533 38.7665 68.4976 C.2 0.0 **** 0.0265
30758 C30758 14.1674 37.8654 67.4405 C.2 0.0 **** 0.0
30759 C30759 14.7547 35.9243 65.2975 C.3 0.0 **** -0.053
30760 C30760 13.3649 35.9653 65.974 C.3 0.0 **** -0.053
30761 C30761 13.2373 36.8549 67.182 C.2 0.0 **** 0.0
30762 C30762 12.8746 34.555 66.3528 C.3 0.0 **** -0.053
30763 C30763 13.224 33.5703 65.2429 C.3 0.0 **** -0.106
30764 C30764 14.762 33.4008 65.1667 C.3 0.0 **** -0.106
30765 C30765 15.5105 34.6416 65.6891 C.3 0.0 **** -0.106
30766 C30766 12.0895 36.7272 67.9787 C.2 0.0 **** 0.0
30767 C30767 11.8399 37.679 69.0076 C.2 0.0 **** 0.0
30768 C30768 12.7915 38.7088 69.2905 C.2 0.0 **** 0.0
30769 C30769 11.4424 34.6392 66.8046 C.2 0.0 **** 0.0
30770 C30770 11.13 35.6904 67.7108 C.2 0.0 **** 0.0
30771 C30771 31.9139 39.8777 60.5785 C.3 0.0 **** -0.053
30772 C30772 30.5671 39.4957 61.2061 C.3 0.0 **** -0.159
30773 C30773 32.7819 38.6304 60.3826 C.3 0.0 **** -0.159
30774 O30774 20.9538 37.5747 59.7316 O.3 0.0 **** -0.57
30775 C30775 12.5146 39.645 70.3397 C.2 0.0 **** -0.1268
30776 C30776 11.3434 39.5811 71.0421 C.2 0.0 **** -0.1268
30777 C30777 10.3473 38.5898 70.7552 C.2 0.0 **** 0.0
30778 C30778 10.6126 37.6301 69.7256 C.2 0.0 **** 0.0
30779 C30779 9.6341 36.6524 69.404 C.2 0.0 **** 0.0
30780 C30780 8.40166 36.6248 70.0982 C.2 0.0 **** 0.0
30781 C30781 8.14706 37.5847 71.1303 C.2 0.0 **** 0.0
30782 C30782 9.12627 38.5436 71.4358 C.2 0.0 **** -0.1268
30783 C30783 6.89603 37.5415 71.8201 C.2 0.0 **** -0.1268
30784 C30784 5.95064 36.602 71.5042 C.2 0.0 **** -0.1268
30785 C30785 6.18409 35.6334 70.4807 C.2 0.0 **** 0.0
30786 C30786 7.41789 35.6432 69.7772 C.2 0.0 **** 0.0
30787 C30787 7.66793 34.6715 68.7613 C.2 0.0 **** 0.0
30788 C30788 8.91353 34.695 68.0722 C.2 0.0 **** 0.0
30789 C30789 9.89209 35.681 68.3862 C.2 0.0 **** 0.0
30790 C30790 6.6916 33.6787 68.4515 C.2 0.0 **** 0.0
30791 C30791 5.45967 33.7151 69.1619 C.2 0.0 **** -0.1268
30792 C30792 5.21924 34.66 70.1374 C.2 0.0 **** -0.1268
30793 C30793 10.4767 33.716 66.4717 C.2 0.0 **** -0.1268
30794 C30794 9.18277 33.7382 67.0553 C.2 0.0 **** 0.0
30795 C30795 6.97552 32.7149 67.408 C.2 0.0 **** 0.052
30796 C30796 8.17389 32.7953 66.6859 C.2 0.0 **** 0.0
30797 C30797 8.4442 31.9005 65.4968 C.3 0.0 **** -0.106
30798 C30798 7.1576 31.4004 64.8514 C.3 0.0 **** -0.106
30799 C30799 6.32824 30.6997 65.9146 C.3 0.0 **** -0.086
30800 C30800 6.06012 31.564 67.1404 C.2 0.0 **** 0.347
30801 O30801 5.13629 31.235 67.8861 O.2 0.0 **** -0.419
30802 H30802 35.1727 43.8155 64.2897 H 0.0 **** 0.053
30803 H30803 33.741 44.8467 64.0216 H 0.0 **** 0.053
30804 H30804 36.2887 44.6979 62.4012 H 0.0 **** 0.053
30805 H30805 34.6682 45.2169 61.9141 H 0.0 **** 0.053
30806 H30806 36.834 46.7953 63.3658 H 0.0 **** 0.053
30807 H30807 35.2075 48.6239 63.7093 H 0.0 **** 0.053
30808 H30808 33.6911 46.9578 65.3607 H 0.0 **** 0.053
30809 H30809 35.3226 47.5737 65.7678 H 0.0 **** 0.053
30810 H30810 32.9641 46.6767 63.137 H 0.0 **** 0.053
30811 H30811 33.5676 46.7347 60.8928 H 0.0 **** 0.053
30812 H30812 35.0485 49.3376 61.4721 H 0.0 **** 0.053
30813 H30813 34.9991 48.5355 59.895 H 0.0 **** 0.053
30814 H30814 37.0597 48.0208 61.4225 H 0.0 **** 0.053
30815 H30815 36.2639 46.6405 60.6634 H 0.0 **** 0.053
30816 H30816 30.6062 48.8506 60.6864 H 0.0 **** 0.053
30817 H30817 31.0013 49.9122 62.6644 H 0.0 **** 0.053
30818 H30818 32.5515 48.7238 64.5085 H 0.0 **** 0.053
30819 H30819 33.1844 49.7113 63.184 H 0.0 **** 0.053
30820 H30820 31.7022 46.1826 61.648 H 0.0 **** 0.053
30821 H30821 26.8378 47.3859 65.4731 H 0.0 **** 0.053
30822 H30822 28.4047 46.9291 66.1372 H 0.0 **** 0.053
30823 H30823 28.213 49.3816 66.2322 H 0.0 **** 0.053
30824 H30824 27.8144 49.4568 64.5012 H 0.0 **** 0.053
30825 H30825 30.4634 48.4904 65.71 H 0.0 **** 0.053
30826 H30826 30.2304 49.9965 64.8227 H 0.0 **** 0.053
30827 H30827 30.2232 46.9739 56.7659 H 0.0 **** 0.053
30828 H30828 31.9625 46.8572 56.686 H 0.0 **** 0.053
30829 H30829 31.5623 48.0792 58.8047 H 0.0 **** 0.1268
30830 H30830 31.0974 45.0084 55.0871 H 0.0 **** 0.053
30831 H30831 32.4062 44.1224 55.8898 H 0.0 **** 0.053
30832 H30832 30.825 42.4632 54.9304 H 0.0 **** 0.053
30833 H30833 29.4536 43.2636 55.723 H 0.0 **** 0.053
30834 H30834 32.0959 42.6717 59.9886 H 0.0 **** 0.053
30835 H30835 30.4729 42.0833 60.2606 H 0.0 **** 0.053
30836 H30836 32.7522 40.7092 58.7815 H 0.0 **** 0.053
30837 H30837 29.7792 40.0406 58.6375 H 0.0 **** 0.053
30838 H30838 31.0588 38.921 58.1284 H 0.0 **** 0.053
30839 H30839 30.0897 40.3586 56.2282 H 0.0 **** 0.053
30840 H30840 31.8365 40.4708 56.3993 H 0.0 **** 0.053
30841 H30841 28.7078 42.8108 59.2513 H 0.0 **** 0.1268
30842 H30842 24.4635 39.8258 60.4089 H 0.0 **** 0.1268
30843 H30843 22.4147 38.7085 60.8346 H 0.0 **** 0.1268
30844 H30844 24.4301 44.7467 65.675 H 0.0 **** 0.1268
30845 H30845 18.5845 35.3216 62.7932 H 0.0 **** 0.053
30846 H30846 20.5379 35.7378 61.6824 H 0.0 **** 0.053
30847 H30847 18.9395 37.8076 60.1491 H 0.0 **** 0.053
30848 H30848 19.0523 35.4837 59.0297 H 0.0 **** 0.053
30849 H30849 20.6813 34.9447 59.4449 H 0.0 **** 0.053
30850 H30850 19.5734 33.3918 61.2212 H 0.0 **** 0.053
30851 H30851 19.243 32.9154 59.5526 H 0.0 **** 0.053
30852 H30852 17.0551 33.7798 59.5761 H 0.0 **** 0.053
30853 H30853 16.9617 35.9337 60.2934 H 0.0 **** 0.053
30854 H30854 16.3218 34.8007 63.0466 H 0.0 **** 0.053
30855 H30855 15.5363 36.1393 62.2106 H 0.0 **** 0.053
30856 H30856 14.6415 34.481 60.5076 H 0.0 **** 0.053
30857 H30857 14.0669 34.1265 62.1428 H 0.0 **** 0.053
30858 H30858 15.219 32.2069 60.5358 H 0.0 **** 0.053
30859 H30859 15.3186 32.134 62.3006 H 0.0 **** 0.053
30860 H30860 17.4661 32.8081 62.2944 H 0.0 **** 0.353
30861 H30861 21.0733 46.1365 67.7444 H 0.0 **** 0.053
30862 H30862 23.4571 46.0042 68.3671 H 0.0 **** 0.053
30863 H30863 23.2655 43.0514 68.9117 H 0.0 **** 0.053
30864 H30864 24.4346 44.2306 69.5217 H 0.0 **** 0.053
30865 H30865 23.2313 43.7331 71.5082 H 0.0 **** 0.053
30866 H30866 21.7105 43.4556 70.6414 H 0.0 **** 0.053
30867 H30867 23.0119 46.2075 70.9968 H 0.0 **** 0.053
30868 H30868 21.679 45.6135 71.9914 H 0.0 **** 0.053
30869 H30869 21.1296 47.1231 69.8646 H 0.0 **** 0.053
30870 H30870 20.0976 45.7284 70.2072 H 0.0 **** 0.053
30871 H30871 18.7104 42.8604 68.6337 H 0.0 **** 0.1268
30872 H30872 16.6344 41.6122 69.1377 H 0.0 **** 0.1268
30873 H30873 16.8574 36.7027 63.9042 H 0.0 **** 0.1268
30874 H30874 14.5852 35.8531 64.2122 H 0.0 **** 0.053
30875 H30875 12.6436 36.3576 65.2298 H 0.0 **** 0.053
30876 H30876 13.4426 34.2532 67.2559 H 0.0 **** 0.053
30877 H30877 12.8277 33.9608 64.2902 H 0.0 **** 0.053
30878 H30878 12.7488 32.5933 65.4106 H 0.0 **** 0.053
30879 H30879 15.0539 33.2145 64.1234 H 0.0 **** 0.053
30880 H30880 15.0686 32.5168 65.7468 H 0.0 **** 0.053
30881 H30881 16.5323 34.6793 65.2822 H 0.0 **** 0.053
30882 H30882 15.6143 34.6099 66.7853 H 0.0 **** 0.053
30883 H30883 32.4399 40.55 61.2808 H 0.0 **** 0.053
30884 H30884 30.717 39.0647 62.2074 H 0.0 **** 0.053
30885 H30885 30.0564 38.7384 60.5913 H 0.0 **** 0.053
30886 H30886 29.8892 40.357 61.3058 H 0.0 **** 0.053
30887 H30887 33.7665 38.8935 59.9651 H 0.0 **** 0.053
30888 H30888 32.2983 37.9232 59.69 H 0.0 **** 0.053
30889 H30889 32.9406 38.1044 61.3363 H 0.0 **** 0.053
30890 H30890 20.9611 38.478 59.3792 H 0.0 **** 0.41
30891 H30891 13.2531 40.4154 70.5607 H 0.0 **** 0.1268
30892 H30892 11.1389 40.3011 71.8365 H 0.0 **** 0.1268
30893 H30893 8.9245 39.2769 72.2197 H 0.0 **** 0.1268
30894 H30894 6.71079 38.2778 72.6043 H 0.0 **** 0.1268
30895 H30895 4.99396 36.5784 72.0297 H 0.0 **** 0.1268
30896 H30896 4.70633 32.9701 68.9291 H 0.0 **** 0.1268
30897 H30897 4.26122 34.6634 70.6617 H 0.0 **** 0.1268
30898 H30898 10.7327 32.9238 65.7733 H 0.0 **** 0.1268
30899 H30899 9.03975 32.4542 64.7574 H 0.0 **** 0.053
30900 H30900 9.0604 31.0367 65.8106 H 0.0 **** 0.053
30901 H30901 7.38233 30.7258 64.0113 H 0.0 **** 0.053
30902 H30902 6.59977 32.2605 64.4463 H 0.0 **** 0.053
30903 H30903 6.86928 29.8063 66.2778 H 0.0 **** 0.053
30904 H30904 5.35286 30.3486 65.5489 H 0.0 **** 0.053
30905 C30905 59.177 46.5751 81.1616 C.3 0.0 **** 0.054
30906 C30906 60.5741 47.2387 81.1791 C.3 0.0 **** -0.106
30907 C30907 60.6226 48.378 82.218 C.3 0.0 **** -0.053
30908 C30908 59.3043 49.1667 82.1578 C.3 0.0 **** -0.053
30909 C30909 58.1242 48.217 82.4903 C.3 0.0 **** 0.054
30910 O30910 58.4646 46.8299 82.3771 O.3 0.0 **** -0.32
30911 C30911 59.1284 49.8536 80.787 C.3 0.0 **** -0.053
30912 C30912 60.4712 50.3959 80.2191 C.3 0.0 **** 0.107
30913 C30913 61.4756 50.6381 81.3329 C.3 0.0 **** -0.106
30914 C30914 61.844 49.3127 82.0241 C.3 0.0 **** -0.106
30915 O30915 60.2924 51.6383 79.5213 O.3 0.0 **** -0.32
30916 C30916 59.1481 51.6336 78.651 C.3 0.0 **** 0.107
30917 C30917 57.8837 51.7089 79.5255 C.3 0.0 **** -0.053
30918 C30918 58.1326 51.0054 80.892 C.3 0.0 **** -0.106
30919 C30919 56.6347 51.2686 78.8365 C.2 0.0 **** 0.0
30920 C30920 56.6248 50.6715 77.586 C.2 0.0 **** 0.0
30921 C30921 57.8482 50.3035 76.9188 C.2 0.0 **** 0.0
30922 C30922 59.166 50.4758 77.6404 C.3 0.0 **** -0.053
30923 C30923 57.8412 49.64 75.7043 C.2 0.0 **** 0.0
30924 C30924 56.5884 49.3496 75.0478 C.2 0.0 **** 0.0
30925 C30925 55.3897 49.762 75.7053 C.2 0.0 **** 0.232
30926 C30926 55.3675 50.3793 76.9252 C.2 0.0 **** 0.0
30927 C30927 54.0594 50.7403 77.5819 C.3 0.0 **** -0.106
30928 C30928 54.223 51.9019 78.5627 C.3 0.0 **** -0.106
30929 C30929 55.3508 51.5886 79.549 C.3 0.0 **** -0.106
30930 O30930 54.1658 49.5039 75.1182 O.3 0.0 **** -0.464
30931 C30931 54.0947 48.9674 73.8555 C.2 0.0 **** 0.232
30932 C30932 55.2373 48.4981 73.1826 C.2 0.0 **** 0.0
30933 C30933 56.518 48.6682 73.8267 C.2 0.0 **** 0.0
30934 C30934 60.3352 50.5318 76.6859 C.2 0.0 **** 0.0
30935 C30935 60.3187 49.5581 75.5973 C.2 0.0 **** 0.0
30936 C30936 59.0812 49.1882 75.067 C.2 0.0 **** 0.0
30937 C30937 61.6114 49.187 75.0249 C.2 0.0 **** 0.0
30938 C30938 62.6368 50.0865 75.0755 C.2 0.0 **** 0.0
30939 C30939 62.5109 51.374 75.8223 C.3 0.0 **** -0.106
30940 C30940 61.3648 51.4022 76.7853 C.2 0.0 **** -0.1268
30941 C30941 63.9408 49.7655 74.4002 C.3 0.0 **** -0.106
30942 C30942 63.7003 48.8778 73.1757 C.3 0.0 **** -0.106
30943 C30943 62.8779 47.6774 73.5755 C.2 0.0 **** 0.0
30944 C30944 61.8867 47.836 74.4845 C.2 0.0 **** 0.0
30945 C30945 61.1591 46.657 75.0882 C.3 0.0 **** -0.106
30946 C30946 61.7593 45.3006 74.7013 C.3 0.0 **** -0.053
30947 C30947 62.1169 45.3106 73.2109 C.3 0.0 **** -0.106
30948 C30948 63.2031 46.3535 72.9481 C.3 0.0 **** -0.106
30949 C30949 57.75 48.2257 73.2405 C.2 0.0 **** -0.012
30950 C30950 58.9633 48.4949 73.8247 C.2 0.0 **** -0.1268
30951 C30951 55.0356 47.9513 71.8896 C.2 0.0 **** 0.0
30952 C30952 56.1401 47.4139 71.1363 C.2 0.0 **** -0.012
30953 S30953 57.7668 47.2599 71.7815 S.2 0.0 **** 0.024
30954 C30954 55.9585 46.9228 69.8687 C.2 0.0 **** -0.1268
30955 C30955 54.6798 46.9283 69.2518 C.2 0.0 **** 0.0
30956 C30956 53.5503 47.4223 69.974 C.2 0.0 **** 0.0
30957 C30957 53.725 47.9221 71.2939 C.2 0.0 **** 0.0
30958 C30958 52.2705 47.3946 69.3603 C.2 0.0 **** 0.0
30959 C30959 52.1288 46.9132 68.0227 C.2 0.0 **** 0.0
30960 C30960 53.2952 46.4862 67.2906 C.2 0.0 **** 0.0
30961 C30961 54.5347 46.4633 67.9485 C.2 0.0 **** -0.1268
30962 C30962 53.147 46.1125 65.9219 C.2 0.0 **** 0.0
30963 C30963 51.8795 46.0125 65.38 C.2 0.0 **** 0.042
30964 C30964 50.6845 46.3116 66.1002 C.2 0.0 **** 0.0
30965 C30965 50.84 46.8308 67.4161 C.2 0.0 **** 0.0
30966 C30966 52.588 48.4046 72.0261 C.2 0.0 **** 0.0
30967 C30967 52.8282 48.9244 73.3148 C.2 0.0 **** -0.1268
30968 C30968 51.1266 47.8497 70.0958 C.2 0.0 **** 0.0
30969 C30969 51.2724 48.3522 71.4235 C.2 0.0 **** 0.0
30970 C30970 49.6918 47.2621 68.1602 C.2 0.0 **** 0.0
30971 C30971 49.8443 47.7784 69.4734 C.2 0.0 **** 0.0
30972 C30972 49.3635 46.1374 65.5488 C.2 0.0 **** 0.0
30973 C30973 48.2397 46.6193 66.2844 C.2 0.0 **** 0.0
30974 C30974 48.4006 47.183 67.5752 C.2 0.0 **** 0.0
30975 O30975 51.807 45.69 64.042 O.3 0.0 **** -0.202
30976 C30976 52.535 44.4969 63.635 C.3 0.0 **** 0.107
30977 C30977 53.9405 44.4378 64.2838 C.3 0.0 **** -0.053
30978 C30978 54.2307 45.8186 64.8894 C.3 0.0 **** 0.107
30979 C30979 54.9982 43.9578 63.2825 C.3 0.0 **** -0.106
30980 C30980 54.4156 42.8052 62.4579 C.3 0.0 **** -0.106
30981 C30981 53.3497 43.3341 61.4934 C.3 0.0 **** 0.134
30982 C30982 52.5437 44.5276 62.1077 C.3 0.0 **** -0.053
30983 C30983 51.1087 44.5305 61.555 C.3 0.0 **** -0.106
30984 C30984 51.0764 44.1308 60.0808 C.3 0.0 **** -0.106
30985 C30985 51.6222 42.685 59.9122 C.3 0.0 **** 0.081
30986 N30986 52.5003 42.2459 61.0074 N.3 0.0 **** -0.727
30987 C30987 50.0764 48.7858 72.0977 C.2 0.0 **** 0.042
30988 C30988 48.84 48.762 71.4709 C.2 0.0 **** 0.042
30989 C30989 48.6804 48.235 70.1632 C.2 0.0 **** 0.0
30990 O30990 47.6895 49.2188 72.0715 O.3 0.0 **** -0.202
30991 C30991 47.8997 50.0219 73.2532 C.3 0.0 **** 0.107
30992 C30992 48.9198 49.299 74.1166 C.3 0.0 **** 0.107
30993 O30993 50.1661 49.2353 73.3961 O.3 0.0 **** -0.202
30994 C30994 48.4452 47.8933 74.5401 C.3 0.0 **** -0.106
30995 C30995 46.907 47.778 74.6104 C.3 0.0 **** -0.106
30996 C30996 46.2832 49.1165 75.0214 C.3 0.0 **** -0.106
30997 C30997 46.5521 50.1992 73.9561 C.3 0.0 **** -0.106
30998 C30998 47.2443 47.6444 68.2872 C.2 0.0 **** 0.0
30999 C30999 47.4121 48.1714 69.5677 C.2 0.0 **** -0.1268
31000 C31000 46.9409 46.5142 65.7123 C.2 0.0 **** 0.0
31001 C31001 45.8145 47.0145 66.4361 C.2 0.0 **** 0.042
31002 C31002 45.9508 47.558 67.6834 C.2 0.0 **** -0.1268
31003 C31003 46.7468 45.9144 64.459 C.2 0.0 **** 0.0
31004 C31004 47.8436 45.3683 63.7796 C.2 0.0 **** 0.0
31005 C31005 49.1083 45.4873 64.3259 C.2 0.0 **** -0.1268
31006 O31006 44.5434 46.9472 65.8862 O.3 0.0 **** -0.0685
31007 C31007 44.3492 46.4266 64.6273 C.2 0.0 **** 0.0265
31008 C31008 45.4179 45.878 63.8979 C.2 0.0 **** 0.0
31009 C31009 47.68 44.6147 62.4864 C.3 0.0 **** -0.053
31010 C31010 46.3417 44.8854 61.7609 C.3 0.0 **** -0.053
31011 C31011 45.1978 45.3495 62.623 C.2 0.0 **** 0.0
31012 C31012 45.8761 43.6613 60.95 C.3 0.0 **** -0.053
31013 C31013 47.0712 43.011 60.2627 C.3 0.0 **** -0.106
31014 C31014 48.0084 42.3921 61.3298 C.3 0.0 **** -0.106
31015 C31015 47.8895 43.1033 62.691 C.3 0.0 **** -0.106
31016 C31016 43.9101 45.3547 62.066 C.2 0.0 **** 0.0
31017 C31017 42.8404 45.9687 62.7772 C.2 0.0 **** 0.0
31018 C31018 43.0508 46.5002 64.0884 C.2 0.0 **** 0.0
31019 C31019 44.6957 44.0538 60.1045 C.2 0.0 **** 0.0
31020 C31020 43.6836 44.8149 60.7528 C.2 0.0 **** 0.0
31021 C31021 60.825 44.1421 75.1088 C.3 0.0 **** -0.053
31022 C31022 59.5872 44.0353 74.2085 C.3 0.0 **** -0.159
31023 C31023 61.5786 42.8084 75.1365 C.3 0.0 **** -0.159
31024 O31024 55.5942 45.8373 65.3154 O.3 0.0 **** -0.57
31025 C31025 41.9504 47.1027 64.7814 C.2 0.0 **** -0.1268
31026 C31026 40.7219 47.2018 64.1897 C.2 0.0 **** -0.1268
31027 C31027 40.4867 46.7202 62.8593 C.2 0.0 **** 0.0
31028 C31028 41.5665 46.0944 62.1564 C.2 0.0 **** 0.0
31029 C31029 41.3684 45.6301 60.829 C.2 0.0 **** 0.0
31030 C31030 40.1094 45.7839 60.2024 C.2 0.0 **** 0.0
31031 C31031 39.0336 46.4057 60.9147 C.2 0.0 **** 0.0
31032 C31032 39.2468 46.8579 62.2268 C.2 0.0 **** -0.1268
31033 C31033 37.769 46.5527 60.265 C.2 0.0 **** -0.1268
31034 C31034 37.5816 46.1104 58.9822 C.2 0.0 **** -0.1268
31035 C31035 38.6393 45.4848 58.254 C.2 0.0 **** 0.0
31036 C31036 39.9084 45.3176 58.8695 C.2 0.0 **** 0.0
31037 C31037 40.9692 44.6816 58.1563 C.2 0.0 **** 0.0
31038 C31038 42.2318 44.5185 58.7936 C.2 0.0 **** 0.0
31039 C31039 42.4354 44.9925 60.121 C.2 0.0 **** 0.0
31040 C31040 40.7641 44.1995 56.8294 C.2 0.0 **** 0.0
31041 C31041 39.4865 44.4053 56.2387 C.2 0.0 **** -0.1268
31042 C31042 38.4665 45.0268 56.9286 C.2 0.0 **** -0.1268
31043 C31043 44.5096 43.6379 58.8053 C.2 0.0 **** -0.1268
31044 C31044 43.303 43.89 58.101 C.2 0.0 **** 0.0
31045 C31045 41.866 43.5683 56.1325 C.2 0.0 **** 0.052
31046 C31046 43.1246 43.4814 56.7428 C.2 0.0 **** 0.0
31047 C31047 44.3331 42.9614 55.9966 C.3 0.0 **** -0.106
31048 C31048 44.189 43.1235 54.4883 C.3 0.0 **** -0.106
31049 C31049 42.9086 42.4315 54.0514 C.3 0.0 **** -0.086
31050 C31050 41.6737 42.9121 54.8034 C.2 0.0 **** 0.347
31051 O31051 40.5704 42.6814 54.3059 O.2 0.0 **** -0.419
31052 H31052 59.2484 45.4822 81.0768 H 0.0 **** 0.053
31053 H31053 58.5807 46.9456 80.3038 H 0.0 **** 0.053
31054 H31054 61.3541 46.5008 81.4216 H 0.0 **** 0.053
31055 H31055 60.8054 47.6334 80.1771 H 0.0 **** 0.053
31056 H31056 60.6835 47.9073 83.2101 H 0.0 **** 0.053
31057 H31057 59.3343 49.9581 82.9252 H 0.0 **** 0.053
31058 H31058 57.2675 48.4385 81.82 H 0.0 **** 0.053
31059 H31059 57.7909 48.3438 83.5299 H 0.0 **** 0.053
31060 H31060 58.7192 49.1065 80.0883 H 0.0 **** 0.053
31061 H31061 60.9023 49.6601 79.513 H 0.0 **** 0.053
31062 H31062 61.0293 51.3403 82.0555 H 0.0 **** 0.053
31063 H31063 62.3711 51.1254 80.9214 H 0.0 **** 0.053
31064 H31064 62.3073 49.5343 82.9972 H 0.0 **** 0.053
31065 H31065 62.6069 48.7865 81.427 H 0.0 **** 0.053
31066 H31066 59.2358 52.5642 78.0713 H 0.0 **** 0.053
31067 H31067 57.7343 52.7773 79.7731 H 0.0 **** 0.053
31068 H31068 57.1819 50.6477 81.3144 H 0.0 **** 0.053
31069 H31069 58.5434 51.7402 81.6023 H 0.0 **** 0.053
31070 H31070 59.2841 49.527 78.2021 H 0.0 **** 0.053
31071 H31071 53.3071 50.9735 76.8148 H 0.0 **** 0.053
31072 H31072 53.6745 49.859 78.1292 H 0.0 **** 0.053
31073 H31073 53.2787 52.0879 79.0968 H 0.0 **** 0.053
31074 H31074 54.4771 52.8178 78.005 H 0.0 **** 0.053
31075 H31075 55.0437 50.733 80.1833 H 0.0 **** 0.053
31076 H31076 55.5162 52.4311 80.2416 H 0.0 **** 0.053
31077 H31077 62.4159 52.2179 75.1039 H 0.0 **** 0.053
31078 H31078 63.464 51.5832 76.3463 H 0.0 **** 0.053
31079 H31079 61.3883 52.1503 77.5759 H 0.0 **** 0.1268
31080 H31080 64.4577 50.6976 74.1212 H 0.0 **** 0.053
31081 H31081 64.6032 49.2381 75.1165 H 0.0 **** 0.053
31082 H31082 64.6528 48.5529 72.7287 H 0.0 **** 0.053
31083 H31083 63.1639 49.4622 72.4034 H 0.0 **** 0.053
31084 H31084 61.1737 46.7694 76.1871 H 0.0 **** 0.053
31085 H31085 60.0925 46.676 74.8171 H 0.0 **** 0.053
31086 H31086 62.7043 45.1754 75.2622 H 0.0 **** 0.053
31087 H31087 61.2185 45.5695 72.6271 H 0.0 **** 0.053
31088 H31088 62.4496 44.3157 72.8773 H 0.0 **** 0.053
31089 H31089 63.3518 46.5006 71.8628 H 0.0 **** 0.053
31090 H31090 64.1776 45.9908 73.3296 H 0.0 **** 0.053
31091 H31091 59.8759 48.203 73.3055 H 0.0 **** 0.1268
31092 H31092 56.8046 46.5249 69.3037 H 0.0 **** 0.1268
31093 H31093 55.404 46.0458 67.4501 H 0.0 **** 0.1268
31094 H31094 52.021 49.3148 73.9169 H 0.0 **** 0.1268
31095 H31095 51.9379 43.6277 63.9691 H 0.0 **** 0.053
31096 H31096 53.9103 43.7209 65.1197 H 0.0 **** 0.053
31097 H31097 54.1039 46.5594 64.073 H 0.0 **** 0.053
31098 H31098 55.2894 44.7879 62.6162 H 0.0 **** 0.053
31099 H31099 55.9037 43.6568 63.8244 H 0.0 **** 0.053
31100 H31100 53.9526 42.0696 63.1403 H 0.0 **** 0.053
31101 H31101 55.1848 42.2644 61.8898 H 0.0 **** 0.053
31102 H31102 53.8683 43.7295 60.6033 H 0.0 **** 0.053
31103 H31103 53.0399 45.467 61.8105 H 0.0 **** 0.053
31104 H31104 50.5087 43.8044 62.1303 H 0.0 **** 0.053
31105 H31105 50.6444 45.5128 61.717 H 0.0 **** 0.053
31106 H31106 51.6909 44.8395 59.5028 H 0.0 **** 0.053
31107 H31107 50.0515 44.1994 59.6826 H 0.0 **** 0.053
31108 H31108 52.1853 42.6093 58.9666 H 0.0 **** 0.053
31109 H31109 50.7918 41.9663 59.8465 H 0.0 **** 0.053
31110 H31110 51.9395 41.887 61.7811 H 0.0 **** 0.353
31111 H31111 48.3187 50.9906 72.9335 H 0.0 **** 0.053
31112 H31112 49.149 49.9189 74.995 H 0.0 **** 0.053
31113 H31113 48.8458 47.1664 73.8188 H 0.0 **** 0.053
31114 H31114 48.8952 47.6611 75.5165 H 0.0 **** 0.053
31115 H31115 46.6269 46.9848 75.319 H 0.0 **** 0.053
31116 H31116 46.5154 47.4894 73.6237 H 0.0 **** 0.053
31117 H31117 46.714 49.4296 75.9879 H 0.0 **** 0.053
31118 H31118 45.1995 49.015 75.1797 H 0.0 **** 0.053
31119 H31119 46.517 51.2006 74.4105 H 0.0 **** 0.053
31120 H31120 45.7771 50.1744 73.1747 H 0.0 **** 0.053
31121 H31121 46.5452 48.5344 70.1177 H 0.0 **** 0.1268
31122 H31122 45.0761 47.9226 68.2231 H 0.0 **** 0.1268
31123 H31123 49.9378 45.0722 63.7755 H 0.0 **** 0.1268
31124 H31124 48.4865 44.9406 61.8119 H 0.0 **** 0.053
31125 H31125 46.5186 45.6973 61.0275 H 0.0 **** 0.053
31126 H31126 45.4747 42.9303 61.6807 H 0.0 **** 0.053
31127 H31127 47.6019 43.782 59.6786 H 0.0 **** 0.053
31128 H31128 46.751 42.2355 59.5524 H 0.0 **** 0.053
31129 H31129 49.0478 42.4548 60.9781 H 0.0 **** 0.053
31130 H31130 47.7771 41.323 61.4537 H 0.0 **** 0.053
31131 H31131 48.793 42.937 63.2968 H 0.0 **** 0.053
31132 H31132 47.0462 42.7026 63.2756 H 0.0 **** 0.053
31133 H31133 60.4822 44.3593 76.137 H 0.0 **** 0.053
31134 H31134 58.8822 43.2917 74.6094 H 0.0 **** 0.053
31135 H31135 59.8737 43.71 73.1965 H 0.0 **** 0.053
31136 H31136 59.0523 44.9924 74.1125 H 0.0 **** 0.053
31137 H31137 62.4509 42.8592 75.8071 H 0.0 **** 0.053
31138 H31138 61.9401 42.5434 74.1301 H 0.0 **** 0.053
31139 H31139 60.9259 41.9915 75.4801 H 0.0 **** 0.053
31140 H31140 55.8114 46.7532 65.5481 H 0.0 **** 0.41
31141 H31141 42.1149 47.4889 65.7872 H 0.0 **** 0.1268
31142 H31142 39.8907 47.6663 64.7233 H 0.0 **** 0.1268
31143 H31143 38.4246 47.3367 62.7633 H 0.0 **** 0.1268
31144 H31144 36.9556 47.0288 60.8155 H 0.0 **** 0.1268
31145 H31145 36.6155 46.2319 58.4886 H 0.0 **** 0.1268
31146 H31146 39.3211 44.0503 55.2272 H 0.0 **** 0.1268
31147 H31147 37.4983 45.1733 56.4451 H 0.0 **** 0.1268
31148 H31148 45.2966 43.0625 58.3252 H 0.0 **** 0.1268
31149 H31149 45.2283 43.4961 56.3438 H 0.0 **** 0.053
31150 H31150 44.4927 41.8939 56.2402 H 0.0 **** 0.053
31151 H31151 45.0653 42.7073 53.9685 H 0.0 **** 0.053
31152 H31152 44.1376 44.1973 54.2446 H 0.0 **** 0.053
31153 H31153 42.9881 41.3462 54.2479 H 0.0 **** 0.053
31154 H31154 42.6951 42.5413 52.9787 H 0.0 **** 0.053
31155 C31155 7.02822 43.6443 24.5972 C.3 0.0 **** 0.054
31156 C31156 6.66731 42.1458 24.7266 C.3 0.0 **** -0.106
31157 C31157 6.58726 41.7313 26.2104 C.3 0.0 **** -0.053
31158 C31158 7.73719 42.4014 26.9799 C.3 0.0 **** -0.053
31159 C31159 7.59871 43.9419 26.8678 C.3 0.0 **** 0.054
31160 O31160 6.73358 44.3566 25.8037 O.3 0.0 **** -0.32
31161 C31161 9.10855 41.9034 26.4767 C.3 0.0 **** -0.053
31162 C31162 9.09396 40.3904 26.116 C.3 0.0 **** 0.107
31163 C31163 7.97998 39.6655 26.8521 C.3 0.0 **** -0.106
31164 C31164 6.605 40.1934 26.4036 C.3 0.0 **** -0.106
31165 O31165 10.3302 39.7472 26.4626 O.3 0.0 **** -0.32
31166 C31166 11.4866 40.5155 26.0892 C.3 0.0 **** 0.107
31167 C31167 11.6001 41.707 27.057 C.3 0.0 **** -0.053
31168 C31168 10.185 42.1522 27.5298 C.3 0.0 **** -0.106
31169 C31169 12.4504 42.8263 26.5542 C.2 0.0 **** 0.0
31170 C31170 12.9491 42.8829 25.2625 C.2 0.0 **** 0.0
31171 C31171 12.5587 41.9207 24.263 C.2 0.0 **** 0.0
31172 C31172 11.5039 40.8905 24.5989 C.3 0.0 **** -0.053
31173 C31173 12.9957 42.017 22.9534 C.2 0.0 **** 0.0
31174 C31174 13.9092 43.0683 22.5728 C.2 0.0 **** 0.0
31175 C31175 14.3179 43.9849 23.5887 C.2 0.0 **** 0.232
31176 C31176 13.8668 43.938 24.8786 C.2 0.0 **** 0.0
31177 C31177 14.3036 44.9718 25.8852 C.3 0.0 **** -0.106
31178 C31178 14.2151 44.4383 27.3155 C.3 0.0 **** -0.106
31179 C31179 12.8155 43.873 27.5689 C.3 0.0 **** -0.106
31180 O31180 15.1887 45.0101 23.2728 O.3 0.0 **** -0.464
31181 C31181 15.7602 45.0834 22.0257 C.2 0.0 **** 0.232
31182 C31182 15.3591 44.2396 20.9741 C.2 0.0 **** 0.0
31183 C31183 14.373 43.2249 21.261 C.2 0.0 **** 0.0
31184 C31184 11.5642 39.6929 23.6805 C.2 0.0 **** 0.0
31185 C31185 11.752 39.9844 22.2617 C.2 0.0 **** 0.0
31186 C31186 12.5308 41.0909 21.917 C.2 0.0 **** 0.0
31187 C31187 11.262 38.9863 21.3129 C.2 0.0 **** 0.0
31188 C31188 11.1998 37.6802 21.7044 C.2 0.0 **** 0.0
31189 C31189 11.483 37.2721 23.1131 C.3 0.0 **** -0.106
31190 C31190 11.4518 38.4086 24.0873 C.2 0.0 **** -0.1268
31191 C31191 10.7993 36.6252 20.7114 C.3 0.0 **** -0.106
31192 C31192 11.2388 37.0291 19.3011 C.3 0.0 **** -0.106
31193 C31193 10.7345 38.4176 18.993 C.2 0.0 **** 0.0
31194 C31194 10.7313 39.3468 19.9782 C.2 0.0 **** 0.0
31195 C31195 10.0561 40.6883 19.8101 C.3 0.0 **** -0.106
31196 C31196 9.25501 40.8145 18.5093 C.3 0.0 **** -0.053
31197 C31197 10.0584 40.2011 17.3571 C.3 0.0 **** -0.106
31198 C31198 10.2505 38.7045 17.6018 C.3 0.0 **** -0.106
31199 C31199 13.8838 42.3113 20.2695 C.2 0.0 **** -0.012
31200 C31200 13.0264 41.2886 20.5929 C.2 0.0 **** -0.1268
31201 C31201 16.0119 44.4201 19.728 C.2 0.0 **** 0.0
31202 C31202 15.6454 43.6264 18.5826 C.2 0.0 **** -0.012
31203 S31203 14.3028 42.4936 18.5803 S.2 0.0 **** 0.024
31204 C31204 16.3019 43.7665 17.3866 C.2 0.0 **** -0.1268
31205 C31205 17.3659 44.694 17.2336 C.2 0.0 **** 0.0
31206 C31206 17.7416 45.5244 18.3338 C.2 0.0 **** 0.0
31207 C31207 17.059 45.3965 19.5749 C.2 0.0 **** 0.0
31208 C31208 18.7857 46.4708 18.1617 C.2 0.0 **** 0.0
31209 C31209 19.4732 46.5582 16.9124 C.2 0.0 **** 0.0
31210 C31210 19.1222 45.6603 15.8403 C.2 0.0 **** 0.0
31211 C31211 18.0416 44.7829 16.0205 C.2 0.0 **** -0.1268
31212 C31212 19.8927 45.6907 14.6403 C.2 0.0 **** 0.0
31213 C31213 20.8434 46.6794 14.4701 C.2 0.0 **** 0.042
31214 C31214 21.1464 47.6648 15.4566 C.2 0.0 **** 0.0
31215 C31215 20.487 47.5418 16.7118 C.2 0.0 **** 0.0
31216 C31216 17.4256 46.2411 20.6766 C.2 0.0 **** 0.0
31217 C31217 16.7411 46.0418 21.8934 C.2 0.0 **** -0.1268
31218 C31218 19.1385 47.3361 19.2495 C.2 0.0 **** 0.0
31219 C31219 18.4671 47.2322 20.5046 C.2 0.0 **** 0.0
31220 C31220 20.8232 48.4248 17.7912 C.2 0.0 **** 0.0
31221 C31221 20.1656 48.3052 19.0432 C.2 0.0 **** 0.0
31222 C31222 22.0898 48.7344 15.2433 C.2 0.0 **** 0.0
31223 C31223 22.447 49.5692 16.344 C.2 0.0 **** 0.0
31224 C31224 21.826 49.4133 17.6089 C.2 0.0 **** 0.0
31225 O31225 21.5834 46.6269 13.3085 O.3 0.0 **** -0.202
31226 C31226 20.8201 46.5582 12.0708 C.3 0.0 **** 0.107
31227 C31227 19.6407 45.5601 12.1832 C.3 0.0 **** -0.053
31228 C31228 19.8552 44.7293 13.4565 C.3 0.0 **** 0.107
31229 C31229 19.4932 44.7235 10.9065 C.3 0.0 **** -0.106
31230 C31230 19.6985 45.6323 9.68992 C.3 0.0 **** -0.106
31231 C31231 21.171 46.0389 9.57897 C.3 0.0 **** 0.134
31232 C31232 21.838 46.2153 10.9844 C.3 0.0 **** -0.053
31233 C31233 22.9383 47.2871 10.9116 C.3 0.0 **** -0.106
31234 C31234 23.7047 47.2129 9.59201 C.3 0.0 **** -0.106
31235 C31235 22.7384 47.4763 8.40299 C.3 0.0 **** 0.081
31236 N31236 21.3255 47.206 8.7096 N.3 0.0 **** -0.727
31237 C31237 18.8751 48.1391 21.5457 C.2 0.0 **** 0.042
31238 C31238 19.9078 49.0446 21.3569 C.2 0.0 **** 0.042
31239 C31239 20.5595 49.1768 20.1035 C.2 0.0 **** 0.0
31240 O31240 20.3537 49.8862 22.3497 O.3 0.0 **** -0.202
31241 C31241 19.9113 49.5424 23.6808 C.3 0.0 **** 0.107
31242 C31242 18.4217 49.2533 23.6024 C.3 0.0 **** 0.107
31243 O31243 18.2225 48.1031 22.7577 O.3 0.0 **** -0.202
31244 C31244 17.6104 50.4653 23.0988 C.3 0.0 **** -0.106
31245 C31245 18.2883 51.8143 23.4226 C.3 0.0 **** -0.106
31246 C31246 19.0757 51.722 24.7344 C.3 0.0 **** -0.106
31247 C31247 20.2366 50.7139 24.6098 C.3 0.0 **** -0.106
31248 C31248 22.204 50.2807 18.6866 C.2 0.0 **** 0.0
31249 C31249 21.566 50.136 19.9184 C.2 0.0 **** -0.1268
31250 C31250 23.4308 50.5801 16.1558 C.2 0.0 **** 0.0
31251 C31251 23.8073 51.405 17.2606 C.2 0.0 **** 0.042
31252 C31252 23.2163 51.2709 18.4864 C.2 0.0 **** -0.1268
31253 C31253 24.0242 50.7902 14.902 C.2 0.0 **** 0.0
31254 C31254 23.6084 50.0229 13.8061 C.2 0.0 **** 0.0
31255 C31255 22.6668 49.0275 13.9925 C.2 0.0 **** -0.1268
31256 O31256 24.7831 52.3781 17.1069 O.3 0.0 **** -0.0685
31257 C31257 25.424 52.5458 15.9008 C.2 0.0 **** 0.0265
31258 C31258 25.0542 51.7926 14.7734 C.2 0.0 **** 0.0
31259 C31259 24.1277 50.279 12.4162 C.3 0.0 **** -0.053
31260 C31260 25.44 51.0955 12.3712 C.3 0.0 **** -0.053
31261 C31261 25.7144 51.9826 13.5564 C.2 0.0 **** 0.0
31262 C31262 25.5368 51.9472 11.0914 C.3 0.0 **** -0.053
31263 C31263 25.0184 51.1509 9.89946 C.3 0.0 **** -0.106
31264 C31264 23.4946 50.9192 10.0551 C.3 0.0 **** -0.106
31265 C31265 23.0518 50.9333 11.5305 C.3 0.0 **** -0.106
31266 C31266 26.7434 52.9302 13.4486 C.2 0.0 **** 0.0
31267 C31267 27.1619 53.6464 14.6057 C.2 0.0 **** 0.0
31268 C31268 26.4843 53.4705 15.853 C.2 0.0 **** 0.0
31269 C31269 26.9145 52.5444 11.0034 C.2 0.0 **** 0.0
31270 C31270 27.4261 53.1234 12.198 C.2 0.0 **** 0.0
31271 C31271 8.82608 42.2756 18.2595 C.3 0.0 **** -0.053
31272 C31272 9.99368 43.1681 17.819 C.3 0.0 **** -0.159
31273 C31273 7.68602 42.3497 17.2386 C.3 0.0 **** -0.159
31274 O31274 18.8868 43.6791 13.4681 O.3 0.0 **** -0.57
31275 C31275 26.9241 54.2144 16.9964 C.2 0.0 **** -0.1268
31276 C31276 27.9975 55.0569 16.9114 C.2 0.0 **** -0.1268
31277 C31277 28.728 55.2234 15.6883 C.2 0.0 **** 0.0
31278 C31278 28.2923 54.5067 14.5272 C.2 0.0 **** 0.0
31279 C31279 29.0114 54.6341 13.3092 C.2 0.0 **** 0.0
31280 C31280 30.1535 55.4662 13.2414 C.2 0.0 **** 0.0
31281 C31281 30.5787 56.1837 14.4059 C.2 0.0 **** 0.0
31282 C31282 29.8552 56.0468 15.6015 C.2 0.0 **** -0.1268
31283 C31283 31.7351 57.0191 14.3182 C.2 0.0 **** -0.1268
31284 C31284 32.4314 57.1355 13.1444 C.2 0.0 **** -0.1268
31285 C31285 32.0239 56.4317 11.9701 C.2 0.0 **** 0.0
31286 C31286 30.8766 55.5959 12.0188 C.2 0.0 **** 0.0
31287 C31287 30.4518 54.898 10.8479 C.2 0.0 **** 0.0
31288 C31288 29.2957 54.07 10.9164 C.2 0.0 **** 0.0
31289 C31289 28.5791 53.9331 12.1396 C.2 0.0 **** 0.0
31290 C31290 31.1643 55.0406 9.62025 C.2 0.0 **** 0.0
31291 C31291 32.321 55.8687 9.61664 C.2 0.0 **** -0.1268
31292 C31292 32.7321 56.5354 10.7519 C.2 0.0 **** -0.1268
31293 C31293 27.6355 52.6427 9.83457 C.2 0.0 **** -0.1268
31294 C31294 28.8562 53.364 9.76297 C.2 0.0 **** 0.0
31295 C31295 30.7104 54.3096 8.45491 C.2 0.0 **** 0.052
31296 C31296 29.6161 53.4397 8.55462 C.2 0.0 **** 0.0
31297 C31297 29.2015 52.5524 7.40206 C.3 0.0 **** -0.106
31298 C31298 30.3575 52.2719 6.44979 C.3 0.0 **** -0.106
31299 C31299 30.9191 53.6007 5.97214 C.3 0.0 **** -0.086
31300 C31300 31.3217 54.5316 7.10911 C.2 0.0 **** 0.347
31301 O31301 32.0869 55.4614 6.84856 O.2 0.0 **** -0.419
31302 H31302 6.44452 44.135 23.8065 H 0.0 **** 0.053
31303 H31303 8.10265 43.7663 24.3537 H 0.0 **** 0.053
31304 H31304 5.70109 41.9335 24.2438 H 0.0 **** 0.053
31305 H31305 7.42616 41.5394 24.2072 H 0.0 **** 0.053
31306 H31306 5.64331 42.1329 26.6068 H 0.0 **** 0.053
31307 H31307 7.65331 42.126 28.0445 H 0.0 **** 0.053
31308 H31308 8.60092 44.3964 26.7216 H 0.0 **** 0.053
31309 H31309 7.15505 44.3698 27.7777 H 0.0 **** 0.053
31310 H31310 9.36592 42.4842 25.5766 H 0.0 **** 0.053
31311 H31311 8.93192 40.2675 25.0277 H 0.0 **** 0.053
31312 H31312 8.12029 39.8218 27.9338 H 0.0 **** 0.053
31313 H31313 8.06108 38.5844 26.6698 H 0.0 **** 0.053
31314 H31314 5.84949 39.898 27.147 H 0.0 **** 0.053
31315 H31315 6.3171 39.7096 25.4557 H 0.0 **** 0.053
31316 H31316 12.3367 39.8382 26.2576 H 0.0 **** 0.053
31317 H31317 12.1031 41.3277 27.9671 H 0.0 **** 0.053
31318 H31318 10.1964 43.2141 27.817 H 0.0 **** 0.053
31319 H31319 9.91239 41.5789 28.4299 H 0.0 **** 0.053
31320 H31320 10.5502 41.4029 24.3592 H 0.0 **** 0.053
31321 H31321 15.3226 45.3134 25.653 H 0.0 **** 0.053
31322 H31322 13.6542 45.863 25.793 H 0.0 **** 0.053
31323 H31323 14.4498 45.2358 28.0368 H 0.0 **** 0.053
31324 H31324 14.9575 43.6354 27.4523 H 0.0 **** 0.053
31325 H31325 12.0831 44.7046 27.5388 H 0.0 **** 0.053
31326 H31326 12.7397 43.4433 28.5821 H 0.0 **** 0.053
31327 H31327 12.4703 36.7621 23.1658 H 0.0 **** 0.053
31328 H31328 10.7655 36.4834 23.4128 H 0.0 **** 0.053
31329 H31329 11.332 38.1661 25.1419 H 0.0 **** 0.1268
31330 H31330 11.2326 35.6544 21.0008 H 0.0 **** 0.053
31331 H31331 9.69763 36.5002 20.7352 H 0.0 **** 0.053
31332 H31332 10.8659 36.3152 18.5502 H 0.0 **** 0.053
31333 H31333 12.3443 37.0084 19.2454 H 0.0 **** 0.053
31334 H31334 9.38733 40.8478 20.6748 H 0.0 **** 0.053
31335 H31335 10.7913 41.5054 19.8679 H 0.0 **** 0.053
31336 H31336 8.33272 40.2139 18.6193 H 0.0 **** 0.053
31337 H31337 11.0457 40.6888 17.3073 H 0.0 **** 0.053
31338 H31338 9.55869 40.3723 16.3913 H 0.0 **** 0.053
31339 H31339 10.9699 38.2777 16.8793 H 0.0 **** 0.053
31340 H31340 9.30022 38.1653 17.4204 H 0.0 **** 0.053
31341 H31341 12.7397 40.5754 19.8204 H 0.0 **** 0.1268
31342 H31342 16.021 43.154 16.5268 H 0.0 **** 0.1268
31343 H31343 17.6941 44.1752 15.1908 H 0.0 **** 0.1268
31344 H31344 16.9736 46.6339 22.7663 H 0.0 **** 0.1268
31345 H31345 20.4264 47.5742 11.8804 H 0.0 **** 0.053
31346 H31346 18.7103 46.1325 12.3267 H 0.0 **** 0.053
31347 H31347 20.8663 44.2788 13.3783 H 0.0 **** 0.053
31348 H31348 20.2407 43.9118 10.9004 H 0.0 **** 0.053
31349 H31349 18.5067 44.243 10.8969 H 0.0 **** 0.053
31350 H31350 19.0805 46.5407 9.8082 H 0.0 **** 0.053
31351 H31351 19.3801 45.1569 8.75207 H 0.0 **** 0.053
31352 H31352 21.7094 45.2175 9.07593 H 0.0 **** 0.053
31353 H31353 22.2977 45.2541 11.2703 H 0.0 **** 0.053
31354 H31354 22.4663 48.2817 10.9895 H 0.0 **** 0.053
31355 H31355 23.6115 47.1955 11.7748 H 0.0 **** 0.053
31356 H31356 24.1615 46.2147 9.49735 H 0.0 **** 0.053
31357 H31357 24.5296 47.9431 9.5808 H 0.0 **** 0.053
31358 H31358 23.0307 46.8511 7.54233 H 0.0 **** 0.053
31359 H31359 22.8104 48.5238 8.07454 H 0.0 **** 0.053
31360 H31360 20.9055 48.019 9.16188 H 0.0 **** 0.353
31361 H31361 20.4416 48.6252 23.9868 H 0.0 **** 0.053
31362 H31362 18.0681 48.9254 24.5903 H 0.0 **** 0.053
31363 H31363 17.479 50.3599 22.0121 H 0.0 **** 0.053
31364 H31364 16.6092 50.4174 23.5514 H 0.0 **** 0.053
31365 H31365 17.5277 52.6066 23.4807 H 0.0 **** 0.053
31366 H31366 18.9791 52.0821 22.6094 H 0.0 **** 0.053
31367 H31367 18.3917 51.4048 25.5402 H 0.0 **** 0.053
31368 H31368 19.4706 52.7057 25.028 H 0.0 **** 0.053
31369 H31369 20.508 50.318 25.5998 H 0.0 **** 0.053
31370 H31370 21.1342 51.2054 24.204 H 0.0 **** 0.053
31371 H31371 21.8483 50.7808 20.7493 H 0.0 **** 0.1268
31372 H31372 23.5102 51.9192 19.3126 H 0.0 **** 0.1268
31373 H31373 22.3752 48.4406 13.1357 H 0.0 **** 0.1268
31374 H31374 24.3385 49.3004 11.9586 H 0.0 **** 0.053
31375 H31375 26.2801 50.3737 12.3306 H 0.0 **** 0.053
31376 H31376 24.8581 52.8123 11.2337 H 0.0 **** 0.053
31377 H31377 25.5565 50.1885 9.86011 H 0.0 **** 0.053
31378 H31378 25.2221 51.6703 8.95229 H 0.0 **** 0.053
31379 H31379 23.2283 49.9518 9.60638 H 0.0 **** 0.053
31380 H31380 22.9416 51.6921 9.49935 H 0.0 **** 0.053
31381 H31381 22.0985 50.3978 11.6554 H 0.0 **** 0.053
31382 H31382 22.8779 51.9624 11.8826 H 0.0 **** 0.053
31383 H31383 8.44467 42.662 19.2223 H 0.0 **** 0.053
31384 H31384 9.68057 44.2224 17.7832 H 0.0 **** 0.053
31385 H31385 10.3337 42.8879 16.8101 H 0.0 **** 0.053
31386 H31386 10.8589 43.0941 18.4952 H 0.0 **** 0.053
31387 H31387 6.82586 41.741 17.5592 H 0.0 **** 0.053
31388 H31388 8.01711 41.9771 16.2561 H 0.0 **** 0.053
31389 H31389 7.34343 43.3866 17.1017 H 0.0 **** 0.053
31390 H31390 19.1277 43.0722 14.1849 H 0.0 **** 0.41
31391 H31391 26.3909 54.088 17.9385 H 0.0 **** 0.1268
31392 H31392 28.3282 55.616 17.7885 H 0.0 **** 0.1268
31393 H31393 30.1874 56.5916 16.488 H 0.0 **** 0.1268
31394 H31394 32.052 57.5609 15.2111 H 0.0 **** 0.1268
31395 H31395 33.3182 57.7696 13.0854 H 0.0 **** 0.1268
31396 H31396 32.8756 55.9783 8.69091 H 0.0 **** 0.1268
31397 H31397 33.6271 57.1602 10.717 H 0.0 **** 0.1268
31398 H31398 27.231 52.189 8.93379 H 0.0 **** 0.1268
31399 H31399 28.8095 51.6056 7.79945 H 0.0 **** 0.053
31400 H31400 28.3704 53.0255 6.84546 H 0.0 **** 0.053
31401 H31401 30.0213 51.6532 5.60392 H 0.0 **** 0.053
31402 H31402 31.1368 51.7058 6.98594 H 0.0 **** 0.053
31403 H31403 30.1502 54.1396 5.38796 H 0.0 **** 0.053
31404 H31404 31.7951 53.496 5.31642 H 0.0 **** 0.053
31405 C31405 20.1437 13.2093 26.6204 C.3 0.0 **** 0.054
31406 C31406 20.7298 13.9699 27.8329 C.3 0.0 **** -0.106
31407 C31407 20.9966 13.0031 29.005 C.3 0.0 **** -0.053
31408 C31408 19.8312 12.0054 29.1059 C.3 0.0 **** -0.053
31409 C31409 19.7326 11.1984 27.7853 C.3 0.0 **** 0.054
31410 O31410 20.4333 11.8091 26.6949 O.3 0.0 **** -0.32
31411 C31411 18.5095 12.7257 29.4464 C.3 0.0 **** -0.053
31412 C31412 18.7144 13.8989 30.447 C.3 0.0 **** 0.107
31413 C31413 19.9814 13.7045 31.2625 C.3 0.0 **** -0.106
31414 C31414 21.2207 13.7407 30.3498 C.3 0.0 **** -0.106
31415 O31415 17.6199 14.0104 31.37 O.3 0.0 **** -0.32
31416 C31416 16.3358 13.8852 30.7356 C.3 0.0 **** 0.107
31417 C31417 16.1325 12.4069 30.3583 C.3 0.0 **** -0.053
31418 C31418 17.5026 11.7413 30.0351 C.3 0.0 **** -0.106
31419 C31419 15.0877 12.178 29.3169 C.2 0.0 **** 0.0
31420 C31420 14.4771 13.2034 28.6125 C.2 0.0 **** 0.0
31421 C31421 14.917 14.5699 28.7413 C.2 0.0 **** 0.0
31422 C31422 16.1361 14.8795 29.5807 C.3 0.0 **** -0.053
31423 C31423 14.3599 15.5858 27.9844 C.2 0.0 **** 0.0
31424 C31424 13.2732 15.2981 27.0783 C.2 0.0 **** 0.0
31425 C31425 12.8234 13.9452 26.9986 C.2 0.0 **** 0.232
31426 C31426 13.3854 12.9163 27.7023 C.2 0.0 **** 0.0
31427 C31427 12.8899 11.5031 27.5282 C.3 0.0 **** -0.106
31428 C31428 13.1779 10.6489 28.7633 C.3 0.0 **** -0.106
31429 C31429 14.6616 10.7497 29.1251 C.3 0.0 **** -0.106
31430 O31430 11.788 13.6193 26.1436 O.3 0.0 **** -0.464
31431 C31431 11.1071 14.5999 25.4638 C.2 0.0 **** 0.232
31432 C31432 11.5358 15.9397 25.466 C.2 0.0 **** 0.0
31433 C31433 12.6806 16.2811 26.2764 C.2 0.0 **** 0.0
31434 C31434 16.1731 16.3239 30.0207 C.2 0.0 **** 0.0
31435 C31435 15.8237 17.3112 29.0026 C.2 0.0 **** 0.0
31436 C31436 14.8647 16.9601 28.0504 C.2 0.0 **** 0.0
31437 C31437 16.3714 18.6557 29.1724 C.2 0.0 **** 0.0
31438 C31438 16.6574 19.096 30.4324 C.2 0.0 **** 0.0
31439 C31439 16.5588 18.1922 31.6175 C.3 0.0 **** -0.106
31440 C31440 16.5068 16.7383 31.2634 C.2 0.0 **** -0.1268
31441 C31441 17.1213 20.5111 30.6375 C.3 0.0 **** -0.106
31442 C31442 16.5081 21.4299 29.5768 C.3 0.0 **** -0.106
31443 C31443 16.7755 20.865 28.2033 C.2 0.0 **** 0.0
31444 C31444 16.7271 19.5232 28.0263 C.2 0.0 **** 0.0
31445 C31445 17.1818 18.8691 26.742 C.3 0.0 **** -0.106
31446 C31446 17.8413 19.8412 25.7571 C.3 0.0 **** -0.053
31447 C31447 17.0405 21.1476 25.7206 C.3 0.0 **** -0.106
31448 C31448 17.0912 21.8221 27.0914 C.3 0.0 **** -0.106
31449 C31449 13.2114 17.6113 26.3542 C.2 0.0 **** -0.012
31450 C31450 14.2339 17.9298 27.2139 C.2 0.0 **** -0.1268
31451 C31451 10.7592 16.8583 24.7147 C.2 0.0 **** 0.0
31452 C31452 11.1382 18.2458 24.6287 C.2 0.0 **** -0.012
31453 S31453 12.627 18.8855 25.307 S.2 0.0 **** 0.024
31454 C31454 10.3682 19.1472 23.9391 C.2 0.0 **** -0.1268
31455 C31455 9.17073 18.7488 23.2886 C.2 0.0 **** 0.0
31456 C31456 8.77336 17.3768 23.3208 C.2 0.0 **** 0.0
31457 C31457 9.57116 16.4313 24.0222 C.2 0.0 **** 0.0
31458 C31458 7.59112 16.9826 22.6409 C.2 0.0 **** 0.0
31459 C31459 6.79364 17.9586 21.9681 C.2 0.0 **** 0.0
31460 C31460 7.17908 19.3473 22.0102 C.2 0.0 **** 0.0
31461 C31461 8.38782 19.6942 22.6335 C.2 0.0 **** -0.1268
31462 C31462 6.31233 20.3176 21.4254 C.2 0.0 **** 0.0
31463 C31463 5.21615 19.8959 20.697 C.2 0.0 **** 0.042
31464 C31464 4.85789 18.525 20.5274 C.2 0.0 **** 0.0
31465 C31465 5.63342 17.5655 21.2368 C.2 0.0 **** 0.0
31466 C31466 9.18073 15.0497 24.0423 C.2 0.0 **** 0.0
31467 C31467 9.98886 14.1653 24.7864 C.2 0.0 **** -0.1268
31468 C31468 7.21009 15.6002 22.6342 C.2 0.0 **** 0.0
31469 C31469 7.99452 14.6294 23.3261 C.2 0.0 **** 0.0
31470 C31470 5.26533 16.1793 21.2082 C.2 0.0 **** 0.0
31471 C31471 6.0383 15.2203 21.9134 C.2 0.0 **** 0.0
31472 C31472 3.75334 18.0911 19.7081 C.2 0.0 **** 0.0
31473 C31473 3.37352 16.716 19.734 C.2 0.0 **** 0.0
31474 C31474 4.11679 15.7683 20.4817 C.2 0.0 **** 0.0
31475 O31475 4.39496 20.8826 20.1954 O.3 0.0 **** -0.202
31476 C31476 5.05108 21.9172 19.4092 C.3 0.0 **** 0.107
31477 C31477 6.36915 22.388 20.0733 C.3 0.0 **** -0.053
31478 C31478 6.38846 21.839 21.5071 C.3 0.0 **** 0.107
31479 C31479 6.52747 23.9106 19.983 C.3 0.0 **** -0.106
31480 C31480 6.08781 24.3747 18.5905 C.3 0.0 **** -0.106
31481 C31481 4.56758 24.2514 18.45 C.3 0.0 **** 0.134
31482 C31482 4.00499 23.0161 19.2302 C.3 0.0 **** -0.053
31483 C31483 2.7575 22.4691 18.5166 C.3 0.0 **** -0.106
31484 C31484 1.89993 23.5975 17.946 C.3 0.0 **** -0.106
31485 C31485 2.71168 24.3962 16.8878 C.3 0.0 **** 0.081
31486 N31486 4.16994 24.282 17.0418 N.3 0.0 **** -0.727
31487 C31487 7.54903 13.2615 23.2686 C.2 0.0 **** 0.042
31488 C31488 6.38259 12.9045 22.6098 C.2 0.0 **** 0.042
31489 C31489 5.61346 13.8572 21.8927 C.2 0.0 **** 0.0
31490 O31490 5.90512 11.6145 22.583 O.3 0.0 **** -0.202
31491 C31491 6.5055 10.7251 23.5495 C.3 0.0 **** 0.107
31492 C31492 8.00919 10.9337 23.484 C.3 0.0 **** 0.107
31493 O31493 8.30135 12.2866 23.8847 O.3 0.0 **** -0.202
31494 C31494 8.58812 10.6257 22.0874 C.3 0.0 **** -0.106
31495 C31495 7.75038 9.58827 21.3088 C.3 0.0 **** -0.106
31496 C31496 7.10037 8.58734 22.2707 C.3 0.0 **** -0.106
31497 C31497 6.09315 9.29318 23.2017 C.3 0.0 **** -0.106
31498 C31498 3.70976 14.3931 20.4717 C.2 0.0 **** 0.0
31499 C31499 4.4653 13.4655 21.1887 C.2 0.0 **** -0.1268
31500 C31500 2.2399 16.2964 18.9829 C.2 0.0 **** 0.0
31501 C31501 1.84292 14.9239 19.0223 C.2 0.0 **** 0.042
31502 C31502 2.55002 13.9957 19.7352 C.2 0.0 **** -0.1268
31503 C31503 1.51681 17.2031 18.1935 C.2 0.0 **** 0.0
31504 C31504 1.94493 18.5343 18.1065 C.2 0.0 **** 0.0
31505 C31505 3.0346 18.9469 18.8512 C.2 0.0 **** -0.1268
31506 O31506 0.725626 14.4982 18.32 O.3 0.0 **** -0.0685
31507 C31507 -0.0339434 15.3916 17.5999 C.2 0.0 **** 0.0265
31508 C31508 0.344064 16.7408 17.4913 C.2 0.0 **** 0.0
31509 C31509 1.27653 19.5238 17.1893 C.3 0.0 **** -0.053
31510 C31510 -0.140131 19.106 16.7318 C.3 0.0 **** -0.053
31511 C31511 -0.438739 17.6303 16.7504 C.2 0.0 **** 0.0
31512 C31512 -0.4699 19.6529 15.3301 C.3 0.0 **** -0.053
31513 C31513 0.0553158 21.0774 15.1937 C.3 0.0 **** -0.106
31514 C31514 1.60429 21.0618 15.2113 C.3 0.0 **** -0.106
31515 C31515 2.16509 19.8468 15.9744 C.3 0.0 **** -0.106
31516 C31516 -1.60082 17.1829 16.1039 C.2 0.0 **** 0.0
31517 C31517 -2.01883 15.8318 16.2674 C.2 0.0 **** 0.0
31518 C31518 -1.21836 14.9091 17.0116 C.2 0.0 **** 0.0
31519 C31519 -1.92258 19.3986 15.0343 C.2 0.0 **** 0.0
31520 C31520 -2.40904 18.0983 15.345 C.2 0.0 **** 0.0
31521 C31521 18.0288 19.1878 24.3718 C.3 0.0 **** -0.053
31522 C31522 16.7097 19.0451 23.6014 C.3 0.0 **** -0.159
31523 C31523 19.0539 19.9572 23.5324 C.3 0.0 **** -0.159
31524 O31524 7.49754 22.4253 22.1906 O.3 0.0 **** -0.57
31525 C31525 -1.6626 13.5534 17.1487 C.2 0.0 **** -0.1268
31526 C31526 -2.85099 13.1492 16.6069 C.2 0.0 **** -0.1268
31527 C31527 -3.70014 14.0585 15.8931 C.2 0.0 **** 0.0
31528 C31528 -3.26549 15.4129 15.7248 C.2 0.0 **** 0.0
31529 C31529 -4.09718 16.3407 15.0434 C.2 0.0 **** 0.0
31530 C31530 -5.35035 15.9296 14.5314 C.2 0.0 **** 0.0
31531 C31531 -5.77456 14.5719 14.6993 C.2 0.0 **** 0.0
31532 C31532 -4.93902 13.6678 15.3747 C.2 0.0 **** -0.1268
31533 C31533 -7.04397 14.1753 14.1757 C.2 0.0 **** -0.1268
31534 C31534 -7.84788 15.0731 13.5246 C.2 0.0 **** -0.1268
31535 C31535 -7.44399 16.4311 13.3432 C.2 0.0 **** 0.0
31536 C31536 -6.18678 16.8598 13.8461 C.2 0.0 **** 0.0
31537 C31537 -5.76647 18.2114 13.659 C.2 0.0 **** 0.0
31538 C31538 -4.50001 18.6192 14.1657 C.2 0.0 **** 0.0
31539 C31539 -3.66891 17.6929 14.8582 C.2 0.0 **** 0.0
31540 C31540 -6.59471 19.138 12.9587 C.2 0.0 **** 0.0
31541 C31541 -7.85615 18.6773 12.4894 C.2 0.0 **** -0.1268
31542 C31542 -8.26157 17.3726 12.6788 C.2 0.0 **** -0.1268
31543 C31543 -2.74782 20.3033 14.4048 C.2 0.0 **** -0.1268
31544 C31544 -4.06246 19.9611 13.9926 C.2 0.0 **** 0.0
31545 C31545 -6.14039 20.5038 12.7963 C.2 0.0 **** 0.052
31546 C31546 -4.92612 20.9116 13.3649 C.2 0.0 **** 0.0
31547 C31547 -4.48645 22.3586 13.3416 C.3 0.0 **** -0.106
31548 C31548 -5.66634 23.3143 13.2133 C.3 0.0 **** -0.106
31549 C31549 -6.45517 22.9386 11.97 C.3 0.0 **** -0.086
31550 C31550 -6.89075 21.4788 11.9474 C.2 0.0 **** 0.347
31551 O31551 -7.80324 21.1618 11.1828 O.2 0.0 **** -0.419
31552 H31552 20.5793 13.5578 25.674 H 0.0 **** 0.053
31553 H31553 19.0461 13.3531 26.564 H 0.0 **** 0.053
31554 H31554 21.6717 14.471 27.5617 H 0.0 **** 0.053
31555 H31555 20.0262 14.7569 28.1474 H 0.0 **** 0.053
31556 H31556 21.9021 12.4323 28.7523 H 0.0 **** 0.053
31557 H31557 20.0455 11.2984 29.9247 H 0.0 **** 0.053
31558 H31558 18.6659 11.0686 27.5067 H 0.0 **** 0.053
31559 H31559 20.1853 10.2025 27.8916 H 0.0 **** 0.053
31560 H31560 18.0937 13.124 28.507 H 0.0 **** 0.053
31561 H31561 18.7987 14.853 29.8916 H 0.0 **** 0.053
31562 H31562 19.913 12.736 31.7837 H 0.0 **** 0.053
31563 H31563 20.0441 14.4829 32.0363 H 0.0 **** 0.053
31564 H31564 22.0723 13.2961 30.8863 H 0.0 **** 0.053
31565 H31565 21.494 14.7885 30.1428 H 0.0 **** 0.053
31566 H31566 15.6116 14.1556 31.518 H 0.0 **** 0.053
31567 H31567 15.7704 11.8952 31.2705 H 0.0 **** 0.053
31568 H31568 17.3605 10.8903 29.3527 H 0.0 **** 0.053
31569 H31569 17.9323 11.3385 30.9659 H 0.0 **** 0.053
31570 H31570 16.9804 14.7615 28.8717 H 0.0 **** 0.053
31571 H31571 11.8158 11.5092 27.2933 H 0.0 **** 0.053
31572 H31572 13.3916 11.0496 26.6524 H 0.0 **** 0.053
31573 H31573 12.8917 9.60197 28.5799 H 0.0 **** 0.053
31574 H31574 12.5755 11.0162 29.6099 H 0.0 **** 0.053
31575 H31575 15.2591 10.2791 28.3186 H 0.0 **** 0.053
31576 H31576 14.8861 10.1744 30.0392 H 0.0 **** 0.053
31577 H31577 15.665 18.4614 32.2226 H 0.0 **** 0.053
31578 H31578 17.4071 18.396 32.2998 H 0.0 **** 0.053
31579 H31579 16.7507 16.0198 32.0442 H 0.0 **** 0.1268
31580 H31580 16.8612 20.847 31.654 H 0.0 **** 0.053
31581 H31581 18.2274 20.5471 30.5651 H 0.0 **** 0.053
31582 H31582 16.9157 22.4501 29.653 H 0.0 **** 0.053
31583 H31583 15.4169 21.5045 29.7481 H 0.0 **** 0.053
31584 H31584 17.8917 18.0627 26.9991 H 0.0 **** 0.053
31585 H31585 16.3427 18.3584 26.2456 H 0.0 **** 0.053
31586 H31586 18.8475 20.0867 26.1452 H 0.0 **** 0.053
31587 H31587 15.9919 20.9199 25.4684 H 0.0 **** 0.053
31588 H31588 17.4251 21.8257 24.9434 H 0.0 **** 0.053
31589 H31589 16.3827 22.6691 27.1385 H 0.0 **** 0.053
31590 H31590 18.0911 22.2684 27.2579 H 0.0 **** 0.053
31591 H31591 14.5545 18.9684 27.2916 H 0.0 **** 0.1268
31592 H31592 10.661 20.1984 23.887 H 0.0 **** 0.1268
31593 H31593 8.74808 20.717 22.5836 H 0.0 **** 0.1268
31594 H31594 9.74789 13.1147 24.8542 H 0.0 **** 0.1268
31595 H31595 5.27405 21.475 18.4201 H 0.0 **** 0.053
31596 H31596 7.21455 21.9238 19.5408 H 0.0 **** 0.053
31597 H31597 5.45128 22.1805 21.9934 H 0.0 **** 0.053
31598 H31598 5.90908 24.3994 20.7553 H 0.0 **** 0.053
31599 H31599 7.56918 24.1824 20.1954 H 0.0 **** 0.053
31600 H31600 6.57403 23.7404 17.8272 H 0.0 **** 0.053
31601 H31601 6.39076 25.4089 18.3773 H 0.0 **** 0.053
31602 H31602 4.11405 25.1467 18.9087 H 0.0 **** 0.053
31603 H31603 3.71707 23.3499 20.2416 H 0.0 **** 0.053
31604 H31604 3.0838 21.8199 17.6859 H 0.0 **** 0.053
31605 H31605 2.18153 21.8309 19.2004 H 0.0 **** 0.053
31606 H31606 1.58774 24.2622 18.7674 H 0.0 **** 0.053
31607 H31607 0.97916 23.1947 17.4946 H 0.0 **** 0.053
31608 H31608 2.44134 25.4644 16.9421 H 0.0 **** 0.053
31609 H31609 2.45927 24.0552 15.8727 H 0.0 **** 0.053
31610 H31610 4.50375 23.4347 16.5807 H 0.0 **** 0.353
31611 H31611 6.14339 11.018 24.5491 H 0.0 **** 0.053
31612 H31612 8.49029 10.3155 24.2553 H 0.0 **** 0.053
31613 H31613 8.63991 11.5687 21.5242 H 0.0 **** 0.053
31614 H31614 9.62069 10.2698 22.2171 H 0.0 **** 0.053
31615 H31615 8.38902 9.06822 20.5798 H 0.0 **** 0.053
31616 H31616 6.96066 10.1046 20.7433 H 0.0 **** 0.053
31617 H31617 7.88998 8.10586 22.8727 H 0.0 **** 0.053
31618 H31618 6.59243 7.78253 21.7192 H 0.0 **** 0.053
31619 H31619 5.9685 8.72249 24.134 H 0.0 **** 0.053
31620 H31620 5.10184 9.35131 22.7265 H 0.0 **** 0.053
31621 H31621 4.16405 12.4191 21.1986 H 0.0 **** 0.1268
31622 H31622 2.23636 12.9513 19.7416 H 0.0 **** 0.1268
31623 H31623 3.33434 19.9805 18.7785 H 0.0 **** 0.1268
31624 H31624 1.17274 20.4685 17.7446 H 0.0 **** 0.053
31625 H31625 -0.865866 19.5719 17.4279 H 0.0 **** 0.053
31626 H31626 0.0844867 19.0234 14.6051 H 0.0 **** 0.053
31627 H31627 -0.337554 21.6775 16.032 H 0.0 **** 0.053
31628 H31628 -0.302658 21.5488 14.2674 H 0.0 **** 0.053
31629 H31629 1.9698 21.9852 15.6822 H 0.0 **** 0.053
31630 H31630 1.98853 21.0556 14.1797 H 0.0 **** 0.053
31631 H31631 3.19364 20.0417 16.3137 H 0.0 **** 0.053
31632 H31632 2.21608 18.9591 15.3242 H 0.0 **** 0.053
31633 H31633 18.4306 18.174 24.5523 H 0.0 **** 0.053
31634 H31634 16.8609 18.4562 22.6843 H 0.0 **** 0.053
31635 H31635 16.3291 20.034 23.3024 H 0.0 **** 0.053
31636 H31636 15.9258 18.5517 24.1958 H 0.0 **** 0.053
31637 H31637 20.0182 20.0371 24.0587 H 0.0 **** 0.053
31638 H31638 18.6979 20.9781 23.321 H 0.0 **** 0.053
31639 H31639 19.228 19.4601 22.5661 H 0.0 **** 0.053
31640 H31640 7.4104 22.1992 23.1294 H 0.0 **** 0.41
31641 H31641 -1.03784 12.8524 17.7019 H 0.0 **** 0.1268
31642 H31642 -3.18357 12.1159 16.7202 H 0.0 **** 0.1268
31643 H31643 -5.27006 12.6351 15.505 H 0.0 **** 0.1268
31644 H31644 -7.35902 13.1389 14.3095 H 0.0 **** 0.1268
31645 H31645 -8.8197 14.7661 13.1331 H 0.0 **** 0.1268
31646 H31646 -8.49817 19.3751 11.9626 H 0.0 **** 0.1268
31647 H31647 -9.23801 17.0515 12.3098 H 0.0 **** 0.1268
31648 H31648 -2.36002 21.2935 14.1811 H 0.0 **** 0.1268
31649 H31649 -3.92753 22.58 14.2617 H 0.0 **** 0.053
31650 H31650 -3.7844 22.5232 12.5024 H 0.0 **** 0.053
31651 H31651 -5.317 24.3569 13.1648 H 0.0 **** 0.053
31652 H31652 -6.30545 23.2197 14.1064 H 0.0 **** 0.053
31653 H31653 -5.82643 23.0883 11.0727 H 0.0 **** 0.053
31654 H31654 -7.35943 23.5465 11.8243 H 0.0 **** 0.053
@<TRIPOS>BOND
1 3 2 am
2 4 3 am
3 5 4 am
4 6 5 am
5 1 2 am
6 1 6 am
7 8 7 1
8 9 8 am
9 10 9 1
10 4 7 1
11 3 10 1
12 12 11 am
13 13 12 am
14 14 13 am
15 9 11 am
16 8 14 am
17 16 15 am
18 17 16 am
19 18 17 am
20 14 15 am
21 13 18 am
22 20 19 1
23 21 20 1
24 22 21 am
25 17 19 1
26 16 22 am
27 24 23 1
28 25 24 am
29 26 25 1
30 20 23 1
31 19 26 1
32 28 27 am
33 29 28 am
34 30 29 am
35 22 27 am
36 21 30 am
37 32 31 1
38 33 32 am
39 34 33 1
40 29 31 1
41 28 34 1
42 36 35 1
43 37 36 1
44 38 37 am
45 33 35 1
46 32 38 am
47 40 39 am
48 41 40 am
49 42 41 am
50 38 39 am
51 37 42 am
52 44 43 1
53 45 44 1
54 46 45 1
55 42 43 1
56 41 46 1
57 48 47 1
58 49 48 am
59 40 49 am
60 46 47 1
61 51 50 am
62 52 51 am
63 53 52 am
64 49 50 am
65 48 53 am
66 6 54 1
67 54 55 1
68 1 56 1
69 5 57 1
70 2 58 1
71 11 59 1
72 12 60 1
73 18 61 1
74 25 62 1
75 24 63 1
76 30 64 1
77 27 65 1
78 34 66 2
79 31 67 2
80 53 68 1
81 52 69 1
82 7 70 1
83 7 71 1
84 10 72 1
85 10 73 1
86 15 74 1
87 23 75 1
88 23 76 1
89 24 77 1
90 25 78 1
91 26 79 1
92 26 80 1
93 35 81 1
94 35 82 1
95 36 83 1
96 36 84 1
97 43 85 1
98 43 86 1
99 44 87 1
100 44 88 1
101 45 89 1
102 45 90 1
103 46 91 1
104 47 92 1
105 47 93 1
106 50 94 1
107 51 95 1
108 54 96 1
109 54 97 1
110 55 98 1
111 55 99 1
112 55 100 1
113 56 101 1
114 56 102 1
115 56 103 1
116 57 104 1
117 57 105 1
118 57 106 1
119 58 107 1
120 58 108 1
121 58 109 1
122 59 110 1
123 59 111 1
124 59 112 1
125 60 113 1
126 60 114 1
127 60 115 1
128 61 116 1
129 62 117 1
130 62 118 1
131 62 119 1
132 63 120 1
133 63 121 1
134 63 122 1
135 64 123 1
136 65 124 1
137 68 125 1
138 68 126 1
139 68 127 1
140 69 128 1
141 69 129 1
142 69 130 1
143 133 132 am
144 134 133 am
145 135 134 am
146 136 135 am
147 131 132 am
148 131 136 am
149 138 137 1
150 139 138 am
151 140 139 1
152 134 137 1
153 133 140 1
154 142 141 am
155 143 142 am
156 144 143 am
157 139 141 am
158 138 144 am
159 146 145 am
160 147 146 am
161 148 147 am
162 144 145 am
163 143 148 am
164 150 149 1
165 151 150 1
166 152 151 am
167 147 149 1
168 146 152 am
169 154 153 1
170 155 154 am
171 156 155 1
172 150 153 1
173 149 156 1
174 158 157 am
175 159 158 am
176 160 159 am
177 152 157 am
178 151 160 am
179 162 161 1
180 163 162 am
181 164 163 1
182 159 161 1
183 158 164 1
184 166 165 1
185 167 166 1
186 168 167 am
187 163 165 1
188 162 168 am
189 170 169 am
190 171 170 am
191 172 171 am
192 168 169 am
193 167 172 am
194 174 173 1
195 175 174 1
196 176 175 1
197 172 173 1
198 171 176 1
199 178 177 1
200 179 178 am
201 170 179 am
202 176 177 1
203 181 180 am
204 182 181 am
205 183 182 am
206 179 180 am
207 178 183 am
208 136 184 1
209 184 185 1
210 131 186 1
211 135 187 1
212 132 188 1
213 141 189 1
214 142 190 1
215 148 191 1
216 155 192 1
217 154 193 1
218 160 194 1
219 157 195 1
220 164 196 2
221 161 197 2
222 183 198 1
223 182 199 1
224 137 200 1
225 137 201 1
226 140 202 1
227 140 203 1
228 145 204 1
229 153 205 1
230 153 206 1
231 154 207 1
232 155 208 1
233 156 209 1
234 156 210 1
235 165 211 1
236 165 212 1
237 166 213 1
238 166 214 1
239 173 215 1
240 173 216 1
241 174 217 1
242 174 218 1
243 175 219 1
244 175 220 1
245 176 221 1
246 177 222 1
247 177 223 1
248 180 224 1
249 181 225 1
250 184 226 1
251 184 227 1
252 185 228 1
253 185 229 1
254 185 230 1
255 186 231 1
256 186 232 1
257 186 233 1
258 187 234 1
259 187 235 1
260 187 236 1
261 188 237 1
262 188 238 1
263 188 239 1
264 189 240 1
265 189 241 1
266 189 242 1
267 190 243 1
268 190 244 1
269 190 245 1
270 191 246 1
271 192 247 1
272 192 248 1
273 192 249 1
274 193 250 1
275 193 251 1
276 193 252 1
277 194 253 1
278 195 254 1
279 198 255 1
280 198 256 1
281 198 257 1
282 199 258 1
283 199 259 1
284 199 260 1
285 263 262 am
286 264 263 am
287 265 264 am
288 266 265 am
289 261 262 am
290 261 266 am
291 268 267 1
292 269 268 am
293 270 269 1
294 264 267 1
295 263 270 1
296 272 271 am
297 273 272 am
298 274 273 am
299 269 271 am
300 268 274 am
301 276 275 am
302 277 276 am
303 278 277 am
304 274 275 am
305 273 278 am
306 280 279 1
307 281 280 1
308 282 281 am
309 277 279 1
310 276 282 am
311 284 283 1
312 285 284 am
313 286 285 1
314 280 283 1
315 279 286 1
316 288 287 am
317 289 288 am
318 290 289 am
319 282 287 am
320 281 290 am
321 292 291 1
322 293 292 am
323 294 293 1
324 289 291 1
325 288 294 1
326 296 295 1
327 297 296 1
328 298 297 am
329 293 295 1
330 292 298 am
331 300 299 am
332 301 300 am
333 302 301 am
334 298 299 am
335 297 302 am
336 304 303 1
337 305 304 1
338 306 305 1
339 302 303 1
340 301 306 1
341 308 307 1
342 309 308 am
343 300 309 am
344 306 307 1
345 311 310 am
346 312 311 am
347 313 312 am
348 309 310 am
349 308 313 am
350 266 314 1
351 314 315 1
352 261 316 1
353 265 317 1
354 262 318 1
355 271 319 1
356 272 320 1
357 278 321 1
358 285 322 1
359 284 323 1
360 290 324 1
361 287 325 1
362 294 326 2
363 291 327 2
364 313 328 1
365 312 329 1
366 267 330 1
367 267 331 1
368 270 332 1
369 270 333 1
370 275 334 1
371 283 335 1
372 283 336 1
373 284 337 1
374 285 338 1
375 286 339 1
376 286 340 1
377 295 341 1
378 295 342 1
379 296 343 1
380 296 344 1
381 303 345 1
382 303 346 1
383 304 347 1
384 304 348 1
385 305 349 1
386 305 350 1
387 306 351 1
388 307 352 1
389 307 353 1
390 310 354 1
391 311 355 1
392 314 356 1
393 314 357 1
394 315 358 1
395 315 359 1
396 315 360 1
397 316 361 1
398 316 362 1
399 316 363 1
400 317 364 1
401 317 365 1
402 317 366 1
403 318 367 1
404 318 368 1
405 318 369 1
406 319 370 1
407 319 371 1
408 319 372 1
409 320 373 1
410 320 374 1
411 320 375 1
412 321 376 1
413 322 377 1
414 322 378 1
415 322 379 1
416 323 380 1
417 323 381 1
418 323 382 1
419 324 383 1
420 325 384 1
421 328 385 1
422 328 386 1
423 328 387 1
424 329 388 1
425 329 389 1
426 329 390 1
427 393 392 am
428 394 393 am
429 395 394 am
430 396 395 am
431 391 392 am
432 391 396 am
433 398 397 1
434 399 398 am
435 400 399 1
436 394 397 1
437 393 400 1
438 402 401 am
439 403 402 am
440 404 403 am
441 399 401 am
442 398 404 am
443 406 405 am
444 407 406 am
445 408 407 am
446 404 405 am
447 403 408 am
448 410 409 1
449 411 410 1
450 412 411 am
451 407 409 1
452 406 412 am
453 414 413 1
454 415 414 am
455 416 415 1
456 410 413 1
457 409 416 1
458 418 417 am
459 419 418 am
460 420 419 am
461 412 417 am
462 411 420 am
463 422 421 1
464 423 422 am
465 424 423 1
466 419 421 1
467 418 424 1
468 426 425 1
469 427 426 1
470 428 427 am
471 423 425 1
472 422 428 am
473 430 429 am
474 431 430 am
475 432 431 am
476 428 429 am
477 427 432 am
478 434 433 1
479 435 434 1
480 436 435 1
481 432 433 1
482 431 436 1
483 438 437 1
484 439 438 am
485 430 439 am
486 436 437 1
487 441 440 am
488 442 441 am
489 443 442 am
490 439 440 am
491 438 443 am
492 396 444 1
493 444 445 1
494 391 446 1
495 395 447 1
496 392 448 1
497 401 449 1
498 402 450 1
499 408 451 1
500 415 452 1
501 414 453 1
502 420 454 1
503 417 455 1
504 424 456 2
505 421 457 2
506 443 458 1
507 442 459 1
508 397 460 1
509 397 461 1
510 400 462 1
511 400 463 1
512 405 464 1
513 413 465 1
514 413 466 1
515 414 467 1
516 415 468 1
517 416 469 1
518 416 470 1
519 425 471 1
520 425 472 1
521 426 473 1
522 426 474 1
523 433 475 1
524 433 476 1
525 434 477 1
526 434 478 1
527 435 479 1
528 435 480 1
529 436 481 1
530 437 482 1
531 437 483 1
532 440 484 1
533 441 485 1
534 444 486 1
535 444 487 1
536 445 488 1
537 445 489 1
538 445 490 1
539 446 491 1
540 446 492 1
541 446 493 1
542 447 494 1
543 447 495 1
544 447 496 1
545 448 497 1
546 448 498 1
547 448 499 1
548 449 500 1
549 449 501 1
550 449 502 1
551 450 503 1
552 450 504 1
553 450 505 1
554 451 506 1
555 452 507 1
556 452 508 1
557 452 509 1
558 453 510 1
559 453 511 1
560 453 512 1
561 454 513 1
562 455 514 1
563 458 515 1
564 458 516 1
565 458 517 1
566 459 518 1
567 459 519 1
568 459 520 1
569 523 522 am
570 524 523 am
571 525 524 am
572 526 525 am
573 521 522 am
574 521 526 am
575 528 527 1
576 529 528 am
577 530 529 1
578 524 527 1
579 523 530 1
580 532 531 am
581 533 532 am
582 534 533 am
583 529 531 am
584 528 534 am
585 536 535 am
586 537 536 am
587 538 537 am
588 534 535 am
589 533 538 am
590 540 539 1
591 541 540 1
592 542 541 am
593 537 539 1
594 536 542 am
595 544 543 1
596 545 544 am
597 546 545 1
598 540 543 1
599 539 546 1
600 548 547 am
601 549 548 am
602 550 549 am
603 542 547 am
604 541 550 am
605 552 551 1
606 553 552 am
607 554 553 1
608 549 551 1
609 548 554 1
610 556 555 1
611 557 556 1
612 558 557 am
613 553 555 1
614 552 558 am
615 560 559 am
616 561 560 am
617 562 561 am
618 558 559 am
619 557 562 am
620 564 563 1
621 565 564 1
622 566 565 1
623 562 563 1
624 561 566 1
625 568 567 1
626 569 568 am
627 560 569 am
628 566 567 1
629 571 570 am
630 572 571 am
631 573 572 am
632 569 570 am
633 568 573 am
634 526 574 1
635 574 575 1
636 521 576 1
637 525 577 1
638 522 578 1
639 531 579 1
640 532 580 1
641 538 581 1
642 545 582 1
643 544 583 1
644 550 584 1
645 547 585 1
646 554 586 2
647 551 587 2
648 573 588 1
649 572 589 1
650 527 590 1
651 527 591 1
652 530 592 1
653 530 593 1
654 535 594 1
655 543 595 1
656 543 596 1
657 544 597 1
658 545 598 1
659 546 599 1
660 546 600 1
661 555 601 1
662 555 602 1
663 556 603 1
664 556 604 1
665 563 605 1
666 563 606 1
667 564 607 1
668 564 608 1
669 565 609 1
670 565 610 1
671 566 611 1
672 567 612 1
673 567 613 1
674 570 614 1
675 571 615 1
676 574 616 1
677 574 617 1
678 575 618 1
679 575 619 1
680 575 620 1
681 576 621 1
682 576 622 1
683 576 623 1
684 577 624 1
685 577 625 1
686 577 626 1
687 578 627 1
688 578 628 1
689 578 629 1
690 579 630 1
691 579 631 1
692 579 632 1
693 580 633 1
694 580 634 1
695 580 635 1
696 581 636 1
697 582 637 1
698 582 638 1
699 582 639 1
700 583 640 1
701 583 641 1
702 583 642 1
703 584 643 1
704 585 644 1
705 588 645 1
706 588 646 1
707 588 647 1
708 589 648 1
709 589 649 1
710 589 650 1
711 653 652 am
712 654 653 am
713 655 654 am
714 656 655 am
715 651 652 am
716 651 656 am
717 658 657 1
718 659 658 am
719 660 659 1
720 654 657 1
721 653 660 1
722 662 661 am
723 663 662 am
724 664 663 am
725 659 661 am
726 658 664 am
727 666 665 am
728 667 666 am
729 668 667 am
730 664 665 am
731 663 668 am
732 670 669 1
733 671 670 1
734 672 671 am
735 667 669 1
736 666 672 am
737 674 673 1
738 675 674 am
739 676 675 1
740 670 673 1
741 669 676 1
742 678 677 am
743 679 678 am
744 680 679 am
745 672 677 am
746 671 680 am
747 682 681 1
748 683 682 am
749 684 683 1
750 679 681 1
751 678 684 1
752 686 685 1
753 687 686 1
754 688 687 am
755 683 685 1
756 682 688 am
757 690 689 am
758 691 690 am
759 692 691 am
760 688 689 am
761 687 692 am
762 694 693 1
763 695 694 1
764 696 695 1
765 692 693 1
766 691 696 1
767 698 697 1
768 699 698 am
769 690 699 am
770 696 697 1
771 701 700 am
772 702 701 am
773 703 702 am
774 699 700 am
775 698 703 am
776 656 704 1
777 704 705 1
778 651 706 1
779 655 707 1
780 652 708 1
781 661 709 1
782 662 710 1
783 668 711 1
784 675 712 1
785 674 713 1
786 680 714 1
787 677 715 1
788 684 716 2
789 681 717 2
790 703 718 1
791 702 719 1
792 657 720 1
793 657 721 1
794 660 722 1
795 660 723 1
796 665 724 1
797 673 725 1
798 673 726 1
799 674 727 1
800 675 728 1
801 676 729 1
802 676 730 1
803 685 731 1
804 685 732 1
805 686 733 1
806 686 734 1
807 693 735 1
808 693 736 1
809 694 737 1
810 694 738 1
811 695 739 1
812 695 740 1
813 696 741 1
814 697 742 1
815 697 743 1
816 700 744 1
817 701 745 1
818 704 746 1
819 704 747 1
820 705 748 1
821 705 749 1
822 705 750 1
823 706 751 1
824 706 752 1
825 706 753 1
826 707 754 1
827 707 755 1
828 707 756 1
829 708 757 1
830 708 758 1
831 708 759 1
832 709 760 1
833 709 761 1
834 709 762 1
835 710 763 1
836 710 764 1
837 710 765 1
838 711 766 1
839 712 767 1
840 712 768 1
841 712 769 1
842 713 770 1
843 713 771 1
844 713 772 1
845 714 773 1
846 715 774 1
847 718 775 1
848 718 776 1
849 718 777 1
850 719 778 1
851 719 779 1
852 719 780 1
853 783 782 am
854 784 783 am
855 785 784 am
856 786 785 am
857 781 782 am
858 781 786 am
859 788 787 1
860 789 788 am
861 790 789 1
862 784 787 1
863 783 790 1
864 792 791 am
865 793 792 am
866 794 793 am
867 789 791 am
868 788 794 am
869 796 795 am
870 797 796 am
871 798 797 am
872 794 795 am
873 793 798 am
874 800 799 1
875 801 800 1
876 802 801 am
877 797 799 1
878 796 802 am
879 804 803 1
880 805 804 am
881 806 805 1
882 800 803 1
883 799 806 1
884 808 807 am
885 809 808 am
886 810 809 am
887 802 807 am
888 801 810 am
889 812 811 1
890 813 812 am
891 814 813 1
892 809 811 1
893 808 814 1
894 816 815 1
895 817 816 1
896 818 817 am
897 813 815 1
898 812 818 am
899 820 819 am
900 821 820 am
901 822 821 am
902 818 819 am
903 817 822 am
904 824 823 1
905 825 824 1
906 826 825 1
907 822 823 1
908 821 826 1
909 828 827 1
910 829 828 am
911 820 829 am
912 826 827 1
913 831 830 am
914 832 831 am
915 833 832 am
916 829 830 am
917 828 833 am
918 786 834 1
919 834 835 1
920 781 836 1
921 785 837 1
922 782 838 1
923 791 839 1
924 792 840 1
925 798 841 1
926 805 842 1
927 804 843 1
928 810 844 1
929 807 845 1
930 814 846 2
931 811 847 2
932 833 848 1
933 832 849 1
934 787 850 1
935 787 851 1
936 790 852 1
937 790 853 1
938 795 854 1
939 803 855 1
940 803 856 1
941 804 857 1
942 805 858 1
943 806 859 1
944 806 860 1
945 815 861 1
946 815 862 1
947 816 863 1
948 816 864 1
949 823 865 1
950 823 866 1
951 824 867 1
952 824 868 1
953 825 869 1
954 825 870 1
955 826 871 1
956 827 872 1
957 827 873 1
958 830 874 1
959 831 875 1
960 834 876 1
961 834 877 1
962 835 878 1
963 835 879 1
964 835 880 1
965 836 881 1
966 836 882 1
967 836 883 1
968 837 884 1
969 837 885 1
970 837 886 1
971 838 887 1
972 838 888 1
973 838 889 1
974 839 890 1
975 839 891 1
976 839 892 1
977 840 893 1
978 840 894 1
979 840 895 1
980 841 896 1
981 842 897 1
982 842 898 1
983 842 899 1
984 843 900 1
985 843 901 1
986 843 902 1
987 844 903 1
988 845 904 1
989 848 905 1
990 848 906 1
991 848 907 1
992 849 908 1
993 849 909 1
994 849 910 1
995 913 912 am
996 914 913 am
997 915 914 am
998 916 915 am
999 911 912 am
1000 911 916 am
1001 918 917 1
1002 919 918 am
1003 920 919 1
1004 914 917 1
1005 913 920 1
1006 922 921 am
1007 923 922 am
1008 924 923 am
1009 919 921 am
1010 918 924 am
1011 926 925 am
1012 927 926 am
1013 928 927 am
1014 924 925 am
1015 923 928 am
1016 930 929 1
1017 931 930 1
1018 932 931 am
1019 927 929 1
1020 926 932 am
1021 934 933 1
1022 935 934 am
1023 936 935 1
1024 930 933 1
1025 929 936 1
1026 938 937 am
1027 939 938 am
1028 940 939 am
1029 932 937 am
1030 931 940 am
1031 942 941 1
1032 943 942 am
1033 944 943 1
1034 939 941 1
1035 938 944 1
1036 946 945 1
1037 947 946 1
1038 948 947 am
1039 943 945 1
1040 942 948 am
1041 950 949 am
1042 951 950 am
1043 952 951 am
1044 948 949 am
1045 947 952 am
1046 954 953 1
1047 955 954 1
1048 956 955 1
1049 952 953 1
1050 951 956 1
1051 958 957 1
1052 959 958 am
1053 950 959 am
1054 956 957 1
1055 961 960 am
1056 962 961 am
1057 963 962 am
1058 959 960 am
1059 958 963 am
1060 916 964 1
1061 964 965 1
1062 911 966 1
1063 915 967 1
1064 912 968 1
1065 921 969 1
1066 922 970 1
1067 928 971 1
1068 935 972 1
1069 934 973 1
1070 940 974 1
1071 937 975 1
1072 944 976 2
1073 941 977 2
1074 963 978 1
1075 962 979 1
1076 917 980 1
1077 917 981 1
1078 920 982 1
1079 920 983 1
1080 925 984 1
1081 933 985 1
1082 933 986 1
1083 934 987 1
1084 935 988 1
1085 936 989 1
1086 936 990 1
1087 945 991 1
1088 945 992 1
1089 946 993 1
1090 946 994 1
1091 953 995 1
1092 953 996 1
1093 954 997 1
1094 954 998 1
1095 955 999 1
1096 955 1000 1
1097 956 1001 1
1098 957 1002 1
1099 957 1003 1
1100 960 1004 1
1101 961 1005 1
1102 964 1006 1
1103 964 1007 1
1104 965 1008 1
1105 965 1009 1
1106 965 1010 1
1107 966 1011 1
1108 966 1012 1
1109 966 1013 1
1110 967 1014 1
1111 967 1015 1
1112 967 1016 1
1113 968 1017 1
1114 968 1018 1
1115 968 1019 1
1116 969 1020 1
1117 969 1021 1
1118 969 1022 1
1119 970 1023 1
1120 970 1024 1
1121 970 1025 1
1122 971 1026 1
1123 972 1027 1
1124 972 1028 1
1125 972 1029 1
1126 973 1030 1
1127 973 1031 1
1128 973 1032 1
1129 974 1033 1
1130 975 1034 1
1131 978 1035 1
1132 978 1036 1
1133 978 1037 1
1134 979 1038 1
1135 979 1039 1
1136 979 1040 1
1137 1043 1042 am
1138 1044 1043 am
1139 1045 1044 am
1140 1046 1045 am
1141 1041 1042 am
1142 1041 1046 am
1143 1048 1047 1
1144 1049 1048 am
1145 1050 1049 1
1146 1044 1047 1
1147 1043 1050 1
1148 1052 1051 am
1149 1053 1052 am
1150 1054 1053 am
1151 1049 1051 am
1152 1048 1054 am
1153 1056 1055 am
1154 1057 1056 am
1155 1058 1057 am
1156 1054 1055 am
1157 1053 1058 am
1158 1060 1059 1
1159 1061 1060 1
1160 1062 1061 am
1161 1057 1059 1
1162 1056 1062 am
1163 1064 1063 1
1164 1065 1064 am
1165 1066 1065 1
1166 1060 1063 1
1167 1059 1066 1
1168 1068 1067 am
1169 1069 1068 am
1170 1070 1069 am
1171 1062 1067 am
1172 1061 1070 am
1173 1072 1071 1
1174 1073 1072 am
1175 1074 1073 1
1176 1069 1071 1
1177 1068 1074 1
1178 1076 1075 1
1179 1077 1076 1
1180 1078 1077 am
1181 1073 1075 1
1182 1072 1078 am
1183 1080 1079 am
1184 1081 1080 am
1185 1082 1081 am
1186 1078 1079 am
1187 1077 1082 am
1188 1084 1083 1
1189 1085 1084 1
1190 1086 1085 1
1191 1082 1083 1
1192 1081 1086 1
1193 1088 1087 1
1194 1089 1088 am
1195 1080 1089 am
1196 1086 1087 1
1197 1091 1090 am
1198 1092 1091 am
1199 1093 1092 am
1200 1089 1090 am
1201 1088 1093 am
1202 1046 1094 1
1203 1094 1095 1
1204 1041 1096 1
1205 1045 1097 1
1206 1042 1098 1
1207 1051 1099 1
1208 1052 1100 1
1209 1058 1101 1
1210 1065 1102 1
1211 1064 1103 1
1212 1070 1104 1
1213 1067 1105 1
1214 1074 1106 2
1215 1071 1107 2
1216 1093 1108 1
1217 1092 1109 1
1218 1047 1110 1
1219 1047 1111 1
1220 1050 1112 1
1221 1050 1113 1
1222 1055 1114 1
1223 1063 1115 1
1224 1063 1116 1
1225 1064 1117 1
1226 1065 1118 1
1227 1066 1119 1
1228 1066 1120 1
1229 1075 1121 1
1230 1075 1122 1
1231 1076 1123 1
1232 1076 1124 1
1233 1083 1125 1
1234 1083 1126 1
1235 1084 1127 1
1236 1084 1128 1
1237 1085 1129 1
1238 1085 1130 1
1239 1086 1131 1
1240 1087 1132 1
1241 1087 1133 1
1242 1090 1134 1
1243 1091 1135 1
1244 1094 1136 1
1245 1094 1137 1
1246 1095 1138 1
1247 1095 1139 1
1248 1095 1140 1
1249 1096 1141 1
1250 1096 1142 1
1251 1096 1143 1
1252 1097 1144 1
1253 1097 1145 1
1254 1097 1146 1
1255 1098 1147 1
1256 1098 1148 1
1257 1098 1149 1
1258 1099 1150 1
1259 1099 1151 1
1260 1099 1152 1
1261 1100 1153 1
1262 1100 1154 1
1263 1100 1155 1
1264 1101 1156 1
1265 1102 1157 1
1266 1102 1158 1
1267 1102 1159 1
1268 1103 1160 1
1269 1103 1161 1
1270 1103 1162 1
1271 1104 1163 1
1272 1105 1164 1
1273 1108 1165 1
1274 1108 1166 1
1275 1108 1167 1
1276 1109 1168 1
1277 1109 1169 1
1278 1109 1170 1
1279 1173 1172 am
1280 1174 1173 am
1281 1175 1174 am
1282 1176 1175 am
1283 1171 1172 am
1284 1171 1176 am
1285 1178 1177 1
1286 1179 1178 am
1287 1180 1179 1
1288 1174 1177 1
1289 1173 1180 1
1290 1182 1181 am
1291 1183 1182 am
1292 1184 1183 am
1293 1179 1181 am
1294 1178 1184 am
1295 1186 1185 am
1296 1187 1186 am
1297 1188 1187 am
1298 1184 1185 am
1299 1183 1188 am
1300 1190 1189 1
1301 1191 1190 1
1302 1192 1191 am
1303 1187 1189 1
1304 1186 1192 am
1305 1194 1193 1
1306 1195 1194 am
1307 1196 1195 1
1308 1190 1193 1
1309 1189 1196 1
1310 1198 1197 am
1311 1199 1198 am
1312 1200 1199 am
1313 1192 1197 am
1314 1191 1200 am
1315 1202 1201 1
1316 1203 1202 am
1317 1204 1203 1
1318 1199 1201 1
1319 1198 1204 1
1320 1206 1205 1
1321 1207 1206 1
1322 1208 1207 am
1323 1203 1205 1
1324 1202 1208 am
1325 1210 1209 am
1326 1211 1210 am
1327 1212 1211 am
1328 1208 1209 am
1329 1207 1212 am
1330 1214 1213 1
1331 1215 1214 1
1332 1216 1215 1
1333 1212 1213 1
1334 1211 1216 1
1335 1218 1217 1
1336 1219 1218 am
1337 1210 1219 am
1338 1216 1217 1
1339 1221 1220 am
1340 1222 1221 am
1341 1223 1222 am
1342 1219 1220 am
1343 1218 1223 am
1344 1176 1224 1
1345 1224 1225 1
1346 1171 1226 1
1347 1175 1227 1
1348 1172 1228 1
1349 1181 1229 1
1350 1182 1230 1
1351 1188 1231 1
1352 1195 1232 1
1353 1194 1233 1
1354 1200 1234 1
1355 1197 1235 1
1356 1204 1236 2
1357 1201 1237 2
1358 1223 1238 1
1359 1222 1239 1
1360 1177 1240 1
1361 1177 1241 1
1362 1180 1242 1
1363 1180 1243 1
1364 1185 1244 1
1365 1193 1245 1
1366 1193 1246 1
1367 1194 1247 1
1368 1195 1248 1
1369 1196 1249 1
1370 1196 1250 1
1371 1205 1251 1
1372 1205 1252 1
1373 1206 1253 1
1374 1206 1254 1
1375 1213 1255 1
1376 1213 1256 1
1377 1214 1257 1
1378 1214 1258 1
1379 1215 1259 1
1380 1215 1260 1
1381 1216 1261 1
1382 1217 1262 1
1383 1217 1263 1
1384 1220 1264 1
1385 1221 1265 1
1386 1224 1266 1
1387 1224 1267 1
1388 1225 1268 1
1389 1225 1269 1
1390 1225 1270 1
1391 1226 1271 1
1392 1226 1272 1
1393 1226 1273 1
1394 1227 1274 1
1395 1227 1275 1
1396 1227 1276 1
1397 1228 1277 1
1398 1228 1278 1
1399 1228 1279 1
1400 1229 1280 1
1401 1229 1281 1
1402 1229 1282 1
1403 1230 1283 1
1404 1230 1284 1
1405 1230 1285 1
1406 1231 1286 1
1407 1232 1287 1
1408 1232 1288 1
1409 1232 1289 1
1410 1233 1290 1
1411 1233 1291 1
1412 1233 1292 1
1413 1234 1293 1
1414 1235 1294 1
1415 1238 1295 1
1416 1238 1296 1
1417 1238 1297 1
1418 1239 1298 1
1419 1239 1299 1
1420 1239 1300 1
1421 1303 1302 am
1422 1304 1303 am
1423 1305 1304 am
1424 1306 1305 am
1425 1301 1302 am
1426 1301 1306 am
1427 1308 1307 1
1428 1309 1308 am
1429 1310 1309 1
1430 1304 1307 1
1431 1303 1310 1
1432 1312 1311 am
1433 1313 1312 am
1434 1314 1313 am
1435 1309 1311 am
1436 1308 1314 am
1437 1316 1315 am
1438 1317 1316 am
1439 1318 1317 am
1440 1314 1315 am
1441 1313 1318 am
1442 1320 1319 1
1443 1321 1320 1
1444 1322 1321 am
1445 1317 1319 1
1446 1316 1322 am
1447 1324 1323 1
1448 1325 1324 am
1449 1326 1325 1
1450 1320 1323 1
1451 1319 1326 1
1452 1328 1327 am
1453 1329 1328 am
1454 1330 1329 am
1455 1322 1327 am
1456 1321 1330 am
1457 1332 1331 1
1458 1333 1332 am
1459 1334 1333 1
1460 1329 1331 1
1461 1328 1334 1
1462 1336 1335 1
1463 1337 1336 1
1464 1338 1337 am
1465 1333 1335 1
1466 1332 1338 am
1467 1340 1339 am
1468 1341 1340 am
1469 1342 1341 am
1470 1338 1339 am
1471 1337 1342 am
1472 1344 1343 1
1473 1345 1344 1
1474 1346 1345 1
1475 1342 1343 1
1476 1341 1346 1
1477 1348 1347 1
1478 1349 1348 am
1479 1340 1349 am
1480 1346 1347 1
1481 1351 1350 am
1482 1352 1351 am
1483 1353 1352 am
1484 1349 1350 am
1485 1348 1353 am
1486 1306 1354 1
1487 1354 1355 1
1488 1301 1356 1
1489 1305 1357 1
1490 1302 1358 1
1491 1311 1359 1
1492 1312 1360 1
1493 1318 1361 1
1494 1325 1362 1
1495 1324 1363 1
1496 1330 1364 1
1497 1327 1365 1
1498 1334 1366 2
1499 1331 1367 2
1500 1353 1368 1
1501 1352 1369 1
1502 1307 1370 1
1503 1307 1371 1
1504 1310 1372 1
1505 1310 1373 1
1506 1315 1374 1
1507 1323 1375 1
1508 1323 1376 1
1509 1324 1377 1
1510 1325 1378 1
1511 1326 1379 1
1512 1326 1380 1
1513 1335 1381 1
1514 1335 1382 1
1515 1336 1383 1
1516 1336 1384 1
1517 1343 1385 1
1518 1343 1386 1
1519 1344 1387 1
1520 1344 1388 1
1521 1345 1389 1
1522 1345 1390 1
1523 1346 1391 1
1524 1347 1392 1
1525 1347 1393 1
1526 1350 1394 1
1527 1351 1395 1
1528 1354 1396 1
1529 1354 1397 1
1530 1355 1398 1
1531 1355 1399 1
1532 1355 1400 1
1533 1356 1401 1
1534 1356 1402 1
1535 1356 1403 1
1536 1357 1404 1
1537 1357 1405 1
1538 1357 1406 1
1539 1358 1407 1
1540 1358 1408 1
1541 1358 1409 1
1542 1359 1410 1
1543 1359 1411 1
1544 1359 1412 1
1545 1360 1413 1
1546 1360 1414 1
1547 1360 1415 1
1548 1361 1416 1
1549 1362 1417 1
1550 1362 1418 1
1551 1362 1419 1
1552 1363 1420 1
1553 1363 1421 1
1554 1363 1422 1
1555 1364 1423 1
1556 1365 1424 1
1557 1368 1425 1
1558 1368 1426 1
1559 1368 1427 1
1560 1369 1428 1
1561 1369 1429 1
1562 1369 1430 1
1563 1433 1432 am
1564 1434 1433 am
1565 1435 1434 am
1566 1436 1435 am
1567 1431 1432 am
1568 1431 1436 am
1569 1438 1437 1
1570 1439 1438 am
1571 1440 1439 1
1572 1434 1437 1
1573 1433 1440 1
1574 1442 1441 am
1575 1443 1442 am
1576 1444 1443 am
1577 1439 1441 am
1578 1438 1444 am
1579 1446 1445 am
1580 1447 1446 am
1581 1448 1447 am
1582 1444 1445 am
1583 1443 1448 am
1584 1450 1449 1
1585 1451 1450 1
1586 1452 1451 am
1587 1447 1449 1
1588 1446 1452 am
1589 1454 1453 1
1590 1455 1454 am
1591 1456 1455 1
1592 1450 1453 1
1593 1449 1456 1
1594 1458 1457 am
1595 1459 1458 am
1596 1460 1459 am
1597 1452 1457 am
1598 1451 1460 am
1599 1462 1461 1
1600 1463 1462 am
1601 1464 1463 1
1602 1459 1461 1
1603 1458 1464 1
1604 1466 1465 1
1605 1467 1466 1
1606 1468 1467 am
1607 1463 1465 1
1608 1462 1468 am
1609 1470 1469 am
1610 1471 1470 am
1611 1472 1471 am
1612 1468 1469 am
1613 1467 1472 am
1614 1474 1473 1
1615 1475 1474 1
1616 1476 1475 1
1617 1472 1473 1
1618 1471 1476 1
1619 1478 1477 1
1620 1479 1478 am
1621 1470 1479 am
1622 1476 1477 1
1623 1481 1480 am
1624 1482 1481 am
1625 1483 1482 am
1626 1479 1480 am
1627 1478 1483 am
1628 1436 1484 1
1629 1484 1485 1
1630 1431 1486 1
1631 1435 1487 1
1632 1432 1488 1
1633 1441 1489 1
1634 1442 1490 1
1635 1448 1491 1
1636 1455 1492 1
1637 1454 1493 1
1638 1460 1494 1
1639 1457 1495 1
1640 1464 1496 2
1641 1461 1497 2
1642 1483 1498 1
1643 1482 1499 1
1644 1437 1500 1
1645 1437 1501 1
1646 1440 1502 1
1647 1440 1503 1
1648 1445 1504 1
1649 1453 1505 1
1650 1453 1506 1
1651 1454 1507 1
1652 1455 1508 1
1653 1456 1509 1
1654 1456 1510 1
1655 1465 1511 1
1656 1465 1512 1
1657 1466 1513 1
1658 1466 1514 1
1659 1473 1515 1
1660 1473 1516 1
1661 1474 1517 1
1662 1474 1518 1
1663 1475 1519 1
1664 1475 1520 1
1665 1476 1521 1
1666 1477 1522 1
1667 1477 1523 1
1668 1480 1524 1
1669 1481 1525 1
1670 1484 1526 1
1671 1484 1527 1
1672 1485 1528 1
1673 1485 1529 1
1674 1485 1530 1
1675 1486 1531 1
1676 1486 1532 1
1677 1486 1533 1
1678 1487 1534 1
1679 1487 1535 1
1680 1487 1536 1
1681 1488 1537 1
1682 1488 1538 1
1683 1488 1539 1
1684 1489 1540 1
1685 1489 1541 1
1686 1489 1542 1
1687 1490 1543 1
1688 1490 1544 1
1689 1490 1545 1
1690 1491 1546 1
1691 1492 1547 1
1692 1492 1548 1
1693 1492 1549 1
1694 1493 1550 1
1695 1493 1551 1
1696 1493 1552 1
1697 1494 1553 1
1698 1495 1554 1
1699 1498 1555 1
1700 1498 1556 1
1701 1498 1557 1
1702 1499 1558 1
1703 1499 1559 1
1704 1499 1560 1
1705 1563 1562 am
1706 1564 1563 am
1707 1565 1564 am
1708 1566 1565 am
1709 1561 1562 am
1710 1561 1566 am
1711 1568 1567 1
1712 1569 1568 am
1713 1570 1569 1
1714 1564 1567 1
1715 1563 1570 1
1716 1572 1571 am
1717 1573 1572 am
1718 1574 1573 am
1719 1569 1571 am
1720 1568 1574 am
1721 1576 1575 am
1722 1577 1576 am
1723 1578 1577 am
1724 1574 1575 am
1725 1573 1578 am
1726 1580 1579 1
1727 1581 1580 1
1728 1582 1581 am
1729 1577 1579 1
1730 1576 1582 am
1731 1584 1583 1
1732 1585 1584 am
1733 1586 1585 1
1734 1580 1583 1
1735 1579 1586 1
1736 1588 1587 am
1737 1589 1588 am
1738 1590 1589 am
1739 1582 1587 am
1740 1581 1590 am
1741 1592 1591 1
1742 1593 1592 am
1743 1594 1593 1
1744 1589 1591 1
1745 1588 1594 1
1746 1596 1595 1
1747 1597 1596 1
1748 1598 1597 am
1749 1593 1595 1
1750 1592 1598 am
1751 1600 1599 am
1752 1601 1600 am
1753 1602 1601 am
1754 1598 1599 am
1755 1597 1602 am
1756 1604 1603 1
1757 1605 1604 1
1758 1606 1605 1
1759 1602 1603 1
1760 1601 1606 1
1761 1608 1607 1
1762 1609 1608 am
1763 1600 1609 am
1764 1606 1607 1
1765 1611 1610 am
1766 1612 1611 am
1767 1613 1612 am
1768 1609 1610 am
1769 1608 1613 am
1770 1566 1614 1
1771 1614 1615 1
1772 1561 1616 1
1773 1565 1617 1
1774 1562 1618 1
1775 1571 1619 1
1776 1572 1620 1
1777 1578 1621 1
1778 1585 1622 1
1779 1584 1623 1
1780 1590 1624 1
1781 1587 1625 1
1782 1594 1626 2
1783 1591 1627 2
1784 1613 1628 1
1785 1612 1629 1
1786 1567 1630 1
1787 1567 1631 1
1788 1570 1632 1
1789 1570 1633 1
1790 1575 1634 1
1791 1583 1635 1
1792 1583 1636 1
1793 1584 1637 1
1794 1585 1638 1
1795 1586 1639 1
1796 1586 1640 1
1797 1595 1641 1
1798 1595 1642 1
1799 1596 1643 1
1800 1596 1644 1
1801 1603 1645 1
1802 1603 1646 1
1803 1604 1647 1
1804 1604 1648 1
1805 1605 1649 1
1806 1605 1650 1
1807 1606 1651 1
1808 1607 1652 1
1809 1607 1653 1
1810 1610 1654 1
1811 1611 1655 1
1812 1614 1656 1
1813 1614 1657 1
1814 1615 1658 1
1815 1615 1659 1
1816 1615 1660 1
1817 1616 1661 1
1818 1616 1662 1
1819 1616 1663 1
1820 1617 1664 1
1821 1617 1665 1
1822 1617 1666 1
1823 1618 1667 1
1824 1618 1668 1
1825 1618 1669 1
1826 1619 1670 1
1827 1619 1671 1
1828 1619 1672 1
1829 1620 1673 1
1830 1620 1674 1
1831 1620 1675 1
1832 1621 1676 1
1833 1622 1677 1
1834 1622 1678 1
1835 1622 1679 1
1836 1623 1680 1
1837 1623 1681 1
1838 1623 1682 1
1839 1624 1683 1
1840 1625 1684 1
1841 1628 1685 1
1842 1628 1686 1
1843 1628 1687 1
1844 1629 1688 1
1845 1629 1689 1
1846 1629 1690 1
1847 1693 1692 am
1848 1694 1693 am
1849 1695 1694 am
1850 1696 1695 am
1851 1691 1692 am
1852 1691 1696 am
1853 1698 1697 1
1854 1699 1698 am
1855 1700 1699 1
1856 1694 1697 1
1857 1693 1700 1
1858 1702 1701 am
1859 1703 1702 am
1860 1704 1703 am
1861 1699 1701 am
1862 1698 1704 am
1863 1706 1705 am
1864 1707 1706 am
1865 1708 1707 am
1866 1704 1705 am
1867 1703 1708 am
1868 1710 1709 1
1869 1711 1710 1
1870 1712 1711 am
1871 1707 1709 1
1872 1706 1712 am
1873 1714 1713 1
1874 1715 1714 am
1875 1716 1715 1
1876 1710 1713 1
1877 1709 1716 1
1878 1718 1717 am
1879 1719 1718 am
1880 1720 1719 am
1881 1712 1717 am
1882 1711 1720 am
1883 1722 1721 1
1884 1723 1722 am
1885 1724 1723 1
1886 1719 1721 1
1887 1718 1724 1
1888 1726 1725 1
1889 1727 1726 1
1890 1728 1727 am
1891 1723 1725 1
1892 1722 1728 am
1893 1730 1729 am
1894 1731 1730 am
1895 1732 1731 am
1896 1728 1729 am
1897 1727 1732 am
1898 1734 1733 1
1899 1735 1734 1
1900 1736 1735 1
1901 1732 1733 1
1902 1731 1736 1
1903 1738 1737 1
1904 1739 1738 am
1905 1730 1739 am
1906 1736 1737 1
1907 1741 1740 am
1908 1742 1741 am
1909 1743 1742 am
1910 1739 1740 am
1911 1738 1743 am
1912 1696 1744 1
1913 1744 1745 1
1914 1691 1746 1
1915 1695 1747 1
1916 1692 1748 1
1917 1701 1749 1
1918 1702 1750 1
1919 1708 1751 1
1920 1715 1752 1
1921 1714 1753 1
1922 1720 1754 1
1923 1717 1755 1
1924 1724 1756 2
1925 1721 1757 2
1926 1743 1758 1
1927 1742 1759 1
1928 1697 1760 1
1929 1697 1761 1
1930 1700 1762 1
1931 1700 1763 1
1932 1705 1764 1
1933 1713 1765 1
1934 1713 1766 1
1935 1714 1767 1
1936 1715 1768 1
1937 1716 1769 1
1938 1716 1770 1
1939 1725 1771 1
1940 1725 1772 1
1941 1726 1773 1
1942 1726 1774 1
1943 1733 1775 1
1944 1733 1776 1
1945 1734 1777 1
1946 1734 1778 1
1947 1735 1779 1
1948 1735 1780 1
1949 1736 1781 1
1950 1737 1782 1
1951 1737 1783 1
1952 1740 1784 1
1953 1741 1785 1
1954 1744 1786 1
1955 1744 1787 1
1956 1745 1788 1
1957 1745 1789 1
1958 1745 1790 1
1959 1746 1791 1
1960 1746 1792 1
1961 1746 1793 1
1962 1747 1794 1
1963 1747 1795 1
1964 1747 1796 1
1965 1748 1797 1
1966 1748 1798 1
1967 1748 1799 1
1968 1749 1800 1
1969 1749 1801 1
1970 1749 1802 1
1971 1750 1803 1
1972 1750 1804 1
1973 1750 1805 1
1974 1751 1806 1
1975 1752 1807 1
1976 1752 1808 1
1977 1752 1809 1
1978 1753 1810 1
1979 1753 1811 1
1980 1753 1812 1
1981 1754 1813 1
1982 1755 1814 1
1983 1758 1815 1
1984 1758 1816 1
1985 1758 1817 1
1986 1759 1818 1
1987 1759 1819 1
1988 1759 1820 1
1989 1823 1822 am
1990 1824 1823 am
1991 1825 1824 am
1992 1826 1825 am
1993 1821 1822 am
1994 1821 1826 am
1995 1828 1827 1
1996 1829 1828 am
1997 1830 1829 1
1998 1824 1827 1
1999 1823 1830 1
2000 1832 1831 am
2001 1833 1832 am
2002 1834 1833 am
2003 1829 1831 am
2004 1828 1834 am
2005 1836 1835 am
2006 1837 1836 am
2007 1838 1837 am
2008 1834 1835 am
2009 1833 1838 am
2010 1840 1839 1
2011 1841 1840 1
2012 1842 1841 am
2013 1837 1839 1
2014 1836 1842 am
2015 1844 1843 1
2016 1845 1844 am
2017 1846 1845 1
2018 1840 1843 1
2019 1839 1846 1
2020 1848 1847 am
2021 1849 1848 am
2022 1850 1849 am
2023 1842 1847 am
2024 1841 1850 am
2025 1852 1851 1
2026 1853 1852 am
2027 1854 1853 1
2028 1849 1851 1
2029 1848 1854 1
2030 1856 1855 1
2031 1857 1856 1
2032 1858 1857 am
2033 1853 1855 1
2034 1852 1858 am
2035 1860 1859 am
2036 1861 1860 am
2037 1862 1861 am
2038 1858 1859 am
2039 1857 1862 am
2040 1864 1863 1
2041 1865 1864 1
2042 1866 1865 1
2043 1862 1863 1
2044 1861 1866 1
2045 1868 1867 1
2046 1869 1868 am
2047 1860 1869 am
2048 1866 1867 1
2049 1871 1870 am
2050 1872 1871 am
2051 1873 1872 am
2052 1869 1870 am
2053 1868 1873 am
2054 1826 1874 1
2055 1874 1875 1
2056 1821 1876 1
2057 1825 1877 1
2058 1822 1878 1
2059 1831 1879 1
2060 1832 1880 1
2061 1838 1881 1
2062 1845 1882 1
2063 1844 1883 1
2064 1850 1884 1
2065 1847 1885 1
2066 1854 1886 2
2067 1851 1887 2
2068 1873 1888 1
2069 1872 1889 1
2070 1827 1890 1
2071 1827 1891 1
2072 1830 1892 1
2073 1830 1893 1
2074 1835 1894 1
2075 1843 1895 1
2076 1843 1896 1
2077 1844 1897 1
2078 1845 1898 1
2079 1846 1899 1
2080 1846 1900 1
2081 1855 1901 1
2082 1855 1902 1
2083 1856 1903 1
2084 1856 1904 1
2085 1863 1905 1
2086 1863 1906 1
2087 1864 1907 1
2088 1864 1908 1
2089 1865 1909 1
2090 1865 1910 1
2091 1866 1911 1
2092 1867 1912 1
2093 1867 1913 1
2094 1870 1914 1
2095 1871 1915 1
2096 1874 1916 1
2097 1874 1917 1
2098 1875 1918 1
2099 1875 1919 1
2100 1875 1920 1
2101 1876 1921 1
2102 1876 1922 1
2103 1876 1923 1
2104 1877 1924 1
2105 1877 1925 1
2106 1877 1926 1
2107 1878 1927 1
2108 1878 1928 1
2109 1878 1929 1
2110 1879 1930 1
2111 1879 1931 1
2112 1879 1932 1
2113 1880 1933 1
2114 1880 1934 1
2115 1880 1935 1
2116 1881 1936 1
2117 1882 1937 1
2118 1882 1938 1
2119 1882 1939 1
2120 1883 1940 1
2121 1883 1941 1
2122 1883 1942 1
2123 1884 1943 1
2124 1885 1944 1
2125 1888 1945 1
2126 1888 1946 1
2127 1888 1947 1
2128 1889 1948 1
2129 1889 1949 1
2130 1889 1950 1
2131 1953 1952 am
2132 1954 1953 am
2133 1955 1954 am
2134 1956 1955 am
2135 1951 1952 am
2136 1951 1956 am
2137 1958 1957 1
2138 1959 1958 am
2139 1960 1959 1
2140 1954 1957 1
2141 1953 1960 1
2142 1962 1961 am
2143 1963 1962 am
2144 1964 1963 am
2145 1959 1961 am
2146 1958 1964 am
2147 1966 1965 am
2148 1967 1966 am
2149 1968 1967 am
2150 1964 1965 am
2151 1963 1968 am
2152 1970 1969 1
2153 1971 1970 1
2154 1972 1971 am
2155 1967 1969 1
2156 1966 1972 am
2157 1974 1973 1
2158 1975 1974 am
2159 1976 1975 1
2160 1970 1973 1
2161 1969 1976 1
2162 1978 1977 am
2163 1979 1978 am
2164 1980 1979 am
2165 1972 1977 am
2166 1971 1980 am
2167 1982 1981 1
2168 1983 1982 am
2169 1984 1983 1
2170 1979 1981 1
2171 1978 1984 1
2172 1986 1985 1
2173 1987 1986 1
2174 1988 1987 am
2175 1983 1985 1
2176 1982 1988 am
2177 1990 1989 am
2178 1991 1990 am
2179 1992 1991 am
2180 1988 1989 am
2181 1987 1992 am
2182 1994 1993 1
2183 1995 1994 1
2184 1996 1995 1
2185 1992 1993 1
2186 1991 1996 1
2187 1998 1997 1
2188 1999 1998 am
2189 1990 1999 am
2190 1996 1997 1
2191 2001 2000 am
2192 2002 2001 am
2193 2003 2002 am
2194 1999 2000 am
2195 1998 2003 am
2196 1956 2004 1
2197 2004 2005 1
2198 1951 2006 1
2199 1955 2007 1
2200 1952 2008 1
2201 1961 2009 1
2202 1962 2010 1
2203 1968 2011 1
2204 1975 2012 1
2205 1974 2013 1
2206 1980 2014 1
2207 1977 2015 1
2208 1984 2016 2
2209 1981 2017 2
2210 2003 2018 1
2211 2002 2019 1
2212 1957 2020 1
2213 1957 2021 1
2214 1960 2022 1
2215 1960 2023 1
2216 1965 2024 1
2217 1973 2025 1
2218 1973 2026 1
2219 1974 2027 1
2220 1975 2028 1
2221 1976 2029 1
2222 1976 2030 1
2223 1985 2031 1
2224 1985 2032 1
2225 1986 2033 1
2226 1986 2034 1
2227 1993 2035 1
2228 1993 2036 1
2229 1994 2037 1
2230 1994 2038 1
2231 1995 2039 1
2232 1995 2040 1
2233 1996 2041 1
2234 1997 2042 1
2235 1997 2043 1
2236 2000 2044 1
2237 2001 2045 1
2238 2004 2046 1
2239 2004 2047 1
2240 2005 2048 1
2241 2005 2049 1
2242 2005 2050 1
2243 2006 2051 1
2244 2006 2052 1
2245 2006 2053 1
2246 2007 2054 1
2247 2007 2055 1
2248 2007 2056 1
2249 2008 2057 1
2250 2008 2058 1
2251 2008 2059 1
2252 2009 2060 1
2253 2009 2061 1
2254 2009 2062 1
2255 2010 2063 1
2256 2010 2064 1
2257 2010 2065 1
2258 2011 2066 1
2259 2012 2067 1
2260 2012 2068 1
2261 2012 2069 1
2262 2013 2070 1
2263 2013 2071 1
2264 2013 2072 1
2265 2014 2073 1
2266 2015 2074 1
2267 2018 2075 1
2268 2018 2076 1
2269 2018 2077 1
2270 2019 2078 1
2271 2019 2079 1
2272 2019 2080 1
2273 2083 2082 am
2274 2084 2083 am
2275 2085 2084 am
2276 2086 2085 am
2277 2081 2082 am
2278 2081 2086 am
2279 2088 2087 1
2280 2089 2088 am
2281 2090 2089 1
2282 2084 2087 1
2283 2083 2090 1
2284 2092 2091 am
2285 2093 2092 am
2286 2094 2093 am
2287 2089 2091 am
2288 2088 2094 am
2289 2096 2095 am
2290 2097 2096 am
2291 2098 2097 am
2292 2094 2095 am
2293 2093 2098 am
2294 2100 2099 1
2295 2101 2100 1
2296 2102 2101 am
2297 2097 2099 1
2298 2096 2102 am
2299 2104 2103 1
2300 2105 2104 am
2301 2106 2105 1
2302 2100 2103 1
2303 2099 2106 1
2304 2108 2107 am
2305 2109 2108 am
2306 2110 2109 am
2307 2102 2107 am
2308 2101 2110 am
2309 2112 2111 1
2310 2113 2112 am
2311 2114 2113 1
2312 2109 2111 1
2313 2108 2114 1
2314 2116 2115 1
2315 2117 2116 1
2316 2118 2117 am
2317 2113 2115 1
2318 2112 2118 am
2319 2120 2119 am
2320 2121 2120 am
2321 2122 2121 am
2322 2118 2119 am
2323 2117 2122 am
2324 2124 2123 1
2325 2125 2124 1
2326 2126 2125 1
2327 2122 2123 1
2328 2121 2126 1
2329 2128 2127 1
2330 2129 2128 am
2331 2120 2129 am
2332 2126 2127 1
2333 2131 2130 am
2334 2132 2131 am
2335 2133 2132 am
2336 2129 2130 am
2337 2128 2133 am
2338 2086 2134 1
2339 2134 2135 1
2340 2081 2136 1
2341 2085 2137 1
2342 2082 2138 1
2343 2091 2139 1
2344 2092 2140 1
2345 2098 2141 1
2346 2105 2142 1
2347 2104 2143 1
2348 2110 2144 1
2349 2107 2145 1
2350 2114 2146 2
2351 2111 2147 2
2352 2133 2148 1
2353 2132 2149 1
2354 2087 2150 1
2355 2087 2151 1
2356 2090 2152 1
2357 2090 2153 1
2358 2095 2154 1
2359 2103 2155 1
2360 2103 2156 1
2361 2104 2157 1
2362 2105 2158 1
2363 2106 2159 1
2364 2106 2160 1
2365 2115 2161 1
2366 2115 2162 1
2367 2116 2163 1
2368 2116 2164 1
2369 2123 2165 1
2370 2123 2166 1
2371 2124 2167 1
2372 2124 2168 1
2373 2125 2169 1
2374 2125 2170 1
2375 2126 2171 1
2376 2127 2172 1
2377 2127 2173 1
2378 2130 2174 1
2379 2131 2175 1
2380 2134 2176 1
2381 2134 2177 1
2382 2135 2178 1
2383 2135 2179 1
2384 2135 2180 1
2385 2136 2181 1
2386 2136 2182 1
2387 2136 2183 1
2388 2137 2184 1
2389 2137 2185 1
2390 2137 2186 1
2391 2138 2187 1
2392 2138 2188 1
2393 2138 2189 1
2394 2139 2190 1
2395 2139 2191 1
2396 2139 2192 1
2397 2140 2193 1
2398 2140 2194 1
2399 2140 2195 1
2400 2141 2196 1
2401 2142 2197 1
2402 2142 2198 1
2403 2142 2199 1
2404 2143 2200 1
2405 2143 2201 1
2406 2143 2202 1
2407 2144 2203 1
2408 2145 2204 1
2409 2148 2205 1
2410 2148 2206 1
2411 2148 2207 1
2412 2149 2208 1
2413 2149 2209 1
2414 2149 2210 1
2415 2213 2212 am
2416 2214 2213 am
2417 2215 2214 am
2418 2216 2215 am
2419 2211 2212 am
2420 2211 2216 am
2421 2218 2217 1
2422 2219 2218 am
2423 2220 2219 1
2424 2214 2217 1
2425 2213 2220 1
2426 2222 2221 am
2427 2223 2222 am
2428 2224 2223 am
2429 2219 2221 am
2430 2218 2224 am
2431 2226 2225 am
2432 2227 2226 am
2433 2228 2227 am
2434 2224 2225 am
2435 2223 2228 am
2436 2230 2229 1
2437 2231 2230 1
2438 2232 2231 am
2439 2227 2229 1
2440 2226 2232 am
2441 2234 2233 1
2442 2235 2234 am
2443 2236 2235 1
2444 2230 2233 1
2445 2229 2236 1
2446 2238 2237 am
2447 2239 2238 am
2448 2240 2239 am
2449 2232 2237 am
2450 2231 2240 am
2451 2242 2241 1
2452 2243 2242 am
2453 2244 2243 1
2454 2239 2241 1
2455 2238 2244 1
2456 2246 2245 1
2457 2247 2246 1
2458 2248 2247 am
2459 2243 2245 1
2460 2242 2248 am
2461 2250 2249 am
2462 2251 2250 am
2463 2252 2251 am
2464 2248 2249 am
2465 2247 2252 am
2466 2254 2253 1
2467 2255 2254 1
2468 2256 2255 1
2469 2252 2253 1
2470 2251 2256 1
2471 2258 2257 1
2472 2259 2258 am
2473 2250 2259 am
2474 2256 2257 1
2475 2261 2260 am
2476 2262 2261 am
2477 2263 2262 am
2478 2259 2260 am
2479 2258 2263 am
2480 2216 2264 1
2481 2264 2265 1
2482 2211 2266 1
2483 2215 2267 1
2484 2212 2268 1
2485 2221 2269 1
2486 2222 2270 1
2487 2228 2271 1
2488 2235 2272 1
2489 2234 2273 1
2490 2240 2274 1
2491 2237 2275 1
2492 2244 2276 2
2493 2241 2277 2
2494 2263 2278 1
2495 2262 2279 1
2496 2217 2280 1
2497 2217 2281 1
2498 2220 2282 1
2499 2220 2283 1
2500 2225 2284 1
2501 2233 2285 1
2502 2233 2286 1
2503 2234 2287 1
2504 2235 2288 1
2505 2236 2289 1
2506 2236 2290 1
2507 2245 2291 1
2508 2245 2292 1
2509 2246 2293 1
2510 2246 2294 1
2511 2253 2295 1
2512 2253 2296 1
2513 2254 2297 1
2514 2254 2298 1
2515 2255 2299 1
2516 2255 2300 1
2517 2256 2301 1
2518 2257 2302 1
2519 2257 2303 1
2520 2260 2304 1
2521 2261 2305 1
2522 2264 2306 1
2523 2264 2307 1
2524 2265 2308 1
2525 2265 2309 1
2526 2265 2310 1
2527 2266 2311 1
2528 2266 2312 1
2529 2266 2313 1
2530 2267 2314 1
2531 2267 2315 1
2532 2267 2316 1
2533 2268 2317 1
2534 2268 2318 1
2535 2268 2319 1
2536 2269 2320 1
2537 2269 2321 1
2538 2269 2322 1
2539 2270 2323 1
2540 2270 2324 1
2541 2270 2325 1
2542 2271 2326 1
2543 2272 2327 1
2544 2272 2328 1
2545 2272 2329 1
2546 2273 2330 1
2547 2273 2331 1
2548 2273 2332 1
2549 2274 2333 1
2550 2275 2334 1
2551 2278 2335 1
2552 2278 2336 1
2553 2278 2337 1
2554 2279 2338 1
2555 2279 2339 1
2556 2279 2340 1
2557 2343 2342 am
2558 2344 2343 am
2559 2345 2344 am
2560 2346 2345 am
2561 2341 2342 am
2562 2341 2346 am
2563 2348 2347 1
2564 2349 2348 am
2565 2350 2349 1
2566 2344 2347 1
2567 2343 2350 1
2568 2352 2351 am
2569 2353 2352 am
2570 2354 2353 am
2571 2349 2351 am
2572 2348 2354 am
2573 2356 2355 am
2574 2357 2356 am
2575 2358 2357 am
2576 2354 2355 am
2577 2353 2358 am
2578 2360 2359 1
2579 2361 2360 1
2580 2362 2361 am
2581 2357 2359 1
2582 2356 2362 am
2583 2364 2363 1
2584 2365 2364 am
2585 2366 2365 1
2586 2360 2363 1
2587 2359 2366 1
2588 2368 2367 am
2589 2369 2368 am
2590 2370 2369 am
2591 2362 2367 am
2592 2361 2370 am
2593 2372 2371 1
2594 2373 2372 am
2595 2374 2373 1
2596 2369 2371 1
2597 2368 2374 1
2598 2376 2375 1
2599 2377 2376 1
2600 2378 2377 am
2601 2373 2375 1
2602 2372 2378 am
2603 2380 2379 am
2604 2381 2380 am
2605 2382 2381 am
2606 2378 2379 am
2607 2377 2382 am
2608 2384 2383 1
2609 2385 2384 1
2610 2386 2385 1
2611 2382 2383 1
2612 2381 2386 1
2613 2388 2387 1
2614 2389 2388 am
2615 2380 2389 am
2616 2386 2387 1
2617 2391 2390 am
2618 2392 2391 am
2619 2393 2392 am
2620 2389 2390 am
2621 2388 2393 am
2622 2346 2394 1
2623 2394 2395 1
2624 2341 2396 1
2625 2345 2397 1
2626 2342 2398 1
2627 2351 2399 1
2628 2352 2400 1
2629 2358 2401 1
2630 2365 2402 1
2631 2364 2403 1
2632 2370 2404 1
2633 2367 2405 1
2634 2374 2406 2
2635 2371 2407 2
2636 2393 2408 1
2637 2392 2409 1
2638 2347 2410 1
2639 2347 2411 1
2640 2350 2412 1
2641 2350 2413 1
2642 2355 2414 1
2643 2363 2415 1
2644 2363 2416 1
2645 2364 2417 1
2646 2365 2418 1
2647 2366 2419 1
2648 2366 2420 1
2649 2375 2421 1
2650 2375 2422 1
2651 2376 2423 1
2652 2376 2424 1
2653 2383 2425 1
2654 2383 2426 1
2655 2384 2427 1
2656 2384 2428 1
2657 2385 2429 1
2658 2385 2430 1
2659 2386 2431 1
2660 2387 2432 1
2661 2387 2433 1
2662 2390 2434 1
2663 2391 2435 1
2664 2394 2436 1
2665 2394 2437 1
2666 2395 2438 1
2667 2395 2439 1
2668 2395 2440 1
2669 2396 2441 1
2670 2396 2442 1
2671 2396 2443 1
2672 2397 2444 1
2673 2397 2445 1
2674 2397 2446 1
2675 2398 2447 1
2676 2398 2448 1
2677 2398 2449 1
2678 2399 2450 1
2679 2399 2451 1
2680 2399 2452 1
2681 2400 2453 1
2682 2400 2454 1
2683 2400 2455 1
2684 2401 2456 1
2685 2402 2457 1
2686 2402 2458 1
2687 2402 2459 1
2688 2403 2460 1
2689 2403 2461 1
2690 2403 2462 1
2691 2404 2463 1
2692 2405 2464 1
2693 2408 2465 1
2694 2408 2466 1
2695 2408 2467 1
2696 2409 2468 1
2697 2409 2469 1
2698 2409 2470 1
2699 2473 2472 am
2700 2474 2473 am
2701 2475 2474 am
2702 2476 2475 am
2703 2471 2472 am
2704 2471 2476 am
2705 2478 2477 1
2706 2479 2478 am
2707 2480 2479 1
2708 2474 2477 1
2709 2473 2480 1
2710 2482 2481 am
2711 2483 2482 am
2712 2484 2483 am
2713 2479 2481 am
2714 2478 2484 am
2715 2486 2485 am
2716 2487 2486 am
2717 2488 2487 am
2718 2484 2485 am
2719 2483 2488 am
2720 2490 2489 1
2721 2491 2490 1
2722 2492 2491 am
2723 2487 2489 1
2724 2486 2492 am
2725 2494 2493 1
2726 2495 2494 am
2727 2496 2495 1
2728 2490 2493 1
2729 2489 2496 1
2730 2498 2497 am
2731 2499 2498 am
2732 2500 2499 am
2733 2492 2497 am
2734 2491 2500 am
2735 2502 2501 1
2736 2503 2502 am
2737 2504 2503 1
2738 2499 2501 1
2739 2498 2504 1
2740 2506 2505 1
2741 2507 2506 1
2742 2508 2507 am
2743 2503 2505 1
2744 2502 2508 am
2745 2510 2509 am
2746 2511 2510 am
2747 2512 2511 am
2748 2508 2509 am
2749 2507 2512 am
2750 2514 2513 1
2751 2515 2514 1
2752 2516 2515 1
2753 2512 2513 1
2754 2511 2516 1
2755 2518 2517 1
2756 2519 2518 am
2757 2510 2519 am
2758 2516 2517 1
2759 2521 2520 am
2760 2522 2521 am
2761 2523 2522 am
2762 2519 2520 am
2763 2518 2523 am
2764 2476 2524 1
2765 2524 2525 1
2766 2471 2526 1
2767 2475 2527 1
2768 2472 2528 1
2769 2481 2529 1
2770 2482 2530 1
2771 2488 2531 1
2772 2495 2532 1
2773 2494 2533 1
2774 2500 2534 1
2775 2497 2535 1
2776 2504 2536 2
2777 2501 2537 2
2778 2523 2538 1
2779 2522 2539 1
2780 2477 2540 1
2781 2477 2541 1
2782 2480 2542 1
2783 2480 2543 1
2784 2485 2544 1
2785 2493 2545 1
2786 2493 2546 1
2787 2494 2547 1
2788 2495 2548 1
2789 2496 2549 1
2790 2496 2550 1
2791 2505 2551 1
2792 2505 2552 1
2793 2506 2553 1
2794 2506 2554 1
2795 2513 2555 1
2796 2513 2556 1
2797 2514 2557 1
2798 2514 2558 1
2799 2515 2559 1
2800 2515 2560 1
2801 2516 2561 1
2802 2517 2562 1
2803 2517 2563 1
2804 2520 2564 1
2805 2521 2565 1
2806 2524 2566 1
2807 2524 2567 1
2808 2525 2568 1
2809 2525 2569 1
2810 2525 2570 1
2811 2526 2571 1
2812 2526 2572 1
2813 2526 2573 1
2814 2527 2574 1
2815 2527 2575 1
2816 2527 2576 1
2817 2528 2577 1
2818 2528 2578 1
2819 2528 2579 1
2820 2529 2580 1
2821 2529 2581 1
2822 2529 2582 1
2823 2530 2583 1
2824 2530 2584 1
2825 2530 2585 1
2826 2531 2586 1
2827 2532 2587 1
2828 2532 2588 1
2829 2532 2589 1
2830 2533 2590 1
2831 2533 2591 1
2832 2533 2592 1
2833 2534 2593 1
2834 2535 2594 1
2835 2538 2595 1
2836 2538 2596 1
2837 2538 2597 1
2838 2539 2598 1
2839 2539 2599 1
2840 2539 2600 1
2841 2603 2602 am
2842 2604 2603 am
2843 2605 2604 am
2844 2606 2605 am
2845 2601 2602 am
2846 2601 2606 am
2847 2608 2607 1
2848 2609 2608 am
2849 2610 2609 1
2850 2604 2607 1
2851 2603 2610 1
2852 2612 2611 am
2853 2613 2612 am
2854 2614 2613 am
2855 2609 2611 am
2856 2608 2614 am
2857 2616 2615 am
2858 2617 2616 am
2859 2618 2617 am
2860 2614 2615 am
2861 2613 2618 am
2862 2620 2619 1
2863 2621 2620 1
2864 2622 2621 am
2865 2617 2619 1
2866 2616 2622 am
2867 2624 2623 1
2868 2625 2624 am
2869 2626 2625 1
2870 2620 2623 1
2871 2619 2626 1
2872 2628 2627 am
2873 2629 2628 am
2874 2630 2629 am
2875 2622 2627 am
2876 2621 2630 am
2877 2632 2631 1
2878 2633 2632 am
2879 2634 2633 1
2880 2629 2631 1
2881 2628 2634 1
2882 2636 2635 1
2883 2637 2636 1
2884 2638 2637 am
2885 2633 2635 1
2886 2632 2638 am
2887 2640 2639 am
2888 2641 2640 am
2889 2642 2641 am
2890 2638 2639 am
2891 2637 2642 am
2892 2644 2643 1
2893 2645 2644 1
2894 2646 2645 1
2895 2642 2643 1
2896 2641 2646 1
2897 2648 2647 1
2898 2649 2648 am
2899 2640 2649 am
2900 2646 2647 1
2901 2651 2650 am
2902 2652 2651 am
2903 2653 2652 am
2904 2649 2650 am
2905 2648 2653 am
2906 2606 2654 1
2907 2654 2655 1
2908 2601 2656 1
2909 2605 2657 1
2910 2602 2658 1
2911 2611 2659 1
2912 2612 2660 1
2913 2618 2661 1
2914 2625 2662 1
2915 2624 2663 1
2916 2630 2664 1
2917 2627 2665 1
2918 2634 2666 2
2919 2631 2667 2
2920 2653 2668 1
2921 2652 2669 1
2922 2607 2670 1
2923 2607 2671 1
2924 2610 2672 1
2925 2610 2673 1
2926 2615 2674 1
2927 2623 2675 1
2928 2623 2676 1
2929 2624 2677 1
2930 2625 2678 1
2931 2626 2679 1
2932 2626 2680 1
2933 2635 2681 1
2934 2635 2682 1
2935 2636 2683 1
2936 2636 2684 1
2937 2643 2685 1
2938 2643 2686 1
2939 2644 2687 1
2940 2644 2688 1
2941 2645 2689 1
2942 2645 2690 1
2943 2646 2691 1
2944 2647 2692 1
2945 2647 2693 1
2946 2650 2694 1
2947 2651 2695 1
2948 2654 2696 1
2949 2654 2697 1
2950 2655 2698 1
2951 2655 2699 1
2952 2655 2700 1
2953 2656 2701 1
2954 2656 2702 1
2955 2656 2703 1
2956 2657 2704 1
2957 2657 2705 1
2958 2657 2706 1
2959 2658 2707 1
2960 2658 2708 1
2961 2658 2709 1
2962 2659 2710 1
2963 2659 2711 1
2964 2659 2712 1
2965 2660 2713 1
2966 2660 2714 1
2967 2660 2715 1
2968 2661 2716 1
2969 2662 2717 1
2970 2662 2718 1
2971 2662 2719 1
2972 2663 2720 1
2973 2663 2721 1
2974 2663 2722 1
2975 2664 2723 1
2976 2665 2724 1
2977 2668 2725 1
2978 2668 2726 1
2979 2668 2727 1
2980 2669 2728 1
2981 2669 2729 1
2982 2669 2730 1
2983 2733 2732 am
2984 2734 2733 am
2985 2735 2734 am
2986 2736 2735 am
2987 2731 2732 am
2988 2731 2736 am
2989 2738 2737 1
2990 2739 2738 am
2991 2740 2739 1
2992 2734 2737 1
2993 2733 2740 1
2994 2742 2741 am
2995 2743 2742 am
2996 2744 2743 am
2997 2739 2741 am
2998 2738 2744 am
2999 2746 2745 am
3000 2747 2746 am
3001 2748 2747 am
3002 2744 2745 am
3003 2743 2748 am
3004 2750 2749 1
3005 2751 2750 1
3006 2752 2751 am
3007 2747 2749 1
3008 2746 2752 am
3009 2754 2753 1
3010 2755 2754 am
3011 2756 2755 1
3012 2750 2753 1
3013 2749 2756 1
3014 2758 2757 am
3015 2759 2758 am
3016 2760 2759 am
3017 2752 2757 am
3018 2751 2760 am
3019 2762 2761 1
3020 2763 2762 am
3021 2764 2763 1
3022 2759 2761 1
3023 2758 2764 1
3024 2766 2765 1
3025 2767 2766 1
3026 2768 2767 am
3027 2763 2765 1
3028 2762 2768 am
3029 2770 2769 am
3030 2771 2770 am
3031 2772 2771 am
3032 2768 2769 am
3033 2767 2772 am
3034 2774 2773 1
3035 2775 2774 1
3036 2776 2775 1
3037 2772 2773 1
3038 2771 2776 1
3039 2778 2777 1
3040 2779 2778 am
3041 2770 2779 am
3042 2776 2777 1
3043 2781 2780 am
3044 2782 2781 am
3045 2783 2782 am
3046 2779 2780 am
3047 2778 2783 am
3048 2736 2784 1
3049 2784 2785 1
3050 2731 2786 1
3051 2735 2787 1
3052 2732 2788 1
3053 2741 2789 1
3054 2742 2790 1
3055 2748 2791 1
3056 2755 2792 1
3057 2754 2793 1
3058 2760 2794 1
3059 2757 2795 1
3060 2764 2796 2
3061 2761 2797 2
3062 2783 2798 1
3063 2782 2799 1
3064 2737 2800 1
3065 2737 2801 1
3066 2740 2802 1
3067 2740 2803 1
3068 2745 2804 1
3069 2753 2805 1
3070 2753 2806 1
3071 2754 2807 1
3072 2755 2808 1
3073 2756 2809 1
3074 2756 2810 1
3075 2765 2811 1
3076 2765 2812 1
3077 2766 2813 1
3078 2766 2814 1
3079 2773 2815 1
3080 2773 2816 1
3081 2774 2817 1
3082 2774 2818 1
3083 2775 2819 1
3084 2775 2820 1
3085 2776 2821 1
3086 2777 2822 1
3087 2777 2823 1
3088 2780 2824 1
3089 2781 2825 1
3090 2784 2826 1
3091 2784 2827 1
3092 2785 2828 1
3093 2785 2829 1
3094 2785 2830 1
3095 2786 2831 1
3096 2786 2832 1
3097 2786 2833 1
3098 2787 2834 1
3099 2787 2835 1
3100 2787 2836 1
3101 2788 2837 1
3102 2788 2838 1
3103 2788 2839 1
3104 2789 2840 1
3105 2789 2841 1
3106 2789 2842 1
3107 2790 2843 1
3108 2790 2844 1
3109 2790 2845 1
3110 2791 2846 1
3111 2792 2847 1
3112 2792 2848 1
3113 2792 2849 1
3114 2793 2850 1
3115 2793 2851 1
3116 2793 2852 1
3117 2794 2853 1
3118 2795 2854 1
3119 2798 2855 1
3120 2798 2856 1
3121 2798 2857 1
3122 2799 2858 1
3123 2799 2859 1
3124 2799 2860 1
3125 2863 2862 am
3126 2864 2863 am
3127 2865 2864 am
3128 2866 2865 am
3129 2861 2862 am
3130 2861 2866 am
3131 2868 2867 1
3132 2869 2868 am
3133 2870 2869 1
3134 2864 2867 1
3135 2863 2870 1
3136 2872 2871 am
3137 2873 2872 am
3138 2874 2873 am
3139 2869 2871 am
3140 2868 2874 am
3141 2876 2875 am
3142 2877 2876 am
3143 2878 2877 am
3144 2874 2875 am
3145 2873 2878 am
3146 2880 2879 1
3147 2881 2880 1
3148 2882 2881 am
3149 2877 2879 1
3150 2876 2882 am
3151 2884 2883 1
3152 2885 2884 am
3153 2886 2885 1
3154 2880 2883 1
3155 2879 2886 1
3156 2888 2887 am
3157 2889 2888 am
3158 2890 2889 am
3159 2882 2887 am
3160 2881 2890 am
3161 2892 2891 1
3162 2893 2892 am
3163 2894 2893 1
3164 2889 2891 1
3165 2888 2894 1
3166 2896 2895 1
3167 2897 2896 1
3168 2898 2897 am
3169 2893 2895 1
3170 2892 2898 am
3171 2900 2899 am
3172 2901 2900 am
3173 2902 2901 am
3174 2898 2899 am
3175 2897 2902 am
3176 2904 2903 1
3177 2905 2904 1
3178 2906 2905 1
3179 2902 2903 1
3180 2901 2906 1
3181 2908 2907 1
3182 2909 2908 am
3183 2900 2909 am
3184 2906 2907 1
3185 2911 2910 am
3186 2912 2911 am
3187 2913 2912 am
3188 2909 2910 am
3189 2908 2913 am
3190 2866 2914 1
3191 2914 2915 1
3192 2861 2916 1
3193 2865 2917 1
3194 2862 2918 1
3195 2871 2919 1
3196 2872 2920 1
3197 2878 2921 1
3198 2885 2922 1
3199 2884 2923 1
3200 2890 2924 1
3201 2887 2925 1
3202 2894 2926 2
3203 2891 2927 2
3204 2913 2928 1
3205 2912 2929 1
3206 2867 2930 1
3207 2867 2931 1
3208 2870 2932 1
3209 2870 2933 1
3210 2875 2934 1
3211 2883 2935 1
3212 2883 2936 1
3213 2884 2937 1
3214 2885 2938 1
3215 2886 2939 1
3216 2886 2940 1
3217 2895 2941 1
3218 2895 2942 1
3219 2896 2943 1
3220 2896 2944 1
3221 2903 2945 1
3222 2903 2946 1
3223 2904 2947 1
3224 2904 2948 1
3225 2905 2949 1
3226 2905 2950 1
3227 2906 2951 1
3228 2907 2952 1
3229 2907 2953 1
3230 2910 2954 1
3231 2911 2955 1
3232 2914 2956 1
3233 2914 2957 1
3234 2915 2958 1
3235 2915 2959 1
3236 2915 2960 1
3237 2916 2961 1
3238 2916 2962 1
3239 2916 2963 1
3240 2917 2964 1
3241 2917 2965 1
3242 2917 2966 1
3243 2918 2967 1
3244 2918 2968 1
3245 2918 2969 1
3246 2919 2970 1
3247 2919 2971 1
3248 2919 2972 1
3249 2920 2973 1
3250 2920 2974 1
3251 2920 2975 1
3252 2921 2976 1
3253 2922 2977 1
3254 2922 2978 1
3255 2922 2979 1
3256 2923 2980 1
3257 2923 2981 1
3258 2923 2982 1
3259 2924 2983 1
3260 2925 2984 1
3261 2928 2985 1
3262 2928 2986 1
3263 2928 2987 1
3264 2929 2988 1
3265 2929 2989 1
3266 2929 2990 1
3267 2993 2992 am
3268 2994 2993 am
3269 2995 2994 am
3270 2996 2995 am
3271 2991 2992 am
3272 2991 2996 am
3273 2998 2997 1
3274 2999 2998 am
3275 3000 2999 1
3276 2994 2997 1
3277 2993 3000 1
3278 3002 3001 am
3279 3003 3002 am
3280 3004 3003 am
3281 2999 3001 am
3282 2998 3004 am
3283 3006 3005 am
3284 3007 3006 am
3285 3008 3007 am
3286 3004 3005 am
3287 3003 3008 am
3288 3010 3009 1
3289 3011 3010 1
3290 3012 3011 am
3291 3007 3009 1
3292 3006 3012 am
3293 3014 3013 1
3294 3015 3014 am
3295 3016 3015 1
3296 3010 3013 1
3297 3009 3016 1
3298 3018 3017 am
3299 3019 3018 am
3300 3020 3019 am
3301 3012 3017 am
3302 3011 3020 am
3303 3022 3021 1
3304 3023 3022 am
3305 3024 3023 1
3306 3019 3021 1
3307 3018 3024 1
3308 3026 3025 1
3309 3027 3026 1
3310 3028 3027 am
3311 3023 3025 1
3312 3022 3028 am
3313 3030 3029 am
3314 3031 3030 am
3315 3032 3031 am
3316 3028 3029 am
3317 3027 3032 am
3318 3034 3033 1
3319 3035 3034 1
3320 3036 3035 1
3321 3032 3033 1
3322 3031 3036 1
3323 3038 3037 1
3324 3039 3038 am
3325 3030 3039 am
3326 3036 3037 1
3327 3041 3040 am
3328 3042 3041 am
3329 3043 3042 am
3330 3039 3040 am
3331 3038 3043 am
3332 2996 3044 1
3333 3044 3045 1
3334 2991 3046 1
3335 2995 3047 1
3336 2992 3048 1
3337 3001 3049 1
3338 3002 3050 1
3339 3008 3051 1
3340 3015 3052 1
3341 3014 3053 1
3342 3020 3054 1
3343 3017 3055 1
3344 3024 3056 2
3345 3021 3057 2
3346 3043 3058 1
3347 3042 3059 1
3348 2997 3060 1
3349 2997 3061 1
3350 3000 3062 1
3351 3000 3063 1
3352 3005 3064 1
3353 3013 3065 1
3354 3013 3066 1
3355 3014 3067 1
3356 3015 3068 1
3357 3016 3069 1
3358 3016 3070 1
3359 3025 3071 1
3360 3025 3072 1
3361 3026 3073 1
3362 3026 3074 1
3363 3033 3075 1
3364 3033 3076 1
3365 3034 3077 1
3366 3034 3078 1
3367 3035 3079 1
3368 3035 3080 1
3369 3036 3081 1
3370 3037 3082 1
3371 3037 3083 1
3372 3040 3084 1
3373 3041 3085 1
3374 3044 3086 1
3375 3044 3087 1
3376 3045 3088 1
3377 3045 3089 1
3378 3045 3090 1
3379 3046 3091 1
3380 3046 3092 1
3381 3046 3093 1
3382 3047 3094 1
3383 3047 3095 1
3384 3047 3096 1
3385 3048 3097 1
3386 3048 3098 1
3387 3048 3099 1
3388 3049 3100 1
3389 3049 3101 1
3390 3049 3102 1
3391 3050 3103 1
3392 3050 3104 1
3393 3050 3105 1
3394 3051 3106 1
3395 3052 3107 1
3396 3052 3108 1
3397 3052 3109 1
3398 3053 3110 1
3399 3053 3111 1
3400 3053 3112 1
3401 3054 3113 1
3402 3055 3114 1
3403 3058 3115 1
3404 3058 3116 1
3405 3058 3117 1
3406 3059 3118 1
3407 3059 3119 1
3408 3059 3120 1
3409 3123 3122 am
3410 3124 3123 am
3411 3125 3124 am
3412 3126 3125 am
3413 3121 3122 am
3414 3121 3126 am
3415 3128 3127 1
3416 3129 3128 am
3417 3130 3129 1
3418 3124 3127 1
3419 3123 3130 1
3420 3132 3131 am
3421 3133 3132 am
3422 3134 3133 am
3423 3129 3131 am
3424 3128 3134 am
3425 3136 3135 am
3426 3137 3136 am
3427 3138 3137 am
3428 3134 3135 am
3429 3133 3138 am
3430 3140 3139 1
3431 3141 3140 1
3432 3142 3141 am
3433 3137 3139 1
3434 3136 3142 am
3435 3144 3143 1
3436 3145 3144 am
3437 3146 3145 1
3438 3140 3143 1
3439 3139 3146 1
3440 3148 3147 am
3441 3149 3148 am
3442 3150 3149 am
3443 3142 3147 am
3444 3141 3150 am
3445 3152 3151 1
3446 3153 3152 am
3447 3154 3153 1
3448 3149 3151 1
3449 3148 3154 1
3450 3156 3155 1
3451 3157 3156 1
3452 3158 3157 am
3453 3153 3155 1
3454 3152 3158 am
3455 3160 3159 am
3456 3161 3160 am
3457 3162 3161 am
3458 3158 3159 am
3459 3157 3162 am
3460 3164 3163 1
3461 3165 3164 1
3462 3166 3165 1
3463 3162 3163 1
3464 3161 3166 1
3465 3168 3167 1
3466 3169 3168 am
3467 3160 3169 am
3468 3166 3167 1
3469 3171 3170 am
3470 3172 3171 am
3471 3173 3172 am
3472 3169 3170 am
3473 3168 3173 am
3474 3126 3174 1
3475 3174 3175 1
3476 3121 3176 1
3477 3125 3177 1
3478 3122 3178 1
3479 3131 3179 1
3480 3132 3180 1
3481 3138 3181 1
3482 3145 3182 1
3483 3144 3183 1
3484 3150 3184 1
3485 3147 3185 1
3486 3154 3186 2
3487 3151 3187 2
3488 3173 3188 1
3489 3172 3189 1
3490 3127 3190 1
3491 3127 3191 1
3492 3130 3192 1
3493 3130 3193 1
3494 3135 3194 1
3495 3143 3195 1
3496 3143 3196 1
3497 3144 3197 1
3498 3145 3198 1
3499 3146 3199 1
3500 3146 3200 1
3501 3155 3201 1
3502 3155 3202 1
3503 3156 3203 1
3504 3156 3204 1
3505 3163 3205 1
3506 3163 3206 1
3507 3164 3207 1
3508 3164 3208 1
3509 3165 3209 1
3510 3165 3210 1
3511 3166 3211 1
3512 3167 3212 1
3513 3167 3213 1
3514 3170 3214 1
3515 3171 3215 1
3516 3174 3216 1
3517 3174 3217 1
3518 3175 3218 1
3519 3175 3219 1
3520 3175 3220 1
3521 3176 3221 1
3522 3176 3222 1
3523 3176 3223 1
3524 3177 3224 1
3525 3177 3225 1
3526 3177 3226 1
3527 3178 3227 1
3528 3178 3228 1
3529 3178 3229 1
3530 3179 3230 1
3531 3179 3231 1
3532 3179 3232 1
3533 3180 3233 1
3534 3180 3234 1
3535 3180 3235 1
3536 3181 3236 1
3537 3182 3237 1
3538 3182 3238 1
3539 3182 3239 1
3540 3183 3240 1
3541 3183 3241 1
3542 3183 3242 1
3543 3184 3243 1
3544 3185 3244 1
3545 3188 3245 1
3546 3188 3246 1
3547 3188 3247 1
3548 3189 3248 1
3549 3189 3249 1
3550 3189 3250 1
3551 3253 3252 am
3552 3254 3253 am
3553 3255 3254 am
3554 3256 3255 am
3555 3251 3252 am
3556 3251 3256 am
3557 3258 3257 1
3558 3259 3258 am
3559 3260 3259 1
3560 3254 3257 1
3561 3253 3260 1
3562 3262 3261 am
3563 3263 3262 am
3564 3264 3263 am
3565 3259 3261 am
3566 3258 3264 am
3567 3266 3265 am
3568 3267 3266 am
3569 3268 3267 am
3570 3264 3265 am
3571 3263 3268 am
3572 3270 3269 1
3573 3271 3270 1
3574 3272 3271 am
3575 3267 3269 1
3576 3266 3272 am
3577 3274 3273 1
3578 3275 3274 am
3579 3276 3275 1
3580 3270 3273 1
3581 3269 3276 1
3582 3278 3277 am
3583 3279 3278 am
3584 3280 3279 am
3585 3272 3277 am
3586 3271 3280 am
3587 3282 3281 1
3588 3283 3282 am
3589 3284 3283 1
3590 3279 3281 1
3591 3278 3284 1
3592 3286 3285 1
3593 3287 3286 1
3594 3288 3287 am
3595 3283 3285 1
3596 3282 3288 am
3597 3290 3289 am
3598 3291 3290 am
3599 3292 3291 am
3600 3288 3289 am
3601 3287 3292 am
3602 3294 3293 1
3603 3295 3294 1
3604 3296 3295 1
3605 3292 3293 1
3606 3291 3296 1
3607 3298 3297 1
3608 3299 3298 am
3609 3290 3299 am
3610 3296 3297 1
3611 3301 3300 am
3612 3302 3301 am
3613 3303 3302 am
3614 3299 3300 am
3615 3298 3303 am
3616 3256 3304 1
3617 3304 3305 1
3618 3251 3306 1
3619 3255 3307 1
3620 3252 3308 1
3621 3261 3309 1
3622 3262 3310 1
3623 3268 3311 1
3624 3275 3312 1
3625 3274 3313 1
3626 3280 3314 1
3627 3277 3315 1
3628 3284 3316 2
3629 3281 3317 2
3630 3303 3318 1
3631 3302 3319 1
3632 3257 3320 1
3633 3257 3321 1
3634 3260 3322 1
3635 3260 3323 1
3636 3265 3324 1
3637 3273 3325 1
3638 3273 3326 1
3639 3274 3327 1
3640 3275 3328 1
3641 3276 3329 1
3642 3276 3330 1
3643 3285 3331 1
3644 3285 3332 1
3645 3286 3333 1
3646 3286 3334 1
3647 3293 3335 1
3648 3293 3336 1
3649 3294 3337 1
3650 3294 3338 1
3651 3295 3339 1
3652 3295 3340 1
3653 3296 3341 1
3654 3297 3342 1
3655 3297 3343 1
3656 3300 3344 1
3657 3301 3345 1
3658 3304 3346 1
3659 3304 3347 1
3660 3305 3348 1
3661 3305 3349 1
3662 3305 3350 1
3663 3306 3351 1
3664 3306 3352 1
3665 3306 3353 1
3666 3307 3354 1
3667 3307 3355 1
3668 3307 3356 1
3669 3308 3357 1
3670 3308 3358 1
3671 3308 3359 1
3672 3309 3360 1
3673 3309 3361 1
3674 3309 3362 1
3675 3310 3363 1
3676 3310 3364 1
3677 3310 3365 1
3678 3311 3366 1
3679 3312 3367 1
3680 3312 3368 1
3681 3312 3369 1
3682 3313 3370 1
3683 3313 3371 1
3684 3313 3372 1
3685 3314 3373 1
3686 3315 3374 1
3687 3318 3375 1
3688 3318 3376 1
3689 3318 3377 1
3690 3319 3378 1
3691 3319 3379 1
3692 3319 3380 1
3693 3383 3382 am
3694 3384 3383 am
3695 3385 3384 am
3696 3386 3385 am
3697 3381 3382 am
3698 3381 3386 am
3699 3388 3387 1
3700 3389 3388 am
3701 3390 3389 1
3702 3384 3387 1
3703 3383 3390 1
3704 3392 3391 am
3705 3393 3392 am
3706 3394 3393 am
3707 3389 3391 am
3708 3388 3394 am
3709 3396 3395 am
3710 3397 3396 am
3711 3398 3397 am
3712 3394 3395 am
3713 3393 3398 am
3714 3400 3399 1
3715 3401 3400 1
3716 3402 3401 am
3717 3397 3399 1
3718 3396 3402 am
3719 3404 3403 1
3720 3405 3404 am
3721 3406 3405 1
3722 3400 3403 1
3723 3399 3406 1
3724 3408 3407 am
3725 3409 3408 am
3726 3410 3409 am
3727 3402 3407 am
3728 3401 3410 am
3729 3412 3411 1
3730 3413 3412 am
3731 3414 3413 1
3732 3409 3411 1
3733 3408 3414 1
3734 3416 3415 1
3735 3417 3416 1
3736 3418 3417 am
3737 3413 3415 1
3738 3412 3418 am
3739 3420 3419 am
3740 3421 3420 am
3741 3422 3421 am
3742 3418 3419 am
3743 3417 3422 am
3744 3424 3423 1
3745 3425 3424 1
3746 3426 3425 1
3747 3422 3423 1
3748 3421 3426 1
3749 3428 3427 1
3750 3429 3428 am
3751 3420 3429 am
3752 3426 3427 1
3753 3431 3430 am
3754 3432 3431 am
3755 3433 3432 am
3756 3429 3430 am
3757 3428 3433 am
3758 3386 3434 1
3759 3434 3435 1
3760 3381 3436 1
3761 3385 3437 1
3762 3382 3438 1
3763 3391 3439 1
3764 3392 3440 1
3765 3398 3441 1
3766 3405 3442 1
3767 3404 3443 1
3768 3410 3444 1
3769 3407 3445 1
3770 3414 3446 2
3771 3411 3447 2
3772 3433 3448 1
3773 3432 3449 1
3774 3387 3450 1
3775 3387 3451 1
3776 3390 3452 1
3777 3390 3453 1
3778 3395 3454 1
3779 3403 3455 1
3780 3403 3456 1
3781 3404 3457 1
3782 3405 3458 1
3783 3406 3459 1
3784 3406 3460 1
3785 3415 3461 1
3786 3415 3462 1
3787 3416 3463 1
3788 3416 3464 1
3789 3423 3465 1
3790 3423 3466 1
3791 3424 3467 1
3792 3424 3468 1
3793 3425 3469 1
3794 3425 3470 1
3795 3426 3471 1
3796 3427 3472 1
3797 3427 3473 1
3798 3430 3474 1
3799 3431 3475 1
3800 3434 3476 1
3801 3434 3477 1
3802 3435 3478 1
3803 3435 3479 1
3804 3435 3480 1
3805 3436 3481 1
3806 3436 3482 1
3807 3436 3483 1
3808 3437 3484 1
3809 3437 3485 1
3810 3437 3486 1
3811 3438 3487 1
3812 3438 3488 1
3813 3438 3489 1
3814 3439 3490 1
3815 3439 3491 1
3816 3439 3492 1
3817 3440 3493 1
3818 3440 3494 1
3819 3440 3495 1
3820 3441 3496 1
3821 3442 3497 1
3822 3442 3498 1
3823 3442 3499 1
3824 3443 3500 1
3825 3443 3501 1
3826 3443 3502 1
3827 3444 3503 1
3828 3445 3504 1
3829 3448 3505 1
3830 3448 3506 1
3831 3448 3507 1
3832 3449 3508 1
3833 3449 3509 1
3834 3449 3510 1
3835 3513 3512 am
3836 3514 3513 am
3837 3515 3514 am
3838 3516 3515 am
3839 3511 3512 am
3840 3511 3516 am
3841 3518 3517 1
3842 3519 3518 am
3843 3520 3519 1
3844 3514 3517 1
3845 3513 3520 1
3846 3522 3521 am
3847 3523 3522 am
3848 3524 3523 am
3849 3519 3521 am
3850 3518 3524 am
3851 3526 3525 am
3852 3527 3526 am
3853 3528 3527 am
3854 3524 3525 am
3855 3523 3528 am
3856 3530 3529 1
3857 3531 3530 1
3858 3532 3531 am
3859 3527 3529 1
3860 3526 3532 am
3861 3534 3533 1
3862 3535 3534 am
3863 3536 3535 1
3864 3530 3533 1
3865 3529 3536 1
3866 3538 3537 am
3867 3539 3538 am
3868 3540 3539 am
3869 3532 3537 am
3870 3531 3540 am
3871 3542 3541 1
3872 3543 3542 am
3873 3544 3543 1
3874 3539 3541 1
3875 3538 3544 1
3876 3546 3545 1
3877 3547 3546 1
3878 3548 3547 am
3879 3543 3545 1
3880 3542 3548 am
3881 3550 3549 am
3882 3551 3550 am
3883 3552 3551 am
3884 3548 3549 am
3885 3547 3552 am
3886 3554 3553 1
3887 3555 3554 1
3888 3556 3555 1
3889 3552 3553 1
3890 3551 3556 1
3891 3558 3557 1
3892 3559 3558 am
3893 3550 3559 am
3894 3556 3557 1
3895 3561 3560 am
3896 3562 3561 am
3897 3563 3562 am
3898 3559 3560 am
3899 3558 3563 am
3900 3516 3564 1
3901 3564 3565 1
3902 3511 3566 1
3903 3515 3567 1
3904 3512 3568 1
3905 3521 3569 1
3906 3522 3570 1
3907 3528 3571 1
3908 3535 3572 1
3909 3534 3573 1
3910 3540 3574 1
3911 3537 3575 1
3912 3544 3576 2
3913 3541 3577 2
3914 3563 3578 1
3915 3562 3579 1
3916 3517 3580 1
3917 3517 3581 1
3918 3520 3582 1
3919 3520 3583 1
3920 3525 3584 1
3921 3533 3585 1
3922 3533 3586 1
3923 3534 3587 1
3924 3535 3588 1
3925 3536 3589 1
3926 3536 3590 1
3927 3545 3591 1
3928 3545 3592 1
3929 3546 3593 1
3930 3546 3594 1
3931 3553 3595 1
3932 3553 3596 1
3933 3554 3597 1
3934 3554 3598 1
3935 3555 3599 1
3936 3555 3600 1
3937 3556 3601 1
3938 3557 3602 1
3939 3557 3603 1
3940 3560 3604 1
3941 3561 3605 1
3942 3564 3606 1
3943 3564 3607 1
3944 3565 3608 1
3945 3565 3609 1
3946 3565 3610 1
3947 3566 3611 1
3948 3566 3612 1
3949 3566 3613 1
3950 3567 3614 1
3951 3567 3615 1
3952 3567 3616 1
3953 3568 3617 1
3954 3568 3618 1
3955 3568 3619 1
3956 3569 3620 1
3957 3569 3621 1
3958 3569 3622 1
3959 3570 3623 1
3960 3570 3624 1
3961 3570 3625 1
3962 3571 3626 1
3963 3572 3627 1
3964 3572 3628 1
3965 3572 3629 1
3966 3573 3630 1
3967 3573 3631 1
3968 3573 3632 1
3969 3574 3633 1
3970 3575 3634 1
3971 3578 3635 1
3972 3578 3636 1
3973 3578 3637 1
3974 3579 3638 1
3975 3579 3639 1
3976 3579 3640 1
3977 3643 3642 am
3978 3644 3643 am
3979 3645 3644 am
3980 3646 3645 am
3981 3641 3642 am
3982 3641 3646 am
3983 3648 3647 1
3984 3649 3648 am
3985 3650 3649 1
3986 3644 3647 1
3987 3643 3650 1
3988 3652 3651 am
3989 3653 3652 am
3990 3654 3653 am
3991 3649 3651 am
3992 3648 3654 am
3993 3656 3655 am
3994 3657 3656 am
3995 3658 3657 am
3996 3654 3655 am
3997 3653 3658 am
3998 3660 3659 1
3999 3661 3660 1
4000 3662 3661 am
4001 3657 3659 1
4002 3656 3662 am
4003 3664 3663 1
4004 3665 3664 am
4005 3666 3665 1
4006 3660 3663 1
4007 3659 3666 1
4008 3668 3667 am
4009 3669 3668 am
4010 3670 3669 am
4011 3662 3667 am
4012 3661 3670 am
4013 3672 3671 1
4014 3673 3672 am
4015 3674 3673 1
4016 3669 3671 1
4017 3668 3674 1
4018 3676 3675 1
4019 3677 3676 1
4020 3678 3677 am
4021 3673 3675 1
4022 3672 3678 am
4023 3680 3679 am
4024 3681 3680 am
4025 3682 3681 am
4026 3678 3679 am
4027 3677 3682 am
4028 3684 3683 1
4029 3685 3684 1
4030 3686 3685 1
4031 3682 3683 1
4032 3681 3686 1
4033 3688 3687 1
4034 3689 3688 am
4035 3680 3689 am
4036 3686 3687 1
4037 3691 3690 am
4038 3692 3691 am
4039 3693 3692 am
4040 3689 3690 am
4041 3688 3693 am
4042 3646 3694 1
4043 3694 3695 1
4044 3641 3696 1
4045 3645 3697 1
4046 3642 3698 1
4047 3651 3699 1
4048 3652 3700 1
4049 3658 3701 1
4050 3665 3702 1
4051 3664 3703 1
4052 3670 3704 1
4053 3667 3705 1
4054 3674 3706 2
4055 3671 3707 2
4056 3693 3708 1
4057 3692 3709 1
4058 3647 3710 1
4059 3647 3711 1
4060 3650 3712 1
4061 3650 3713 1
4062 3655 3714 1
4063 3663 3715 1
4064 3663 3716 1
4065 3664 3717 1
4066 3665 3718 1
4067 3666 3719 1
4068 3666 3720 1
4069 3675 3721 1
4070 3675 3722 1
4071 3676 3723 1
4072 3676 3724 1
4073 3683 3725 1
4074 3683 3726 1
4075 3684 3727 1
4076 3684 3728 1
4077 3685 3729 1
4078 3685 3730 1
4079 3686 3731 1
4080 3687 3732 1
4081 3687 3733 1
4082 3690 3734 1
4083 3691 3735 1
4084 3694 3736 1
4085 3694 3737 1
4086 3695 3738 1
4087 3695 3739 1
4088 3695 3740 1
4089 3696 3741 1
4090 3696 3742 1
4091 3696 3743 1
4092 3697 3744 1
4093 3697 3745 1
4094 3697 3746 1
4095 3698 3747 1
4096 3698 3748 1
4097 3698 3749 1
4098 3699 3750 1
4099 3699 3751 1
4100 3699 3752 1
4101 3700 3753 1
4102 3700 3754 1
4103 3700 3755 1
4104 3701 3756 1
4105 3702 3757 1
4106 3702 3758 1
4107 3702 3759 1
4108 3703 3760 1
4109 3703 3761 1
4110 3703 3762 1
4111 3704 3763 1
4112 3705 3764 1
4113 3708 3765 1
4114 3708 3766 1
4115 3708 3767 1
4116 3709 3768 1
4117 3709 3769 1
4118 3709 3770 1
4119 3773 3772 am
4120 3774 3773 am
4121 3775 3774 am
4122 3776 3775 am
4123 3771 3772 am
4124 3771 3776 am
4125 3778 3777 1
4126 3779 3778 am
4127 3780 3779 1
4128 3774 3777 1
4129 3773 3780 1
4130 3782 3781 am
4131 3783 3782 am
4132 3784 3783 am
4133 3779 3781 am
4134 3778 3784 am
4135 3786 3785 am
4136 3787 3786 am
4137 3788 3787 am
4138 3784 3785 am
4139 3783 3788 am
4140 3790 3789 1
4141 3791 3790 1
4142 3792 3791 am
4143 3787 3789 1
4144 3786 3792 am
4145 3794 3793 1
4146 3795 3794 am
4147 3796 3795 1
4148 3790 3793 1
4149 3789 3796 1
4150 3798 3797 am
4151 3799 3798 am
4152 3800 3799 am
4153 3792 3797 am
4154 3791 3800 am
4155 3802 3801 1
4156 3803 3802 am
4157 3804 3803 1
4158 3799 3801 1
4159 3798 3804 1
4160 3806 3805 1
4161 3807 3806 1
4162 3808 3807 am
4163 3803 3805 1
4164 3802 3808 am
4165 3810 3809 am
4166 3811 3810 am
4167 3812 3811 am
4168 3808 3809 am
4169 3807 3812 am
4170 3814 3813 1
4171 3815 3814 1
4172 3816 3815 1
4173 3812 3813 1
4174 3811 3816 1
4175 3818 3817 1
4176 3819 3818 am
4177 3810 3819 am
4178 3816 3817 1
4179 3821 3820 am
4180 3822 3821 am
4181 3823 3822 am
4182 3819 3820 am
4183 3818 3823 am
4184 3776 3824 1
4185 3824 3825 1
4186 3771 3826 1
4187 3775 3827 1
4188 3772 3828 1
4189 3781 3829 1
4190 3782 3830 1
4191 3788 3831 1
4192 3795 3832 1
4193 3794 3833 1
4194 3800 3834 1
4195 3797 3835 1
4196 3804 3836 2
4197 3801 3837 2
4198 3823 3838 1
4199 3822 3839 1
4200 3777 3840 1
4201 3777 3841 1
4202 3780 3842 1
4203 3780 3843 1
4204 3785 3844 1
4205 3793 3845 1
4206 3793 3846 1
4207 3794 3847 1
4208 3795 3848 1
4209 3796 3849 1
4210 3796 3850 1
4211 3805 3851 1
4212 3805 3852 1
4213 3806 3853 1
4214 3806 3854 1
4215 3813 3855 1
4216 3813 3856 1
4217 3814 3857 1
4218 3814 3858 1
4219 3815 3859 1
4220 3815 3860 1
4221 3816 3861 1
4222 3817 3862 1
4223 3817 3863 1
4224 3820 3864 1
4225 3821 3865 1
4226 3824 3866 1
4227 3824 3867 1
4228 3825 3868 1
4229 3825 3869 1
4230 3825 3870 1
4231 3826 3871 1
4232 3826 3872 1
4233 3826 3873 1
4234 3827 3874 1
4235 3827 3875 1
4236 3827 3876 1
4237 3828 3877 1
4238 3828 3878 1
4239 3828 3879 1
4240 3829 3880 1
4241 3829 3881 1
4242 3829 3882 1
4243 3830 3883 1
4244 3830 3884 1
4245 3830 3885 1
4246 3831 3886 1
4247 3832 3887 1
4248 3832 3888 1
4249 3832 3889 1
4250 3833 3890 1
4251 3833 3891 1
4252 3833 3892 1
4253 3834 3893 1
4254 3835 3894 1
4255 3838 3895 1
4256 3838 3896 1
4257 3838 3897 1
4258 3839 3898 1
4259 3839 3899 1
4260 3839 3900 1
4261 3903 3902 am
4262 3904 3903 am
4263 3905 3904 am
4264 3906 3905 am
4265 3901 3902 am
4266 3901 3906 am
4267 3908 3907 1
4268 3909 3908 am
4269 3910 3909 1
4270 3904 3907 1
4271 3903 3910 1
4272 3912 3911 am
4273 3913 3912 am
4274 3914 3913 am
4275 3909 3911 am
4276 3908 3914 am
4277 3916 3915 am
4278 3917 3916 am
4279 3918 3917 am
4280 3914 3915 am
4281 3913 3918 am
4282 3920 3919 1
4283 3921 3920 1
4284 3922 3921 am
4285 3917 3919 1
4286 3916 3922 am
4287 3924 3923 1
4288 3925 3924 am
4289 3926 3925 1
4290 3920 3923 1
4291 3919 3926 1
4292 3928 3927 am
4293 3929 3928 am
4294 3930 3929 am
4295 3922 3927 am
4296 3921 3930 am
4297 3932 3931 1
4298 3933 3932 am
4299 3934 3933 1
4300 3929 3931 1
4301 3928 3934 1
4302 3936 3935 1
4303 3937 3936 1
4304 3938 3937 am
4305 3933 3935 1
4306 3932 3938 am
4307 3940 3939 am
4308 3941 3940 am
4309 3942 3941 am
4310 3938 3939 am
4311 3937 3942 am
4312 3944 3943 1
4313 3945 3944 1
4314 3946 3945 1
4315 3942 3943 1
4316 3941 3946 1
4317 3948 3947 1
4318 3949 3948 am
4319 3940 3949 am
4320 3946 3947 1
4321 3951 3950 am
4322 3952 3951 am
4323 3953 3952 am
4324 3949 3950 am
4325 3948 3953 am
4326 3906 3954 1
4327 3954 3955 1
4328 3901 3956 1
4329 3905 3957 1
4330 3902 3958 1
4331 3911 3959 1
4332 3912 3960 1
4333 3918 3961 1
4334 3925 3962 1
4335 3924 3963 1
4336 3930 3964 1
4337 3927 3965 1
4338 3934 3966 2
4339 3931 3967 2
4340 3953 3968 1
4341 3952 3969 1
4342 3907 3970 1
4343 3907 3971 1
4344 3910 3972 1
4345 3910 3973 1
4346 3915 3974 1
4347 3923 3975 1
4348 3923 3976 1
4349 3924 3977 1
4350 3925 3978 1
4351 3926 3979 1
4352 3926 3980 1
4353 3935 3981 1
4354 3935 3982 1
4355 3936 3983 1
4356 3936 3984 1
4357 3943 3985 1
4358 3943 3986 1
4359 3944 3987 1
4360 3944 3988 1
4361 3945 3989 1
4362 3945 3990 1
4363 3946 3991 1
4364 3947 3992 1
4365 3947 3993 1
4366 3950 3994 1
4367 3951 3995 1
4368 3954 3996 1
4369 3954 3997 1
4370 3955 3998 1
4371 3955 3999 1
4372 3955 4000 1
4373 3956 4001 1
4374 3956 4002 1
4375 3956 4003 1
4376 3957 4004 1
4377 3957 4005 1
4378 3957 4006 1
4379 3958 4007 1
4380 3958 4008 1
4381 3958 4009 1
4382 3959 4010 1
4383 3959 4011 1
4384 3959 4012 1
4385 3960 4013 1
4386 3960 4014 1
4387 3960 4015 1
4388 3961 4016 1
4389 3962 4017 1
4390 3962 4018 1
4391 3962 4019 1
4392 3963 4020 1
4393 3963 4021 1
4394 3963 4022 1
4395 3964 4023 1
4396 3965 4024 1
4397 3968 4025 1
4398 3968 4026 1
4399 3968 4027 1
4400 3969 4028 1
4401 3969 4029 1
4402 3969 4030 1
4403 4033 4032 am
4404 4034 4033 am
4405 4035 4034 am
4406 4036 4035 am
4407 4031 4032 am
4408 4031 4036 am
4409 4038 4037 1
4410 4039 4038 am
4411 4040 4039 1
4412 4034 4037 1
4413 4033 4040 1
4414 4042 4041 am
4415 4043 4042 am
4416 4044 4043 am
4417 4039 4041 am
4418 4038 4044 am
4419 4046 4045 am
4420 4047 4046 am
4421 4048 4047 am
4422 4044 4045 am
4423 4043 4048 am
4424 4050 4049 1
4425 4051 4050 1
4426 4052 4051 am
4427 4047 4049 1
4428 4046 4052 am
4429 4054 4053 1
4430 4055 4054 am
4431 4056 4055 1
4432 4050 4053 1
4433 4049 4056 1
4434 4058 4057 am
4435 4059 4058 am
4436 4060 4059 am
4437 4052 4057 am
4438 4051 4060 am
4439 4062 4061 1
4440 4063 4062 am
4441 4064 4063 1
4442 4059 4061 1
4443 4058 4064 1
4444 4066 4065 1
4445 4067 4066 1
4446 4068 4067 am
4447 4063 4065 1
4448 4062 4068 am
4449 4070 4069 am
4450 4071 4070 am
4451 4072 4071 am
4452 4068 4069 am
4453 4067 4072 am
4454 4074 4073 1
4455 4075 4074 1
4456 4076 4075 1
4457 4072 4073 1
4458 4071 4076 1
4459 4078 4077 1
4460 4079 4078 am
4461 4070 4079 am
4462 4076 4077 1
4463 4081 4080 am
4464 4082 4081 am
4465 4083 4082 am
4466 4079 4080 am
4467 4078 4083 am
4468 4036 4084 1
4469 4084 4085 1
4470 4031 4086 1
4471 4035 4087 1
4472 4032 4088 1
4473 4041 4089 1
4474 4042 4090 1
4475 4048 4091 1
4476 4055 4092 1
4477 4054 4093 1
4478 4060 4094 1
4479 4057 4095 1
4480 4064 4096 2
4481 4061 4097 2
4482 4083 4098 1
4483 4082 4099 1
4484 4037 4100 1
4485 4037 4101 1
4486 4040 4102 1
4487 4040 4103 1
4488 4045 4104 1
4489 4053 4105 1
4490 4053 4106 1
4491 4054 4107 1
4492 4055 4108 1
4493 4056 4109 1
4494 4056 4110 1
4495 4065 4111 1
4496 4065 4112 1
4497 4066 4113 1
4498 4066 4114 1
4499 4073 4115 1
4500 4073 4116 1
4501 4074 4117 1
4502 4074 4118 1
4503 4075 4119 1
4504 4075 4120 1
4505 4076 4121 1
4506 4077 4122 1
4507 4077 4123 1
4508 4080 4124 1
4509 4081 4125 1
4510 4084 4126 1
4511 4084 4127 1
4512 4085 4128 1
4513 4085 4129 1
4514 4085 4130 1
4515 4086 4131 1
4516 4086 4132 1
4517 4086 4133 1
4518 4087 4134 1
4519 4087 4135 1
4520 4087 4136 1
4521 4088 4137 1
4522 4088 4138 1
4523 4088 4139 1
4524 4089 4140 1
4525 4089 4141 1
4526 4089 4142 1
4527 4090 4143 1
4528 4090 4144 1
4529 4090 4145 1
4530 4091 4146 1
4531 4092 4147 1
4532 4092 4148 1
4533 4092 4149 1
4534 4093 4150 1
4535 4093 4151 1
4536 4093 4152 1
4537 4094 4153 1
4538 4095 4154 1
4539 4098 4155 1
4540 4098 4156 1
4541 4098 4157 1
4542 4099 4158 1
4543 4099 4159 1
4544 4099 4160 1
4545 4163 4162 am
4546 4164 4163 am
4547 4165 4164 am
4548 4166 4165 am
4549 4161 4162 am
4550 4161 4166 am
4551 4168 4167 1
4552 4169 4168 am
4553 4170 4169 1
4554 4164 4167 1
4555 4163 4170 1
4556 4172 4171 am
4557 4173 4172 am
4558 4174 4173 am
4559 4169 4171 am
4560 4168 4174 am
4561 4176 4175 am
4562 4177 4176 am
4563 4178 4177 am
4564 4174 4175 am
4565 4173 4178 am
4566 4180 4179 1
4567 4181 4180 1
4568 4182 4181 am
4569 4177 4179 1
4570 4176 4182 am
4571 4184 4183 1
4572 4185 4184 am
4573 4186 4185 1
4574 4180 4183 1
4575 4179 4186 1
4576 4188 4187 am
4577 4189 4188 am
4578 4190 4189 am
4579 4182 4187 am
4580 4181 4190 am
4581 4192 4191 1
4582 4193 4192 am
4583 4194 4193 1
4584 4189 4191 1
4585 4188 4194 1
4586 4196 4195 1
4587 4197 4196 1
4588 4198 4197 am
4589 4193 4195 1
4590 4192 4198 am
4591 4200 4199 am
4592 4201 4200 am
4593 4202 4201 am
4594 4198 4199 am
4595 4197 4202 am
4596 4204 4203 1
4597 4205 4204 1
4598 4206 4205 1
4599 4202 4203 1
4600 4201 4206 1
4601 4208 4207 1
4602 4209 4208 am
4603 4200 4209 am
4604 4206 4207 1
4605 4211 4210 am
4606 4212 4211 am
4607 4213 4212 am
4608 4209 4210 am
4609 4208 4213 am
4610 4166 4214 1
4611 4214 4215 1
4612 4161 4216 1
4613 4165 4217 1
4614 4162 4218 1
4615 4171 4219 1
4616 4172 4220 1
4617 4178 4221 1
4618 4185 4222 1
4619 4184 4223 1
4620 4190 4224 1
4621 4187 4225 1
4622 4194 4226 2
4623 4191 4227 2
4624 4213 4228 1
4625 4212 4229 1
4626 4167 4230 1
4627 4167 4231 1
4628 4170 4232 1
4629 4170 4233 1
4630 4175 4234 1
4631 4183 4235 1
4632 4183 4236 1
4633 4184 4237 1
4634 4185 4238 1
4635 4186 4239 1
4636 4186 4240 1
4637 4195 4241 1
4638 4195 4242 1
4639 4196 4243 1
4640 4196 4244 1
4641 4203 4245 1
4642 4203 4246 1
4643 4204 4247 1
4644 4204 4248 1
4645 4205 4249 1
4646 4205 4250 1
4647 4206 4251 1
4648 4207 4252 1
4649 4207 4253 1
4650 4210 4254 1
4651 4211 4255 1
4652 4214 4256 1
4653 4214 4257 1
4654 4215 4258 1
4655 4215 4259 1
4656 4215 4260 1
4657 4216 4261 1
4658 4216 4262 1
4659 4216 4263 1
4660 4217 4264 1
4661 4217 4265 1
4662 4217 4266 1
4663 4218 4267 1
4664 4218 4268 1
4665 4218 4269 1
4666 4219 4270 1
4667 4219 4271 1
4668 4219 4272 1
4669 4220 4273 1
4670 4220 4274 1
4671 4220 4275 1
4672 4221 4276 1
4673 4222 4277 1
4674 4222 4278 1
4675 4222 4279 1
4676 4223 4280 1
4677 4223 4281 1
4678 4223 4282 1
4679 4224 4283 1
4680 4225 4284 1
4681 4228 4285 1
4682 4228 4286 1
4683 4228 4287 1
4684 4229 4288 1
4685 4229 4289 1
4686 4229 4290 1
4687 4293 4292 am
4688 4294 4293 am
4689 4295 4294 am
4690 4296 4295 am
4691 4291 4292 am
4692 4291 4296 am
4693 4298 4297 1
4694 4299 4298 am
4695 4300 4299 1
4696 4294 4297 1
4697 4293 4300 1
4698 4302 4301 am
4699 4303 4302 am
4700 4304 4303 am
4701 4299 4301 am
4702 4298 4304 am
4703 4306 4305 am
4704 4307 4306 am
4705 4308 4307 am
4706 4304 4305 am
4707 4303 4308 am
4708 4310 4309 1
4709 4311 4310 1
4710 4312 4311 am
4711 4307 4309 1
4712 4306 4312 am
4713 4314 4313 1
4714 4315 4314 am
4715 4316 4315 1
4716 4310 4313 1
4717 4309 4316 1
4718 4318 4317 am
4719 4319 4318 am
4720 4320 4319 am
4721 4312 4317 am
4722 4311 4320 am
4723 4322 4321 1
4724 4323 4322 am
4725 4324 4323 1
4726 4319 4321 1
4727 4318 4324 1
4728 4326 4325 1
4729 4327 4326 1
4730 4328 4327 am
4731 4323 4325 1
4732 4322 4328 am
4733 4330 4329 am
4734 4331 4330 am
4735 4332 4331 am
4736 4328 4329 am
4737 4327 4332 am
4738 4334 4333 1
4739 4335 4334 1
4740 4336 4335 1
4741 4332 4333 1
4742 4331 4336 1
4743 4338 4337 1
4744 4339 4338 am
4745 4330 4339 am
4746 4336 4337 1
4747 4341 4340 am
4748 4342 4341 am
4749 4343 4342 am
4750 4339 4340 am
4751 4338 4343 am
4752 4296 4344 1
4753 4344 4345 1
4754 4291 4346 1
4755 4295 4347 1
4756 4292 4348 1
4757 4301 4349 1
4758 4302 4350 1
4759 4308 4351 1
4760 4315 4352 1
4761 4314 4353 1
4762 4320 4354 1
4763 4317 4355 1
4764 4324 4356 2
4765 4321 4357 2
4766 4343 4358 1
4767 4342 4359 1
4768 4297 4360 1
4769 4297 4361 1
4770 4300 4362 1
4771 4300 4363 1
4772 4305 4364 1
4773 4313 4365 1
4774 4313 4366 1
4775 4314 4367 1
4776 4315 4368 1
4777 4316 4369 1
4778 4316 4370 1
4779 4325 4371 1
4780 4325 4372 1
4781 4326 4373 1
4782 4326 4374 1
4783 4333 4375 1
4784 4333 4376 1
4785 4334 4377 1
4786 4334 4378 1
4787 4335 4379 1
4788 4335 4380 1
4789 4336 4381 1
4790 4337 4382 1
4791 4337 4383 1
4792 4340 4384 1
4793 4341 4385 1
4794 4344 4386 1
4795 4344 4387 1
4796 4345 4388 1
4797 4345 4389 1
4798 4345 4390 1
4799 4346 4391 1
4800 4346 4392 1
4801 4346 4393 1
4802 4347 4394 1
4803 4347 4395 1
4804 4347 4396 1
4805 4348 4397 1
4806 4348 4398 1
4807 4348 4399 1
4808 4349 4400 1
4809 4349 4401 1
4810 4349 4402 1
4811 4350 4403 1
4812 4350 4404 1
4813 4350 4405 1
4814 4351 4406 1
4815 4352 4407 1
4816 4352 4408 1
4817 4352 4409 1
4818 4353 4410 1
4819 4353 4411 1
4820 4353 4412 1
4821 4354 4413 1
4822 4355 4414 1
4823 4358 4415 1
4824 4358 4416 1
4825 4358 4417 1
4826 4359 4418 1
4827 4359 4419 1
4828 4359 4420 1
4829 4423 4422 am
4830 4424 4423 am
4831 4425 4424 am
4832 4426 4425 am
4833 4421 4422 am
4834 4421 4426 am
4835 4428 4427 1
4836 4429 4428 am
4837 4430 4429 1
4838 4424 4427 1
4839 4423 4430 1
4840 4432 4431 am
4841 4433 4432 am
4842 4434 4433 am
4843 4429 4431 am
4844 4428 4434 am
4845 4436 4435 am
4846 4437 4436 am
4847 4438 4437 am
4848 4434 4435 am
4849 4433 4438 am
4850 4440 4439 1
4851 4441 4440 1
4852 4442 4441 am
4853 4437 4439 1
4854 4436 4442 am
4855 4444 4443 1
4856 4445 4444 am
4857 4446 4445 1
4858 4440 4443 1
4859 4439 4446 1
4860 4448 4447 am
4861 4449 4448 am
4862 4450 4449 am
4863 4442 4447 am
4864 4441 4450 am
4865 4452 4451 1
4866 4453 4452 am
4867 4454 4453 1
4868 4449 4451 1
4869 4448 4454 1
4870 4456 4455 1
4871 4457 4456 1
4872 4458 4457 am
4873 4453 4455 1
4874 4452 4458 am
4875 4460 4459 am
4876 4461 4460 am
4877 4462 4461 am
4878 4458 4459 am
4879 4457 4462 am
4880 4464 4463 1
4881 4465 4464 1
4882 4466 4465 1
4883 4462 4463 1
4884 4461 4466 1
4885 4468 4467 1
4886 4469 4468 am
4887 4460 4469 am
4888 4466 4467 1
4889 4471 4470 am
4890 4472 4471 am
4891 4473 4472 am
4892 4469 4470 am
4893 4468 4473 am
4894 4426 4474 1
4895 4474 4475 1
4896 4421 4476 1
4897 4425 4477 1
4898 4422 4478 1
4899 4431 4479 1
4900 4432 4480 1
4901 4438 4481 1
4902 4445 4482 1
4903 4444 4483 1
4904 4450 4484 1
4905 4447 4485 1
4906 4454 4486 2
4907 4451 4487 2
4908 4473 4488 1
4909 4472 4489 1
4910 4427 4490 1
4911 4427 4491 1
4912 4430 4492 1
4913 4430 4493 1
4914 4435 4494 1
4915 4443 4495 1
4916 4443 4496 1
4917 4444 4497 1
4918 4445 4498 1
4919 4446 4499 1
4920 4446 4500 1
4921 4455 4501 1
4922 4455 4502 1
4923 4456 4503 1
4924 4456 4504 1
4925 4463 4505 1
4926 4463 4506 1
4927 4464 4507 1
4928 4464 4508 1
4929 4465 4509 1
4930 4465 4510 1
4931 4466 4511 1
4932 4467 4512 1
4933 4467 4513 1
4934 4470 4514 1
4935 4471 4515 1
4936 4474 4516 1
4937 4474 4517 1
4938 4475 4518 1
4939 4475 4519 1
4940 4475 4520 1
4941 4476 4521 1
4942 4476 4522 1
4943 4476 4523 1
4944 4477 4524 1
4945 4477 4525 1
4946 4477 4526 1
4947 4478 4527 1
4948 4478 4528 1
4949 4478 4529 1
4950 4479 4530 1
4951 4479 4531 1
4952 4479 4532 1
4953 4480 4533 1
4954 4480 4534 1
4955 4480 4535 1
4956 4481 4536 1
4957 4482 4537 1
4958 4482 4538 1
4959 4482 4539 1
4960 4483 4540 1
4961 4483 4541 1
4962 4483 4542 1
4963 4484 4543 1
4964 4485 4544 1
4965 4488 4545 1
4966 4488 4546 1
4967 4488 4547 1
4968 4489 4548 1
4969 4489 4549 1
4970 4489 4550 1
4971 4553 4552 am
4972 4554 4553 am
4973 4555 4554 am
4974 4556 4555 am
4975 4551 4552 am
4976 4551 4556 am
4977 4558 4557 1
4978 4559 4558 am
4979 4560 4559 1
4980 4554 4557 1
4981 4553 4560 1
4982 4562 4561 am
4983 4563 4562 am
4984 4564 4563 am
4985 4559 4561 am
4986 4558 4564 am
4987 4566 4565 am
4988 4567 4566 am
4989 4568 4567 am
4990 4564 4565 am
4991 4563 4568 am
4992 4570 4569 1
4993 4571 4570 1
4994 4572 4571 am
4995 4567 4569 1
4996 4566 4572 am
4997 4574 4573 1
4998 4575 4574 am
4999 4576 4575 1
5000 4570 4573 1
5001 4569 4576 1
5002 4578 4577 am
5003 4579 4578 am
5004 4580 4579 am
5005 4572 4577 am
5006 4571 4580 am
5007 4582 4581 1
5008 4583 4582 am
5009 4584 4583 1
5010 4579 4581 1
5011 4578 4584 1
5012 4586 4585 1
5013 4587 4586 1
5014 4588 4587 am
5015 4583 4585 1
5016 4582 4588 am
5017 4590 4589 am
5018 4591 4590 am
5019 4592 4591 am
5020 4588 4589 am
5021 4587 4592 am
5022 4594 4593 1
5023 4595 4594 1
5024 4596 4595 1
5025 4592 4593 1
5026 4591 4596 1
5027 4598 4597 1
5028 4599 4598 am
5029 4590 4599 am
5030 4596 4597 1
5031 4601 4600 am
5032 4602 4601 am
5033 4603 4602 am
5034 4599 4600 am
5035 4598 4603 am
5036 4556 4604 1
5037 4604 4605 1
5038 4551 4606 1
5039 4555 4607 1
5040 4552 4608 1
5041 4561 4609 1
5042 4562 4610 1
5043 4568 4611 1
5044 4575 4612 1
5045 4574 4613 1
5046 4580 4614 1
5047 4577 4615 1
5048 4584 4616 2
5049 4581 4617 2
5050 4603 4618 1
5051 4602 4619 1
5052 4557 4620 1
5053 4557 4621 1
5054 4560 4622 1
5055 4560 4623 1
5056 4565 4624 1
5057 4573 4625 1
5058 4573 4626 1
5059 4574 4627 1
5060 4575 4628 1
5061 4576 4629 1
5062 4576 4630 1
5063 4585 4631 1
5064 4585 4632 1
5065 4586 4633 1
5066 4586 4634 1
5067 4593 4635 1
5068 4593 4636 1
5069 4594 4637 1
5070 4594 4638 1
5071 4595 4639 1
5072 4595 4640 1
5073 4596 4641 1
5074 4597 4642 1
5075 4597 4643 1
5076 4600 4644 1
5077 4601 4645 1
5078 4604 4646 1
5079 4604 4647 1
5080 4605 4648 1
5081 4605 4649 1
5082 4605 4650 1
5083 4606 4651 1
5084 4606 4652 1
5085 4606 4653 1
5086 4607 4654 1
5087 4607 4655 1
5088 4607 4656 1
5089 4608 4657 1
5090 4608 4658 1
5091 4608 4659 1
5092 4609 4660 1
5093 4609 4661 1
5094 4609 4662 1
5095 4610 4663 1
5096 4610 4664 1
5097 4610 4665 1
5098 4611 4666 1
5099 4612 4667 1
5100 4612 4668 1
5101 4612 4669 1
5102 4613 4670 1
5103 4613 4671 1
5104 4613 4672 1
5105 4614 4673 1
5106 4615 4674 1
5107 4618 4675 1
5108 4618 4676 1
5109 4618 4677 1
5110 4619 4678 1
5111 4619 4679 1
5112 4619 4680 1
5113 4683 4682 am
5114 4684 4683 am
5115 4685 4684 am
5116 4686 4685 am
5117 4681 4682 am
5118 4681 4686 am
5119 4688 4687 1
5120 4689 4688 am
5121 4690 4689 1
5122 4684 4687 1
5123 4683 4690 1
5124 4692 4691 am
5125 4693 4692 am
5126 4694 4693 am
5127 4689 4691 am
5128 4688 4694 am
5129 4696 4695 am
5130 4697 4696 am
5131 4698 4697 am
5132 4694 4695 am
5133 4693 4698 am
5134 4700 4699 1
5135 4701 4700 1
5136 4702 4701 am
5137 4697 4699 1
5138 4696 4702 am
5139 4704 4703 1
5140 4705 4704 am
5141 4706 4705 1
5142 4700 4703 1
5143 4699 4706 1
5144 4708 4707 am
5145 4709 4708 am
5146 4710 4709 am
5147 4702 4707 am
5148 4701 4710 am
5149 4712 4711 1
5150 4713 4712 am
5151 4714 4713 1
5152 4709 4711 1
5153 4708 4714 1
5154 4716 4715 1
5155 4717 4716 1
5156 4718 4717 am
5157 4713 4715 1
5158 4712 4718 am
5159 4720 4719 am
5160 4721 4720 am
5161 4722 4721 am
5162 4718 4719 am
5163 4717 4722 am
5164 4724 4723 1
5165 4725 4724 1
5166 4726 4725 1
5167 4722 4723 1
5168 4721 4726 1
5169 4728 4727 1
5170 4729 4728 am
5171 4720 4729 am
5172 4726 4727 1
5173 4731 4730 am
5174 4732 4731 am
5175 4733 4732 am
5176 4729 4730 am
5177 4728 4733 am
5178 4686 4734 1
5179 4734 4735 1
5180 4681 4736 1
5181 4685 4737 1
5182 4682 4738 1
5183 4691 4739 1
5184 4692 4740 1
5185 4698 4741 1
5186 4705 4742 1
5187 4704 4743 1
5188 4710 4744 1
5189 4707 4745 1
5190 4714 4746 2
5191 4711 4747 2
5192 4733 4748 1
5193 4732 4749 1
5194 4687 4750 1
5195 4687 4751 1
5196 4690 4752 1
5197 4690 4753 1
5198 4695 4754 1
5199 4703 4755 1
5200 4703 4756 1
5201 4704 4757 1
5202 4705 4758 1
5203 4706 4759 1
5204 4706 4760 1
5205 4715 4761 1
5206 4715 4762 1
5207 4716 4763 1
5208 4716 4764 1
5209 4723 4765 1
5210 4723 4766 1
5211 4724 4767 1
5212 4724 4768 1
5213 4725 4769 1
5214 4725 4770 1
5215 4726 4771 1
5216 4727 4772 1
5217 4727 4773 1
5218 4730 4774 1
5219 4731 4775 1
5220 4734 4776 1
5221 4734 4777 1
5222 4735 4778 1
5223 4735 4779 1
5224 4735 4780 1
5225 4736 4781 1
5226 4736 4782 1
5227 4736 4783 1
5228 4737 4784 1
5229 4737 4785 1
5230 4737 4786 1
5231 4738 4787 1
5232 4738 4788 1
5233 4738 4789 1
5234 4739 4790 1
5235 4739 4791 1
5236 4739 4792 1
5237 4740 4793 1
5238 4740 4794 1
5239 4740 4795 1
5240 4741 4796 1
5241 4742 4797 1
5242 4742 4798 1
5243 4742 4799 1
5244 4743 4800 1
5245 4743 4801 1
5246 4743 4802 1
5247 4744 4803 1
5248 4745 4804 1
5249 4748 4805 1
5250 4748 4806 1
5251 4748 4807 1
5252 4749 4808 1
5253 4749 4809 1
5254 4749 4810 1
5255 4813 4812 am
5256 4814 4813 am
5257 4815 4814 am
5258 4816 4815 am
5259 4811 4812 am
5260 4811 4816 am
5261 4818 4817 1
5262 4819 4818 am
5263 4820 4819 1
5264 4814 4817 1
5265 4813 4820 1
5266 4822 4821 am
5267 4823 4822 am
5268 4824 4823 am
5269 4819 4821 am
5270 4818 4824 am
5271 4826 4825 am
5272 4827 4826 am
5273 4828 4827 am
5274 4824 4825 am
5275 4823 4828 am
5276 4830 4829 1
5277 4831 4830 1
5278 4832 4831 am
5279 4827 4829 1
5280 4826 4832 am
5281 4834 4833 1
5282 4835 4834 am
5283 4836 4835 1
5284 4830 4833 1
5285 4829 4836 1
5286 4838 4837 am
5287 4839 4838 am
5288 4840 4839 am
5289 4832 4837 am
5290 4831 4840 am
5291 4842 4841 1
5292 4843 4842 am
5293 4844 4843 1
5294 4839 4841 1
5295 4838 4844 1
5296 4846 4845 1
5297 4847 4846 1
5298 4848 4847 am
5299 4843 4845 1
5300 4842 4848 am
5301 4850 4849 am
5302 4851 4850 am
5303 4852 4851 am
5304 4848 4849 am
5305 4847 4852 am
5306 4854 4853 1
5307 4855 4854 1
5308 4856 4855 1
5309 4852 4853 1
5310 4851 4856 1
5311 4858 4857 1
5312 4859 4858 am
5313 4850 4859 am
5314 4856 4857 1
5315 4861 4860 am
5316 4862 4861 am
5317 4863 4862 am
5318 4859 4860 am
5319 4858 4863 am
5320 4816 4864 1
5321 4864 4865 1
5322 4811 4866 1
5323 4815 4867 1
5324 4812 4868 1
5325 4821 4869 1
5326 4822 4870 1
5327 4828 4871 1
5328 4835 4872 1
5329 4834 4873 1
5330 4840 4874 1
5331 4837 4875 1
5332 4844 4876 2
5333 4841 4877 2
5334 4863 4878 1
5335 4862 4879 1
5336 4817 4880 1
5337 4817 4881 1
5338 4820 4882 1
5339 4820 4883 1
5340 4825 4884 1
5341 4833 4885 1
5342 4833 4886 1
5343 4834 4887 1
5344 4835 4888 1
5345 4836 4889 1
5346 4836 4890 1
5347 4845 4891 1
5348 4845 4892 1
5349 4846 4893 1
5350 4846 4894 1
5351 4853 4895 1
5352 4853 4896 1
5353 4854 4897 1
5354 4854 4898 1
5355 4855 4899 1
5356 4855 4900 1
5357 4856 4901 1
5358 4857 4902 1
5359 4857 4903 1
5360 4860 4904 1
5361 4861 4905 1
5362 4864 4906 1
5363 4864 4907 1
5364 4865 4908 1
5365 4865 4909 1
5366 4865 4910 1
5367 4866 4911 1
5368 4866 4912 1
5369 4866 4913 1
5370 4867 4914 1
5371 4867 4915 1
5372 4867 4916 1
5373 4868 4917 1
5374 4868 4918 1
5375 4868 4919 1
5376 4869 4920 1
5377 4869 4921 1
5378 4869 4922 1
5379 4870 4923 1
5380 4870 4924 1
5381 4870 4925 1
5382 4871 4926 1
5383 4872 4927 1
5384 4872 4928 1
5385 4872 4929 1
5386 4873 4930 1
5387 4873 4931 1
5388 4873 4932 1
5389 4874 4933 1
5390 4875 4934 1
5391 4878 4935 1
5392 4878 4936 1
5393 4878 4937 1
5394 4879 4938 1
5395 4879 4939 1
5396 4879 4940 1
5397 4943 4942 am
5398 4944 4943 am
5399 4945 4944 am
5400 4946 4945 am
5401 4941 4942 am
5402 4941 4946 am
5403 4948 4947 1
5404 4949 4948 am
5405 4950 4949 1
5406 4944 4947 1
5407 4943 4950 1
5408 4952 4951 am
5409 4953 4952 am
5410 4954 4953 am
5411 4949 4951 am
5412 4948 4954 am
5413 4956 4955 am
5414 4957 4956 am
5415 4958 4957 am
5416 4954 4955 am
5417 4953 4958 am
5418 4960 4959 1
5419 4961 4960 1
5420 4962 4961 am
5421 4957 4959 1
5422 4956 4962 am
5423 4964 4963 1
5424 4965 4964 am
5425 4966 4965 1
5426 4960 4963 1
5427 4959 4966 1
5428 4968 4967 am
5429 4969 4968 am
5430 4970 4969 am
5431 4962 4967 am
5432 4961 4970 am
5433 4972 4971 1
5434 4973 4972 am
5435 4974 4973 1
5436 4969 4971 1
5437 4968 4974 1
5438 4976 4975 1
5439 4977 4976 1
5440 4978 4977 am
5441 4973 4975 1
5442 4972 4978 am
5443 4980 4979 am
5444 4981 4980 am
5445 4982 4981 am
5446 4978 4979 am
5447 4977 4982 am
5448 4984 4983 1
5449 4985 4984 1
5450 4986 4985 1
5451 4982 4983 1
5452 4981 4986 1
5453 4988 4987 1
5454 4989 4988 am
5455 4980 4989 am
5456 4986 4987 1
5457 4991 4990 am
5458 4992 4991 am
5459 4993 4992 am
5460 4989 4990 am
5461 4988 4993 am
5462 4946 4994 1
5463 4994 4995 1
5464 4941 4996 1
5465 4945 4997 1
5466 4942 4998 1
5467 4951 4999 1
5468 4952 5000 1
5469 4958 5001 1
5470 4965 5002 1
5471 4964 5003 1
5472 4970 5004 1
5473 4967 5005 1
5474 4974 5006 2
5475 4971 5007 2
5476 4993 5008 1
5477 4992 5009 1
5478 4947 5010 1
5479 4947 5011 1
5480 4950 5012 1
5481 4950 5013 1
5482 4955 5014 1
5483 4963 5015 1
5484 4963 5016 1
5485 4964 5017 1
5486 4965 5018 1
5487 4966 5019 1
5488 4966 5020 1
5489 4975 5021 1
5490 4975 5022 1
5491 4976 5023 1
5492 4976 5024 1
5493 4983 5025 1
5494 4983 5026 1
5495 4984 5027 1
5496 4984 5028 1
5497 4985 5029 1
5498 4985 5030 1
5499 4986 5031 1
5500 4987 5032 1
5501 4987 5033 1
5502 4990 5034 1
5503 4991 5035 1
5504 4994 5036 1
5505 4994 5037 1
5506 4995 5038 1
5507 4995 5039 1
5508 4995 5040 1
5509 4996 5041 1
5510 4996 5042 1
5511 4996 5043 1
5512 4997 5044 1
5513 4997 5045 1
5514 4997 5046 1
5515 4998 5047 1
5516 4998 5048 1
5517 4998 5049 1
5518 4999 5050 1
5519 4999 5051 1
5520 4999 5052 1
5521 5000 5053 1
5522 5000 5054 1
5523 5000 5055 1
5524 5001 5056 1
5525 5002 5057 1
5526 5002 5058 1
5527 5002 5059 1
5528 5003 5060 1
5529 5003 5061 1
5530 5003 5062 1
5531 5004 5063 1
5532 5005 5064 1
5533 5008 5065 1
5534 5008 5066 1
5535 5008 5067 1
5536 5009 5068 1
5537 5009 5069 1
5538 5009 5070 1
5539 5073 5072 am
5540 5074 5073 am
5541 5075 5074 am
5542 5076 5075 am
5543 5071 5072 am
5544 5071 5076 am
5545 5078 5077 1
5546 5079 5078 am
5547 5080 5079 1
5548 5074 5077 1
5549 5073 5080 1
5550 5082 5081 am
5551 5083 5082 am
5552 5084 5083 am
5553 5079 5081 am
5554 5078 5084 am
5555 5086 5085 am
5556 5087 5086 am
5557 5088 5087 am
5558 5084 5085 am
5559 5083 5088 am
5560 5090 5089 1
5561 5091 5090 1
5562 5092 5091 am
5563 5087 5089 1
5564 5086 5092 am
5565 5094 5093 1
5566 5095 5094 am
5567 5096 5095 1
5568 5090 5093 1
5569 5089 5096 1
5570 5098 5097 am
5571 5099 5098 am
5572 5100 5099 am
5573 5092 5097 am
5574 5091 5100 am
5575 5102 5101 1
5576 5103 5102 am
5577 5104 5103 1
5578 5099 5101 1
5579 5098 5104 1
5580 5106 5105 1
5581 5107 5106 1
5582 5108 5107 am
5583 5103 5105 1
5584 5102 5108 am
5585 5110 5109 am
5586 5111 5110 am
5587 5112 5111 am
5588 5108 5109 am
5589 5107 5112 am
5590 5114 5113 1
5591 5115 5114 1
5592 5116 5115 1
5593 5112 5113 1
5594 5111 5116 1
5595 5118 5117 1
5596 5119 5118 am
5597 5110 5119 am
5598 5116 5117 1
5599 5121 5120 am
5600 5122 5121 am
5601 5123 5122 am
5602 5119 5120 am
5603 5118 5123 am
5604 5076 5124 1
5605 5124 5125 1
5606 5071 5126 1
5607 5075 5127 1
5608 5072 5128 1
5609 5081 5129 1
5610 5082 5130 1
5611 5088 5131 1
5612 5095 5132 1
5613 5094 5133 1
5614 5100 5134 1
5615 5097 5135 1
5616 5104 5136 2
5617 5101 5137 2
5618 5123 5138 1
5619 5122 5139 1
5620 5077 5140 1
5621 5077 5141 1
5622 5080 5142 1
5623 5080 5143 1
5624 5085 5144 1
5625 5093 5145 1
5626 5093 5146 1
5627 5094 5147 1
5628 5095 5148 1
5629 5096 5149 1
5630 5096 5150 1
5631 5105 5151 1
5632 5105 5152 1
5633 5106 5153 1
5634 5106 5154 1
5635 5113 5155 1
5636 5113 5156 1
5637 5114 5157 1
5638 5114 5158 1
5639 5115 5159 1
5640 5115 5160 1
5641 5116 5161 1
5642 5117 5162 1
5643 5117 5163 1
5644 5120 5164 1
5645 5121 5165 1
5646 5124 5166 1
5647 5124 5167 1
5648 5125 5168 1
5649 5125 5169 1
5650 5125 5170 1
5651 5126 5171 1
5652 5126 5172 1
5653 5126 5173 1
5654 5127 5174 1
5655 5127 5175 1
5656 5127 5176 1
5657 5128 5177 1
5658 5128 5178 1
5659 5128 5179 1
5660 5129 5180 1
5661 5129 5181 1
5662 5129 5182 1
5663 5130 5183 1
5664 5130 5184 1
5665 5130 5185 1
5666 5131 5186 1
5667 5132 5187 1
5668 5132 5188 1
5669 5132 5189 1
5670 5133 5190 1
5671 5133 5191 1
5672 5133 5192 1
5673 5134 5193 1
5674 5135 5194 1
5675 5138 5195 1
5676 5138 5196 1
5677 5138 5197 1
5678 5139 5198 1
5679 5139 5199 1
5680 5139 5200 1
5681 5203 5202 am
5682 5204 5203 am
5683 5205 5204 am
5684 5206 5205 am
5685 5201 5202 am
5686 5201 5206 am
5687 5208 5207 1
5688 5209 5208 am
5689 5210 5209 1
5690 5204 5207 1
5691 5203 5210 1
5692 5212 5211 am
5693 5213 5212 am
5694 5214 5213 am
5695 5209 5211 am
5696 5208 5214 am
5697 5216 5215 am
5698 5217 5216 am
5699 5218 5217 am
5700 5214 5215 am
5701 5213 5218 am
5702 5220 5219 1
5703 5221 5220 1
5704 5222 5221 am
5705 5217 5219 1
5706 5216 5222 am
5707 5224 5223 1
5708 5225 5224 am
5709 5226 5225 1
5710 5220 5223 1
5711 5219 5226 1
5712 5228 5227 am
5713 5229 5228 am
5714 5230 5229 am
5715 5222 5227 am
5716 5221 5230 am
5717 5232 5231 1
5718 5233 5232 am
5719 5234 5233 1
5720 5229 5231 1
5721 5228 5234 1
5722 5236 5235 1
5723 5237 5236 1
5724 5238 5237 am
5725 5233 5235 1
5726 5232 5238 am
5727 5240 5239 am
5728 5241 5240 am
5729 5242 5241 am
5730 5238 5239 am
5731 5237 5242 am
5732 5244 5243 1
5733 5245 5244 1
5734 5246 5245 1
5735 5242 5243 1
5736 5241 5246 1
5737 5248 5247 1
5738 5249 5248 am
5739 5240 5249 am
5740 5246 5247 1
5741 5251 5250 am
5742 5252 5251 am
5743 5253 5252 am
5744 5249 5250 am
5745 5248 5253 am
5746 5206 5254 1
5747 5254 5255 1
5748 5201 5256 1
5749 5205 5257 1
5750 5202 5258 1
5751 5211 5259 1
5752 5212 5260 1
5753 5218 5261 1
5754 5225 5262 1
5755 5224 5263 1
5756 5230 5264 1
5757 5227 5265 1
5758 5234 5266 2
5759 5231 5267 2
5760 5253 5268 1
5761 5252 5269 1
5762 5207 5270 1
5763 5207 5271 1
5764 5210 5272 1
5765 5210 5273 1
5766 5215 5274 1
5767 5223 5275 1
5768 5223 5276 1
5769 5224 5277 1
5770 5225 5278 1
5771 5226 5279 1
5772 5226 5280 1
5773 5235 5281 1
5774 5235 5282 1
5775 5236 5283 1
5776 5236 5284 1
5777 5243 5285 1
5778 5243 5286 1
5779 5244 5287 1
5780 5244 5288 1
5781 5245 5289 1
5782 5245 5290 1
5783 5246 5291 1
5784 5247 5292 1
5785 5247 5293 1
5786 5250 5294 1
5787 5251 5295 1
5788 5254 5296 1
5789 5254 5297 1
5790 5255 5298 1
5791 5255 5299 1
5792 5255 5300 1
5793 5256 5301 1
5794 5256 5302 1
5795 5256 5303 1
5796 5257 5304 1
5797 5257 5305 1
5798 5257 5306 1
5799 5258 5307 1
5800 5258 5308 1
5801 5258 5309 1
5802 5259 5310 1
5803 5259 5311 1
5804 5259 5312 1
5805 5260 5313 1
5806 5260 5314 1
5807 5260 5315 1
5808 5261 5316 1
5809 5262 5317 1
5810 5262 5318 1
5811 5262 5319 1
5812 5263 5320 1
5813 5263 5321 1
5814 5263 5322 1
5815 5264 5323 1
5816 5265 5324 1
5817 5268 5325 1
5818 5268 5326 1
5819 5268 5327 1
5820 5269 5328 1
5821 5269 5329 1
5822 5269 5330 1
5823 5333 5332 am
5824 5334 5333 am
5825 5335 5334 am
5826 5336 5335 am
5827 5331 5332 am
5828 5331 5336 am
5829 5338 5337 1
5830 5339 5338 am
5831 5340 5339 1
5832 5334 5337 1
5833 5333 5340 1
5834 5342 5341 am
5835 5343 5342 am
5836 5344 5343 am
5837 5339 5341 am
5838 5338 5344 am
5839 5346 5345 am
5840 5347 5346 am
5841 5348 5347 am
5842 5344 5345 am
5843 5343 5348 am
5844 5350 5349 1
5845 5351 5350 1
5846 5352 5351 am
5847 5347 5349 1
5848 5346 5352 am
5849 5354 5353 1
5850 5355 5354 am
5851 5356 5355 1
5852 5350 5353 1
5853 5349 5356 1
5854 5358 5357 am
5855 5359 5358 am
5856 5360 5359 am
5857 5352 5357 am
5858 5351 5360 am
5859 5362 5361 1
5860 5363 5362 am
5861 5364 5363 1
5862 5359 5361 1
5863 5358 5364 1
5864 5366 5365 1
5865 5367 5366 1
5866 5368 5367 am
5867 5363 5365 1
5868 5362 5368 am
5869 5370 5369 am
5870 5371 5370 am
5871 5372 5371 am
5872 5368 5369 am
5873 5367 5372 am
5874 5374 5373 1
5875 5375 5374 1
5876 5376 5375 1
5877 5372 5373 1
5878 5371 5376 1
5879 5378 5377 1
5880 5379 5378 am
5881 5370 5379 am
5882 5376 5377 1
5883 5381 5380 am
5884 5382 5381 am
5885 5383 5382 am
5886 5379 5380 am
5887 5378 5383 am
5888 5336 5384 1
5889 5384 5385 1
5890 5331 5386 1
5891 5335 5387 1
5892 5332 5388 1
5893 5341 5389 1
5894 5342 5390 1
5895 5348 5391 1
5896 5355 5392 1
5897 5354 5393 1
5898 5360 5394 1
5899 5357 5395 1
5900 5364 5396 2
5901 5361 5397 2
5902 5383 5398 1
5903 5382 5399 1
5904 5337 5400 1
5905 5337 5401 1
5906 5340 5402 1
5907 5340 5403 1
5908 5345 5404 1
5909 5353 5405 1
5910 5353 5406 1
5911 5354 5407 1
5912 5355 5408 1
5913 5356 5409 1
5914 5356 5410 1
5915 5365 5411 1
5916 5365 5412 1
5917 5366 5413 1
5918 5366 5414 1
5919 5373 5415 1
5920 5373 5416 1
5921 5374 5417 1
5922 5374 5418 1
5923 5375 5419 1
5924 5375 5420 1
5925 5376 5421 1
5926 5377 5422 1
5927 5377 5423 1
5928 5380 5424 1
5929 5381 5425 1
5930 5384 5426 1
5931 5384 5427 1
5932 5385 5428 1
5933 5385 5429 1
5934 5385 5430 1
5935 5386 5431 1
5936 5386 5432 1
5937 5386 5433 1
5938 5387 5434 1
5939 5387 5435 1
5940 5387 5436 1
5941 5388 5437 1
5942 5388 5438 1
5943 5388 5439 1
5944 5389 5440 1
5945 5389 5441 1
5946 5389 5442 1
5947 5390 5443 1
5948 5390 5444 1
5949 5390 5445 1
5950 5391 5446 1
5951 5392 5447 1
5952 5392 5448 1
5953 5392 5449 1
5954 5393 5450 1
5955 5393 5451 1
5956 5393 5452 1
5957 5394 5453 1
5958 5395 5454 1
5959 5398 5455 1
5960 5398 5456 1
5961 5398 5457 1
5962 5399 5458 1
5963 5399 5459 1
5964 5399 5460 1
5965 5463 5462 am
5966 5464 5463 am
5967 5465 5464 am
5968 5466 5465 am
5969 5461 5462 am
5970 5461 5466 am
5971 5468 5467 1
5972 5469 5468 am
5973 5470 5469 1
5974 5464 5467 1
5975 5463 5470 1
5976 5472 5471 am
5977 5473 5472 am
5978 5474 5473 am
5979 5469 5471 am
5980 5468 5474 am
5981 5476 5475 am
5982 5477 5476 am
5983 5478 5477 am
5984 5474 5475 am
5985 5473 5478 am
5986 5480 5479 1
5987 5481 5480 1
5988 5482 5481 am
5989 5477 5479 1
5990 5476 5482 am
5991 5484 5483 1
5992 5485 5484 am
5993 5486 5485 1
5994 5480 5483 1
5995 5479 5486 1
5996 5488 5487 am
5997 5489 5488 am
5998 5490 5489 am
5999 5482 5487 am
6000 5481 5490 am
6001 5492 5491 1
6002 5493 5492 am
6003 5494 5493 1
6004 5489 5491 1
6005 5488 5494 1
6006 5496 5495 1
6007 5497 5496 1
6008 5498 5497 am
6009 5493 5495 1
6010 5492 5498 am
6011 5500 5499 am
6012 5501 5500 am
6013 5502 5501 am
6014 5498 5499 am
6015 5497 5502 am
6016 5504 5503 1
6017 5505 5504 1
6018 5506 5505 1
6019 5502 5503 1
6020 5501 5506 1
6021 5508 5507 1
6022 5509 5508 am
6023 5500 5509 am
6024 5506 5507 1
6025 5511 5510 am
6026 5512 5511 am
6027 5513 5512 am
6028 5509 5510 am
6029 5508 5513 am
6030 5466 5514 1
6031 5514 5515 1
6032 5461 5516 1
6033 5465 5517 1
6034 5462 5518 1
6035 5471 5519 1
6036 5472 5520 1
6037 5478 5521 1
6038 5485 5522 1
6039 5484 5523 1
6040 5490 5524 1
6041 5487 5525 1
6042 5494 5526 2
6043 5491 5527 2
6044 5513 5528 1
6045 5512 5529 1
6046 5467 5530 1
6047 5467 5531 1
6048 5470 5532 1
6049 5470 5533 1
6050 5475 5534 1
6051 5483 5535 1
6052 5483 5536 1
6053 5484 5537 1
6054 5485 5538 1
6055 5486 5539 1
6056 5486 5540 1
6057 5495 5541 1
6058 5495 5542 1
6059 5496 5543 1
6060 5496 5544 1
6061 5503 5545 1
6062 5503 5546 1
6063 5504 5547 1
6064 5504 5548 1
6065 5505 5549 1
6066 5505 5550 1
6067 5506 5551 1
6068 5507 5552 1
6069 5507 5553 1
6070 5510 5554 1
6071 5511 5555 1
6072 5514 5556 1
6073 5514 5557 1
6074 5515 5558 1
6075 5515 5559 1
6076 5515 5560 1
6077 5516 5561 1
6078 5516 5562 1
6079 5516 5563 1
6080 5517 5564 1
6081 5517 5565 1
6082 5517 5566 1
6083 5518 5567 1
6084 5518 5568 1
6085 5518 5569 1
6086 5519 5570 1
6087 5519 5571 1
6088 5519 5572 1
6089 5520 5573 1
6090 5520 5574 1
6091 5520 5575 1
6092 5521 5576 1
6093 5522 5577 1
6094 5522 5578 1
6095 5522 5579 1
6096 5523 5580 1
6097 5523 5581 1
6098 5523 5582 1
6099 5524 5583 1
6100 5525 5584 1
6101 5528 5585 1
6102 5528 5586 1
6103 5528 5587 1
6104 5529 5588 1
6105 5529 5589 1
6106 5529 5590 1
6107 5593 5592 am
6108 5594 5593 am
6109 5595 5594 am
6110 5596 5595 am
6111 5591 5592 am
6112 5591 5596 am
6113 5598 5597 1
6114 5599 5598 am
6115 5600 5599 1
6116 5594 5597 1
6117 5593 5600 1
6118 5602 5601 am
6119 5603 5602 am
6120 5604 5603 am
6121 5599 5601 am
6122 5598 5604 am
6123 5606 5605 am
6124 5607 5606 am
6125 5608 5607 am
6126 5604 5605 am
6127 5603 5608 am
6128 5610 5609 1
6129 5611 5610 1
6130 5612 5611 am
6131 5607 5609 1
6132 5606 5612 am
6133 5614 5613 1
6134 5615 5614 am
6135 5616 5615 1
6136 5610 5613 1
6137 5609 5616 1
6138 5618 5617 am
6139 5619 5618 am
6140 5620 5619 am
6141 5612 5617 am
6142 5611 5620 am
6143 5622 5621 1
6144 5623 5622 am
6145 5624 5623 1
6146 5619 5621 1
6147 5618 5624 1
6148 5626 5625 1
6149 5627 5626 1
6150 5628 5627 am
6151 5623 5625 1
6152 5622 5628 am
6153 5630 5629 am
6154 5631 5630 am
6155 5632 5631 am
6156 5628 5629 am
6157 5627 5632 am
6158 5634 5633 1
6159 5635 5634 1
6160 5636 5635 1
6161 5632 5633 1
6162 5631 5636 1
6163 5638 5637 1
6164 5639 5638 am
6165 5630 5639 am
6166 5636 5637 1
6167 5641 5640 am
6168 5642 5641 am
6169 5643 5642 am
6170 5639 5640 am
6171 5638 5643 am
6172 5596 5644 1
6173 5644 5645 1
6174 5591 5646 1
6175 5595 5647 1
6176 5592 5648 1
6177 5601 5649 1
6178 5602 5650 1
6179 5608 5651 1
6180 5615 5652 1
6181 5614 5653 1
6182 5620 5654 1
6183 5617 5655 1
6184 5624 5656 2
6185 5621 5657 2
6186 5643 5658 1
6187 5642 5659 1
6188 5597 5660 1
6189 5597 5661 1
6190 5600 5662 1
6191 5600 5663 1
6192 5605 5664 1
6193 5613 5665 1
6194 5613 5666 1
6195 5614 5667 1
6196 5615 5668 1
6197 5616 5669 1
6198 5616 5670 1
6199 5625 5671 1
6200 5625 5672 1
6201 5626 5673 1
6202 5626 5674 1
6203 5633 5675 1
6204 5633 5676 1
6205 5634 5677 1
6206 5634 5678 1
6207 5635 5679 1
6208 5635 5680 1
6209 5636 5681 1
6210 5637 5682 1
6211 5637 5683 1
6212 5640 5684 1
6213 5641 5685 1
6214 5644 5686 1
6215 5644 5687 1
6216 5645 5688 1
6217 5645 5689 1
6218 5645 5690 1
6219 5646 5691 1
6220 5646 5692 1
6221 5646 5693 1
6222 5647 5694 1
6223 5647 5695 1
6224 5647 5696 1
6225 5648 5697 1
6226 5648 5698 1
6227 5648 5699 1
6228 5649 5700 1
6229 5649 5701 1
6230 5649 5702 1
6231 5650 5703 1
6232 5650 5704 1
6233 5650 5705 1
6234 5651 5706 1
6235 5652 5707 1
6236 5652 5708 1
6237 5652 5709 1
6238 5653 5710 1
6239 5653 5711 1
6240 5653 5712 1
6241 5654 5713 1
6242 5655 5714 1
6243 5658 5715 1
6244 5658 5716 1
6245 5658 5717 1
6246 5659 5718 1
6247 5659 5719 1
6248 5659 5720 1
6249 5723 5722 am
6250 5724 5723 am
6251 5725 5724 am
6252 5726 5725 am
6253 5721 5722 am
6254 5721 5726 am
6255 5728 5727 1
6256 5729 5728 am
6257 5730 5729 1
6258 5724 5727 1
6259 5723 5730 1
6260 5732 5731 am
6261 5733 5732 am
6262 5734 5733 am
6263 5729 5731 am
6264 5728 5734 am
6265 5736 5735 am
6266 5737 5736 am
6267 5738 5737 am
6268 5734 5735 am
6269 5733 5738 am
6270 5740 5739 1
6271 5741 5740 1
6272 5742 5741 am
6273 5737 5739 1
6274 5736 5742 am
6275 5744 5743 1
6276 5745 5744 am
6277 5746 5745 1
6278 5740 5743 1
6279 5739 5746 1
6280 5748 5747 am
6281 5749 5748 am
6282 5750 5749 am
6283 5742 5747 am
6284 5741 5750 am
6285 5752 5751 1
6286 5753 5752 am
6287 5754 5753 1
6288 5749 5751 1
6289 5748 5754 1
6290 5756 5755 1
6291 5757 5756 1
6292 5758 5757 am
6293 5753 5755 1
6294 5752 5758 am
6295 5760 5759 am
6296 5761 5760 am
6297 5762 5761 am
6298 5758 5759 am
6299 5757 5762 am
6300 5764 5763 1
6301 5765 5764 1
6302 5766 5765 1
6303 5762 5763 1
6304 5761 5766 1
6305 5768 5767 1
6306 5769 5768 am
6307 5760 5769 am
6308 5766 5767 1
6309 5771 5770 am
6310 5772 5771 am
6311 5773 5772 am
6312 5769 5770 am
6313 5768 5773 am
6314 5726 5774 1
6315 5774 5775 1
6316 5721 5776 1
6317 5725 5777 1
6318 5722 5778 1
6319 5731 5779 1
6320 5732 5780 1
6321 5738 5781 1
6322 5745 5782 1
6323 5744 5783 1
6324 5750 5784 1
6325 5747 5785 1
6326 5754 5786 2
6327 5751 5787 2
6328 5773 5788 1
6329 5772 5789 1
6330 5727 5790 1
6331 5727 5791 1
6332 5730 5792 1
6333 5730 5793 1
6334 5735 5794 1
6335 5743 5795 1
6336 5743 5796 1
6337 5744 5797 1
6338 5745 5798 1
6339 5746 5799 1
6340 5746 5800 1
6341 5755 5801 1
6342 5755 5802 1
6343 5756 5803 1
6344 5756 5804 1
6345 5763 5805 1
6346 5763 5806 1
6347 5764 5807 1
6348 5764 5808 1
6349 5765 5809 1
6350 5765 5810 1
6351 5766 5811 1
6352 5767 5812 1
6353 5767 5813 1
6354 5770 5814 1
6355 5771 5815 1
6356 5774 5816 1
6357 5774 5817 1
6358 5775 5818 1
6359 5775 5819 1
6360 5775 5820 1
6361 5776 5821 1
6362 5776 5822 1
6363 5776 5823 1
6364 5777 5824 1
6365 5777 5825 1
6366 5777 5826 1
6367 5778 5827 1
6368 5778 5828 1
6369 5778 5829 1
6370 5779 5830 1
6371 5779 5831 1
6372 5779 5832 1
6373 5780 5833 1
6374 5780 5834 1
6375 5780 5835 1
6376 5781 5836 1
6377 5782 5837 1
6378 5782 5838 1
6379 5782 5839 1
6380 5783 5840 1
6381 5783 5841 1
6382 5783 5842 1
6383 5784 5843 1
6384 5785 5844 1
6385 5788 5845 1
6386 5788 5846 1
6387 5788 5847 1
6388 5789 5848 1
6389 5789 5849 1
6390 5789 5850 1
6391 5853 5852 am
6392 5854 5853 am
6393 5855 5854 am
6394 5856 5855 am
6395 5851 5852 am
6396 5851 5856 am
6397 5858 5857 1
6398 5859 5858 am
6399 5860 5859 1
6400 5854 5857 1
6401 5853 5860 1
6402 5862 5861 am
6403 5863 5862 am
6404 5864 5863 am
6405 5859 5861 am
6406 5858 5864 am
6407 5866 5865 am
6408 5867 5866 am
6409 5868 5867 am
6410 5864 5865 am
6411 5863 5868 am
6412 5870 5869 1
6413 5871 5870 1
6414 5872 5871 am
6415 5867 5869 1
6416 5866 5872 am
6417 5874 5873 1
6418 5875 5874 am
6419 5876 5875 1
6420 5870 5873 1
6421 5869 5876 1
6422 5878 5877 am
6423 5879 5878 am
6424 5880 5879 am
6425 5872 5877 am
6426 5871 5880 am
6427 5882 5881 1
6428 5883 5882 am
6429 5884 5883 1
6430 5879 5881 1
6431 5878 5884 1
6432 5886 5885 1
6433 5887 5886 1
6434 5888 5887 am
6435 5883 5885 1
6436 5882 5888 am
6437 5890 5889 am
6438 5891 5890 am
6439 5892 5891 am
6440 5888 5889 am
6441 5887 5892 am
6442 5894 5893 1
6443 5895 5894 1
6444 5896 5895 1
6445 5892 5893 1
6446 5891 5896 1
6447 5898 5897 1
6448 5899 5898 am
6449 5890 5899 am
6450 5896 5897 1
6451 5901 5900 am
6452 5902 5901 am
6453 5903 5902 am
6454 5899 5900 am
6455 5898 5903 am
6456 5856 5904 1
6457 5904 5905 1
6458 5851 5906 1
6459 5855 5907 1
6460 5852 5908 1
6461 5861 5909 1
6462 5862 5910 1
6463 5868 5911 1
6464 5875 5912 1
6465 5874 5913 1
6466 5880 5914 1
6467 5877 5915 1
6468 5884 5916 2
6469 5881 5917 2
6470 5903 5918 1
6471 5902 5919 1
6472 5857 5920 1
6473 5857 5921 1
6474 5860 5922 1
6475 5860 5923 1
6476 5865 5924 1
6477 5873 5925 1
6478 5873 5926 1
6479 5874 5927 1
6480 5875 5928 1
6481 5876 5929 1
6482 5876 5930 1
6483 5885 5931 1
6484 5885 5932 1
6485 5886 5933 1
6486 5886 5934 1
6487 5893 5935 1
6488 5893 5936 1
6489 5894 5937 1
6490 5894 5938 1
6491 5895 5939 1
6492 5895 5940 1
6493 5896 5941 1
6494 5897 5942 1
6495 5897 5943 1
6496 5900 5944 1
6497 5901 5945 1
6498 5904 5946 1
6499 5904 5947 1
6500 5905 5948 1
6501 5905 5949 1
6502 5905 5950 1
6503 5906 5951 1
6504 5906 5952 1
6505 5906 5953 1
6506 5907 5954 1
6507 5907 5955 1
6508 5907 5956 1
6509 5908 5957 1
6510 5908 5958 1
6511 5908 5959 1
6512 5909 5960 1
6513 5909 5961 1
6514 5909 5962 1
6515 5910 5963 1
6516 5910 5964 1
6517 5910 5965 1
6518 5911 5966 1
6519 5912 5967 1
6520 5912 5968 1
6521 5912 5969 1
6522 5913 5970 1
6523 5913 5971 1
6524 5913 5972 1
6525 5914 5973 1
6526 5915 5974 1
6527 5918 5975 1
6528 5918 5976 1
6529 5918 5977 1
6530 5919 5978 1
6531 5919 5979 1
6532 5919 5980 1
6533 5983 5982 am
6534 5984 5983 am
6535 5985 5984 am
6536 5986 5985 am
6537 5981 5982 am
6538 5981 5986 am
6539 5988 5987 1
6540 5989 5988 am
6541 5990 5989 1
6542 5984 5987 1
6543 5983 5990 1
6544 5992 5991 am
6545 5993 5992 am
6546 5994 5993 am
6547 5989 5991 am
6548 5988 5994 am
6549 5996 5995 am
6550 5997 5996 am
6551 5998 5997 am
6552 5994 5995 am
6553 5993 5998 am
6554 6000 5999 1
6555 6001 6000 1
6556 6002 6001 am
6557 5997 5999 1
6558 5996 6002 am
6559 6004 6003 1
6560 6005 6004 am
6561 6006 6005 1
6562 6000 6003 1
6563 5999 6006 1
6564 6008 6007 am
6565 6009 6008 am
6566 6010 6009 am
6567 6002 6007 am
6568 6001 6010 am
6569 6012 6011 1
6570 6013 6012 am
6571 6014 6013 1
6572 6009 6011 1
6573 6008 6014 1
6574 6016 6015 1
6575 6017 6016 1
6576 6018 6017 am
6577 6013 6015 1
6578 6012 6018 am
6579 6020 6019 am
6580 6021 6020 am
6581 6022 6021 am
6582 6018 6019 am
6583 6017 6022 am
6584 6024 6023 1
6585 6025 6024 1
6586 6026 6025 1
6587 6022 6023 1
6588 6021 6026 1
6589 6028 6027 1
6590 6029 6028 am
6591 6020 6029 am
6592 6026 6027 1
6593 6031 6030 am
6594 6032 6031 am
6595 6033 6032 am
6596 6029 6030 am
6597 6028 6033 am
6598 5986 6034 1
6599 6034 6035 1
6600 5981 6036 1
6601 5985 6037 1
6602 5982 6038 1
6603 5991 6039 1
6604 5992 6040 1
6605 5998 6041 1
6606 6005 6042 1
6607 6004 6043 1
6608 6010 6044 1
6609 6007 6045 1
6610 6014 6046 2
6611 6011 6047 2
6612 6033 6048 1
6613 6032 6049 1
6614 5987 6050 1
6615 5987 6051 1
6616 5990 6052 1
6617 5990 6053 1
6618 5995 6054 1
6619 6003 6055 1
6620 6003 6056 1
6621 6004 6057 1
6622 6005 6058 1
6623 6006 6059 1
6624 6006 6060 1
6625 6015 6061 1
6626 6015 6062 1
6627 6016 6063 1
6628 6016 6064 1
6629 6023 6065 1
6630 6023 6066 1
6631 6024 6067 1
6632 6024 6068 1
6633 6025 6069 1
6634 6025 6070 1
6635 6026 6071 1
6636 6027 6072 1
6637 6027 6073 1
6638 6030 6074 1
6639 6031 6075 1
6640 6034 6076 1
6641 6034 6077 1
6642 6035 6078 1
6643 6035 6079 1
6644 6035 6080 1
6645 6036 6081 1
6646 6036 6082 1
6647 6036 6083 1
6648 6037 6084 1
6649 6037 6085 1
6650 6037 6086 1
6651 6038 6087 1
6652 6038 6088 1
6653 6038 6089 1
6654 6039 6090 1
6655 6039 6091 1
6656 6039 6092 1
6657 6040 6093 1
6658 6040 6094 1
6659 6040 6095 1
6660 6041 6096 1
6661 6042 6097 1
6662 6042 6098 1
6663 6042 6099 1
6664 6043 6100 1
6665 6043 6101 1
6666 6043 6102 1
6667 6044 6103 1
6668 6045 6104 1
6669 6048 6105 1
6670 6048 6106 1
6671 6048 6107 1
6672 6049 6108 1
6673 6049 6109 1
6674 6049 6110 1
6675 6113 6112 am
6676 6114 6113 am
6677 6115 6114 am
6678 6116 6115 am
6679 6111 6112 am
6680 6111 6116 am
6681 6118 6117 1
6682 6119 6118 am
6683 6120 6119 1
6684 6114 6117 1
6685 6113 6120 1
6686 6122 6121 am
6687 6123 6122 am
6688 6124 6123 am
6689 6119 6121 am
6690 6118 6124 am
6691 6126 6125 am
6692 6127 6126 am
6693 6128 6127 am
6694 6124 6125 am
6695 6123 6128 am
6696 6130 6129 1
6697 6131 6130 1
6698 6132 6131 am
6699 6127 6129 1
6700 6126 6132 am
6701 6134 6133 1
6702 6135 6134 am
6703 6136 6135 1
6704 6130 6133 1
6705 6129 6136 1
6706 6138 6137 am
6707 6139 6138 am
6708 6140 6139 am
6709 6132 6137 am
6710 6131 6140 am
6711 6142 6141 1
6712 6143 6142 am
6713 6144 6143 1
6714 6139 6141 1
6715 6138 6144 1
6716 6146 6145 1
6717 6147 6146 1
6718 6148 6147 am
6719 6143 6145 1
6720 6142 6148 am
6721 6150 6149 am
6722 6151 6150 am
6723 6152 6151 am
6724 6148 6149 am
6725 6147 6152 am
6726 6154 6153 1
6727 6155 6154 1
6728 6156 6155 1
6729 6152 6153 1
6730 6151 6156 1
6731 6158 6157 1
6732 6159 6158 am
6733 6150 6159 am
6734 6156 6157 1
6735 6161 6160 am
6736 6162 6161 am
6737 6163 6162 am
6738 6159 6160 am
6739 6158 6163 am
6740 6116 6164 1
6741 6164 6165 1
6742 6111 6166 1
6743 6115 6167 1
6744 6112 6168 1
6745 6121 6169 1
6746 6122 6170 1
6747 6128 6171 1
6748 6135 6172 1
6749 6134 6173 1
6750 6140 6174 1
6751 6137 6175 1
6752 6144 6176 2
6753 6141 6177 2
6754 6163 6178 1
6755 6162 6179 1
6756 6117 6180 1
6757 6117 6181 1
6758 6120 6182 1
6759 6120 6183 1
6760 6125 6184 1
6761 6133 6185 1
6762 6133 6186 1
6763 6134 6187 1
6764 6135 6188 1
6765 6136 6189 1
6766 6136 6190 1
6767 6145 6191 1
6768 6145 6192 1
6769 6146 6193 1
6770 6146 6194 1
6771 6153 6195 1
6772 6153 6196 1
6773 6154 6197 1
6774 6154 6198 1
6775 6155 6199 1
6776 6155 6200 1
6777 6156 6201 1
6778 6157 6202 1
6779 6157 6203 1
6780 6160 6204 1
6781 6161 6205 1
6782 6164 6206 1
6783 6164 6207 1
6784 6165 6208 1
6785 6165 6209 1
6786 6165 6210 1
6787 6166 6211 1
6788 6166 6212 1
6789 6166 6213 1
6790 6167 6214 1
6791 6167 6215 1
6792 6167 6216 1
6793 6168 6217 1
6794 6168 6218 1
6795 6168 6219 1
6796 6169 6220 1
6797 6169 6221 1
6798 6169 6222 1
6799 6170 6223 1
6800 6170 6224 1
6801 6170 6225 1
6802 6171 6226 1
6803 6172 6227 1
6804 6172 6228 1
6805 6172 6229 1
6806 6173 6230 1
6807 6173 6231 1
6808 6173 6232 1
6809 6174 6233 1
6810 6175 6234 1
6811 6178 6235 1
6812 6178 6236 1
6813 6178 6237 1
6814 6179 6238 1
6815 6179 6239 1
6816 6179 6240 1
6817 6243 6242 am
6818 6244 6243 am
6819 6245 6244 am
6820 6246 6245 am
6821 6241 6242 am
6822 6241 6246 am
6823 6248 6247 1
6824 6249 6248 am
6825 6250 6249 1
6826 6244 6247 1
6827 6243 6250 1
6828 6252 6251 am
6829 6253 6252 am
6830 6254 6253 am
6831 6249 6251 am
6832 6248 6254 am
6833 6256 6255 am
6834 6257 6256 am
6835 6258 6257 am
6836 6254 6255 am
6837 6253 6258 am
6838 6260 6259 1
6839 6261 6260 1
6840 6262 6261 am
6841 6257 6259 1
6842 6256 6262 am
6843 6264 6263 1
6844 6265 6264 am
6845 6266 6265 1
6846 6260 6263 1
6847 6259 6266 1
6848 6268 6267 am
6849 6269 6268 am
6850 6270 6269 am
6851 6262 6267 am
6852 6261 6270 am
6853 6272 6271 1
6854 6273 6272 am
6855 6274 6273 1
6856 6269 6271 1
6857 6268 6274 1
6858 6276 6275 1
6859 6277 6276 1
6860 6278 6277 am
6861 6273 6275 1
6862 6272 6278 am
6863 6280 6279 am
6864 6281 6280 am
6865 6282 6281 am
6866 6278 6279 am
6867 6277 6282 am
6868 6284 6283 1
6869 6285 6284 1
6870 6286 6285 1
6871 6282 6283 1
6872 6281 6286 1
6873 6288 6287 1
6874 6289 6288 am
6875 6280 6289 am
6876 6286 6287 1
6877 6291 6290 am
6878 6292 6291 am
6879 6293 6292 am
6880 6289 6290 am
6881 6288 6293 am
6882 6246 6294 1
6883 6294 6295 1
6884 6241 6296 1
6885 6245 6297 1
6886 6242 6298 1
6887 6251 6299 1
6888 6252 6300 1
6889 6258 6301 1
6890 6265 6302 1
6891 6264 6303 1
6892 6270 6304 1
6893 6267 6305 1
6894 6274 6306 2
6895 6271 6307 2
6896 6293 6308 1
6897 6292 6309 1
6898 6247 6310 1
6899 6247 6311 1
6900 6250 6312 1
6901 6250 6313 1
6902 6255 6314 1
6903 6263 6315 1
6904 6263 6316 1
6905 6264 6317 1
6906 6265 6318 1
6907 6266 6319 1
6908 6266 6320 1
6909 6275 6321 1
6910 6275 6322 1
6911 6276 6323 1
6912 6276 6324 1
6913 6283 6325 1
6914 6283 6326 1
6915 6284 6327 1
6916 6284 6328 1
6917 6285 6329 1
6918 6285 6330 1
6919 6286 6331 1
6920 6287 6332 1
6921 6287 6333 1
6922 6290 6334 1
6923 6291 6335 1
6924 6294 6336 1
6925 6294 6337 1
6926 6295 6338 1
6927 6295 6339 1
6928 6295 6340 1
6929 6296 6341 1
6930 6296 6342 1
6931 6296 6343 1
6932 6297 6344 1
6933 6297 6345 1
6934 6297 6346 1
6935 6298 6347 1
6936 6298 6348 1
6937 6298 6349 1
6938 6299 6350 1
6939 6299 6351 1
6940 6299 6352 1
6941 6300 6353 1
6942 6300 6354 1
6943 6300 6355 1
6944 6301 6356 1
6945 6302 6357 1
6946 6302 6358 1
6947 6302 6359 1
6948 6303 6360 1
6949 6303 6361 1
6950 6303 6362 1
6951 6304 6363 1
6952 6305 6364 1
6953 6308 6365 1
6954 6308 6366 1
6955 6308 6367 1
6956 6309 6368 1
6957 6309 6369 1
6958 6309 6370 1
6959 6373 6372 am
6960 6374 6373 am
6961 6375 6374 am
6962 6376 6375 am
6963 6371 6372 am
6964 6371 6376 am
6965 6378 6377 1
6966 6379 6378 am
6967 6380 6379 1
6968 6374 6377 1
6969 6373 6380 1
6970 6382 6381 am
6971 6383 6382 am
6972 6384 6383 am
6973 6379 6381 am
6974 6378 6384 am
6975 6386 6385 am
6976 6387 6386 am
6977 6388 6387 am
6978 6384 6385 am
6979 6383 6388 am
6980 6390 6389 1
6981 6391 6390 1
6982 6392 6391 am
6983 6387 6389 1
6984 6386 6392 am
6985 6394 6393 1
6986 6395 6394 am
6987 6396 6395 1
6988 6390 6393 1
6989 6389 6396 1
6990 6398 6397 am
6991 6399 6398 am
6992 6400 6399 am
6993 6392 6397 am
6994 6391 6400 am
6995 6402 6401 1
6996 6403 6402 am
6997 6404 6403 1
6998 6399 6401 1
6999 6398 6404 1
7000 6406 6405 1
7001 6407 6406 1
7002 6408 6407 am
7003 6403 6405 1
7004 6402 6408 am
7005 6410 6409 am
7006 6411 6410 am
7007 6412 6411 am
7008 6408 6409 am
7009 6407 6412 am
7010 6414 6413 1
7011 6415 6414 1
7012 6416 6415 1
7013 6412 6413 1
7014 6411 6416 1
7015 6418 6417 1
7016 6419 6418 am
7017 6410 6419 am
7018 6416 6417 1
7019 6421 6420 am
7020 6422 6421 am
7021 6423 6422 am
7022 6419 6420 am
7023 6418 6423 am
7024 6376 6424 1
7025 6424 6425 1
7026 6371 6426 1
7027 6375 6427 1
7028 6372 6428 1
7029 6381 6429 1
7030 6382 6430 1
7031 6388 6431 1
7032 6395 6432 1
7033 6394 6433 1
7034 6400 6434 1
7035 6397 6435 1
7036 6404 6436 2
7037 6401 6437 2
7038 6423 6438 1
7039 6422 6439 1
7040 6377 6440 1
7041 6377 6441 1
7042 6380 6442 1
7043 6380 6443 1
7044 6385 6444 1
7045 6393 6445 1
7046 6393 6446 1
7047 6394 6447 1
7048 6395 6448 1
7049 6396 6449 1
7050 6396 6450 1
7051 6405 6451 1
7052 6405 6452 1
7053 6406 6453 1
7054 6406 6454 1
7055 6413 6455 1
7056 6413 6456 1
7057 6414 6457 1
7058 6414 6458 1
7059 6415 6459 1
7060 6415 6460 1
7061 6416 6461 1
7062 6417 6462 1
7063 6417 6463 1
7064 6420 6464 1
7065 6421 6465 1
7066 6424 6466 1
7067 6424 6467 1
7068 6425 6468 1
7069 6425 6469 1
7070 6425 6470 1
7071 6426 6471 1
7072 6426 6472 1
7073 6426 6473 1
7074 6427 6474 1
7075 6427 6475 1
7076 6427 6476 1
7077 6428 6477 1
7078 6428 6478 1
7079 6428 6479 1
7080 6429 6480 1
7081 6429 6481 1
7082 6429 6482 1
7083 6430 6483 1
7084 6430 6484 1
7085 6430 6485 1
7086 6431 6486 1
7087 6432 6487 1
7088 6432 6488 1
7089 6432 6489 1
7090 6433 6490 1
7091 6433 6491 1
7092 6433 6492 1
7093 6434 6493 1
7094 6435 6494 1
7095 6438 6495 1
7096 6438 6496 1
7097 6438 6497 1
7098 6439 6498 1
7099 6439 6499 1
7100 6439 6500 1
7101 6503 6502 am
7102 6504 6503 am
7103 6505 6504 am
7104 6506 6505 am
7105 6501 6502 am
7106 6501 6506 am
7107 6508 6507 1
7108 6509 6508 am
7109 6510 6509 1
7110 6504 6507 1
7111 6503 6510 1
7112 6512 6511 am
7113 6513 6512 am
7114 6514 6513 am
7115 6509 6511 am
7116 6508 6514 am
7117 6516 6515 am
7118 6517 6516 am
7119 6518 6517 am
7120 6514 6515 am
7121 6513 6518 am
7122 6520 6519 1
7123 6521 6520 1
7124 6522 6521 am
7125 6517 6519 1
7126 6516 6522 am
7127 6524 6523 1
7128 6525 6524 am
7129 6526 6525 1
7130 6520 6523 1
7131 6519 6526 1
7132 6528 6527 am
7133 6529 6528 am
7134 6530 6529 am
7135 6522 6527 am
7136 6521 6530 am
7137 6532 6531 1
7138 6533 6532 am
7139 6534 6533 1
7140 6529 6531 1
7141 6528 6534 1
7142 6536 6535 1
7143 6537 6536 1
7144 6538 6537 am
7145 6533 6535 1
7146 6532 6538 am
7147 6540 6539 am
7148 6541 6540 am
7149 6542 6541 am
7150 6538 6539 am
7151 6537 6542 am
7152 6544 6543 1
7153 6545 6544 1
7154 6546 6545 1
7155 6542 6543 1
7156 6541 6546 1
7157 6548 6547 1
7158 6549 6548 am
7159 6540 6549 am
7160 6546 6547 1
7161 6551 6550 am
7162 6552 6551 am
7163 6553 6552 am
7164 6549 6550 am
7165 6548 6553 am
7166 6506 6554 1
7167 6554 6555 1
7168 6501 6556 1
7169 6505 6557 1
7170 6502 6558 1
7171 6511 6559 1
7172 6512 6560 1
7173 6518 6561 1
7174 6525 6562 1
7175 6524 6563 1
7176 6530 6564 1
7177 6527 6565 1
7178 6534 6566 2
7179 6531 6567 2
7180 6553 6568 1
7181 6552 6569 1
7182 6507 6570 1
7183 6507 6571 1
7184 6510 6572 1
7185 6510 6573 1
7186 6515 6574 1
7187 6523 6575 1
7188 6523 6576 1
7189 6524 6577 1
7190 6525 6578 1
7191 6526 6579 1
7192 6526 6580 1
7193 6535 6581 1
7194 6535 6582 1
7195 6536 6583 1
7196 6536 6584 1
7197 6543 6585 1
7198 6543 6586 1
7199 6544 6587 1
7200 6544 6588 1
7201 6545 6589 1
7202 6545 6590 1
7203 6546 6591 1
7204 6547 6592 1
7205 6547 6593 1
7206 6550 6594 1
7207 6551 6595 1
7208 6554 6596 1
7209 6554 6597 1
7210 6555 6598 1
7211 6555 6599 1
7212 6555 6600 1
7213 6556 6601 1
7214 6556 6602 1
7215 6556 6603 1
7216 6557 6604 1
7217 6557 6605 1
7218 6557 6606 1
7219 6558 6607 1
7220 6558 6608 1
7221 6558 6609 1
7222 6559 6610 1
7223 6559 6611 1
7224 6559 6612 1
7225 6560 6613 1
7226 6560 6614 1
7227 6560 6615 1
7228 6561 6616 1
7229 6562 6617 1
7230 6562 6618 1
7231 6562 6619 1
7232 6563 6620 1
7233 6563 6621 1
7234 6563 6622 1
7235 6564 6623 1
7236 6565 6624 1
7237 6568 6625 1
7238 6568 6626 1
7239 6568 6627 1
7240 6569 6628 1
7241 6569 6629 1
7242 6569 6630 1
7243 6633 6632 am
7244 6634 6633 am
7245 6635 6634 am
7246 6636 6635 am
7247 6631 6632 am
7248 6631 6636 am
7249 6638 6637 1
7250 6639 6638 am
7251 6640 6639 1
7252 6634 6637 1
7253 6633 6640 1
7254 6642 6641 am
7255 6643 6642 am
7256 6644 6643 am
7257 6639 6641 am
7258 6638 6644 am
7259 6646 6645 am
7260 6647 6646 am
7261 6648 6647 am
7262 6644 6645 am
7263 6643 6648 am
7264 6650 6649 1
7265 6651 6650 1
7266 6652 6651 am
7267 6647 6649 1
7268 6646 6652 am
7269 6654 6653 1
7270 6655 6654 am
7271 6656 6655 1
7272 6650 6653 1
7273 6649 6656 1
7274 6658 6657 am
7275 6659 6658 am
7276 6660 6659 am
7277 6652 6657 am
7278 6651 6660 am
7279 6662 6661 1
7280 6663 6662 am
7281 6664 6663 1
7282 6659 6661 1
7283 6658 6664 1
7284 6666 6665 1
7285 6667 6666 1
7286 6668 6667 am
7287 6663 6665 1
7288 6662 6668 am
7289 6670 6669 am
7290 6671 6670 am
7291 6672 6671 am
7292 6668 6669 am
7293 6667 6672 am
7294 6674 6673 1
7295 6675 6674 1
7296 6676 6675 1
7297 6672 6673 1
7298 6671 6676 1
7299 6678 6677 1
7300 6679 6678 am
7301 6670 6679 am
7302 6676 6677 1
7303 6681 6680 am
7304 6682 6681 am
7305 6683 6682 am
7306 6679 6680 am
7307 6678 6683 am
7308 6636 6684 1
7309 6684 6685 1
7310 6631 6686 1
7311 6635 6687 1
7312 6632 6688 1
7313 6641 6689 1
7314 6642 6690 1
7315 6648 6691 1
7316 6655 6692 1
7317 6654 6693 1
7318 6660 6694 1
7319 6657 6695 1
7320 6664 6696 2
7321 6661 6697 2
7322 6683 6698 1
7323 6682 6699 1
7324 6637 6700 1
7325 6637 6701 1
7326 6640 6702 1
7327 6640 6703 1
7328 6645 6704 1
7329 6653 6705 1
7330 6653 6706 1
7331 6654 6707 1
7332 6655 6708 1
7333 6656 6709 1
7334 6656 6710 1
7335 6665 6711 1
7336 6665 6712 1
7337 6666 6713 1
7338 6666 6714 1
7339 6673 6715 1
7340 6673 6716 1
7341 6674 6717 1
7342 6674 6718 1
7343 6675 6719 1
7344 6675 6720 1
7345 6676 6721 1
7346 6677 6722 1
7347 6677 6723 1
7348 6680 6724 1
7349 6681 6725 1
7350 6684 6726 1
7351 6684 6727 1
7352 6685 6728 1
7353 6685 6729 1
7354 6685 6730 1
7355 6686 6731 1
7356 6686 6732 1
7357 6686 6733 1
7358 6687 6734 1
7359 6687 6735 1
7360 6687 6736 1
7361 6688 6737 1
7362 6688 6738 1
7363 6688 6739 1
7364 6689 6740 1
7365 6689 6741 1
7366 6689 6742 1
7367 6690 6743 1
7368 6690 6744 1
7369 6690 6745 1
7370 6691 6746 1
7371 6692 6747 1
7372 6692 6748 1
7373 6692 6749 1
7374 6693 6750 1
7375 6693 6751 1
7376 6693 6752 1
7377 6694 6753 1
7378 6695 6754 1
7379 6698 6755 1
7380 6698 6756 1
7381 6698 6757 1
7382 6699 6758 1
7383 6699 6759 1
7384 6699 6760 1
7385 6763 6762 am
7386 6764 6763 am
7387 6765 6764 am
7388 6766 6765 am
7389 6761 6762 am
7390 6761 6766 am
7391 6768 6767 1
7392 6769 6768 am
7393 6770 6769 1
7394 6764 6767 1
7395 6763 6770 1
7396 6772 6771 am
7397 6773 6772 am
7398 6774 6773 am
7399 6769 6771 am
7400 6768 6774 am
7401 6776 6775 am
7402 6777 6776 am
7403 6778 6777 am
7404 6774 6775 am
7405 6773 6778 am
7406 6780 6779 1
7407 6781 6780 1
7408 6782 6781 am
7409 6777 6779 1
7410 6776 6782 am
7411 6784 6783 1
7412 6785 6784 am
7413 6786 6785 1
7414 6780 6783 1
7415 6779 6786 1
7416 6788 6787 am
7417 6789 6788 am
7418 6790 6789 am
7419 6782 6787 am
7420 6781 6790 am
7421 6792 6791 1
7422 6793 6792 am
7423 6794 6793 1
7424 6789 6791 1
7425 6788 6794 1
7426 6796 6795 1
7427 6797 6796 1
7428 6798 6797 am
7429 6793 6795 1
7430 6792 6798 am
7431 6800 6799 am
7432 6801 6800 am
7433 6802 6801 am
7434 6798 6799 am
7435 6797 6802 am
7436 6804 6803 1
7437 6805 6804 1
7438 6806 6805 1
7439 6802 6803 1
7440 6801 6806 1
7441 6808 6807 1
7442 6809 6808 am
7443 6800 6809 am
7444 6806 6807 1
7445 6811 6810 am
7446 6812 6811 am
7447 6813 6812 am
7448 6809 6810 am
7449 6808 6813 am
7450 6766 6814 1
7451 6814 6815 1
7452 6761 6816 1
7453 6765 6817 1
7454 6762 6818 1
7455 6771 6819 1
7456 6772 6820 1
7457 6778 6821 1
7458 6785 6822 1
7459 6784 6823 1
7460 6790 6824 1
7461 6787 6825 1
7462 6794 6826 2
7463 6791 6827 2
7464 6813 6828 1
7465 6812 6829 1
7466 6767 6830 1
7467 6767 6831 1
7468 6770 6832 1
7469 6770 6833 1
7470 6775 6834 1
7471 6783 6835 1
7472 6783 6836 1
7473 6784 6837 1
7474 6785 6838 1
7475 6786 6839 1
7476 6786 6840 1
7477 6795 6841 1
7478 6795 6842 1
7479 6796 6843 1
7480 6796 6844 1
7481 6803 6845 1
7482 6803 6846 1
7483 6804 6847 1
7484 6804 6848 1
7485 6805 6849 1
7486 6805 6850 1
7487 6806 6851 1
7488 6807 6852 1
7489 6807 6853 1
7490 6810 6854 1
7491 6811 6855 1
7492 6814 6856 1
7493 6814 6857 1
7494 6815 6858 1
7495 6815 6859 1
7496 6815 6860 1
7497 6816 6861 1
7498 6816 6862 1
7499 6816 6863 1
7500 6817 6864 1
7501 6817 6865 1
7502 6817 6866 1
7503 6818 6867 1
7504 6818 6868 1
7505 6818 6869 1
7506 6819 6870 1
7507 6819 6871 1
7508 6819 6872 1
7509 6820 6873 1
7510 6820 6874 1
7511 6820 6875 1
7512 6821 6876 1
7513 6822 6877 1
7514 6822 6878 1
7515 6822 6879 1
7516 6823 6880 1
7517 6823 6881 1
7518 6823 6882 1
7519 6824 6883 1
7520 6825 6884 1
7521 6828 6885 1
7522 6828 6886 1
7523 6828 6887 1
7524 6829 6888 1
7525 6829 6889 1
7526 6829 6890 1
7527 6893 6892 am
7528 6894 6893 am
7529 6895 6894 am
7530 6896 6895 am
7531 6891 6892 am
7532 6891 6896 am
7533 6898 6897 1
7534 6899 6898 am
7535 6900 6899 1
7536 6894 6897 1
7537 6893 6900 1
7538 6902 6901 am
7539 6903 6902 am
7540 6904 6903 am
7541 6899 6901 am
7542 6898 6904 am
7543 6906 6905 am
7544 6907 6906 am
7545 6908 6907 am
7546 6904 6905 am
7547 6903 6908 am
7548 6910 6909 1
7549 6911 6910 1
7550 6912 6911 am
7551 6907 6909 1
7552 6906 6912 am
7553 6914 6913 1
7554 6915 6914 am
7555 6916 6915 1
7556 6910 6913 1
7557 6909 6916 1
7558 6918 6917 am
7559 6919 6918 am
7560 6920 6919 am
7561 6912 6917 am
7562 6911 6920 am
7563 6922 6921 1
7564 6923 6922 am
7565 6924 6923 1
7566 6919 6921 1
7567 6918 6924 1
7568 6926 6925 1
7569 6927 6926 1
7570 6928 6927 am
7571 6923 6925 1
7572 6922 6928 am
7573 6930 6929 am
7574 6931 6930 am
7575 6932 6931 am
7576 6928 6929 am
7577 6927 6932 am
7578 6934 6933 1
7579 6935 6934 1
7580 6936 6935 1
7581 6932 6933 1
7582 6931 6936 1
7583 6938 6937 1
7584 6939 6938 am
7585 6930 6939 am
7586 6936 6937 1
7587 6941 6940 am
7588 6942 6941 am
7589 6943 6942 am
7590 6939 6940 am
7591 6938 6943 am
7592 6896 6944 1
7593 6944 6945 1
7594 6891 6946 1
7595 6895 6947 1
7596 6892 6948 1
7597 6901 6949 1
7598 6902 6950 1
7599 6908 6951 1
7600 6915 6952 1
7601 6914 6953 1
7602 6920 6954 1
7603 6917 6955 1
7604 6924 6956 2
7605 6921 6957 2
7606 6943 6958 1
7607 6942 6959 1
7608 6897 6960 1
7609 6897 6961 1
7610 6900 6962 1
7611 6900 6963 1
7612 6905 6964 1
7613 6913 6965 1
7614 6913 6966 1
7615 6914 6967 1
7616 6915 6968 1
7617 6916 6969 1
7618 6916 6970 1
7619 6925 6971 1
7620 6925 6972 1
7621 6926 6973 1
7622 6926 6974 1
7623 6933 6975 1
7624 6933 6976 1
7625 6934 6977 1
7626 6934 6978 1
7627 6935 6979 1
7628 6935 6980 1
7629 6936 6981 1
7630 6937 6982 1
7631 6937 6983 1
7632 6940 6984 1
7633 6941 6985 1
7634 6944 6986 1
7635 6944 6987 1
7636 6945 6988 1
7637 6945 6989 1
7638 6945 6990 1
7639 6946 6991 1
7640 6946 6992 1
7641 6946 6993 1
7642 6947 6994 1
7643 6947 6995 1
7644 6947 6996 1
7645 6948 6997 1
7646 6948 6998 1
7647 6948 6999 1
7648 6949 7000 1
7649 6949 7001 1
7650 6949 7002 1
7651 6950 7003 1
7652 6950 7004 1
7653 6950 7005 1
7654 6951 7006 1
7655 6952 7007 1
7656 6952 7008 1
7657 6952 7009 1
7658 6953 7010 1
7659 6953 7011 1
7660 6953 7012 1
7661 6954 7013 1
7662 6955 7014 1
7663 6958 7015 1
7664 6958 7016 1
7665 6958 7017 1
7666 6959 7018 1
7667 6959 7019 1
7668 6959 7020 1
7669 7023 7022 am
7670 7024 7023 am
7671 7025 7024 am
7672 7026 7025 am
7673 7021 7022 am
7674 7021 7026 am
7675 7028 7027 1
7676 7029 7028 am
7677 7030 7029 1
7678 7024 7027 1
7679 7023 7030 1
7680 7032 7031 am
7681 7033 7032 am
7682 7034 7033 am
7683 7029 7031 am
7684 7028 7034 am
7685 7036 7035 am
7686 7037 7036 am
7687 7038 7037 am
7688 7034 7035 am
7689 7033 7038 am
7690 7040 7039 1
7691 7041 7040 1
7692 7042 7041 am
7693 7037 7039 1
7694 7036 7042 am
7695 7044 7043 1
7696 7045 7044 am
7697 7046 7045 1
7698 7040 7043 1
7699 7039 7046 1
7700 7048 7047 am
7701 7049 7048 am
7702 7050 7049 am
7703 7042 7047 am
7704 7041 7050 am
7705 7052 7051 1
7706 7053 7052 am
7707 7054 7053 1
7708 7049 7051 1
7709 7048 7054 1
7710 7056 7055 1
7711 7057 7056 1
7712 7058 7057 am
7713 7053 7055 1
7714 7052 7058 am
7715 7060 7059 am
7716 7061 7060 am
7717 7062 7061 am
7718 7058 7059 am
7719 7057 7062 am
7720 7064 7063 1
7721 7065 7064 1
7722 7066 7065 1
7723 7062 7063 1
7724 7061 7066 1
7725 7068 7067 1
7726 7069 7068 am
7727 7060 7069 am
7728 7066 7067 1
7729 7071 7070 am
7730 7072 7071 am
7731 7073 7072 am
7732 7069 7070 am
7733 7068 7073 am
7734 7026 7074 1
7735 7074 7075 1
7736 7021 7076 1
7737 7025 7077 1
7738 7022 7078 1
7739 7031 7079 1
7740 7032 7080 1
7741 7038 7081 1
7742 7045 7082 1
7743 7044 7083 1
7744 7050 7084 1
7745 7047 7085 1
7746 7054 7086 2
7747 7051 7087 2
7748 7073 7088 1
7749 7072 7089 1
7750 7027 7090 1
7751 7027 7091 1
7752 7030 7092 1
7753 7030 7093 1
7754 7035 7094 1
7755 7043 7095 1
7756 7043 7096 1
7757 7044 7097 1
7758 7045 7098 1
7759 7046 7099 1
7760 7046 7100 1
7761 7055 7101 1
7762 7055 7102 1
7763 7056 7103 1
7764 7056 7104 1
7765 7063 7105 1
7766 7063 7106 1
7767 7064 7107 1
7768 7064 7108 1
7769 7065 7109 1
7770 7065 7110 1
7771 7066 7111 1
7772 7067 7112 1
7773 7067 7113 1
7774 7070 7114 1
7775 7071 7115 1
7776 7074 7116 1
7777 7074 7117 1
7778 7075 7118 1
7779 7075 7119 1
7780 7075 7120 1
7781 7076 7121 1
7782 7076 7122 1
7783 7076 7123 1
7784 7077 7124 1
7785 7077 7125 1
7786 7077 7126 1
7787 7078 7127 1
7788 7078 7128 1
7789 7078 7129 1
7790 7079 7130 1
7791 7079 7131 1
7792 7079 7132 1
7793 7080 7133 1
7794 7080 7134 1
7795 7080 7135 1
7796 7081 7136 1
7797 7082 7137 1
7798 7082 7138 1
7799 7082 7139 1
7800 7083 7140 1
7801 7083 7141 1
7802 7083 7142 1
7803 7084 7143 1
7804 7085 7144 1
7805 7088 7145 1
7806 7088 7146 1
7807 7088 7147 1
7808 7089 7148 1
7809 7089 7149 1
7810 7089 7150 1
7811 7153 7152 am
7812 7154 7153 am
7813 7155 7154 am
7814 7156 7155 am
7815 7151 7152 am
7816 7151 7156 am
7817 7158 7157 1
7818 7159 7158 am
7819 7160 7159 1
7820 7154 7157 1
7821 7153 7160 1
7822 7162 7161 am
7823 7163 7162 am
7824 7164 7163 am
7825 7159 7161 am
7826 7158 7164 am
7827 7166 7165 am
7828 7167 7166 am
7829 7168 7167 am
7830 7164 7165 am
7831 7163 7168 am
7832 7170 7169 1
7833 7171 7170 1
7834 7172 7171 am
7835 7167 7169 1
7836 7166 7172 am
7837 7174 7173 1
7838 7175 7174 am
7839 7176 7175 1
7840 7170 7173 1
7841 7169 7176 1
7842 7178 7177 am
7843 7179 7178 am
7844 7180 7179 am
7845 7172 7177 am
7846 7171 7180 am
7847 7182 7181 1
7848 7183 7182 am
7849 7184 7183 1
7850 7179 7181 1
7851 7178 7184 1
7852 7186 7185 1
7853 7187 7186 1
7854 7188 7187 am
7855 7183 7185 1
7856 7182 7188 am
7857 7190 7189 am
7858 7191 7190 am
7859 7192 7191 am
7860 7188 7189 am
7861 7187 7192 am
7862 7194 7193 1
7863 7195 7194 1
7864 7196 7195 1
7865 7192 7193 1
7866 7191 7196 1
7867 7198 7197 1
7868 7199 7198 am
7869 7190 7199 am
7870 7196 7197 1
7871 7201 7200 am
7872 7202 7201 am
7873 7203 7202 am
7874 7199 7200 am
7875 7198 7203 am
7876 7156 7204 1
7877 7204 7205 1
7878 7151 7206 1
7879 7155 7207 1
7880 7152 7208 1
7881 7161 7209 1
7882 7162 7210 1
7883 7168 7211 1
7884 7175 7212 1
7885 7174 7213 1
7886 7180 7214 1
7887 7177 7215 1
7888 7184 7216 2
7889 7181 7217 2
7890 7203 7218 1
7891 7202 7219 1
7892 7157 7220 1
7893 7157 7221 1
7894 7160 7222 1
7895 7160 7223 1
7896 7165 7224 1
7897 7173 7225 1
7898 7173 7226 1
7899 7174 7227 1
7900 7175 7228 1
7901 7176 7229 1
7902 7176 7230 1
7903 7185 7231 1
7904 7185 7232 1
7905 7186 7233 1
7906 7186 7234 1
7907 7193 7235 1
7908 7193 7236 1
7909 7194 7237 1
7910 7194 7238 1
7911 7195 7239 1
7912 7195 7240 1
7913 7196 7241 1
7914 7197 7242 1
7915 7197 7243 1
7916 7200 7244 1
7917 7201 7245 1
7918 7204 7246 1
7919 7204 7247 1
7920 7205 7248 1
7921 7205 7249 1
7922 7205 7250 1
7923 7206 7251 1
7924 7206 7252 1
7925 7206 7253 1
7926 7207 7254 1
7927 7207 7255 1
7928 7207 7256 1
7929 7208 7257 1
7930 7208 7258 1
7931 7208 7259 1
7932 7209 7260 1
7933 7209 7261 1
7934 7209 7262 1
7935 7210 7263 1
7936 7210 7264 1
7937 7210 7265 1
7938 7211 7266 1
7939 7212 7267 1
7940 7212 7268 1
7941 7212 7269 1
7942 7213 7270 1
7943 7213 7271 1
7944 7213 7272 1
7945 7214 7273 1
7946 7215 7274 1
7947 7218 7275 1
7948 7218 7276 1
7949 7218 7277 1
7950 7219 7278 1
7951 7219 7279 1
7952 7219 7280 1
7953 7283 7282 am
7954 7284 7283 am
7955 7285 7284 am
7956 7286 7285 am
7957 7281 7282 am
7958 7281 7286 am
7959 7288 7287 1
7960 7289 7288 am
7961 7290 7289 1
7962 7284 7287 1
7963 7283 7290 1
7964 7292 7291 am
7965 7293 7292 am
7966 7294 7293 am
7967 7289 7291 am
7968 7288 7294 am
7969 7296 7295 am
7970 7297 7296 am
7971 7298 7297 am
7972 7294 7295 am
7973 7293 7298 am
7974 7300 7299 1
7975 7301 7300 1
7976 7302 7301 am
7977 7297 7299 1
7978 7296 7302 am
7979 7304 7303 1
7980 7305 7304 am
7981 7306 7305 1
7982 7300 7303 1
7983 7299 7306 1
7984 7308 7307 am
7985 7309 7308 am
7986 7310 7309 am
7987 7302 7307 am
7988 7301 7310 am
7989 7312 7311 1
7990 7313 7312 am
7991 7314 7313 1
7992 7309 7311 1
7993 7308 7314 1
7994 7316 7315 1
7995 7317 7316 1
7996 7318 7317 am
7997 7313 7315 1
7998 7312 7318 am
7999 7320 7319 am
8000 7321 7320 am
8001 7322 7321 am
8002 7318 7319 am
8003 7317 7322 am
8004 7324 7323 1
8005 7325 7324 1
8006 7326 7325 1
8007 7322 7323 1
8008 7321 7326 1
8009 7328 7327 1
8010 7329 7328 am
8011 7320 7329 am
8012 7326 7327 1
8013 7331 7330 am
8014 7332 7331 am
8015 7333 7332 am
8016 7329 7330 am
8017 7328 7333 am
8018 7286 7334 1
8019 7334 7335 1
8020 7281 7336 1
8021 7285 7337 1
8022 7282 7338 1
8023 7291 7339 1
8024 7292 7340 1
8025 7298 7341 1
8026 7305 7342 1
8027 7304 7343 1
8028 7310 7344 1
8029 7307 7345 1
8030 7314 7346 2
8031 7311 7347 2
8032 7333 7348 1
8033 7332 7349 1
8034 7287 7350 1
8035 7287 7351 1
8036 7290 7352 1
8037 7290 7353 1
8038 7295 7354 1
8039 7303 7355 1
8040 7303 7356 1
8041 7304 7357 1
8042 7305 7358 1
8043 7306 7359 1
8044 7306 7360 1
8045 7315 7361 1
8046 7315 7362 1
8047 7316 7363 1
8048 7316 7364 1
8049 7323 7365 1
8050 7323 7366 1
8051 7324 7367 1
8052 7324 7368 1
8053 7325 7369 1
8054 7325 7370 1
8055 7326 7371 1
8056 7327 7372 1
8057 7327 7373 1
8058 7330 7374 1
8059 7331 7375 1
8060 7334 7376 1
8061 7334 7377 1
8062 7335 7378 1
8063 7335 7379 1
8064 7335 7380 1
8065 7336 7381 1
8066 7336 7382 1
8067 7336 7383 1
8068 7337 7384 1
8069 7337 7385 1
8070 7337 7386 1
8071 7338 7387 1
8072 7338 7388 1
8073 7338 7389 1
8074 7339 7390 1
8075 7339 7391 1
8076 7339 7392 1
8077 7340 7393 1
8078 7340 7394 1
8079 7340 7395 1
8080 7341 7396 1
8081 7342 7397 1
8082 7342 7398 1
8083 7342 7399 1
8084 7343 7400 1
8085 7343 7401 1
8086 7343 7402 1
8087 7344 7403 1
8088 7345 7404 1
8089 7348 7405 1
8090 7348 7406 1
8091 7348 7407 1
8092 7349 7408 1
8093 7349 7409 1
8094 7349 7410 1
8095 7413 7412 am
8096 7414 7413 am
8097 7415 7414 am
8098 7416 7415 am
8099 7411 7412 am
8100 7411 7416 am
8101 7418 7417 1
8102 7419 7418 am
8103 7420 7419 1
8104 7414 7417 1
8105 7413 7420 1
8106 7422 7421 am
8107 7423 7422 am
8108 7424 7423 am
8109 7419 7421 am
8110 7418 7424 am
8111 7426 7425 am
8112 7427 7426 am
8113 7428 7427 am
8114 7424 7425 am
8115 7423 7428 am
8116 7430 7429 1
8117 7431 7430 1
8118 7432 7431 am
8119 7427 7429 1
8120 7426 7432 am
8121 7434 7433 1
8122 7435 7434 am
8123 7436 7435 1
8124 7430 7433 1
8125 7429 7436 1
8126 7438 7437 am
8127 7439 7438 am
8128 7440 7439 am
8129 7432 7437 am
8130 7431 7440 am
8131 7442 7441 1
8132 7443 7442 am
8133 7444 7443 1
8134 7439 7441 1
8135 7438 7444 1
8136 7446 7445 1
8137 7447 7446 1
8138 7448 7447 am
8139 7443 7445 1
8140 7442 7448 am
8141 7450 7449 am
8142 7451 7450 am
8143 7452 7451 am
8144 7448 7449 am
8145 7447 7452 am
8146 7454 7453 1
8147 7455 7454 1
8148 7456 7455 1
8149 7452 7453 1
8150 7451 7456 1
8151 7458 7457 1
8152 7459 7458 am
8153 7450 7459 am
8154 7456 7457 1
8155 7461 7460 am
8156 7462 7461 am
8157 7463 7462 am
8158 7459 7460 am
8159 7458 7463 am
8160 7416 7464 1
8161 7464 7465 1
8162 7411 7466 1
8163 7415 7467 1
8164 7412 7468 1
8165 7421 7469 1
8166 7422 7470 1
8167 7428 7471 1
8168 7435 7472 1
8169 7434 7473 1
8170 7440 7474 1
8171 7437 7475 1
8172 7444 7476 2
8173 7441 7477 2
8174 7463 7478 1
8175 7462 7479 1
8176 7417 7480 1
8177 7417 7481 1
8178 7420 7482 1
8179 7420 7483 1
8180 7425 7484 1
8181 7433 7485 1
8182 7433 7486 1
8183 7434 7487 1
8184 7435 7488 1
8185 7436 7489 1
8186 7436 7490 1
8187 7445 7491 1
8188 7445 7492 1
8189 7446 7493 1
8190 7446 7494 1
8191 7453 7495 1
8192 7453 7496 1
8193 7454 7497 1
8194 7454 7498 1
8195 7455 7499 1
8196 7455 7500 1
8197 7456 7501 1
8198 7457 7502 1
8199 7457 7503 1
8200 7460 7504 1
8201 7461 7505 1
8202 7464 7506 1
8203 7464 7507 1
8204 7465 7508 1
8205 7465 7509 1
8206 7465 7510 1
8207 7466 7511 1
8208 7466 7512 1
8209 7466 7513 1
8210 7467 7514 1
8211 7467 7515 1
8212 7467 7516 1
8213 7468 7517 1
8214 7468 7518 1
8215 7468 7519 1
8216 7469 7520 1
8217 7469 7521 1
8218 7469 7522 1
8219 7470 7523 1
8220 7470 7524 1
8221 7470 7525 1
8222 7471 7526 1
8223 7472 7527 1
8224 7472 7528 1
8225 7472 7529 1
8226 7473 7530 1
8227 7473 7531 1
8228 7473 7532 1
8229 7474 7533 1
8230 7475 7534 1
8231 7478 7535 1
8232 7478 7536 1
8233 7478 7537 1
8234 7479 7538 1
8235 7479 7539 1
8236 7479 7540 1
8237 7543 7542 am
8238 7544 7543 am
8239 7545 7544 am
8240 7546 7545 am
8241 7541 7542 am
8242 7541 7546 am
8243 7548 7547 1
8244 7549 7548 am
8245 7550 7549 1
8246 7544 7547 1
8247 7543 7550 1
8248 7552 7551 am
8249 7553 7552 am
8250 7554 7553 am
8251 7549 7551 am
8252 7548 7554 am
8253 7556 7555 am
8254 7557 7556 am
8255 7558 7557 am
8256 7554 7555 am
8257 7553 7558 am
8258 7560 7559 1
8259 7561 7560 1
8260 7562 7561 am
8261 7557 7559 1
8262 7556 7562 am
8263 7564 7563 1
8264 7565 7564 am
8265 7566 7565 1
8266 7560 7563 1
8267 7559 7566 1
8268 7568 7567 am
8269 7569 7568 am
8270 7570 7569 am
8271 7562 7567 am
8272 7561 7570 am
8273 7572 7571 1
8274 7573 7572 am
8275 7574 7573 1
8276 7569 7571 1
8277 7568 7574 1
8278 7576 7575 1
8279 7577 7576 1
8280 7578 7577 am
8281 7573 7575 1
8282 7572 7578 am
8283 7580 7579 am
8284 7581 7580 am
8285 7582 7581 am
8286 7578 7579 am
8287 7577 7582 am
8288 7584 7583 1
8289 7585 7584 1
8290 7586 7585 1
8291 7582 7583 1
8292 7581 7586 1
8293 7588 7587 1
8294 7589 7588 am
8295 7580 7589 am
8296 7586 7587 1
8297 7591 7590 am
8298 7592 7591 am
8299 7593 7592 am
8300 7589 7590 am
8301 7588 7593 am
8302 7546 7594 1
8303 7594 7595 1
8304 7541 7596 1
8305 7545 7597 1
8306 7542 7598 1
8307 7551 7599 1
8308 7552 7600 1
8309 7558 7601 1
8310 7565 7602 1
8311 7564 7603 1
8312 7570 7604 1
8313 7567 7605 1
8314 7574 7606 2
8315 7571 7607 2
8316 7593 7608 1
8317 7592 7609 1
8318 7547 7610 1
8319 7547 7611 1
8320 7550 7612 1
8321 7550 7613 1
8322 7555 7614 1
8323 7563 7615 1
8324 7563 7616 1
8325 7564 7617 1
8326 7565 7618 1
8327 7566 7619 1
8328 7566 7620 1
8329 7575 7621 1
8330 7575 7622 1
8331 7576 7623 1
8332 7576 7624 1
8333 7583 7625 1
8334 7583 7626 1
8335 7584 7627 1
8336 7584 7628 1
8337 7585 7629 1
8338 7585 7630 1
8339 7586 7631 1
8340 7587 7632 1
8341 7587 7633 1
8342 7590 7634 1
8343 7591 7635 1
8344 7594 7636 1
8345 7594 7637 1
8346 7595 7638 1
8347 7595 7639 1
8348 7595 7640 1
8349 7596 7641 1
8350 7596 7642 1
8351 7596 7643 1
8352 7597 7644 1
8353 7597 7645 1
8354 7597 7646 1
8355 7598 7647 1
8356 7598 7648 1
8357 7598 7649 1
8358 7599 7650 1
8359 7599 7651 1
8360 7599 7652 1
8361 7600 7653 1
8362 7600 7654 1
8363 7600 7655 1
8364 7601 7656 1
8365 7602 7657 1
8366 7602 7658 1
8367 7602 7659 1
8368 7603 7660 1
8369 7603 7661 1
8370 7603 7662 1
8371 7604 7663 1
8372 7605 7664 1
8373 7608 7665 1
8374 7608 7666 1
8375 7608 7667 1
8376 7609 7668 1
8377 7609 7669 1
8378 7609 7670 1
8379 7673 7672 am
8380 7674 7673 am
8381 7675 7674 am
8382 7676 7675 am
8383 7671 7672 am
8384 7671 7676 am
8385 7678 7677 1
8386 7679 7678 am
8387 7680 7679 1
8388 7674 7677 1
8389 7673 7680 1
8390 7682 7681 am
8391 7683 7682 am
8392 7684 7683 am
8393 7679 7681 am
8394 7678 7684 am
8395 7686 7685 am
8396 7687 7686 am
8397 7688 7687 am
8398 7684 7685 am
8399 7683 7688 am
8400 7690 7689 1
8401 7691 7690 1
8402 7692 7691 am
8403 7687 7689 1
8404 7686 7692 am
8405 7694 7693 1
8406 7695 7694 am
8407 7696 7695 1
8408 7690 7693 1
8409 7689 7696 1
8410 7698 7697 am
8411 7699 7698 am
8412 7700 7699 am
8413 7692 7697 am
8414 7691 7700 am
8415 7702 7701 1
8416 7703 7702 am
8417 7704 7703 1
8418 7699 7701 1
8419 7698 7704 1
8420 7706 7705 1
8421 7707 7706 1
8422 7708 7707 am
8423 7703 7705 1
8424 7702 7708 am
8425 7710 7709 am
8426 7711 7710 am
8427 7712 7711 am
8428 7708 7709 am
8429 7707 7712 am
8430 7714 7713 1
8431 7715 7714 1
8432 7716 7715 1
8433 7712 7713 1
8434 7711 7716 1
8435 7718 7717 1
8436 7719 7718 am
8437 7710 7719 am
8438 7716 7717 1
8439 7721 7720 am
8440 7722 7721 am
8441 7723 7722 am
8442 7719 7720 am
8443 7718 7723 am
8444 7676 7724 1
8445 7724 7725 1
8446 7671 7726 1
8447 7675 7727 1
8448 7672 7728 1
8449 7681 7729 1
8450 7682 7730 1
8451 7688 7731 1
8452 7695 7732 1
8453 7694 7733 1
8454 7700 7734 1
8455 7697 7735 1
8456 7704 7736 2
8457 7701 7737 2
8458 7723 7738 1
8459 7722 7739 1
8460 7677 7740 1
8461 7677 7741 1
8462 7680 7742 1
8463 7680 7743 1
8464 7685 7744 1
8465 7693 7745 1
8466 7693 7746 1
8467 7694 7747 1
8468 7695 7748 1
8469 7696 7749 1
8470 7696 7750 1
8471 7705 7751 1
8472 7705 7752 1
8473 7706 7753 1
8474 7706 7754 1
8475 7713 7755 1
8476 7713 7756 1
8477 7714 7757 1
8478 7714 7758 1
8479 7715 7759 1
8480 7715 7760 1
8481 7716 7761 1
8482 7717 7762 1
8483 7717 7763 1
8484 7720 7764 1
8485 7721 7765 1
8486 7724 7766 1
8487 7724 7767 1
8488 7725 7768 1
8489 7725 7769 1
8490 7725 7770 1
8491 7726 7771 1
8492 7726 7772 1
8493 7726 7773 1
8494 7727 7774 1
8495 7727 7775 1
8496 7727 7776 1
8497 7728 7777 1
8498 7728 7778 1
8499 7728 7779 1
8500 7729 7780 1
8501 7729 7781 1
8502 7729 7782 1
8503 7730 7783 1
8504 7730 7784 1
8505 7730 7785 1
8506 7731 7786 1
8507 7732 7787 1
8508 7732 7788 1
8509 7732 7789 1
8510 7733 7790 1
8511 7733 7791 1
8512 7733 7792 1
8513 7734 7793 1
8514 7735 7794 1
8515 7738 7795 1
8516 7738 7796 1
8517 7738 7797 1
8518 7739 7798 1
8519 7739 7799 1
8520 7739 7800 1
8521 7803 7802 am
8522 7804 7803 am
8523 7805 7804 am
8524 7806 7805 am
8525 7801 7802 am
8526 7801 7806 am
8527 7808 7807 1
8528 7809 7808 am
8529 7810 7809 1
8530 7804 7807 1
8531 7803 7810 1
8532 7812 7811 am
8533 7813 7812 am
8534 7814 7813 am
8535 7809 7811 am
8536 7808 7814 am
8537 7816 7815 am
8538 7817 7816 am
8539 7818 7817 am
8540 7814 7815 am
8541 7813 7818 am
8542 7820 7819 1
8543 7821 7820 1
8544 7822 7821 am
8545 7817 7819 1
8546 7816 7822 am
8547 7824 7823 1
8548 7825 7824 am
8549 7826 7825 1
8550 7820 7823 1
8551 7819 7826 1
8552 7828 7827 am
8553 7829 7828 am
8554 7830 7829 am
8555 7822 7827 am
8556 7821 7830 am
8557 7832 7831 1
8558 7833 7832 am
8559 7834 7833 1
8560 7829 7831 1
8561 7828 7834 1
8562 7836 7835 1
8563 7837 7836 1
8564 7838 7837 am
8565 7833 7835 1
8566 7832 7838 am
8567 7840 7839 am
8568 7841 7840 am
8569 7842 7841 am
8570 7838 7839 am
8571 7837 7842 am
8572 7844 7843 1
8573 7845 7844 1
8574 7846 7845 1
8575 7842 7843 1
8576 7841 7846 1
8577 7848 7847 1
8578 7849 7848 am
8579 7840 7849 am
8580 7846 7847 1
8581 7851 7850 am
8582 7852 7851 am
8583 7853 7852 am
8584 7849 7850 am
8585 7848 7853 am
8586 7806 7854 1
8587 7854 7855 1
8588 7801 7856 1
8589 7805 7857 1
8590 7802 7858 1
8591 7811 7859 1
8592 7812 7860 1
8593 7818 7861 1
8594 7825 7862 1
8595 7824 7863 1
8596 7830 7864 1
8597 7827 7865 1
8598 7834 7866 2
8599 7831 7867 2
8600 7853 7868 1
8601 7852 7869 1
8602 7807 7870 1
8603 7807 7871 1
8604 7810 7872 1
8605 7810 7873 1
8606 7815 7874 1
8607 7823 7875 1
8608 7823 7876 1
8609 7824 7877 1
8610 7825 7878 1
8611 7826 7879 1
8612 7826 7880 1
8613 7835 7881 1
8614 7835 7882 1
8615 7836 7883 1
8616 7836 7884 1
8617 7843 7885 1
8618 7843 7886 1
8619 7844 7887 1
8620 7844 7888 1
8621 7845 7889 1
8622 7845 7890 1
8623 7846 7891 1
8624 7847 7892 1
8625 7847 7893 1
8626 7850 7894 1
8627 7851 7895 1
8628 7854 7896 1
8629 7854 7897 1
8630 7855 7898 1
8631 7855 7899 1
8632 7855 7900 1
8633 7856 7901 1
8634 7856 7902 1
8635 7856 7903 1
8636 7857 7904 1
8637 7857 7905 1
8638 7857 7906 1
8639 7858 7907 1
8640 7858 7908 1
8641 7858 7909 1
8642 7859 7910 1
8643 7859 7911 1
8644 7859 7912 1
8645 7860 7913 1
8646 7860 7914 1
8647 7860 7915 1
8648 7861 7916 1
8649 7862 7917 1
8650 7862 7918 1
8651 7862 7919 1
8652 7863 7920 1
8653 7863 7921 1
8654 7863 7922 1
8655 7864 7923 1
8656 7865 7924 1
8657 7868 7925 1
8658 7868 7926 1
8659 7868 7927 1
8660 7869 7928 1
8661 7869 7929 1
8662 7869 7930 1
8663 7933 7932 am
8664 7934 7933 am
8665 7935 7934 am
8666 7936 7935 am
8667 7931 7932 am
8668 7931 7936 am
8669 7938 7937 1
8670 7939 7938 am
8671 7940 7939 1
8672 7934 7937 1
8673 7933 7940 1
8674 7942 7941 am
8675 7943 7942 am
8676 7944 7943 am
8677 7939 7941 am
8678 7938 7944 am
8679 7946 7945 am
8680 7947 7946 am
8681 7948 7947 am
8682 7944 7945 am
8683 7943 7948 am
8684 7950 7949 1
8685 7951 7950 1
8686 7952 7951 am
8687 7947 7949 1
8688 7946 7952 am
8689 7954 7953 1
8690 7955 7954 am
8691 7956 7955 1
8692 7950 7953 1
8693 7949 7956 1
8694 7958 7957 am
8695 7959 7958 am
8696 7960 7959 am
8697 7952 7957 am
8698 7951 7960 am
8699 7962 7961 1
8700 7963 7962 am
8701 7964 7963 1
8702 7959 7961 1
8703 7958 7964 1
8704 7966 7965 1
8705 7967 7966 1
8706 7968 7967 am
8707 7963 7965 1
8708 7962 7968 am
8709 7970 7969 am
8710 7971 7970 am
8711 7972 7971 am
8712 7968 7969 am
8713 7967 7972 am
8714 7974 7973 1
8715 7975 7974 1
8716 7976 7975 1
8717 7972 7973 1
8718 7971 7976 1
8719 7978 7977 1
8720 7979 7978 am
8721 7970 7979 am
8722 7976 7977 1
8723 7981 7980 am
8724 7982 7981 am
8725 7983 7982 am
8726 7979 7980 am
8727 7978 7983 am
8728 7936 7984 1
8729 7984 7985 1
8730 7931 7986 1
8731 7935 7987 1
8732 7932 7988 1
8733 7941 7989 1
8734 7942 7990 1
8735 7948 7991 1
8736 7955 7992 1
8737 7954 7993 1
8738 7960 7994 1
8739 7957 7995 1
8740 7964 7996 2
8741 7961 7997 2
8742 7983 7998 1
8743 7982 7999 1
8744 7937 8000 1
8745 7937 8001 1
8746 7940 8002 1
8747 7940 8003 1
8748 7945 8004 1
8749 7953 8005 1
8750 7953 8006 1
8751 7954 8007 1
8752 7955 8008 1
8753 7956 8009 1
8754 7956 8010 1
8755 7965 8011 1
8756 7965 8012 1
8757 7966 8013 1
8758 7966 8014 1
8759 7973 8015 1
8760 7973 8016 1
8761 7974 8017 1
8762 7974 8018 1
8763 7975 8019 1
8764 7975 8020 1
8765 7976 8021 1
8766 7977 8022 1
8767 7977 8023 1
8768 7980 8024 1
8769 7981 8025 1
8770 7984 8026 1
8771 7984 8027 1
8772 7985 8028 1
8773 7985 8029 1
8774 7985 8030 1
8775 7986 8031 1
8776 7986 8032 1
8777 7986 8033 1
8778 7987 8034 1
8779 7987 8035 1
8780 7987 8036 1
8781 7988 8037 1
8782 7988 8038 1
8783 7988 8039 1
8784 7989 8040 1
8785 7989 8041 1
8786 7989 8042 1
8787 7990 8043 1
8788 7990 8044 1
8789 7990 8045 1
8790 7991 8046 1
8791 7992 8047 1
8792 7992 8048 1
8793 7992 8049 1
8794 7993 8050 1
8795 7993 8051 1
8796 7993 8052 1
8797 7994 8053 1
8798 7995 8054 1
8799 7998 8055 1
8800 7998 8056 1
8801 7998 8057 1
8802 7999 8058 1
8803 7999 8059 1
8804 7999 8060 1
8805 8063 8062 am
8806 8064 8063 am
8807 8065 8064 am
8808 8066 8065 am
8809 8061 8062 am
8810 8061 8066 am
8811 8068 8067 1
8812 8069 8068 am
8813 8070 8069 1
8814 8064 8067 1
8815 8063 8070 1
8816 8072 8071 am
8817 8073 8072 am
8818 8074 8073 am
8819 8069 8071 am
8820 8068 8074 am
8821 8076 8075 am
8822 8077 8076 am
8823 8078 8077 am
8824 8074 8075 am
8825 8073 8078 am
8826 8080 8079 1
8827 8081 8080 1
8828 8082 8081 am
8829 8077 8079 1
8830 8076 8082 am
8831 8084 8083 1
8832 8085 8084 am
8833 8086 8085 1
8834 8080 8083 1
8835 8079 8086 1
8836 8088 8087 am
8837 8089 8088 am
8838 8090 8089 am
8839 8082 8087 am
8840 8081 8090 am
8841 8092 8091 1
8842 8093 8092 am
8843 8094 8093 1
8844 8089 8091 1
8845 8088 8094 1
8846 8096 8095 1
8847 8097 8096 1
8848 8098 8097 am
8849 8093 8095 1
8850 8092 8098 am
8851 8100 8099 am
8852 8101 8100 am
8853 8102 8101 am
8854 8098 8099 am
8855 8097 8102 am
8856 8104 8103 1
8857 8105 8104 1
8858 8106 8105 1
8859 8102 8103 1
8860 8101 8106 1
8861 8108 8107 1
8862 8109 8108 am
8863 8100 8109 am
8864 8106 8107 1
8865 8111 8110 am
8866 8112 8111 am
8867 8113 8112 am
8868 8109 8110 am
8869 8108 8113 am
8870 8066 8114 1
8871 8114 8115 1
8872 8061 8116 1
8873 8065 8117 1
8874 8062 8118 1
8875 8071 8119 1
8876 8072 8120 1
8877 8078 8121 1
8878 8085 8122 1
8879 8084 8123 1
8880 8090 8124 1
8881 8087 8125 1
8882 8094 8126 2
8883 8091 8127 2
8884 8113 8128 1
8885 8112 8129 1
8886 8067 8130 1
8887 8067 8131 1
8888 8070 8132 1
8889 8070 8133 1
8890 8075 8134 1
8891 8083 8135 1
8892 8083 8136 1
8893 8084 8137 1
8894 8085 8138 1
8895 8086 8139 1
8896 8086 8140 1
8897 8095 8141 1
8898 8095 8142 1
8899 8096 8143 1
8900 8096 8144 1
8901 8103 8145 1
8902 8103 8146 1
8903 8104 8147 1
8904 8104 8148 1
8905 8105 8149 1
8906 8105 8150 1
8907 8106 8151 1
8908 8107 8152 1
8909 8107 8153 1
8910 8110 8154 1
8911 8111 8155 1
8912 8114 8156 1
8913 8114 8157 1
8914 8115 8158 1
8915 8115 8159 1
8916 8115 8160 1
8917 8116 8161 1
8918 8116 8162 1
8919 8116 8163 1
8920 8117 8164 1
8921 8117 8165 1
8922 8117 8166 1
8923 8118 8167 1
8924 8118 8168 1
8925 8118 8169 1
8926 8119 8170 1
8927 8119 8171 1
8928 8119 8172 1
8929 8120 8173 1
8930 8120 8174 1
8931 8120 8175 1
8932 8121 8176 1
8933 8122 8177 1
8934 8122 8178 1
8935 8122 8179 1
8936 8123 8180 1
8937 8123 8181 1
8938 8123 8182 1
8939 8124 8183 1
8940 8125 8184 1
8941 8128 8185 1
8942 8128 8186 1
8943 8128 8187 1
8944 8129 8188 1
8945 8129 8189 1
8946 8129 8190 1
8947 8193 8192 am
8948 8194 8193 am
8949 8195 8194 am
8950 8196 8195 am
8951 8191 8192 am
8952 8191 8196 am
8953 8198 8197 1
8954 8199 8198 am
8955 8200 8199 1
8956 8194 8197 1
8957 8193 8200 1
8958 8202 8201 am
8959 8203 8202 am
8960 8204 8203 am
8961 8199 8201 am
8962 8198 8204 am
8963 8206 8205 am
8964 8207 8206 am
8965 8208 8207 am
8966 8204 8205 am
8967 8203 8208 am
8968 8210 8209 1
8969 8211 8210 1
8970 8212 8211 am
8971 8207 8209 1
8972 8206 8212 am
8973 8214 8213 1
8974 8215 8214 am
8975 8216 8215 1
8976 8210 8213 1
8977 8209 8216 1
8978 8218 8217 am
8979 8219 8218 am
8980 8220 8219 am
8981 8212 8217 am
8982 8211 8220 am
8983 8222 8221 1
8984 8223 8222 am
8985 8224 8223 1
8986 8219 8221 1
8987 8218 8224 1
8988 8226 8225 1
8989 8227 8226 1
8990 8228 8227 am
8991 8223 8225 1
8992 8222 8228 am
8993 8230 8229 am
8994 8231 8230 am
8995 8232 8231 am
8996 8228 8229 am
8997 8227 8232 am
8998 8234 8233 1
8999 8235 8234 1
9000 8236 8235 1
9001 8232 8233 1
9002 8231 8236 1
9003 8238 8237 1
9004 8239 8238 am
9005 8230 8239 am
9006 8236 8237 1
9007 8241 8240 am
9008 8242 8241 am
9009 8243 8242 am
9010 8239 8240 am
9011 8238 8243 am
9012 8196 8244 1
9013 8244 8245 1
9014 8191 8246 1
9015 8195 8247 1
9016 8192 8248 1
9017 8201 8249 1
9018 8202 8250 1
9019 8208 8251 1
9020 8215 8252 1
9021 8214 8253 1
9022 8220 8254 1
9023 8217 8255 1
9024 8224 8256 2
9025 8221 8257 2
9026 8243 8258 1
9027 8242 8259 1
9028 8197 8260 1
9029 8197 8261 1
9030 8200 8262 1
9031 8200 8263 1
9032 8205 8264 1
9033 8213 8265 1
9034 8213 8266 1
9035 8214 8267 1
9036 8215 8268 1
9037 8216 8269 1
9038 8216 8270 1
9039 8225 8271 1
9040 8225 8272 1
9041 8226 8273 1
9042 8226 8274 1
9043 8233 8275 1
9044 8233 8276 1
9045 8234 8277 1
9046 8234 8278 1
9047 8235 8279 1
9048 8235 8280 1
9049 8236 8281 1
9050 8237 8282 1
9051 8237 8283 1
9052 8240 8284 1
9053 8241 8285 1
9054 8244 8286 1
9055 8244 8287 1
9056 8245 8288 1
9057 8245 8289 1
9058 8245 8290 1
9059 8246 8291 1
9060 8246 8292 1
9061 8246 8293 1
9062 8247 8294 1
9063 8247 8295 1
9064 8247 8296 1
9065 8248 8297 1
9066 8248 8298 1
9067 8248 8299 1
9068 8249 8300 1
9069 8249 8301 1
9070 8249 8302 1
9071 8250 8303 1
9072 8250 8304 1
9073 8250 8305 1
9074 8251 8306 1
9075 8252 8307 1
9076 8252 8308 1
9077 8252 8309 1
9078 8253 8310 1
9079 8253 8311 1
9080 8253 8312 1
9081 8254 8313 1
9082 8255 8314 1
9083 8258 8315 1
9084 8258 8316 1
9085 8258 8317 1
9086 8259 8318 1
9087 8259 8319 1
9088 8259 8320 1
9089 8323 8322 am
9090 8324 8323 am
9091 8325 8324 am
9092 8326 8325 am
9093 8321 8322 am
9094 8321 8326 am
9095 8328 8327 1
9096 8329 8328 am
9097 8330 8329 1
9098 8324 8327 1
9099 8323 8330 1
9100 8332 8331 am
9101 8333 8332 am
9102 8334 8333 am
9103 8329 8331 am
9104 8328 8334 am
9105 8336 8335 am
9106 8337 8336 am
9107 8338 8337 am
9108 8334 8335 am
9109 8333 8338 am
9110 8340 8339 1
9111 8341 8340 1
9112 8342 8341 am
9113 8337 8339 1
9114 8336 8342 am
9115 8344 8343 1
9116 8345 8344 am
9117 8346 8345 1
9118 8340 8343 1
9119 8339 8346 1
9120 8348 8347 am
9121 8349 8348 am
9122 8350 8349 am
9123 8342 8347 am
9124 8341 8350 am
9125 8352 8351 1
9126 8353 8352 am
9127 8354 8353 1
9128 8349 8351 1
9129 8348 8354 1
9130 8356 8355 1
9131 8357 8356 1
9132 8358 8357 am
9133 8353 8355 1
9134 8352 8358 am
9135 8360 8359 am
9136 8361 8360 am
9137 8362 8361 am
9138 8358 8359 am
9139 8357 8362 am
9140 8364 8363 1
9141 8365 8364 1
9142 8366 8365 1
9143 8362 8363 1
9144 8361 8366 1
9145 8368 8367 1
9146 8369 8368 am
9147 8360 8369 am
9148 8366 8367 1
9149 8371 8370 am
9150 8372 8371 am
9151 8373 8372 am
9152 8369 8370 am
9153 8368 8373 am
9154 8326 8374 1
9155 8374 8375 1
9156 8321 8376 1
9157 8325 8377 1
9158 8322 8378 1
9159 8331 8379 1
9160 8332 8380 1
9161 8338 8381 1
9162 8345 8382 1
9163 8344 8383 1
9164 8350 8384 1
9165 8347 8385 1
9166 8354 8386 2
9167 8351 8387 2
9168 8373 8388 1
9169 8372 8389 1
9170 8327 8390 1
9171 8327 8391 1
9172 8330 8392 1
9173 8330 8393 1
9174 8335 8394 1
9175 8343 8395 1
9176 8343 8396 1
9177 8344 8397 1
9178 8345 8398 1
9179 8346 8399 1
9180 8346 8400 1
9181 8355 8401 1
9182 8355 8402 1
9183 8356 8403 1
9184 8356 8404 1
9185 8363 8405 1
9186 8363 8406 1
9187 8364 8407 1
9188 8364 8408 1
9189 8365 8409 1
9190 8365 8410 1
9191 8366 8411 1
9192 8367 8412 1
9193 8367 8413 1
9194 8370 8414 1
9195 8371 8415 1
9196 8374 8416 1
9197 8374 8417 1
9198 8375 8418 1
9199 8375 8419 1
9200 8375 8420 1
9201 8376 8421 1
9202 8376 8422 1
9203 8376 8423 1
9204 8377 8424 1
9205 8377 8425 1
9206 8377 8426 1
9207 8378 8427 1
9208 8378 8428 1
9209 8378 8429 1
9210 8379 8430 1
9211 8379 8431 1
9212 8379 8432 1
9213 8380 8433 1
9214 8380 8434 1
9215 8380 8435 1
9216 8381 8436 1
9217 8382 8437 1
9218 8382 8438 1
9219 8382 8439 1
9220 8383 8440 1
9221 8383 8441 1
9222 8383 8442 1
9223 8384 8443 1
9224 8385 8444 1
9225 8388 8445 1
9226 8388 8446 1
9227 8388 8447 1
9228 8389 8448 1
9229 8389 8449 1
9230 8389 8450 1
9231 8453 8452 am
9232 8454 8453 am
9233 8455 8454 am
9234 8456 8455 am
9235 8451 8452 am
9236 8451 8456 am
9237 8458 8457 1
9238 8459 8458 am
9239 8460 8459 1
9240 8454 8457 1
9241 8453 8460 1
9242 8462 8461 am
9243 8463 8462 am
9244 8464 8463 am
9245 8459 8461 am
9246 8458 8464 am
9247 8466 8465 am
9248 8467 8466 am
9249 8468 8467 am
9250 8464 8465 am
9251 8463 8468 am
9252 8470 8469 1
9253 8471 8470 1
9254 8472 8471 am
9255 8467 8469 1
9256 8466 8472 am
9257 8474 8473 1
9258 8475 8474 am
9259 8476 8475 1
9260 8470 8473 1
9261 8469 8476 1
9262 8478 8477 am
9263 8479 8478 am
9264 8480 8479 am
9265 8472 8477 am
9266 8471 8480 am
9267 8482 8481 1
9268 8483 8482 am
9269 8484 8483 1
9270 8479 8481 1
9271 8478 8484 1
9272 8486 8485 1
9273 8487 8486 1
9274 8488 8487 am
9275 8483 8485 1
9276 8482 8488 am
9277 8490 8489 am
9278 8491 8490 am
9279 8492 8491 am
9280 8488 8489 am
9281 8487 8492 am
9282 8494 8493 1
9283 8495 8494 1
9284 8496 8495 1
9285 8492 8493 1
9286 8491 8496 1
9287 8498 8497 1
9288 8499 8498 am
9289 8490 8499 am
9290 8496 8497 1
9291 8501 8500 am
9292 8502 8501 am
9293 8503 8502 am
9294 8499 8500 am
9295 8498 8503 am
9296 8456 8504 1
9297 8504 8505 1
9298 8451 8506 1
9299 8455 8507 1
9300 8452 8508 1
9301 8461 8509 1
9302 8462 8510 1
9303 8468 8511 1
9304 8475 8512 1
9305 8474 8513 1
9306 8480 8514 1
9307 8477 8515 1
9308 8484 8516 2
9309 8481 8517 2
9310 8503 8518 1
9311 8502 8519 1
9312 8457 8520 1
9313 8457 8521 1
9314 8460 8522 1
9315 8460 8523 1
9316 8465 8524 1
9317 8473 8525 1
9318 8473 8526 1
9319 8474 8527 1
9320 8475 8528 1
9321 8476 8529 1
9322 8476 8530 1
9323 8485 8531 1
9324 8485 8532 1
9325 8486 8533 1
9326 8486 8534 1
9327 8493 8535 1
9328 8493 8536 1
9329 8494 8537 1
9330 8494 8538 1
9331 8495 8539 1
9332 8495 8540 1
9333 8496 8541 1
9334 8497 8542 1
9335 8497 8543 1
9336 8500 8544 1
9337 8501 8545 1
9338 8504 8546 1
9339 8504 8547 1
9340 8505 8548 1
9341 8505 8549 1
9342 8505 8550 1
9343 8506 8551 1
9344 8506 8552 1
9345 8506 8553 1
9346 8507 8554 1
9347 8507 8555 1
9348 8507 8556 1
9349 8508 8557 1
9350 8508 8558 1
9351 8508 8559 1
9352 8509 8560 1
9353 8509 8561 1
9354 8509 8562 1
9355 8510 8563 1
9356 8510 8564 1
9357 8510 8565 1
9358 8511 8566 1
9359 8512 8567 1
9360 8512 8568 1
9361 8512 8569 1
9362 8513 8570 1
9363 8513 8571 1
9364 8513 8572 1
9365 8514 8573 1
9366 8515 8574 1
9367 8518 8575 1
9368 8518 8576 1
9369 8518 8577 1
9370 8519 8578 1
9371 8519 8579 1
9372 8519 8580 1
9373 8583 8582 am
9374 8584 8583 am
9375 8585 8584 am
9376 8586 8585 am
9377 8581 8582 am
9378 8581 8586 am
9379 8588 8587 1
9380 8589 8588 am
9381 8590 8589 1
9382 8584 8587 1
9383 8583 8590 1
9384 8592 8591 am
9385 8593 8592 am
9386 8594 8593 am
9387 8589 8591 am
9388 8588 8594 am
9389 8596 8595 am
9390 8597 8596 am
9391 8598 8597 am
9392 8594 8595 am
9393 8593 8598 am
9394 8600 8599 1
9395 8601 8600 1
9396 8602 8601 am
9397 8597 8599 1
9398 8596 8602 am
9399 8604 8603 1
9400 8605 8604 am
9401 8606 8605 1
9402 8600 8603 1
9403 8599 8606 1
9404 8608 8607 am
9405 8609 8608 am
9406 8610 8609 am
9407 8602 8607 am
9408 8601 8610 am
9409 8612 8611 1
9410 8613 8612 am
9411 8614 8613 1
9412 8609 8611 1
9413 8608 8614 1
9414 8616 8615 1
9415 8617 8616 1
9416 8618 8617 am
9417 8613 8615 1
9418 8612 8618 am
9419 8620 8619 am
9420 8621 8620 am
9421 8622 8621 am
9422 8618 8619 am
9423 8617 8622 am
9424 8624 8623 1
9425 8625 8624 1
9426 8626 8625 1
9427 8622 8623 1
9428 8621 8626 1
9429 8628 8627 1
9430 8629 8628 am
9431 8620 8629 am
9432 8626 8627 1
9433 8631 8630 am
9434 8632 8631 am
9435 8633 8632 am
9436 8629 8630 am
9437 8628 8633 am
9438 8586 8634 1
9439 8634 8635 1
9440 8581 8636 1
9441 8585 8637 1
9442 8582 8638 1
9443 8591 8639 1
9444 8592 8640 1
9445 8598 8641 1
9446 8605 8642 1
9447 8604 8643 1
9448 8610 8644 1
9449 8607 8645 1
9450 8614 8646 2
9451 8611 8647 2
9452 8633 8648 1
9453 8632 8649 1
9454 8587 8650 1
9455 8587 8651 1
9456 8590 8652 1
9457 8590 8653 1
9458 8595 8654 1
9459 8603 8655 1
9460 8603 8656 1
9461 8604 8657 1
9462 8605 8658 1
9463 8606 8659 1
9464 8606 8660 1
9465 8615 8661 1
9466 8615 8662 1
9467 8616 8663 1
9468 8616 8664 1
9469 8623 8665 1
9470 8623 8666 1
9471 8624 8667 1
9472 8624 8668 1
9473 8625 8669 1
9474 8625 8670 1
9475 8626 8671 1
9476 8627 8672 1
9477 8627 8673 1
9478 8630 8674 1
9479 8631 8675 1
9480 8634 8676 1
9481 8634 8677 1
9482 8635 8678 1
9483 8635 8679 1
9484 8635 8680 1
9485 8636 8681 1
9486 8636 8682 1
9487 8636 8683 1
9488 8637 8684 1
9489 8637 8685 1
9490 8637 8686 1
9491 8638 8687 1
9492 8638 8688 1
9493 8638 8689 1
9494 8639 8690 1
9495 8639 8691 1
9496 8639 8692 1
9497 8640 8693 1
9498 8640 8694 1
9499 8640 8695 1
9500 8641 8696 1
9501 8642 8697 1
9502 8642 8698 1
9503 8642 8699 1
9504 8643 8700 1
9505 8643 8701 1
9506 8643 8702 1
9507 8644 8703 1
9508 8645 8704 1
9509 8648 8705 1
9510 8648 8706 1
9511 8648 8707 1
9512 8649 8708 1
9513 8649 8709 1
9514 8649 8710 1
9515 8713 8712 am
9516 8714 8713 am
9517 8715 8714 am
9518 8716 8715 am
9519 8711 8712 am
9520 8711 8716 am
9521 8718 8717 1
9522 8719 8718 am
9523 8720 8719 1
9524 8714 8717 1
9525 8713 8720 1
9526 8722 8721 am
9527 8723 8722 am
9528 8724 8723 am
9529 8719 8721 am
9530 8718 8724 am
9531 8726 8725 am
9532 8727 8726 am
9533 8728 8727 am
9534 8724 8725 am
9535 8723 8728 am
9536 8730 8729 1
9537 8731 8730 1
9538 8732 8731 am
9539 8727 8729 1
9540 8726 8732 am
9541 8734 8733 1
9542 8735 8734 am
9543 8736 8735 1
9544 8730 8733 1
9545 8729 8736 1
9546 8738 8737 am
9547 8739 8738 am
9548 8740 8739 am
9549 8732 8737 am
9550 8731 8740 am
9551 8742 8741 1
9552 8743 8742 am
9553 8744 8743 1
9554 8739 8741 1
9555 8738 8744 1
9556 8746 8745 1
9557 8747 8746 1
9558 8748 8747 am
9559 8743 8745 1
9560 8742 8748 am
9561 8750 8749 am
9562 8751 8750 am
9563 8752 8751 am
9564 8748 8749 am
9565 8747 8752 am
9566 8754 8753 1
9567 8755 8754 1
9568 8756 8755 1
9569 8752 8753 1
9570 8751 8756 1
9571 8758 8757 1
9572 8759 8758 am
9573 8750 8759 am
9574 8756 8757 1
9575 8761 8760 am
9576 8762 8761 am
9577 8763 8762 am
9578 8759 8760 am
9579 8758 8763 am
9580 8716 8764 1
9581 8764 8765 1
9582 8711 8766 1
9583 8715 8767 1
9584 8712 8768 1
9585 8721 8769 1
9586 8722 8770 1
9587 8728 8771 1
9588 8735 8772 1
9589 8734 8773 1
9590 8740 8774 1
9591 8737 8775 1
9592 8744 8776 2
9593 8741 8777 2
9594 8763 8778 1
9595 8762 8779 1
9596 8717 8780 1
9597 8717 8781 1
9598 8720 8782 1
9599 8720 8783 1
9600 8725 8784 1
9601 8733 8785 1
9602 8733 8786 1
9603 8734 8787 1
9604 8735 8788 1
9605 8736 8789 1
9606 8736 8790 1
9607 8745 8791 1
9608 8745 8792 1
9609 8746 8793 1
9610 8746 8794 1
9611 8753 8795 1
9612 8753 8796 1
9613 8754 8797 1
9614 8754 8798 1
9615 8755 8799 1
9616 8755 8800 1
9617 8756 8801 1
9618 8757 8802 1
9619 8757 8803 1
9620 8760 8804 1
9621 8761 8805 1
9622 8764 8806 1
9623 8764 8807 1
9624 8765 8808 1
9625 8765 8809 1
9626 8765 8810 1
9627 8766 8811 1
9628 8766 8812 1
9629 8766 8813 1
9630 8767 8814 1
9631 8767 8815 1
9632 8767 8816 1
9633 8768 8817 1
9634 8768 8818 1
9635 8768 8819 1
9636 8769 8820 1
9637 8769 8821 1
9638 8769 8822 1
9639 8770 8823 1
9640 8770 8824 1
9641 8770 8825 1
9642 8771 8826 1
9643 8772 8827 1
9644 8772 8828 1
9645 8772 8829 1
9646 8773 8830 1
9647 8773 8831 1
9648 8773 8832 1
9649 8774 8833 1
9650 8775 8834 1
9651 8778 8835 1
9652 8778 8836 1
9653 8778 8837 1
9654 8779 8838 1
9655 8779 8839 1
9656 8779 8840 1
9657 8843 8842 am
9658 8844 8843 am
9659 8845 8844 am
9660 8846 8845 am
9661 8841 8842 am
9662 8841 8846 am
9663 8848 8847 1
9664 8849 8848 am
9665 8850 8849 1
9666 8844 8847 1
9667 8843 8850 1
9668 8852 8851 am
9669 8853 8852 am
9670 8854 8853 am
9671 8849 8851 am
9672 8848 8854 am
9673 8856 8855 am
9674 8857 8856 am
9675 8858 8857 am
9676 8854 8855 am
9677 8853 8858 am
9678 8860 8859 1
9679 8861 8860 1
9680 8862 8861 am
9681 8857 8859 1
9682 8856 8862 am
9683 8864 8863 1
9684 8865 8864 am
9685 8866 8865 1
9686 8860 8863 1
9687 8859 8866 1
9688 8868 8867 am
9689 8869 8868 am
9690 8870 8869 am
9691 8862 8867 am
9692 8861 8870 am
9693 8872 8871 1
9694 8873 8872 am
9695 8874 8873 1
9696 8869 8871 1
9697 8868 8874 1
9698 8876 8875 1
9699 8877 8876 1
9700 8878 8877 am
9701 8873 8875 1
9702 8872 8878 am
9703 8880 8879 am
9704 8881 8880 am
9705 8882 8881 am
9706 8878 8879 am
9707 8877 8882 am
9708 8884 8883 1
9709 8885 8884 1
9710 8886 8885 1
9711 8882 8883 1
9712 8881 8886 1
9713 8888 8887 1
9714 8889 8888 am
9715 8880 8889 am
9716 8886 8887 1
9717 8891 8890 am
9718 8892 8891 am
9719 8893 8892 am
9720 8889 8890 am
9721 8888 8893 am
9722 8846 8894 1
9723 8894 8895 1
9724 8841 8896 1
9725 8845 8897 1
9726 8842 8898 1
9727 8851 8899 1
9728 8852 8900 1
9729 8858 8901 1
9730 8865 8902 1
9731 8864 8903 1
9732 8870 8904 1
9733 8867 8905 1
9734 8874 8906 2
9735 8871 8907 2
9736 8893 8908 1
9737 8892 8909 1
9738 8847 8910 1
9739 8847 8911 1
9740 8850 8912 1
9741 8850 8913 1
9742 8855 8914 1
9743 8863 8915 1
9744 8863 8916 1
9745 8864 8917 1
9746 8865 8918 1
9747 8866 8919 1
9748 8866 8920 1
9749 8875 8921 1
9750 8875 8922 1
9751 8876 8923 1
9752 8876 8924 1
9753 8883 8925 1
9754 8883 8926 1
9755 8884 8927 1
9756 8884 8928 1
9757 8885 8929 1
9758 8885 8930 1
9759 8886 8931 1
9760 8887 8932 1
9761 8887 8933 1
9762 8890 8934 1
9763 8891 8935 1
9764 8894 8936 1
9765 8894 8937 1
9766 8895 8938 1
9767 8895 8939 1
9768 8895 8940 1
9769 8896 8941 1
9770 8896 8942 1
9771 8896 8943 1
9772 8897 8944 1
9773 8897 8945 1
9774 8897 8946 1
9775 8898 8947 1
9776 8898 8948 1
9777 8898 8949 1
9778 8899 8950 1
9779 8899 8951 1
9780 8899 8952 1
9781 8900 8953 1
9782 8900 8954 1
9783 8900 8955 1
9784 8901 8956 1
9785 8902 8957 1
9786 8902 8958 1
9787 8902 8959 1
9788 8903 8960 1
9789 8903 8961 1
9790 8903 8962 1
9791 8904 8963 1
9792 8905 8964 1
9793 8908 8965 1
9794 8908 8966 1
9795 8908 8967 1
9796 8909 8968 1
9797 8909 8969 1
9798 8909 8970 1
9799 8973 8972 am
9800 8974 8973 am
9801 8975 8974 am
9802 8976 8975 am
9803 8971 8972 am
9804 8971 8976 am
9805 8978 8977 1
9806 8979 8978 am
9807 8980 8979 1
9808 8974 8977 1
9809 8973 8980 1
9810 8982 8981 am
9811 8983 8982 am
9812 8984 8983 am
9813 8979 8981 am
9814 8978 8984 am
9815 8986 8985 am
9816 8987 8986 am
9817 8988 8987 am
9818 8984 8985 am
9819 8983 8988 am
9820 8990 8989 1
9821 8991 8990 1
9822 8992 8991 am
9823 8987 8989 1
9824 8986 8992 am
9825 8994 8993 1
9826 8995 8994 am
9827 8996 8995 1
9828 8990 8993 1
9829 8989 8996 1
9830 8998 8997 am
9831 8999 8998 am
9832 9000 8999 am
9833 8992 8997 am
9834 8991 9000 am
9835 9002 9001 1
9836 9003 9002 am
9837 9004 9003 1
9838 8999 9001 1
9839 8998 9004 1
9840 9006 9005 1
9841 9007 9006 1
9842 9008 9007 am
9843 9003 9005 1
9844 9002 9008 am
9845 9010 9009 am
9846 9011 9010 am
9847 9012 9011 am
9848 9008 9009 am
9849 9007 9012 am
9850 9014 9013 1
9851 9015 9014 1
9852 9016 9015 1
9853 9012 9013 1
9854 9011 9016 1
9855 9018 9017 1
9856 9019 9018 am
9857 9010 9019 am
9858 9016 9017 1
9859 9021 9020 am
9860 9022 9021 am
9861 9023 9022 am
9862 9019 9020 am
9863 9018 9023 am
9864 8976 9024 1
9865 9024 9025 1
9866 8971 9026 1
9867 8975 9027 1
9868 8972 9028 1
9869 8981 9029 1
9870 8982 9030 1
9871 8988 9031 1
9872 8995 9032 1
9873 8994 9033 1
9874 9000 9034 1
9875 8997 9035 1
9876 9004 9036 2
9877 9001 9037 2
9878 9023 9038 1
9879 9022 9039 1
9880 8977 9040 1
9881 8977 9041 1
9882 8980 9042 1
9883 8980 9043 1
9884 8985 9044 1
9885 8993 9045 1
9886 8993 9046 1
9887 8994 9047 1
9888 8995 9048 1
9889 8996 9049 1
9890 8996 9050 1
9891 9005 9051 1
9892 9005 9052 1
9893 9006 9053 1
9894 9006 9054 1
9895 9013 9055 1
9896 9013 9056 1
9897 9014 9057 1
9898 9014 9058 1
9899 9015 9059 1
9900 9015 9060 1
9901 9016 9061 1
9902 9017 9062 1
9903 9017 9063 1
9904 9020 9064 1
9905 9021 9065 1
9906 9024 9066 1
9907 9024 9067 1
9908 9025 9068 1
9909 9025 9069 1
9910 9025 9070 1
9911 9026 9071 1
9912 9026 9072 1
9913 9026 9073 1
9914 9027 9074 1
9915 9027 9075 1
9916 9027 9076 1
9917 9028 9077 1
9918 9028 9078 1
9919 9028 9079 1
9920 9029 9080 1
9921 9029 9081 1
9922 9029 9082 1
9923 9030 9083 1
9924 9030 9084 1
9925 9030 9085 1
9926 9031 9086 1
9927 9032 9087 1
9928 9032 9088 1
9929 9032 9089 1
9930 9033 9090 1
9931 9033 9091 1
9932 9033 9092 1
9933 9034 9093 1
9934 9035 9094 1
9935 9038 9095 1
9936 9038 9096 1
9937 9038 9097 1
9938 9039 9098 1
9939 9039 9099 1
9940 9039 9100 1
9941 9103 9102 am
9942 9104 9103 am
9943 9105 9104 am
9944 9106 9105 am
9945 9101 9102 am
9946 9101 9106 am
9947 9108 9107 1
9948 9109 9108 am
9949 9110 9109 1
9950 9104 9107 1
9951 9103 9110 1
9952 9112 9111 am
9953 9113 9112 am
9954 9114 9113 am
9955 9109 9111 am
9956 9108 9114 am
9957 9116 9115 am
9958 9117 9116 am
9959 9118 9117 am
9960 9114 9115 am
9961 9113 9118 am
9962 9120 9119 1
9963 9121 9120 1
9964 9122 9121 am
9965 9117 9119 1
9966 9116 9122 am
9967 9124 9123 1
9968 9125 9124 am
9969 9126 9125 1
9970 9120 9123 1
9971 9119 9126 1
9972 9128 9127 am
9973 9129 9128 am
9974 9130 9129 am
9975 9122 9127 am
9976 9121 9130 am
9977 9132 9131 1
9978 9133 9132 am
9979 9134 9133 1
9980 9129 9131 1
9981 9128 9134 1
9982 9136 9135 1
9983 9137 9136 1
9984 9138 9137 am
9985 9133 9135 1
9986 9132 9138 am
9987 9140 9139 am
9988 9141 9140 am
9989 9142 9141 am
9990 9138 9139 am
9991 9137 9142 am
9992 9144 9143 1
9993 9145 9144 1
9994 9146 9145 1
9995 9142 9143 1
9996 9141 9146 1
9997 9148 9147 1
9998 9149 9148 am
9999 9140 9149 am
10000 9146 9147 1
10001 9151 9150 am
10002 9152 9151 am
10003 9153 9152 am
10004 9149 9150 am
10005 9148 9153 am
10006 9106 9154 1
10007 9154 9155 1
10008 9101 9156 1
10009 9105 9157 1
10010 9102 9158 1
10011 9111 9159 1
10012 9112 9160 1
10013 9118 9161 1
10014 9125 9162 1
10015 9124 9163 1
10016 9130 9164 1
10017 9127 9165 1
10018 9134 9166 2
10019 9131 9167 2
10020 9153 9168 1
10021 9152 9169 1
10022 9107 9170 1
10023 9107 9171 1
10024 9110 9172 1
10025 9110 9173 1
10026 9115 9174 1
10027 9123 9175 1
10028 9123 9176 1
10029 9124 9177 1
10030 9125 9178 1
10031 9126 9179 1
10032 9126 9180 1
10033 9135 9181 1
10034 9135 9182 1
10035 9136 9183 1
10036 9136 9184 1
10037 9143 9185 1
10038 9143 9186 1
10039 9144 9187 1
10040 9144 9188 1
10041 9145 9189 1
10042 9145 9190 1
10043 9146 9191 1
10044 9147 9192 1
10045 9147 9193 1
10046 9150 9194 1
10047 9151 9195 1
10048 9154 9196 1
10049 9154 9197 1
10050 9155 9198 1
10051 9155 9199 1
10052 9155 9200 1
10053 9156 9201 1
10054 9156 9202 1
10055 9156 9203 1
10056 9157 9204 1
10057 9157 9205 1
10058 9157 9206 1
10059 9158 9207 1
10060 9158 9208 1
10061 9158 9209 1
10062 9159 9210 1
10063 9159 9211 1
10064 9159 9212 1
10065 9160 9213 1
10066 9160 9214 1
10067 9160 9215 1
10068 9161 9216 1
10069 9162 9217 1
10070 9162 9218 1
10071 9162 9219 1
10072 9163 9220 1
10073 9163 9221 1
10074 9163 9222 1
10075 9164 9223 1
10076 9165 9224 1
10077 9168 9225 1
10078 9168 9226 1
10079 9168 9227 1
10080 9169 9228 1
10081 9169 9229 1
10082 9169 9230 1
10083 9233 9232 am
10084 9234 9233 am
10085 9235 9234 am
10086 9236 9235 am
10087 9231 9232 am
10088 9231 9236 am
10089 9238 9237 1
10090 9239 9238 am
10091 9240 9239 1
10092 9234 9237 1
10093 9233 9240 1
10094 9242 9241 am
10095 9243 9242 am
10096 9244 9243 am
10097 9239 9241 am
10098 9238 9244 am
10099 9246 9245 am
10100 9247 9246 am
10101 9248 9247 am
10102 9244 9245 am
10103 9243 9248 am
10104 9250 9249 1
10105 9251 9250 1
10106 9252 9251 am
10107 9247 9249 1
10108 9246 9252 am
10109 9254 9253 1
10110 9255 9254 am
10111 9256 9255 1
10112 9250 9253 1
10113 9249 9256 1
10114 9258 9257 am
10115 9259 9258 am
10116 9260 9259 am
10117 9252 9257 am
10118 9251 9260 am
10119 9262 9261 1
10120 9263 9262 am
10121 9264 9263 1
10122 9259 9261 1
10123 9258 9264 1
10124 9266 9265 1
10125 9267 9266 1
10126 9268 9267 am
10127 9263 9265 1
10128 9262 9268 am
10129 9270 9269 am
10130 9271 9270 am
10131 9272 9271 am
10132 9268 9269 am
10133 9267 9272 am
10134 9274 9273 1
10135 9275 9274 1
10136 9276 9275 1
10137 9272 9273 1
10138 9271 9276 1
10139 9278 9277 1
10140 9279 9278 am
10141 9270 9279 am
10142 9276 9277 1
10143 9281 9280 am
10144 9282 9281 am
10145 9283 9282 am
10146 9279 9280 am
10147 9278 9283 am
10148 9236 9284 1
10149 9284 9285 1
10150 9231 9286 1
10151 9235 9287 1
10152 9232 9288 1
10153 9241 9289 1
10154 9242 9290 1
10155 9248 9291 1
10156 9255 9292 1
10157 9254 9293 1
10158 9260 9294 1
10159 9257 9295 1
10160 9264 9296 2
10161 9261 9297 2
10162 9283 9298 1
10163 9282 9299 1
10164 9237 9300 1
10165 9237 9301 1
10166 9240 9302 1
10167 9240 9303 1
10168 9245 9304 1
10169 9253 9305 1
10170 9253 9306 1
10171 9254 9307 1
10172 9255 9308 1
10173 9256 9309 1
10174 9256 9310 1
10175 9265 9311 1
10176 9265 9312 1
10177 9266 9313 1
10178 9266 9314 1
10179 9273 9315 1
10180 9273 9316 1
10181 9274 9317 1
10182 9274 9318 1
10183 9275 9319 1
10184 9275 9320 1
10185 9276 9321 1
10186 9277 9322 1
10187 9277 9323 1
10188 9280 9324 1
10189 9281 9325 1
10190 9284 9326 1
10191 9284 9327 1
10192 9285 9328 1
10193 9285 9329 1
10194 9285 9330 1
10195 9286 9331 1
10196 9286 9332 1
10197 9286 9333 1
10198 9287 9334 1
10199 9287 9335 1
10200 9287 9336 1
10201 9288 9337 1
10202 9288 9338 1
10203 9288 9339 1
10204 9289 9340 1
10205 9289 9341 1
10206 9289 9342 1
10207 9290 9343 1
10208 9290 9344 1
10209 9290 9345 1
10210 9291 9346 1
10211 9292 9347 1
10212 9292 9348 1
10213 9292 9349 1
10214 9293 9350 1
10215 9293 9351 1
10216 9293 9352 1
10217 9294 9353 1
10218 9295 9354 1
10219 9298 9355 1
10220 9298 9356 1
10221 9298 9357 1
10222 9299 9358 1
10223 9299 9359 1
10224 9299 9360 1
10225 9363 9362 am
10226 9364 9363 am
10227 9365 9364 am
10228 9366 9365 am
10229 9361 9362 am
10230 9361 9366 am
10231 9368 9367 1
10232 9369 9368 am
10233 9370 9369 1
10234 9364 9367 1
10235 9363 9370 1
10236 9372 9371 am
10237 9373 9372 am
10238 9374 9373 am
10239 9369 9371 am
10240 9368 9374 am
10241 9376 9375 am
10242 9377 9376 am
10243 9378 9377 am
10244 9374 9375 am
10245 9373 9378 am
10246 9380 9379 1
10247 9381 9380 1
10248 9382 9381 am
10249 9377 9379 1
10250 9376 9382 am
10251 9384 9383 1
10252 9385 9384 am
10253 9386 9385 1
10254 9380 9383 1
10255 9379 9386 1
10256 9388 9387 am
10257 9389 9388 am
10258 9390 9389 am
10259 9382 9387 am
10260 9381 9390 am
10261 9392 9391 1
10262 9393 9392 am
10263 9394 9393 1
10264 9389 9391 1
10265 9388 9394 1
10266 9396 9395 1
10267 9397 9396 1
10268 9398 9397 am
10269 9393 9395 1
10270 9392 9398 am
10271 9400 9399 am
10272 9401 9400 am
10273 9402 9401 am
10274 9398 9399 am
10275 9397 9402 am
10276 9404 9403 1
10277 9405 9404 1
10278 9406 9405 1
10279 9402 9403 1
10280 9401 9406 1
10281 9408 9407 1
10282 9409 9408 am
10283 9400 9409 am
10284 9406 9407 1
10285 9411 9410 am
10286 9412 9411 am
10287 9413 9412 am
10288 9409 9410 am
10289 9408 9413 am
10290 9366 9414 1
10291 9414 9415 1
10292 9361 9416 1
10293 9365 9417 1
10294 9362 9418 1
10295 9371 9419 1
10296 9372 9420 1
10297 9378 9421 1
10298 9385 9422 1
10299 9384 9423 1
10300 9390 9424 1
10301 9387 9425 1
10302 9394 9426 2
10303 9391 9427 2
10304 9413 9428 1
10305 9412 9429 1
10306 9367 9430 1
10307 9367 9431 1
10308 9370 9432 1
10309 9370 9433 1
10310 9375 9434 1
10311 9383 9435 1
10312 9383 9436 1
10313 9384 9437 1
10314 9385 9438 1
10315 9386 9439 1
10316 9386 9440 1
10317 9395 9441 1
10318 9395 9442 1
10319 9396 9443 1
10320 9396 9444 1
10321 9403 9445 1
10322 9403 9446 1
10323 9404 9447 1
10324 9404 9448 1
10325 9405 9449 1
10326 9405 9450 1
10327 9406 9451 1
10328 9407 9452 1
10329 9407 9453 1
10330 9410 9454 1
10331 9411 9455 1
10332 9414 9456 1
10333 9414 9457 1
10334 9415 9458 1
10335 9415 9459 1
10336 9415 9460 1
10337 9416 9461 1
10338 9416 9462 1
10339 9416 9463 1
10340 9417 9464 1
10341 9417 9465 1
10342 9417 9466 1
10343 9418 9467 1
10344 9418 9468 1
10345 9418 9469 1
10346 9419 9470 1
10347 9419 9471 1
10348 9419 9472 1
10349 9420 9473 1
10350 9420 9474 1
10351 9420 9475 1
10352 9421 9476 1
10353 9422 9477 1
10354 9422 9478 1
10355 9422 9479 1
10356 9423 9480 1
10357 9423 9481 1
10358 9423 9482 1
10359 9424 9483 1
10360 9425 9484 1
10361 9428 9485 1
10362 9428 9486 1
10363 9428 9487 1
10364 9429 9488 1
10365 9429 9489 1
10366 9429 9490 1
10367 9493 9492 am
10368 9494 9493 am
10369 9495 9494 am
10370 9496 9495 am
10371 9491 9492 am
10372 9491 9496 am
10373 9498 9497 1
10374 9499 9498 am
10375 9500 9499 1
10376 9494 9497 1
10377 9493 9500 1
10378 9502 9501 am
10379 9503 9502 am
10380 9504 9503 am
10381 9499 9501 am
10382 9498 9504 am
10383 9506 9505 am
10384 9507 9506 am
10385 9508 9507 am
10386 9504 9505 am
10387 9503 9508 am
10388 9510 9509 1
10389 9511 9510 1
10390 9512 9511 am
10391 9507 9509 1
10392 9506 9512 am
10393 9514 9513 1
10394 9515 9514 am
10395 9516 9515 1
10396 9510 9513 1
10397 9509 9516 1
10398 9518 9517 am
10399 9519 9518 am
10400 9520 9519 am
10401 9512 9517 am
10402 9511 9520 am
10403 9522 9521 1
10404 9523 9522 am
10405 9524 9523 1
10406 9519 9521 1
10407 9518 9524 1
10408 9526 9525 1
10409 9527 9526 1
10410 9528 9527 am
10411 9523 9525 1
10412 9522 9528 am
10413 9530 9529 am
10414 9531 9530 am
10415 9532 9531 am
10416 9528 9529 am
10417 9527 9532 am
10418 9534 9533 1
10419 9535 9534 1
10420 9536 9535 1
10421 9532 9533 1
10422 9531 9536 1
10423 9538 9537 1
10424 9539 9538 am
10425 9530 9539 am
10426 9536 9537 1
10427 9541 9540 am
10428 9542 9541 am
10429 9543 9542 am
10430 9539 9540 am
10431 9538 9543 am
10432 9496 9544 1
10433 9544 9545 1
10434 9491 9546 1
10435 9495 9547 1
10436 9492 9548 1
10437 9501 9549 1
10438 9502 9550 1
10439 9508 9551 1
10440 9515 9552 1
10441 9514 9553 1
10442 9520 9554 1
10443 9517 9555 1
10444 9524 9556 2
10445 9521 9557 2
10446 9543 9558 1
10447 9542 9559 1
10448 9497 9560 1
10449 9497 9561 1
10450 9500 9562 1
10451 9500 9563 1
10452 9505 9564 1
10453 9513 9565 1
10454 9513 9566 1
10455 9514 9567 1
10456 9515 9568 1
10457 9516 9569 1
10458 9516 9570 1
10459 9525 9571 1
10460 9525 9572 1
10461 9526 9573 1
10462 9526 9574 1
10463 9533 9575 1
10464 9533 9576 1
10465 9534 9577 1
10466 9534 9578 1
10467 9535 9579 1
10468 9535 9580 1
10469 9536 9581 1
10470 9537 9582 1
10471 9537 9583 1
10472 9540 9584 1
10473 9541 9585 1
10474 9544 9586 1
10475 9544 9587 1
10476 9545 9588 1
10477 9545 9589 1
10478 9545 9590 1
10479 9546 9591 1
10480 9546 9592 1
10481 9546 9593 1
10482 9547 9594 1
10483 9547 9595 1
10484 9547 9596 1
10485 9548 9597 1
10486 9548 9598 1
10487 9548 9599 1
10488 9549 9600 1
10489 9549 9601 1
10490 9549 9602 1
10491 9550 9603 1
10492 9550 9604 1
10493 9550 9605 1
10494 9551 9606 1
10495 9552 9607 1
10496 9552 9608 1
10497 9552 9609 1
10498 9553 9610 1
10499 9553 9611 1
10500 9553 9612 1
10501 9554 9613 1
10502 9555 9614 1
10503 9558 9615 1
10504 9558 9616 1
10505 9558 9617 1
10506 9559 9618 1
10507 9559 9619 1
10508 9559 9620 1
10509 9623 9622 am
10510 9624 9623 am
10511 9625 9624 am
10512 9626 9625 am
10513 9621 9622 am
10514 9621 9626 am
10515 9628 9627 1
10516 9629 9628 am
10517 9630 9629 1
10518 9624 9627 1
10519 9623 9630 1
10520 9632 9631 am
10521 9633 9632 am
10522 9634 9633 am
10523 9629 9631 am
10524 9628 9634 am
10525 9636 9635 am
10526 9637 9636 am
10527 9638 9637 am
10528 9634 9635 am
10529 9633 9638 am
10530 9640 9639 1
10531 9641 9640 1
10532 9642 9641 am
10533 9637 9639 1
10534 9636 9642 am
10535 9644 9643 1
10536 9645 9644 am
10537 9646 9645 1
10538 9640 9643 1
10539 9639 9646 1
10540 9648 9647 am
10541 9649 9648 am
10542 9650 9649 am
10543 9642 9647 am
10544 9641 9650 am
10545 9652 9651 1
10546 9653 9652 am
10547 9654 9653 1
10548 9649 9651 1
10549 9648 9654 1
10550 9656 9655 1
10551 9657 9656 1
10552 9658 9657 am
10553 9653 9655 1
10554 9652 9658 am
10555 9660 9659 am
10556 9661 9660 am
10557 9662 9661 am
10558 9658 9659 am
10559 9657 9662 am
10560 9664 9663 1
10561 9665 9664 1
10562 9666 9665 1
10563 9662 9663 1
10564 9661 9666 1
10565 9668 9667 1
10566 9669 9668 am
10567 9660 9669 am
10568 9666 9667 1
10569 9671 9670 am
10570 9672 9671 am
10571 9673 9672 am
10572 9669 9670 am
10573 9668 9673 am
10574 9626 9674 1
10575 9674 9675 1
10576 9621 9676 1
10577 9625 9677 1
10578 9622 9678 1
10579 9631 9679 1
10580 9632 9680 1
10581 9638 9681 1
10582 9645 9682 1
10583 9644 9683 1
10584 9650 9684 1
10585 9647 9685 1
10586 9654 9686 2
10587 9651 9687 2
10588 9673 9688 1
10589 9672 9689 1
10590 9627 9690 1
10591 9627 9691 1
10592 9630 9692 1
10593 9630 9693 1
10594 9635 9694 1
10595 9643 9695 1
10596 9643 9696 1
10597 9644 9697 1
10598 9645 9698 1
10599 9646 9699 1
10600 9646 9700 1
10601 9655 9701 1
10602 9655 9702 1
10603 9656 9703 1
10604 9656 9704 1
10605 9663 9705 1
10606 9663 9706 1
10607 9664 9707 1
10608 9664 9708 1
10609 9665 9709 1
10610 9665 9710 1
10611 9666 9711 1
10612 9667 9712 1
10613 9667 9713 1
10614 9670 9714 1
10615 9671 9715 1
10616 9674 9716 1
10617 9674 9717 1
10618 9675 9718 1
10619 9675 9719 1
10620 9675 9720 1
10621 9676 9721 1
10622 9676 9722 1
10623 9676 9723 1
10624 9677 9724 1
10625 9677 9725 1
10626 9677 9726 1
10627 9678 9727 1
10628 9678 9728 1
10629 9678 9729 1
10630 9679 9730 1
10631 9679 9731 1
10632 9679 9732 1
10633 9680 9733 1
10634 9680 9734 1
10635 9680 9735 1
10636 9681 9736 1
10637 9682 9737 1
10638 9682 9738 1
10639 9682 9739 1
10640 9683 9740 1
10641 9683 9741 1
10642 9683 9742 1
10643 9684 9743 1
10644 9685 9744 1
10645 9688 9745 1
10646 9688 9746 1
10647 9688 9747 1
10648 9689 9748 1
10649 9689 9749 1
10650 9689 9750 1
10651 9753 9752 am
10652 9754 9753 am
10653 9755 9754 am
10654 9756 9755 am
10655 9751 9752 am
10656 9751 9756 am
10657 9758 9757 1
10658 9759 9758 am
10659 9760 9759 1
10660 9754 9757 1
10661 9753 9760 1
10662 9762 9761 am
10663 9763 9762 am
10664 9764 9763 am
10665 9759 9761 am
10666 9758 9764 am
10667 9766 9765 am
10668 9767 9766 am
10669 9768 9767 am
10670 9764 9765 am
10671 9763 9768 am
10672 9770 9769 1
10673 9771 9770 1
10674 9772 9771 am
10675 9767 9769 1
10676 9766 9772 am
10677 9774 9773 1
10678 9775 9774 am
10679 9776 9775 1
10680 9770 9773 1
10681 9769 9776 1
10682 9778 9777 am
10683 9779 9778 am
10684 9780 9779 am
10685 9772 9777 am
10686 9771 9780 am
10687 9782 9781 1
10688 9783 9782 am
10689 9784 9783 1
10690 9779 9781 1
10691 9778 9784 1
10692 9786 9785 1
10693 9787 9786 1
10694 9788 9787 am
10695 9783 9785 1
10696 9782 9788 am
10697 9790 9789 am
10698 9791 9790 am
10699 9792 9791 am
10700 9788 9789 am
10701 9787 9792 am
10702 9794 9793 1
10703 9795 9794 1
10704 9796 9795 1
10705 9792 9793 1
10706 9791 9796 1
10707 9798 9797 1
10708 9799 9798 am
10709 9790 9799 am
10710 9796 9797 1
10711 9801 9800 am
10712 9802 9801 am
10713 9803 9802 am
10714 9799 9800 am
10715 9798 9803 am
10716 9756 9804 1
10717 9804 9805 1
10718 9751 9806 1
10719 9755 9807 1
10720 9752 9808 1
10721 9761 9809 1
10722 9762 9810 1
10723 9768 9811 1
10724 9775 9812 1
10725 9774 9813 1
10726 9780 9814 1
10727 9777 9815 1
10728 9784 9816 2
10729 9781 9817 2
10730 9803 9818 1
10731 9802 9819 1
10732 9757 9820 1
10733 9757 9821 1
10734 9760 9822 1
10735 9760 9823 1
10736 9765 9824 1
10737 9773 9825 1
10738 9773 9826 1
10739 9774 9827 1
10740 9775 9828 1
10741 9776 9829 1
10742 9776 9830 1
10743 9785 9831 1
10744 9785 9832 1
10745 9786 9833 1
10746 9786 9834 1
10747 9793 9835 1
10748 9793 9836 1
10749 9794 9837 1
10750 9794 9838 1
10751 9795 9839 1
10752 9795 9840 1
10753 9796 9841 1
10754 9797 9842 1
10755 9797 9843 1
10756 9800 9844 1
10757 9801 9845 1
10758 9804 9846 1
10759 9804 9847 1
10760 9805 9848 1
10761 9805 9849 1
10762 9805 9850 1
10763 9806 9851 1
10764 9806 9852 1
10765 9806 9853 1
10766 9807 9854 1
10767 9807 9855 1
10768 9807 9856 1
10769 9808 9857 1
10770 9808 9858 1
10771 9808 9859 1
10772 9809 9860 1
10773 9809 9861 1
10774 9809 9862 1
10775 9810 9863 1
10776 9810 9864 1
10777 9810 9865 1
10778 9811 9866 1
10779 9812 9867 1
10780 9812 9868 1
10781 9812 9869 1
10782 9813 9870 1
10783 9813 9871 1
10784 9813 9872 1
10785 9814 9873 1
10786 9815 9874 1
10787 9818 9875 1
10788 9818 9876 1
10789 9818 9877 1
10790 9819 9878 1
10791 9819 9879 1
10792 9819 9880 1
10793 9883 9882 am
10794 9884 9883 am
10795 9885 9884 am
10796 9886 9885 am
10797 9881 9882 am
10798 9881 9886 am
10799 9888 9887 1
10800 9889 9888 am
10801 9890 9889 1
10802 9884 9887 1
10803 9883 9890 1
10804 9892 9891 am
10805 9893 9892 am
10806 9894 9893 am
10807 9889 9891 am
10808 9888 9894 am
10809 9896 9895 am
10810 9897 9896 am
10811 9898 9897 am
10812 9894 9895 am
10813 9893 9898 am
10814 9900 9899 1
10815 9901 9900 1
10816 9902 9901 am
10817 9897 9899 1
10818 9896 9902 am
10819 9904 9903 1
10820 9905 9904 am
10821 9906 9905 1
10822 9900 9903 1
10823 9899 9906 1
10824 9908 9907 am
10825 9909 9908 am
10826 9910 9909 am
10827 9902 9907 am
10828 9901 9910 am
10829 9912 9911 1
10830 9913 9912 am
10831 9914 9913 1
10832 9909 9911 1
10833 9908 9914 1
10834 9916 9915 1
10835 9917 9916 1
10836 9918 9917 am
10837 9913 9915 1
10838 9912 9918 am
10839 9920 9919 am
10840 9921 9920 am
10841 9922 9921 am
10842 9918 9919 am
10843 9917 9922 am
10844 9924 9923 1
10845 9925 9924 1
10846 9926 9925 1
10847 9922 9923 1
10848 9921 9926 1
10849 9928 9927 1
10850 9929 9928 am
10851 9920 9929 am
10852 9926 9927 1
10853 9931 9930 am
10854 9932 9931 am
10855 9933 9932 am
10856 9929 9930 am
10857 9928 9933 am
10858 9886 9934 1
10859 9934 9935 1
10860 9881 9936 1
10861 9885 9937 1
10862 9882 9938 1
10863 9891 9939 1
10864 9892 9940 1
10865 9898 9941 1
10866 9905 9942 1
10867 9904 9943 1
10868 9910 9944 1
10869 9907 9945 1
10870 9914 9946 2
10871 9911 9947 2
10872 9933 9948 1
10873 9932 9949 1
10874 9887 9950 1
10875 9887 9951 1
10876 9890 9952 1
10877 9890 9953 1
10878 9895 9954 1
10879 9903 9955 1
10880 9903 9956 1
10881 9904 9957 1
10882 9905 9958 1
10883 9906 9959 1
10884 9906 9960 1
10885 9915 9961 1
10886 9915 9962 1
10887 9916 9963 1
10888 9916 9964 1
10889 9923 9965 1
10890 9923 9966 1
10891 9924 9967 1
10892 9924 9968 1
10893 9925 9969 1
10894 9925 9970 1
10895 9926 9971 1
10896 9927 9972 1
10897 9927 9973 1
10898 9930 9974 1
10899 9931 9975 1
10900 9934 9976 1
10901 9934 9977 1
10902 9935 9978 1
10903 9935 9979 1
10904 9935 9980 1
10905 9936 9981 1
10906 9936 9982 1
10907 9936 9983 1
10908 9937 9984 1
10909 9937 9985 1
10910 9937 9986 1
10911 9938 9987 1
10912 9938 9988 1
10913 9938 9989 1
10914 9939 9990 1
10915 9939 9991 1
10916 9939 9992 1
10917 9940 9993 1
10918 9940 9994 1
10919 9940 9995 1
10920 9941 9996 1
10921 9942 9997 1
10922 9942 9998 1
10923 9942 9999 1
10924 9943 10000 1
10925 9943 10001 1
10926 9943 10002 1
10927 9944 10003 1
10928 9945 10004 1
10929 9948 10005 1
10930 9948 10006 1
10931 9948 10007 1
10932 9949 10008 1
10933 9949 10009 1
10934 9949 10010 1
10935 10013 10012 am
10936 10014 10013 am
10937 10015 10014 am
10938 10016 10015 am
10939 10011 10012 am
10940 10011 10016 am
10941 10018 10017 1
10942 10019 10018 am
10943 10020 10019 1
10944 10014 10017 1
10945 10013 10020 1
10946 10022 10021 am
10947 10023 10022 am
10948 10024 10023 am
10949 10019 10021 am
10950 10018 10024 am
10951 10026 10025 am
10952 10027 10026 am
10953 10028 10027 am
10954 10024 10025 am
10955 10023 10028 am
10956 10030 10029 1
10957 10031 10030 1
10958 10032 10031 am
10959 10027 10029 1
10960 10026 10032 am
10961 10034 10033 1
10962 10035 10034 am
10963 10036 10035 1
10964 10030 10033 1
10965 10029 10036 1
10966 10038 10037 am
10967 10039 10038 am
10968 10040 10039 am
10969 10032 10037 am
10970 10031 10040 am
10971 10042 10041 1
10972 10043 10042 am
10973 10044 10043 1
10974 10039 10041 1
10975 10038 10044 1
10976 10046 10045 1
10977 10047 10046 1
10978 10048 10047 am
10979 10043 10045 1
10980 10042 10048 am
10981 10050 10049 am
10982 10051 10050 am
10983 10052 10051 am
10984 10048 10049 am
10985 10047 10052 am
10986 10054 10053 1
10987 10055 10054 1
10988 10056 10055 1
10989 10052 10053 1
10990 10051 10056 1
10991 10058 10057 1
10992 10059 10058 am
10993 10050 10059 am
10994 10056 10057 1
10995 10061 10060 am
10996 10062 10061 am
10997 10063 10062 am
10998 10059 10060 am
10999 10058 10063 am
11000 10016 10064 1
11001 10064 10065 1
11002 10011 10066 1
11003 10015 10067 1
11004 10012 10068 1
11005 10021 10069 1
11006 10022 10070 1
11007 10028 10071 1
11008 10035 10072 1
11009 10034 10073 1
11010 10040 10074 1
11011 10037 10075 1
11012 10044 10076 2
11013 10041 10077 2
11014 10063 10078 1
11015 10062 10079 1
11016 10017 10080 1
11017 10017 10081 1
11018 10020 10082 1
11019 10020 10083 1
11020 10025 10084 1
11021 10033 10085 1
11022 10033 10086 1
11023 10034 10087 1
11024 10035 10088 1
11025 10036 10089 1
11026 10036 10090 1
11027 10045 10091 1
11028 10045 10092 1
11029 10046 10093 1
11030 10046 10094 1
11031 10053 10095 1
11032 10053 10096 1
11033 10054 10097 1
11034 10054 10098 1
11035 10055 10099 1
11036 10055 10100 1
11037 10056 10101 1
11038 10057 10102 1
11039 10057 10103 1
11040 10060 10104 1
11041 10061 10105 1
11042 10064 10106 1
11043 10064 10107 1
11044 10065 10108 1
11045 10065 10109 1
11046 10065 10110 1
11047 10066 10111 1
11048 10066 10112 1
11049 10066 10113 1
11050 10067 10114 1
11051 10067 10115 1
11052 10067 10116 1
11053 10068 10117 1
11054 10068 10118 1
11055 10068 10119 1
11056 10069 10120 1
11057 10069 10121 1
11058 10069 10122 1
11059 10070 10123 1
11060 10070 10124 1
11061 10070 10125 1
11062 10071 10126 1
11063 10072 10127 1
11064 10072 10128 1
11065 10072 10129 1
11066 10073 10130 1
11067 10073 10131 1
11068 10073 10132 1
11069 10074 10133 1
11070 10075 10134 1
11071 10078 10135 1
11072 10078 10136 1
11073 10078 10137 1
11074 10079 10138 1
11075 10079 10139 1
11076 10079 10140 1
11077 10143 10142 am
11078 10144 10143 am
11079 10145 10144 am
11080 10146 10145 am
11081 10141 10142 am
11082 10141 10146 am
11083 10148 10147 1
11084 10149 10148 am
11085 10150 10149 1
11086 10144 10147 1
11087 10143 10150 1
11088 10152 10151 am
11089 10153 10152 am
11090 10154 10153 am
11091 10149 10151 am
11092 10148 10154 am
11093 10156 10155 am
11094 10157 10156 am
11095 10158 10157 am
11096 10154 10155 am
11097 10153 10158 am
11098 10160 10159 1
11099 10161 10160 1
11100 10162 10161 am
11101 10157 10159 1
11102 10156 10162 am
11103 10164 10163 1
11104 10165 10164 am
11105 10166 10165 1
11106 10160 10163 1
11107 10159 10166 1
11108 10168 10167 am
11109 10169 10168 am
11110 10170 10169 am
11111 10162 10167 am
11112 10161 10170 am
11113 10172 10171 1
11114 10173 10172 am
11115 10174 10173 1
11116 10169 10171 1
11117 10168 10174 1
11118 10176 10175 1
11119 10177 10176 1
11120 10178 10177 am
11121 10173 10175 1
11122 10172 10178 am
11123 10180 10179 am
11124 10181 10180 am
11125 10182 10181 am
11126 10178 10179 am
11127 10177 10182 am
11128 10184 10183 1
11129 10185 10184 1
11130 10186 10185 1
11131 10182 10183 1
11132 10181 10186 1
11133 10188 10187 1
11134 10189 10188 am
11135 10180 10189 am
11136 10186 10187 1
11137 10191 10190 am
11138 10192 10191 am
11139 10193 10192 am
11140 10189 10190 am
11141 10188 10193 am
11142 10146 10194 1
11143 10194 10195 1
11144 10141 10196 1
11145 10145 10197 1
11146 10142 10198 1
11147 10151 10199 1
11148 10152 10200 1
11149 10158 10201 1
11150 10165 10202 1
11151 10164 10203 1
11152 10170 10204 1
11153 10167 10205 1
11154 10174 10206 2
11155 10171 10207 2
11156 10193 10208 1
11157 10192 10209 1
11158 10147 10210 1
11159 10147 10211 1
11160 10150 10212 1
11161 10150 10213 1
11162 10155 10214 1
11163 10163 10215 1
11164 10163 10216 1
11165 10164 10217 1
11166 10165 10218 1
11167 10166 10219 1
11168 10166 10220 1
11169 10175 10221 1
11170 10175 10222 1
11171 10176 10223 1
11172 10176 10224 1
11173 10183 10225 1
11174 10183 10226 1
11175 10184 10227 1
11176 10184 10228 1
11177 10185 10229 1
11178 10185 10230 1
11179 10186 10231 1
11180 10187 10232 1
11181 10187 10233 1
11182 10190 10234 1
11183 10191 10235 1
11184 10194 10236 1
11185 10194 10237 1
11186 10195 10238 1
11187 10195 10239 1
11188 10195 10240 1
11189 10196 10241 1
11190 10196 10242 1
11191 10196 10243 1
11192 10197 10244 1
11193 10197 10245 1
11194 10197 10246 1
11195 10198 10247 1
11196 10198 10248 1
11197 10198 10249 1
11198 10199 10250 1
11199 10199 10251 1
11200 10199 10252 1
11201 10200 10253 1
11202 10200 10254 1
11203 10200 10255 1
11204 10201 10256 1
11205 10202 10257 1
11206 10202 10258 1
11207 10202 10259 1
11208 10203 10260 1
11209 10203 10261 1
11210 10203 10262 1
11211 10204 10263 1
11212 10205 10264 1
11213 10208 10265 1
11214 10208 10266 1
11215 10208 10267 1
11216 10209 10268 1
11217 10209 10269 1
11218 10209 10270 1
11219 10273 10272 am
11220 10274 10273 am
11221 10275 10274 am
11222 10276 10275 am
11223 10271 10272 am
11224 10271 10276 am
11225 10278 10277 1
11226 10279 10278 am
11227 10280 10279 1
11228 10274 10277 1
11229 10273 10280 1
11230 10282 10281 am
11231 10283 10282 am
11232 10284 10283 am
11233 10279 10281 am
11234 10278 10284 am
11235 10286 10285 am
11236 10287 10286 am
11237 10288 10287 am
11238 10284 10285 am
11239 10283 10288 am
11240 10290 10289 1
11241 10291 10290 1
11242 10292 10291 am
11243 10287 10289 1
11244 10286 10292 am
11245 10294 10293 1
11246 10295 10294 am
11247 10296 10295 1
11248 10290 10293 1
11249 10289 10296 1
11250 10298 10297 am
11251 10299 10298 am
11252 10300 10299 am
11253 10292 10297 am
11254 10291 10300 am
11255 10302 10301 1
11256 10303 10302 am
11257 10304 10303 1
11258 10299 10301 1
11259 10298 10304 1
11260 10306 10305 1
11261 10307 10306 1
11262 10308 10307 am
11263 10303 10305 1
11264 10302 10308 am
11265 10310 10309 am
11266 10311 10310 am
11267 10312 10311 am
11268 10308 10309 am
11269 10307 10312 am
11270 10314 10313 1
11271 10315 10314 1
11272 10316 10315 1
11273 10312 10313 1
11274 10311 10316 1
11275 10318 10317 1
11276 10319 10318 am
11277 10310 10319 am
11278 10316 10317 1
11279 10321 10320 am
11280 10322 10321 am
11281 10323 10322 am
11282 10319 10320 am
11283 10318 10323 am
11284 10276 10324 1
11285 10324 10325 1
11286 10271 10326 1
11287 10275 10327 1
11288 10272 10328 1
11289 10281 10329 1
11290 10282 10330 1
11291 10288 10331 1
11292 10295 10332 1
11293 10294 10333 1
11294 10300 10334 1
11295 10297 10335 1
11296 10304 10336 2
11297 10301 10337 2
11298 10323 10338 1
11299 10322 10339 1
11300 10277 10340 1
11301 10277 10341 1
11302 10280 10342 1
11303 10280 10343 1
11304 10285 10344 1
11305 10293 10345 1
11306 10293 10346 1
11307 10294 10347 1
11308 10295 10348 1
11309 10296 10349 1
11310 10296 10350 1
11311 10305 10351 1
11312 10305 10352 1
11313 10306 10353 1
11314 10306 10354 1
11315 10313 10355 1
11316 10313 10356 1
11317 10314 10357 1
11318 10314 10358 1
11319 10315 10359 1
11320 10315 10360 1
11321 10316 10361 1
11322 10317 10362 1
11323 10317 10363 1
11324 10320 10364 1
11325 10321 10365 1
11326 10324 10366 1
11327 10324 10367 1
11328 10325 10368 1
11329 10325 10369 1
11330 10325 10370 1
11331 10326 10371 1
11332 10326 10372 1
11333 10326 10373 1
11334 10327 10374 1
11335 10327 10375 1
11336 10327 10376 1
11337 10328 10377 1
11338 10328 10378 1
11339 10328 10379 1
11340 10329 10380 1
11341 10329 10381 1
11342 10329 10382 1
11343 10330 10383 1
11344 10330 10384 1
11345 10330 10385 1
11346 10331 10386 1
11347 10332 10387 1
11348 10332 10388 1
11349 10332 10389 1
11350 10333 10390 1
11351 10333 10391 1
11352 10333 10392 1
11353 10334 10393 1
11354 10335 10394 1
11355 10338 10395 1
11356 10338 10396 1
11357 10338 10397 1
11358 10339 10398 1
11359 10339 10399 1
11360 10339 10400 1
11361 10403 10402 1
11362 10404 10403 am
11363 10405 10404 1
11364 10401 10402 1
11365 10401 10405 1
11366 10407 10406 am
11367 10408 10407 am
11368 10409 10408 am
11369 10404 10406 am
11370 10403 10409 am
11371 10411 10410 am
11372 10412 10411 un
11373 10413 10412 am
11374 10408 10410 am
11375 10407 10413 am
11376 10415 10414 un
11377 10416 10415 un
11378 10417 10416 un
11379 10412 10414 un
11380 10411 10417 un
11381 10419 10418 un
11382 10420 10419 un
11383 10421 10420 un
11384 10416 10418 un
11385 10415 10421 un
11386 10423 10422 un
11387 10424 10423 un
11388 10425 10424 un
11389 10420 10422 un
11390 10419 10425 un
11391 10427 10426 am
11392 10428 10427 1
11393 10424 10426 1
11394 10423 10428 1
11395 10430 10429 am
11396 10431 10430 am
11397 10432 10431 am
11398 10427 10429 am
11399 10426 10432 am
11400 10434 10433 am
11401 10435 10434 am
11402 10436 10435 am
11403 10431 10433 am
11404 10430 10436 am
11405 10438 10437 1
11406 10439 10438 1
11407 10440 10439 1
11408 10435 10437 1
11409 10434 10440 1
11410 10438 10441 2
11411 10441 10442 1
11412 10442 10443 1
11413 10443 10444 un
11414 10444 10445 1
11415 10439 10445 2
11416 10447 10446 1
11417 10448 10447 1
11418 10449 10448 1
11419 10444 10446 un
11420 10445 10449 1
11421 10451 10450 un
11422 10452 10451 un
11423 10446 10452 un
11424 10443 10450 un
11425 10454 10453 1
11426 10455 10454 am
11427 10456 10455 1
11428 10452 10453 1
11429 10451 10456 1
11430 10458 10457 am
11431 10459 10458 am
11432 10460 10459 am
11433 10455 10457 am
11434 10454 10460 am
11435 10462 10461 1
11436 10463 10462 am
11437 10464 10463 1
11438 10460 10461 1
11439 10459 10464 1
11440 10466 10465 am
11441 10467 10466 am
11442 10468 10467 am
11443 10463 10465 am
11444 10462 10468 am
11445 10470 10469 am
11446 10471 10470 am
11447 10472 10471 am
11448 10468 10469 am
11449 10467 10472 am
11450 10474 10473 1
11451 10475 10474 am
11452 10476 10475 1
11453 10458 10473 1
11454 10457 10476 1
11455 10478 10477 am
11456 10479 10478 am
11457 10480 10479 am
11458 10475 10477 am
11459 10474 10480 am
11460 10482 10481 1
11461 10483 10482 1
11462 10484 10483 1
11463 10480 10481 1
11464 10479 10484 1
11465 10406 10485 1
11466 10421 10486 1
11467 10440 10487 1
11468 10441 10488 1
11469 10442 10489 2
11470 10478 10490 1
11471 10484 10491 2
11472 10471 10492 1
11473 10495 10494 un
11474 10496 10495 un
11475 10497 10496 un
11476 10498 10497 un
11477 10493 10494 un
11478 10493 10498 un
11479 10500 10499 1
11480 10501 10500 am
11481 10502 10501 1
11482 10497 10499 1
11483 10496 10502 1
11484 10504 10503 1
11485 10505 10504 2
11486 10506 10505 1
11487 10501 10503 1
11488 10500 10506 1
11489 10508 10507 1
11490 10509 10508 1
11491 10510 10509 1
11492 10505 10507 1
11493 10504 10510 1
11494 10498 10511 1
11495 10495 10512 1
11496 10499 10513 2
11497 10502 10514 2
11498 10503 10515 1
11499 10503 10516 1
11500 10506 10517 1
11501 10506 10518 1
11502 10507 10519 1
11503 10507 10520 1
11504 10508 10521 1
11505 10508 10522 1
11506 10509 10523 1
11507 10509 10524 1
11508 10510 10525 1
11509 10510 10526 1
11510 10511 10527 1
11511 10512 10528 1
11512 10440 10494 1
11513 10437 10493 1
11514 10401 10529 1
11515 10401 10530 1
11516 10402 10531 1
11517 10402 10532 1
11518 10405 10533 1
11519 10405 10534 1
11520 10409 10535 1
11521 10410 10536 1
11522 10413 10537 1
11523 10414 10538 1
11524 10417 10539 1
11525 10422 10540 1
11526 10428 10541 1
11527 10428 10542 1
11528 10429 10543 1
11529 10432 10544 1
11530 10433 10545 1
11531 10436 10546 1
11532 10437 10547 1
11533 10447 10548 1
11534 10447 10549 1
11535 10448 10550 1
11536 10448 10551 1
11537 10449 10552 1
11538 10449 10553 1
11539 10450 10554 1
11540 10453 10555 1
11541 10453 10556 1
11542 10456 10557 1
11543 10456 10558 1
11544 10461 10559 1
11545 10461 10560 1
11546 10464 10561 1
11547 10464 10562 1
11548 10465 10563 1
11549 10469 10564 1
11550 10470 10565 1
11551 10472 10566 1
11552 10473 10567 1
11553 10473 10568 1
11554 10476 10569 1
11555 10476 10570 1
11556 10477 10571 1
11557 10481 10572 1
11558 10481 10573 1
11559 10482 10574 1
11560 10482 10575 1
11561 10483 10576 1
11562 10483 10577 1
11563 10485 10578 1
11564 10486 10579 1
11565 10487 10580 1
11566 10487 10581 1
11567 10487 10582 1
11568 10488 10583 1
11569 10490 10584 1
11570 10492 10585 1
11571 10492 10586 1
11572 10492 10587 1
11573 10418 10588 1
11574 10591 10590 1
11575 10592 10591 am
11576 10593 10592 1
11577 10589 10590 1
11578 10589 10593 1
11579 10595 10594 am
11580 10596 10595 am
11581 10597 10596 am
11582 10592 10594 am
11583 10591 10597 am
11584 10599 10598 am
11585 10600 10599 un
11586 10601 10600 am
11587 10596 10598 am
11588 10595 10601 am
11589 10603 10602 un
11590 10604 10603 un
11591 10605 10604 un
11592 10600 10602 un
11593 10599 10605 un
11594 10607 10606 un
11595 10608 10607 un
11596 10609 10608 un
11597 10604 10606 un
11598 10603 10609 un
11599 10611 10610 un
11600 10612 10611 un
11601 10613 10612 un
11602 10608 10610 un
11603 10607 10613 un
11604 10615 10614 am
11605 10616 10615 1
11606 10612 10614 1
11607 10611 10616 1
11608 10618 10617 am
11609 10619 10618 am
11610 10620 10619 am
11611 10615 10617 am
11612 10614 10620 am
11613 10622 10621 am
11614 10623 10622 am
11615 10624 10623 am
11616 10619 10621 am
11617 10618 10624 am
11618 10626 10625 1
11619 10627 10626 1
11620 10628 10627 1
11621 10623 10625 1
11622 10622 10628 1
11623 10626 10629 2
11624 10629 10630 1
11625 10630 10631 1
11626 10631 10632 un
11627 10632 10633 1
11628 10627 10633 2
11629 10635 10634 1
11630 10636 10635 1
11631 10637 10636 1
11632 10632 10634 un
11633 10633 10637 1
11634 10639 10638 un
11635 10640 10639 un
11636 10634 10640 un
11637 10631 10638 un
11638 10642 10641 1
11639 10643 10642 am
11640 10644 10643 1
11641 10640 10641 1
11642 10639 10644 1
11643 10646 10645 am
11644 10647 10646 am
11645 10648 10647 am
11646 10643 10645 am
11647 10642 10648 am
11648 10650 10649 1
11649 10651 10650 am
11650 10652 10651 1
11651 10648 10649 1
11652 10647 10652 1
11653 10654 10653 am
11654 10655 10654 am
11655 10656 10655 am
11656 10651 10653 am
11657 10650 10656 am
11658 10658 10657 am
11659 10659 10658 am
11660 10660 10659 am
11661 10656 10657 am
11662 10655 10660 am
11663 10662 10661 1
11664 10663 10662 am
11665 10664 10663 1
11666 10646 10661 1
11667 10645 10664 1
11668 10666 10665 am
11669 10667 10666 am
11670 10668 10667 am
11671 10663 10665 am
11672 10662 10668 am
11673 10670 10669 1
11674 10671 10670 1
11675 10672 10671 1
11676 10668 10669 1
11677 10667 10672 1
11678 10594 10673 1
11679 10609 10674 1
11680 10628 10675 1
11681 10629 10676 1
11682 10630 10677 2
11683 10666 10678 1
11684 10672 10679 2
11685 10659 10680 1
11686 10683 10682 un
11687 10684 10683 un
11688 10685 10684 un
11689 10686 10685 un
11690 10681 10682 un
11691 10681 10686 un
11692 10688 10687 1
11693 10689 10688 am
11694 10690 10689 1
11695 10685 10687 1
11696 10684 10690 1
11697 10692 10691 1
11698 10693 10692 2
11699 10694 10693 1
11700 10689 10691 1
11701 10688 10694 1
11702 10696 10695 1
11703 10697 10696 1
11704 10698 10697 1
11705 10693 10695 1
11706 10692 10698 1
11707 10686 10699 1
11708 10683 10700 1
11709 10687 10701 2
11710 10690 10702 2
11711 10691 10703 1
11712 10691 10704 1
11713 10694 10705 1
11714 10694 10706 1
11715 10695 10707 1
11716 10695 10708 1
11717 10696 10709 1
11718 10696 10710 1
11719 10697 10711 1
11720 10697 10712 1
11721 10698 10713 1
11722 10698 10714 1
11723 10699 10715 1
11724 10700 10716 1
11725 10628 10682 1
11726 10625 10681 1
11727 10589 10717 1
11728 10589 10718 1
11729 10590 10719 1
11730 10590 10720 1
11731 10593 10721 1
11732 10593 10722 1
11733 10597 10723 1
11734 10598 10724 1
11735 10601 10725 1
11736 10602 10726 1
11737 10605 10727 1
11738 10610 10728 1
11739 10616 10729 1
11740 10616 10730 1
11741 10617 10731 1
11742 10620 10732 1
11743 10621 10733 1
11744 10624 10734 1
11745 10625 10735 1
11746 10635 10736 1
11747 10635 10737 1
11748 10636 10738 1
11749 10636 10739 1
11750 10637 10740 1
11751 10637 10741 1
11752 10638 10742 1
11753 10641 10743 1
11754 10641 10744 1
11755 10644 10745 1
11756 10644 10746 1
11757 10649 10747 1
11758 10649 10748 1
11759 10652 10749 1
11760 10652 10750 1
11761 10653 10751 1
11762 10657 10752 1
11763 10658 10753 1
11764 10660 10754 1
11765 10661 10755 1
11766 10661 10756 1
11767 10664 10757 1
11768 10664 10758 1
11769 10665 10759 1
11770 10669 10760 1
11771 10669 10761 1
11772 10670 10762 1
11773 10670 10763 1
11774 10671 10764 1
11775 10671 10765 1
11776 10673 10766 1
11777 10674 10767 1
11778 10675 10768 1
11779 10675 10769 1
11780 10675 10770 1
11781 10676 10771 1
11782 10678 10772 1
11783 10680 10773 1
11784 10680 10774 1
11785 10680 10775 1
11786 10606 10776 1
11787 10779 10778 1
11788 10780 10779 am
11789 10781 10780 1
11790 10777 10778 1
11791 10777 10781 1
11792 10783 10782 am
11793 10784 10783 am
11794 10785 10784 am
11795 10780 10782 am
11796 10779 10785 am
11797 10787 10786 am
11798 10788 10787 un
11799 10789 10788 am
11800 10784 10786 am
11801 10783 10789 am
11802 10791 10790 un
11803 10792 10791 un
11804 10793 10792 un
11805 10788 10790 un
11806 10787 10793 un
11807 10795 10794 un
11808 10796 10795 un
11809 10797 10796 un
11810 10792 10794 un
11811 10791 10797 un
11812 10799 10798 un
11813 10800 10799 un
11814 10801 10800 un
11815 10796 10798 un
11816 10795 10801 un
11817 10803 10802 am
11818 10804 10803 1
11819 10800 10802 1
11820 10799 10804 1
11821 10806 10805 am
11822 10807 10806 am
11823 10808 10807 am
11824 10803 10805 am
11825 10802 10808 am
11826 10810 10809 am
11827 10811 10810 am
11828 10812 10811 am
11829 10807 10809 am
11830 10806 10812 am
11831 10814 10813 1
11832 10815 10814 1
11833 10816 10815 1
11834 10811 10813 1
11835 10810 10816 1
11836 10814 10817 2
11837 10817 10818 1
11838 10818 10819 1
11839 10819 10820 un
11840 10820 10821 1
11841 10815 10821 2
11842 10823 10822 1
11843 10824 10823 1
11844 10825 10824 1
11845 10820 10822 un
11846 10821 10825 1
11847 10827 10826 un
11848 10828 10827 un
11849 10822 10828 un
11850 10819 10826 un
11851 10830 10829 1
11852 10831 10830 am
11853 10832 10831 1
11854 10828 10829 1
11855 10827 10832 1
11856 10834 10833 am
11857 10835 10834 am
11858 10836 10835 am
11859 10831 10833 am
11860 10830 10836 am
11861 10838 10837 1
11862 10839 10838 am
11863 10840 10839 1
11864 10836 10837 1
11865 10835 10840 1
11866 10842 10841 am
11867 10843 10842 am
11868 10844 10843 am
11869 10839 10841 am
11870 10838 10844 am
11871 10846 10845 am
11872 10847 10846 am
11873 10848 10847 am
11874 10844 10845 am
11875 10843 10848 am
11876 10850 10849 1
11877 10851 10850 am
11878 10852 10851 1
11879 10834 10849 1
11880 10833 10852 1
11881 10854 10853 am
11882 10855 10854 am
11883 10856 10855 am
11884 10851 10853 am
11885 10850 10856 am
11886 10858 10857 1
11887 10859 10858 1
11888 10860 10859 1
11889 10856 10857 1
11890 10855 10860 1
11891 10782 10861 1
11892 10797 10862 1
11893 10816 10863 1
11894 10817 10864 1
11895 10818 10865 2
11896 10854 10866 1
11897 10860 10867 2
11898 10847 10868 1
11899 10871 10870 un
11900 10872 10871 un
11901 10873 10872 un
11902 10874 10873 un
11903 10869 10870 un
11904 10869 10874 un
11905 10876 10875 1
11906 10877 10876 am
11907 10878 10877 1
11908 10873 10875 1
11909 10872 10878 1
11910 10880 10879 1
11911 10881 10880 2
11912 10882 10881 1
11913 10877 10879 1
11914 10876 10882 1
11915 10884 10883 1
11916 10885 10884 1
11917 10886 10885 1
11918 10881 10883 1
11919 10880 10886 1
11920 10874 10887 1
11921 10871 10888 1
11922 10875 10889 2
11923 10878 10890 2
11924 10879 10891 1
11925 10879 10892 1
11926 10882 10893 1
11927 10882 10894 1
11928 10883 10895 1
11929 10883 10896 1
11930 10884 10897 1
11931 10884 10898 1
11932 10885 10899 1
11933 10885 10900 1
11934 10886 10901 1
11935 10886 10902 1
11936 10887 10903 1
11937 10888 10904 1
11938 10816 10870 1
11939 10813 10869 1
11940 10777 10905 1
11941 10777 10906 1
11942 10778 10907 1
11943 10778 10908 1
11944 10781 10909 1
11945 10781 10910 1
11946 10785 10911 1
11947 10786 10912 1
11948 10789 10913 1
11949 10790 10914 1
11950 10793 10915 1
11951 10798 10916 1
11952 10804 10917 1
11953 10804 10918 1
11954 10805 10919 1
11955 10808 10920 1
11956 10809 10921 1
11957 10812 10922 1
11958 10813 10923 1
11959 10823 10924 1
11960 10823 10925 1
11961 10824 10926 1
11962 10824 10927 1
11963 10825 10928 1
11964 10825 10929 1
11965 10826 10930 1
11966 10829 10931 1
11967 10829 10932 1
11968 10832 10933 1
11969 10832 10934 1
11970 10837 10935 1
11971 10837 10936 1
11972 10840 10937 1
11973 10840 10938 1
11974 10841 10939 1
11975 10845 10940 1
11976 10846 10941 1
11977 10848 10942 1
11978 10849 10943 1
11979 10849 10944 1
11980 10852 10945 1
11981 10852 10946 1
11982 10853 10947 1
11983 10857 10948 1
11984 10857 10949 1
11985 10858 10950 1
11986 10858 10951 1
11987 10859 10952 1
11988 10859 10953 1
11989 10861 10954 1
11990 10862 10955 1
11991 10863 10956 1
11992 10863 10957 1
11993 10863 10958 1
11994 10864 10959 1
11995 10866 10960 1
11996 10868 10961 1
11997 10868 10962 1
11998 10868 10963 1
11999 10794 10964 1
12000 10967 10966 1
12001 10968 10967 am
12002 10969 10968 1
12003 10965 10966 1
12004 10965 10969 1
12005 10971 10970 am
12006 10972 10971 am
12007 10973 10972 am
12008 10968 10970 am
12009 10967 10973 am
12010 10975 10974 am
12011 10976 10975 un
12012 10977 10976 am
12013 10972 10974 am
12014 10971 10977 am
12015 10979 10978 un
12016 10980 10979 un
12017 10981 10980 un
12018 10976 10978 un
12019 10975 10981 un
12020 10983 10982 un
12021 10984 10983 un
12022 10985 10984 un
12023 10980 10982 un
12024 10979 10985 un
12025 10987 10986 un
12026 10988 10987 un
12027 10989 10988 un
12028 10984 10986 un
12029 10983 10989 un
12030 10991 10990 am
12031 10992 10991 1
12032 10988 10990 1
12033 10987 10992 1
12034 10994 10993 am
12035 10995 10994 am
12036 10996 10995 am
12037 10991 10993 am
12038 10990 10996 am
12039 10998 10997 am
12040 10999 10998 am
12041 11000 10999 am
12042 10995 10997 am
12043 10994 11000 am
12044 11002 11001 1
12045 11003 11002 1
12046 11004 11003 1
12047 10999 11001 1
12048 10998 11004 1
12049 11002 11005 2
12050 11005 11006 1
12051 11006 11007 1
12052 11007 11008 un
12053 11008 11009 1
12054 11003 11009 2
12055 11011 11010 1
12056 11012 11011 1
12057 11013 11012 1
12058 11008 11010 un
12059 11009 11013 1
12060 11015 11014 un
12061 11016 11015 un
12062 11010 11016 un
12063 11007 11014 un
12064 11018 11017 1
12065 11019 11018 am
12066 11020 11019 1
12067 11016 11017 1
12068 11015 11020 1
12069 11022 11021 am
12070 11023 11022 am
12071 11024 11023 am
12072 11019 11021 am
12073 11018 11024 am
12074 11026 11025 1
12075 11027 11026 am
12076 11028 11027 1
12077 11024 11025 1
12078 11023 11028 1
12079 11030 11029 am
12080 11031 11030 am
12081 11032 11031 am
12082 11027 11029 am
12083 11026 11032 am
12084 11034 11033 am
12085 11035 11034 am
12086 11036 11035 am
12087 11032 11033 am
12088 11031 11036 am
12089 11038 11037 1
12090 11039 11038 am
12091 11040 11039 1
12092 11022 11037 1
12093 11021 11040 1
12094 11042 11041 am
12095 11043 11042 am
12096 11044 11043 am
12097 11039 11041 am
12098 11038 11044 am
12099 11046 11045 1
12100 11047 11046 1
12101 11048 11047 1
12102 11044 11045 1
12103 11043 11048 1
12104 10970 11049 1
12105 10985 11050 1
12106 11004 11051 1
12107 11005 11052 1
12108 11006 11053 2
12109 11042 11054 1
12110 11048 11055 2
12111 11035 11056 1
12112 11059 11058 un
12113 11060 11059 un
12114 11061 11060 un
12115 11062 11061 un
12116 11057 11058 un
12117 11057 11062 un
12118 11064 11063 1
12119 11065 11064 am
12120 11066 11065 1
12121 11061 11063 1
12122 11060 11066 1
12123 11068 11067 1
12124 11069 11068 2
12125 11070 11069 1
12126 11065 11067 1
12127 11064 11070 1
12128 11072 11071 1
12129 11073 11072 1
12130 11074 11073 1
12131 11069 11071 1
12132 11068 11074 1
12133 11062 11075 1
12134 11059 11076 1
12135 11063 11077 2
12136 11066 11078 2
12137 11067 11079 1
12138 11067 11080 1
12139 11070 11081 1
12140 11070 11082 1
12141 11071 11083 1
12142 11071 11084 1
12143 11072 11085 1
12144 11072 11086 1
12145 11073 11087 1
12146 11073 11088 1
12147 11074 11089 1
12148 11074 11090 1
12149 11075 11091 1
12150 11076 11092 1
12151 11004 11058 1
12152 11001 11057 1
12153 10965 11093 1
12154 10965 11094 1
12155 10966 11095 1
12156 10966 11096 1
12157 10969 11097 1
12158 10969 11098 1
12159 10973 11099 1
12160 10974 11100 1
12161 10977 11101 1
12162 10978 11102 1
12163 10981 11103 1
12164 10986 11104 1
12165 10992 11105 1
12166 10992 11106 1
12167 10993 11107 1
12168 10996 11108 1
12169 10997 11109 1
12170 11000 11110 1
12171 11001 11111 1
12172 11011 11112 1
12173 11011 11113 1
12174 11012 11114 1
12175 11012 11115 1
12176 11013 11116 1
12177 11013 11117 1
12178 11014 11118 1
12179 11017 11119 1
12180 11017 11120 1
12181 11020 11121 1
12182 11020 11122 1
12183 11025 11123 1
12184 11025 11124 1
12185 11028 11125 1
12186 11028 11126 1
12187 11029 11127 1
12188 11033 11128 1
12189 11034 11129 1
12190 11036 11130 1
12191 11037 11131 1
12192 11037 11132 1
12193 11040 11133 1
12194 11040 11134 1
12195 11041 11135 1
12196 11045 11136 1
12197 11045 11137 1
12198 11046 11138 1
12199 11046 11139 1
12200 11047 11140 1
12201 11047 11141 1
12202 11049 11142 1
12203 11050 11143 1
12204 11051 11144 1
12205 11051 11145 1
12206 11051 11146 1
12207 11052 11147 1
12208 11054 11148 1
12209 11056 11149 1
12210 11056 11150 1
12211 11056 11151 1
12212 10982 11152 1
12213 11155 11154 1
12214 11156 11155 am
12215 11157 11156 1
12216 11153 11154 1
12217 11153 11157 1
12218 11159 11158 am
12219 11160 11159 am
12220 11161 11160 am
12221 11156 11158 am
12222 11155 11161 am
12223 11163 11162 am
12224 11164 11163 un
12225 11165 11164 am
12226 11160 11162 am
12227 11159 11165 am
12228 11167 11166 un
12229 11168 11167 un
12230 11169 11168 un
12231 11164 11166 un
12232 11163 11169 un
12233 11171 11170 un
12234 11172 11171 un
12235 11173 11172 un
12236 11168 11170 un
12237 11167 11173 un
12238 11175 11174 un
12239 11176 11175 un
12240 11177 11176 un
12241 11172 11174 un
12242 11171 11177 un
12243 11179 11178 am
12244 11180 11179 1
12245 11176 11178 1
12246 11175 11180 1
12247 11182 11181 am
12248 11183 11182 am
12249 11184 11183 am
12250 11179 11181 am
12251 11178 11184 am
12252 11186 11185 am
12253 11187 11186 am
12254 11188 11187 am
12255 11183 11185 am
12256 11182 11188 am
12257 11190 11189 1
12258 11191 11190 1
12259 11192 11191 1
12260 11187 11189 1
12261 11186 11192 1
12262 11190 11193 2
12263 11193 11194 1
12264 11194 11195 1
12265 11195 11196 un
12266 11196 11197 1
12267 11191 11197 2
12268 11199 11198 1
12269 11200 11199 1
12270 11201 11200 1
12271 11196 11198 un
12272 11197 11201 1
12273 11203 11202 un
12274 11204 11203 un
12275 11198 11204 un
12276 11195 11202 un
12277 11206 11205 1
12278 11207 11206 am
12279 11208 11207 1
12280 11204 11205 1
12281 11203 11208 1
12282 11210 11209 am
12283 11211 11210 am
12284 11212 11211 am
12285 11207 11209 am
12286 11206 11212 am
12287 11214 11213 1
12288 11215 11214 am
12289 11216 11215 1
12290 11212 11213 1
12291 11211 11216 1
12292 11218 11217 am
12293 11219 11218 am
12294 11220 11219 am
12295 11215 11217 am
12296 11214 11220 am
12297 11222 11221 am
12298 11223 11222 am
12299 11224 11223 am
12300 11220 11221 am
12301 11219 11224 am
12302 11226 11225 1
12303 11227 11226 am
12304 11228 11227 1
12305 11210 11225 1
12306 11209 11228 1
12307 11230 11229 am
12308 11231 11230 am
12309 11232 11231 am
12310 11227 11229 am
12311 11226 11232 am
12312 11234 11233 1
12313 11235 11234 1
12314 11236 11235 1
12315 11232 11233 1
12316 11231 11236 1
12317 11158 11237 1
12318 11173 11238 1
12319 11192 11239 1
12320 11193 11240 1
12321 11194 11241 2
12322 11230 11242 1
12323 11236 11243 2
12324 11223 11244 1
12325 11247 11246 un
12326 11248 11247 un
12327 11249 11248 un
12328 11250 11249 un
12329 11245 11246 un
12330 11245 11250 un
12331 11252 11251 1
12332 11253 11252 am
12333 11254 11253 1
12334 11249 11251 1
12335 11248 11254 1
12336 11256 11255 1
12337 11257 11256 2
12338 11258 11257 1
12339 11253 11255 1
12340 11252 11258 1
12341 11260 11259 1
12342 11261 11260 1
12343 11262 11261 1
12344 11257 11259 1
12345 11256 11262 1
12346 11250 11263 1
12347 11247 11264 1
12348 11251 11265 2
12349 11254 11266 2
12350 11255 11267 1
12351 11255 11268 1
12352 11258 11269 1
12353 11258 11270 1
12354 11259 11271 1
12355 11259 11272 1
12356 11260 11273 1
12357 11260 11274 1
12358 11261 11275 1
12359 11261 11276 1
12360 11262 11277 1
12361 11262 11278 1
12362 11263 11279 1
12363 11264 11280 1
12364 11192 11246 1
12365 11189 11245 1
12366 11153 11281 1
12367 11153 11282 1
12368 11154 11283 1
12369 11154 11284 1
12370 11157 11285 1
12371 11157 11286 1
12372 11161 11287 1
12373 11162 11288 1
12374 11165 11289 1
12375 11166 11290 1
12376 11169 11291 1
12377 11174 11292 1
12378 11180 11293 1
12379 11180 11294 1
12380 11181 11295 1
12381 11184 11296 1
12382 11185 11297 1
12383 11188 11298 1
12384 11189 11299 1
12385 11199 11300 1
12386 11199 11301 1
12387 11200 11302 1
12388 11200 11303 1
12389 11201 11304 1
12390 11201 11305 1
12391 11202 11306 1
12392 11205 11307 1
12393 11205 11308 1
12394 11208 11309 1
12395 11208 11310 1
12396 11213 11311 1
12397 11213 11312 1
12398 11216 11313 1
12399 11216 11314 1
12400 11217 11315 1
12401 11221 11316 1
12402 11222 11317 1
12403 11224 11318 1
12404 11225 11319 1
12405 11225 11320 1
12406 11228 11321 1
12407 11228 11322 1
12408 11229 11323 1
12409 11233 11324 1
12410 11233 11325 1
12411 11234 11326 1
12412 11234 11327 1
12413 11235 11328 1
12414 11235 11329 1
12415 11237 11330 1
12416 11238 11331 1
12417 11239 11332 1
12418 11239 11333 1
12419 11239 11334 1
12420 11240 11335 1
12421 11242 11336 1
12422 11244 11337 1
12423 11244 11338 1
12424 11244 11339 1
12425 11170 11340 1
12426 11343 11342 1
12427 11344 11343 am
12428 11345 11344 1
12429 11341 11342 1
12430 11341 11345 1
12431 11347 11346 am
12432 11348 11347 am
12433 11349 11348 am
12434 11344 11346 am
12435 11343 11349 am
12436 11351 11350 am
12437 11352 11351 un
12438 11353 11352 am
12439 11348 11350 am
12440 11347 11353 am
12441 11355 11354 un
12442 11356 11355 un
12443 11357 11356 un
12444 11352 11354 un
12445 11351 11357 un
12446 11359 11358 un
12447 11360 11359 un
12448 11361 11360 un
12449 11356 11358 un
12450 11355 11361 un
12451 11363 11362 un
12452 11364 11363 un
12453 11365 11364 un
12454 11360 11362 un
12455 11359 11365 un
12456 11367 11366 am
12457 11368 11367 1
12458 11364 11366 1
12459 11363 11368 1
12460 11370 11369 am
12461 11371 11370 am
12462 11372 11371 am
12463 11367 11369 am
12464 11366 11372 am
12465 11374 11373 am
12466 11375 11374 am
12467 11376 11375 am
12468 11371 11373 am
12469 11370 11376 am
12470 11378 11377 1
12471 11379 11378 1
12472 11380 11379 1
12473 11375 11377 1
12474 11374 11380 1
12475 11378 11381 2
12476 11381 11382 1
12477 11382 11383 1
12478 11383 11384 un
12479 11384 11385 1
12480 11379 11385 2
12481 11387 11386 1
12482 11388 11387 1
12483 11389 11388 1
12484 11384 11386 un
12485 11385 11389 1
12486 11391 11390 un
12487 11392 11391 un
12488 11386 11392 un
12489 11383 11390 un
12490 11394 11393 1
12491 11395 11394 am
12492 11396 11395 1
12493 11392 11393 1
12494 11391 11396 1
12495 11398 11397 am
12496 11399 11398 am
12497 11400 11399 am
12498 11395 11397 am
12499 11394 11400 am
12500 11402 11401 1
12501 11403 11402 am
12502 11404 11403 1
12503 11400 11401 1
12504 11399 11404 1
12505 11406 11405 am
12506 11407 11406 am
12507 11408 11407 am
12508 11403 11405 am
12509 11402 11408 am
12510 11410 11409 am
12511 11411 11410 am
12512 11412 11411 am
12513 11408 11409 am
12514 11407 11412 am
12515 11414 11413 1
12516 11415 11414 am
12517 11416 11415 1
12518 11398 11413 1
12519 11397 11416 1
12520 11418 11417 am
12521 11419 11418 am
12522 11420 11419 am
12523 11415 11417 am
12524 11414 11420 am
12525 11422 11421 1
12526 11423 11422 1
12527 11424 11423 1
12528 11420 11421 1
12529 11419 11424 1
12530 11346 11425 1
12531 11361 11426 1
12532 11380 11427 1
12533 11381 11428 1
12534 11382 11429 2
12535 11418 11430 1
12536 11424 11431 2
12537 11411 11432 1
12538 11435 11434 un
12539 11436 11435 un
12540 11437 11436 un
12541 11438 11437 un
12542 11433 11434 un
12543 11433 11438 un
12544 11440 11439 1
12545 11441 11440 am
12546 11442 11441 1
12547 11437 11439 1
12548 11436 11442 1
12549 11444 11443 1
12550 11445 11444 2
12551 11446 11445 1
12552 11441 11443 1
12553 11440 11446 1
12554 11448 11447 1
12555 11449 11448 1
12556 11450 11449 1
12557 11445 11447 1
12558 11444 11450 1
12559 11438 11451 1
12560 11435 11452 1
12561 11439 11453 2
12562 11442 11454 2
12563 11443 11455 1
12564 11443 11456 1
12565 11446 11457 1
12566 11446 11458 1
12567 11447 11459 1
12568 11447 11460 1
12569 11448 11461 1
12570 11448 11462 1
12571 11449 11463 1
12572 11449 11464 1
12573 11450 11465 1
12574 11450 11466 1
12575 11451 11467 1
12576 11452 11468 1
12577 11380 11434 1
12578 11377 11433 1
12579 11341 11469 1
12580 11341 11470 1
12581 11342 11471 1
12582 11342 11472 1
12583 11345 11473 1
12584 11345 11474 1
12585 11349 11475 1
12586 11350 11476 1
12587 11353 11477 1
12588 11354 11478 1
12589 11357 11479 1
12590 11362 11480 1
12591 11368 11481 1
12592 11368 11482 1
12593 11369 11483 1
12594 11372 11484 1
12595 11373 11485 1
12596 11376 11486 1
12597 11377 11487 1
12598 11387 11488 1
12599 11387 11489 1
12600 11388 11490 1
12601 11388 11491 1
12602 11389 11492 1
12603 11389 11493 1
12604 11390 11494 1
12605 11393 11495 1
12606 11393 11496 1
12607 11396 11497 1
12608 11396 11498 1
12609 11401 11499 1
12610 11401 11500 1
12611 11404 11501 1
12612 11404 11502 1
12613 11405 11503 1
12614 11409 11504 1
12615 11410 11505 1
12616 11412 11506 1
12617 11413 11507 1
12618 11413 11508 1
12619 11416 11509 1
12620 11416 11510 1
12621 11417 11511 1
12622 11421 11512 1
12623 11421 11513 1
12624 11422 11514 1
12625 11422 11515 1
12626 11423 11516 1
12627 11423 11517 1
12628 11425 11518 1
12629 11426 11519 1
12630 11427 11520 1
12631 11427 11521 1
12632 11427 11522 1
12633 11428 11523 1
12634 11430 11524 1
12635 11432 11525 1
12636 11432 11526 1
12637 11432 11527 1
12638 11358 11528 1
12639 11531 11530 1
12640 11532 11531 am
12641 11533 11532 1
12642 11529 11530 1
12643 11529 11533 1
12644 11535 11534 am
12645 11536 11535 am
12646 11537 11536 am
12647 11532 11534 am
12648 11531 11537 am
12649 11539 11538 am
12650 11540 11539 un
12651 11541 11540 am
12652 11536 11538 am
12653 11535 11541 am
12654 11543 11542 un
12655 11544 11543 un
12656 11545 11544 un
12657 11540 11542 un
12658 11539 11545 un
12659 11547 11546 un
12660 11548 11547 un
12661 11549 11548 un
12662 11544 11546 un
12663 11543 11549 un
12664 11551 11550 un
12665 11552 11551 un
12666 11553 11552 un
12667 11548 11550 un
12668 11547 11553 un
12669 11555 11554 am
12670 11556 11555 1
12671 11552 11554 1
12672 11551 11556 1
12673 11558 11557 am
12674 11559 11558 am
12675 11560 11559 am
12676 11555 11557 am
12677 11554 11560 am
12678 11562 11561 am
12679 11563 11562 am
12680 11564 11563 am
12681 11559 11561 am
12682 11558 11564 am
12683 11566 11565 1
12684 11567 11566 1
12685 11568 11567 1
12686 11563 11565 1
12687 11562 11568 1
12688 11566 11569 2
12689 11569 11570 1
12690 11570 11571 1
12691 11571 11572 un
12692 11572 11573 1
12693 11567 11573 2
12694 11575 11574 1
12695 11576 11575 1
12696 11577 11576 1
12697 11572 11574 un
12698 11573 11577 1
12699 11579 11578 un
12700 11580 11579 un
12701 11574 11580 un
12702 11571 11578 un
12703 11582 11581 1
12704 11583 11582 am
12705 11584 11583 1
12706 11580 11581 1
12707 11579 11584 1
12708 11586 11585 am
12709 11587 11586 am
12710 11588 11587 am
12711 11583 11585 am
12712 11582 11588 am
12713 11590 11589 1
12714 11591 11590 am
12715 11592 11591 1
12716 11588 11589 1
12717 11587 11592 1
12718 11594 11593 am
12719 11595 11594 am
12720 11596 11595 am
12721 11591 11593 am
12722 11590 11596 am
12723 11598 11597 am
12724 11599 11598 am
12725 11600 11599 am
12726 11596 11597 am
12727 11595 11600 am
12728 11602 11601 1
12729 11603 11602 am
12730 11604 11603 1
12731 11586 11601 1
12732 11585 11604 1
12733 11606 11605 am
12734 11607 11606 am
12735 11608 11607 am
12736 11603 11605 am
12737 11602 11608 am
12738 11610 11609 1
12739 11611 11610 1
12740 11612 11611 1
12741 11608 11609 1
12742 11607 11612 1
12743 11534 11613 1
12744 11549 11614 1
12745 11568 11615 1
12746 11569 11616 1
12747 11570 11617 2
12748 11606 11618 1
12749 11612 11619 2
12750 11599 11620 1
12751 11623 11622 un
12752 11624 11623 un
12753 11625 11624 un
12754 11626 11625 un
12755 11621 11622 un
12756 11621 11626 un
12757 11628 11627 1
12758 11629 11628 am
12759 11630 11629 1
12760 11625 11627 1
12761 11624 11630 1
12762 11632 11631 1
12763 11633 11632 2
12764 11634 11633 1
12765 11629 11631 1
12766 11628 11634 1
12767 11636 11635 1
12768 11637 11636 1
12769 11638 11637 1
12770 11633 11635 1
12771 11632 11638 1
12772 11626 11639 1
12773 11623 11640 1
12774 11627 11641 2
12775 11630 11642 2
12776 11631 11643 1
12777 11631 11644 1
12778 11634 11645 1
12779 11634 11646 1
12780 11635 11647 1
12781 11635 11648 1
12782 11636 11649 1
12783 11636 11650 1
12784 11637 11651 1
12785 11637 11652 1
12786 11638 11653 1
12787 11638 11654 1
12788 11639 11655 1
12789 11640 11656 1
12790 11568 11622 1
12791 11565 11621 1
12792 11529 11657 1
12793 11529 11658 1
12794 11530 11659 1
12795 11530 11660 1
12796 11533 11661 1
12797 11533 11662 1
12798 11537 11663 1
12799 11538 11664 1
12800 11541 11665 1
12801 11542 11666 1
12802 11545 11667 1
12803 11550 11668 1
12804 11556 11669 1
12805 11556 11670 1
12806 11557 11671 1
12807 11560 11672 1
12808 11561 11673 1
12809 11564 11674 1
12810 11565 11675 1
12811 11575 11676 1
12812 11575 11677 1
12813 11576 11678 1
12814 11576 11679 1
12815 11577 11680 1
12816 11577 11681 1
12817 11578 11682 1
12818 11581 11683 1
12819 11581 11684 1
12820 11584 11685 1
12821 11584 11686 1
12822 11589 11687 1
12823 11589 11688 1
12824 11592 11689 1
12825 11592 11690 1
12826 11593 11691 1
12827 11597 11692 1
12828 11598 11693 1
12829 11600 11694 1
12830 11601 11695 1
12831 11601 11696 1
12832 11604 11697 1
12833 11604 11698 1
12834 11605 11699 1
12835 11609 11700 1
12836 11609 11701 1
12837 11610 11702 1
12838 11610 11703 1
12839 11611 11704 1
12840 11611 11705 1
12841 11613 11706 1
12842 11614 11707 1
12843 11615 11708 1
12844 11615 11709 1
12845 11615 11710 1
12846 11616 11711 1
12847 11618 11712 1
12848 11620 11713 1
12849 11620 11714 1
12850 11620 11715 1
12851 11546 11716 1
12852 11719 11718 1
12853 11720 11719 am
12854 11721 11720 1
12855 11717 11718 1
12856 11717 11721 1
12857 11723 11722 am
12858 11724 11723 am
12859 11725 11724 am
12860 11720 11722 am
12861 11719 11725 am
12862 11727 11726 am
12863 11728 11727 un
12864 11729 11728 am
12865 11724 11726 am
12866 11723 11729 am
12867 11731 11730 un
12868 11732 11731 un
12869 11733 11732 un
12870 11728 11730 un
12871 11727 11733 un
12872 11735 11734 un
12873 11736 11735 un
12874 11737 11736 un
12875 11732 11734 un
12876 11731 11737 un
12877 11739 11738 un
12878 11740 11739 un
12879 11741 11740 un
12880 11736 11738 un
12881 11735 11741 un
12882 11743 11742 am
12883 11744 11743 1
12884 11740 11742 1
12885 11739 11744 1
12886 11746 11745 am
12887 11747 11746 am
12888 11748 11747 am
12889 11743 11745 am
12890 11742 11748 am
12891 11750 11749 am
12892 11751 11750 am
12893 11752 11751 am
12894 11747 11749 am
12895 11746 11752 am
12896 11754 11753 1
12897 11755 11754 1
12898 11756 11755 1
12899 11751 11753 1
12900 11750 11756 1
12901 11754 11757 2
12902 11757 11758 1
12903 11758 11759 1
12904 11759 11760 un
12905 11760 11761 1
12906 11755 11761 2
12907 11763 11762 1
12908 11764 11763 1
12909 11765 11764 1
12910 11760 11762 un
12911 11761 11765 1
12912 11767 11766 un
12913 11768 11767 un
12914 11762 11768 un
12915 11759 11766 un
12916 11770 11769 1
12917 11771 11770 am
12918 11772 11771 1
12919 11768 11769 1
12920 11767 11772 1
12921 11774 11773 am
12922 11775 11774 am
12923 11776 11775 am
12924 11771 11773 am
12925 11770 11776 am
12926 11778 11777 1
12927 11779 11778 am
12928 11780 11779 1
12929 11776 11777 1
12930 11775 11780 1
12931 11782 11781 am
12932 11783 11782 am
12933 11784 11783 am
12934 11779 11781 am
12935 11778 11784 am
12936 11786 11785 am
12937 11787 11786 am
12938 11788 11787 am
12939 11784 11785 am
12940 11783 11788 am
12941 11790 11789 1
12942 11791 11790 am
12943 11792 11791 1
12944 11774 11789 1
12945 11773 11792 1
12946 11794 11793 am
12947 11795 11794 am
12948 11796 11795 am
12949 11791 11793 am
12950 11790 11796 am
12951 11798 11797 1
12952 11799 11798 1
12953 11800 11799 1
12954 11796 11797 1
12955 11795 11800 1
12956 11722 11801 1
12957 11737 11802 1
12958 11756 11803 1
12959 11757 11804 1
12960 11758 11805 2
12961 11794 11806 1
12962 11800 11807 2
12963 11787 11808 1
12964 11811 11810 un
12965 11812 11811 un
12966 11813 11812 un
12967 11814 11813 un
12968 11809 11810 un
12969 11809 11814 un
12970 11816 11815 1
12971 11817 11816 am
12972 11818 11817 1
12973 11813 11815 1
12974 11812 11818 1
12975 11820 11819 1
12976 11821 11820 2
12977 11822 11821 1
12978 11817 11819 1
12979 11816 11822 1
12980 11824 11823 1
12981 11825 11824 1
12982 11826 11825 1
12983 11821 11823 1
12984 11820 11826 1
12985 11814 11827 1
12986 11811 11828 1
12987 11815 11829 2
12988 11818 11830 2
12989 11819 11831 1
12990 11819 11832 1
12991 11822 11833 1
12992 11822 11834 1
12993 11823 11835 1
12994 11823 11836 1
12995 11824 11837 1
12996 11824 11838 1
12997 11825 11839 1
12998 11825 11840 1
12999 11826 11841 1
13000 11826 11842 1
13001 11827 11843 1
13002 11828 11844 1
13003 11756 11810 1
13004 11753 11809 1
13005 11717 11845 1
13006 11717 11846 1
13007 11718 11847 1
13008 11718 11848 1
13009 11721 11849 1
13010 11721 11850 1
13011 11725 11851 1
13012 11726 11852 1
13013 11729 11853 1
13014 11730 11854 1
13015 11733 11855 1
13016 11738 11856 1
13017 11744 11857 1
13018 11744 11858 1
13019 11745 11859 1
13020 11748 11860 1
13021 11749 11861 1
13022 11752 11862 1
13023 11753 11863 1
13024 11763 11864 1
13025 11763 11865 1
13026 11764 11866 1
13027 11764 11867 1
13028 11765 11868 1
13029 11765 11869 1
13030 11766 11870 1
13031 11769 11871 1
13032 11769 11872 1
13033 11772 11873 1
13034 11772 11874 1
13035 11777 11875 1
13036 11777 11876 1
13037 11780 11877 1
13038 11780 11878 1
13039 11781 11879 1
13040 11785 11880 1
13041 11786 11881 1
13042 11788 11882 1
13043 11789 11883 1
13044 11789 11884 1
13045 11792 11885 1
13046 11792 11886 1
13047 11793 11887 1
13048 11797 11888 1
13049 11797 11889 1
13050 11798 11890 1
13051 11798 11891 1
13052 11799 11892 1
13053 11799 11893 1
13054 11801 11894 1
13055 11802 11895 1
13056 11803 11896 1
13057 11803 11897 1
13058 11803 11898 1
13059 11804 11899 1
13060 11806 11900 1
13061 11808 11901 1
13062 11808 11902 1
13063 11808 11903 1
13064 11734 11904 1
13065 11907 11906 1
13066 11908 11907 1
13067 11909 11908 1
13068 11910 11909 1
13069 11905 11906 1
13070 11905 11910 1
13071 11912 11911 1
13072 11913 11912 1
13073 11914 11913 1
13074 11908 11911 1
13075 11907 11914 1
13076 11916 11915 1
13077 11917 11916 1
13078 11918 11917 1
13079 11912 11915 1
13080 11911 11918 1
13081 11920 11919 un
13082 11921 11920 un
13083 11922 11921 un
13084 11917 11919 1
13085 11916 11922 1
13086 11924 11923 1
13087 11925 11924 un
13088 11926 11925 un
13089 11921 11923 un
13090 11920 11926 un
13091 11928 11927 1
13092 11929 11928 1
13093 11919 11929 1
13094 11926 11927 1
13095 11931 11930 1
13096 11932 11931 un
13097 11933 11932 un
13098 11925 11930 1
13099 11924 11933 un
13100 11935 11934 un
13101 11936 11935 2
13102 11922 11934 1
13103 11923 11936 un
13104 11938 11937 2
13105 11939 11938 1
13106 11940 11939 1
13107 11935 11937 1
13108 11934 11940 2
13109 11942 11941 1
13110 11943 11942 1
13111 11944 11943 2
13112 11938 11941 1
13113 11937 11944 1
13114 11946 11945 1
13115 11947 11946 1
13116 11948 11947 1
13117 11944 11945 1
13118 11943 11948 1
13119 11950 11949 un
13120 11936 11950 un
13121 11933 11949 un
13122 11952 11951 un
13123 11953 11952 1
13124 11949 11953 un
13125 11932 11951 un
13126 11955 11954 un
13127 11956 11955 un
13128 11957 11956 un
13129 11952 11954 un
13130 11951 11957 un
13131 11959 11958 un
13132 11960 11959 un
13133 11961 11960 un
13134 11956 11958 un
13135 11955 11961 un
13136 11963 11962 un
13137 11964 11963 un
13138 11965 11964 un
13139 11960 11962 un
13140 11959 11965 un
13141 11967 11966 un
13142 11931 11967 un
13143 11957 11966 un
13144 11969 11968 un
13145 11966 11969 un
13146 11958 11968 un
13147 11971 11970 un
13148 11968 11971 un
13149 11965 11970 un
13150 11973 11972 un
13151 11974 11973 un
13152 11970 11974 un
13153 11964 11972 un
13154 11976 11975 1
13155 11977 11976 1
13156 11978 11977 1
13157 11963 11975 1
13158 11962 11978 1
13159 11980 11979 1
13160 11981 11980 1
13161 11982 11981 1
13162 11977 11979 1
13163 11976 11982 1
13164 11984 11983 1
13165 11985 11984 1
13166 11986 11985 1
13167 11982 11983 1
13168 11981 11986 1
13169 11988 11987 un
13170 11989 11988 un
13171 11971 11989 un
13172 11969 11987 un
13173 11991 11990 1
13174 11992 11991 1
13175 11993 11992 1
13176 11988 11990 1
13177 11987 11993 1
13178 11995 11994 1
13179 11996 11995 1
13180 11997 11996 1
13181 11992 11994 1
13182 11991 11997 1
13183 11999 11998 un
13184 11989 11999 un
13185 11974 11998 un
13186 12001 12000 un
13187 12002 12001 un
13188 11998 12002 un
13189 11973 12000 un
13190 12004 12003 un
13191 12005 12004 un
13192 11972 12005 un
13193 12000 12003 un
13194 12007 12006 1
13195 12008 12007 un
13196 12001 12006 1
13197 12003 12008 1
13198 12010 12009 1
13199 12011 12010 1
13200 12004 12009 1
13201 12008 12011 un
13202 12013 12012 1
13203 12014 12013 1
13204 12015 12014 1
13205 12010 12012 1
13206 12009 12015 1
13207 12017 12016 1
13208 12018 12017 1
13209 12007 12018 un
13210 12011 12016 un
13211 12012 12019 1
13212 12016 12020 un
13213 12019 12020 un
13214 11946 12021 1
13215 12021 12022 1
13216 12021 12023 1
13217 11978 12024 1
13218 12026 12025 1
13219 12027 12026 un
13220 12028 12027 1
13221 12018 12025 un
13222 12017 12028 un
13223 12030 12029 un
13224 12031 12030 1
13225 12032 12031 un
13226 12028 12029 un
13227 12027 12032 un
13228 12034 12033 un
13229 12035 12034 1
13230 12036 12035 1
13231 12031 12033 un
13232 12030 12036 un
13233 12038 12037 un
13234 12039 12038 un
13235 12029 12039 un
13236 12036 12037 un
13237 12041 12040 un
13238 12042 12041 un
13239 12035 12042 un
13240 12037 12040 un
13241 12044 12043 un
13242 12038 12044 un
13243 12020 12039 un
13244 12019 12043 un
13245 12046 12045 un
13246 12044 12046 un
13247 12040 12045 un
13248 12048 12047 1
13249 12049 12048 1
13250 12050 12049 1
13251 12046 12047 1
13252 12045 12050 1
13253 12050 12051 2
13254 11905 12052 1
13255 11905 12053 1
13256 11906 12054 1
13257 11906 12055 1
13258 11907 12056 1
13259 11908 12057 1
13260 11909 12058 1
13261 11909 12059 1
13262 11911 12060 1
13263 11912 12061 1
13264 11913 12062 1
13265 11913 12063 1
13266 11914 12064 1
13267 11914 12065 1
13268 11916 12066 1
13269 11917 12067 1
13270 11918 12068 1
13271 11918 12069 1
13272 11922 12070 1
13273 11927 12071 1
13274 11927 12072 1
13275 11928 12073 1
13276 11928 12074 1
13277 11929 12075 1
13278 11929 12076 1
13279 11939 12077 1
13280 11939 12078 1
13281 11940 12079 1
13282 11941 12080 1
13283 11941 12081 1
13284 11942 12082 1
13285 11942 12083 1
13286 11945 12084 1
13287 11945 12085 1
13288 11946 12086 1
13289 11947 12087 1
13290 11947 12088 1
13291 11948 12089 1
13292 11948 12090 1
13293 11950 12091 1
13294 11954 12092 1
13295 11961 12093 1
13296 11967 12094 1
13297 11976 12095 1
13298 11977 12096 1
13299 11978 12097 1
13300 11979 12098 1
13301 11979 12099 1
13302 11980 12100 1
13303 11980 12101 1
13304 11981 12102 1
13305 11982 12103 1
13306 11983 12104 1
13307 11983 12105 1
13308 11984 12106 1
13309 11984 12107 1
13310 11985 12108 1
13311 11985 12109 1
13312 11986 12110 1
13313 11991 12111 1
13314 11992 12112 1
13315 11994 12113 1
13316 11994 12114 1
13317 11995 12115 1
13318 11995 12116 1
13319 11996 12117 1
13320 11996 12118 1
13321 11997 12119 1
13322 11997 12120 1
13323 11999 12121 1
13324 12002 12122 1
13325 12005 12123 1
13326 12009 12124 1
13327 12010 12125 1
13328 12012 12126 1
13329 12013 12127 1
13330 12013 12128 1
13331 12014 12129 1
13332 12014 12130 1
13333 12015 12131 1
13334 12015 12132 1
13335 12021 12133 1
13336 12022 12134 1
13337 12022 12135 1
13338 12022 12136 1
13339 12023 12137 1
13340 12023 12138 1
13341 12023 12139 1
13342 12024 12140 1
13343 12025 12141 1
13344 12026 12142 1
13345 12032 12143 1
13346 12033 12144 1
13347 12034 12145 1
13348 12041 12146 1
13349 12042 12147 1
13350 12043 12148 1
13351 12047 12149 1
13352 12047 12150 1
13353 12048 12151 1
13354 12048 12152 1
13355 12049 12153 1
13356 12049 12154 1
13357 12157 12156 1
13358 12158 12157 1
13359 12159 12158 1
13360 12160 12159 1
13361 12155 12156 1
13362 12155 12160 1
13363 12162 12161 1
13364 12163 12162 1
13365 12164 12163 1
13366 12158 12161 1
13367 12157 12164 1
13368 12166 12165 1
13369 12167 12166 1
13370 12168 12167 1
13371 12162 12165 1
13372 12161 12168 1
13373 12170 12169 un
13374 12171 12170 un
13375 12172 12171 un
13376 12167 12169 1
13377 12166 12172 1
13378 12174 12173 1
13379 12175 12174 un
13380 12176 12175 un
13381 12171 12173 un
13382 12170 12176 un
13383 12178 12177 1
13384 12179 12178 1
13385 12169 12179 1
13386 12176 12177 1
13387 12181 12180 1
13388 12182 12181 un
13389 12183 12182 un
13390 12175 12180 1
13391 12174 12183 un
13392 12185 12184 un
13393 12186 12185 2
13394 12172 12184 1
13395 12173 12186 un
13396 12188 12187 2
13397 12189 12188 1
13398 12190 12189 1
13399 12185 12187 1
13400 12184 12190 2
13401 12192 12191 1
13402 12193 12192 1
13403 12194 12193 2
13404 12188 12191 1
13405 12187 12194 1
13406 12196 12195 1
13407 12197 12196 1
13408 12198 12197 1
13409 12194 12195 1
13410 12193 12198 1
13411 12200 12199 un
13412 12186 12200 un
13413 12183 12199 un
13414 12202 12201 un
13415 12203 12202 1
13416 12199 12203 un
13417 12182 12201 un
13418 12205 12204 un
13419 12206 12205 un
13420 12207 12206 un
13421 12202 12204 un
13422 12201 12207 un
13423 12209 12208 un
13424 12210 12209 un
13425 12211 12210 un
13426 12206 12208 un
13427 12205 12211 un
13428 12213 12212 un
13429 12214 12213 un
13430 12215 12214 un
13431 12210 12212 un
13432 12209 12215 un
13433 12217 12216 un
13434 12181 12217 un
13435 12207 12216 un
13436 12219 12218 un
13437 12216 12219 un
13438 12208 12218 un
13439 12221 12220 un
13440 12218 12221 un
13441 12215 12220 un
13442 12223 12222 un
13443 12224 12223 un
13444 12220 12224 un
13445 12214 12222 un
13446 12226 12225 1
13447 12227 12226 1
13448 12228 12227 1
13449 12213 12225 1
13450 12212 12228 1
13451 12230 12229 1
13452 12231 12230 1
13453 12232 12231 1
13454 12227 12229 1
13455 12226 12232 1
13456 12234 12233 1
13457 12235 12234 1
13458 12236 12235 1
13459 12232 12233 1
13460 12231 12236 1
13461 12238 12237 un
13462 12239 12238 un
13463 12221 12239 un
13464 12219 12237 un
13465 12241 12240 1
13466 12242 12241 1
13467 12243 12242 1
13468 12238 12240 1
13469 12237 12243 1
13470 12245 12244 1
13471 12246 12245 1
13472 12247 12246 1
13473 12242 12244 1
13474 12241 12247 1
13475 12249 12248 un
13476 12239 12249 un
13477 12224 12248 un
13478 12251 12250 un
13479 12252 12251 un
13480 12248 12252 un
13481 12223 12250 un
13482 12254 12253 un
13483 12255 12254 un
13484 12222 12255 un
13485 12250 12253 un
13486 12257 12256 1
13487 12258 12257 un
13488 12251 12256 1
13489 12253 12258 1
13490 12260 12259 1
13491 12261 12260 1
13492 12254 12259 1
13493 12258 12261 un
13494 12263 12262 1
13495 12264 12263 1
13496 12265 12264 1
13497 12260 12262 1
13498 12259 12265 1
13499 12267 12266 1
13500 12268 12267 1
13501 12257 12268 un
13502 12261 12266 un
13503 12262 12269 1
13504 12266 12270 un
13505 12269 12270 un
13506 12196 12271 1
13507 12271 12272 1
13508 12271 12273 1
13509 12228 12274 1
13510 12276 12275 1
13511 12277 12276 un
13512 12278 12277 1
13513 12268 12275 un
13514 12267 12278 un
13515 12280 12279 un
13516 12281 12280 1
13517 12282 12281 un
13518 12278 12279 un
13519 12277 12282 un
13520 12284 12283 un
13521 12285 12284 1
13522 12286 12285 1
13523 12281 12283 un
13524 12280 12286 un
13525 12288 12287 un
13526 12289 12288 un
13527 12279 12289 un
13528 12286 12287 un
13529 12291 12290 un
13530 12292 12291 un
13531 12285 12292 un
13532 12287 12290 un
13533 12294 12293 un
13534 12288 12294 un
13535 12270 12289 un
13536 12269 12293 un
13537 12296 12295 un
13538 12294 12296 un
13539 12290 12295 un
13540 12298 12297 1
13541 12299 12298 1
13542 12300 12299 1
13543 12296 12297 1
13544 12295 12300 1
13545 12300 12301 2
13546 12155 12302 1
13547 12155 12303 1
13548 12156 12304 1
13549 12156 12305 1
13550 12157 12306 1
13551 12158 12307 1
13552 12159 12308 1
13553 12159 12309 1
13554 12161 12310 1
13555 12162 12311 1
13556 12163 12312 1
13557 12163 12313 1
13558 12164 12314 1
13559 12164 12315 1
13560 12166 12316 1
13561 12167 12317 1
13562 12168 12318 1
13563 12168 12319 1
13564 12172 12320 1
13565 12177 12321 1
13566 12177 12322 1
13567 12178 12323 1
13568 12178 12324 1
13569 12179 12325 1
13570 12179 12326 1
13571 12189 12327 1
13572 12189 12328 1
13573 12190 12329 1
13574 12191 12330 1
13575 12191 12331 1
13576 12192 12332 1
13577 12192 12333 1
13578 12195 12334 1
13579 12195 12335 1
13580 12196 12336 1
13581 12197 12337 1
13582 12197 12338 1
13583 12198 12339 1
13584 12198 12340 1
13585 12200 12341 1
13586 12204 12342 1
13587 12211 12343 1
13588 12217 12344 1
13589 12226 12345 1
13590 12227 12346 1
13591 12228 12347 1
13592 12229 12348 1
13593 12229 12349 1
13594 12230 12350 1
13595 12230 12351 1
13596 12231 12352 1
13597 12232 12353 1
13598 12233 12354 1
13599 12233 12355 1
13600 12234 12356 1
13601 12234 12357 1
13602 12235 12358 1
13603 12235 12359 1
13604 12236 12360 1
13605 12241 12361 1
13606 12242 12362 1
13607 12244 12363 1
13608 12244 12364 1
13609 12245 12365 1
13610 12245 12366 1
13611 12246 12367 1
13612 12246 12368 1
13613 12247 12369 1
13614 12247 12370 1
13615 12249 12371 1
13616 12252 12372 1
13617 12255 12373 1
13618 12259 12374 1
13619 12260 12375 1
13620 12262 12376 1
13621 12263 12377 1
13622 12263 12378 1
13623 12264 12379 1
13624 12264 12380 1
13625 12265 12381 1
13626 12265 12382 1
13627 12271 12383 1
13628 12272 12384 1
13629 12272 12385 1
13630 12272 12386 1
13631 12273 12387 1
13632 12273 12388 1
13633 12273 12389 1
13634 12274 12390 1
13635 12275 12391 1
13636 12276 12392 1
13637 12282 12393 1
13638 12283 12394 1
13639 12284 12395 1
13640 12291 12396 1
13641 12292 12397 1
13642 12293 12398 1
13643 12297 12399 1
13644 12297 12400 1
13645 12298 12401 1
13646 12298 12402 1
13647 12299 12403 1
13648 12299 12404 1
13649 12407 12406 1
13650 12408 12407 1
13651 12409 12408 1
13652 12410 12409 1
13653 12405 12406 1
13654 12405 12410 1
13655 12412 12411 1
13656 12413 12412 1
13657 12414 12413 1
13658 12408 12411 1
13659 12407 12414 1
13660 12416 12415 1
13661 12417 12416 1
13662 12418 12417 1
13663 12412 12415 1
13664 12411 12418 1
13665 12420 12419 un
13666 12421 12420 un
13667 12422 12421 un
13668 12417 12419 1
13669 12416 12422 1
13670 12424 12423 1
13671 12425 12424 un
13672 12426 12425 un
13673 12421 12423 un
13674 12420 12426 un
13675 12428 12427 1
13676 12429 12428 1
13677 12419 12429 1
13678 12426 12427 1
13679 12431 12430 1
13680 12432 12431 un
13681 12433 12432 un
13682 12425 12430 1
13683 12424 12433 un
13684 12435 12434 un
13685 12436 12435 2
13686 12422 12434 1
13687 12423 12436 un
13688 12438 12437 2
13689 12439 12438 1
13690 12440 12439 1
13691 12435 12437 1
13692 12434 12440 2
13693 12442 12441 1
13694 12443 12442 1
13695 12444 12443 2
13696 12438 12441 1
13697 12437 12444 1
13698 12446 12445 1
13699 12447 12446 1
13700 12448 12447 1
13701 12444 12445 1
13702 12443 12448 1
13703 12450 12449 un
13704 12436 12450 un
13705 12433 12449 un
13706 12452 12451 un
13707 12453 12452 1
13708 12449 12453 un
13709 12432 12451 un
13710 12455 12454 un
13711 12456 12455 un
13712 12457 12456 un
13713 12452 12454 un
13714 12451 12457 un
13715 12459 12458 un
13716 12460 12459 un
13717 12461 12460 un
13718 12456 12458 un
13719 12455 12461 un
13720 12463 12462 un
13721 12464 12463 un
13722 12465 12464 un
13723 12460 12462 un
13724 12459 12465 un
13725 12467 12466 un
13726 12431 12467 un
13727 12457 12466 un
13728 12469 12468 un
13729 12466 12469 un
13730 12458 12468 un
13731 12471 12470 un
13732 12468 12471 un
13733 12465 12470 un
13734 12473 12472 un
13735 12474 12473 un
13736 12470 12474 un
13737 12464 12472 un
13738 12476 12475 1
13739 12477 12476 1
13740 12478 12477 1
13741 12463 12475 1
13742 12462 12478 1
13743 12480 12479 1
13744 12481 12480 1
13745 12482 12481 1
13746 12477 12479 1
13747 12476 12482 1
13748 12484 12483 1
13749 12485 12484 1
13750 12486 12485 1
13751 12482 12483 1
13752 12481 12486 1
13753 12488 12487 un
13754 12489 12488 un
13755 12471 12489 un
13756 12469 12487 un
13757 12491 12490 1
13758 12492 12491 1
13759 12493 12492 1
13760 12488 12490 1
13761 12487 12493 1
13762 12495 12494 1
13763 12496 12495 1
13764 12497 12496 1
13765 12492 12494 1
13766 12491 12497 1
13767 12499 12498 un
13768 12489 12499 un
13769 12474 12498 un
13770 12501 12500 un
13771 12502 12501 un
13772 12498 12502 un
13773 12473 12500 un
13774 12504 12503 un
13775 12505 12504 un
13776 12472 12505 un
13777 12500 12503 un
13778 12507 12506 1
13779 12508 12507 un
13780 12501 12506 1
13781 12503 12508 1
13782 12510 12509 1
13783 12511 12510 1
13784 12504 12509 1
13785 12508 12511 un
13786 12513 12512 1
13787 12514 12513 1
13788 12515 12514 1
13789 12510 12512 1
13790 12509 12515 1
13791 12517 12516 1
13792 12518 12517 1
13793 12507 12518 un
13794 12511 12516 un
13795 12512 12519 1
13796 12516 12520 un
13797 12519 12520 un
13798 12446 12521 1
13799 12521 12522 1
13800 12521 12523 1
13801 12478 12524 1
13802 12526 12525 1
13803 12527 12526 un
13804 12528 12527 1
13805 12518 12525 un
13806 12517 12528 un
13807 12530 12529 un
13808 12531 12530 1
13809 12532 12531 un
13810 12528 12529 un
13811 12527 12532 un
13812 12534 12533 un
13813 12535 12534 1
13814 12536 12535 1
13815 12531 12533 un
13816 12530 12536 un
13817 12538 12537 un
13818 12539 12538 un
13819 12529 12539 un
13820 12536 12537 un
13821 12541 12540 un
13822 12542 12541 un
13823 12535 12542 un
13824 12537 12540 un
13825 12544 12543 un
13826 12538 12544 un
13827 12520 12539 un
13828 12519 12543 un
13829 12546 12545 un
13830 12544 12546 un
13831 12540 12545 un
13832 12548 12547 1
13833 12549 12548 1
13834 12550 12549 1
13835 12546 12547 1
13836 12545 12550 1
13837 12550 12551 2
13838 12405 12552 1
13839 12405 12553 1
13840 12406 12554 1
13841 12406 12555 1
13842 12407 12556 1
13843 12408 12557 1
13844 12409 12558 1
13845 12409 12559 1
13846 12411 12560 1
13847 12412 12561 1
13848 12413 12562 1
13849 12413 12563 1
13850 12414 12564 1
13851 12414 12565 1
13852 12416 12566 1
13853 12417 12567 1
13854 12418 12568 1
13855 12418 12569 1
13856 12422 12570 1
13857 12427 12571 1
13858 12427 12572 1
13859 12428 12573 1
13860 12428 12574 1
13861 12429 12575 1
13862 12429 12576 1
13863 12439 12577 1
13864 12439 12578 1
13865 12440 12579 1
13866 12441 12580 1
13867 12441 12581 1
13868 12442 12582 1
13869 12442 12583 1
13870 12445 12584 1
13871 12445 12585 1
13872 12446 12586 1
13873 12447 12587 1
13874 12447 12588 1
13875 12448 12589 1
13876 12448 12590 1
13877 12450 12591 1
13878 12454 12592 1
13879 12461 12593 1
13880 12467 12594 1
13881 12476 12595 1
13882 12477 12596 1
13883 12478 12597 1
13884 12479 12598 1
13885 12479 12599 1
13886 12480 12600 1
13887 12480 12601 1
13888 12481 12602 1
13889 12482 12603 1
13890 12483 12604 1
13891 12483 12605 1
13892 12484 12606 1
13893 12484 12607 1
13894 12485 12608 1
13895 12485 12609 1
13896 12486 12610 1
13897 12491 12611 1
13898 12492 12612 1
13899 12494 12613 1
13900 12494 12614 1
13901 12495 12615 1
13902 12495 12616 1
13903 12496 12617 1
13904 12496 12618 1
13905 12497 12619 1
13906 12497 12620 1
13907 12499 12621 1
13908 12502 12622 1
13909 12505 12623 1
13910 12509 12624 1
13911 12510 12625 1
13912 12512 12626 1
13913 12513 12627 1
13914 12513 12628 1
13915 12514 12629 1
13916 12514 12630 1
13917 12515 12631 1
13918 12515 12632 1
13919 12521 12633 1
13920 12522 12634 1
13921 12522 12635 1
13922 12522 12636 1
13923 12523 12637 1
13924 12523 12638 1
13925 12523 12639 1
13926 12524 12640 1
13927 12525 12641 1
13928 12526 12642 1
13929 12532 12643 1
13930 12533 12644 1
13931 12534 12645 1
13932 12541 12646 1
13933 12542 12647 1
13934 12543 12648 1
13935 12547 12649 1
13936 12547 12650 1
13937 12548 12651 1
13938 12548 12652 1
13939 12549 12653 1
13940 12549 12654 1
13941 12657 12656 1
13942 12658 12657 1
13943 12659 12658 1
13944 12660 12659 1
13945 12655 12656 1
13946 12655 12660 1
13947 12662 12661 1
13948 12663 12662 1
13949 12664 12663 1
13950 12658 12661 1
13951 12657 12664 1
13952 12666 12665 1
13953 12667 12666 1
13954 12668 12667 1
13955 12662 12665 1
13956 12661 12668 1
13957 12670 12669 un
13958 12671 12670 un
13959 12672 12671 un
13960 12667 12669 1
13961 12666 12672 1
13962 12674 12673 1
13963 12675 12674 un
13964 12676 12675 un
13965 12671 12673 un
13966 12670 12676 un
13967 12678 12677 1
13968 12679 12678 1
13969 12669 12679 1
13970 12676 12677 1
13971 12681 12680 1
13972 12682 12681 un
13973 12683 12682 un
13974 12675 12680 1
13975 12674 12683 un
13976 12685 12684 un
13977 12686 12685 2
13978 12672 12684 1
13979 12673 12686 un
13980 12688 12687 2
13981 12689 12688 1
13982 12690 12689 1
13983 12685 12687 1
13984 12684 12690 2
13985 12692 12691 1
13986 12693 12692 1
13987 12694 12693 2
13988 12688 12691 1
13989 12687 12694 1
13990 12696 12695 1
13991 12697 12696 1
13992 12698 12697 1
13993 12694 12695 1
13994 12693 12698 1
13995 12700 12699 un
13996 12686 12700 un
13997 12683 12699 un
13998 12702 12701 un
13999 12703 12702 1
14000 12699 12703 un
14001 12682 12701 un
14002 12705 12704 un
14003 12706 12705 un
14004 12707 12706 un
14005 12702 12704 un
14006 12701 12707 un
14007 12709 12708 un
14008 12710 12709 un
14009 12711 12710 un
14010 12706 12708 un
14011 12705 12711 un
14012 12713 12712 un
14013 12714 12713 un
14014 12715 12714 un
14015 12710 12712 un
14016 12709 12715 un
14017 12717 12716 un
14018 12681 12717 un
14019 12707 12716 un
14020 12719 12718 un
14021 12716 12719 un
14022 12708 12718 un
14023 12721 12720 un
14024 12718 12721 un
14025 12715 12720 un
14026 12723 12722 un
14027 12724 12723 un
14028 12720 12724 un
14029 12714 12722 un
14030 12726 12725 1
14031 12727 12726 1
14032 12728 12727 1
14033 12713 12725 1
14034 12712 12728 1
14035 12730 12729 1
14036 12731 12730 1
14037 12732 12731 1
14038 12727 12729 1
14039 12726 12732 1
14040 12734 12733 1
14041 12735 12734 1
14042 12736 12735 1
14043 12732 12733 1
14044 12731 12736 1
14045 12738 12737 un
14046 12739 12738 un
14047 12721 12739 un
14048 12719 12737 un
14049 12741 12740 1
14050 12742 12741 1
14051 12743 12742 1
14052 12738 12740 1
14053 12737 12743 1
14054 12745 12744 1
14055 12746 12745 1
14056 12747 12746 1
14057 12742 12744 1
14058 12741 12747 1
14059 12749 12748 un
14060 12739 12749 un
14061 12724 12748 un
14062 12751 12750 un
14063 12752 12751 un
14064 12748 12752 un
14065 12723 12750 un
14066 12754 12753 un
14067 12755 12754 un
14068 12722 12755 un
14069 12750 12753 un
14070 12757 12756 1
14071 12758 12757 un
14072 12751 12756 1
14073 12753 12758 1
14074 12760 12759 1
14075 12761 12760 1
14076 12754 12759 1
14077 12758 12761 un
14078 12763 12762 1
14079 12764 12763 1
14080 12765 12764 1
14081 12760 12762 1
14082 12759 12765 1
14083 12767 12766 1
14084 12768 12767 1
14085 12757 12768 un
14086 12761 12766 un
14087 12762 12769 1
14088 12766 12770 un
14089 12769 12770 un
14090 12696 12771 1
14091 12771 12772 1
14092 12771 12773 1
14093 12728 12774 1
14094 12776 12775 1
14095 12777 12776 un
14096 12778 12777 1
14097 12768 12775 un
14098 12767 12778 un
14099 12780 12779 un
14100 12781 12780 1
14101 12782 12781 un
14102 12778 12779 un
14103 12777 12782 un
14104 12784 12783 un
14105 12785 12784 1
14106 12786 12785 1
14107 12781 12783 un
14108 12780 12786 un
14109 12788 12787 un
14110 12789 12788 un
14111 12779 12789 un
14112 12786 12787 un
14113 12791 12790 un
14114 12792 12791 un
14115 12785 12792 un
14116 12787 12790 un
14117 12794 12793 un
14118 12788 12794 un
14119 12770 12789 un
14120 12769 12793 un
14121 12796 12795 un
14122 12794 12796 un
14123 12790 12795 un
14124 12798 12797 1
14125 12799 12798 1
14126 12800 12799 1
14127 12796 12797 1
14128 12795 12800 1
14129 12800 12801 2
14130 12655 12802 1
14131 12655 12803 1
14132 12656 12804 1
14133 12656 12805 1
14134 12657 12806 1
14135 12658 12807 1
14136 12659 12808 1
14137 12659 12809 1
14138 12661 12810 1
14139 12662 12811 1
14140 12663 12812 1
14141 12663 12813 1
14142 12664 12814 1
14143 12664 12815 1
14144 12666 12816 1
14145 12667 12817 1
14146 12668 12818 1
14147 12668 12819 1
14148 12672 12820 1
14149 12677 12821 1
14150 12677 12822 1
14151 12678 12823 1
14152 12678 12824 1
14153 12679 12825 1
14154 12679 12826 1
14155 12689 12827 1
14156 12689 12828 1
14157 12690 12829 1
14158 12691 12830 1
14159 12691 12831 1
14160 12692 12832 1
14161 12692 12833 1
14162 12695 12834 1
14163 12695 12835 1
14164 12696 12836 1
14165 12697 12837 1
14166 12697 12838 1
14167 12698 12839 1
14168 12698 12840 1
14169 12700 12841 1
14170 12704 12842 1
14171 12711 12843 1
14172 12717 12844 1
14173 12726 12845 1
14174 12727 12846 1
14175 12728 12847 1
14176 12729 12848 1
14177 12729 12849 1
14178 12730 12850 1
14179 12730 12851 1
14180 12731 12852 1
14181 12732 12853 1
14182 12733 12854 1
14183 12733 12855 1
14184 12734 12856 1
14185 12734 12857 1
14186 12735 12858 1
14187 12735 12859 1
14188 12736 12860 1
14189 12741 12861 1
14190 12742 12862 1
14191 12744 12863 1
14192 12744 12864 1
14193 12745 12865 1
14194 12745 12866 1
14195 12746 12867 1
14196 12746 12868 1
14197 12747 12869 1
14198 12747 12870 1
14199 12749 12871 1
14200 12752 12872 1
14201 12755 12873 1
14202 12759 12874 1
14203 12760 12875 1
14204 12762 12876 1
14205 12763 12877 1
14206 12763 12878 1
14207 12764 12879 1
14208 12764 12880 1
14209 12765 12881 1
14210 12765 12882 1
14211 12771 12883 1
14212 12772 12884 1
14213 12772 12885 1
14214 12772 12886 1
14215 12773 12887 1
14216 12773 12888 1
14217 12773 12889 1
14218 12774 12890 1
14219 12775 12891 1
14220 12776 12892 1
14221 12782 12893 1
14222 12783 12894 1
14223 12784 12895 1
14224 12791 12896 1
14225 12792 12897 1
14226 12793 12898 1
14227 12797 12899 1
14228 12797 12900 1
14229 12798 12901 1
14230 12798 12902 1
14231 12799 12903 1
14232 12799 12904 1
14233 12907 12906 1
14234 12908 12907 1
14235 12909 12908 1
14236 12910 12909 1
14237 12905 12906 1
14238 12905 12910 1
14239 12912 12911 1
14240 12913 12912 1
14241 12914 12913 1
14242 12908 12911 1
14243 12907 12914 1
14244 12916 12915 1
14245 12917 12916 1
14246 12918 12917 1
14247 12912 12915 1
14248 12911 12918 1
14249 12920 12919 un
14250 12921 12920 un
14251 12922 12921 un
14252 12917 12919 1
14253 12916 12922 1
14254 12924 12923 1
14255 12925 12924 un
14256 12926 12925 un
14257 12921 12923 un
14258 12920 12926 un
14259 12928 12927 1
14260 12929 12928 1
14261 12919 12929 1
14262 12926 12927 1
14263 12931 12930 1
14264 12932 12931 un
14265 12933 12932 un
14266 12925 12930 1
14267 12924 12933 un
14268 12935 12934 un
14269 12936 12935 2
14270 12922 12934 1
14271 12923 12936 un
14272 12938 12937 2
14273 12939 12938 1
14274 12940 12939 1
14275 12935 12937 1
14276 12934 12940 2
14277 12942 12941 1
14278 12943 12942 1
14279 12944 12943 2
14280 12938 12941 1
14281 12937 12944 1
14282 12946 12945 1
14283 12947 12946 1
14284 12948 12947 1
14285 12944 12945 1
14286 12943 12948 1
14287 12950 12949 un
14288 12936 12950 un
14289 12933 12949 un
14290 12952 12951 un
14291 12953 12952 1
14292 12949 12953 un
14293 12932 12951 un
14294 12955 12954 un
14295 12956 12955 un
14296 12957 12956 un
14297 12952 12954 un
14298 12951 12957 un
14299 12959 12958 un
14300 12960 12959 un
14301 12961 12960 un
14302 12956 12958 un
14303 12955 12961 un
14304 12963 12962 un
14305 12964 12963 un
14306 12965 12964 un
14307 12960 12962 un
14308 12959 12965 un
14309 12967 12966 un
14310 12931 12967 un
14311 12957 12966 un
14312 12969 12968 un
14313 12966 12969 un
14314 12958 12968 un
14315 12971 12970 un
14316 12968 12971 un
14317 12965 12970 un
14318 12973 12972 un
14319 12974 12973 un
14320 12970 12974 un
14321 12964 12972 un
14322 12976 12975 1
14323 12977 12976 1
14324 12978 12977 1
14325 12963 12975 1
14326 12962 12978 1
14327 12980 12979 1
14328 12981 12980 1
14329 12982 12981 1
14330 12977 12979 1
14331 12976 12982 1
14332 12984 12983 1
14333 12985 12984 1
14334 12986 12985 1
14335 12982 12983 1
14336 12981 12986 1
14337 12988 12987 un
14338 12989 12988 un
14339 12971 12989 un
14340 12969 12987 un
14341 12991 12990 1
14342 12992 12991 1
14343 12993 12992 1
14344 12988 12990 1
14345 12987 12993 1
14346 12995 12994 1
14347 12996 12995 1
14348 12997 12996 1
14349 12992 12994 1
14350 12991 12997 1
14351 12999 12998 un
14352 12989 12999 un
14353 12974 12998 un
14354 13001 13000 un
14355 13002 13001 un
14356 12998 13002 un
14357 12973 13000 un
14358 13004 13003 un
14359 13005 13004 un
14360 12972 13005 un
14361 13000 13003 un
14362 13007 13006 1
14363 13008 13007 un
14364 13001 13006 1
14365 13003 13008 1
14366 13010 13009 1
14367 13011 13010 1
14368 13004 13009 1
14369 13008 13011 un
14370 13013 13012 1
14371 13014 13013 1
14372 13015 13014 1
14373 13010 13012 1
14374 13009 13015 1
14375 13017 13016 1
14376 13018 13017 1
14377 13007 13018 un
14378 13011 13016 un
14379 13012 13019 1
14380 13016 13020 un
14381 13019 13020 un
14382 12946 13021 1
14383 13021 13022 1
14384 13021 13023 1
14385 12978 13024 1
14386 13026 13025 1
14387 13027 13026 un
14388 13028 13027 1
14389 13018 13025 un
14390 13017 13028 un
14391 13030 13029 un
14392 13031 13030 1
14393 13032 13031 un
14394 13028 13029 un
14395 13027 13032 un
14396 13034 13033 un
14397 13035 13034 1
14398 13036 13035 1
14399 13031 13033 un
14400 13030 13036 un
14401 13038 13037 un
14402 13039 13038 un
14403 13029 13039 un
14404 13036 13037 un
14405 13041 13040 un
14406 13042 13041 un
14407 13035 13042 un
14408 13037 13040 un
14409 13044 13043 un
14410 13038 13044 un
14411 13020 13039 un
14412 13019 13043 un
14413 13046 13045 un
14414 13044 13046 un
14415 13040 13045 un
14416 13048 13047 1
14417 13049 13048 1
14418 13050 13049 1
14419 13046 13047 1
14420 13045 13050 1
14421 13050 13051 2
14422 12905 13052 1
14423 12905 13053 1
14424 12906 13054 1
14425 12906 13055 1
14426 12907 13056 1
14427 12908 13057 1
14428 12909 13058 1
14429 12909 13059 1
14430 12911 13060 1
14431 12912 13061 1
14432 12913 13062 1
14433 12913 13063 1
14434 12914 13064 1
14435 12914 13065 1
14436 12916 13066 1
14437 12917 13067 1
14438 12918 13068 1
14439 12918 13069 1
14440 12922 13070 1
14441 12927 13071 1
14442 12927 13072 1
14443 12928 13073 1
14444 12928 13074 1
14445 12929 13075 1
14446 12929 13076 1
14447 12939 13077 1
14448 12939 13078 1
14449 12940 13079 1
14450 12941 13080 1
14451 12941 13081 1
14452 12942 13082 1
14453 12942 13083 1
14454 12945 13084 1
14455 12945 13085 1
14456 12946 13086 1
14457 12947 13087 1
14458 12947 13088 1
14459 12948 13089 1
14460 12948 13090 1
14461 12950 13091 1
14462 12954 13092 1
14463 12961 13093 1
14464 12967 13094 1
14465 12976 13095 1
14466 12977 13096 1
14467 12978 13097 1
14468 12979 13098 1
14469 12979 13099 1
14470 12980 13100 1
14471 12980 13101 1
14472 12981 13102 1
14473 12982 13103 1
14474 12983 13104 1
14475 12983 13105 1
14476 12984 13106 1
14477 12984 13107 1
14478 12985 13108 1
14479 12985 13109 1
14480 12986 13110 1
14481 12991 13111 1
14482 12992 13112 1
14483 12994 13113 1
14484 12994 13114 1
14485 12995 13115 1
14486 12995 13116 1
14487 12996 13117 1
14488 12996 13118 1
14489 12997 13119 1
14490 12997 13120 1
14491 12999 13121 1
14492 13002 13122 1
14493 13005 13123 1
14494 13009 13124 1
14495 13010 13125 1
14496 13012 13126 1
14497 13013 13127 1
14498 13013 13128 1
14499 13014 13129 1
14500 13014 13130 1
14501 13015 13131 1
14502 13015 13132 1
14503 13021 13133 1
14504 13022 13134 1
14505 13022 13135 1
14506 13022 13136 1
14507 13023 13137 1
14508 13023 13138 1
14509 13023 13139 1
14510 13024 13140 1
14511 13025 13141 1
14512 13026 13142 1
14513 13032 13143 1
14514 13033 13144 1
14515 13034 13145 1
14516 13041 13146 1
14517 13042 13147 1
14518 13043 13148 1
14519 13047 13149 1
14520 13047 13150 1
14521 13048 13151 1
14522 13048 13152 1
14523 13049 13153 1
14524 13049 13154 1
14525 13157 13156 1
14526 13158 13157 1
14527 13159 13158 1
14528 13160 13159 1
14529 13155 13156 1
14530 13155 13160 1
14531 13162 13161 1
14532 13163 13162 1
14533 13164 13163 1
14534 13158 13161 1
14535 13157 13164 1
14536 13166 13165 1
14537 13167 13166 1
14538 13168 13167 1
14539 13162 13165 1
14540 13161 13168 1
14541 13170 13169 un
14542 13171 13170 un
14543 13172 13171 un
14544 13167 13169 1
14545 13166 13172 1
14546 13174 13173 1
14547 13175 13174 un
14548 13176 13175 un
14549 13171 13173 un
14550 13170 13176 un
14551 13178 13177 1
14552 13179 13178 1
14553 13169 13179 1
14554 13176 13177 1
14555 13181 13180 1
14556 13182 13181 un
14557 13183 13182 un
14558 13175 13180 1
14559 13174 13183 un
14560 13185 13184 un
14561 13186 13185 2
14562 13172 13184 1
14563 13173 13186 un
14564 13188 13187 2
14565 13189 13188 1
14566 13190 13189 1
14567 13185 13187 1
14568 13184 13190 2
14569 13192 13191 1
14570 13193 13192 1
14571 13194 13193 2
14572 13188 13191 1
14573 13187 13194 1
14574 13196 13195 1
14575 13197 13196 1
14576 13198 13197 1
14577 13194 13195 1
14578 13193 13198 1
14579 13200 13199 un
14580 13186 13200 un
14581 13183 13199 un
14582 13202 13201 un
14583 13203 13202 1
14584 13199 13203 un
14585 13182 13201 un
14586 13205 13204 un
14587 13206 13205 un
14588 13207 13206 un
14589 13202 13204 un
14590 13201 13207 un
14591 13209 13208 un
14592 13210 13209 un
14593 13211 13210 un
14594 13206 13208 un
14595 13205 13211 un
14596 13213 13212 un
14597 13214 13213 un
14598 13215 13214 un
14599 13210 13212 un
14600 13209 13215 un
14601 13217 13216 un
14602 13181 13217 un
14603 13207 13216 un
14604 13219 13218 un
14605 13216 13219 un
14606 13208 13218 un
14607 13221 13220 un
14608 13218 13221 un
14609 13215 13220 un
14610 13223 13222 un
14611 13224 13223 un
14612 13220 13224 un
14613 13214 13222 un
14614 13226 13225 1
14615 13227 13226 1
14616 13228 13227 1
14617 13213 13225 1
14618 13212 13228 1
14619 13230 13229 1
14620 13231 13230 1
14621 13232 13231 1
14622 13227 13229 1
14623 13226 13232 1
14624 13234 13233 1
14625 13235 13234 1
14626 13236 13235 1
14627 13232 13233 1
14628 13231 13236 1
14629 13238 13237 un
14630 13239 13238 un
14631 13221 13239 un
14632 13219 13237 un
14633 13241 13240 1
14634 13242 13241 1
14635 13243 13242 1
14636 13238 13240 1
14637 13237 13243 1
14638 13245 13244 1
14639 13246 13245 1
14640 13247 13246 1
14641 13242 13244 1
14642 13241 13247 1
14643 13249 13248 un
14644 13239 13249 un
14645 13224 13248 un
14646 13251 13250 un
14647 13252 13251 un
14648 13248 13252 un
14649 13223 13250 un
14650 13254 13253 un
14651 13255 13254 un
14652 13222 13255 un
14653 13250 13253 un
14654 13257 13256 1
14655 13258 13257 un
14656 13251 13256 1
14657 13253 13258 1
14658 13260 13259 1
14659 13261 13260 1
14660 13254 13259 1
14661 13258 13261 un
14662 13263 13262 1
14663 13264 13263 1
14664 13265 13264 1
14665 13260 13262 1
14666 13259 13265 1
14667 13267 13266 1
14668 13268 13267 1
14669 13257 13268 un
14670 13261 13266 un
14671 13262 13269 1
14672 13266 13270 un
14673 13269 13270 un
14674 13196 13271 1
14675 13271 13272 1
14676 13271 13273 1
14677 13228 13274 1
14678 13276 13275 1
14679 13277 13276 un
14680 13278 13277 1
14681 13268 13275 un
14682 13267 13278 un
14683 13280 13279 un
14684 13281 13280 1
14685 13282 13281 un
14686 13278 13279 un
14687 13277 13282 un
14688 13284 13283 un
14689 13285 13284 1
14690 13286 13285 1
14691 13281 13283 un
14692 13280 13286 un
14693 13288 13287 un
14694 13289 13288 un
14695 13279 13289 un
14696 13286 13287 un
14697 13291 13290 un
14698 13292 13291 un
14699 13285 13292 un
14700 13287 13290 un
14701 13294 13293 un
14702 13288 13294 un
14703 13270 13289 un
14704 13269 13293 un
14705 13296 13295 un
14706 13294 13296 un
14707 13290 13295 un
14708 13298 13297 1
14709 13299 13298 1
14710 13300 13299 1
14711 13296 13297 1
14712 13295 13300 1
14713 13300 13301 2
14714 13155 13302 1
14715 13155 13303 1
14716 13156 13304 1
14717 13156 13305 1
14718 13157 13306 1
14719 13158 13307 1
14720 13159 13308 1
14721 13159 13309 1
14722 13161 13310 1
14723 13162 13311 1
14724 13163 13312 1
14725 13163 13313 1
14726 13164 13314 1
14727 13164 13315 1
14728 13166 13316 1
14729 13167 13317 1
14730 13168 13318 1
14731 13168 13319 1
14732 13172 13320 1
14733 13177 13321 1
14734 13177 13322 1
14735 13178 13323 1
14736 13178 13324 1
14737 13179 13325 1
14738 13179 13326 1
14739 13189 13327 1
14740 13189 13328 1
14741 13190 13329 1
14742 13191 13330 1
14743 13191 13331 1
14744 13192 13332 1
14745 13192 13333 1
14746 13195 13334 1
14747 13195 13335 1
14748 13196 13336 1
14749 13197 13337 1
14750 13197 13338 1
14751 13198 13339 1
14752 13198 13340 1
14753 13200 13341 1
14754 13204 13342 1
14755 13211 13343 1
14756 13217 13344 1
14757 13226 13345 1
14758 13227 13346 1
14759 13228 13347 1
14760 13229 13348 1
14761 13229 13349 1
14762 13230 13350 1
14763 13230 13351 1
14764 13231 13352 1
14765 13232 13353 1
14766 13233 13354 1
14767 13233 13355 1
14768 13234 13356 1
14769 13234 13357 1
14770 13235 13358 1
14771 13235 13359 1
14772 13236 13360 1
14773 13241 13361 1
14774 13242 13362 1
14775 13244 13363 1
14776 13244 13364 1
14777 13245 13365 1
14778 13245 13366 1
14779 13246 13367 1
14780 13246 13368 1
14781 13247 13369 1
14782 13247 13370 1
14783 13249 13371 1
14784 13252 13372 1
14785 13255 13373 1
14786 13259 13374 1
14787 13260 13375 1
14788 13262 13376 1
14789 13263 13377 1
14790 13263 13378 1
14791 13264 13379 1
14792 13264 13380 1
14793 13265 13381 1
14794 13265 13382 1
14795 13271 13383 1
14796 13272 13384 1
14797 13272 13385 1
14798 13272 13386 1
14799 13273 13387 1
14800 13273 13388 1
14801 13273 13389 1
14802 13274 13390 1
14803 13275 13391 1
14804 13276 13392 1
14805 13282 13393 1
14806 13283 13394 1
14807 13284 13395 1
14808 13291 13396 1
14809 13292 13397 1
14810 13293 13398 1
14811 13297 13399 1
14812 13297 13400 1
14813 13298 13401 1
14814 13298 13402 1
14815 13299 13403 1
14816 13299 13404 1
14817 13407 13406 1
14818 13408 13407 1
14819 13409 13408 1
14820 13410 13409 1
14821 13405 13406 1
14822 13405 13410 1
14823 13412 13411 1
14824 13413 13412 1
14825 13414 13413 1
14826 13408 13411 1
14827 13407 13414 1
14828 13416 13415 1
14829 13417 13416 1
14830 13418 13417 1
14831 13412 13415 1
14832 13411 13418 1
14833 13420 13419 un
14834 13421 13420 un
14835 13422 13421 un
14836 13417 13419 1
14837 13416 13422 1
14838 13424 13423 1
14839 13425 13424 un
14840 13426 13425 un
14841 13421 13423 un
14842 13420 13426 un
14843 13428 13427 1
14844 13429 13428 1
14845 13419 13429 1
14846 13426 13427 1
14847 13431 13430 1
14848 13432 13431 un
14849 13433 13432 un
14850 13425 13430 1
14851 13424 13433 un
14852 13435 13434 un
14853 13436 13435 2
14854 13422 13434 1
14855 13423 13436 un
14856 13438 13437 2
14857 13439 13438 1
14858 13440 13439 1
14859 13435 13437 1
14860 13434 13440 2
14861 13442 13441 1
14862 13443 13442 1
14863 13444 13443 2
14864 13438 13441 1
14865 13437 13444 1
14866 13446 13445 1
14867 13447 13446 1
14868 13448 13447 1
14869 13444 13445 1
14870 13443 13448 1
14871 13450 13449 un
14872 13436 13450 un
14873 13433 13449 un
14874 13452 13451 un
14875 13453 13452 1
14876 13449 13453 un
14877 13432 13451 un
14878 13455 13454 un
14879 13456 13455 un
14880 13457 13456 un
14881 13452 13454 un
14882 13451 13457 un
14883 13459 13458 un
14884 13460 13459 un
14885 13461 13460 un
14886 13456 13458 un
14887 13455 13461 un
14888 13463 13462 un
14889 13464 13463 un
14890 13465 13464 un
14891 13460 13462 un
14892 13459 13465 un
14893 13467 13466 un
14894 13431 13467 un
14895 13457 13466 un
14896 13469 13468 un
14897 13466 13469 un
14898 13458 13468 un
14899 13471 13470 un
14900 13468 13471 un
14901 13465 13470 un
14902 13473 13472 un
14903 13474 13473 un
14904 13470 13474 un
14905 13464 13472 un
14906 13476 13475 1
14907 13477 13476 1
14908 13478 13477 1
14909 13463 13475 1
14910 13462 13478 1
14911 13480 13479 1
14912 13481 13480 1
14913 13482 13481 1
14914 13477 13479 1
14915 13476 13482 1
14916 13484 13483 1
14917 13485 13484 1
14918 13486 13485 1
14919 13482 13483 1
14920 13481 13486 1
14921 13488 13487 un
14922 13489 13488 un
14923 13471 13489 un
14924 13469 13487 un
14925 13491 13490 1
14926 13492 13491 1
14927 13493 13492 1
14928 13488 13490 1
14929 13487 13493 1
14930 13495 13494 1
14931 13496 13495 1
14932 13497 13496 1
14933 13492 13494 1
14934 13491 13497 1
14935 13499 13498 un
14936 13489 13499 un
14937 13474 13498 un
14938 13501 13500 un
14939 13502 13501 un
14940 13498 13502 un
14941 13473 13500 un
14942 13504 13503 un
14943 13505 13504 un
14944 13472 13505 un
14945 13500 13503 un
14946 13507 13506 1
14947 13508 13507 un
14948 13501 13506 1
14949 13503 13508 1
14950 13510 13509 1
14951 13511 13510 1
14952 13504 13509 1
14953 13508 13511 un
14954 13513 13512 1
14955 13514 13513 1
14956 13515 13514 1
14957 13510 13512 1
14958 13509 13515 1
14959 13517 13516 1
14960 13518 13517 1
14961 13507 13518 un
14962 13511 13516 un
14963 13512 13519 1
14964 13516 13520 un
14965 13519 13520 un
14966 13446 13521 1
14967 13521 13522 1
14968 13521 13523 1
14969 13478 13524 1
14970 13526 13525 1
14971 13527 13526 un
14972 13528 13527 1
14973 13518 13525 un
14974 13517 13528 un
14975 13530 13529 un
14976 13531 13530 1
14977 13532 13531 un
14978 13528 13529 un
14979 13527 13532 un
14980 13534 13533 un
14981 13535 13534 1
14982 13536 13535 1
14983 13531 13533 un
14984 13530 13536 un
14985 13538 13537 un
14986 13539 13538 un
14987 13529 13539 un
14988 13536 13537 un
14989 13541 13540 un
14990 13542 13541 un
14991 13535 13542 un
14992 13537 13540 un
14993 13544 13543 un
14994 13538 13544 un
14995 13520 13539 un
14996 13519 13543 un
14997 13546 13545 un
14998 13544 13546 un
14999 13540 13545 un
15000 13548 13547 1
15001 13549 13548 1
15002 13550 13549 1
15003 13546 13547 1
15004 13545 13550 1
15005 13550 13551 2
15006 13405 13552 1
15007 13405 13553 1
15008 13406 13554 1
15009 13406 13555 1
15010 13407 13556 1
15011 13408 13557 1
15012 13409 13558 1
15013 13409 13559 1
15014 13411 13560 1
15015 13412 13561 1
15016 13413 13562 1
15017 13413 13563 1
15018 13414 13564 1
15019 13414 13565 1
15020 13416 13566 1
15021 13417 13567 1
15022 13418 13568 1
15023 13418 13569 1
15024 13422 13570 1
15025 13427 13571 1
15026 13427 13572 1
15027 13428 13573 1
15028 13428 13574 1
15029 13429 13575 1
15030 13429 13576 1
15031 13439 13577 1
15032 13439 13578 1
15033 13440 13579 1
15034 13441 13580 1
15035 13441 13581 1
15036 13442 13582 1
15037 13442 13583 1
15038 13445 13584 1
15039 13445 13585 1
15040 13446 13586 1
15041 13447 13587 1
15042 13447 13588 1
15043 13448 13589 1
15044 13448 13590 1
15045 13450 13591 1
15046 13454 13592 1
15047 13461 13593 1
15048 13467 13594 1
15049 13476 13595 1
15050 13477 13596 1
15051 13478 13597 1
15052 13479 13598 1
15053 13479 13599 1
15054 13480 13600 1
15055 13480 13601 1
15056 13481 13602 1
15057 13482 13603 1
15058 13483 13604 1
15059 13483 13605 1
15060 13484 13606 1
15061 13484 13607 1
15062 13485 13608 1
15063 13485 13609 1
15064 13486 13610 1
15065 13491 13611 1
15066 13492 13612 1
15067 13494 13613 1
15068 13494 13614 1
15069 13495 13615 1
15070 13495 13616 1
15071 13496 13617 1
15072 13496 13618 1
15073 13497 13619 1
15074 13497 13620 1
15075 13499 13621 1
15076 13502 13622 1
15077 13505 13623 1
15078 13509 13624 1
15079 13510 13625 1
15080 13512 13626 1
15081 13513 13627 1
15082 13513 13628 1
15083 13514 13629 1
15084 13514 13630 1
15085 13515 13631 1
15086 13515 13632 1
15087 13521 13633 1
15088 13522 13634 1
15089 13522 13635 1
15090 13522 13636 1
15091 13523 13637 1
15092 13523 13638 1
15093 13523 13639 1
15094 13524 13640 1
15095 13525 13641 1
15096 13526 13642 1
15097 13532 13643 1
15098 13533 13644 1
15099 13534 13645 1
15100 13541 13646 1
15101 13542 13647 1
15102 13543 13648 1
15103 13547 13649 1
15104 13547 13650 1
15105 13548 13651 1
15106 13548 13652 1
15107 13549 13653 1
15108 13549 13654 1
15109 13657 13656 1
15110 13658 13657 1
15111 13659 13658 1
15112 13660 13659 1
15113 13655 13656 1
15114 13655 13660 1
15115 13662 13661 1
15116 13663 13662 1
15117 13664 13663 1
15118 13658 13661 1
15119 13657 13664 1
15120 13666 13665 1
15121 13667 13666 1
15122 13668 13667 1
15123 13662 13665 1
15124 13661 13668 1
15125 13670 13669 un
15126 13671 13670 un
15127 13672 13671 un
15128 13667 13669 1
15129 13666 13672 1
15130 13674 13673 1
15131 13675 13674 un
15132 13676 13675 un
15133 13671 13673 un
15134 13670 13676 un
15135 13678 13677 1
15136 13679 13678 1
15137 13669 13679 1
15138 13676 13677 1
15139 13681 13680 1
15140 13682 13681 un
15141 13683 13682 un
15142 13675 13680 1
15143 13674 13683 un
15144 13685 13684 un
15145 13686 13685 2
15146 13672 13684 1
15147 13673 13686 un
15148 13688 13687 2
15149 13689 13688 1
15150 13690 13689 1
15151 13685 13687 1
15152 13684 13690 2
15153 13692 13691 1
15154 13693 13692 1
15155 13694 13693 2
15156 13688 13691 1
15157 13687 13694 1
15158 13696 13695 1
15159 13697 13696 1
15160 13698 13697 1
15161 13694 13695 1
15162 13693 13698 1
15163 13700 13699 un
15164 13686 13700 un
15165 13683 13699 un
15166 13702 13701 un
15167 13703 13702 1
15168 13699 13703 un
15169 13682 13701 un
15170 13705 13704 un
15171 13706 13705 un
15172 13707 13706 un
15173 13702 13704 un
15174 13701 13707 un
15175 13709 13708 un
15176 13710 13709 un
15177 13711 13710 un
15178 13706 13708 un
15179 13705 13711 un
15180 13713 13712 un
15181 13714 13713 un
15182 13715 13714 un
15183 13710 13712 un
15184 13709 13715 un
15185 13717 13716 un
15186 13681 13717 un
15187 13707 13716 un
15188 13719 13718 un
15189 13716 13719 un
15190 13708 13718 un
15191 13721 13720 un
15192 13718 13721 un
15193 13715 13720 un
15194 13723 13722 un
15195 13724 13723 un
15196 13720 13724 un
15197 13714 13722 un
15198 13726 13725 1
15199 13727 13726 1
15200 13728 13727 1
15201 13713 13725 1
15202 13712 13728 1
15203 13730 13729 1
15204 13731 13730 1
15205 13732 13731 1
15206 13727 13729 1
15207 13726 13732 1
15208 13734 13733 1
15209 13735 13734 1
15210 13736 13735 1
15211 13732 13733 1
15212 13731 13736 1
15213 13738 13737 un
15214 13739 13738 un
15215 13721 13739 un
15216 13719 13737 un
15217 13741 13740 1
15218 13742 13741 1
15219 13743 13742 1
15220 13738 13740 1
15221 13737 13743 1
15222 13745 13744 1
15223 13746 13745 1
15224 13747 13746 1
15225 13742 13744 1
15226 13741 13747 1
15227 13749 13748 un
15228 13739 13749 un
15229 13724 13748 un
15230 13751 13750 un
15231 13752 13751 un
15232 13748 13752 un
15233 13723 13750 un
15234 13754 13753 un
15235 13755 13754 un
15236 13722 13755 un
15237 13750 13753 un
15238 13757 13756 1
15239 13758 13757 un
15240 13751 13756 1
15241 13753 13758 1
15242 13760 13759 1
15243 13761 13760 1
15244 13754 13759 1
15245 13758 13761 un
15246 13763 13762 1
15247 13764 13763 1
15248 13765 13764 1
15249 13760 13762 1
15250 13759 13765 1
15251 13767 13766 1
15252 13768 13767 1
15253 13757 13768 un
15254 13761 13766 un
15255 13762 13769 1
15256 13766 13770 un
15257 13769 13770 un
15258 13696 13771 1
15259 13771 13772 1
15260 13771 13773 1
15261 13728 13774 1
15262 13776 13775 1
15263 13777 13776 un
15264 13778 13777 1
15265 13768 13775 un
15266 13767 13778 un
15267 13780 13779 un
15268 13781 13780 1
15269 13782 13781 un
15270 13778 13779 un
15271 13777 13782 un
15272 13784 13783 un
15273 13785 13784 1
15274 13786 13785 1
15275 13781 13783 un
15276 13780 13786 un
15277 13788 13787 un
15278 13789 13788 un
15279 13779 13789 un
15280 13786 13787 un
15281 13791 13790 un
15282 13792 13791 un
15283 13785 13792 un
15284 13787 13790 un
15285 13794 13793 un
15286 13788 13794 un
15287 13770 13789 un
15288 13769 13793 un
15289 13796 13795 un
15290 13794 13796 un
15291 13790 13795 un
15292 13798 13797 1
15293 13799 13798 1
15294 13800 13799 1
15295 13796 13797 1
15296 13795 13800 1
15297 13800 13801 2
15298 13655 13802 1
15299 13655 13803 1
15300 13656 13804 1
15301 13656 13805 1
15302 13657 13806 1
15303 13658 13807 1
15304 13659 13808 1
15305 13659 13809 1
15306 13661 13810 1
15307 13662 13811 1
15308 13663 13812 1
15309 13663 13813 1
15310 13664 13814 1
15311 13664 13815 1
15312 13666 13816 1
15313 13667 13817 1
15314 13668 13818 1
15315 13668 13819 1
15316 13672 13820 1
15317 13677 13821 1
15318 13677 13822 1
15319 13678 13823 1
15320 13678 13824 1
15321 13679 13825 1
15322 13679 13826 1
15323 13689 13827 1
15324 13689 13828 1
15325 13690 13829 1
15326 13691 13830 1
15327 13691 13831 1
15328 13692 13832 1
15329 13692 13833 1
15330 13695 13834 1
15331 13695 13835 1
15332 13696 13836 1
15333 13697 13837 1
15334 13697 13838 1
15335 13698 13839 1
15336 13698 13840 1
15337 13700 13841 1
15338 13704 13842 1
15339 13711 13843 1
15340 13717 13844 1
15341 13726 13845 1
15342 13727 13846 1
15343 13728 13847 1
15344 13729 13848 1
15345 13729 13849 1
15346 13730 13850 1
15347 13730 13851 1
15348 13731 13852 1
15349 13732 13853 1
15350 13733 13854 1
15351 13733 13855 1
15352 13734 13856 1
15353 13734 13857 1
15354 13735 13858 1
15355 13735 13859 1
15356 13736 13860 1
15357 13741 13861 1
15358 13742 13862 1
15359 13744 13863 1
15360 13744 13864 1
15361 13745 13865 1
15362 13745 13866 1
15363 13746 13867 1
15364 13746 13868 1
15365 13747 13869 1
15366 13747 13870 1
15367 13749 13871 1
15368 13752 13872 1
15369 13755 13873 1
15370 13759 13874 1
15371 13760 13875 1
15372 13762 13876 1
15373 13763 13877 1
15374 13763 13878 1
15375 13764 13879 1
15376 13764 13880 1
15377 13765 13881 1
15378 13765 13882 1
15379 13771 13883 1
15380 13772 13884 1
15381 13772 13885 1
15382 13772 13886 1
15383 13773 13887 1
15384 13773 13888 1
15385 13773 13889 1
15386 13774 13890 1
15387 13775 13891 1
15388 13776 13892 1
15389 13782 13893 1
15390 13783 13894 1
15391 13784 13895 1
15392 13791 13896 1
15393 13792 13897 1
15394 13793 13898 1
15395 13797 13899 1
15396 13797 13900 1
15397 13798 13901 1
15398 13798 13902 1
15399 13799 13903 1
15400 13799 13904 1
15401 13907 13906 1
15402 13908 13907 1
15403 13909 13908 1
15404 13910 13909 1
15405 13905 13906 1
15406 13905 13910 1
15407 13912 13911 1
15408 13913 13912 1
15409 13914 13913 1
15410 13908 13911 1
15411 13907 13914 1
15412 13916 13915 1
15413 13917 13916 1
15414 13918 13917 1
15415 13912 13915 1
15416 13911 13918 1
15417 13920 13919 un
15418 13921 13920 un
15419 13922 13921 un
15420 13917 13919 1
15421 13916 13922 1
15422 13924 13923 1
15423 13925 13924 un
15424 13926 13925 un
15425 13921 13923 un
15426 13920 13926 un
15427 13928 13927 1
15428 13929 13928 1
15429 13919 13929 1
15430 13926 13927 1
15431 13931 13930 1
15432 13932 13931 un
15433 13933 13932 un
15434 13925 13930 1
15435 13924 13933 un
15436 13935 13934 un
15437 13936 13935 2
15438 13922 13934 1
15439 13923 13936 un
15440 13938 13937 2
15441 13939 13938 1
15442 13940 13939 1
15443 13935 13937 1
15444 13934 13940 2
15445 13942 13941 1
15446 13943 13942 1
15447 13944 13943 2
15448 13938 13941 1
15449 13937 13944 1
15450 13946 13945 1
15451 13947 13946 1
15452 13948 13947 1
15453 13944 13945 1
15454 13943 13948 1
15455 13950 13949 un
15456 13936 13950 un
15457 13933 13949 un
15458 13952 13951 un
15459 13953 13952 1
15460 13949 13953 un
15461 13932 13951 un
15462 13955 13954 un
15463 13956 13955 un
15464 13957 13956 un
15465 13952 13954 un
15466 13951 13957 un
15467 13959 13958 un
15468 13960 13959 un
15469 13961 13960 un
15470 13956 13958 un
15471 13955 13961 un
15472 13963 13962 un
15473 13964 13963 un
15474 13965 13964 un
15475 13960 13962 un
15476 13959 13965 un
15477 13967 13966 un
15478 13931 13967 un
15479 13957 13966 un
15480 13969 13968 un
15481 13966 13969 un
15482 13958 13968 un
15483 13971 13970 un
15484 13968 13971 un
15485 13965 13970 un
15486 13973 13972 un
15487 13974 13973 un
15488 13970 13974 un
15489 13964 13972 un
15490 13976 13975 1
15491 13977 13976 1
15492 13978 13977 1
15493 13963 13975 1
15494 13962 13978 1
15495 13980 13979 1
15496 13981 13980 1
15497 13982 13981 1
15498 13977 13979 1
15499 13976 13982 1
15500 13984 13983 1
15501 13985 13984 1
15502 13986 13985 1
15503 13982 13983 1
15504 13981 13986 1
15505 13988 13987 un
15506 13989 13988 un
15507 13971 13989 un
15508 13969 13987 un
15509 13991 13990 1
15510 13992 13991 1
15511 13993 13992 1
15512 13988 13990 1
15513 13987 13993 1
15514 13995 13994 1
15515 13996 13995 1
15516 13997 13996 1
15517 13992 13994 1
15518 13991 13997 1
15519 13999 13998 un
15520 13989 13999 un
15521 13974 13998 un
15522 14001 14000 un
15523 14002 14001 un
15524 13998 14002 un
15525 13973 14000 un
15526 14004 14003 un
15527 14005 14004 un
15528 13972 14005 un
15529 14000 14003 un
15530 14007 14006 1
15531 14008 14007 un
15532 14001 14006 1
15533 14003 14008 1
15534 14010 14009 1
15535 14011 14010 1
15536 14004 14009 1
15537 14008 14011 un
15538 14013 14012 1
15539 14014 14013 1
15540 14015 14014 1
15541 14010 14012 1
15542 14009 14015 1
15543 14017 14016 1
15544 14018 14017 1
15545 14007 14018 un
15546 14011 14016 un
15547 14012 14019 1
15548 14016 14020 un
15549 14019 14020 un
15550 13946 14021 1
15551 14021 14022 1
15552 14021 14023 1
15553 13978 14024 1
15554 14026 14025 1
15555 14027 14026 un
15556 14028 14027 1
15557 14018 14025 un
15558 14017 14028 un
15559 14030 14029 un
15560 14031 14030 1
15561 14032 14031 un
15562 14028 14029 un
15563 14027 14032 un
15564 14034 14033 un
15565 14035 14034 1
15566 14036 14035 1
15567 14031 14033 un
15568 14030 14036 un
15569 14038 14037 un
15570 14039 14038 un
15571 14029 14039 un
15572 14036 14037 un
15573 14041 14040 un
15574 14042 14041 un
15575 14035 14042 un
15576 14037 14040 un
15577 14044 14043 un
15578 14038 14044 un
15579 14020 14039 un
15580 14019 14043 un
15581 14046 14045 un
15582 14044 14046 un
15583 14040 14045 un
15584 14048 14047 1
15585 14049 14048 1
15586 14050 14049 1
15587 14046 14047 1
15588 14045 14050 1
15589 14050 14051 2
15590 13905 14052 1
15591 13905 14053 1
15592 13906 14054 1
15593 13906 14055 1
15594 13907 14056 1
15595 13908 14057 1
15596 13909 14058 1
15597 13909 14059 1
15598 13911 14060 1
15599 13912 14061 1
15600 13913 14062 1
15601 13913 14063 1
15602 13914 14064 1
15603 13914 14065 1
15604 13916 14066 1
15605 13917 14067 1
15606 13918 14068 1
15607 13918 14069 1
15608 13922 14070 1
15609 13927 14071 1
15610 13927 14072 1
15611 13928 14073 1
15612 13928 14074 1
15613 13929 14075 1
15614 13929 14076 1
15615 13939 14077 1
15616 13939 14078 1
15617 13940 14079 1
15618 13941 14080 1
15619 13941 14081 1
15620 13942 14082 1
15621 13942 14083 1
15622 13945 14084 1
15623 13945 14085 1
15624 13946 14086 1
15625 13947 14087 1
15626 13947 14088 1
15627 13948 14089 1
15628 13948 14090 1
15629 13950 14091 1
15630 13954 14092 1
15631 13961 14093 1
15632 13967 14094 1
15633 13976 14095 1
15634 13977 14096 1
15635 13978 14097 1
15636 13979 14098 1
15637 13979 14099 1
15638 13980 14100 1
15639 13980 14101 1
15640 13981 14102 1
15641 13982 14103 1
15642 13983 14104 1
15643 13983 14105 1
15644 13984 14106 1
15645 13984 14107 1
15646 13985 14108 1
15647 13985 14109 1
15648 13986 14110 1
15649 13991 14111 1
15650 13992 14112 1
15651 13994 14113 1
15652 13994 14114 1
15653 13995 14115 1
15654 13995 14116 1
15655 13996 14117 1
15656 13996 14118 1
15657 13997 14119 1
15658 13997 14120 1
15659 13999 14121 1
15660 14002 14122 1
15661 14005 14123 1
15662 14009 14124 1
15663 14010 14125 1
15664 14012 14126 1
15665 14013 14127 1
15666 14013 14128 1
15667 14014 14129 1
15668 14014 14130 1
15669 14015 14131 1
15670 14015 14132 1
15671 14021 14133 1
15672 14022 14134 1
15673 14022 14135 1
15674 14022 14136 1
15675 14023 14137 1
15676 14023 14138 1
15677 14023 14139 1
15678 14024 14140 1
15679 14025 14141 1
15680 14026 14142 1
15681 14032 14143 1
15682 14033 14144 1
15683 14034 14145 1
15684 14041 14146 1
15685 14042 14147 1
15686 14043 14148 1
15687 14047 14149 1
15688 14047 14150 1
15689 14048 14151 1
15690 14048 14152 1
15691 14049 14153 1
15692 14049 14154 1
15693 14157 14156 1
15694 14158 14157 1
15695 14159 14158 1
15696 14160 14159 1
15697 14155 14156 1
15698 14155 14160 1
15699 14162 14161 1
15700 14163 14162 1
15701 14164 14163 1
15702 14158 14161 1
15703 14157 14164 1
15704 14166 14165 1
15705 14167 14166 1
15706 14168 14167 1
15707 14162 14165 1
15708 14161 14168 1
15709 14170 14169 un
15710 14171 14170 un
15711 14172 14171 un
15712 14167 14169 1
15713 14166 14172 1
15714 14174 14173 1
15715 14175 14174 un
15716 14176 14175 un
15717 14171 14173 un
15718 14170 14176 un
15719 14178 14177 1
15720 14179 14178 1
15721 14169 14179 1
15722 14176 14177 1
15723 14181 14180 1
15724 14182 14181 un
15725 14183 14182 un
15726 14175 14180 1
15727 14174 14183 un
15728 14185 14184 un
15729 14186 14185 2
15730 14172 14184 1
15731 14173 14186 un
15732 14188 14187 2
15733 14189 14188 1
15734 14190 14189 1
15735 14185 14187 1
15736 14184 14190 2
15737 14192 14191 1
15738 14193 14192 1
15739 14194 14193 2
15740 14188 14191 1
15741 14187 14194 1
15742 14196 14195 1
15743 14197 14196 1
15744 14198 14197 1
15745 14194 14195 1
15746 14193 14198 1
15747 14200 14199 un
15748 14186 14200 un
15749 14183 14199 un
15750 14202 14201 un
15751 14203 14202 1
15752 14199 14203 un
15753 14182 14201 un
15754 14205 14204 un
15755 14206 14205 un
15756 14207 14206 un
15757 14202 14204 un
15758 14201 14207 un
15759 14209 14208 un
15760 14210 14209 un
15761 14211 14210 un
15762 14206 14208 un
15763 14205 14211 un
15764 14213 14212 un
15765 14214 14213 un
15766 14215 14214 un
15767 14210 14212 un
15768 14209 14215 un
15769 14217 14216 un
15770 14181 14217 un
15771 14207 14216 un
15772 14219 14218 un
15773 14216 14219 un
15774 14208 14218 un
15775 14221 14220 un
15776 14218 14221 un
15777 14215 14220 un
15778 14223 14222 un
15779 14224 14223 un
15780 14220 14224 un
15781 14214 14222 un
15782 14226 14225 1
15783 14227 14226 1
15784 14228 14227 1
15785 14213 14225 1
15786 14212 14228 1
15787 14230 14229 1
15788 14231 14230 1
15789 14232 14231 1
15790 14227 14229 1
15791 14226 14232 1
15792 14234 14233 1
15793 14235 14234 1
15794 14236 14235 1
15795 14232 14233 1
15796 14231 14236 1
15797 14238 14237 un
15798 14239 14238 un
15799 14221 14239 un
15800 14219 14237 un
15801 14241 14240 1
15802 14242 14241 1
15803 14243 14242 1
15804 14238 14240 1
15805 14237 14243 1
15806 14245 14244 1
15807 14246 14245 1
15808 14247 14246 1
15809 14242 14244 1
15810 14241 14247 1
15811 14249 14248 un
15812 14239 14249 un
15813 14224 14248 un
15814 14251 14250 un
15815 14252 14251 un
15816 14248 14252 un
15817 14223 14250 un
15818 14254 14253 un
15819 14255 14254 un
15820 14222 14255 un
15821 14250 14253 un
15822 14257 14256 1
15823 14258 14257 un
15824 14251 14256 1
15825 14253 14258 1
15826 14260 14259 1
15827 14261 14260 1
15828 14254 14259 1
15829 14258 14261 un
15830 14263 14262 1
15831 14264 14263 1
15832 14265 14264 1
15833 14260 14262 1
15834 14259 14265 1
15835 14267 14266 1
15836 14268 14267 1
15837 14257 14268 un
15838 14261 14266 un
15839 14262 14269 1
15840 14266 14270 un
15841 14269 14270 un
15842 14196 14271 1
15843 14271 14272 1
15844 14271 14273 1
15845 14228 14274 1
15846 14276 14275 1
15847 14277 14276 un
15848 14278 14277 1
15849 14268 14275 un
15850 14267 14278 un
15851 14280 14279 un
15852 14281 14280 1
15853 14282 14281 un
15854 14278 14279 un
15855 14277 14282 un
15856 14284 14283 un
15857 14285 14284 1
15858 14286 14285 1
15859 14281 14283 un
15860 14280 14286 un
15861 14288 14287 un
15862 14289 14288 un
15863 14279 14289 un
15864 14286 14287 un
15865 14291 14290 un
15866 14292 14291 un
15867 14285 14292 un
15868 14287 14290 un
15869 14294 14293 un
15870 14288 14294 un
15871 14270 14289 un
15872 14269 14293 un
15873 14296 14295 un
15874 14294 14296 un
15875 14290 14295 un
15876 14298 14297 1
15877 14299 14298 1
15878 14300 14299 1
15879 14296 14297 1
15880 14295 14300 1
15881 14300 14301 2
15882 14155 14302 1
15883 14155 14303 1
15884 14156 14304 1
15885 14156 14305 1
15886 14157 14306 1
15887 14158 14307 1
15888 14159 14308 1
15889 14159 14309 1
15890 14161 14310 1
15891 14162 14311 1
15892 14163 14312 1
15893 14163 14313 1
15894 14164 14314 1
15895 14164 14315 1
15896 14166 14316 1
15897 14167 14317 1
15898 14168 14318 1
15899 14168 14319 1
15900 14172 14320 1
15901 14177 14321 1
15902 14177 14322 1
15903 14178 14323 1
15904 14178 14324 1
15905 14179 14325 1
15906 14179 14326 1
15907 14189 14327 1
15908 14189 14328 1
15909 14190 14329 1
15910 14191 14330 1
15911 14191 14331 1
15912 14192 14332 1
15913 14192 14333 1
15914 14195 14334 1
15915 14195 14335 1
15916 14196 14336 1
15917 14197 14337 1
15918 14197 14338 1
15919 14198 14339 1
15920 14198 14340 1
15921 14200 14341 1
15922 14204 14342 1
15923 14211 14343 1
15924 14217 14344 1
15925 14226 14345 1
15926 14227 14346 1
15927 14228 14347 1
15928 14229 14348 1
15929 14229 14349 1
15930 14230 14350 1
15931 14230 14351 1
15932 14231 14352 1
15933 14232 14353 1
15934 14233 14354 1
15935 14233 14355 1
15936 14234 14356 1
15937 14234 14357 1
15938 14235 14358 1
15939 14235 14359 1
15940 14236 14360 1
15941 14241 14361 1
15942 14242 14362 1
15943 14244 14363 1
15944 14244 14364 1
15945 14245 14365 1
15946 14245 14366 1
15947 14246 14367 1
15948 14246 14368 1
15949 14247 14369 1
15950 14247 14370 1
15951 14249 14371 1
15952 14252 14372 1
15953 14255 14373 1
15954 14259 14374 1
15955 14260 14375 1
15956 14262 14376 1
15957 14263 14377 1
15958 14263 14378 1
15959 14264 14379 1
15960 14264 14380 1
15961 14265 14381 1
15962 14265 14382 1
15963 14271 14383 1
15964 14272 14384 1
15965 14272 14385 1
15966 14272 14386 1
15967 14273 14387 1
15968 14273 14388 1
15969 14273 14389 1
15970 14274 14390 1
15971 14275 14391 1
15972 14276 14392 1
15973 14282 14393 1
15974 14283 14394 1
15975 14284 14395 1
15976 14291 14396 1
15977 14292 14397 1
15978 14293 14398 1
15979 14297 14399 1
15980 14297 14400 1
15981 14298 14401 1
15982 14298 14402 1
15983 14299 14403 1
15984 14299 14404 1
15985 14407 14406 1
15986 14408 14407 1
15987 14409 14408 1
15988 14410 14409 1
15989 14405 14406 1
15990 14405 14410 1
15991 14412 14411 1
15992 14413 14412 1
15993 14414 14413 1
15994 14408 14411 1
15995 14407 14414 1
15996 14416 14415 1
15997 14417 14416 1
15998 14418 14417 1
15999 14412 14415 1
16000 14411 14418 1
16001 14420 14419 un
16002 14421 14420 un
16003 14422 14421 un
16004 14417 14419 1
16005 14416 14422 1
16006 14424 14423 1
16007 14425 14424 un
16008 14426 14425 un
16009 14421 14423 un
16010 14420 14426 un
16011 14428 14427 1
16012 14429 14428 1
16013 14419 14429 1
16014 14426 14427 1
16015 14431 14430 1
16016 14432 14431 un
16017 14433 14432 un
16018 14425 14430 1
16019 14424 14433 un
16020 14435 14434 un
16021 14436 14435 2
16022 14422 14434 1
16023 14423 14436 un
16024 14438 14437 2
16025 14439 14438 1
16026 14440 14439 1
16027 14435 14437 1
16028 14434 14440 2
16029 14442 14441 1
16030 14443 14442 1
16031 14444 14443 2
16032 14438 14441 1
16033 14437 14444 1
16034 14446 14445 1
16035 14447 14446 1
16036 14448 14447 1
16037 14444 14445 1
16038 14443 14448 1
16039 14450 14449 un
16040 14436 14450 un
16041 14433 14449 un
16042 14452 14451 un
16043 14453 14452 1
16044 14449 14453 un
16045 14432 14451 un
16046 14455 14454 un
16047 14456 14455 un
16048 14457 14456 un
16049 14452 14454 un
16050 14451 14457 un
16051 14459 14458 un
16052 14460 14459 un
16053 14461 14460 un
16054 14456 14458 un
16055 14455 14461 un
16056 14463 14462 un
16057 14464 14463 un
16058 14465 14464 un
16059 14460 14462 un
16060 14459 14465 un
16061 14467 14466 un
16062 14431 14467 un
16063 14457 14466 un
16064 14469 14468 un
16065 14466 14469 un
16066 14458 14468 un
16067 14471 14470 un
16068 14468 14471 un
16069 14465 14470 un
16070 14473 14472 un
16071 14474 14473 un
16072 14470 14474 un
16073 14464 14472 un
16074 14476 14475 1
16075 14477 14476 1
16076 14478 14477 1
16077 14463 14475 1
16078 14462 14478 1
16079 14480 14479 1
16080 14481 14480 1
16081 14482 14481 1
16082 14477 14479 1
16083 14476 14482 1
16084 14484 14483 1
16085 14485 14484 1
16086 14486 14485 1
16087 14482 14483 1
16088 14481 14486 1
16089 14488 14487 un
16090 14489 14488 un
16091 14471 14489 un
16092 14469 14487 un
16093 14491 14490 1
16094 14492 14491 1
16095 14493 14492 1
16096 14488 14490 1
16097 14487 14493 1
16098 14495 14494 1
16099 14496 14495 1
16100 14497 14496 1
16101 14492 14494 1
16102 14491 14497 1
16103 14499 14498 un
16104 14489 14499 un
16105 14474 14498 un
16106 14501 14500 un
16107 14502 14501 un
16108 14498 14502 un
16109 14473 14500 un
16110 14504 14503 un
16111 14505 14504 un
16112 14472 14505 un
16113 14500 14503 un
16114 14507 14506 1
16115 14508 14507 un
16116 14501 14506 1
16117 14503 14508 1
16118 14510 14509 1
16119 14511 14510 1
16120 14504 14509 1
16121 14508 14511 un
16122 14513 14512 1
16123 14514 14513 1
16124 14515 14514 1
16125 14510 14512 1
16126 14509 14515 1
16127 14517 14516 1
16128 14518 14517 1
16129 14507 14518 un
16130 14511 14516 un
16131 14512 14519 1
16132 14516 14520 un
16133 14519 14520 un
16134 14446 14521 1
16135 14521 14522 1
16136 14521 14523 1
16137 14478 14524 1
16138 14526 14525 1
16139 14527 14526 un
16140 14528 14527 1
16141 14518 14525 un
16142 14517 14528 un
16143 14530 14529 un
16144 14531 14530 1
16145 14532 14531 un
16146 14528 14529 un
16147 14527 14532 un
16148 14534 14533 un
16149 14535 14534 1
16150 14536 14535 1
16151 14531 14533 un
16152 14530 14536 un
16153 14538 14537 un
16154 14539 14538 un
16155 14529 14539 un
16156 14536 14537 un
16157 14541 14540 un
16158 14542 14541 un
16159 14535 14542 un
16160 14537 14540 un
16161 14544 14543 un
16162 14538 14544 un
16163 14520 14539 un
16164 14519 14543 un
16165 14546 14545 un
16166 14544 14546 un
16167 14540 14545 un
16168 14548 14547 1
16169 14549 14548 1
16170 14550 14549 1
16171 14546 14547 1
16172 14545 14550 1
16173 14550 14551 2
16174 14405 14552 1
16175 14405 14553 1
16176 14406 14554 1
16177 14406 14555 1
16178 14407 14556 1
16179 14408 14557 1
16180 14409 14558 1
16181 14409 14559 1
16182 14411 14560 1
16183 14412 14561 1
16184 14413 14562 1
16185 14413 14563 1
16186 14414 14564 1
16187 14414 14565 1
16188 14416 14566 1
16189 14417 14567 1
16190 14418 14568 1
16191 14418 14569 1
16192 14422 14570 1
16193 14427 14571 1
16194 14427 14572 1
16195 14428 14573 1
16196 14428 14574 1
16197 14429 14575 1
16198 14429 14576 1
16199 14439 14577 1
16200 14439 14578 1
16201 14440 14579 1
16202 14441 14580 1
16203 14441 14581 1
16204 14442 14582 1
16205 14442 14583 1
16206 14445 14584 1
16207 14445 14585 1
16208 14446 14586 1
16209 14447 14587 1
16210 14447 14588 1
16211 14448 14589 1
16212 14448 14590 1
16213 14450 14591 1
16214 14454 14592 1
16215 14461 14593 1
16216 14467 14594 1
16217 14476 14595 1
16218 14477 14596 1
16219 14478 14597 1
16220 14479 14598 1
16221 14479 14599 1
16222 14480 14600 1
16223 14480 14601 1
16224 14481 14602 1
16225 14482 14603 1
16226 14483 14604 1
16227 14483 14605 1
16228 14484 14606 1
16229 14484 14607 1
16230 14485 14608 1
16231 14485 14609 1
16232 14486 14610 1
16233 14491 14611 1
16234 14492 14612 1
16235 14494 14613 1
16236 14494 14614 1
16237 14495 14615 1
16238 14495 14616 1
16239 14496 14617 1
16240 14496 14618 1
16241 14497 14619 1
16242 14497 14620 1
16243 14499 14621 1
16244 14502 14622 1
16245 14505 14623 1
16246 14509 14624 1
16247 14510 14625 1
16248 14512 14626 1
16249 14513 14627 1
16250 14513 14628 1
16251 14514 14629 1
16252 14514 14630 1
16253 14515 14631 1
16254 14515 14632 1
16255 14521 14633 1
16256 14522 14634 1
16257 14522 14635 1
16258 14522 14636 1
16259 14523 14637 1
16260 14523 14638 1
16261 14523 14639 1
16262 14524 14640 1
16263 14525 14641 1
16264 14526 14642 1
16265 14532 14643 1
16266 14533 14644 1
16267 14534 14645 1
16268 14541 14646 1
16269 14542 14647 1
16270 14543 14648 1
16271 14547 14649 1
16272 14547 14650 1
16273 14548 14651 1
16274 14548 14652 1
16275 14549 14653 1
16276 14549 14654 1
16277 14657 14656 1
16278 14658 14657 1
16279 14659 14658 1
16280 14660 14659 1
16281 14655 14656 1
16282 14655 14660 1
16283 14662 14661 1
16284 14663 14662 1
16285 14664 14663 1
16286 14658 14661 1
16287 14657 14664 1
16288 14666 14665 1
16289 14667 14666 1
16290 14668 14667 1
16291 14662 14665 1
16292 14661 14668 1
16293 14670 14669 un
16294 14671 14670 un
16295 14672 14671 un
16296 14667 14669 1
16297 14666 14672 1
16298 14674 14673 1
16299 14675 14674 un
16300 14676 14675 un
16301 14671 14673 un
16302 14670 14676 un
16303 14678 14677 1
16304 14679 14678 1
16305 14669 14679 1
16306 14676 14677 1
16307 14681 14680 1
16308 14682 14681 un
16309 14683 14682 un
16310 14675 14680 1
16311 14674 14683 un
16312 14685 14684 un
16313 14686 14685 2
16314 14672 14684 1
16315 14673 14686 un
16316 14688 14687 2
16317 14689 14688 1
16318 14690 14689 1
16319 14685 14687 1
16320 14684 14690 2
16321 14692 14691 1
16322 14693 14692 1
16323 14694 14693 2
16324 14688 14691 1
16325 14687 14694 1
16326 14696 14695 1
16327 14697 14696 1
16328 14698 14697 1
16329 14694 14695 1
16330 14693 14698 1
16331 14700 14699 un
16332 14686 14700 un
16333 14683 14699 un
16334 14702 14701 un
16335 14703 14702 1
16336 14699 14703 un
16337 14682 14701 un
16338 14705 14704 un
16339 14706 14705 un
16340 14707 14706 un
16341 14702 14704 un
16342 14701 14707 un
16343 14709 14708 un
16344 14710 14709 un
16345 14711 14710 un
16346 14706 14708 un
16347 14705 14711 un
16348 14713 14712 un
16349 14714 14713 un
16350 14715 14714 un
16351 14710 14712 un
16352 14709 14715 un
16353 14717 14716 un
16354 14681 14717 un
16355 14707 14716 un
16356 14719 14718 un
16357 14716 14719 un
16358 14708 14718 un
16359 14721 14720 un
16360 14718 14721 un
16361 14715 14720 un
16362 14723 14722 un
16363 14724 14723 un
16364 14720 14724 un
16365 14714 14722 un
16366 14726 14725 1
16367 14727 14726 1
16368 14728 14727 1
16369 14713 14725 1
16370 14712 14728 1
16371 14730 14729 1
16372 14731 14730 1
16373 14732 14731 1
16374 14727 14729 1
16375 14726 14732 1
16376 14734 14733 1
16377 14735 14734 1
16378 14736 14735 1
16379 14732 14733 1
16380 14731 14736 1
16381 14738 14737 un
16382 14739 14738 un
16383 14721 14739 un
16384 14719 14737 un
16385 14741 14740 1
16386 14742 14741 1
16387 14743 14742 1
16388 14738 14740 1
16389 14737 14743 1
16390 14745 14744 1
16391 14746 14745 1
16392 14747 14746 1
16393 14742 14744 1
16394 14741 14747 1
16395 14749 14748 un
16396 14739 14749 un
16397 14724 14748 un
16398 14751 14750 un
16399 14752 14751 un
16400 14748 14752 un
16401 14723 14750 un
16402 14754 14753 un
16403 14755 14754 un
16404 14722 14755 un
16405 14750 14753 un
16406 14757 14756 1
16407 14758 14757 un
16408 14751 14756 1
16409 14753 14758 1
16410 14760 14759 1
16411 14761 14760 1
16412 14754 14759 1
16413 14758 14761 un
16414 14763 14762 1
16415 14764 14763 1
16416 14765 14764 1
16417 14760 14762 1
16418 14759 14765 1
16419 14767 14766 1
16420 14768 14767 1
16421 14757 14768 un
16422 14761 14766 un
16423 14762 14769 1
16424 14766 14770 un
16425 14769 14770 un
16426 14696 14771 1
16427 14771 14772 1
16428 14771 14773 1
16429 14728 14774 1
16430 14776 14775 1
16431 14777 14776 un
16432 14778 14777 1
16433 14768 14775 un
16434 14767 14778 un
16435 14780 14779 un
16436 14781 14780 1
16437 14782 14781 un
16438 14778 14779 un
16439 14777 14782 un
16440 14784 14783 un
16441 14785 14784 1
16442 14786 14785 1
16443 14781 14783 un
16444 14780 14786 un
16445 14788 14787 un
16446 14789 14788 un
16447 14779 14789 un
16448 14786 14787 un
16449 14791 14790 un
16450 14792 14791 un
16451 14785 14792 un
16452 14787 14790 un
16453 14794 14793 un
16454 14788 14794 un
16455 14770 14789 un
16456 14769 14793 un
16457 14796 14795 un
16458 14794 14796 un
16459 14790 14795 un
16460 14798 14797 1
16461 14799 14798 1
16462 14800 14799 1
16463 14796 14797 1
16464 14795 14800 1
16465 14800 14801 2
16466 14655 14802 1
16467 14655 14803 1
16468 14656 14804 1
16469 14656 14805 1
16470 14657 14806 1
16471 14658 14807 1
16472 14659 14808 1
16473 14659 14809 1
16474 14661 14810 1
16475 14662 14811 1
16476 14663 14812 1
16477 14663 14813 1
16478 14664 14814 1
16479 14664 14815 1
16480 14666 14816 1
16481 14667 14817 1
16482 14668 14818 1
16483 14668 14819 1
16484 14672 14820 1
16485 14677 14821 1
16486 14677 14822 1
16487 14678 14823 1
16488 14678 14824 1
16489 14679 14825 1
16490 14679 14826 1
16491 14689 14827 1
16492 14689 14828 1
16493 14690 14829 1
16494 14691 14830 1
16495 14691 14831 1
16496 14692 14832 1
16497 14692 14833 1
16498 14695 14834 1
16499 14695 14835 1
16500 14696 14836 1
16501 14697 14837 1
16502 14697 14838 1
16503 14698 14839 1
16504 14698 14840 1
16505 14700 14841 1
16506 14704 14842 1
16507 14711 14843 1
16508 14717 14844 1
16509 14726 14845 1
16510 14727 14846 1
16511 14728 14847 1
16512 14729 14848 1
16513 14729 14849 1
16514 14730 14850 1
16515 14730 14851 1
16516 14731 14852 1
16517 14732 14853 1
16518 14733 14854 1
16519 14733 14855 1
16520 14734 14856 1
16521 14734 14857 1
16522 14735 14858 1
16523 14735 14859 1
16524 14736 14860 1
16525 14741 14861 1
16526 14742 14862 1
16527 14744 14863 1
16528 14744 14864 1
16529 14745 14865 1
16530 14745 14866 1
16531 14746 14867 1
16532 14746 14868 1
16533 14747 14869 1
16534 14747 14870 1
16535 14749 14871 1
16536 14752 14872 1
16537 14755 14873 1
16538 14759 14874 1
16539 14760 14875 1
16540 14762 14876 1
16541 14763 14877 1
16542 14763 14878 1
16543 14764 14879 1
16544 14764 14880 1
16545 14765 14881 1
16546 14765 14882 1
16547 14771 14883 1
16548 14772 14884 1
16549 14772 14885 1
16550 14772 14886 1
16551 14773 14887 1
16552 14773 14888 1
16553 14773 14889 1
16554 14774 14890 1
16555 14775 14891 1
16556 14776 14892 1
16557 14782 14893 1
16558 14783 14894 1
16559 14784 14895 1
16560 14791 14896 1
16561 14792 14897 1
16562 14793 14898 1
16563 14797 14899 1
16564 14797 14900 1
16565 14798 14901 1
16566 14798 14902 1
16567 14799 14903 1
16568 14799 14904 1
16569 14907 14906 1
16570 14908 14907 1
16571 14909 14908 1
16572 14910 14909 1
16573 14905 14906 1
16574 14905 14910 1
16575 14912 14911 1
16576 14913 14912 1
16577 14914 14913 1
16578 14908 14911 1
16579 14907 14914 1
16580 14916 14915 1
16581 14917 14916 1
16582 14918 14917 1
16583 14912 14915 1
16584 14911 14918 1
16585 14920 14919 un
16586 14921 14920 un
16587 14922 14921 un
16588 14917 14919 1
16589 14916 14922 1
16590 14924 14923 1
16591 14925 14924 un
16592 14926 14925 un
16593 14921 14923 un
16594 14920 14926 un
16595 14928 14927 1
16596 14929 14928 1
16597 14919 14929 1
16598 14926 14927 1
16599 14931 14930 1
16600 14932 14931 un
16601 14933 14932 un
16602 14925 14930 1
16603 14924 14933 un
16604 14935 14934 un
16605 14936 14935 2
16606 14922 14934 1
16607 14923 14936 un
16608 14938 14937 2
16609 14939 14938 1
16610 14940 14939 1
16611 14935 14937 1
16612 14934 14940 2
16613 14942 14941 1
16614 14943 14942 1
16615 14944 14943 2
16616 14938 14941 1
16617 14937 14944 1
16618 14946 14945 1
16619 14947 14946 1
16620 14948 14947 1
16621 14944 14945 1
16622 14943 14948 1
16623 14950 14949 un
16624 14936 14950 un
16625 14933 14949 un
16626 14952 14951 un
16627 14953 14952 1
16628 14949 14953 un
16629 14932 14951 un
16630 14955 14954 un
16631 14956 14955 un
16632 14957 14956 un
16633 14952 14954 un
16634 14951 14957 un
16635 14959 14958 un
16636 14960 14959 un
16637 14961 14960 un
16638 14956 14958 un
16639 14955 14961 un
16640 14963 14962 un
16641 14964 14963 un
16642 14965 14964 un
16643 14960 14962 un
16644 14959 14965 un
16645 14967 14966 un
16646 14931 14967 un
16647 14957 14966 un
16648 14969 14968 un
16649 14966 14969 un
16650 14958 14968 un
16651 14971 14970 un
16652 14968 14971 un
16653 14965 14970 un
16654 14973 14972 un
16655 14974 14973 un
16656 14970 14974 un
16657 14964 14972 un
16658 14976 14975 1
16659 14977 14976 1
16660 14978 14977 1
16661 14963 14975 1
16662 14962 14978 1
16663 14980 14979 1
16664 14981 14980 1
16665 14982 14981 1
16666 14977 14979 1
16667 14976 14982 1
16668 14984 14983 1
16669 14985 14984 1
16670 14986 14985 1
16671 14982 14983 1
16672 14981 14986 1
16673 14988 14987 un
16674 14989 14988 un
16675 14971 14989 un
16676 14969 14987 un
16677 14991 14990 1
16678 14992 14991 1
16679 14993 14992 1
16680 14988 14990 1
16681 14987 14993 1
16682 14995 14994 1
16683 14996 14995 1
16684 14997 14996 1
16685 14992 14994 1
16686 14991 14997 1
16687 14999 14998 un
16688 14989 14999 un
16689 14974 14998 un
16690 15001 15000 un
16691 15002 15001 un
16692 14998 15002 un
16693 14973 15000 un
16694 15004 15003 un
16695 15005 15004 un
16696 14972 15005 un
16697 15000 15003 un
16698 15007 15006 1
16699 15008 15007 un
16700 15001 15006 1
16701 15003 15008 1
16702 15010 15009 1
16703 15011 15010 1
16704 15004 15009 1
16705 15008 15011 un
16706 15013 15012 1
16707 15014 15013 1
16708 15015 15014 1
16709 15010 15012 1
16710 15009 15015 1
16711 15017 15016 1
16712 15018 15017 1
16713 15007 15018 un
16714 15011 15016 un
16715 15012 15019 1
16716 15016 15020 un
16717 15019 15020 un
16718 14946 15021 1
16719 15021 15022 1
16720 15021 15023 1
16721 14978 15024 1
16722 15026 15025 1
16723 15027 15026 un
16724 15028 15027 1
16725 15018 15025 un
16726 15017 15028 un
16727 15030 15029 un
16728 15031 15030 1
16729 15032 15031 un
16730 15028 15029 un
16731 15027 15032 un
16732 15034 15033 un
16733 15035 15034 1
16734 15036 15035 1
16735 15031 15033 un
16736 15030 15036 un
16737 15038 15037 un
16738 15039 15038 un
16739 15029 15039 un
16740 15036 15037 un
16741 15041 15040 un
16742 15042 15041 un
16743 15035 15042 un
16744 15037 15040 un
16745 15044 15043 un
16746 15038 15044 un
16747 15020 15039 un
16748 15019 15043 un
16749 15046 15045 un
16750 15044 15046 un
16751 15040 15045 un
16752 15048 15047 1
16753 15049 15048 1
16754 15050 15049 1
16755 15046 15047 1
16756 15045 15050 1
16757 15050 15051 2
16758 14905 15052 1
16759 14905 15053 1
16760 14906 15054 1
16761 14906 15055 1
16762 14907 15056 1
16763 14908 15057 1
16764 14909 15058 1
16765 14909 15059 1
16766 14911 15060 1
16767 14912 15061 1
16768 14913 15062 1
16769 14913 15063 1
16770 14914 15064 1
16771 14914 15065 1
16772 14916 15066 1
16773 14917 15067 1
16774 14918 15068 1
16775 14918 15069 1
16776 14922 15070 1
16777 14927 15071 1
16778 14927 15072 1
16779 14928 15073 1
16780 14928 15074 1
16781 14929 15075 1
16782 14929 15076 1
16783 14939 15077 1
16784 14939 15078 1
16785 14940 15079 1
16786 14941 15080 1
16787 14941 15081 1
16788 14942 15082 1
16789 14942 15083 1
16790 14945 15084 1
16791 14945 15085 1
16792 14946 15086 1
16793 14947 15087 1
16794 14947 15088 1
16795 14948 15089 1
16796 14948 15090 1
16797 14950 15091 1
16798 14954 15092 1
16799 14961 15093 1
16800 14967 15094 1
16801 14976 15095 1
16802 14977 15096 1
16803 14978 15097 1
16804 14979 15098 1
16805 14979 15099 1
16806 14980 15100 1
16807 14980 15101 1
16808 14981 15102 1
16809 14982 15103 1
16810 14983 15104 1
16811 14983 15105 1
16812 14984 15106 1
16813 14984 15107 1
16814 14985 15108 1
16815 14985 15109 1
16816 14986 15110 1
16817 14991 15111 1
16818 14992 15112 1
16819 14994 15113 1
16820 14994 15114 1
16821 14995 15115 1
16822 14995 15116 1
16823 14996 15117 1
16824 14996 15118 1
16825 14997 15119 1
16826 14997 15120 1
16827 14999 15121 1
16828 15002 15122 1
16829 15005 15123 1
16830 15009 15124 1
16831 15010 15125 1
16832 15012 15126 1
16833 15013 15127 1
16834 15013 15128 1
16835 15014 15129 1
16836 15014 15130 1
16837 15015 15131 1
16838 15015 15132 1
16839 15021 15133 1
16840 15022 15134 1
16841 15022 15135 1
16842 15022 15136 1
16843 15023 15137 1
16844 15023 15138 1
16845 15023 15139 1
16846 15024 15140 1
16847 15025 15141 1
16848 15026 15142 1
16849 15032 15143 1
16850 15033 15144 1
16851 15034 15145 1
16852 15041 15146 1
16853 15042 15147 1
16854 15043 15148 1
16855 15047 15149 1
16856 15047 15150 1
16857 15048 15151 1
16858 15048 15152 1
16859 15049 15153 1
16860 15049 15154 1
16861 15157 15156 1
16862 15158 15157 1
16863 15159 15158 1
16864 15160 15159 1
16865 15155 15156 1
16866 15155 15160 1
16867 15162 15161 1
16868 15163 15162 1
16869 15164 15163 1
16870 15158 15161 1
16871 15157 15164 1
16872 15166 15165 1
16873 15167 15166 1
16874 15168 15167 1
16875 15162 15165 1
16876 15161 15168 1
16877 15170 15169 un
16878 15171 15170 un
16879 15172 15171 un
16880 15167 15169 1
16881 15166 15172 1
16882 15174 15173 1
16883 15175 15174 un
16884 15176 15175 un
16885 15171 15173 un
16886 15170 15176 un
16887 15178 15177 1
16888 15179 15178 1
16889 15169 15179 1
16890 15176 15177 1
16891 15181 15180 1
16892 15182 15181 un
16893 15183 15182 un
16894 15175 15180 1
16895 15174 15183 un
16896 15185 15184 un
16897 15186 15185 2
16898 15172 15184 1
16899 15173 15186 un
16900 15188 15187 2
16901 15189 15188 1
16902 15190 15189 1
16903 15185 15187 1
16904 15184 15190 2
16905 15192 15191 1
16906 15193 15192 1
16907 15194 15193 2
16908 15188 15191 1
16909 15187 15194 1
16910 15196 15195 1
16911 15197 15196 1
16912 15198 15197 1
16913 15194 15195 1
16914 15193 15198 1
16915 15200 15199 un
16916 15186 15200 un
16917 15183 15199 un
16918 15202 15201 un
16919 15203 15202 1
16920 15199 15203 un
16921 15182 15201 un
16922 15205 15204 un
16923 15206 15205 un
16924 15207 15206 un
16925 15202 15204 un
16926 15201 15207 un
16927 15209 15208 un
16928 15210 15209 un
16929 15211 15210 un
16930 15206 15208 un
16931 15205 15211 un
16932 15213 15212 un
16933 15214 15213 un
16934 15215 15214 un
16935 15210 15212 un
16936 15209 15215 un
16937 15217 15216 un
16938 15181 15217 un
16939 15207 15216 un
16940 15219 15218 un
16941 15216 15219 un
16942 15208 15218 un
16943 15221 15220 un
16944 15218 15221 un
16945 15215 15220 un
16946 15223 15222 un
16947 15224 15223 un
16948 15220 15224 un
16949 15214 15222 un
16950 15226 15225 1
16951 15227 15226 1
16952 15228 15227 1
16953 15213 15225 1
16954 15212 15228 1
16955 15230 15229 1
16956 15231 15230 1
16957 15232 15231 1
16958 15227 15229 1
16959 15226 15232 1
16960 15234 15233 1
16961 15235 15234 1
16962 15236 15235 1
16963 15232 15233 1
16964 15231 15236 1
16965 15238 15237 un
16966 15239 15238 un
16967 15221 15239 un
16968 15219 15237 un
16969 15241 15240 1
16970 15242 15241 1
16971 15243 15242 1
16972 15238 15240 1
16973 15237 15243 1
16974 15245 15244 1
16975 15246 15245 1
16976 15247 15246 1
16977 15242 15244 1
16978 15241 15247 1
16979 15249 15248 un
16980 15239 15249 un
16981 15224 15248 un
16982 15251 15250 un
16983 15252 15251 un
16984 15248 15252 un
16985 15223 15250 un
16986 15254 15253 un
16987 15255 15254 un
16988 15222 15255 un
16989 15250 15253 un
16990 15257 15256 1
16991 15258 15257 un
16992 15251 15256 1
16993 15253 15258 1
16994 15260 15259 1
16995 15261 15260 1
16996 15254 15259 1
16997 15258 15261 un
16998 15263 15262 1
16999 15264 15263 1
17000 15265 15264 1
17001 15260 15262 1
17002 15259 15265 1
17003 15267 15266 1
17004 15268 15267 1
17005 15257 15268 un
17006 15261 15266 un
17007 15262 15269 1
17008 15266 15270 un
17009 15269 15270 un
17010 15196 15271 1
17011 15271 15272 1
17012 15271 15273 1
17013 15228 15274 1
17014 15276 15275 1
17015 15277 15276 un
17016 15278 15277 1
17017 15268 15275 un
17018 15267 15278 un
17019 15280 15279 un
17020 15281 15280 1
17021 15282 15281 un
17022 15278 15279 un
17023 15277 15282 un
17024 15284 15283 un
17025 15285 15284 1
17026 15286 15285 1
17027 15281 15283 un
17028 15280 15286 un
17029 15288 15287 un
17030 15289 15288 un
17031 15279 15289 un
17032 15286 15287 un
17033 15291 15290 un
17034 15292 15291 un
17035 15285 15292 un
17036 15287 15290 un
17037 15294 15293 un
17038 15288 15294 un
17039 15270 15289 un
17040 15269 15293 un
17041 15296 15295 un
17042 15294 15296 un
17043 15290 15295 un
17044 15298 15297 1
17045 15299 15298 1
17046 15300 15299 1
17047 15296 15297 1
17048 15295 15300 1
17049 15300 15301 2
17050 15155 15302 1
17051 15155 15303 1
17052 15156 15304 1
17053 15156 15305 1
17054 15157 15306 1
17055 15158 15307 1
17056 15159 15308 1
17057 15159 15309 1
17058 15161 15310 1
17059 15162 15311 1
17060 15163 15312 1
17061 15163 15313 1
17062 15164 15314 1
17063 15164 15315 1
17064 15166 15316 1
17065 15167 15317 1
17066 15168 15318 1
17067 15168 15319 1
17068 15172 15320 1
17069 15177 15321 1
17070 15177 15322 1
17071 15178 15323 1
17072 15178 15324 1
17073 15179 15325 1
17074 15179 15326 1
17075 15189 15327 1
17076 15189 15328 1
17077 15190 15329 1
17078 15191 15330 1
17079 15191 15331 1
17080 15192 15332 1
17081 15192 15333 1
17082 15195 15334 1
17083 15195 15335 1
17084 15196 15336 1
17085 15197 15337 1
17086 15197 15338 1
17087 15198 15339 1
17088 15198 15340 1
17089 15200 15341 1
17090 15204 15342 1
17091 15211 15343 1
17092 15217 15344 1
17093 15226 15345 1
17094 15227 15346 1
17095 15228 15347 1
17096 15229 15348 1
17097 15229 15349 1
17098 15230 15350 1
17099 15230 15351 1
17100 15231 15352 1
17101 15232 15353 1
17102 15233 15354 1
17103 15233 15355 1
17104 15234 15356 1
17105 15234 15357 1
17106 15235 15358 1
17107 15235 15359 1
17108 15236 15360 1
17109 15241 15361 1
17110 15242 15362 1
17111 15244 15363 1
17112 15244 15364 1
17113 15245 15365 1
17114 15245 15366 1
17115 15246 15367 1
17116 15246 15368 1
17117 15247 15369 1
17118 15247 15370 1
17119 15249 15371 1
17120 15252 15372 1
17121 15255 15373 1
17122 15259 15374 1
17123 15260 15375 1
17124 15262 15376 1
17125 15263 15377 1
17126 15263 15378 1
17127 15264 15379 1
17128 15264 15380 1
17129 15265 15381 1
17130 15265 15382 1
17131 15271 15383 1
17132 15272 15384 1
17133 15272 15385 1
17134 15272 15386 1
17135 15273 15387 1
17136 15273 15388 1
17137 15273 15389 1
17138 15274 15390 1
17139 15275 15391 1
17140 15276 15392 1
17141 15282 15393 1
17142 15283 15394 1
17143 15284 15395 1
17144 15291 15396 1
17145 15292 15397 1
17146 15293 15398 1
17147 15297 15399 1
17148 15297 15400 1
17149 15298 15401 1
17150 15298 15402 1
17151 15299 15403 1
17152 15299 15404 1
17153 15407 15406 1
17154 15408 15407 1
17155 15409 15408 1
17156 15410 15409 1
17157 15405 15406 1
17158 15405 15410 1
17159 15412 15411 1
17160 15413 15412 1
17161 15414 15413 1
17162 15408 15411 1
17163 15407 15414 1
17164 15416 15415 1
17165 15417 15416 1
17166 15418 15417 1
17167 15412 15415 1
17168 15411 15418 1
17169 15420 15419 un
17170 15421 15420 un
17171 15422 15421 un
17172 15417 15419 1
17173 15416 15422 1
17174 15424 15423 1
17175 15425 15424 un
17176 15426 15425 un
17177 15421 15423 un
17178 15420 15426 un
17179 15428 15427 1
17180 15429 15428 1
17181 15419 15429 1
17182 15426 15427 1
17183 15431 15430 1
17184 15432 15431 un
17185 15433 15432 un
17186 15425 15430 1
17187 15424 15433 un
17188 15435 15434 un
17189 15436 15435 2
17190 15422 15434 1
17191 15423 15436 un
17192 15438 15437 2
17193 15439 15438 1
17194 15440 15439 1
17195 15435 15437 1
17196 15434 15440 2
17197 15442 15441 1
17198 15443 15442 1
17199 15444 15443 2
17200 15438 15441 1
17201 15437 15444 1
17202 15446 15445 1
17203 15447 15446 1
17204 15448 15447 1
17205 15444 15445 1
17206 15443 15448 1
17207 15450 15449 un
17208 15436 15450 un
17209 15433 15449 un
17210 15452 15451 un
17211 15453 15452 1
17212 15449 15453 un
17213 15432 15451 un
17214 15455 15454 un
17215 15456 15455 un
17216 15457 15456 un
17217 15452 15454 un
17218 15451 15457 un
17219 15459 15458 un
17220 15460 15459 un
17221 15461 15460 un
17222 15456 15458 un
17223 15455 15461 un
17224 15463 15462 un
17225 15464 15463 un
17226 15465 15464 un
17227 15460 15462 un
17228 15459 15465 un
17229 15467 15466 un
17230 15431 15467 un
17231 15457 15466 un
17232 15469 15468 un
17233 15466 15469 un
17234 15458 15468 un
17235 15471 15470 un
17236 15468 15471 un
17237 15465 15470 un
17238 15473 15472 un
17239 15474 15473 un
17240 15470 15474 un
17241 15464 15472 un
17242 15476 15475 1
17243 15477 15476 1
17244 15478 15477 1
17245 15463 15475 1
17246 15462 15478 1
17247 15480 15479 1
17248 15481 15480 1
17249 15482 15481 1
17250 15477 15479 1
17251 15476 15482 1
17252 15484 15483 1
17253 15485 15484 1
17254 15486 15485 1
17255 15482 15483 1
17256 15481 15486 1
17257 15488 15487 un
17258 15489 15488 un
17259 15471 15489 un
17260 15469 15487 un
17261 15491 15490 1
17262 15492 15491 1
17263 15493 15492 1
17264 15488 15490 1
17265 15487 15493 1
17266 15495 15494 1
17267 15496 15495 1
17268 15497 15496 1
17269 15492 15494 1
17270 15491 15497 1
17271 15499 15498 un
17272 15489 15499 un
17273 15474 15498 un
17274 15501 15500 un
17275 15502 15501 un
17276 15498 15502 un
17277 15473 15500 un
17278 15504 15503 un
17279 15505 15504 un
17280 15472 15505 un
17281 15500 15503 un
17282 15507 15506 1
17283 15508 15507 un
17284 15501 15506 1
17285 15503 15508 1
17286 15510 15509 1
17287 15511 15510 1
17288 15504 15509 1
17289 15508 15511 un
17290 15513 15512 1
17291 15514 15513 1
17292 15515 15514 1
17293 15510 15512 1
17294 15509 15515 1
17295 15517 15516 1
17296 15518 15517 1
17297 15507 15518 un
17298 15511 15516 un
17299 15512 15519 1
17300 15516 15520 un
17301 15519 15520 un
17302 15446 15521 1
17303 15521 15522 1
17304 15521 15523 1
17305 15478 15524 1
17306 15526 15525 1
17307 15527 15526 un
17308 15528 15527 1
17309 15518 15525 un
17310 15517 15528 un
17311 15530 15529 un
17312 15531 15530 1
17313 15532 15531 un
17314 15528 15529 un
17315 15527 15532 un
17316 15534 15533 un
17317 15535 15534 1
17318 15536 15535 1
17319 15531 15533 un
17320 15530 15536 un
17321 15538 15537 un
17322 15539 15538 un
17323 15529 15539 un
17324 15536 15537 un
17325 15541 15540 un
17326 15542 15541 un
17327 15535 15542 un
17328 15537 15540 un
17329 15544 15543 un
17330 15538 15544 un
17331 15520 15539 un
17332 15519 15543 un
17333 15546 15545 un
17334 15544 15546 un
17335 15540 15545 un
17336 15548 15547 1
17337 15549 15548 1
17338 15550 15549 1
17339 15546 15547 1
17340 15545 15550 1
17341 15550 15551 2
17342 15405 15552 1
17343 15405 15553 1
17344 15406 15554 1
17345 15406 15555 1
17346 15407 15556 1
17347 15408 15557 1
17348 15409 15558 1
17349 15409 15559 1
17350 15411 15560 1
17351 15412 15561 1
17352 15413 15562 1
17353 15413 15563 1
17354 15414 15564 1
17355 15414 15565 1
17356 15416 15566 1
17357 15417 15567 1
17358 15418 15568 1
17359 15418 15569 1
17360 15422 15570 1
17361 15427 15571 1
17362 15427 15572 1
17363 15428 15573 1
17364 15428 15574 1
17365 15429 15575 1
17366 15429 15576 1
17367 15439 15577 1
17368 15439 15578 1
17369 15440 15579 1
17370 15441 15580 1
17371 15441 15581 1
17372 15442 15582 1
17373 15442 15583 1
17374 15445 15584 1
17375 15445 15585 1
17376 15446 15586 1
17377 15447 15587 1
17378 15447 15588 1
17379 15448 15589 1
17380 15448 15590 1
17381 15450 15591 1
17382 15454 15592 1
17383 15461 15593 1
17384 15467 15594 1
17385 15476 15595 1
17386 15477 15596 1
17387 15478 15597 1
17388 15479 15598 1
17389 15479 15599 1
17390 15480 15600 1
17391 15480 15601 1
17392 15481 15602 1
17393 15482 15603 1
17394 15483 15604 1
17395 15483 15605 1
17396 15484 15606 1
17397 15484 15607 1
17398 15485 15608 1
17399 15485 15609 1
17400 15486 15610 1
17401 15491 15611 1
17402 15492 15612 1
17403 15494 15613 1
17404 15494 15614 1
17405 15495 15615 1
17406 15495 15616 1
17407 15496 15617 1
17408 15496 15618 1
17409 15497 15619 1
17410 15497 15620 1
17411 15499 15621 1
17412 15502 15622 1
17413 15505 15623 1
17414 15509 15624 1
17415 15510 15625 1
17416 15512 15626 1
17417 15513 15627 1
17418 15513 15628 1
17419 15514 15629 1
17420 15514 15630 1
17421 15515 15631 1
17422 15515 15632 1
17423 15521 15633 1
17424 15522 15634 1
17425 15522 15635 1
17426 15522 15636 1
17427 15523 15637 1
17428 15523 15638 1
17429 15523 15639 1
17430 15524 15640 1
17431 15525 15641 1
17432 15526 15642 1
17433 15532 15643 1
17434 15533 15644 1
17435 15534 15645 1
17436 15541 15646 1
17437 15542 15647 1
17438 15543 15648 1
17439 15547 15649 1
17440 15547 15650 1
17441 15548 15651 1
17442 15548 15652 1
17443 15549 15653 1
17444 15549 15654 1
17445 15657 15656 1
17446 15658 15657 1
17447 15659 15658 1
17448 15660 15659 1
17449 15655 15656 1
17450 15655 15660 1
17451 15662 15661 1
17452 15663 15662 1
17453 15664 15663 1
17454 15658 15661 1
17455 15657 15664 1
17456 15666 15665 1
17457 15667 15666 1
17458 15668 15667 1
17459 15662 15665 1
17460 15661 15668 1
17461 15670 15669 un
17462 15671 15670 un
17463 15672 15671 un
17464 15667 15669 1
17465 15666 15672 1
17466 15674 15673 1
17467 15675 15674 un
17468 15676 15675 un
17469 15671 15673 un
17470 15670 15676 un
17471 15678 15677 1
17472 15679 15678 1
17473 15669 15679 1
17474 15676 15677 1
17475 15681 15680 1
17476 15682 15681 un
17477 15683 15682 un
17478 15675 15680 1
17479 15674 15683 un
17480 15685 15684 un
17481 15686 15685 2
17482 15672 15684 1
17483 15673 15686 un
17484 15688 15687 2
17485 15689 15688 1
17486 15690 15689 1
17487 15685 15687 1
17488 15684 15690 2
17489 15692 15691 1
17490 15693 15692 1
17491 15694 15693 2
17492 15688 15691 1
17493 15687 15694 1
17494 15696 15695 1
17495 15697 15696 1
17496 15698 15697 1
17497 15694 15695 1
17498 15693 15698 1
17499 15700 15699 un
17500 15686 15700 un
17501 15683 15699 un
17502 15702 15701 un
17503 15703 15702 1
17504 15699 15703 un
17505 15682 15701 un
17506 15705 15704 un
17507 15706 15705 un
17508 15707 15706 un
17509 15702 15704 un
17510 15701 15707 un
17511 15709 15708 un
17512 15710 15709 un
17513 15711 15710 un
17514 15706 15708 un
17515 15705 15711 un
17516 15713 15712 un
17517 15714 15713 un
17518 15715 15714 un
17519 15710 15712 un
17520 15709 15715 un
17521 15717 15716 un
17522 15681 15717 un
17523 15707 15716 un
17524 15719 15718 un
17525 15716 15719 un
17526 15708 15718 un
17527 15721 15720 un
17528 15718 15721 un
17529 15715 15720 un
17530 15723 15722 un
17531 15724 15723 un
17532 15720 15724 un
17533 15714 15722 un
17534 15726 15725 1
17535 15727 15726 1
17536 15728 15727 1
17537 15713 15725 1
17538 15712 15728 1
17539 15730 15729 1
17540 15731 15730 1
17541 15732 15731 1
17542 15727 15729 1
17543 15726 15732 1
17544 15734 15733 1
17545 15735 15734 1
17546 15736 15735 1
17547 15732 15733 1
17548 15731 15736 1
17549 15738 15737 un
17550 15739 15738 un
17551 15721 15739 un
17552 15719 15737 un
17553 15741 15740 1
17554 15742 15741 1
17555 15743 15742 1
17556 15738 15740 1
17557 15737 15743 1
17558 15745 15744 1
17559 15746 15745 1
17560 15747 15746 1
17561 15742 15744 1
17562 15741 15747 1
17563 15749 15748 un
17564 15739 15749 un
17565 15724 15748 un
17566 15751 15750 un
17567 15752 15751 un
17568 15748 15752 un
17569 15723 15750 un
17570 15754 15753 un
17571 15755 15754 un
17572 15722 15755 un
17573 15750 15753 un
17574 15757 15756 1
17575 15758 15757 un
17576 15751 15756 1
17577 15753 15758 1
17578 15760 15759 1
17579 15761 15760 1
17580 15754 15759 1
17581 15758 15761 un
17582 15763 15762 1
17583 15764 15763 1
17584 15765 15764 1
17585 15760 15762 1
17586 15759 15765 1
17587 15767 15766 1
17588 15768 15767 1
17589 15757 15768 un
17590 15761 15766 un
17591 15762 15769 1
17592 15766 15770 un
17593 15769 15770 un
17594 15696 15771 1
17595 15771 15772 1
17596 15771 15773 1
17597 15728 15774 1
17598 15776 15775 1
17599 15777 15776 un
17600 15778 15777 1
17601 15768 15775 un
17602 15767 15778 un
17603 15780 15779 un
17604 15781 15780 1
17605 15782 15781 un
17606 15778 15779 un
17607 15777 15782 un
17608 15784 15783 un
17609 15785 15784 1
17610 15786 15785 1
17611 15781 15783 un
17612 15780 15786 un
17613 15788 15787 un
17614 15789 15788 un
17615 15779 15789 un
17616 15786 15787 un
17617 15791 15790 un
17618 15792 15791 un
17619 15785 15792 un
17620 15787 15790 un
17621 15794 15793 un
17622 15788 15794 un
17623 15770 15789 un
17624 15769 15793 un
17625 15796 15795 un
17626 15794 15796 un
17627 15790 15795 un
17628 15798 15797 1
17629 15799 15798 1
17630 15800 15799 1
17631 15796 15797 1
17632 15795 15800 1
17633 15800 15801 2
17634 15655 15802 1
17635 15655 15803 1
17636 15656 15804 1
17637 15656 15805 1
17638 15657 15806 1
17639 15658 15807 1
17640 15659 15808 1
17641 15659 15809 1
17642 15661 15810 1
17643 15662 15811 1
17644 15663 15812 1
17645 15663 15813 1
17646 15664 15814 1
17647 15664 15815 1
17648 15666 15816 1
17649 15667 15817 1
17650 15668 15818 1
17651 15668 15819 1
17652 15672 15820 1
17653 15677 15821 1
17654 15677 15822 1
17655 15678 15823 1
17656 15678 15824 1
17657 15679 15825 1
17658 15679 15826 1
17659 15689 15827 1
17660 15689 15828 1
17661 15690 15829 1
17662 15691 15830 1
17663 15691 15831 1
17664 15692 15832 1
17665 15692 15833 1
17666 15695 15834 1
17667 15695 15835 1
17668 15696 15836 1
17669 15697 15837 1
17670 15697 15838 1
17671 15698 15839 1
17672 15698 15840 1
17673 15700 15841 1
17674 15704 15842 1
17675 15711 15843 1
17676 15717 15844 1
17677 15726 15845 1
17678 15727 15846 1
17679 15728 15847 1
17680 15729 15848 1
17681 15729 15849 1
17682 15730 15850 1
17683 15730 15851 1
17684 15731 15852 1
17685 15732 15853 1
17686 15733 15854 1
17687 15733 15855 1
17688 15734 15856 1
17689 15734 15857 1
17690 15735 15858 1
17691 15735 15859 1
17692 15736 15860 1
17693 15741 15861 1
17694 15742 15862 1
17695 15744 15863 1
17696 15744 15864 1
17697 15745 15865 1
17698 15745 15866 1
17699 15746 15867 1
17700 15746 15868 1
17701 15747 15869 1
17702 15747 15870 1
17703 15749 15871 1
17704 15752 15872 1
17705 15755 15873 1
17706 15759 15874 1
17707 15760 15875 1
17708 15762 15876 1
17709 15763 15877 1
17710 15763 15878 1
17711 15764 15879 1
17712 15764 15880 1
17713 15765 15881 1
17714 15765 15882 1
17715 15771 15883 1
17716 15772 15884 1
17717 15772 15885 1
17718 15772 15886 1
17719 15773 15887 1
17720 15773 15888 1
17721 15773 15889 1
17722 15774 15890 1
17723 15775 15891 1
17724 15776 15892 1
17725 15782 15893 1
17726 15783 15894 1
17727 15784 15895 1
17728 15791 15896 1
17729 15792 15897 1
17730 15793 15898 1
17731 15797 15899 1
17732 15797 15900 1
17733 15798 15901 1
17734 15798 15902 1
17735 15799 15903 1
17736 15799 15904 1
17737 15907 15906 1
17738 15908 15907 1
17739 15909 15908 1
17740 15910 15909 1
17741 15905 15906 1
17742 15905 15910 1
17743 15912 15911 1
17744 15913 15912 1
17745 15914 15913 1
17746 15908 15911 1
17747 15907 15914 1
17748 15916 15915 1
17749 15917 15916 1
17750 15918 15917 1
17751 15912 15915 1
17752 15911 15918 1
17753 15920 15919 un
17754 15921 15920 un
17755 15922 15921 un
17756 15917 15919 1
17757 15916 15922 1
17758 15924 15923 1
17759 15925 15924 un
17760 15926 15925 un
17761 15921 15923 un
17762 15920 15926 un
17763 15928 15927 1
17764 15929 15928 1
17765 15919 15929 1
17766 15926 15927 1
17767 15931 15930 1
17768 15932 15931 un
17769 15933 15932 un
17770 15925 15930 1
17771 15924 15933 un
17772 15935 15934 un
17773 15936 15935 2
17774 15922 15934 1
17775 15923 15936 un
17776 15938 15937 2
17777 15939 15938 1
17778 15940 15939 1
17779 15935 15937 1
17780 15934 15940 2
17781 15942 15941 1
17782 15943 15942 1
17783 15944 15943 2
17784 15938 15941 1
17785 15937 15944 1
17786 15946 15945 1
17787 15947 15946 1
17788 15948 15947 1
17789 15944 15945 1
17790 15943 15948 1
17791 15950 15949 un
17792 15936 15950 un
17793 15933 15949 un
17794 15952 15951 un
17795 15953 15952 1
17796 15949 15953 un
17797 15932 15951 un
17798 15955 15954 un
17799 15956 15955 un
17800 15957 15956 un
17801 15952 15954 un
17802 15951 15957 un
17803 15959 15958 un
17804 15960 15959 un
17805 15961 15960 un
17806 15956 15958 un
17807 15955 15961 un
17808 15963 15962 un
17809 15964 15963 un
17810 15965 15964 un
17811 15960 15962 un
17812 15959 15965 un
17813 15967 15966 un
17814 15931 15967 un
17815 15957 15966 un
17816 15969 15968 un
17817 15966 15969 un
17818 15958 15968 un
17819 15971 15970 un
17820 15968 15971 un
17821 15965 15970 un
17822 15973 15972 un
17823 15974 15973 un
17824 15970 15974 un
17825 15964 15972 un
17826 15976 15975 1
17827 15977 15976 1
17828 15978 15977 1
17829 15963 15975 1
17830 15962 15978 1
17831 15980 15979 1
17832 15981 15980 1
17833 15982 15981 1
17834 15977 15979 1
17835 15976 15982 1
17836 15984 15983 1
17837 15985 15984 1
17838 15986 15985 1
17839 15982 15983 1
17840 15981 15986 1
17841 15988 15987 un
17842 15989 15988 un
17843 15971 15989 un
17844 15969 15987 un
17845 15991 15990 1
17846 15992 15991 1
17847 15993 15992 1
17848 15988 15990 1
17849 15987 15993 1
17850 15995 15994 1
17851 15996 15995 1
17852 15997 15996 1
17853 15992 15994 1
17854 15991 15997 1
17855 15999 15998 un
17856 15989 15999 un
17857 15974 15998 un
17858 16001 16000 un
17859 16002 16001 un
17860 15998 16002 un
17861 15973 16000 un
17862 16004 16003 un
17863 16005 16004 un
17864 15972 16005 un
17865 16000 16003 un
17866 16007 16006 1
17867 16008 16007 un
17868 16001 16006 1
17869 16003 16008 1
17870 16010 16009 1
17871 16011 16010 1
17872 16004 16009 1
17873 16008 16011 un
17874 16013 16012 1
17875 16014 16013 1
17876 16015 16014 1
17877 16010 16012 1
17878 16009 16015 1
17879 16017 16016 1
17880 16018 16017 1
17881 16007 16018 un
17882 16011 16016 un
17883 16012 16019 1
17884 16016 16020 un
17885 16019 16020 un
17886 15946 16021 1
17887 16021 16022 1
17888 16021 16023 1
17889 15978 16024 1
17890 16026 16025 1
17891 16027 16026 un
17892 16028 16027 1
17893 16018 16025 un
17894 16017 16028 un
17895 16030 16029 un
17896 16031 16030 1
17897 16032 16031 un
17898 16028 16029 un
17899 16027 16032 un
17900 16034 16033 un
17901 16035 16034 1
17902 16036 16035 1
17903 16031 16033 un
17904 16030 16036 un
17905 16038 16037 un
17906 16039 16038 un
17907 16029 16039 un
17908 16036 16037 un
17909 16041 16040 un
17910 16042 16041 un
17911 16035 16042 un
17912 16037 16040 un
17913 16044 16043 un
17914 16038 16044 un
17915 16020 16039 un
17916 16019 16043 un
17917 16046 16045 un
17918 16044 16046 un
17919 16040 16045 un
17920 16048 16047 1
17921 16049 16048 1
17922 16050 16049 1
17923 16046 16047 1
17924 16045 16050 1
17925 16050 16051 2
17926 15905 16052 1
17927 15905 16053 1
17928 15906 16054 1
17929 15906 16055 1
17930 15907 16056 1
17931 15908 16057 1
17932 15909 16058 1
17933 15909 16059 1
17934 15911 16060 1
17935 15912 16061 1
17936 15913 16062 1
17937 15913 16063 1
17938 15914 16064 1
17939 15914 16065 1
17940 15916 16066 1
17941 15917 16067 1
17942 15918 16068 1
17943 15918 16069 1
17944 15922 16070 1
17945 15927 16071 1
17946 15927 16072 1
17947 15928 16073 1
17948 15928 16074 1
17949 15929 16075 1
17950 15929 16076 1
17951 15939 16077 1
17952 15939 16078 1
17953 15940 16079 1
17954 15941 16080 1
17955 15941 16081 1
17956 15942 16082 1
17957 15942 16083 1
17958 15945 16084 1
17959 15945 16085 1
17960 15946 16086 1
17961 15947 16087 1
17962 15947 16088 1
17963 15948 16089 1
17964 15948 16090 1
17965 15950 16091 1
17966 15954 16092 1
17967 15961 16093 1
17968 15967 16094 1
17969 15976 16095 1
17970 15977 16096 1
17971 15978 16097 1
17972 15979 16098 1
17973 15979 16099 1
17974 15980 16100 1
17975 15980 16101 1
17976 15981 16102 1
17977 15982 16103 1
17978 15983 16104 1
17979 15983 16105 1
17980 15984 16106 1
17981 15984 16107 1
17982 15985 16108 1
17983 15985 16109 1
17984 15986 16110 1
17985 15991 16111 1
17986 15992 16112 1
17987 15994 16113 1
17988 15994 16114 1
17989 15995 16115 1
17990 15995 16116 1
17991 15996 16117 1
17992 15996 16118 1
17993 15997 16119 1
17994 15997 16120 1
17995 15999 16121 1
17996 16002 16122 1
17997 16005 16123 1
17998 16009 16124 1
17999 16010 16125 1
18000 16012 16126 1
18001 16013 16127 1
18002 16013 16128 1
18003 16014 16129 1
18004 16014 16130 1
18005 16015 16131 1
18006 16015 16132 1
18007 16021 16133 1
18008 16022 16134 1
18009 16022 16135 1
18010 16022 16136 1
18011 16023 16137 1
18012 16023 16138 1
18013 16023 16139 1
18014 16024 16140 1
18015 16025 16141 1
18016 16026 16142 1
18017 16032 16143 1
18018 16033 16144 1
18019 16034 16145 1
18020 16041 16146 1
18021 16042 16147 1
18022 16043 16148 1
18023 16047 16149 1
18024 16047 16150 1
18025 16048 16151 1
18026 16048 16152 1
18027 16049 16153 1
18028 16049 16154 1
18029 16157 16156 1
18030 16158 16157 1
18031 16159 16158 1
18032 16160 16159 1
18033 16155 16156 1
18034 16155 16160 1
18035 16162 16161 1
18036 16163 16162 1
18037 16164 16163 1
18038 16158 16161 1
18039 16157 16164 1
18040 16166 16165 1
18041 16167 16166 1
18042 16168 16167 1
18043 16162 16165 1
18044 16161 16168 1
18045 16170 16169 un
18046 16171 16170 un
18047 16172 16171 un
18048 16167 16169 1
18049 16166 16172 1
18050 16174 16173 1
18051 16175 16174 un
18052 16176 16175 un
18053 16171 16173 un
18054 16170 16176 un
18055 16178 16177 1
18056 16179 16178 1
18057 16169 16179 1
18058 16176 16177 1
18059 16181 16180 1
18060 16182 16181 un
18061 16183 16182 un
18062 16175 16180 1
18063 16174 16183 un
18064 16185 16184 un
18065 16186 16185 2
18066 16172 16184 1
18067 16173 16186 un
18068 16188 16187 2
18069 16189 16188 1
18070 16190 16189 1
18071 16185 16187 1
18072 16184 16190 2
18073 16192 16191 1
18074 16193 16192 1
18075 16194 16193 2
18076 16188 16191 1
18077 16187 16194 1
18078 16196 16195 1
18079 16197 16196 1
18080 16198 16197 1
18081 16194 16195 1
18082 16193 16198 1
18083 16200 16199 un
18084 16186 16200 un
18085 16183 16199 un
18086 16202 16201 un
18087 16203 16202 1
18088 16199 16203 un
18089 16182 16201 un
18090 16205 16204 un
18091 16206 16205 un
18092 16207 16206 un
18093 16202 16204 un
18094 16201 16207 un
18095 16209 16208 un
18096 16210 16209 un
18097 16211 16210 un
18098 16206 16208 un
18099 16205 16211 un
18100 16213 16212 un
18101 16214 16213 un
18102 16215 16214 un
18103 16210 16212 un
18104 16209 16215 un
18105 16217 16216 un
18106 16181 16217 un
18107 16207 16216 un
18108 16219 16218 un
18109 16216 16219 un
18110 16208 16218 un
18111 16221 16220 un
18112 16218 16221 un
18113 16215 16220 un
18114 16223 16222 un
18115 16224 16223 un
18116 16220 16224 un
18117 16214 16222 un
18118 16226 16225 1
18119 16227 16226 1
18120 16228 16227 1
18121 16213 16225 1
18122 16212 16228 1
18123 16230 16229 1
18124 16231 16230 1
18125 16232 16231 1
18126 16227 16229 1
18127 16226 16232 1
18128 16234 16233 1
18129 16235 16234 1
18130 16236 16235 1
18131 16232 16233 1
18132 16231 16236 1
18133 16238 16237 un
18134 16239 16238 un
18135 16221 16239 un
18136 16219 16237 un
18137 16241 16240 1
18138 16242 16241 1
18139 16243 16242 1
18140 16238 16240 1
18141 16237 16243 1
18142 16245 16244 1
18143 16246 16245 1
18144 16247 16246 1
18145 16242 16244 1
18146 16241 16247 1
18147 16249 16248 un
18148 16239 16249 un
18149 16224 16248 un
18150 16251 16250 un
18151 16252 16251 un
18152 16248 16252 un
18153 16223 16250 un
18154 16254 16253 un
18155 16255 16254 un
18156 16222 16255 un
18157 16250 16253 un
18158 16257 16256 1
18159 16258 16257 un
18160 16251 16256 1
18161 16253 16258 1
18162 16260 16259 1
18163 16261 16260 1
18164 16254 16259 1
18165 16258 16261 un
18166 16263 16262 1
18167 16264 16263 1
18168 16265 16264 1
18169 16260 16262 1
18170 16259 16265 1
18171 16267 16266 1
18172 16268 16267 1
18173 16257 16268 un
18174 16261 16266 un
18175 16262 16269 1
18176 16266 16270 un
18177 16269 16270 un
18178 16196 16271 1
18179 16271 16272 1
18180 16271 16273 1
18181 16228 16274 1
18182 16276 16275 1
18183 16277 16276 un
18184 16278 16277 1
18185 16268 16275 un
18186 16267 16278 un
18187 16280 16279 un
18188 16281 16280 1
18189 16282 16281 un
18190 16278 16279 un
18191 16277 16282 un
18192 16284 16283 un
18193 16285 16284 1
18194 16286 16285 1
18195 16281 16283 un
18196 16280 16286 un
18197 16288 16287 un
18198 16289 16288 un
18199 16279 16289 un
18200 16286 16287 un
18201 16291 16290 un
18202 16292 16291 un
18203 16285 16292 un
18204 16287 16290 un
18205 16294 16293 un
18206 16288 16294 un
18207 16270 16289 un
18208 16269 16293 un
18209 16296 16295 un
18210 16294 16296 un
18211 16290 16295 un
18212 16298 16297 1
18213 16299 16298 1
18214 16300 16299 1
18215 16296 16297 1
18216 16295 16300 1
18217 16300 16301 2
18218 16155 16302 1
18219 16155 16303 1
18220 16156 16304 1
18221 16156 16305 1
18222 16157 16306 1
18223 16158 16307 1
18224 16159 16308 1
18225 16159 16309 1
18226 16161 16310 1
18227 16162 16311 1
18228 16163 16312 1
18229 16163 16313 1
18230 16164 16314 1
18231 16164 16315 1
18232 16166 16316 1
18233 16167 16317 1
18234 16168 16318 1
18235 16168 16319 1
18236 16172 16320 1
18237 16177 16321 1
18238 16177 16322 1
18239 16178 16323 1
18240 16178 16324 1
18241 16179 16325 1
18242 16179 16326 1
18243 16189 16327 1
18244 16189 16328 1
18245 16190 16329 1
18246 16191 16330 1
18247 16191 16331 1
18248 16192 16332 1
18249 16192 16333 1
18250 16195 16334 1
18251 16195 16335 1
18252 16196 16336 1
18253 16197 16337 1
18254 16197 16338 1
18255 16198 16339 1
18256 16198 16340 1
18257 16200 16341 1
18258 16204 16342 1
18259 16211 16343 1
18260 16217 16344 1
18261 16226 16345 1
18262 16227 16346 1
18263 16228 16347 1
18264 16229 16348 1
18265 16229 16349 1
18266 16230 16350 1
18267 16230 16351 1
18268 16231 16352 1
18269 16232 16353 1
18270 16233 16354 1
18271 16233 16355 1
18272 16234 16356 1
18273 16234 16357 1
18274 16235 16358 1
18275 16235 16359 1
18276 16236 16360 1
18277 16241 16361 1
18278 16242 16362 1
18279 16244 16363 1
18280 16244 16364 1
18281 16245 16365 1
18282 16245 16366 1
18283 16246 16367 1
18284 16246 16368 1
18285 16247 16369 1
18286 16247 16370 1
18287 16249 16371 1
18288 16252 16372 1
18289 16255 16373 1
18290 16259 16374 1
18291 16260 16375 1
18292 16262 16376 1
18293 16263 16377 1
18294 16263 16378 1
18295 16264 16379 1
18296 16264 16380 1
18297 16265 16381 1
18298 16265 16382 1
18299 16271 16383 1
18300 16272 16384 1
18301 16272 16385 1
18302 16272 16386 1
18303 16273 16387 1
18304 16273 16388 1
18305 16273 16389 1
18306 16274 16390 1
18307 16275 16391 1
18308 16276 16392 1
18309 16282 16393 1
18310 16283 16394 1
18311 16284 16395 1
18312 16291 16396 1
18313 16292 16397 1
18314 16293 16398 1
18315 16297 16399 1
18316 16297 16400 1
18317 16298 16401 1
18318 16298 16402 1
18319 16299 16403 1
18320 16299 16404 1
18321 16407 16406 1
18322 16408 16407 1
18323 16409 16408 1
18324 16410 16409 1
18325 16405 16406 1
18326 16405 16410 1
18327 16412 16411 1
18328 16413 16412 1
18329 16414 16413 1
18330 16408 16411 1
18331 16407 16414 1
18332 16416 16415 1
18333 16417 16416 1
18334 16418 16417 1
18335 16412 16415 1
18336 16411 16418 1
18337 16420 16419 un
18338 16421 16420 un
18339 16422 16421 un
18340 16417 16419 1
18341 16416 16422 1
18342 16424 16423 1
18343 16425 16424 un
18344 16426 16425 un
18345 16421 16423 un
18346 16420 16426 un
18347 16428 16427 1
18348 16429 16428 1
18349 16419 16429 1
18350 16426 16427 1
18351 16431 16430 1
18352 16432 16431 un
18353 16433 16432 un
18354 16425 16430 1
18355 16424 16433 un
18356 16435 16434 un
18357 16436 16435 2
18358 16422 16434 1
18359 16423 16436 un
18360 16438 16437 2
18361 16439 16438 1
18362 16440 16439 1
18363 16435 16437 1
18364 16434 16440 2
18365 16442 16441 1
18366 16443 16442 1
18367 16444 16443 2
18368 16438 16441 1
18369 16437 16444 1
18370 16446 16445 1
18371 16447 16446 1
18372 16448 16447 1
18373 16444 16445 1
18374 16443 16448 1
18375 16450 16449 un
18376 16436 16450 un
18377 16433 16449 un
18378 16452 16451 un
18379 16453 16452 1
18380 16449 16453 un
18381 16432 16451 un
18382 16455 16454 un
18383 16456 16455 un
18384 16457 16456 un
18385 16452 16454 un
18386 16451 16457 un
18387 16459 16458 un
18388 16460 16459 un
18389 16461 16460 un
18390 16456 16458 un
18391 16455 16461 un
18392 16463 16462 un
18393 16464 16463 un
18394 16465 16464 un
18395 16460 16462 un
18396 16459 16465 un
18397 16467 16466 un
18398 16431 16467 un
18399 16457 16466 un
18400 16469 16468 un
18401 16466 16469 un
18402 16458 16468 un
18403 16471 16470 un
18404 16468 16471 un
18405 16465 16470 un
18406 16473 16472 un
18407 16474 16473 un
18408 16470 16474 un
18409 16464 16472 un
18410 16476 16475 1
18411 16477 16476 1
18412 16478 16477 1
18413 16463 16475 1
18414 16462 16478 1
18415 16480 16479 1
18416 16481 16480 1
18417 16482 16481 1
18418 16477 16479 1
18419 16476 16482 1
18420 16484 16483 1
18421 16485 16484 1
18422 16486 16485 1
18423 16482 16483 1
18424 16481 16486 1
18425 16488 16487 un
18426 16489 16488 un
18427 16471 16489 un
18428 16469 16487 un
18429 16491 16490 1
18430 16492 16491 1
18431 16493 16492 1
18432 16488 16490 1
18433 16487 16493 1
18434 16495 16494 1
18435 16496 16495 1
18436 16497 16496 1
18437 16492 16494 1
18438 16491 16497 1
18439 16499 16498 un
18440 16489 16499 un
18441 16474 16498 un
18442 16501 16500 un
18443 16502 16501 un
18444 16498 16502 un
18445 16473 16500 un
18446 16504 16503 un
18447 16505 16504 un
18448 16472 16505 un
18449 16500 16503 un
18450 16507 16506 1
18451 16508 16507 un
18452 16501 16506 1
18453 16503 16508 1
18454 16510 16509 1
18455 16511 16510 1
18456 16504 16509 1
18457 16508 16511 un
18458 16513 16512 1
18459 16514 16513 1
18460 16515 16514 1
18461 16510 16512 1
18462 16509 16515 1
18463 16517 16516 1
18464 16518 16517 1
18465 16507 16518 un
18466 16511 16516 un
18467 16512 16519 1
18468 16516 16520 un
18469 16519 16520 un
18470 16446 16521 1
18471 16521 16522 1
18472 16521 16523 1
18473 16478 16524 1
18474 16526 16525 1
18475 16527 16526 un
18476 16528 16527 1
18477 16518 16525 un
18478 16517 16528 un
18479 16530 16529 un
18480 16531 16530 1
18481 16532 16531 un
18482 16528 16529 un
18483 16527 16532 un
18484 16534 16533 un
18485 16535 16534 1
18486 16536 16535 1
18487 16531 16533 un
18488 16530 16536 un
18489 16538 16537 un
18490 16539 16538 un
18491 16529 16539 un
18492 16536 16537 un
18493 16541 16540 un
18494 16542 16541 un
18495 16535 16542 un
18496 16537 16540 un
18497 16544 16543 un
18498 16538 16544 un
18499 16520 16539 un
18500 16519 16543 un
18501 16546 16545 un
18502 16544 16546 un
18503 16540 16545 un
18504 16548 16547 1
18505 16549 16548 1
18506 16550 16549 1
18507 16546 16547 1
18508 16545 16550 1
18509 16550 16551 2
18510 16405 16552 1
18511 16405 16553 1
18512 16406 16554 1
18513 16406 16555 1
18514 16407 16556 1
18515 16408 16557 1
18516 16409 16558 1
18517 16409 16559 1
18518 16411 16560 1
18519 16412 16561 1
18520 16413 16562 1
18521 16413 16563 1
18522 16414 16564 1
18523 16414 16565 1
18524 16416 16566 1
18525 16417 16567 1
18526 16418 16568 1
18527 16418 16569 1
18528 16422 16570 1
18529 16427 16571 1
18530 16427 16572 1
18531 16428 16573 1
18532 16428 16574 1
18533 16429 16575 1
18534 16429 16576 1
18535 16439 16577 1
18536 16439 16578 1
18537 16440 16579 1
18538 16441 16580 1
18539 16441 16581 1
18540 16442 16582 1
18541 16442 16583 1
18542 16445 16584 1
18543 16445 16585 1
18544 16446 16586 1
18545 16447 16587 1
18546 16447 16588 1
18547 16448 16589 1
18548 16448 16590 1
18549 16450 16591 1
18550 16454 16592 1
18551 16461 16593 1
18552 16467 16594 1
18553 16476 16595 1
18554 16477 16596 1
18555 16478 16597 1
18556 16479 16598 1
18557 16479 16599 1
18558 16480 16600 1
18559 16480 16601 1
18560 16481 16602 1
18561 16482 16603 1
18562 16483 16604 1
18563 16483 16605 1
18564 16484 16606 1
18565 16484 16607 1
18566 16485 16608 1
18567 16485 16609 1
18568 16486 16610 1
18569 16491 16611 1
18570 16492 16612 1
18571 16494 16613 1
18572 16494 16614 1
18573 16495 16615 1
18574 16495 16616 1
18575 16496 16617 1
18576 16496 16618 1
18577 16497 16619 1
18578 16497 16620 1
18579 16499 16621 1
18580 16502 16622 1
18581 16505 16623 1
18582 16509 16624 1
18583 16510 16625 1
18584 16512 16626 1
18585 16513 16627 1
18586 16513 16628 1
18587 16514 16629 1
18588 16514 16630 1
18589 16515 16631 1
18590 16515 16632 1
18591 16521 16633 1
18592 16522 16634 1
18593 16522 16635 1
18594 16522 16636 1
18595 16523 16637 1
18596 16523 16638 1
18597 16523 16639 1
18598 16524 16640 1
18599 16525 16641 1
18600 16526 16642 1
18601 16532 16643 1
18602 16533 16644 1
18603 16534 16645 1
18604 16541 16646 1
18605 16542 16647 1
18606 16543 16648 1
18607 16547 16649 1
18608 16547 16650 1
18609 16548 16651 1
18610 16548 16652 1
18611 16549 16653 1
18612 16549 16654 1
18613 16657 16656 1
18614 16658 16657 1
18615 16659 16658 1
18616 16660 16659 1
18617 16655 16656 1
18618 16655 16660 1
18619 16662 16661 1
18620 16663 16662 1
18621 16664 16663 1
18622 16658 16661 1
18623 16657 16664 1
18624 16666 16665 1
18625 16667 16666 1
18626 16668 16667 1
18627 16662 16665 1
18628 16661 16668 1
18629 16670 16669 un
18630 16671 16670 un
18631 16672 16671 un
18632 16667 16669 1
18633 16666 16672 1
18634 16674 16673 1
18635 16675 16674 un
18636 16676 16675 un
18637 16671 16673 un
18638 16670 16676 un
18639 16678 16677 1
18640 16679 16678 1
18641 16669 16679 1
18642 16676 16677 1
18643 16681 16680 1
18644 16682 16681 un
18645 16683 16682 un
18646 16675 16680 1
18647 16674 16683 un
18648 16685 16684 un
18649 16686 16685 2
18650 16672 16684 1
18651 16673 16686 un
18652 16688 16687 2
18653 16689 16688 1
18654 16690 16689 1
18655 16685 16687 1
18656 16684 16690 2
18657 16692 16691 1
18658 16693 16692 1
18659 16694 16693 2
18660 16688 16691 1
18661 16687 16694 1
18662 16696 16695 1
18663 16697 16696 1
18664 16698 16697 1
18665 16694 16695 1
18666 16693 16698 1
18667 16700 16699 un
18668 16686 16700 un
18669 16683 16699 un
18670 16702 16701 un
18671 16703 16702 1
18672 16699 16703 un
18673 16682 16701 un
18674 16705 16704 un
18675 16706 16705 un
18676 16707 16706 un
18677 16702 16704 un
18678 16701 16707 un
18679 16709 16708 un
18680 16710 16709 un
18681 16711 16710 un
18682 16706 16708 un
18683 16705 16711 un
18684 16713 16712 un
18685 16714 16713 un
18686 16715 16714 un
18687 16710 16712 un
18688 16709 16715 un
18689 16717 16716 un
18690 16681 16717 un
18691 16707 16716 un
18692 16719 16718 un
18693 16716 16719 un
18694 16708 16718 un
18695 16721 16720 un
18696 16718 16721 un
18697 16715 16720 un
18698 16723 16722 un
18699 16724 16723 un
18700 16720 16724 un
18701 16714 16722 un
18702 16726 16725 1
18703 16727 16726 1
18704 16728 16727 1
18705 16713 16725 1
18706 16712 16728 1
18707 16730 16729 1
18708 16731 16730 1
18709 16732 16731 1
18710 16727 16729 1
18711 16726 16732 1
18712 16734 16733 1
18713 16735 16734 1
18714 16736 16735 1
18715 16732 16733 1
18716 16731 16736 1
18717 16738 16737 un
18718 16739 16738 un
18719 16721 16739 un
18720 16719 16737 un
18721 16741 16740 1
18722 16742 16741 1
18723 16743 16742 1
18724 16738 16740 1
18725 16737 16743 1
18726 16745 16744 1
18727 16746 16745 1
18728 16747 16746 1
18729 16742 16744 1
18730 16741 16747 1
18731 16749 16748 un
18732 16739 16749 un
18733 16724 16748 un
18734 16751 16750 un
18735 16752 16751 un
18736 16748 16752 un
18737 16723 16750 un
18738 16754 16753 un
18739 16755 16754 un
18740 16722 16755 un
18741 16750 16753 un
18742 16757 16756 1
18743 16758 16757 un
18744 16751 16756 1
18745 16753 16758 1
18746 16760 16759 1
18747 16761 16760 1
18748 16754 16759 1
18749 16758 16761 un
18750 16763 16762 1
18751 16764 16763 1
18752 16765 16764 1
18753 16760 16762 1
18754 16759 16765 1
18755 16767 16766 1
18756 16768 16767 1
18757 16757 16768 un
18758 16761 16766 un
18759 16762 16769 1
18760 16766 16770 un
18761 16769 16770 un
18762 16696 16771 1
18763 16771 16772 1
18764 16771 16773 1
18765 16728 16774 1
18766 16776 16775 1
18767 16777 16776 un
18768 16778 16777 1
18769 16768 16775 un
18770 16767 16778 un
18771 16780 16779 un
18772 16781 16780 1
18773 16782 16781 un
18774 16778 16779 un
18775 16777 16782 un
18776 16784 16783 un
18777 16785 16784 1
18778 16786 16785 1
18779 16781 16783 un
18780 16780 16786 un
18781 16788 16787 un
18782 16789 16788 un
18783 16779 16789 un
18784 16786 16787 un
18785 16791 16790 un
18786 16792 16791 un
18787 16785 16792 un
18788 16787 16790 un
18789 16794 16793 un
18790 16788 16794 un
18791 16770 16789 un
18792 16769 16793 un
18793 16796 16795 un
18794 16794 16796 un
18795 16790 16795 un
18796 16798 16797 1
18797 16799 16798 1
18798 16800 16799 1
18799 16796 16797 1
18800 16795 16800 1
18801 16800 16801 2
18802 16655 16802 1
18803 16655 16803 1
18804 16656 16804 1
18805 16656 16805 1
18806 16657 16806 1
18807 16658 16807 1
18808 16659 16808 1
18809 16659 16809 1
18810 16661 16810 1
18811 16662 16811 1
18812 16663 16812 1
18813 16663 16813 1
18814 16664 16814 1
18815 16664 16815 1
18816 16666 16816 1
18817 16667 16817 1
18818 16668 16818 1
18819 16668 16819 1
18820 16672 16820 1
18821 16677 16821 1
18822 16677 16822 1
18823 16678 16823 1
18824 16678 16824 1
18825 16679 16825 1
18826 16679 16826 1
18827 16689 16827 1
18828 16689 16828 1
18829 16690 16829 1
18830 16691 16830 1
18831 16691 16831 1
18832 16692 16832 1
18833 16692 16833 1
18834 16695 16834 1
18835 16695 16835 1
18836 16696 16836 1
18837 16697 16837 1
18838 16697 16838 1
18839 16698 16839 1
18840 16698 16840 1
18841 16700 16841 1
18842 16704 16842 1
18843 16711 16843 1
18844 16717 16844 1
18845 16726 16845 1
18846 16727 16846 1
18847 16728 16847 1
18848 16729 16848 1
18849 16729 16849 1
18850 16730 16850 1
18851 16730 16851 1
18852 16731 16852 1
18853 16732 16853 1
18854 16733 16854 1
18855 16733 16855 1
18856 16734 16856 1
18857 16734 16857 1
18858 16735 16858 1
18859 16735 16859 1
18860 16736 16860 1
18861 16741 16861 1
18862 16742 16862 1
18863 16744 16863 1
18864 16744 16864 1
18865 16745 16865 1
18866 16745 16866 1
18867 16746 16867 1
18868 16746 16868 1
18869 16747 16869 1
18870 16747 16870 1
18871 16749 16871 1
18872 16752 16872 1
18873 16755 16873 1
18874 16759 16874 1
18875 16760 16875 1
18876 16762 16876 1
18877 16763 16877 1
18878 16763 16878 1
18879 16764 16879 1
18880 16764 16880 1
18881 16765 16881 1
18882 16765 16882 1
18883 16771 16883 1
18884 16772 16884 1
18885 16772 16885 1
18886 16772 16886 1
18887 16773 16887 1
18888 16773 16888 1
18889 16773 16889 1
18890 16774 16890 1
18891 16775 16891 1
18892 16776 16892 1
18893 16782 16893 1
18894 16783 16894 1
18895 16784 16895 1
18896 16791 16896 1
18897 16792 16897 1
18898 16793 16898 1
18899 16797 16899 1
18900 16797 16900 1
18901 16798 16901 1
18902 16798 16902 1
18903 16799 16903 1
18904 16799 16904 1
18905 16907 16906 1
18906 16908 16907 1
18907 16909 16908 1
18908 16910 16909 1
18909 16905 16906 1
18910 16905 16910 1
18911 16912 16911 1
18912 16913 16912 1
18913 16914 16913 1
18914 16908 16911 1
18915 16907 16914 1
18916 16916 16915 1
18917 16917 16916 1
18918 16918 16917 1
18919 16912 16915 1
18920 16911 16918 1
18921 16920 16919 un
18922 16921 16920 un
18923 16922 16921 un
18924 16917 16919 1
18925 16916 16922 1
18926 16924 16923 1
18927 16925 16924 un
18928 16926 16925 un
18929 16921 16923 un
18930 16920 16926 un
18931 16928 16927 1
18932 16929 16928 1
18933 16919 16929 1
18934 16926 16927 1
18935 16931 16930 1
18936 16932 16931 un
18937 16933 16932 un
18938 16925 16930 1
18939 16924 16933 un
18940 16935 16934 un
18941 16936 16935 2
18942 16922 16934 1
18943 16923 16936 un
18944 16938 16937 2
18945 16939 16938 1
18946 16940 16939 1
18947 16935 16937 1
18948 16934 16940 2
18949 16942 16941 1
18950 16943 16942 1
18951 16944 16943 2
18952 16938 16941 1
18953 16937 16944 1
18954 16946 16945 1
18955 16947 16946 1
18956 16948 16947 1
18957 16944 16945 1
18958 16943 16948 1
18959 16950 16949 un
18960 16936 16950 un
18961 16933 16949 un
18962 16952 16951 un
18963 16953 16952 1
18964 16949 16953 un
18965 16932 16951 un
18966 16955 16954 un
18967 16956 16955 un
18968 16957 16956 un
18969 16952 16954 un
18970 16951 16957 un
18971 16959 16958 un
18972 16960 16959 un
18973 16961 16960 un
18974 16956 16958 un
18975 16955 16961 un
18976 16963 16962 un
18977 16964 16963 un
18978 16965 16964 un
18979 16960 16962 un
18980 16959 16965 un
18981 16967 16966 un
18982 16931 16967 un
18983 16957 16966 un
18984 16969 16968 un
18985 16966 16969 un
18986 16958 16968 un
18987 16971 16970 un
18988 16968 16971 un
18989 16965 16970 un
18990 16973 16972 un
18991 16974 16973 un
18992 16970 16974 un
18993 16964 16972 un
18994 16976 16975 1
18995 16977 16976 1
18996 16978 16977 1
18997 16963 16975 1
18998 16962 16978 1
18999 16980 16979 1
19000 16981 16980 1
19001 16982 16981 1
19002 16977 16979 1
19003 16976 16982 1
19004 16984 16983 1
19005 16985 16984 1
19006 16986 16985 1
19007 16982 16983 1
19008 16981 16986 1
19009 16988 16987 un
19010 16989 16988 un
19011 16971 16989 un
19012 16969 16987 un
19013 16991 16990 1
19014 16992 16991 1
19015 16993 16992 1
19016 16988 16990 1
19017 16987 16993 1
19018 16995 16994 1
19019 16996 16995 1
19020 16997 16996 1
19021 16992 16994 1
19022 16991 16997 1
19023 16999 16998 un
19024 16989 16999 un
19025 16974 16998 un
19026 17001 17000 un
19027 17002 17001 un
19028 16998 17002 un
19029 16973 17000 un
19030 17004 17003 un
19031 17005 17004 un
19032 16972 17005 un
19033 17000 17003 un
19034 17007 17006 1
19035 17008 17007 un
19036 17001 17006 1
19037 17003 17008 1
19038 17010 17009 1
19039 17011 17010 1
19040 17004 17009 1
19041 17008 17011 un
19042 17013 17012 1
19043 17014 17013 1
19044 17015 17014 1
19045 17010 17012 1
19046 17009 17015 1
19047 17017 17016 1
19048 17018 17017 1
19049 17007 17018 un
19050 17011 17016 un
19051 17012 17019 1
19052 17016 17020 un
19053 17019 17020 un
19054 16946 17021 1
19055 17021 17022 1
19056 17021 17023 1
19057 16978 17024 1
19058 17026 17025 1
19059 17027 17026 un
19060 17028 17027 1
19061 17018 17025 un
19062 17017 17028 un
19063 17030 17029 un
19064 17031 17030 1
19065 17032 17031 un
19066 17028 17029 un
19067 17027 17032 un
19068 17034 17033 un
19069 17035 17034 1
19070 17036 17035 1
19071 17031 17033 un
19072 17030 17036 un
19073 17038 17037 un
19074 17039 17038 un
19075 17029 17039 un
19076 17036 17037 un
19077 17041 17040 un
19078 17042 17041 un
19079 17035 17042 un
19080 17037 17040 un
19081 17044 17043 un
19082 17038 17044 un
19083 17020 17039 un
19084 17019 17043 un
19085 17046 17045 un
19086 17044 17046 un
19087 17040 17045 un
19088 17048 17047 1
19089 17049 17048 1
19090 17050 17049 1
19091 17046 17047 1
19092 17045 17050 1
19093 17050 17051 2
19094 16905 17052 1
19095 16905 17053 1
19096 16906 17054 1
19097 16906 17055 1
19098 16907 17056 1
19099 16908 17057 1
19100 16909 17058 1
19101 16909 17059 1
19102 16911 17060 1
19103 16912 17061 1
19104 16913 17062 1
19105 16913 17063 1
19106 16914 17064 1
19107 16914 17065 1
19108 16916 17066 1
19109 16917 17067 1
19110 16918 17068 1
19111 16918 17069 1
19112 16922 17070 1
19113 16927 17071 1
19114 16927 17072 1
19115 16928 17073 1
19116 16928 17074 1
19117 16929 17075 1
19118 16929 17076 1
19119 16939 17077 1
19120 16939 17078 1
19121 16940 17079 1
19122 16941 17080 1
19123 16941 17081 1
19124 16942 17082 1
19125 16942 17083 1
19126 16945 17084 1
19127 16945 17085 1
19128 16946 17086 1
19129 16947 17087 1
19130 16947 17088 1
19131 16948 17089 1
19132 16948 17090 1
19133 16950 17091 1
19134 16954 17092 1
19135 16961 17093 1
19136 16967 17094 1
19137 16976 17095 1
19138 16977 17096 1
19139 16978 17097 1
19140 16979 17098 1
19141 16979 17099 1
19142 16980 17100 1
19143 16980 17101 1
19144 16981 17102 1
19145 16982 17103 1
19146 16983 17104 1
19147 16983 17105 1
19148 16984 17106 1
19149 16984 17107 1
19150 16985 17108 1
19151 16985 17109 1
19152 16986 17110 1
19153 16991 17111 1
19154 16992 17112 1
19155 16994 17113 1
19156 16994 17114 1
19157 16995 17115 1
19158 16995 17116 1
19159 16996 17117 1
19160 16996 17118 1
19161 16997 17119 1
19162 16997 17120 1
19163 16999 17121 1
19164 17002 17122 1
19165 17005 17123 1
19166 17009 17124 1
19167 17010 17125 1
19168 17012 17126 1
19169 17013 17127 1
19170 17013 17128 1
19171 17014 17129 1
19172 17014 17130 1
19173 17015 17131 1
19174 17015 17132 1
19175 17021 17133 1
19176 17022 17134 1
19177 17022 17135 1
19178 17022 17136 1
19179 17023 17137 1
19180 17023 17138 1
19181 17023 17139 1
19182 17024 17140 1
19183 17025 17141 1
19184 17026 17142 1
19185 17032 17143 1
19186 17033 17144 1
19187 17034 17145 1
19188 17041 17146 1
19189 17042 17147 1
19190 17043 17148 1
19191 17047 17149 1
19192 17047 17150 1
19193 17048 17151 1
19194 17048 17152 1
19195 17049 17153 1
19196 17049 17154 1
19197 17157 17156 1
19198 17158 17157 1
19199 17159 17158 1
19200 17160 17159 1
19201 17155 17156 1
19202 17155 17160 1
19203 17162 17161 1
19204 17163 17162 1
19205 17164 17163 1
19206 17158 17161 1
19207 17157 17164 1
19208 17166 17165 1
19209 17167 17166 1
19210 17168 17167 1
19211 17162 17165 1
19212 17161 17168 1
19213 17170 17169 un
19214 17171 17170 un
19215 17172 17171 un
19216 17167 17169 1
19217 17166 17172 1
19218 17174 17173 1
19219 17175 17174 un
19220 17176 17175 un
19221 17171 17173 un
19222 17170 17176 un
19223 17178 17177 1
19224 17179 17178 1
19225 17169 17179 1
19226 17176 17177 1
19227 17181 17180 1
19228 17182 17181 un
19229 17183 17182 un
19230 17175 17180 1
19231 17174 17183 un
19232 17185 17184 un
19233 17186 17185 2
19234 17172 17184 1
19235 17173 17186 un
19236 17188 17187 2
19237 17189 17188 1
19238 17190 17189 1
19239 17185 17187 1
19240 17184 17190 2
19241 17192 17191 1
19242 17193 17192 1
19243 17194 17193 2
19244 17188 17191 1
19245 17187 17194 1
19246 17196 17195 1
19247 17197 17196 1
19248 17198 17197 1
19249 17194 17195 1
19250 17193 17198 1
19251 17200 17199 un
19252 17186 17200 un
19253 17183 17199 un
19254 17202 17201 un
19255 17203 17202 1
19256 17199 17203 un
19257 17182 17201 un
19258 17205 17204 un
19259 17206 17205 un
19260 17207 17206 un
19261 17202 17204 un
19262 17201 17207 un
19263 17209 17208 un
19264 17210 17209 un
19265 17211 17210 un
19266 17206 17208 un
19267 17205 17211 un
19268 17213 17212 un
19269 17214 17213 un
19270 17215 17214 un
19271 17210 17212 un
19272 17209 17215 un
19273 17217 17216 un
19274 17181 17217 un
19275 17207 17216 un
19276 17219 17218 un
19277 17216 17219 un
19278 17208 17218 un
19279 17221 17220 un
19280 17218 17221 un
19281 17215 17220 un
19282 17223 17222 un
19283 17224 17223 un
19284 17220 17224 un
19285 17214 17222 un
19286 17226 17225 1
19287 17227 17226 1
19288 17228 17227 1
19289 17213 17225 1
19290 17212 17228 1
19291 17230 17229 1
19292 17231 17230 1
19293 17232 17231 1
19294 17227 17229 1
19295 17226 17232 1
19296 17234 17233 1
19297 17235 17234 1
19298 17236 17235 1
19299 17232 17233 1
19300 17231 17236 1
19301 17238 17237 un
19302 17239 17238 un
19303 17221 17239 un
19304 17219 17237 un
19305 17241 17240 1
19306 17242 17241 1
19307 17243 17242 1
19308 17238 17240 1
19309 17237 17243 1
19310 17245 17244 1
19311 17246 17245 1
19312 17247 17246 1
19313 17242 17244 1
19314 17241 17247 1
19315 17249 17248 un
19316 17239 17249 un
19317 17224 17248 un
19318 17251 17250 un
19319 17252 17251 un
19320 17248 17252 un
19321 17223 17250 un
19322 17254 17253 un
19323 17255 17254 un
19324 17222 17255 un
19325 17250 17253 un
19326 17257 17256 1
19327 17258 17257 un
19328 17251 17256 1
19329 17253 17258 1
19330 17260 17259 1
19331 17261 17260 1
19332 17254 17259 1
19333 17258 17261 un
19334 17263 17262 1
19335 17264 17263 1
19336 17265 17264 1
19337 17260 17262 1
19338 17259 17265 1
19339 17267 17266 1
19340 17268 17267 1
19341 17257 17268 un
19342 17261 17266 un
19343 17262 17269 1
19344 17266 17270 un
19345 17269 17270 un
19346 17196 17271 1
19347 17271 17272 1
19348 17271 17273 1
19349 17228 17274 1
19350 17276 17275 1
19351 17277 17276 un
19352 17278 17277 1
19353 17268 17275 un
19354 17267 17278 un
19355 17280 17279 un
19356 17281 17280 1
19357 17282 17281 un
19358 17278 17279 un
19359 17277 17282 un
19360 17284 17283 un
19361 17285 17284 1
19362 17286 17285 1
19363 17281 17283 un
19364 17280 17286 un
19365 17288 17287 un
19366 17289 17288 un
19367 17279 17289 un
19368 17286 17287 un
19369 17291 17290 un
19370 17292 17291 un
19371 17285 17292 un
19372 17287 17290 un
19373 17294 17293 un
19374 17288 17294 un
19375 17270 17289 un
19376 17269 17293 un
19377 17296 17295 un
19378 17294 17296 un
19379 17290 17295 un
19380 17298 17297 1
19381 17299 17298 1
19382 17300 17299 1
19383 17296 17297 1
19384 17295 17300 1
19385 17300 17301 2
19386 17155 17302 1
19387 17155 17303 1
19388 17156 17304 1
19389 17156 17305 1
19390 17157 17306 1
19391 17158 17307 1
19392 17159 17308 1
19393 17159 17309 1
19394 17161 17310 1
19395 17162 17311 1
19396 17163 17312 1
19397 17163 17313 1
19398 17164 17314 1
19399 17164 17315 1
19400 17166 17316 1
19401 17167 17317 1
19402 17168 17318 1
19403 17168 17319 1
19404 17172 17320 1
19405 17177 17321 1
19406 17177 17322 1
19407 17178 17323 1
19408 17178 17324 1
19409 17179 17325 1
19410 17179 17326 1
19411 17189 17327 1
19412 17189 17328 1
19413 17190 17329 1
19414 17191 17330 1
19415 17191 17331 1
19416 17192 17332 1
19417 17192 17333 1
19418 17195 17334 1
19419 17195 17335 1
19420 17196 17336 1
19421 17197 17337 1
19422 17197 17338 1
19423 17198 17339 1
19424 17198 17340 1
19425 17200 17341 1
19426 17204 17342 1
19427 17211 17343 1
19428 17217 17344 1
19429 17226 17345 1
19430 17227 17346 1
19431 17228 17347 1
19432 17229 17348 1
19433 17229 17349 1
19434 17230 17350 1
19435 17230 17351 1
19436 17231 17352 1
19437 17232 17353 1
19438 17233 17354 1
19439 17233 17355 1
19440 17234 17356 1
19441 17234 17357 1
19442 17235 17358 1
19443 17235 17359 1
19444 17236 17360 1
19445 17241 17361 1
19446 17242 17362 1
19447 17244 17363 1
19448 17244 17364 1
19449 17245 17365 1
19450 17245 17366 1
19451 17246 17367 1
19452 17246 17368 1
19453 17247 17369 1
19454 17247 17370 1
19455 17249 17371 1
19456 17252 17372 1
19457 17255 17373 1
19458 17259 17374 1
19459 17260 17375 1
19460 17262 17376 1
19461 17263 17377 1
19462 17263 17378 1
19463 17264 17379 1
19464 17264 17380 1
19465 17265 17381 1
19466 17265 17382 1
19467 17271 17383 1
19468 17272 17384 1
19469 17272 17385 1
19470 17272 17386 1
19471 17273 17387 1
19472 17273 17388 1
19473 17273 17389 1
19474 17274 17390 1
19475 17275 17391 1
19476 17276 17392 1
19477 17282 17393 1
19478 17283 17394 1
19479 17284 17395 1
19480 17291 17396 1
19481 17292 17397 1
19482 17293 17398 1
19483 17297 17399 1
19484 17297 17400 1
19485 17298 17401 1
19486 17298 17402 1
19487 17299 17403 1
19488 17299 17404 1
19489 17407 17406 1
19490 17408 17407 1
19491 17409 17408 1
19492 17410 17409 1
19493 17405 17406 1
19494 17405 17410 1
19495 17412 17411 1
19496 17413 17412 1
19497 17414 17413 1
19498 17408 17411 1
19499 17407 17414 1
19500 17416 17415 1
19501 17417 17416 1
19502 17418 17417 1
19503 17412 17415 1
19504 17411 17418 1
19505 17420 17419 un
19506 17421 17420 un
19507 17422 17421 un
19508 17417 17419 1
19509 17416 17422 1
19510 17424 17423 1
19511 17425 17424 un
19512 17426 17425 un
19513 17421 17423 un
19514 17420 17426 un
19515 17428 17427 1
19516 17429 17428 1
19517 17419 17429 1
19518 17426 17427 1
19519 17431 17430 1
19520 17432 17431 un
19521 17433 17432 un
19522 17425 17430 1
19523 17424 17433 un
19524 17435 17434 un
19525 17436 17435 2
19526 17422 17434 1
19527 17423 17436 un
19528 17438 17437 2
19529 17439 17438 1
19530 17440 17439 1
19531 17435 17437 1
19532 17434 17440 2
19533 17442 17441 1
19534 17443 17442 1
19535 17444 17443 2
19536 17438 17441 1
19537 17437 17444 1
19538 17446 17445 1
19539 17447 17446 1
19540 17448 17447 1
19541 17444 17445 1
19542 17443 17448 1
19543 17450 17449 un
19544 17436 17450 un
19545 17433 17449 un
19546 17452 17451 un
19547 17453 17452 1
19548 17449 17453 un
19549 17432 17451 un
19550 17455 17454 un
19551 17456 17455 un
19552 17457 17456 un
19553 17452 17454 un
19554 17451 17457 un
19555 17459 17458 un
19556 17460 17459 un
19557 17461 17460 un
19558 17456 17458 un
19559 17455 17461 un
19560 17463 17462 un
19561 17464 17463 un
19562 17465 17464 un
19563 17460 17462 un
19564 17459 17465 un
19565 17467 17466 un
19566 17431 17467 un
19567 17457 17466 un
19568 17469 17468 un
19569 17466 17469 un
19570 17458 17468 un
19571 17471 17470 un
19572 17468 17471 un
19573 17465 17470 un
19574 17473 17472 un
19575 17474 17473 un
19576 17470 17474 un
19577 17464 17472 un
19578 17476 17475 1
19579 17477 17476 1
19580 17478 17477 1
19581 17463 17475 1
19582 17462 17478 1
19583 17480 17479 1
19584 17481 17480 1
19585 17482 17481 1
19586 17477 17479 1
19587 17476 17482 1
19588 17484 17483 1
19589 17485 17484 1
19590 17486 17485 1
19591 17482 17483 1
19592 17481 17486 1
19593 17488 17487 un
19594 17489 17488 un
19595 17471 17489 un
19596 17469 17487 un
19597 17491 17490 1
19598 17492 17491 1
19599 17493 17492 1
19600 17488 17490 1
19601 17487 17493 1
19602 17495 17494 1
19603 17496 17495 1
19604 17497 17496 1
19605 17492 17494 1
19606 17491 17497 1
19607 17499 17498 un
19608 17489 17499 un
19609 17474 17498 un
19610 17501 17500 un
19611 17502 17501 un
19612 17498 17502 un
19613 17473 17500 un
19614 17504 17503 un
19615 17505 17504 un
19616 17472 17505 un
19617 17500 17503 un
19618 17507 17506 1
19619 17508 17507 un
19620 17501 17506 1
19621 17503 17508 1
19622 17510 17509 1
19623 17511 17510 1
19624 17504 17509 1
19625 17508 17511 un
19626 17513 17512 1
19627 17514 17513 1
19628 17515 17514 1
19629 17510 17512 1
19630 17509 17515 1
19631 17517 17516 1
19632 17518 17517 1
19633 17507 17518 un
19634 17511 17516 un
19635 17512 17519 1
19636 17516 17520 un
19637 17519 17520 un
19638 17446 17521 1
19639 17521 17522 1
19640 17521 17523 1
19641 17478 17524 1
19642 17526 17525 1
19643 17527 17526 un
19644 17528 17527 1
19645 17518 17525 un
19646 17517 17528 un
19647 17530 17529 un
19648 17531 17530 1
19649 17532 17531 un
19650 17528 17529 un
19651 17527 17532 un
19652 17534 17533 un
19653 17535 17534 1
19654 17536 17535 1
19655 17531 17533 un
19656 17530 17536 un
19657 17538 17537 un
19658 17539 17538 un
19659 17529 17539 un
19660 17536 17537 un
19661 17541 17540 un
19662 17542 17541 un
19663 17535 17542 un
19664 17537 17540 un
19665 17544 17543 un
19666 17538 17544 un
19667 17520 17539 un
19668 17519 17543 un
19669 17546 17545 un
19670 17544 17546 un
19671 17540 17545 un
19672 17548 17547 1
19673 17549 17548 1
19674 17550 17549 1
19675 17546 17547 1
19676 17545 17550 1
19677 17550 17551 2
19678 17405 17552 1
19679 17405 17553 1
19680 17406 17554 1
19681 17406 17555 1
19682 17407 17556 1
19683 17408 17557 1
19684 17409 17558 1
19685 17409 17559 1
19686 17411 17560 1
19687 17412 17561 1
19688 17413 17562 1
19689 17413 17563 1
19690 17414 17564 1
19691 17414 17565 1
19692 17416 17566 1
19693 17417 17567 1
19694 17418 17568 1
19695 17418 17569 1
19696 17422 17570 1
19697 17427 17571 1
19698 17427 17572 1
19699 17428 17573 1
19700 17428 17574 1
19701 17429 17575 1
19702 17429 17576 1
19703 17439 17577 1
19704 17439 17578 1
19705 17440 17579 1
19706 17441 17580 1
19707 17441 17581 1
19708 17442 17582 1
19709 17442 17583 1
19710 17445 17584 1
19711 17445 17585 1
19712 17446 17586 1
19713 17447 17587 1
19714 17447 17588 1
19715 17448 17589 1
19716 17448 17590 1
19717 17450 17591 1
19718 17454 17592 1
19719 17461 17593 1
19720 17467 17594 1
19721 17476 17595 1
19722 17477 17596 1
19723 17478 17597 1
19724 17479 17598 1
19725 17479 17599 1
19726 17480 17600 1
19727 17480 17601 1
19728 17481 17602 1
19729 17482 17603 1
19730 17483 17604 1
19731 17483 17605 1
19732 17484 17606 1
19733 17484 17607 1
19734 17485 17608 1
19735 17485 17609 1
19736 17486 17610 1
19737 17491 17611 1
19738 17492 17612 1
19739 17494 17613 1
19740 17494 17614 1
19741 17495 17615 1
19742 17495 17616 1
19743 17496 17617 1
19744 17496 17618 1
19745 17497 17619 1
19746 17497 17620 1
19747 17499 17621 1
19748 17502 17622 1
19749 17505 17623 1
19750 17509 17624 1
19751 17510 17625 1
19752 17512 17626 1
19753 17513 17627 1
19754 17513 17628 1
19755 17514 17629 1
19756 17514 17630 1
19757 17515 17631 1
19758 17515 17632 1
19759 17521 17633 1
19760 17522 17634 1
19761 17522 17635 1
19762 17522 17636 1
19763 17523 17637 1
19764 17523 17638 1
19765 17523 17639 1
19766 17524 17640 1
19767 17525 17641 1
19768 17526 17642 1
19769 17532 17643 1
19770 17533 17644 1
19771 17534 17645 1
19772 17541 17646 1
19773 17542 17647 1
19774 17543 17648 1
19775 17547 17649 1
19776 17547 17650 1
19777 17548 17651 1
19778 17548 17652 1
19779 17549 17653 1
19780 17549 17654 1
19781 17657 17656 1
19782 17658 17657 1
19783 17659 17658 1
19784 17660 17659 1
19785 17655 17656 1
19786 17655 17660 1
19787 17662 17661 1
19788 17663 17662 1
19789 17664 17663 1
19790 17658 17661 1
19791 17657 17664 1
19792 17666 17665 1
19793 17667 17666 1
19794 17668 17667 1
19795 17662 17665 1
19796 17661 17668 1
19797 17670 17669 un
19798 17671 17670 un
19799 17672 17671 un
19800 17667 17669 1
19801 17666 17672 1
19802 17674 17673 1
19803 17675 17674 un
19804 17676 17675 un
19805 17671 17673 un
19806 17670 17676 un
19807 17678 17677 1
19808 17679 17678 1
19809 17669 17679 1
19810 17676 17677 1
19811 17681 17680 1
19812 17682 17681 un
19813 17683 17682 un
19814 17675 17680 1
19815 17674 17683 un
19816 17685 17684 un
19817 17686 17685 2
19818 17672 17684 1
19819 17673 17686 un
19820 17688 17687 2
19821 17689 17688 1
19822 17690 17689 1
19823 17685 17687 1
19824 17684 17690 2
19825 17692 17691 1
19826 17693 17692 1
19827 17694 17693 2
19828 17688 17691 1
19829 17687 17694 1
19830 17696 17695 1
19831 17697 17696 1
19832 17698 17697 1
19833 17694 17695 1
19834 17693 17698 1
19835 17700 17699 un
19836 17686 17700 un
19837 17683 17699 un
19838 17702 17701 un
19839 17703 17702 1
19840 17699 17703 un
19841 17682 17701 un
19842 17705 17704 un
19843 17706 17705 un
19844 17707 17706 un
19845 17702 17704 un
19846 17701 17707 un
19847 17709 17708 un
19848 17710 17709 un
19849 17711 17710 un
19850 17706 17708 un
19851 17705 17711 un
19852 17713 17712 un
19853 17714 17713 un
19854 17715 17714 un
19855 17710 17712 un
19856 17709 17715 un
19857 17717 17716 un
19858 17681 17717 un
19859 17707 17716 un
19860 17719 17718 un
19861 17716 17719 un
19862 17708 17718 un
19863 17721 17720 un
19864 17718 17721 un
19865 17715 17720 un
19866 17723 17722 un
19867 17724 17723 un
19868 17720 17724 un
19869 17714 17722 un
19870 17726 17725 1
19871 17727 17726 1
19872 17728 17727 1
19873 17713 17725 1
19874 17712 17728 1
19875 17730 17729 1
19876 17731 17730 1
19877 17732 17731 1
19878 17727 17729 1
19879 17726 17732 1
19880 17734 17733 1
19881 17735 17734 1
19882 17736 17735 1
19883 17732 17733 1
19884 17731 17736 1
19885 17738 17737 un
19886 17739 17738 un
19887 17721 17739 un
19888 17719 17737 un
19889 17741 17740 1
19890 17742 17741 1
19891 17743 17742 1
19892 17738 17740 1
19893 17737 17743 1
19894 17745 17744 1
19895 17746 17745 1
19896 17747 17746 1
19897 17742 17744 1
19898 17741 17747 1
19899 17749 17748 un
19900 17739 17749 un
19901 17724 17748 un
19902 17751 17750 un
19903 17752 17751 un
19904 17748 17752 un
19905 17723 17750 un
19906 17754 17753 un
19907 17755 17754 un
19908 17722 17755 un
19909 17750 17753 un
19910 17757 17756 1
19911 17758 17757 un
19912 17751 17756 1
19913 17753 17758 1
19914 17760 17759 1
19915 17761 17760 1
19916 17754 17759 1
19917 17758 17761 un
19918 17763 17762 1
19919 17764 17763 1
19920 17765 17764 1
19921 17760 17762 1
19922 17759 17765 1
19923 17767 17766 1
19924 17768 17767 1
19925 17757 17768 un
19926 17761 17766 un
19927 17762 17769 1
19928 17766 17770 un
19929 17769 17770 un
19930 17696 17771 1
19931 17771 17772 1
19932 17771 17773 1
19933 17728 17774 1
19934 17776 17775 1
19935 17777 17776 un
19936 17778 17777 1
19937 17768 17775 un
19938 17767 17778 un
19939 17780 17779 un
19940 17781 17780 1
19941 17782 17781 un
19942 17778 17779 un
19943 17777 17782 un
19944 17784 17783 un
19945 17785 17784 1
19946 17786 17785 1
19947 17781 17783 un
19948 17780 17786 un
19949 17788 17787 un
19950 17789 17788 un
19951 17779 17789 un
19952 17786 17787 un
19953 17791 17790 un
19954 17792 17791 un
19955 17785 17792 un
19956 17787 17790 un
19957 17794 17793 un
19958 17788 17794 un
19959 17770 17789 un
19960 17769 17793 un
19961 17796 17795 un
19962 17794 17796 un
19963 17790 17795 un
19964 17798 17797 1
19965 17799 17798 1
19966 17800 17799 1
19967 17796 17797 1
19968 17795 17800 1
19969 17800 17801 2
19970 17655 17802 1
19971 17655 17803 1
19972 17656 17804 1
19973 17656 17805 1
19974 17657 17806 1
19975 17658 17807 1
19976 17659 17808 1
19977 17659 17809 1
19978 17661 17810 1
19979 17662 17811 1
19980 17663 17812 1
19981 17663 17813 1
19982 17664 17814 1
19983 17664 17815 1
19984 17666 17816 1
19985 17667 17817 1
19986 17668 17818 1
19987 17668 17819 1
19988 17672 17820 1
19989 17677 17821 1
19990 17677 17822 1
19991 17678 17823 1
19992 17678 17824 1
19993 17679 17825 1
19994 17679 17826 1
19995 17689 17827 1
19996 17689 17828 1
19997 17690 17829 1
19998 17691 17830 1
19999 17691 17831 1
20000 17692 17832 1
20001 17692 17833 1
20002 17695 17834 1
20003 17695 17835 1
20004 17696 17836 1
20005 17697 17837 1
20006 17697 17838 1
20007 17698 17839 1
20008 17698 17840 1
20009 17700 17841 1
20010 17704 17842 1
20011 17711 17843 1
20012 17717 17844 1
20013 17726 17845 1
20014 17727 17846 1
20015 17728 17847 1
20016 17729 17848 1
20017 17729 17849 1
20018 17730 17850 1
20019 17730 17851 1
20020 17731 17852 1
20021 17732 17853 1
20022 17733 17854 1
20023 17733 17855 1
20024 17734 17856 1
20025 17734 17857 1
20026 17735 17858 1
20027 17735 17859 1
20028 17736 17860 1
20029 17741 17861 1
20030 17742 17862 1
20031 17744 17863 1
20032 17744 17864 1
20033 17745 17865 1
20034 17745 17866 1
20035 17746 17867 1
20036 17746 17868 1
20037 17747 17869 1
20038 17747 17870 1
20039 17749 17871 1
20040 17752 17872 1
20041 17755 17873 1
20042 17759 17874 1
20043 17760 17875 1
20044 17762 17876 1
20045 17763 17877 1
20046 17763 17878 1
20047 17764 17879 1
20048 17764 17880 1
20049 17765 17881 1
20050 17765 17882 1
20051 17771 17883 1
20052 17772 17884 1
20053 17772 17885 1
20054 17772 17886 1
20055 17773 17887 1
20056 17773 17888 1
20057 17773 17889 1
20058 17774 17890 1
20059 17775 17891 1
20060 17776 17892 1
20061 17782 17893 1
20062 17783 17894 1
20063 17784 17895 1
20064 17791 17896 1
20065 17792 17897 1
20066 17793 17898 1
20067 17797 17899 1
20068 17797 17900 1
20069 17798 17901 1
20070 17798 17902 1
20071 17799 17903 1
20072 17799 17904 1
20073 17907 17906 1
20074 17908 17907 1
20075 17909 17908 1
20076 17910 17909 1
20077 17905 17906 1
20078 17905 17910 1
20079 17912 17911 1
20080 17913 17912 1
20081 17914 17913 1
20082 17908 17911 1
20083 17907 17914 1
20084 17916 17915 1
20085 17917 17916 1
20086 17918 17917 1
20087 17912 17915 1
20088 17911 17918 1
20089 17920 17919 un
20090 17921 17920 un
20091 17922 17921 un
20092 17917 17919 1
20093 17916 17922 1
20094 17924 17923 1
20095 17925 17924 un
20096 17926 17925 un
20097 17921 17923 un
20098 17920 17926 un
20099 17928 17927 1
20100 17929 17928 1
20101 17919 17929 1
20102 17926 17927 1
20103 17931 17930 1
20104 17932 17931 un
20105 17933 17932 un
20106 17925 17930 1
20107 17924 17933 un
20108 17935 17934 un
20109 17936 17935 2
20110 17922 17934 1
20111 17923 17936 un
20112 17938 17937 2
20113 17939 17938 1
20114 17940 17939 1
20115 17935 17937 1
20116 17934 17940 2
20117 17942 17941 1
20118 17943 17942 1
20119 17944 17943 2
20120 17938 17941 1
20121 17937 17944 1
20122 17946 17945 1
20123 17947 17946 1
20124 17948 17947 1
20125 17944 17945 1
20126 17943 17948 1
20127 17950 17949 un
20128 17936 17950 un
20129 17933 17949 un
20130 17952 17951 un
20131 17953 17952 1
20132 17949 17953 un
20133 17932 17951 un
20134 17955 17954 un
20135 17956 17955 un
20136 17957 17956 un
20137 17952 17954 un
20138 17951 17957 un
20139 17959 17958 un
20140 17960 17959 un
20141 17961 17960 un
20142 17956 17958 un
20143 17955 17961 un
20144 17963 17962 un
20145 17964 17963 un
20146 17965 17964 un
20147 17960 17962 un
20148 17959 17965 un
20149 17967 17966 un
20150 17931 17967 un
20151 17957 17966 un
20152 17969 17968 un
20153 17966 17969 un
20154 17958 17968 un
20155 17971 17970 un
20156 17968 17971 un
20157 17965 17970 un
20158 17973 17972 un
20159 17974 17973 un
20160 17970 17974 un
20161 17964 17972 un
20162 17976 17975 1
20163 17977 17976 1
20164 17978 17977 1
20165 17963 17975 1
20166 17962 17978 1
20167 17980 17979 1
20168 17981 17980 1
20169 17982 17981 1
20170 17977 17979 1
20171 17976 17982 1
20172 17984 17983 1
20173 17985 17984 1
20174 17986 17985 1
20175 17982 17983 1
20176 17981 17986 1
20177 17988 17987 un
20178 17989 17988 un
20179 17971 17989 un
20180 17969 17987 un
20181 17991 17990 1
20182 17992 17991 1
20183 17993 17992 1
20184 17988 17990 1
20185 17987 17993 1
20186 17995 17994 1
20187 17996 17995 1
20188 17997 17996 1
20189 17992 17994 1
20190 17991 17997 1
20191 17999 17998 un
20192 17989 17999 un
20193 17974 17998 un
20194 18001 18000 un
20195 18002 18001 un
20196 17998 18002 un
20197 17973 18000 un
20198 18004 18003 un
20199 18005 18004 un
20200 17972 18005 un
20201 18000 18003 un
20202 18007 18006 1
20203 18008 18007 un
20204 18001 18006 1
20205 18003 18008 1
20206 18010 18009 1
20207 18011 18010 1
20208 18004 18009 1
20209 18008 18011 un
20210 18013 18012 1
20211 18014 18013 1
20212 18015 18014 1
20213 18010 18012 1
20214 18009 18015 1
20215 18017 18016 1
20216 18018 18017 1
20217 18007 18018 un
20218 18011 18016 un
20219 18012 18019 1
20220 18016 18020 un
20221 18019 18020 un
20222 17946 18021 1
20223 18021 18022 1
20224 18021 18023 1
20225 17978 18024 1
20226 18026 18025 1
20227 18027 18026 un
20228 18028 18027 1
20229 18018 18025 un
20230 18017 18028 un
20231 18030 18029 un
20232 18031 18030 1
20233 18032 18031 un
20234 18028 18029 un
20235 18027 18032 un
20236 18034 18033 un
20237 18035 18034 1
20238 18036 18035 1
20239 18031 18033 un
20240 18030 18036 un
20241 18038 18037 un
20242 18039 18038 un
20243 18029 18039 un
20244 18036 18037 un
20245 18041 18040 un
20246 18042 18041 un
20247 18035 18042 un
20248 18037 18040 un
20249 18044 18043 un
20250 18038 18044 un
20251 18020 18039 un
20252 18019 18043 un
20253 18046 18045 un
20254 18044 18046 un
20255 18040 18045 un
20256 18048 18047 1
20257 18049 18048 1
20258 18050 18049 1
20259 18046 18047 1
20260 18045 18050 1
20261 18050 18051 2
20262 17905 18052 1
20263 17905 18053 1
20264 17906 18054 1
20265 17906 18055 1
20266 17907 18056 1
20267 17908 18057 1
20268 17909 18058 1
20269 17909 18059 1
20270 17911 18060 1
20271 17912 18061 1
20272 17913 18062 1
20273 17913 18063 1
20274 17914 18064 1
20275 17914 18065 1
20276 17916 18066 1
20277 17917 18067 1
20278 17918 18068 1
20279 17918 18069 1
20280 17922 18070 1
20281 17927 18071 1
20282 17927 18072 1
20283 17928 18073 1
20284 17928 18074 1
20285 17929 18075 1
20286 17929 18076 1
20287 17939 18077 1
20288 17939 18078 1
20289 17940 18079 1
20290 17941 18080 1
20291 17941 18081 1
20292 17942 18082 1
20293 17942 18083 1
20294 17945 18084 1
20295 17945 18085 1
20296 17946 18086 1
20297 17947 18087 1
20298 17947 18088 1
20299 17948 18089 1
20300 17948 18090 1
20301 17950 18091 1
20302 17954 18092 1
20303 17961 18093 1
20304 17967 18094 1
20305 17976 18095 1
20306 17977 18096 1
20307 17978 18097 1
20308 17979 18098 1
20309 17979 18099 1
20310 17980 18100 1
20311 17980 18101 1
20312 17981 18102 1
20313 17982 18103 1
20314 17983 18104 1
20315 17983 18105 1
20316 17984 18106 1
20317 17984 18107 1
20318 17985 18108 1
20319 17985 18109 1
20320 17986 18110 1
20321 17991 18111 1
20322 17992 18112 1
20323 17994 18113 1
20324 17994 18114 1
20325 17995 18115 1
20326 17995 18116 1
20327 17996 18117 1
20328 17996 18118 1
20329 17997 18119 1
20330 17997 18120 1
20331 17999 18121 1
20332 18002 18122 1
20333 18005 18123 1
20334 18009 18124 1
20335 18010 18125 1
20336 18012 18126 1
20337 18013 18127 1
20338 18013 18128 1
20339 18014 18129 1
20340 18014 18130 1
20341 18015 18131 1
20342 18015 18132 1
20343 18021 18133 1
20344 18022 18134 1
20345 18022 18135 1
20346 18022 18136 1
20347 18023 18137 1
20348 18023 18138 1
20349 18023 18139 1
20350 18024 18140 1
20351 18025 18141 1
20352 18026 18142 1
20353 18032 18143 1
20354 18033 18144 1
20355 18034 18145 1
20356 18041 18146 1
20357 18042 18147 1
20358 18043 18148 1
20359 18047 18149 1
20360 18047 18150 1
20361 18048 18151 1
20362 18048 18152 1
20363 18049 18153 1
20364 18049 18154 1
20365 18157 18156 1
20366 18158 18157 1
20367 18159 18158 1
20368 18160 18159 1
20369 18155 18156 1
20370 18155 18160 1
20371 18162 18161 1
20372 18163 18162 1
20373 18164 18163 1
20374 18158 18161 1
20375 18157 18164 1
20376 18166 18165 1
20377 18167 18166 1
20378 18168 18167 1
20379 18162 18165 1
20380 18161 18168 1
20381 18170 18169 un
20382 18171 18170 un
20383 18172 18171 un
20384 18167 18169 1
20385 18166 18172 1
20386 18174 18173 1
20387 18175 18174 un
20388 18176 18175 un
20389 18171 18173 un
20390 18170 18176 un
20391 18178 18177 1
20392 18179 18178 1
20393 18169 18179 1
20394 18176 18177 1
20395 18181 18180 1
20396 18182 18181 un
20397 18183 18182 un
20398 18175 18180 1
20399 18174 18183 un
20400 18185 18184 un
20401 18186 18185 2
20402 18172 18184 1
20403 18173 18186 un
20404 18188 18187 2
20405 18189 18188 1
20406 18190 18189 1
20407 18185 18187 1
20408 18184 18190 2
20409 18192 18191 1
20410 18193 18192 1
20411 18194 18193 2
20412 18188 18191 1
20413 18187 18194 1
20414 18196 18195 1
20415 18197 18196 1
20416 18198 18197 1
20417 18194 18195 1
20418 18193 18198 1
20419 18200 18199 un
20420 18186 18200 un
20421 18183 18199 un
20422 18202 18201 un
20423 18203 18202 1
20424 18199 18203 un
20425 18182 18201 un
20426 18205 18204 un
20427 18206 18205 un
20428 18207 18206 un
20429 18202 18204 un
20430 18201 18207 un
20431 18209 18208 un
20432 18210 18209 un
20433 18211 18210 un
20434 18206 18208 un
20435 18205 18211 un
20436 18213 18212 un
20437 18214 18213 un
20438 18215 18214 un
20439 18210 18212 un
20440 18209 18215 un
20441 18217 18216 un
20442 18181 18217 un
20443 18207 18216 un
20444 18219 18218 un
20445 18216 18219 un
20446 18208 18218 un
20447 18221 18220 un
20448 18218 18221 un
20449 18215 18220 un
20450 18223 18222 un
20451 18224 18223 un
20452 18220 18224 un
20453 18214 18222 un
20454 18226 18225 1
20455 18227 18226 1
20456 18228 18227 1
20457 18213 18225 1
20458 18212 18228 1
20459 18230 18229 1
20460 18231 18230 1
20461 18232 18231 1
20462 18227 18229 1
20463 18226 18232 1
20464 18234 18233 1
20465 18235 18234 1
20466 18236 18235 1
20467 18232 18233 1
20468 18231 18236 1
20469 18238 18237 un
20470 18239 18238 un
20471 18221 18239 un
20472 18219 18237 un
20473 18241 18240 1
20474 18242 18241 1
20475 18243 18242 1
20476 18238 18240 1
20477 18237 18243 1
20478 18245 18244 1
20479 18246 18245 1
20480 18247 18246 1
20481 18242 18244 1
20482 18241 18247 1
20483 18249 18248 un
20484 18239 18249 un
20485 18224 18248 un
20486 18251 18250 un
20487 18252 18251 un
20488 18248 18252 un
20489 18223 18250 un
20490 18254 18253 un
20491 18255 18254 un
20492 18222 18255 un
20493 18250 18253 un
20494 18257 18256 1
20495 18258 18257 un
20496 18251 18256 1
20497 18253 18258 1
20498 18260 18259 1
20499 18261 18260 1
20500 18254 18259 1
20501 18258 18261 un
20502 18263 18262 1
20503 18264 18263 1
20504 18265 18264 1
20505 18260 18262 1
20506 18259 18265 1
20507 18267 18266 1
20508 18268 18267 1
20509 18257 18268 un
20510 18261 18266 un
20511 18262 18269 1
20512 18266 18270 un
20513 18269 18270 un
20514 18196 18271 1
20515 18271 18272 1
20516 18271 18273 1
20517 18228 18274 1
20518 18276 18275 1
20519 18277 18276 un
20520 18278 18277 1
20521 18268 18275 un
20522 18267 18278 un
20523 18280 18279 un
20524 18281 18280 1
20525 18282 18281 un
20526 18278 18279 un
20527 18277 18282 un
20528 18284 18283 un
20529 18285 18284 1
20530 18286 18285 1
20531 18281 18283 un
20532 18280 18286 un
20533 18288 18287 un
20534 18289 18288 un
20535 18279 18289 un
20536 18286 18287 un
20537 18291 18290 un
20538 18292 18291 un
20539 18285 18292 un
20540 18287 18290 un
20541 18294 18293 un
20542 18288 18294 un
20543 18270 18289 un
20544 18269 18293 un
20545 18296 18295 un
20546 18294 18296 un
20547 18290 18295 un
20548 18298 18297 1
20549 18299 18298 1
20550 18300 18299 1
20551 18296 18297 1
20552 18295 18300 1
20553 18300 18301 2
20554 18155 18302 1
20555 18155 18303 1
20556 18156 18304 1
20557 18156 18305 1
20558 18157 18306 1
20559 18158 18307 1
20560 18159 18308 1
20561 18159 18309 1
20562 18161 18310 1
20563 18162 18311 1
20564 18163 18312 1
20565 18163 18313 1
20566 18164 18314 1
20567 18164 18315 1
20568 18166 18316 1
20569 18167 18317 1
20570 18168 18318 1
20571 18168 18319 1
20572 18172 18320 1
20573 18177 18321 1
20574 18177 18322 1
20575 18178 18323 1
20576 18178 18324 1
20577 18179 18325 1
20578 18179 18326 1
20579 18189 18327 1
20580 18189 18328 1
20581 18190 18329 1
20582 18191 18330 1
20583 18191 18331 1
20584 18192 18332 1
20585 18192 18333 1
20586 18195 18334 1
20587 18195 18335 1
20588 18196 18336 1
20589 18197 18337 1
20590 18197 18338 1
20591 18198 18339 1
20592 18198 18340 1
20593 18200 18341 1
20594 18204 18342 1
20595 18211 18343 1
20596 18217 18344 1
20597 18226 18345 1
20598 18227 18346 1
20599 18228 18347 1
20600 18229 18348 1
20601 18229 18349 1
20602 18230 18350 1
20603 18230 18351 1
20604 18231 18352 1
20605 18232 18353 1
20606 18233 18354 1
20607 18233 18355 1
20608 18234 18356 1
20609 18234 18357 1
20610 18235 18358 1
20611 18235 18359 1
20612 18236 18360 1
20613 18241 18361 1
20614 18242 18362 1
20615 18244 18363 1
20616 18244 18364 1
20617 18245 18365 1
20618 18245 18366 1
20619 18246 18367 1
20620 18246 18368 1
20621 18247 18369 1
20622 18247 18370 1
20623 18249 18371 1
20624 18252 18372 1
20625 18255 18373 1
20626 18259 18374 1
20627 18260 18375 1
20628 18262 18376 1
20629 18263 18377 1
20630 18263 18378 1
20631 18264 18379 1
20632 18264 18380 1
20633 18265 18381 1
20634 18265 18382 1
20635 18271 18383 1
20636 18272 18384 1
20637 18272 18385 1
20638 18272 18386 1
20639 18273 18387 1
20640 18273 18388 1
20641 18273 18389 1
20642 18274 18390 1
20643 18275 18391 1
20644 18276 18392 1
20645 18282 18393 1
20646 18283 18394 1
20647 18284 18395 1
20648 18291 18396 1
20649 18292 18397 1
20650 18293 18398 1
20651 18297 18399 1
20652 18297 18400 1
20653 18298 18401 1
20654 18298 18402 1
20655 18299 18403 1
20656 18299 18404 1
20657 18407 18406 1
20658 18408 18407 1
20659 18409 18408 1
20660 18410 18409 1
20661 18405 18406 1
20662 18405 18410 1
20663 18412 18411 1
20664 18413 18412 1
20665 18414 18413 1
20666 18408 18411 1
20667 18407 18414 1
20668 18416 18415 1
20669 18417 18416 1
20670 18418 18417 1
20671 18412 18415 1
20672 18411 18418 1
20673 18420 18419 un
20674 18421 18420 un
20675 18422 18421 un
20676 18417 18419 1
20677 18416 18422 1
20678 18424 18423 1
20679 18425 18424 un
20680 18426 18425 un
20681 18421 18423 un
20682 18420 18426 un
20683 18428 18427 1
20684 18429 18428 1
20685 18419 18429 1
20686 18426 18427 1
20687 18431 18430 1
20688 18432 18431 un
20689 18433 18432 un
20690 18425 18430 1
20691 18424 18433 un
20692 18435 18434 un
20693 18436 18435 2
20694 18422 18434 1
20695 18423 18436 un
20696 18438 18437 2
20697 18439 18438 1
20698 18440 18439 1
20699 18435 18437 1
20700 18434 18440 2
20701 18442 18441 1
20702 18443 18442 1
20703 18444 18443 2
20704 18438 18441 1
20705 18437 18444 1
20706 18446 18445 1
20707 18447 18446 1
20708 18448 18447 1
20709 18444 18445 1
20710 18443 18448 1
20711 18450 18449 un
20712 18436 18450 un
20713 18433 18449 un
20714 18452 18451 un
20715 18453 18452 1
20716 18449 18453 un
20717 18432 18451 un
20718 18455 18454 un
20719 18456 18455 un
20720 18457 18456 un
20721 18452 18454 un
20722 18451 18457 un
20723 18459 18458 un
20724 18460 18459 un
20725 18461 18460 un
20726 18456 18458 un
20727 18455 18461 un
20728 18463 18462 un
20729 18464 18463 un
20730 18465 18464 un
20731 18460 18462 un
20732 18459 18465 un
20733 18467 18466 un
20734 18431 18467 un
20735 18457 18466 un
20736 18469 18468 un
20737 18466 18469 un
20738 18458 18468 un
20739 18471 18470 un
20740 18468 18471 un
20741 18465 18470 un
20742 18473 18472 un
20743 18474 18473 un
20744 18470 18474 un
20745 18464 18472 un
20746 18476 18475 1
20747 18477 18476 1
20748 18478 18477 1
20749 18463 18475 1
20750 18462 18478 1
20751 18480 18479 1
20752 18481 18480 1
20753 18482 18481 1
20754 18477 18479 1
20755 18476 18482 1
20756 18484 18483 1
20757 18485 18484 1
20758 18486 18485 1
20759 18482 18483 1
20760 18481 18486 1
20761 18488 18487 un
20762 18489 18488 un
20763 18471 18489 un
20764 18469 18487 un
20765 18491 18490 1
20766 18492 18491 1
20767 18493 18492 1
20768 18488 18490 1
20769 18487 18493 1
20770 18495 18494 1
20771 18496 18495 1
20772 18497 18496 1
20773 18492 18494 1
20774 18491 18497 1
20775 18499 18498 un
20776 18489 18499 un
20777 18474 18498 un
20778 18501 18500 un
20779 18502 18501 un
20780 18498 18502 un
20781 18473 18500 un
20782 18504 18503 un
20783 18505 18504 un
20784 18472 18505 un
20785 18500 18503 un
20786 18507 18506 1
20787 18508 18507 un
20788 18501 18506 1
20789 18503 18508 1
20790 18510 18509 1
20791 18511 18510 1
20792 18504 18509 1
20793 18508 18511 un
20794 18513 18512 1
20795 18514 18513 1
20796 18515 18514 1
20797 18510 18512 1
20798 18509 18515 1
20799 18517 18516 1
20800 18518 18517 1
20801 18507 18518 un
20802 18511 18516 un
20803 18512 18519 1
20804 18516 18520 un
20805 18519 18520 un
20806 18446 18521 1
20807 18521 18522 1
20808 18521 18523 1
20809 18478 18524 1
20810 18526 18525 1
20811 18527 18526 un
20812 18528 18527 1
20813 18518 18525 un
20814 18517 18528 un
20815 18530 18529 un
20816 18531 18530 1
20817 18532 18531 un
20818 18528 18529 un
20819 18527 18532 un
20820 18534 18533 un
20821 18535 18534 1
20822 18536 18535 1
20823 18531 18533 un
20824 18530 18536 un
20825 18538 18537 un
20826 18539 18538 un
20827 18529 18539 un
20828 18536 18537 un
20829 18541 18540 un
20830 18542 18541 un
20831 18535 18542 un
20832 18537 18540 un
20833 18544 18543 un
20834 18538 18544 un
20835 18520 18539 un
20836 18519 18543 un
20837 18546 18545 un
20838 18544 18546 un
20839 18540 18545 un
20840 18548 18547 1
20841 18549 18548 1
20842 18550 18549 1
20843 18546 18547 1
20844 18545 18550 1
20845 18550 18551 2
20846 18405 18552 1
20847 18405 18553 1
20848 18406 18554 1
20849 18406 18555 1
20850 18407 18556 1
20851 18408 18557 1
20852 18409 18558 1
20853 18409 18559 1
20854 18411 18560 1
20855 18412 18561 1
20856 18413 18562 1
20857 18413 18563 1
20858 18414 18564 1
20859 18414 18565 1
20860 18416 18566 1
20861 18417 18567 1
20862 18418 18568 1
20863 18418 18569 1
20864 18422 18570 1
20865 18427 18571 1
20866 18427 18572 1
20867 18428 18573 1
20868 18428 18574 1
20869 18429 18575 1
20870 18429 18576 1
20871 18439 18577 1
20872 18439 18578 1
20873 18440 18579 1
20874 18441 18580 1
20875 18441 18581 1
20876 18442 18582 1
20877 18442 18583 1
20878 18445 18584 1
20879 18445 18585 1
20880 18446 18586 1
20881 18447 18587 1
20882 18447 18588 1
20883 18448 18589 1
20884 18448 18590 1
20885 18450 18591 1
20886 18454 18592 1
20887 18461 18593 1
20888 18467 18594 1
20889 18476 18595 1
20890 18477 18596 1
20891 18478 18597 1
20892 18479 18598 1
20893 18479 18599 1
20894 18480 18600 1
20895 18480 18601 1
20896 18481 18602 1
20897 18482 18603 1
20898 18483 18604 1
20899 18483 18605 1
20900 18484 18606 1
20901 18484 18607 1
20902 18485 18608 1
20903 18485 18609 1
20904 18486 18610 1
20905 18491 18611 1
20906 18492 18612 1
20907 18494 18613 1
20908 18494 18614 1
20909 18495 18615 1
20910 18495 18616 1
20911 18496 18617 1
20912 18496 18618 1
20913 18497 18619 1
20914 18497 18620 1
20915 18499 18621 1
20916 18502 18622 1
20917 18505 18623 1
20918 18509 18624 1
20919 18510 18625 1
20920 18512 18626 1
20921 18513 18627 1
20922 18513 18628 1
20923 18514 18629 1
20924 18514 18630 1
20925 18515 18631 1
20926 18515 18632 1
20927 18521 18633 1
20928 18522 18634 1
20929 18522 18635 1
20930 18522 18636 1
20931 18523 18637 1
20932 18523 18638 1
20933 18523 18639 1
20934 18524 18640 1
20935 18525 18641 1
20936 18526 18642 1
20937 18532 18643 1
20938 18533 18644 1
20939 18534 18645 1
20940 18541 18646 1
20941 18542 18647 1
20942 18543 18648 1
20943 18547 18649 1
20944 18547 18650 1
20945 18548 18651 1
20946 18548 18652 1
20947 18549 18653 1
20948 18549 18654 1
20949 18657 18656 1
20950 18658 18657 1
20951 18659 18658 1
20952 18660 18659 1
20953 18655 18656 1
20954 18655 18660 1
20955 18662 18661 1
20956 18663 18662 1
20957 18664 18663 1
20958 18658 18661 1
20959 18657 18664 1
20960 18666 18665 1
20961 18667 18666 1
20962 18668 18667 1
20963 18662 18665 1
20964 18661 18668 1
20965 18670 18669 un
20966 18671 18670 un
20967 18672 18671 un
20968 18667 18669 1
20969 18666 18672 1
20970 18674 18673 1
20971 18675 18674 un
20972 18676 18675 un
20973 18671 18673 un
20974 18670 18676 un
20975 18678 18677 1
20976 18679 18678 1
20977 18669 18679 1
20978 18676 18677 1
20979 18681 18680 1
20980 18682 18681 un
20981 18683 18682 un
20982 18675 18680 1
20983 18674 18683 un
20984 18685 18684 un
20985 18686 18685 2
20986 18672 18684 1
20987 18673 18686 un
20988 18688 18687 2
20989 18689 18688 1
20990 18690 18689 1
20991 18685 18687 1
20992 18684 18690 2
20993 18692 18691 1
20994 18693 18692 1
20995 18694 18693 2
20996 18688 18691 1
20997 18687 18694 1
20998 18696 18695 1
20999 18697 18696 1
21000 18698 18697 1
21001 18694 18695 1
21002 18693 18698 1
21003 18700 18699 un
21004 18686 18700 un
21005 18683 18699 un
21006 18702 18701 un
21007 18703 18702 1
21008 18699 18703 un
21009 18682 18701 un
21010 18705 18704 un
21011 18706 18705 un
21012 18707 18706 un
21013 18702 18704 un
21014 18701 18707 un
21015 18709 18708 un
21016 18710 18709 un
21017 18711 18710 un
21018 18706 18708 un
21019 18705 18711 un
21020 18713 18712 un
21021 18714 18713 un
21022 18715 18714 un
21023 18710 18712 un
21024 18709 18715 un
21025 18717 18716 un
21026 18681 18717 un
21027 18707 18716 un
21028 18719 18718 un
21029 18716 18719 un
21030 18708 18718 un
21031 18721 18720 un
21032 18718 18721 un
21033 18715 18720 un
21034 18723 18722 un
21035 18724 18723 un
21036 18720 18724 un
21037 18714 18722 un
21038 18726 18725 1
21039 18727 18726 1
21040 18728 18727 1
21041 18713 18725 1
21042 18712 18728 1
21043 18730 18729 1
21044 18731 18730 1
21045 18732 18731 1
21046 18727 18729 1
21047 18726 18732 1
21048 18734 18733 1
21049 18735 18734 1
21050 18736 18735 1
21051 18732 18733 1
21052 18731 18736 1
21053 18738 18737 un
21054 18739 18738 un
21055 18721 18739 un
21056 18719 18737 un
21057 18741 18740 1
21058 18742 18741 1
21059 18743 18742 1
21060 18738 18740 1
21061 18737 18743 1
21062 18745 18744 1
21063 18746 18745 1
21064 18747 18746 1
21065 18742 18744 1
21066 18741 18747 1
21067 18749 18748 un
21068 18739 18749 un
21069 18724 18748 un
21070 18751 18750 un
21071 18752 18751 un
21072 18748 18752 un
21073 18723 18750 un
21074 18754 18753 un
21075 18755 18754 un
21076 18722 18755 un
21077 18750 18753 un
21078 18757 18756 1
21079 18758 18757 un
21080 18751 18756 1
21081 18753 18758 1
21082 18760 18759 1
21083 18761 18760 1
21084 18754 18759 1
21085 18758 18761 un
21086 18763 18762 1
21087 18764 18763 1
21088 18765 18764 1
21089 18760 18762 1
21090 18759 18765 1
21091 18767 18766 1
21092 18768 18767 1
21093 18757 18768 un
21094 18761 18766 un
21095 18762 18769 1
21096 18766 18770 un
21097 18769 18770 un
21098 18696 18771 1
21099 18771 18772 1
21100 18771 18773 1
21101 18728 18774 1
21102 18776 18775 1
21103 18777 18776 un
21104 18778 18777 1
21105 18768 18775 un
21106 18767 18778 un
21107 18780 18779 un
21108 18781 18780 1
21109 18782 18781 un
21110 18778 18779 un
21111 18777 18782 un
21112 18784 18783 un
21113 18785 18784 1
21114 18786 18785 1
21115 18781 18783 un
21116 18780 18786 un
21117 18788 18787 un
21118 18789 18788 un
21119 18779 18789 un
21120 18786 18787 un
21121 18791 18790 un
21122 18792 18791 un
21123 18785 18792 un
21124 18787 18790 un
21125 18794 18793 un
21126 18788 18794 un
21127 18770 18789 un
21128 18769 18793 un
21129 18796 18795 un
21130 18794 18796 un
21131 18790 18795 un
21132 18798 18797 1
21133 18799 18798 1
21134 18800 18799 1
21135 18796 18797 1
21136 18795 18800 1
21137 18800 18801 2
21138 18655 18802 1
21139 18655 18803 1
21140 18656 18804 1
21141 18656 18805 1
21142 18657 18806 1
21143 18658 18807 1
21144 18659 18808 1
21145 18659 18809 1
21146 18661 18810 1
21147 18662 18811 1
21148 18663 18812 1
21149 18663 18813 1
21150 18664 18814 1
21151 18664 18815 1
21152 18666 18816 1
21153 18667 18817 1
21154 18668 18818 1
21155 18668 18819 1
21156 18672 18820 1
21157 18677 18821 1
21158 18677 18822 1
21159 18678 18823 1
21160 18678 18824 1
21161 18679 18825 1
21162 18679 18826 1
21163 18689 18827 1
21164 18689 18828 1
21165 18690 18829 1
21166 18691 18830 1
21167 18691 18831 1
21168 18692 18832 1
21169 18692 18833 1
21170 18695 18834 1
21171 18695 18835 1
21172 18696 18836 1
21173 18697 18837 1
21174 18697 18838 1
21175 18698 18839 1
21176 18698 18840 1
21177 18700 18841 1
21178 18704 18842 1
21179 18711 18843 1
21180 18717 18844 1
21181 18726 18845 1
21182 18727 18846 1
21183 18728 18847 1
21184 18729 18848 1
21185 18729 18849 1
21186 18730 18850 1
21187 18730 18851 1
21188 18731 18852 1
21189 18732 18853 1
21190 18733 18854 1
21191 18733 18855 1
21192 18734 18856 1
21193 18734 18857 1
21194 18735 18858 1
21195 18735 18859 1
21196 18736 18860 1
21197 18741 18861 1
21198 18742 18862 1
21199 18744 18863 1
21200 18744 18864 1
21201 18745 18865 1
21202 18745 18866 1
21203 18746 18867 1
21204 18746 18868 1
21205 18747 18869 1
21206 18747 18870 1
21207 18749 18871 1
21208 18752 18872 1
21209 18755 18873 1
21210 18759 18874 1
21211 18760 18875 1
21212 18762 18876 1
21213 18763 18877 1
21214 18763 18878 1
21215 18764 18879 1
21216 18764 18880 1
21217 18765 18881 1
21218 18765 18882 1
21219 18771 18883 1
21220 18772 18884 1
21221 18772 18885 1
21222 18772 18886 1
21223 18773 18887 1
21224 18773 18888 1
21225 18773 18889 1
21226 18774 18890 1
21227 18775 18891 1
21228 18776 18892 1
21229 18782 18893 1
21230 18783 18894 1
21231 18784 18895 1
21232 18791 18896 1
21233 18792 18897 1
21234 18793 18898 1
21235 18797 18899 1
21236 18797 18900 1
21237 18798 18901 1
21238 18798 18902 1
21239 18799 18903 1
21240 18799 18904 1
21241 18907 18906 1
21242 18908 18907 1
21243 18909 18908 1
21244 18910 18909 1
21245 18905 18906 1
21246 18905 18910 1
21247 18912 18911 1
21248 18913 18912 1
21249 18914 18913 1
21250 18908 18911 1
21251 18907 18914 1
21252 18916 18915 1
21253 18917 18916 1
21254 18918 18917 1
21255 18912 18915 1
21256 18911 18918 1
21257 18920 18919 un
21258 18921 18920 un
21259 18922 18921 un
21260 18917 18919 1
21261 18916 18922 1
21262 18924 18923 1
21263 18925 18924 un
21264 18926 18925 un
21265 18921 18923 un
21266 18920 18926 un
21267 18928 18927 1
21268 18929 18928 1
21269 18919 18929 1
21270 18926 18927 1
21271 18931 18930 1
21272 18932 18931 un
21273 18933 18932 un
21274 18925 18930 1
21275 18924 18933 un
21276 18935 18934 un
21277 18936 18935 2
21278 18922 18934 1
21279 18923 18936 un
21280 18938 18937 2
21281 18939 18938 1
21282 18940 18939 1
21283 18935 18937 1
21284 18934 18940 2
21285 18942 18941 1
21286 18943 18942 1
21287 18944 18943 2
21288 18938 18941 1
21289 18937 18944 1
21290 18946 18945 1
21291 18947 18946 1
21292 18948 18947 1
21293 18944 18945 1
21294 18943 18948 1
21295 18950 18949 un
21296 18936 18950 un
21297 18933 18949 un
21298 18952 18951 un
21299 18953 18952 1
21300 18949 18953 un
21301 18932 18951 un
21302 18955 18954 un
21303 18956 18955 un
21304 18957 18956 un
21305 18952 18954 un
21306 18951 18957 un
21307 18959 18958 un
21308 18960 18959 un
21309 18961 18960 un
21310 18956 18958 un
21311 18955 18961 un
21312 18963 18962 un
21313 18964 18963 un
21314 18965 18964 un
21315 18960 18962 un
21316 18959 18965 un
21317 18967 18966 un
21318 18931 18967 un
21319 18957 18966 un
21320 18969 18968 un
21321 18966 18969 un
21322 18958 18968 un
21323 18971 18970 un
21324 18968 18971 un
21325 18965 18970 un
21326 18973 18972 un
21327 18974 18973 un
21328 18970 18974 un
21329 18964 18972 un
21330 18976 18975 1
21331 18977 18976 1
21332 18978 18977 1
21333 18963 18975 1
21334 18962 18978 1
21335 18980 18979 1
21336 18981 18980 1
21337 18982 18981 1
21338 18977 18979 1
21339 18976 18982 1
21340 18984 18983 1
21341 18985 18984 1
21342 18986 18985 1
21343 18982 18983 1
21344 18981 18986 1
21345 18988 18987 un
21346 18989 18988 un
21347 18971 18989 un
21348 18969 18987 un
21349 18991 18990 1
21350 18992 18991 1
21351 18993 18992 1
21352 18988 18990 1
21353 18987 18993 1
21354 18995 18994 1
21355 18996 18995 1
21356 18997 18996 1
21357 18992 18994 1
21358 18991 18997 1
21359 18999 18998 un
21360 18989 18999 un
21361 18974 18998 un
21362 19001 19000 un
21363 19002 19001 un
21364 18998 19002 un
21365 18973 19000 un
21366 19004 19003 un
21367 19005 19004 un
21368 18972 19005 un
21369 19000 19003 un
21370 19007 19006 1
21371 19008 19007 un
21372 19001 19006 1
21373 19003 19008 1
21374 19010 19009 1
21375 19011 19010 1
21376 19004 19009 1
21377 19008 19011 un
21378 19013 19012 1
21379 19014 19013 1
21380 19015 19014 1
21381 19010 19012 1
21382 19009 19015 1
21383 19017 19016 1
21384 19018 19017 1
21385 19007 19018 un
21386 19011 19016 un
21387 19012 19019 1
21388 19016 19020 un
21389 19019 19020 un
21390 18946 19021 1
21391 19021 19022 1
21392 19021 19023 1
21393 18978 19024 1
21394 19026 19025 1
21395 19027 19026 un
21396 19028 19027 1
21397 19018 19025 un
21398 19017 19028 un
21399 19030 19029 un
21400 19031 19030 1
21401 19032 19031 un
21402 19028 19029 un
21403 19027 19032 un
21404 19034 19033 un
21405 19035 19034 1
21406 19036 19035 1
21407 19031 19033 un
21408 19030 19036 un
21409 19038 19037 un
21410 19039 19038 un
21411 19029 19039 un
21412 19036 19037 un
21413 19041 19040 un
21414 19042 19041 un
21415 19035 19042 un
21416 19037 19040 un
21417 19044 19043 un
21418 19038 19044 un
21419 19020 19039 un
21420 19019 19043 un
21421 19046 19045 un
21422 19044 19046 un
21423 19040 19045 un
21424 19048 19047 1
21425 19049 19048 1
21426 19050 19049 1
21427 19046 19047 1
21428 19045 19050 1
21429 19050 19051 2
21430 18905 19052 1
21431 18905 19053 1
21432 18906 19054 1
21433 18906 19055 1
21434 18907 19056 1
21435 18908 19057 1
21436 18909 19058 1
21437 18909 19059 1
21438 18911 19060 1
21439 18912 19061 1
21440 18913 19062 1
21441 18913 19063 1
21442 18914 19064 1
21443 18914 19065 1
21444 18916 19066 1
21445 18917 19067 1
21446 18918 19068 1
21447 18918 19069 1
21448 18922 19070 1
21449 18927 19071 1
21450 18927 19072 1
21451 18928 19073 1
21452 18928 19074 1
21453 18929 19075 1
21454 18929 19076 1
21455 18939 19077 1
21456 18939 19078 1
21457 18940 19079 1
21458 18941 19080 1
21459 18941 19081 1
21460 18942 19082 1
21461 18942 19083 1
21462 18945 19084 1
21463 18945 19085 1
21464 18946 19086 1
21465 18947 19087 1
21466 18947 19088 1
21467 18948 19089 1
21468 18948 19090 1
21469 18950 19091 1
21470 18954 19092 1
21471 18961 19093 1
21472 18967 19094 1
21473 18976 19095 1
21474 18977 19096 1
21475 18978 19097 1
21476 18979 19098 1
21477 18979 19099 1
21478 18980 19100 1
21479 18980 19101 1
21480 18981 19102 1
21481 18982 19103 1
21482 18983 19104 1
21483 18983 19105 1
21484 18984 19106 1
21485 18984 19107 1
21486 18985 19108 1
21487 18985 19109 1
21488 18986 19110 1
21489 18991 19111 1
21490 18992 19112 1
21491 18994 19113 1
21492 18994 19114 1
21493 18995 19115 1
21494 18995 19116 1
21495 18996 19117 1
21496 18996 19118 1
21497 18997 19119 1
21498 18997 19120 1
21499 18999 19121 1
21500 19002 19122 1
21501 19005 19123 1
21502 19009 19124 1
21503 19010 19125 1
21504 19012 19126 1
21505 19013 19127 1
21506 19013 19128 1
21507 19014 19129 1
21508 19014 19130 1
21509 19015 19131 1
21510 19015 19132 1
21511 19021 19133 1
21512 19022 19134 1
21513 19022 19135 1
21514 19022 19136 1
21515 19023 19137 1
21516 19023 19138 1
21517 19023 19139 1
21518 19024 19140 1
21519 19025 19141 1
21520 19026 19142 1
21521 19032 19143 1
21522 19033 19144 1
21523 19034 19145 1
21524 19041 19146 1
21525 19042 19147 1
21526 19043 19148 1
21527 19047 19149 1
21528 19047 19150 1
21529 19048 19151 1
21530 19048 19152 1
21531 19049 19153 1
21532 19049 19154 1
21533 19157 19156 1
21534 19158 19157 1
21535 19159 19158 1
21536 19160 19159 1
21537 19155 19156 1
21538 19155 19160 1
21539 19162 19161 1
21540 19163 19162 1
21541 19164 19163 1
21542 19158 19161 1
21543 19157 19164 1
21544 19166 19165 1
21545 19167 19166 1
21546 19168 19167 1
21547 19162 19165 1
21548 19161 19168 1
21549 19170 19169 un
21550 19171 19170 un
21551 19172 19171 un
21552 19167 19169 1
21553 19166 19172 1
21554 19174 19173 1
21555 19175 19174 un
21556 19176 19175 un
21557 19171 19173 un
21558 19170 19176 un
21559 19178 19177 1
21560 19179 19178 1
21561 19169 19179 1
21562 19176 19177 1
21563 19181 19180 1
21564 19182 19181 un
21565 19183 19182 un
21566 19175 19180 1
21567 19174 19183 un
21568 19185 19184 un
21569 19186 19185 2
21570 19172 19184 1
21571 19173 19186 un
21572 19188 19187 2
21573 19189 19188 1
21574 19190 19189 1
21575 19185 19187 1
21576 19184 19190 2
21577 19192 19191 1
21578 19193 19192 1
21579 19194 19193 2
21580 19188 19191 1
21581 19187 19194 1
21582 19196 19195 1
21583 19197 19196 1
21584 19198 19197 1
21585 19194 19195 1
21586 19193 19198 1
21587 19200 19199 un
21588 19186 19200 un
21589 19183 19199 un
21590 19202 19201 un
21591 19203 19202 1
21592 19199 19203 un
21593 19182 19201 un
21594 19205 19204 un
21595 19206 19205 un
21596 19207 19206 un
21597 19202 19204 un
21598 19201 19207 un
21599 19209 19208 un
21600 19210 19209 un
21601 19211 19210 un
21602 19206 19208 un
21603 19205 19211 un
21604 19213 19212 un
21605 19214 19213 un
21606 19215 19214 un
21607 19210 19212 un
21608 19209 19215 un
21609 19217 19216 un
21610 19181 19217 un
21611 19207 19216 un
21612 19219 19218 un
21613 19216 19219 un
21614 19208 19218 un
21615 19221 19220 un
21616 19218 19221 un
21617 19215 19220 un
21618 19223 19222 un
21619 19224 19223 un
21620 19220 19224 un
21621 19214 19222 un
21622 19226 19225 1
21623 19227 19226 1
21624 19228 19227 1
21625 19213 19225 1
21626 19212 19228 1
21627 19230 19229 1
21628 19231 19230 1
21629 19232 19231 1
21630 19227 19229 1
21631 19226 19232 1
21632 19234 19233 1
21633 19235 19234 1
21634 19236 19235 1
21635 19232 19233 1
21636 19231 19236 1
21637 19238 19237 un
21638 19239 19238 un
21639 19221 19239 un
21640 19219 19237 un
21641 19241 19240 1
21642 19242 19241 1
21643 19243 19242 1
21644 19238 19240 1
21645 19237 19243 1
21646 19245 19244 1
21647 19246 19245 1
21648 19247 19246 1
21649 19242 19244 1
21650 19241 19247 1
21651 19249 19248 un
21652 19239 19249 un
21653 19224 19248 un
21654 19251 19250 un
21655 19252 19251 un
21656 19248 19252 un
21657 19223 19250 un
21658 19254 19253 un
21659 19255 19254 un
21660 19222 19255 un
21661 19250 19253 un
21662 19257 19256 1
21663 19258 19257 un
21664 19251 19256 1
21665 19253 19258 1
21666 19260 19259 1
21667 19261 19260 1
21668 19254 19259 1
21669 19258 19261 un
21670 19263 19262 1
21671 19264 19263 1
21672 19265 19264 1
21673 19260 19262 1
21674 19259 19265 1
21675 19267 19266 1
21676 19268 19267 1
21677 19257 19268 un
21678 19261 19266 un
21679 19262 19269 1
21680 19266 19270 un
21681 19269 19270 un
21682 19196 19271 1
21683 19271 19272 1
21684 19271 19273 1
21685 19228 19274 1
21686 19276 19275 1
21687 19277 19276 un
21688 19278 19277 1
21689 19268 19275 un
21690 19267 19278 un
21691 19280 19279 un
21692 19281 19280 1
21693 19282 19281 un
21694 19278 19279 un
21695 19277 19282 un
21696 19284 19283 un
21697 19285 19284 1
21698 19286 19285 1
21699 19281 19283 un
21700 19280 19286 un
21701 19288 19287 un
21702 19289 19288 un
21703 19279 19289 un
21704 19286 19287 un
21705 19291 19290 un
21706 19292 19291 un
21707 19285 19292 un
21708 19287 19290 un
21709 19294 19293 un
21710 19288 19294 un
21711 19270 19289 un
21712 19269 19293 un
21713 19296 19295 un
21714 19294 19296 un
21715 19290 19295 un
21716 19298 19297 1
21717 19299 19298 1
21718 19300 19299 1
21719 19296 19297 1
21720 19295 19300 1
21721 19300 19301 2
21722 19155 19302 1
21723 19155 19303 1
21724 19156 19304 1
21725 19156 19305 1
21726 19157 19306 1
21727 19158 19307 1
21728 19159 19308 1
21729 19159 19309 1
21730 19161 19310 1
21731 19162 19311 1
21732 19163 19312 1
21733 19163 19313 1
21734 19164 19314 1
21735 19164 19315 1
21736 19166 19316 1
21737 19167 19317 1
21738 19168 19318 1
21739 19168 19319 1
21740 19172 19320 1
21741 19177 19321 1
21742 19177 19322 1
21743 19178 19323 1
21744 19178 19324 1
21745 19179 19325 1
21746 19179 19326 1
21747 19189 19327 1
21748 19189 19328 1
21749 19190 19329 1
21750 19191 19330 1
21751 19191 19331 1
21752 19192 19332 1
21753 19192 19333 1
21754 19195 19334 1
21755 19195 19335 1
21756 19196 19336 1
21757 19197 19337 1
21758 19197 19338 1
21759 19198 19339 1
21760 19198 19340 1
21761 19200 19341 1
21762 19204 19342 1
21763 19211 19343 1
21764 19217 19344 1
21765 19226 19345 1
21766 19227 19346 1
21767 19228 19347 1
21768 19229 19348 1
21769 19229 19349 1
21770 19230 19350 1
21771 19230 19351 1
21772 19231 19352 1
21773 19232 19353 1
21774 19233 19354 1
21775 19233 19355 1
21776 19234 19356 1
21777 19234 19357 1
21778 19235 19358 1
21779 19235 19359 1
21780 19236 19360 1
21781 19241 19361 1
21782 19242 19362 1
21783 19244 19363 1
21784 19244 19364 1
21785 19245 19365 1
21786 19245 19366 1
21787 19246 19367 1
21788 19246 19368 1
21789 19247 19369 1
21790 19247 19370 1
21791 19249 19371 1
21792 19252 19372 1
21793 19255 19373 1
21794 19259 19374 1
21795 19260 19375 1
21796 19262 19376 1
21797 19263 19377 1
21798 19263 19378 1
21799 19264 19379 1
21800 19264 19380 1
21801 19265 19381 1
21802 19265 19382 1
21803 19271 19383 1
21804 19272 19384 1
21805 19272 19385 1
21806 19272 19386 1
21807 19273 19387 1
21808 19273 19388 1
21809 19273 19389 1
21810 19274 19390 1
21811 19275 19391 1
21812 19276 19392 1
21813 19282 19393 1
21814 19283 19394 1
21815 19284 19395 1
21816 19291 19396 1
21817 19292 19397 1
21818 19293 19398 1
21819 19297 19399 1
21820 19297 19400 1
21821 19298 19401 1
21822 19298 19402 1
21823 19299 19403 1
21824 19299 19404 1
21825 19407 19406 1
21826 19408 19407 1
21827 19409 19408 1
21828 19410 19409 1
21829 19405 19406 1
21830 19405 19410 1
21831 19412 19411 1
21832 19413 19412 1
21833 19414 19413 1
21834 19408 19411 1
21835 19407 19414 1
21836 19416 19415 1
21837 19417 19416 1
21838 19418 19417 1
21839 19412 19415 1
21840 19411 19418 1
21841 19420 19419 un
21842 19421 19420 un
21843 19422 19421 un
21844 19417 19419 1
21845 19416 19422 1
21846 19424 19423 1
21847 19425 19424 un
21848 19426 19425 un
21849 19421 19423 un
21850 19420 19426 un
21851 19428 19427 1
21852 19429 19428 1
21853 19419 19429 1
21854 19426 19427 1
21855 19431 19430 1
21856 19432 19431 un
21857 19433 19432 un
21858 19425 19430 1
21859 19424 19433 un
21860 19435 19434 un
21861 19436 19435 2
21862 19422 19434 1
21863 19423 19436 un
21864 19438 19437 2
21865 19439 19438 1
21866 19440 19439 1
21867 19435 19437 1
21868 19434 19440 2
21869 19442 19441 1
21870 19443 19442 1
21871 19444 19443 2
21872 19438 19441 1
21873 19437 19444 1
21874 19446 19445 1
21875 19447 19446 1
21876 19448 19447 1
21877 19444 19445 1
21878 19443 19448 1
21879 19450 19449 un
21880 19436 19450 un
21881 19433 19449 un
21882 19452 19451 un
21883 19453 19452 1
21884 19449 19453 un
21885 19432 19451 un
21886 19455 19454 un
21887 19456 19455 un
21888 19457 19456 un
21889 19452 19454 un
21890 19451 19457 un
21891 19459 19458 un
21892 19460 19459 un
21893 19461 19460 un
21894 19456 19458 un
21895 19455 19461 un
21896 19463 19462 un
21897 19464 19463 un
21898 19465 19464 un
21899 19460 19462 un
21900 19459 19465 un
21901 19467 19466 un
21902 19431 19467 un
21903 19457 19466 un
21904 19469 19468 un
21905 19466 19469 un
21906 19458 19468 un
21907 19471 19470 un
21908 19468 19471 un
21909 19465 19470 un
21910 19473 19472 un
21911 19474 19473 un
21912 19470 19474 un
21913 19464 19472 un
21914 19476 19475 1
21915 19477 19476 1
21916 19478 19477 1
21917 19463 19475 1
21918 19462 19478 1
21919 19480 19479 1
21920 19481 19480 1
21921 19482 19481 1
21922 19477 19479 1
21923 19476 19482 1
21924 19484 19483 1
21925 19485 19484 1
21926 19486 19485 1
21927 19482 19483 1
21928 19481 19486 1
21929 19488 19487 un
21930 19489 19488 un
21931 19471 19489 un
21932 19469 19487 un
21933 19491 19490 1
21934 19492 19491 1
21935 19493 19492 1
21936 19488 19490 1
21937 19487 19493 1
21938 19495 19494 1
21939 19496 19495 1
21940 19497 19496 1
21941 19492 19494 1
21942 19491 19497 1
21943 19499 19498 un
21944 19489 19499 un
21945 19474 19498 un
21946 19501 19500 un
21947 19502 19501 un
21948 19498 19502 un
21949 19473 19500 un
21950 19504 19503 un
21951 19505 19504 un
21952 19472 19505 un
21953 19500 19503 un
21954 19507 19506 1
21955 19508 19507 un
21956 19501 19506 1
21957 19503 19508 1
21958 19510 19509 1
21959 19511 19510 1
21960 19504 19509 1
21961 19508 19511 un
21962 19513 19512 1
21963 19514 19513 1
21964 19515 19514 1
21965 19510 19512 1
21966 19509 19515 1
21967 19517 19516 1
21968 19518 19517 1
21969 19507 19518 un
21970 19511 19516 un
21971 19512 19519 1
21972 19516 19520 un
21973 19519 19520 un
21974 19446 19521 1
21975 19521 19522 1
21976 19521 19523 1
21977 19478 19524 1
21978 19526 19525 1
21979 19527 19526 un
21980 19528 19527 1
21981 19518 19525 un
21982 19517 19528 un
21983 19530 19529 un
21984 19531 19530 1
21985 19532 19531 un
21986 19528 19529 un
21987 19527 19532 un
21988 19534 19533 un
21989 19535 19534 1
21990 19536 19535 1
21991 19531 19533 un
21992 19530 19536 un
21993 19538 19537 un
21994 19539 19538 un
21995 19529 19539 un
21996 19536 19537 un
21997 19541 19540 un
21998 19542 19541 un
21999 19535 19542 un
22000 19537 19540 un
22001 19544 19543 un
22002 19538 19544 un
22003 19520 19539 un
22004 19519 19543 un
22005 19546 19545 un
22006 19544 19546 un
22007 19540 19545 un
22008 19548 19547 1
22009 19549 19548 1
22010 19550 19549 1
22011 19546 19547 1
22012 19545 19550 1
22013 19550 19551 2
22014 19405 19552 1
22015 19405 19553 1
22016 19406 19554 1
22017 19406 19555 1
22018 19407 19556 1
22019 19408 19557 1
22020 19409 19558 1
22021 19409 19559 1
22022 19411 19560 1
22023 19412 19561 1
22024 19413 19562 1
22025 19413 19563 1
22026 19414 19564 1
22027 19414 19565 1
22028 19416 19566 1
22029 19417 19567 1
22030 19418 19568 1
22031 19418 19569 1
22032 19422 19570 1
22033 19427 19571 1
22034 19427 19572 1
22035 19428 19573 1
22036 19428 19574 1
22037 19429 19575 1
22038 19429 19576 1
22039 19439 19577 1
22040 19439 19578 1
22041 19440 19579 1
22042 19441 19580 1
22043 19441 19581 1
22044 19442 19582 1
22045 19442 19583 1
22046 19445 19584 1
22047 19445 19585 1
22048 19446 19586 1
22049 19447 19587 1
22050 19447 19588 1
22051 19448 19589 1
22052 19448 19590 1
22053 19450 19591 1
22054 19454 19592 1
22055 19461 19593 1
22056 19467 19594 1
22057 19476 19595 1
22058 19477 19596 1
22059 19478 19597 1
22060 19479 19598 1
22061 19479 19599 1
22062 19480 19600 1
22063 19480 19601 1
22064 19481 19602 1
22065 19482 19603 1
22066 19483 19604 1
22067 19483 19605 1
22068 19484 19606 1
22069 19484 19607 1
22070 19485 19608 1
22071 19485 19609 1
22072 19486 19610 1
22073 19491 19611 1
22074 19492 19612 1
22075 19494 19613 1
22076 19494 19614 1
22077 19495 19615 1
22078 19495 19616 1
22079 19496 19617 1
22080 19496 19618 1
22081 19497 19619 1
22082 19497 19620 1
22083 19499 19621 1
22084 19502 19622 1
22085 19505 19623 1
22086 19509 19624 1
22087 19510 19625 1
22088 19512 19626 1
22089 19513 19627 1
22090 19513 19628 1
22091 19514 19629 1
22092 19514 19630 1
22093 19515 19631 1
22094 19515 19632 1
22095 19521 19633 1
22096 19522 19634 1
22097 19522 19635 1
22098 19522 19636 1
22099 19523 19637 1
22100 19523 19638 1
22101 19523 19639 1
22102 19524 19640 1
22103 19525 19641 1
22104 19526 19642 1
22105 19532 19643 1
22106 19533 19644 1
22107 19534 19645 1
22108 19541 19646 1
22109 19542 19647 1
22110 19543 19648 1
22111 19547 19649 1
22112 19547 19650 1
22113 19548 19651 1
22114 19548 19652 1
22115 19549 19653 1
22116 19549 19654 1
22117 19657 19656 1
22118 19658 19657 1
22119 19659 19658 1
22120 19660 19659 1
22121 19655 19656 1
22122 19655 19660 1
22123 19662 19661 1
22124 19663 19662 1
22125 19664 19663 1
22126 19658 19661 1
22127 19657 19664 1
22128 19666 19665 1
22129 19667 19666 1
22130 19668 19667 1
22131 19662 19665 1
22132 19661 19668 1
22133 19670 19669 un
22134 19671 19670 un
22135 19672 19671 un
22136 19667 19669 1
22137 19666 19672 1
22138 19674 19673 1
22139 19675 19674 un
22140 19676 19675 un
22141 19671 19673 un
22142 19670 19676 un
22143 19678 19677 1
22144 19679 19678 1
22145 19669 19679 1
22146 19676 19677 1
22147 19681 19680 1
22148 19682 19681 un
22149 19683 19682 un
22150 19675 19680 1
22151 19674 19683 un
22152 19685 19684 un
22153 19686 19685 2
22154 19672 19684 1
22155 19673 19686 un
22156 19688 19687 2
22157 19689 19688 1
22158 19690 19689 1
22159 19685 19687 1
22160 19684 19690 2
22161 19692 19691 1
22162 19693 19692 1
22163 19694 19693 2
22164 19688 19691 1
22165 19687 19694 1
22166 19696 19695 1
22167 19697 19696 1
22168 19698 19697 1
22169 19694 19695 1
22170 19693 19698 1
22171 19700 19699 un
22172 19686 19700 un
22173 19683 19699 un
22174 19702 19701 un
22175 19703 19702 1
22176 19699 19703 un
22177 19682 19701 un
22178 19705 19704 un
22179 19706 19705 un
22180 19707 19706 un
22181 19702 19704 un
22182 19701 19707 un
22183 19709 19708 un
22184 19710 19709 un
22185 19711 19710 un
22186 19706 19708 un
22187 19705 19711 un
22188 19713 19712 un
22189 19714 19713 un
22190 19715 19714 un
22191 19710 19712 un
22192 19709 19715 un
22193 19717 19716 un
22194 19681 19717 un
22195 19707 19716 un
22196 19719 19718 un
22197 19716 19719 un
22198 19708 19718 un
22199 19721 19720 un
22200 19718 19721 un
22201 19715 19720 un
22202 19723 19722 un
22203 19724 19723 un
22204 19720 19724 un
22205 19714 19722 un
22206 19726 19725 1
22207 19727 19726 1
22208 19728 19727 1
22209 19713 19725 1
22210 19712 19728 1
22211 19730 19729 1
22212 19731 19730 1
22213 19732 19731 1
22214 19727 19729 1
22215 19726 19732 1
22216 19734 19733 1
22217 19735 19734 1
22218 19736 19735 1
22219 19732 19733 1
22220 19731 19736 1
22221 19738 19737 un
22222 19739 19738 un
22223 19721 19739 un
22224 19719 19737 un
22225 19741 19740 1
22226 19742 19741 1
22227 19743 19742 1
22228 19738 19740 1
22229 19737 19743 1
22230 19745 19744 1
22231 19746 19745 1
22232 19747 19746 1
22233 19742 19744 1
22234 19741 19747 1
22235 19749 19748 un
22236 19739 19749 un
22237 19724 19748 un
22238 19751 19750 un
22239 19752 19751 un
22240 19748 19752 un
22241 19723 19750 un
22242 19754 19753 un
22243 19755 19754 un
22244 19722 19755 un
22245 19750 19753 un
22246 19757 19756 1
22247 19758 19757 un
22248 19751 19756 1
22249 19753 19758 1
22250 19760 19759 1
22251 19761 19760 1
22252 19754 19759 1
22253 19758 19761 un
22254 19763 19762 1
22255 19764 19763 1
22256 19765 19764 1
22257 19760 19762 1
22258 19759 19765 1
22259 19767 19766 1
22260 19768 19767 1
22261 19757 19768 un
22262 19761 19766 un
22263 19762 19769 1
22264 19766 19770 un
22265 19769 19770 un
22266 19696 19771 1
22267 19771 19772 1
22268 19771 19773 1
22269 19728 19774 1
22270 19776 19775 1
22271 19777 19776 un
22272 19778 19777 1
22273 19768 19775 un
22274 19767 19778 un
22275 19780 19779 un
22276 19781 19780 1
22277 19782 19781 un
22278 19778 19779 un
22279 19777 19782 un
22280 19784 19783 un
22281 19785 19784 1
22282 19786 19785 1
22283 19781 19783 un
22284 19780 19786 un
22285 19788 19787 un
22286 19789 19788 un
22287 19779 19789 un
22288 19786 19787 un
22289 19791 19790 un
22290 19792 19791 un
22291 19785 19792 un
22292 19787 19790 un
22293 19794 19793 un
22294 19788 19794 un
22295 19770 19789 un
22296 19769 19793 un
22297 19796 19795 un
22298 19794 19796 un
22299 19790 19795 un
22300 19798 19797 1
22301 19799 19798 1
22302 19800 19799 1
22303 19796 19797 1
22304 19795 19800 1
22305 19800 19801 2
22306 19655 19802 1
22307 19655 19803 1
22308 19656 19804 1
22309 19656 19805 1
22310 19657 19806 1
22311 19658 19807 1
22312 19659 19808 1
22313 19659 19809 1
22314 19661 19810 1
22315 19662 19811 1
22316 19663 19812 1
22317 19663 19813 1
22318 19664 19814 1
22319 19664 19815 1
22320 19666 19816 1
22321 19667 19817 1
22322 19668 19818 1
22323 19668 19819 1
22324 19672 19820 1
22325 19677 19821 1
22326 19677 19822 1
22327 19678 19823 1
22328 19678 19824 1
22329 19679 19825 1
22330 19679 19826 1
22331 19689 19827 1
22332 19689 19828 1
22333 19690 19829 1
22334 19691 19830 1
22335 19691 19831 1
22336 19692 19832 1
22337 19692 19833 1
22338 19695 19834 1
22339 19695 19835 1
22340 19696 19836 1
22341 19697 19837 1
22342 19697 19838 1
22343 19698 19839 1
22344 19698 19840 1
22345 19700 19841 1
22346 19704 19842 1
22347 19711 19843 1
22348 19717 19844 1
22349 19726 19845 1
22350 19727 19846 1
22351 19728 19847 1
22352 19729 19848 1
22353 19729 19849 1
22354 19730 19850 1
22355 19730 19851 1
22356 19731 19852 1
22357 19732 19853 1
22358 19733 19854 1
22359 19733 19855 1
22360 19734 19856 1
22361 19734 19857 1
22362 19735 19858 1
22363 19735 19859 1
22364 19736 19860 1
22365 19741 19861 1
22366 19742 19862 1
22367 19744 19863 1
22368 19744 19864 1
22369 19745 19865 1
22370 19745 19866 1
22371 19746 19867 1
22372 19746 19868 1
22373 19747 19869 1
22374 19747 19870 1
22375 19749 19871 1
22376 19752 19872 1
22377 19755 19873 1
22378 19759 19874 1
22379 19760 19875 1
22380 19762 19876 1
22381 19763 19877 1
22382 19763 19878 1
22383 19764 19879 1
22384 19764 19880 1
22385 19765 19881 1
22386 19765 19882 1
22387 19771 19883 1
22388 19772 19884 1
22389 19772 19885 1
22390 19772 19886 1
22391 19773 19887 1
22392 19773 19888 1
22393 19773 19889 1
22394 19774 19890 1
22395 19775 19891 1
22396 19776 19892 1
22397 19782 19893 1
22398 19783 19894 1
22399 19784 19895 1
22400 19791 19896 1
22401 19792 19897 1
22402 19793 19898 1
22403 19797 19899 1
22404 19797 19900 1
22405 19798 19901 1
22406 19798 19902 1
22407 19799 19903 1
22408 19799 19904 1
22409 19907 19906 1
22410 19908 19907 1
22411 19909 19908 1
22412 19910 19909 1
22413 19905 19906 1
22414 19905 19910 1
22415 19912 19911 1
22416 19913 19912 1
22417 19914 19913 1
22418 19908 19911 1
22419 19907 19914 1
22420 19916 19915 1
22421 19917 19916 1
22422 19918 19917 1
22423 19912 19915 1
22424 19911 19918 1
22425 19920 19919 un
22426 19921 19920 un
22427 19922 19921 un
22428 19917 19919 1
22429 19916 19922 1
22430 19924 19923 1
22431 19925 19924 un
22432 19926 19925 un
22433 19921 19923 un
22434 19920 19926 un
22435 19928 19927 1
22436 19929 19928 1
22437 19919 19929 1
22438 19926 19927 1
22439 19931 19930 1
22440 19932 19931 un
22441 19933 19932 un
22442 19925 19930 1
22443 19924 19933 un
22444 19935 19934 un
22445 19936 19935 2
22446 19922 19934 1
22447 19923 19936 un
22448 19938 19937 2
22449 19939 19938 1
22450 19940 19939 1
22451 19935 19937 1
22452 19934 19940 2
22453 19942 19941 1
22454 19943 19942 1
22455 19944 19943 2
22456 19938 19941 1
22457 19937 19944 1
22458 19946 19945 1
22459 19947 19946 1
22460 19948 19947 1
22461 19944 19945 1
22462 19943 19948 1
22463 19950 19949 un
22464 19936 19950 un
22465 19933 19949 un
22466 19952 19951 un
22467 19953 19952 1
22468 19949 19953 un
22469 19932 19951 un
22470 19955 19954 un
22471 19956 19955 un
22472 19957 19956 un
22473 19952 19954 un
22474 19951 19957 un
22475 19959 19958 un
22476 19960 19959 un
22477 19961 19960 un
22478 19956 19958 un
22479 19955 19961 un
22480 19963 19962 un
22481 19964 19963 un
22482 19965 19964 un
22483 19960 19962 un
22484 19959 19965 un
22485 19967 19966 un
22486 19931 19967 un
22487 19957 19966 un
22488 19969 19968 un
22489 19966 19969 un
22490 19958 19968 un
22491 19971 19970 un
22492 19968 19971 un
22493 19965 19970 un
22494 19973 19972 un
22495 19974 19973 un
22496 19970 19974 un
22497 19964 19972 un
22498 19976 19975 1
22499 19977 19976 1
22500 19978 19977 1
22501 19963 19975 1
22502 19962 19978 1
22503 19980 19979 1
22504 19981 19980 1
22505 19982 19981 1
22506 19977 19979 1
22507 19976 19982 1
22508 19984 19983 1
22509 19985 19984 1
22510 19986 19985 1
22511 19982 19983 1
22512 19981 19986 1
22513 19988 19987 un
22514 19989 19988 un
22515 19971 19989 un
22516 19969 19987 un
22517 19991 19990 1
22518 19992 19991 1
22519 19993 19992 1
22520 19988 19990 1
22521 19987 19993 1
22522 19995 19994 1
22523 19996 19995 1
22524 19997 19996 1
22525 19992 19994 1
22526 19991 19997 1
22527 19999 19998 un
22528 19989 19999 un
22529 19974 19998 un
22530 20001 20000 un
22531 20002 20001 un
22532 19998 20002 un
22533 19973 20000 un
22534 20004 20003 un
22535 20005 20004 un
22536 19972 20005 un
22537 20000 20003 un
22538 20007 20006 1
22539 20008 20007 un
22540 20001 20006 1
22541 20003 20008 1
22542 20010 20009 1
22543 20011 20010 1
22544 20004 20009 1
22545 20008 20011 un
22546 20013 20012 1
22547 20014 20013 1
22548 20015 20014 1
22549 20010 20012 1
22550 20009 20015 1
22551 20017 20016 1
22552 20018 20017 1
22553 20007 20018 un
22554 20011 20016 un
22555 20012 20019 1
22556 20016 20020 un
22557 20019 20020 un
22558 19946 20021 1
22559 20021 20022 1
22560 20021 20023 1
22561 19978 20024 1
22562 20026 20025 1
22563 20027 20026 un
22564 20028 20027 1
22565 20018 20025 un
22566 20017 20028 un
22567 20030 20029 un
22568 20031 20030 1
22569 20032 20031 un
22570 20028 20029 un
22571 20027 20032 un
22572 20034 20033 un
22573 20035 20034 1
22574 20036 20035 1
22575 20031 20033 un
22576 20030 20036 un
22577 20038 20037 un
22578 20039 20038 un
22579 20029 20039 un
22580 20036 20037 un
22581 20041 20040 un
22582 20042 20041 un
22583 20035 20042 un
22584 20037 20040 un
22585 20044 20043 un
22586 20038 20044 un
22587 20020 20039 un
22588 20019 20043 un
22589 20046 20045 un
22590 20044 20046 un
22591 20040 20045 un
22592 20048 20047 1
22593 20049 20048 1
22594 20050 20049 1
22595 20046 20047 1
22596 20045 20050 1
22597 20050 20051 2
22598 19905 20052 1
22599 19905 20053 1
22600 19906 20054 1
22601 19906 20055 1
22602 19907 20056 1
22603 19908 20057 1
22604 19909 20058 1
22605 19909 20059 1
22606 19911 20060 1
22607 19912 20061 1
22608 19913 20062 1
22609 19913 20063 1
22610 19914 20064 1
22611 19914 20065 1
22612 19916 20066 1
22613 19917 20067 1
22614 19918 20068 1
22615 19918 20069 1
22616 19922 20070 1
22617 19927 20071 1
22618 19927 20072 1
22619 19928 20073 1
22620 19928 20074 1
22621 19929 20075 1
22622 19929 20076 1
22623 19939 20077 1
22624 19939 20078 1
22625 19940 20079 1
22626 19941 20080 1
22627 19941 20081 1
22628 19942 20082 1
22629 19942 20083 1
22630 19945 20084 1
22631 19945 20085 1
22632 19946 20086 1
22633 19947 20087 1
22634 19947 20088 1
22635 19948 20089 1
22636 19948 20090 1
22637 19950 20091 1
22638 19954 20092 1
22639 19961 20093 1
22640 19967 20094 1
22641 19976 20095 1
22642 19977 20096 1
22643 19978 20097 1
22644 19979 20098 1
22645 19979 20099 1
22646 19980 20100 1
22647 19980 20101 1
22648 19981 20102 1
22649 19982 20103 1
22650 19983 20104 1
22651 19983 20105 1
22652 19984 20106 1
22653 19984 20107 1
22654 19985 20108 1
22655 19985 20109 1
22656 19986 20110 1
22657 19991 20111 1
22658 19992 20112 1
22659 19994 20113 1
22660 19994 20114 1
22661 19995 20115 1
22662 19995 20116 1
22663 19996 20117 1
22664 19996 20118 1
22665 19997 20119 1
22666 19997 20120 1
22667 19999 20121 1
22668 20002 20122 1
22669 20005 20123 1
22670 20009 20124 1
22671 20010 20125 1
22672 20012 20126 1
22673 20013 20127 1
22674 20013 20128 1
22675 20014 20129 1
22676 20014 20130 1
22677 20015 20131 1
22678 20015 20132 1
22679 20021 20133 1
22680 20022 20134 1
22681 20022 20135 1
22682 20022 20136 1
22683 20023 20137 1
22684 20023 20138 1
22685 20023 20139 1
22686 20024 20140 1
22687 20025 20141 1
22688 20026 20142 1
22689 20032 20143 1
22690 20033 20144 1
22691 20034 20145 1
22692 20041 20146 1
22693 20042 20147 1
22694 20043 20148 1
22695 20047 20149 1
22696 20047 20150 1
22697 20048 20151 1
22698 20048 20152 1
22699 20049 20153 1
22700 20049 20154 1
22701 20157 20156 1
22702 20158 20157 1
22703 20159 20158 1
22704 20160 20159 1
22705 20155 20156 1
22706 20155 20160 1
22707 20162 20161 1
22708 20163 20162 1
22709 20164 20163 1
22710 20158 20161 1
22711 20157 20164 1
22712 20166 20165 1
22713 20167 20166 1
22714 20168 20167 1
22715 20162 20165 1
22716 20161 20168 1
22717 20170 20169 un
22718 20171 20170 un
22719 20172 20171 un
22720 20167 20169 1
22721 20166 20172 1
22722 20174 20173 1
22723 20175 20174 un
22724 20176 20175 un
22725 20171 20173 un
22726 20170 20176 un
22727 20178 20177 1
22728 20179 20178 1
22729 20169 20179 1
22730 20176 20177 1
22731 20181 20180 1
22732 20182 20181 un
22733 20183 20182 un
22734 20175 20180 1
22735 20174 20183 un
22736 20185 20184 un
22737 20186 20185 2
22738 20172 20184 1
22739 20173 20186 un
22740 20188 20187 2
22741 20189 20188 1
22742 20190 20189 1
22743 20185 20187 1
22744 20184 20190 2
22745 20192 20191 1
22746 20193 20192 1
22747 20194 20193 2
22748 20188 20191 1
22749 20187 20194 1
22750 20196 20195 1
22751 20197 20196 1
22752 20198 20197 1
22753 20194 20195 1
22754 20193 20198 1
22755 20200 20199 un
22756 20186 20200 un
22757 20183 20199 un
22758 20202 20201 un
22759 20203 20202 1
22760 20199 20203 un
22761 20182 20201 un
22762 20205 20204 un
22763 20206 20205 un
22764 20207 20206 un
22765 20202 20204 un
22766 20201 20207 un
22767 20209 20208 un
22768 20210 20209 un
22769 20211 20210 un
22770 20206 20208 un
22771 20205 20211 un
22772 20213 20212 un
22773 20214 20213 un
22774 20215 20214 un
22775 20210 20212 un
22776 20209 20215 un
22777 20217 20216 un
22778 20181 20217 un
22779 20207 20216 un
22780 20219 20218 un
22781 20216 20219 un
22782 20208 20218 un
22783 20221 20220 un
22784 20218 20221 un
22785 20215 20220 un
22786 20223 20222 un
22787 20224 20223 un
22788 20220 20224 un
22789 20214 20222 un
22790 20226 20225 1
22791 20227 20226 1
22792 20228 20227 1
22793 20213 20225 1
22794 20212 20228 1
22795 20230 20229 1
22796 20231 20230 1
22797 20232 20231 1
22798 20227 20229 1
22799 20226 20232 1
22800 20234 20233 1
22801 20235 20234 1
22802 20236 20235 1
22803 20232 20233 1
22804 20231 20236 1
22805 20238 20237 un
22806 20239 20238 un
22807 20221 20239 un
22808 20219 20237 un
22809 20241 20240 1
22810 20242 20241 1
22811 20243 20242 1
22812 20238 20240 1
22813 20237 20243 1
22814 20245 20244 1
22815 20246 20245 1
22816 20247 20246 1
22817 20242 20244 1
22818 20241 20247 1
22819 20249 20248 un
22820 20239 20249 un
22821 20224 20248 un
22822 20251 20250 un
22823 20252 20251 un
22824 20248 20252 un
22825 20223 20250 un
22826 20254 20253 un
22827 20255 20254 un
22828 20222 20255 un
22829 20250 20253 un
22830 20257 20256 1
22831 20258 20257 un
22832 20251 20256 1
22833 20253 20258 1
22834 20260 20259 1
22835 20261 20260 1
22836 20254 20259 1
22837 20258 20261 un
22838 20263 20262 1
22839 20264 20263 1
22840 20265 20264 1
22841 20260 20262 1
22842 20259 20265 1
22843 20267 20266 1
22844 20268 20267 1
22845 20257 20268 un
22846 20261 20266 un
22847 20262 20269 1
22848 20266 20270 un
22849 20269 20270 un
22850 20196 20271 1
22851 20271 20272 1
22852 20271 20273 1
22853 20228 20274 1
22854 20276 20275 1
22855 20277 20276 un
22856 20278 20277 1
22857 20268 20275 un
22858 20267 20278 un
22859 20280 20279 un
22860 20281 20280 1
22861 20282 20281 un
22862 20278 20279 un
22863 20277 20282 un
22864 20284 20283 un
22865 20285 20284 1
22866 20286 20285 1
22867 20281 20283 un
22868 20280 20286 un
22869 20288 20287 un
22870 20289 20288 un
22871 20279 20289 un
22872 20286 20287 un
22873 20291 20290 un
22874 20292 20291 un
22875 20285 20292 un
22876 20287 20290 un
22877 20294 20293 un
22878 20288 20294 un
22879 20270 20289 un
22880 20269 20293 un
22881 20296 20295 un
22882 20294 20296 un
22883 20290 20295 un
22884 20298 20297 1
22885 20299 20298 1
22886 20300 20299 1
22887 20296 20297 1
22888 20295 20300 1
22889 20300 20301 2
22890 20155 20302 1
22891 20155 20303 1
22892 20156 20304 1
22893 20156 20305 1
22894 20157 20306 1
22895 20158 20307 1
22896 20159 20308 1
22897 20159 20309 1
22898 20161 20310 1
22899 20162 20311 1
22900 20163 20312 1
22901 20163 20313 1
22902 20164 20314 1
22903 20164 20315 1
22904 20166 20316 1
22905 20167 20317 1
22906 20168 20318 1
22907 20168 20319 1
22908 20172 20320 1
22909 20177 20321 1
22910 20177 20322 1
22911 20178 20323 1
22912 20178 20324 1
22913 20179 20325 1
22914 20179 20326 1
22915 20189 20327 1
22916 20189 20328 1
22917 20190 20329 1
22918 20191 20330 1
22919 20191 20331 1
22920 20192 20332 1
22921 20192 20333 1
22922 20195 20334 1
22923 20195 20335 1
22924 20196 20336 1
22925 20197 20337 1
22926 20197 20338 1
22927 20198 20339 1
22928 20198 20340 1
22929 20200 20341 1
22930 20204 20342 1
22931 20211 20343 1
22932 20217 20344 1
22933 20226 20345 1
22934 20227 20346 1
22935 20228 20347 1
22936 20229 20348 1
22937 20229 20349 1
22938 20230 20350 1
22939 20230 20351 1
22940 20231 20352 1
22941 20232 20353 1
22942 20233 20354 1
22943 20233 20355 1
22944 20234 20356 1
22945 20234 20357 1
22946 20235 20358 1
22947 20235 20359 1
22948 20236 20360 1
22949 20241 20361 1
22950 20242 20362 1
22951 20244 20363 1
22952 20244 20364 1
22953 20245 20365 1
22954 20245 20366 1
22955 20246 20367 1
22956 20246 20368 1
22957 20247 20369 1
22958 20247 20370 1
22959 20249 20371 1
22960 20252 20372 1
22961 20255 20373 1
22962 20259 20374 1
22963 20260 20375 1
22964 20262 20376 1
22965 20263 20377 1
22966 20263 20378 1
22967 20264 20379 1
22968 20264 20380 1
22969 20265 20381 1
22970 20265 20382 1
22971 20271 20383 1
22972 20272 20384 1
22973 20272 20385 1
22974 20272 20386 1
22975 20273 20387 1
22976 20273 20388 1
22977 20273 20389 1
22978 20274 20390 1
22979 20275 20391 1
22980 20276 20392 1
22981 20282 20393 1
22982 20283 20394 1
22983 20284 20395 1
22984 20291 20396 1
22985 20292 20397 1
22986 20293 20398 1
22987 20297 20399 1
22988 20297 20400 1
22989 20298 20401 1
22990 20298 20402 1
22991 20299 20403 1
22992 20299 20404 1
22993 20407 20406 1
22994 20408 20407 1
22995 20409 20408 1
22996 20410 20409 1
22997 20405 20406 1
22998 20405 20410 1
22999 20412 20411 1
23000 20413 20412 1
23001 20414 20413 1
23002 20408 20411 1
23003 20407 20414 1
23004 20416 20415 1
23005 20417 20416 1
23006 20418 20417 1
23007 20412 20415 1
23008 20411 20418 1
23009 20420 20419 un
23010 20421 20420 un
23011 20422 20421 un
23012 20417 20419 1
23013 20416 20422 1
23014 20424 20423 1
23015 20425 20424 un
23016 20426 20425 un
23017 20421 20423 un
23018 20420 20426 un
23019 20428 20427 1
23020 20429 20428 1
23021 20419 20429 1
23022 20426 20427 1
23023 20431 20430 1
23024 20432 20431 un
23025 20433 20432 un
23026 20425 20430 1
23027 20424 20433 un
23028 20435 20434 un
23029 20436 20435 2
23030 20422 20434 1
23031 20423 20436 un
23032 20438 20437 2
23033 20439 20438 1
23034 20440 20439 1
23035 20435 20437 1
23036 20434 20440 2
23037 20442 20441 1
23038 20443 20442 1
23039 20444 20443 2
23040 20438 20441 1
23041 20437 20444 1
23042 20446 20445 1
23043 20447 20446 1
23044 20448 20447 1
23045 20444 20445 1
23046 20443 20448 1
23047 20450 20449 un
23048 20436 20450 un
23049 20433 20449 un
23050 20452 20451 un
23051 20453 20452 1
23052 20449 20453 un
23053 20432 20451 un
23054 20455 20454 un
23055 20456 20455 un
23056 20457 20456 un
23057 20452 20454 un
23058 20451 20457 un
23059 20459 20458 un
23060 20460 20459 un
23061 20461 20460 un
23062 20456 20458 un
23063 20455 20461 un
23064 20463 20462 un
23065 20464 20463 un
23066 20465 20464 un
23067 20460 20462 un
23068 20459 20465 un
23069 20467 20466 un
23070 20431 20467 un
23071 20457 20466 un
23072 20469 20468 un
23073 20466 20469 un
23074 20458 20468 un
23075 20471 20470 un
23076 20468 20471 un
23077 20465 20470 un
23078 20473 20472 un
23079 20474 20473 un
23080 20470 20474 un
23081 20464 20472 un
23082 20476 20475 1
23083 20477 20476 1
23084 20478 20477 1
23085 20463 20475 1
23086 20462 20478 1
23087 20480 20479 1
23088 20481 20480 1
23089 20482 20481 1
23090 20477 20479 1
23091 20476 20482 1
23092 20484 20483 1
23093 20485 20484 1
23094 20486 20485 1
23095 20482 20483 1
23096 20481 20486 1
23097 20488 20487 un
23098 20489 20488 un
23099 20471 20489 un
23100 20469 20487 un
23101 20491 20490 1
23102 20492 20491 1
23103 20493 20492 1
23104 20488 20490 1
23105 20487 20493 1
23106 20495 20494 1
23107 20496 20495 1
23108 20497 20496 1
23109 20492 20494 1
23110 20491 20497 1
23111 20499 20498 un
23112 20489 20499 un
23113 20474 20498 un
23114 20501 20500 un
23115 20502 20501 un
23116 20498 20502 un
23117 20473 20500 un
23118 20504 20503 un
23119 20505 20504 un
23120 20472 20505 un
23121 20500 20503 un
23122 20507 20506 1
23123 20508 20507 un
23124 20501 20506 1
23125 20503 20508 1
23126 20510 20509 1
23127 20511 20510 1
23128 20504 20509 1
23129 20508 20511 un
23130 20513 20512 1
23131 20514 20513 1
23132 20515 20514 1
23133 20510 20512 1
23134 20509 20515 1
23135 20517 20516 1
23136 20518 20517 1
23137 20507 20518 un
23138 20511 20516 un
23139 20512 20519 1
23140 20516 20520 un
23141 20519 20520 un
23142 20446 20521 1
23143 20521 20522 1
23144 20521 20523 1
23145 20478 20524 1
23146 20526 20525 1
23147 20527 20526 un
23148 20528 20527 1
23149 20518 20525 un
23150 20517 20528 un
23151 20530 20529 un
23152 20531 20530 1
23153 20532 20531 un
23154 20528 20529 un
23155 20527 20532 un
23156 20534 20533 un
23157 20535 20534 1
23158 20536 20535 1
23159 20531 20533 un
23160 20530 20536 un
23161 20538 20537 un
23162 20539 20538 un
23163 20529 20539 un
23164 20536 20537 un
23165 20541 20540 un
23166 20542 20541 un
23167 20535 20542 un
23168 20537 20540 un
23169 20544 20543 un
23170 20538 20544 un
23171 20520 20539 un
23172 20519 20543 un
23173 20546 20545 un
23174 20544 20546 un
23175 20540 20545 un
23176 20548 20547 1
23177 20549 20548 1
23178 20550 20549 1
23179 20546 20547 1
23180 20545 20550 1
23181 20550 20551 2
23182 20405 20552 1
23183 20405 20553 1
23184 20406 20554 1
23185 20406 20555 1
23186 20407 20556 1
23187 20408 20557 1
23188 20409 20558 1
23189 20409 20559 1
23190 20411 20560 1
23191 20412 20561 1
23192 20413 20562 1
23193 20413 20563 1
23194 20414 20564 1
23195 20414 20565 1
23196 20416 20566 1
23197 20417 20567 1
23198 20418 20568 1
23199 20418 20569 1
23200 20422 20570 1
23201 20427 20571 1
23202 20427 20572 1
23203 20428 20573 1
23204 20428 20574 1
23205 20429 20575 1
23206 20429 20576 1
23207 20439 20577 1
23208 20439 20578 1
23209 20440 20579 1
23210 20441 20580 1
23211 20441 20581 1
23212 20442 20582 1
23213 20442 20583 1
23214 20445 20584 1
23215 20445 20585 1
23216 20446 20586 1
23217 20447 20587 1
23218 20447 20588 1
23219 20448 20589 1
23220 20448 20590 1
23221 20450 20591 1
23222 20454 20592 1
23223 20461 20593 1
23224 20467 20594 1
23225 20476 20595 1
23226 20477 20596 1
23227 20478 20597 1
23228 20479 20598 1
23229 20479 20599 1
23230 20480 20600 1
23231 20480 20601 1
23232 20481 20602 1
23233 20482 20603 1
23234 20483 20604 1
23235 20483 20605 1
23236 20484 20606 1
23237 20484 20607 1
23238 20485 20608 1
23239 20485 20609 1
23240 20486 20610 1
23241 20491 20611 1
23242 20492 20612 1
23243 20494 20613 1
23244 20494 20614 1
23245 20495 20615 1
23246 20495 20616 1
23247 20496 20617 1
23248 20496 20618 1
23249 20497 20619 1
23250 20497 20620 1
23251 20499 20621 1
23252 20502 20622 1
23253 20505 20623 1
23254 20509 20624 1
23255 20510 20625 1
23256 20512 20626 1
23257 20513 20627 1
23258 20513 20628 1
23259 20514 20629 1
23260 20514 20630 1
23261 20515 20631 1
23262 20515 20632 1
23263 20521 20633 1
23264 20522 20634 1
23265 20522 20635 1
23266 20522 20636 1
23267 20523 20637 1
23268 20523 20638 1
23269 20523 20639 1
23270 20524 20640 1
23271 20525 20641 1
23272 20526 20642 1
23273 20532 20643 1
23274 20533 20644 1
23275 20534 20645 1
23276 20541 20646 1
23277 20542 20647 1
23278 20543 20648 1
23279 20547 20649 1
23280 20547 20650 1
23281 20548 20651 1
23282 20548 20652 1
23283 20549 20653 1
23284 20549 20654 1
23285 20657 20656 1
23286 20658 20657 1
23287 20659 20658 1
23288 20660 20659 1
23289 20655 20656 1
23290 20655 20660 1
23291 20662 20661 1
23292 20663 20662 1
23293 20664 20663 1
23294 20658 20661 1
23295 20657 20664 1
23296 20666 20665 1
23297 20667 20666 1
23298 20668 20667 1
23299 20662 20665 1
23300 20661 20668 1
23301 20670 20669 un
23302 20671 20670 un
23303 20672 20671 un
23304 20667 20669 1
23305 20666 20672 1
23306 20674 20673 1
23307 20675 20674 un
23308 20676 20675 un
23309 20671 20673 un
23310 20670 20676 un
23311 20678 20677 1
23312 20679 20678 1
23313 20669 20679 1
23314 20676 20677 1
23315 20681 20680 1
23316 20682 20681 un
23317 20683 20682 un
23318 20675 20680 1
23319 20674 20683 un
23320 20685 20684 un
23321 20686 20685 2
23322 20672 20684 1
23323 20673 20686 un
23324 20688 20687 2
23325 20689 20688 1
23326 20690 20689 1
23327 20685 20687 1
23328 20684 20690 2
23329 20692 20691 1
23330 20693 20692 1
23331 20694 20693 2
23332 20688 20691 1
23333 20687 20694 1
23334 20696 20695 1
23335 20697 20696 1
23336 20698 20697 1
23337 20694 20695 1
23338 20693 20698 1
23339 20700 20699 un
23340 20686 20700 un
23341 20683 20699 un
23342 20702 20701 un
23343 20703 20702 1
23344 20699 20703 un
23345 20682 20701 un
23346 20705 20704 un
23347 20706 20705 un
23348 20707 20706 un
23349 20702 20704 un
23350 20701 20707 un
23351 20709 20708 un
23352 20710 20709 un
23353 20711 20710 un
23354 20706 20708 un
23355 20705 20711 un
23356 20713 20712 un
23357 20714 20713 un
23358 20715 20714 un
23359 20710 20712 un
23360 20709 20715 un
23361 20717 20716 un
23362 20681 20717 un
23363 20707 20716 un
23364 20719 20718 un
23365 20716 20719 un
23366 20708 20718 un
23367 20721 20720 un
23368 20718 20721 un
23369 20715 20720 un
23370 20723 20722 un
23371 20724 20723 un
23372 20720 20724 un
23373 20714 20722 un
23374 20726 20725 1
23375 20727 20726 1
23376 20728 20727 1
23377 20713 20725 1
23378 20712 20728 1
23379 20730 20729 1
23380 20731 20730 1
23381 20732 20731 1
23382 20727 20729 1
23383 20726 20732 1
23384 20734 20733 1
23385 20735 20734 1
23386 20736 20735 1
23387 20732 20733 1
23388 20731 20736 1
23389 20738 20737 un
23390 20739 20738 un
23391 20721 20739 un
23392 20719 20737 un
23393 20741 20740 1
23394 20742 20741 1
23395 20743 20742 1
23396 20738 20740 1
23397 20737 20743 1
23398 20745 20744 1
23399 20746 20745 1
23400 20747 20746 1
23401 20742 20744 1
23402 20741 20747 1
23403 20749 20748 un
23404 20739 20749 un
23405 20724 20748 un
23406 20751 20750 un
23407 20752 20751 un
23408 20748 20752 un
23409 20723 20750 un
23410 20754 20753 un
23411 20755 20754 un
23412 20722 20755 un
23413 20750 20753 un
23414 20757 20756 1
23415 20758 20757 un
23416 20751 20756 1
23417 20753 20758 1
23418 20760 20759 1
23419 20761 20760 1
23420 20754 20759 1
23421 20758 20761 un
23422 20763 20762 1
23423 20764 20763 1
23424 20765 20764 1
23425 20760 20762 1
23426 20759 20765 1
23427 20767 20766 1
23428 20768 20767 1
23429 20757 20768 un
23430 20761 20766 un
23431 20762 20769 1
23432 20766 20770 un
23433 20769 20770 un
23434 20696 20771 1
23435 20771 20772 1
23436 20771 20773 1
23437 20728 20774 1
23438 20776 20775 1
23439 20777 20776 un
23440 20778 20777 1
23441 20768 20775 un
23442 20767 20778 un
23443 20780 20779 un
23444 20781 20780 1
23445 20782 20781 un
23446 20778 20779 un
23447 20777 20782 un
23448 20784 20783 un
23449 20785 20784 1
23450 20786 20785 1
23451 20781 20783 un
23452 20780 20786 un
23453 20788 20787 un
23454 20789 20788 un
23455 20779 20789 un
23456 20786 20787 un
23457 20791 20790 un
23458 20792 20791 un
23459 20785 20792 un
23460 20787 20790 un
23461 20794 20793 un
23462 20788 20794 un
23463 20770 20789 un
23464 20769 20793 un
23465 20796 20795 un
23466 20794 20796 un
23467 20790 20795 un
23468 20798 20797 1
23469 20799 20798 1
23470 20800 20799 1
23471 20796 20797 1
23472 20795 20800 1
23473 20800 20801 2
23474 20655 20802 1
23475 20655 20803 1
23476 20656 20804 1
23477 20656 20805 1
23478 20657 20806 1
23479 20658 20807 1
23480 20659 20808 1
23481 20659 20809 1
23482 20661 20810 1
23483 20662 20811 1
23484 20663 20812 1
23485 20663 20813 1
23486 20664 20814 1
23487 20664 20815 1
23488 20666 20816 1
23489 20667 20817 1
23490 20668 20818 1
23491 20668 20819 1
23492 20672 20820 1
23493 20677 20821 1
23494 20677 20822 1
23495 20678 20823 1
23496 20678 20824 1
23497 20679 20825 1
23498 20679 20826 1
23499 20689 20827 1
23500 20689 20828 1
23501 20690 20829 1
23502 20691 20830 1
23503 20691 20831 1
23504 20692 20832 1
23505 20692 20833 1
23506 20695 20834 1
23507 20695 20835 1
23508 20696 20836 1
23509 20697 20837 1
23510 20697 20838 1
23511 20698 20839 1
23512 20698 20840 1
23513 20700 20841 1
23514 20704 20842 1
23515 20711 20843 1
23516 20717 20844 1
23517 20726 20845 1
23518 20727 20846 1
23519 20728 20847 1
23520 20729 20848 1
23521 20729 20849 1
23522 20730 20850 1
23523 20730 20851 1
23524 20731 20852 1
23525 20732 20853 1
23526 20733 20854 1
23527 20733 20855 1
23528 20734 20856 1
23529 20734 20857 1
23530 20735 20858 1
23531 20735 20859 1
23532 20736 20860 1
23533 20741 20861 1
23534 20742 20862 1
23535 20744 20863 1
23536 20744 20864 1
23537 20745 20865 1
23538 20745 20866 1
23539 20746 20867 1
23540 20746 20868 1
23541 20747 20869 1
23542 20747 20870 1
23543 20749 20871 1
23544 20752 20872 1
23545 20755 20873 1
23546 20759 20874 1
23547 20760 20875 1
23548 20762 20876 1
23549 20763 20877 1
23550 20763 20878 1
23551 20764 20879 1
23552 20764 20880 1
23553 20765 20881 1
23554 20765 20882 1
23555 20771 20883 1
23556 20772 20884 1
23557 20772 20885 1
23558 20772 20886 1
23559 20773 20887 1
23560 20773 20888 1
23561 20773 20889 1
23562 20774 20890 1
23563 20775 20891 1
23564 20776 20892 1
23565 20782 20893 1
23566 20783 20894 1
23567 20784 20895 1
23568 20791 20896 1
23569 20792 20897 1
23570 20793 20898 1
23571 20797 20899 1
23572 20797 20900 1
23573 20798 20901 1
23574 20798 20902 1
23575 20799 20903 1
23576 20799 20904 1
23577 20907 20906 1
23578 20908 20907 1
23579 20909 20908 1
23580 20910 20909 1
23581 20905 20906 1
23582 20905 20910 1
23583 20912 20911 1
23584 20913 20912 1
23585 20914 20913 1
23586 20908 20911 1
23587 20907 20914 1
23588 20916 20915 1
23589 20917 20916 1
23590 20918 20917 1
23591 20912 20915 1
23592 20911 20918 1
23593 20920 20919 un
23594 20921 20920 un
23595 20922 20921 un
23596 20917 20919 1
23597 20916 20922 1
23598 20924 20923 1
23599 20925 20924 un
23600 20926 20925 un
23601 20921 20923 un
23602 20920 20926 un
23603 20928 20927 1
23604 20929 20928 1
23605 20919 20929 1
23606 20926 20927 1
23607 20931 20930 1
23608 20932 20931 un
23609 20933 20932 un
23610 20925 20930 1
23611 20924 20933 un
23612 20935 20934 un
23613 20936 20935 2
23614 20922 20934 1
23615 20923 20936 un
23616 20938 20937 2
23617 20939 20938 1
23618 20940 20939 1
23619 20935 20937 1
23620 20934 20940 2
23621 20942 20941 1
23622 20943 20942 1
23623 20944 20943 2
23624 20938 20941 1
23625 20937 20944 1
23626 20946 20945 1
23627 20947 20946 1
23628 20948 20947 1
23629 20944 20945 1
23630 20943 20948 1
23631 20950 20949 un
23632 20936 20950 un
23633 20933 20949 un
23634 20952 20951 un
23635 20953 20952 1
23636 20949 20953 un
23637 20932 20951 un
23638 20955 20954 un
23639 20956 20955 un
23640 20957 20956 un
23641 20952 20954 un
23642 20951 20957 un
23643 20959 20958 un
23644 20960 20959 un
23645 20961 20960 un
23646 20956 20958 un
23647 20955 20961 un
23648 20963 20962 un
23649 20964 20963 un
23650 20965 20964 un
23651 20960 20962 un
23652 20959 20965 un
23653 20967 20966 un
23654 20931 20967 un
23655 20957 20966 un
23656 20969 20968 un
23657 20966 20969 un
23658 20958 20968 un
23659 20971 20970 un
23660 20968 20971 un
23661 20965 20970 un
23662 20973 20972 un
23663 20974 20973 un
23664 20970 20974 un
23665 20964 20972 un
23666 20976 20975 1
23667 20977 20976 1
23668 20978 20977 1
23669 20963 20975 1
23670 20962 20978 1
23671 20980 20979 1
23672 20981 20980 1
23673 20982 20981 1
23674 20977 20979 1
23675 20976 20982 1
23676 20984 20983 1
23677 20985 20984 1
23678 20986 20985 1
23679 20982 20983 1
23680 20981 20986 1
23681 20988 20987 un
23682 20989 20988 un
23683 20971 20989 un
23684 20969 20987 un
23685 20991 20990 1
23686 20992 20991 1
23687 20993 20992 1
23688 20988 20990 1
23689 20987 20993 1
23690 20995 20994 1
23691 20996 20995 1
23692 20997 20996 1
23693 20992 20994 1
23694 20991 20997 1
23695 20999 20998 un
23696 20989 20999 un
23697 20974 20998 un
23698 21001 21000 un
23699 21002 21001 un
23700 20998 21002 un
23701 20973 21000 un
23702 21004 21003 un
23703 21005 21004 un
23704 20972 21005 un
23705 21000 21003 un
23706 21007 21006 1
23707 21008 21007 un
23708 21001 21006 1
23709 21003 21008 1
23710 21010 21009 1
23711 21011 21010 1
23712 21004 21009 1
23713 21008 21011 un
23714 21013 21012 1
23715 21014 21013 1
23716 21015 21014 1
23717 21010 21012 1
23718 21009 21015 1
23719 21017 21016 1
23720 21018 21017 1
23721 21007 21018 un
23722 21011 21016 un
23723 21012 21019 1
23724 21016 21020 un
23725 21019 21020 un
23726 20946 21021 1
23727 21021 21022 1
23728 21021 21023 1
23729 20978 21024 1
23730 21026 21025 1
23731 21027 21026 un
23732 21028 21027 1
23733 21018 21025 un
23734 21017 21028 un
23735 21030 21029 un
23736 21031 21030 1
23737 21032 21031 un
23738 21028 21029 un
23739 21027 21032 un
23740 21034 21033 un
23741 21035 21034 1
23742 21036 21035 1
23743 21031 21033 un
23744 21030 21036 un
23745 21038 21037 un
23746 21039 21038 un
23747 21029 21039 un
23748 21036 21037 un
23749 21041 21040 un
23750 21042 21041 un
23751 21035 21042 un
23752 21037 21040 un
23753 21044 21043 un
23754 21038 21044 un
23755 21020 21039 un
23756 21019 21043 un
23757 21046 21045 un
23758 21044 21046 un
23759 21040 21045 un
23760 21048 21047 1
23761 21049 21048 1
23762 21050 21049 1
23763 21046 21047 1
23764 21045 21050 1
23765 21050 21051 2
23766 20905 21052 1
23767 20905 21053 1
23768 20906 21054 1
23769 20906 21055 1
23770 20907 21056 1
23771 20908 21057 1
23772 20909 21058 1
23773 20909 21059 1
23774 20911 21060 1
23775 20912 21061 1
23776 20913 21062 1
23777 20913 21063 1
23778 20914 21064 1
23779 20914 21065 1
23780 20916 21066 1
23781 20917 21067 1
23782 20918 21068 1
23783 20918 21069 1
23784 20922 21070 1
23785 20927 21071 1
23786 20927 21072 1
23787 20928 21073 1
23788 20928 21074 1
23789 20929 21075 1
23790 20929 21076 1
23791 20939 21077 1
23792 20939 21078 1
23793 20940 21079 1
23794 20941 21080 1
23795 20941 21081 1
23796 20942 21082 1
23797 20942 21083 1
23798 20945 21084 1
23799 20945 21085 1
23800 20946 21086 1
23801 20947 21087 1
23802 20947 21088 1
23803 20948 21089 1
23804 20948 21090 1
23805 20950 21091 1
23806 20954 21092 1
23807 20961 21093 1
23808 20967 21094 1
23809 20976 21095 1
23810 20977 21096 1
23811 20978 21097 1
23812 20979 21098 1
23813 20979 21099 1
23814 20980 21100 1
23815 20980 21101 1
23816 20981 21102 1
23817 20982 21103 1
23818 20983 21104 1
23819 20983 21105 1
23820 20984 21106 1
23821 20984 21107 1
23822 20985 21108 1
23823 20985 21109 1
23824 20986 21110 1
23825 20991 21111 1
23826 20992 21112 1
23827 20994 21113 1
23828 20994 21114 1
23829 20995 21115 1
23830 20995 21116 1
23831 20996 21117 1
23832 20996 21118 1
23833 20997 21119 1
23834 20997 21120 1
23835 20999 21121 1
23836 21002 21122 1
23837 21005 21123 1
23838 21009 21124 1
23839 21010 21125 1
23840 21012 21126 1
23841 21013 21127 1
23842 21013 21128 1
23843 21014 21129 1
23844 21014 21130 1
23845 21015 21131 1
23846 21015 21132 1
23847 21021 21133 1
23848 21022 21134 1
23849 21022 21135 1
23850 21022 21136 1
23851 21023 21137 1
23852 21023 21138 1
23853 21023 21139 1
23854 21024 21140 1
23855 21025 21141 1
23856 21026 21142 1
23857 21032 21143 1
23858 21033 21144 1
23859 21034 21145 1
23860 21041 21146 1
23861 21042 21147 1
23862 21043 21148 1
23863 21047 21149 1
23864 21047 21150 1
23865 21048 21151 1
23866 21048 21152 1
23867 21049 21153 1
23868 21049 21154 1
23869 21157 21156 1
23870 21158 21157 1
23871 21159 21158 1
23872 21160 21159 1
23873 21155 21156 1
23874 21155 21160 1
23875 21162 21161 1
23876 21163 21162 1
23877 21164 21163 1
23878 21158 21161 1
23879 21157 21164 1
23880 21166 21165 1
23881 21167 21166 1
23882 21168 21167 1
23883 21162 21165 1
23884 21161 21168 1
23885 21170 21169 un
23886 21171 21170 un
23887 21172 21171 un
23888 21167 21169 1
23889 21166 21172 1
23890 21174 21173 1
23891 21175 21174 un
23892 21176 21175 un
23893 21171 21173 un
23894 21170 21176 un
23895 21178 21177 1
23896 21179 21178 1
23897 21169 21179 1
23898 21176 21177 1
23899 21181 21180 1
23900 21182 21181 un
23901 21183 21182 un
23902 21175 21180 1
23903 21174 21183 un
23904 21185 21184 un
23905 21186 21185 2
23906 21172 21184 1
23907 21173 21186 un
23908 21188 21187 2
23909 21189 21188 1
23910 21190 21189 1
23911 21185 21187 1
23912 21184 21190 2
23913 21192 21191 1
23914 21193 21192 1
23915 21194 21193 2
23916 21188 21191 1
23917 21187 21194 1
23918 21196 21195 1
23919 21197 21196 1
23920 21198 21197 1
23921 21194 21195 1
23922 21193 21198 1
23923 21200 21199 un
23924 21186 21200 un
23925 21183 21199 un
23926 21202 21201 un
23927 21203 21202 1
23928 21199 21203 un
23929 21182 21201 un
23930 21205 21204 un
23931 21206 21205 un
23932 21207 21206 un
23933 21202 21204 un
23934 21201 21207 un
23935 21209 21208 un
23936 21210 21209 un
23937 21211 21210 un
23938 21206 21208 un
23939 21205 21211 un
23940 21213 21212 un
23941 21214 21213 un
23942 21215 21214 un
23943 21210 21212 un
23944 21209 21215 un
23945 21217 21216 un
23946 21181 21217 un
23947 21207 21216 un
23948 21219 21218 un
23949 21216 21219 un
23950 21208 21218 un
23951 21221 21220 un
23952 21218 21221 un
23953 21215 21220 un
23954 21223 21222 un
23955 21224 21223 un
23956 21220 21224 un
23957 21214 21222 un
23958 21226 21225 1
23959 21227 21226 1
23960 21228 21227 1
23961 21213 21225 1
23962 21212 21228 1
23963 21230 21229 1
23964 21231 21230 1
23965 21232 21231 1
23966 21227 21229 1
23967 21226 21232 1
23968 21234 21233 1
23969 21235 21234 1
23970 21236 21235 1
23971 21232 21233 1
23972 21231 21236 1
23973 21238 21237 un
23974 21239 21238 un
23975 21221 21239 un
23976 21219 21237 un
23977 21241 21240 1
23978 21242 21241 1
23979 21243 21242 1
23980 21238 21240 1
23981 21237 21243 1
23982 21245 21244 1
23983 21246 21245 1
23984 21247 21246 1
23985 21242 21244 1
23986 21241 21247 1
23987 21249 21248 un
23988 21239 21249 un
23989 21224 21248 un
23990 21251 21250 un
23991 21252 21251 un
23992 21248 21252 un
23993 21223 21250 un
23994 21254 21253 un
23995 21255 21254 un
23996 21222 21255 un
23997 21250 21253 un
23998 21257 21256 1
23999 21258 21257 un
24000 21251 21256 1
24001 21253 21258 1
24002 21260 21259 1
24003 21261 21260 1
24004 21254 21259 1
24005 21258 21261 un
24006 21263 21262 1
24007 21264 21263 1
24008 21265 21264 1
24009 21260 21262 1
24010 21259 21265 1
24011 21267 21266 1
24012 21268 21267 1
24013 21257 21268 un
24014 21261 21266 un
24015 21262 21269 1
24016 21266 21270 un
24017 21269 21270 un
24018 21196 21271 1
24019 21271 21272 1
24020 21271 21273 1
24021 21228 21274 1
24022 21276 21275 1
24023 21277 21276 un
24024 21278 21277 1
24025 21268 21275 un
24026 21267 21278 un
24027 21280 21279 un
24028 21281 21280 1
24029 21282 21281 un
24030 21278 21279 un
24031 21277 21282 un
24032 21284 21283 un
24033 21285 21284 1
24034 21286 21285 1
24035 21281 21283 un
24036 21280 21286 un
24037 21288 21287 un
24038 21289 21288 un
24039 21279 21289 un
24040 21286 21287 un
24041 21291 21290 un
24042 21292 21291 un
24043 21285 21292 un
24044 21287 21290 un
24045 21294 21293 un
24046 21288 21294 un
24047 21270 21289 un
24048 21269 21293 un
24049 21296 21295 un
24050 21294 21296 un
24051 21290 21295 un
24052 21298 21297 1
24053 21299 21298 1
24054 21300 21299 1
24055 21296 21297 1
24056 21295 21300 1
24057 21300 21301 2
24058 21155 21302 1
24059 21155 21303 1
24060 21156 21304 1
24061 21156 21305 1
24062 21157 21306 1
24063 21158 21307 1
24064 21159 21308 1
24065 21159 21309 1
24066 21161 21310 1
24067 21162 21311 1
24068 21163 21312 1
24069 21163 21313 1
24070 21164 21314 1
24071 21164 21315 1
24072 21166 21316 1
24073 21167 21317 1
24074 21168 21318 1
24075 21168 21319 1
24076 21172 21320 1
24077 21177 21321 1
24078 21177 21322 1
24079 21178 21323 1
24080 21178 21324 1
24081 21179 21325 1
24082 21179 21326 1
24083 21189 21327 1
24084 21189 21328 1
24085 21190 21329 1
24086 21191 21330 1
24087 21191 21331 1
24088 21192 21332 1
24089 21192 21333 1
24090 21195 21334 1
24091 21195 21335 1
24092 21196 21336 1
24093 21197 21337 1
24094 21197 21338 1
24095 21198 21339 1
24096 21198 21340 1
24097 21200 21341 1
24098 21204 21342 1
24099 21211 21343 1
24100 21217 21344 1
24101 21226 21345 1
24102 21227 21346 1
24103 21228 21347 1
24104 21229 21348 1
24105 21229 21349 1
24106 21230 21350 1
24107 21230 21351 1
24108 21231 21352 1
24109 21232 21353 1
24110 21233 21354 1
24111 21233 21355 1
24112 21234 21356 1
24113 21234 21357 1
24114 21235 21358 1
24115 21235 21359 1
24116 21236 21360 1
24117 21241 21361 1
24118 21242 21362 1
24119 21244 21363 1
24120 21244 21364 1
24121 21245 21365 1
24122 21245 21366 1
24123 21246 21367 1
24124 21246 21368 1
24125 21247 21369 1
24126 21247 21370 1
24127 21249 21371 1
24128 21252 21372 1
24129 21255 21373 1
24130 21259 21374 1
24131 21260 21375 1
24132 21262 21376 1
24133 21263 21377 1
24134 21263 21378 1
24135 21264 21379 1
24136 21264 21380 1
24137 21265 21381 1
24138 21265 21382 1
24139 21271 21383 1
24140 21272 21384 1
24141 21272 21385 1
24142 21272 21386 1
24143 21273 21387 1
24144 21273 21388 1
24145 21273 21389 1
24146 21274 21390 1
24147 21275 21391 1
24148 21276 21392 1
24149 21282 21393 1
24150 21283 21394 1
24151 21284 21395 1
24152 21291 21396 1
24153 21292 21397 1
24154 21293 21398 1
24155 21297 21399 1
24156 21297 21400 1
24157 21298 21401 1
24158 21298 21402 1
24159 21299 21403 1
24160 21299 21404 1
24161 21407 21406 1
24162 21408 21407 1
24163 21409 21408 1
24164 21410 21409 1
24165 21405 21406 1
24166 21405 21410 1
24167 21412 21411 1
24168 21413 21412 1
24169 21414 21413 1
24170 21408 21411 1
24171 21407 21414 1
24172 21416 21415 1
24173 21417 21416 1
24174 21418 21417 1
24175 21412 21415 1
24176 21411 21418 1
24177 21420 21419 un
24178 21421 21420 un
24179 21422 21421 un
24180 21417 21419 1
24181 21416 21422 1
24182 21424 21423 1
24183 21425 21424 un
24184 21426 21425 un
24185 21421 21423 un
24186 21420 21426 un
24187 21428 21427 1
24188 21429 21428 1
24189 21419 21429 1
24190 21426 21427 1
24191 21431 21430 1
24192 21432 21431 un
24193 21433 21432 un
24194 21425 21430 1
24195 21424 21433 un
24196 21435 21434 un
24197 21436 21435 2
24198 21422 21434 1
24199 21423 21436 un
24200 21438 21437 2
24201 21439 21438 1
24202 21440 21439 1
24203 21435 21437 1
24204 21434 21440 2
24205 21442 21441 1
24206 21443 21442 1
24207 21444 21443 2
24208 21438 21441 1
24209 21437 21444 1
24210 21446 21445 1
24211 21447 21446 1
24212 21448 21447 1
24213 21444 21445 1
24214 21443 21448 1
24215 21450 21449 un
24216 21436 21450 un
24217 21433 21449 un
24218 21452 21451 un
24219 21453 21452 1
24220 21449 21453 un
24221 21432 21451 un
24222 21455 21454 un
24223 21456 21455 un
24224 21457 21456 un
24225 21452 21454 un
24226 21451 21457 un
24227 21459 21458 un
24228 21460 21459 un
24229 21461 21460 un
24230 21456 21458 un
24231 21455 21461 un
24232 21463 21462 un
24233 21464 21463 un
24234 21465 21464 un
24235 21460 21462 un
24236 21459 21465 un
24237 21467 21466 un
24238 21431 21467 un
24239 21457 21466 un
24240 21469 21468 un
24241 21466 21469 un
24242 21458 21468 un
24243 21471 21470 un
24244 21468 21471 un
24245 21465 21470 un
24246 21473 21472 un
24247 21474 21473 un
24248 21470 21474 un
24249 21464 21472 un
24250 21476 21475 1
24251 21477 21476 1
24252 21478 21477 1
24253 21463 21475 1
24254 21462 21478 1
24255 21480 21479 1
24256 21481 21480 1
24257 21482 21481 1
24258 21477 21479 1
24259 21476 21482 1
24260 21484 21483 1
24261 21485 21484 1
24262 21486 21485 1
24263 21482 21483 1
24264 21481 21486 1
24265 21488 21487 un
24266 21489 21488 un
24267 21471 21489 un
24268 21469 21487 un
24269 21491 21490 1
24270 21492 21491 1
24271 21493 21492 1
24272 21488 21490 1
24273 21487 21493 1
24274 21495 21494 1
24275 21496 21495 1
24276 21497 21496 1
24277 21492 21494 1
24278 21491 21497 1
24279 21499 21498 un
24280 21489 21499 un
24281 21474 21498 un
24282 21501 21500 un
24283 21502 21501 un
24284 21498 21502 un
24285 21473 21500 un
24286 21504 21503 un
24287 21505 21504 un
24288 21472 21505 un
24289 21500 21503 un
24290 21507 21506 1
24291 21508 21507 un
24292 21501 21506 1
24293 21503 21508 1
24294 21510 21509 1
24295 21511 21510 1
24296 21504 21509 1
24297 21508 21511 un
24298 21513 21512 1
24299 21514 21513 1
24300 21515 21514 1
24301 21510 21512 1
24302 21509 21515 1
24303 21517 21516 1
24304 21518 21517 1
24305 21507 21518 un
24306 21511 21516 un
24307 21512 21519 1
24308 21516 21520 un
24309 21519 21520 un
24310 21446 21521 1
24311 21521 21522 1
24312 21521 21523 1
24313 21478 21524 1
24314 21526 21525 1
24315 21527 21526 un
24316 21528 21527 1
24317 21518 21525 un
24318 21517 21528 un
24319 21530 21529 un
24320 21531 21530 1
24321 21532 21531 un
24322 21528 21529 un
24323 21527 21532 un
24324 21534 21533 un
24325 21535 21534 1
24326 21536 21535 1
24327 21531 21533 un
24328 21530 21536 un
24329 21538 21537 un
24330 21539 21538 un
24331 21529 21539 un
24332 21536 21537 un
24333 21541 21540 un
24334 21542 21541 un
24335 21535 21542 un
24336 21537 21540 un
24337 21544 21543 un
24338 21538 21544 un
24339 21520 21539 un
24340 21519 21543 un
24341 21546 21545 un
24342 21544 21546 un
24343 21540 21545 un
24344 21548 21547 1
24345 21549 21548 1
24346 21550 21549 1
24347 21546 21547 1
24348 21545 21550 1
24349 21550 21551 2
24350 21405 21552 1
24351 21405 21553 1
24352 21406 21554 1
24353 21406 21555 1
24354 21407 21556 1
24355 21408 21557 1
24356 21409 21558 1
24357 21409 21559 1
24358 21411 21560 1
24359 21412 21561 1
24360 21413 21562 1
24361 21413 21563 1
24362 21414 21564 1
24363 21414 21565 1
24364 21416 21566 1
24365 21417 21567 1
24366 21418 21568 1
24367 21418 21569 1
24368 21422 21570 1
24369 21427 21571 1
24370 21427 21572 1
24371 21428 21573 1
24372 21428 21574 1
24373 21429 21575 1
24374 21429 21576 1
24375 21439 21577 1
24376 21439 21578 1
24377 21440 21579 1
24378 21441 21580 1
24379 21441 21581 1
24380 21442 21582 1
24381 21442 21583 1
24382 21445 21584 1
24383 21445 21585 1
24384 21446 21586 1
24385 21447 21587 1
24386 21447 21588 1
24387 21448 21589 1
24388 21448 21590 1
24389 21450 21591 1
24390 21454 21592 1
24391 21461 21593 1
24392 21467 21594 1
24393 21476 21595 1
24394 21477 21596 1
24395 21478 21597 1
24396 21479 21598 1
24397 21479 21599 1
24398 21480 21600 1
24399 21480 21601 1
24400 21481 21602 1
24401 21482 21603 1
24402 21483 21604 1
24403 21483 21605 1
24404 21484 21606 1
24405 21484 21607 1
24406 21485 21608 1
24407 21485 21609 1
24408 21486 21610 1
24409 21491 21611 1
24410 21492 21612 1
24411 21494 21613 1
24412 21494 21614 1
24413 21495 21615 1
24414 21495 21616 1
24415 21496 21617 1
24416 21496 21618 1
24417 21497 21619 1
24418 21497 21620 1
24419 21499 21621 1
24420 21502 21622 1
24421 21505 21623 1
24422 21509 21624 1
24423 21510 21625 1
24424 21512 21626 1
24425 21513 21627 1
24426 21513 21628 1
24427 21514 21629 1
24428 21514 21630 1
24429 21515 21631 1
24430 21515 21632 1
24431 21521 21633 1
24432 21522 21634 1
24433 21522 21635 1
24434 21522 21636 1
24435 21523 21637 1
24436 21523 21638 1
24437 21523 21639 1
24438 21524 21640 1
24439 21525 21641 1
24440 21526 21642 1
24441 21532 21643 1
24442 21533 21644 1
24443 21534 21645 1
24444 21541 21646 1
24445 21542 21647 1
24446 21543 21648 1
24447 21547 21649 1
24448 21547 21650 1
24449 21548 21651 1
24450 21548 21652 1
24451 21549 21653 1
24452 21549 21654 1
24453 21657 21656 1
24454 21658 21657 1
24455 21659 21658 1
24456 21660 21659 1
24457 21655 21656 1
24458 21655 21660 1
24459 21662 21661 1
24460 21663 21662 1
24461 21664 21663 1
24462 21658 21661 1
24463 21657 21664 1
24464 21666 21665 1
24465 21667 21666 1
24466 21668 21667 1
24467 21662 21665 1
24468 21661 21668 1
24469 21670 21669 un
24470 21671 21670 un
24471 21672 21671 un
24472 21667 21669 1
24473 21666 21672 1
24474 21674 21673 1
24475 21675 21674 un
24476 21676 21675 un
24477 21671 21673 un
24478 21670 21676 un
24479 21678 21677 1
24480 21679 21678 1
24481 21669 21679 1
24482 21676 21677 1
24483 21681 21680 1
24484 21682 21681 un
24485 21683 21682 un
24486 21675 21680 1
24487 21674 21683 un
24488 21685 21684 un
24489 21686 21685 2
24490 21672 21684 1
24491 21673 21686 un
24492 21688 21687 2
24493 21689 21688 1
24494 21690 21689 1
24495 21685 21687 1
24496 21684 21690 2
24497 21692 21691 1
24498 21693 21692 1
24499 21694 21693 2
24500 21688 21691 1
24501 21687 21694 1
24502 21696 21695 1
24503 21697 21696 1
24504 21698 21697 1
24505 21694 21695 1
24506 21693 21698 1
24507 21700 21699 un
24508 21686 21700 un
24509 21683 21699 un
24510 21702 21701 un
24511 21703 21702 1
24512 21699 21703 un
24513 21682 21701 un
24514 21705 21704 un
24515 21706 21705 un
24516 21707 21706 un
24517 21702 21704 un
24518 21701 21707 un
24519 21709 21708 un
24520 21710 21709 un
24521 21711 21710 un
24522 21706 21708 un
24523 21705 21711 un
24524 21713 21712 un
24525 21714 21713 un
24526 21715 21714 un
24527 21710 21712 un
24528 21709 21715 un
24529 21717 21716 un
24530 21681 21717 un
24531 21707 21716 un
24532 21719 21718 un
24533 21716 21719 un
24534 21708 21718 un
24535 21721 21720 un
24536 21718 21721 un
24537 21715 21720 un
24538 21723 21722 un
24539 21724 21723 un
24540 21720 21724 un
24541 21714 21722 un
24542 21726 21725 1
24543 21727 21726 1
24544 21728 21727 1
24545 21713 21725 1
24546 21712 21728 1
24547 21730 21729 1
24548 21731 21730 1
24549 21732 21731 1
24550 21727 21729 1
24551 21726 21732 1
24552 21734 21733 1
24553 21735 21734 1
24554 21736 21735 1
24555 21732 21733 1
24556 21731 21736 1
24557 21738 21737 un
24558 21739 21738 un
24559 21721 21739 un
24560 21719 21737 un
24561 21741 21740 1
24562 21742 21741 1
24563 21743 21742 1
24564 21738 21740 1
24565 21737 21743 1
24566 21745 21744 1
24567 21746 21745 1
24568 21747 21746 1
24569 21742 21744 1
24570 21741 21747 1
24571 21749 21748 un
24572 21739 21749 un
24573 21724 21748 un
24574 21751 21750 un
24575 21752 21751 un
24576 21748 21752 un
24577 21723 21750 un
24578 21754 21753 un
24579 21755 21754 un
24580 21722 21755 un
24581 21750 21753 un
24582 21757 21756 1
24583 21758 21757 un
24584 21751 21756 1
24585 21753 21758 1
24586 21760 21759 1
24587 21761 21760 1
24588 21754 21759 1
24589 21758 21761 un
24590 21763 21762 1
24591 21764 21763 1
24592 21765 21764 1
24593 21760 21762 1
24594 21759 21765 1
24595 21767 21766 1
24596 21768 21767 1
24597 21757 21768 un
24598 21761 21766 un
24599 21762 21769 1
24600 21766 21770 un
24601 21769 21770 un
24602 21696 21771 1
24603 21771 21772 1
24604 21771 21773 1
24605 21728 21774 1
24606 21776 21775 1
24607 21777 21776 un
24608 21778 21777 1
24609 21768 21775 un
24610 21767 21778 un
24611 21780 21779 un
24612 21781 21780 1
24613 21782 21781 un
24614 21778 21779 un
24615 21777 21782 un
24616 21784 21783 un
24617 21785 21784 1
24618 21786 21785 1
24619 21781 21783 un
24620 21780 21786 un
24621 21788 21787 un
24622 21789 21788 un
24623 21779 21789 un
24624 21786 21787 un
24625 21791 21790 un
24626 21792 21791 un
24627 21785 21792 un
24628 21787 21790 un
24629 21794 21793 un
24630 21788 21794 un
24631 21770 21789 un
24632 21769 21793 un
24633 21796 21795 un
24634 21794 21796 un
24635 21790 21795 un
24636 21798 21797 1
24637 21799 21798 1
24638 21800 21799 1
24639 21796 21797 1
24640 21795 21800 1
24641 21800 21801 2
24642 21655 21802 1
24643 21655 21803 1
24644 21656 21804 1
24645 21656 21805 1
24646 21657 21806 1
24647 21658 21807 1
24648 21659 21808 1
24649 21659 21809 1
24650 21661 21810 1
24651 21662 21811 1
24652 21663 21812 1
24653 21663 21813 1
24654 21664 21814 1
24655 21664 21815 1
24656 21666 21816 1
24657 21667 21817 1
24658 21668 21818 1
24659 21668 21819 1
24660 21672 21820 1
24661 21677 21821 1
24662 21677 21822 1
24663 21678 21823 1
24664 21678 21824 1
24665 21679 21825 1
24666 21679 21826 1
24667 21689 21827 1
24668 21689 21828 1
24669 21690 21829 1
24670 21691 21830 1
24671 21691 21831 1
24672 21692 21832 1
24673 21692 21833 1
24674 21695 21834 1
24675 21695 21835 1
24676 21696 21836 1
24677 21697 21837 1
24678 21697 21838 1
24679 21698 21839 1
24680 21698 21840 1
24681 21700 21841 1
24682 21704 21842 1
24683 21711 21843 1
24684 21717 21844 1
24685 21726 21845 1
24686 21727 21846 1
24687 21728 21847 1
24688 21729 21848 1
24689 21729 21849 1
24690 21730 21850 1
24691 21730 21851 1
24692 21731 21852 1
24693 21732 21853 1
24694 21733 21854 1
24695 21733 21855 1
24696 21734 21856 1
24697 21734 21857 1
24698 21735 21858 1
24699 21735 21859 1
24700 21736 21860 1
24701 21741 21861 1
24702 21742 21862 1
24703 21744 21863 1
24704 21744 21864 1
24705 21745 21865 1
24706 21745 21866 1
24707 21746 21867 1
24708 21746 21868 1
24709 21747 21869 1
24710 21747 21870 1
24711 21749 21871 1
24712 21752 21872 1
24713 21755 21873 1
24714 21759 21874 1
24715 21760 21875 1
24716 21762 21876 1
24717 21763 21877 1
24718 21763 21878 1
24719 21764 21879 1
24720 21764 21880 1
24721 21765 21881 1
24722 21765 21882 1
24723 21771 21883 1
24724 21772 21884 1
24725 21772 21885 1
24726 21772 21886 1
24727 21773 21887 1
24728 21773 21888 1
24729 21773 21889 1
24730 21774 21890 1
24731 21775 21891 1
24732 21776 21892 1
24733 21782 21893 1
24734 21783 21894 1
24735 21784 21895 1
24736 21791 21896 1
24737 21792 21897 1
24738 21793 21898 1
24739 21797 21899 1
24740 21797 21900 1
24741 21798 21901 1
24742 21798 21902 1
24743 21799 21903 1
24744 21799 21904 1
24745 21907 21906 1
24746 21908 21907 1
24747 21909 21908 1
24748 21910 21909 1
24749 21905 21906 1
24750 21905 21910 1
24751 21912 21911 1
24752 21913 21912 1
24753 21914 21913 1
24754 21908 21911 1
24755 21907 21914 1
24756 21916 21915 1
24757 21917 21916 1
24758 21918 21917 1
24759 21912 21915 1
24760 21911 21918 1
24761 21920 21919 un
24762 21921 21920 un
24763 21922 21921 un
24764 21917 21919 1
24765 21916 21922 1
24766 21924 21923 1
24767 21925 21924 un
24768 21926 21925 un
24769 21921 21923 un
24770 21920 21926 un
24771 21928 21927 1
24772 21929 21928 1
24773 21919 21929 1
24774 21926 21927 1
24775 21931 21930 1
24776 21932 21931 un
24777 21933 21932 un
24778 21925 21930 1
24779 21924 21933 un
24780 21935 21934 un
24781 21936 21935 2
24782 21922 21934 1
24783 21923 21936 un
24784 21938 21937 2
24785 21939 21938 1
24786 21940 21939 1
24787 21935 21937 1
24788 21934 21940 2
24789 21942 21941 1
24790 21943 21942 1
24791 21944 21943 2
24792 21938 21941 1
24793 21937 21944 1
24794 21946 21945 1
24795 21947 21946 1
24796 21948 21947 1
24797 21944 21945 1
24798 21943 21948 1
24799 21950 21949 un
24800 21936 21950 un
24801 21933 21949 un
24802 21952 21951 un
24803 21953 21952 1
24804 21949 21953 un
24805 21932 21951 un
24806 21955 21954 un
24807 21956 21955 un
24808 21957 21956 un
24809 21952 21954 un
24810 21951 21957 un
24811 21959 21958 un
24812 21960 21959 un
24813 21961 21960 un
24814 21956 21958 un
24815 21955 21961 un
24816 21963 21962 un
24817 21964 21963 un
24818 21965 21964 un
24819 21960 21962 un
24820 21959 21965 un
24821 21967 21966 un
24822 21931 21967 un
24823 21957 21966 un
24824 21969 21968 un
24825 21966 21969 un
24826 21958 21968 un
24827 21971 21970 un
24828 21968 21971 un
24829 21965 21970 un
24830 21973 21972 un
24831 21974 21973 un
24832 21970 21974 un
24833 21964 21972 un
24834 21976 21975 1
24835 21977 21976 1
24836 21978 21977 1
24837 21963 21975 1
24838 21962 21978 1
24839 21980 21979 1
24840 21981 21980 1
24841 21982 21981 1
24842 21977 21979 1
24843 21976 21982 1
24844 21984 21983 1
24845 21985 21984 1
24846 21986 21985 1
24847 21982 21983 1
24848 21981 21986 1
24849 21988 21987 un
24850 21989 21988 un
24851 21971 21989 un
24852 21969 21987 un
24853 21991 21990 1
24854 21992 21991 1
24855 21993 21992 1
24856 21988 21990 1
24857 21987 21993 1
24858 21995 21994 1
24859 21996 21995 1
24860 21997 21996 1
24861 21992 21994 1
24862 21991 21997 1
24863 21999 21998 un
24864 21989 21999 un
24865 21974 21998 un
24866 22001 22000 un
24867 22002 22001 un
24868 21998 22002 un
24869 21973 22000 un
24870 22004 22003 un
24871 22005 22004 un
24872 21972 22005 un
24873 22000 22003 un
24874 22007 22006 1
24875 22008 22007 un
24876 22001 22006 1
24877 22003 22008 1
24878 22010 22009 1
24879 22011 22010 1
24880 22004 22009 1
24881 22008 22011 un
24882 22013 22012 1
24883 22014 22013 1
24884 22015 22014 1
24885 22010 22012 1
24886 22009 22015 1
24887 22017 22016 1
24888 22018 22017 1
24889 22007 22018 un
24890 22011 22016 un
24891 22012 22019 1
24892 22016 22020 un
24893 22019 22020 un
24894 21946 22021 1
24895 22021 22022 1
24896 22021 22023 1
24897 21978 22024 1
24898 22026 22025 1
24899 22027 22026 un
24900 22028 22027 1
24901 22018 22025 un
24902 22017 22028 un
24903 22030 22029 un
24904 22031 22030 1
24905 22032 22031 un
24906 22028 22029 un
24907 22027 22032 un
24908 22034 22033 un
24909 22035 22034 1
24910 22036 22035 1
24911 22031 22033 un
24912 22030 22036 un
24913 22038 22037 un
24914 22039 22038 un
24915 22029 22039 un
24916 22036 22037 un
24917 22041 22040 un
24918 22042 22041 un
24919 22035 22042 un
24920 22037 22040 un
24921 22044 22043 un
24922 22038 22044 un
24923 22020 22039 un
24924 22019 22043 un
24925 22046 22045 un
24926 22044 22046 un
24927 22040 22045 un
24928 22048 22047 1
24929 22049 22048 1
24930 22050 22049 1
24931 22046 22047 1
24932 22045 22050 1
24933 22050 22051 2
24934 21905 22052 1
24935 21905 22053 1
24936 21906 22054 1
24937 21906 22055 1
24938 21907 22056 1
24939 21908 22057 1
24940 21909 22058 1
24941 21909 22059 1
24942 21911 22060 1
24943 21912 22061 1
24944 21913 22062 1
24945 21913 22063 1
24946 21914 22064 1
24947 21914 22065 1
24948 21916 22066 1
24949 21917 22067 1
24950 21918 22068 1
24951 21918 22069 1
24952 21922 22070 1
24953 21927 22071 1
24954 21927 22072 1
24955 21928 22073 1
24956 21928 22074 1
24957 21929 22075 1
24958 21929 22076 1
24959 21939 22077 1
24960 21939 22078 1
24961 21940 22079 1
24962 21941 22080 1
24963 21941 22081 1
24964 21942 22082 1
24965 21942 22083 1
24966 21945 22084 1
24967 21945 22085 1
24968 21946 22086 1
24969 21947 22087 1
24970 21947 22088 1
24971 21948 22089 1
24972 21948 22090 1
24973 21950 22091 1
24974 21954 22092 1
24975 21961 22093 1
24976 21967 22094 1
24977 21976 22095 1
24978 21977 22096 1
24979 21978 22097 1
24980 21979 22098 1
24981 21979 22099 1
24982 21980 22100 1
24983 21980 22101 1
24984 21981 22102 1
24985 21982 22103 1
24986 21983 22104 1
24987 21983 22105 1
24988 21984 22106 1
24989 21984 22107 1
24990 21985 22108 1
24991 21985 22109 1
24992 21986 22110 1
24993 21991 22111 1
24994 21992 22112 1
24995 21994 22113 1
24996 21994 22114 1
24997 21995 22115 1
24998 21995 22116 1
24999 21996 22117 1
25000 21996 22118 1
25001 21997 22119 1
25002 21997 22120 1
25003 21999 22121 1
25004 22002 22122 1
25005 22005 22123 1
25006 22009 22124 1
25007 22010 22125 1
25008 22012 22126 1
25009 22013 22127 1
25010 22013 22128 1
25011 22014 22129 1
25012 22014 22130 1
25013 22015 22131 1
25014 22015 22132 1
25015 22021 22133 1
25016 22022 22134 1
25017 22022 22135 1
25018 22022 22136 1
25019 22023 22137 1
25020 22023 22138 1
25021 22023 22139 1
25022 22024 22140 1
25023 22025 22141 1
25024 22026 22142 1
25025 22032 22143 1
25026 22033 22144 1
25027 22034 22145 1
25028 22041 22146 1
25029 22042 22147 1
25030 22043 22148 1
25031 22047 22149 1
25032 22047 22150 1
25033 22048 22151 1
25034 22048 22152 1
25035 22049 22153 1
25036 22049 22154 1
25037 22157 22156 1
25038 22158 22157 1
25039 22159 22158 1
25040 22160 22159 1
25041 22155 22156 1
25042 22155 22160 1
25043 22162 22161 1
25044 22163 22162 1
25045 22164 22163 1
25046 22158 22161 1
25047 22157 22164 1
25048 22166 22165 1
25049 22167 22166 1
25050 22168 22167 1
25051 22162 22165 1
25052 22161 22168 1
25053 22170 22169 un
25054 22171 22170 un
25055 22172 22171 un
25056 22167 22169 1
25057 22166 22172 1
25058 22174 22173 1
25059 22175 22174 un
25060 22176 22175 un
25061 22171 22173 un
25062 22170 22176 un
25063 22178 22177 1
25064 22179 22178 1
25065 22169 22179 1
25066 22176 22177 1
25067 22181 22180 1
25068 22182 22181 un
25069 22183 22182 un
25070 22175 22180 1
25071 22174 22183 un
25072 22185 22184 un
25073 22186 22185 2
25074 22172 22184 1
25075 22173 22186 un
25076 22188 22187 2
25077 22189 22188 1
25078 22190 22189 1
25079 22185 22187 1
25080 22184 22190 2
25081 22192 22191 1
25082 22193 22192 1
25083 22194 22193 2
25084 22188 22191 1
25085 22187 22194 1
25086 22196 22195 1
25087 22197 22196 1
25088 22198 22197 1
25089 22194 22195 1
25090 22193 22198 1
25091 22200 22199 un
25092 22186 22200 un
25093 22183 22199 un
25094 22202 22201 un
25095 22203 22202 1
25096 22199 22203 un
25097 22182 22201 un
25098 22205 22204 un
25099 22206 22205 un
25100 22207 22206 un
25101 22202 22204 un
25102 22201 22207 un
25103 22209 22208 un
25104 22210 22209 un
25105 22211 22210 un
25106 22206 22208 un
25107 22205 22211 un
25108 22213 22212 un
25109 22214 22213 un
25110 22215 22214 un
25111 22210 22212 un
25112 22209 22215 un
25113 22217 22216 un
25114 22181 22217 un
25115 22207 22216 un
25116 22219 22218 un
25117 22216 22219 un
25118 22208 22218 un
25119 22221 22220 un
25120 22218 22221 un
25121 22215 22220 un
25122 22223 22222 un
25123 22224 22223 un
25124 22220 22224 un
25125 22214 22222 un
25126 22226 22225 1
25127 22227 22226 1
25128 22228 22227 1
25129 22213 22225 1
25130 22212 22228 1
25131 22230 22229 1
25132 22231 22230 1
25133 22232 22231 1
25134 22227 22229 1
25135 22226 22232 1
25136 22234 22233 1
25137 22235 22234 1
25138 22236 22235 1
25139 22232 22233 1
25140 22231 22236 1
25141 22238 22237 un
25142 22239 22238 un
25143 22221 22239 un
25144 22219 22237 un
25145 22241 22240 1
25146 22242 22241 1
25147 22243 22242 1
25148 22238 22240 1
25149 22237 22243 1
25150 22245 22244 1
25151 22246 22245 1
25152 22247 22246 1
25153 22242 22244 1
25154 22241 22247 1
25155 22249 22248 un
25156 22239 22249 un
25157 22224 22248 un
25158 22251 22250 un
25159 22252 22251 un
25160 22248 22252 un
25161 22223 22250 un
25162 22254 22253 un
25163 22255 22254 un
25164 22222 22255 un
25165 22250 22253 un
25166 22257 22256 1
25167 22258 22257 un
25168 22251 22256 1
25169 22253 22258 1
25170 22260 22259 1
25171 22261 22260 1
25172 22254 22259 1
25173 22258 22261 un
25174 22263 22262 1
25175 22264 22263 1
25176 22265 22264 1
25177 22260 22262 1
25178 22259 22265 1
25179 22267 22266 1
25180 22268 22267 1
25181 22257 22268 un
25182 22261 22266 un
25183 22262 22269 1
25184 22266 22270 un
25185 22269 22270 un
25186 22196 22271 1
25187 22271 22272 1
25188 22271 22273 1
25189 22228 22274 1
25190 22276 22275 1
25191 22277 22276 un
25192 22278 22277 1
25193 22268 22275 un
25194 22267 22278 un
25195 22280 22279 un
25196 22281 22280 1
25197 22282 22281 un
25198 22278 22279 un
25199 22277 22282 un
25200 22284 22283 un
25201 22285 22284 1
25202 22286 22285 1
25203 22281 22283 un
25204 22280 22286 un
25205 22288 22287 un
25206 22289 22288 un
25207 22279 22289 un
25208 22286 22287 un
25209 22291 22290 un
25210 22292 22291 un
25211 22285 22292 un
25212 22287 22290 un
25213 22294 22293 un
25214 22288 22294 un
25215 22270 22289 un
25216 22269 22293 un
25217 22296 22295 un
25218 22294 22296 un
25219 22290 22295 un
25220 22298 22297 1
25221 22299 22298 1
25222 22300 22299 1
25223 22296 22297 1
25224 22295 22300 1
25225 22300 22301 2
25226 22155 22302 1
25227 22155 22303 1
25228 22156 22304 1
25229 22156 22305 1
25230 22157 22306 1
25231 22158 22307 1
25232 22159 22308 1
25233 22159 22309 1
25234 22161 22310 1
25235 22162 22311 1
25236 22163 22312 1
25237 22163 22313 1
25238 22164 22314 1
25239 22164 22315 1
25240 22166 22316 1
25241 22167 22317 1
25242 22168 22318 1
25243 22168 22319 1
25244 22172 22320 1
25245 22177 22321 1
25246 22177 22322 1
25247 22178 22323 1
25248 22178 22324 1
25249 22179 22325 1
25250 22179 22326 1
25251 22189 22327 1
25252 22189 22328 1
25253 22190 22329 1
25254 22191 22330 1
25255 22191 22331 1
25256 22192 22332 1
25257 22192 22333 1
25258 22195 22334 1
25259 22195 22335 1
25260 22196 22336 1
25261 22197 22337 1
25262 22197 22338 1
25263 22198 22339 1
25264 22198 22340 1
25265 22200 22341 1
25266 22204 22342 1
25267 22211 22343 1
25268 22217 22344 1
25269 22226 22345 1
25270 22227 22346 1
25271 22228 22347 1
25272 22229 22348 1
25273 22229 22349 1
25274 22230 22350 1
25275 22230 22351 1
25276 22231 22352 1
25277 22232 22353 1
25278 22233 22354 1
25279 22233 22355 1
25280 22234 22356 1
25281 22234 22357 1
25282 22235 22358 1
25283 22235 22359 1
25284 22236 22360 1
25285 22241 22361 1
25286 22242 22362 1
25287 22244 22363 1
25288 22244 22364 1
25289 22245 22365 1
25290 22245 22366 1
25291 22246 22367 1
25292 22246 22368 1
25293 22247 22369 1
25294 22247 22370 1
25295 22249 22371 1
25296 22252 22372 1
25297 22255 22373 1
25298 22259 22374 1
25299 22260 22375 1
25300 22262 22376 1
25301 22263 22377 1
25302 22263 22378 1
25303 22264 22379 1
25304 22264 22380 1
25305 22265 22381 1
25306 22265 22382 1
25307 22271 22383 1
25308 22272 22384 1
25309 22272 22385 1
25310 22272 22386 1
25311 22273 22387 1
25312 22273 22388 1
25313 22273 22389 1
25314 22274 22390 1
25315 22275 22391 1
25316 22276 22392 1
25317 22282 22393 1
25318 22283 22394 1
25319 22284 22395 1
25320 22291 22396 1
25321 22292 22397 1
25322 22293 22398 1
25323 22297 22399 1
25324 22297 22400 1
25325 22298 22401 1
25326 22298 22402 1
25327 22299 22403 1
25328 22299 22404 1
25329 22407 22406 1
25330 22408 22407 1
25331 22409 22408 1
25332 22410 22409 1
25333 22405 22406 1
25334 22405 22410 1
25335 22412 22411 1
25336 22413 22412 1
25337 22414 22413 1
25338 22408 22411 1
25339 22407 22414 1
25340 22416 22415 1
25341 22417 22416 1
25342 22418 22417 1
25343 22412 22415 1
25344 22411 22418 1
25345 22420 22419 un
25346 22421 22420 un
25347 22422 22421 un
25348 22417 22419 1
25349 22416 22422 1
25350 22424 22423 1
25351 22425 22424 un
25352 22426 22425 un
25353 22421 22423 un
25354 22420 22426 un
25355 22428 22427 1
25356 22429 22428 1
25357 22419 22429 1
25358 22426 22427 1
25359 22431 22430 1
25360 22432 22431 un
25361 22433 22432 un
25362 22425 22430 1
25363 22424 22433 un
25364 22435 22434 un
25365 22436 22435 2
25366 22422 22434 1
25367 22423 22436 un
25368 22438 22437 2
25369 22439 22438 1
25370 22440 22439 1
25371 22435 22437 1
25372 22434 22440 2
25373 22442 22441 1
25374 22443 22442 1
25375 22444 22443 2
25376 22438 22441 1
25377 22437 22444 1
25378 22446 22445 1
25379 22447 22446 1
25380 22448 22447 1
25381 22444 22445 1
25382 22443 22448 1
25383 22450 22449 un
25384 22436 22450 un
25385 22433 22449 un
25386 22452 22451 un
25387 22453 22452 1
25388 22449 22453 un
25389 22432 22451 un
25390 22455 22454 un
25391 22456 22455 un
25392 22457 22456 un
25393 22452 22454 un
25394 22451 22457 un
25395 22459 22458 un
25396 22460 22459 un
25397 22461 22460 un
25398 22456 22458 un
25399 22455 22461 un
25400 22463 22462 un
25401 22464 22463 un
25402 22465 22464 un
25403 22460 22462 un
25404 22459 22465 un
25405 22467 22466 un
25406 22431 22467 un
25407 22457 22466 un
25408 22469 22468 un
25409 22466 22469 un
25410 22458 22468 un
25411 22471 22470 un
25412 22468 22471 un
25413 22465 22470 un
25414 22473 22472 un
25415 22474 22473 un
25416 22470 22474 un
25417 22464 22472 un
25418 22476 22475 1
25419 22477 22476 1
25420 22478 22477 1
25421 22463 22475 1
25422 22462 22478 1
25423 22480 22479 1
25424 22481 22480 1
25425 22482 22481 1
25426 22477 22479 1
25427 22476 22482 1
25428 22484 22483 1
25429 22485 22484 1
25430 22486 22485 1
25431 22482 22483 1
25432 22481 22486 1
25433 22488 22487 un
25434 22489 22488 un
25435 22471 22489 un
25436 22469 22487 un
25437 22491 22490 1
25438 22492 22491 1
25439 22493 22492 1
25440 22488 22490 1
25441 22487 22493 1
25442 22495 22494 1
25443 22496 22495 1
25444 22497 22496 1
25445 22492 22494 1
25446 22491 22497 1
25447 22499 22498 un
25448 22489 22499 un
25449 22474 22498 un
25450 22501 22500 un
25451 22502 22501 un
25452 22498 22502 un
25453 22473 22500 un
25454 22504 22503 un
25455 22505 22504 un
25456 22472 22505 un
25457 22500 22503 un
25458 22507 22506 1
25459 22508 22507 un
25460 22501 22506 1
25461 22503 22508 1
25462 22510 22509 1
25463 22511 22510 1
25464 22504 22509 1
25465 22508 22511 un
25466 22513 22512 1
25467 22514 22513 1
25468 22515 22514 1
25469 22510 22512 1
25470 22509 22515 1
25471 22517 22516 1
25472 22518 22517 1
25473 22507 22518 un
25474 22511 22516 un
25475 22512 22519 1
25476 22516 22520 un
25477 22519 22520 un
25478 22446 22521 1
25479 22521 22522 1
25480 22521 22523 1
25481 22478 22524 1
25482 22526 22525 1
25483 22527 22526 un
25484 22528 22527 1
25485 22518 22525 un
25486 22517 22528 un
25487 22530 22529 un
25488 22531 22530 1
25489 22532 22531 un
25490 22528 22529 un
25491 22527 22532 un
25492 22534 22533 un
25493 22535 22534 1
25494 22536 22535 1
25495 22531 22533 un
25496 22530 22536 un
25497 22538 22537 un
25498 22539 22538 un
25499 22529 22539 un
25500 22536 22537 un
25501 22541 22540 un
25502 22542 22541 un
25503 22535 22542 un
25504 22537 22540 un
25505 22544 22543 un
25506 22538 22544 un
25507 22520 22539 un
25508 22519 22543 un
25509 22546 22545 un
25510 22544 22546 un
25511 22540 22545 un
25512 22548 22547 1
25513 22549 22548 1
25514 22550 22549 1
25515 22546 22547 1
25516 22545 22550 1
25517 22550 22551 2
25518 22405 22552 1
25519 22405 22553 1
25520 22406 22554 1
25521 22406 22555 1
25522 22407 22556 1
25523 22408 22557 1
25524 22409 22558 1
25525 22409 22559 1
25526 22411 22560 1
25527 22412 22561 1
25528 22413 22562 1
25529 22413 22563 1
25530 22414 22564 1
25531 22414 22565 1
25532 22416 22566 1
25533 22417 22567 1
25534 22418 22568 1
25535 22418 22569 1
25536 22422 22570 1
25537 22427 22571 1
25538 22427 22572 1
25539 22428 22573 1
25540 22428 22574 1
25541 22429 22575 1
25542 22429 22576 1
25543 22439 22577 1
25544 22439 22578 1
25545 22440 22579 1
25546 22441 22580 1
25547 22441 22581 1
25548 22442 22582 1
25549 22442 22583 1
25550 22445 22584 1
25551 22445 22585 1
25552 22446 22586 1
25553 22447 22587 1
25554 22447 22588 1
25555 22448 22589 1
25556 22448 22590 1
25557 22450 22591 1
25558 22454 22592 1
25559 22461 22593 1
25560 22467 22594 1
25561 22476 22595 1
25562 22477 22596 1
25563 22478 22597 1
25564 22479 22598 1
25565 22479 22599 1
25566 22480 22600 1
25567 22480 22601 1
25568 22481 22602 1
25569 22482 22603 1
25570 22483 22604 1
25571 22483 22605 1
25572 22484 22606 1
25573 22484 22607 1
25574 22485 22608 1
25575 22485 22609 1
25576 22486 22610 1
25577 22491 22611 1
25578 22492 22612 1
25579 22494 22613 1
25580 22494 22614 1
25581 22495 22615 1
25582 22495 22616 1
25583 22496 22617 1
25584 22496 22618 1
25585 22497 22619 1
25586 22497 22620 1
25587 22499 22621 1
25588 22502 22622 1
25589 22505 22623 1
25590 22509 22624 1
25591 22510 22625 1
25592 22512 22626 1
25593 22513 22627 1
25594 22513 22628 1
25595 22514 22629 1
25596 22514 22630 1
25597 22515 22631 1
25598 22515 22632 1
25599 22521 22633 1
25600 22522 22634 1
25601 22522 22635 1
25602 22522 22636 1
25603 22523 22637 1
25604 22523 22638 1
25605 22523 22639 1
25606 22524 22640 1
25607 22525 22641 1
25608 22526 22642 1
25609 22532 22643 1
25610 22533 22644 1
25611 22534 22645 1
25612 22541 22646 1
25613 22542 22647 1
25614 22543 22648 1
25615 22547 22649 1
25616 22547 22650 1
25617 22548 22651 1
25618 22548 22652 1
25619 22549 22653 1
25620 22549 22654 1
25621 22657 22656 1
25622 22658 22657 1
25623 22659 22658 1
25624 22660 22659 1
25625 22655 22656 1
25626 22655 22660 1
25627 22662 22661 1
25628 22663 22662 1
25629 22664 22663 1
25630 22658 22661 1
25631 22657 22664 1
25632 22666 22665 1
25633 22667 22666 1
25634 22668 22667 1
25635 22662 22665 1
25636 22661 22668 1
25637 22670 22669 un
25638 22671 22670 un
25639 22672 22671 un
25640 22667 22669 1
25641 22666 22672 1
25642 22674 22673 1
25643 22675 22674 un
25644 22676 22675 un
25645 22671 22673 un
25646 22670 22676 un
25647 22678 22677 1
25648 22679 22678 1
25649 22669 22679 1
25650 22676 22677 1
25651 22681 22680 1
25652 22682 22681 un
25653 22683 22682 un
25654 22675 22680 1
25655 22674 22683 un
25656 22685 22684 un
25657 22686 22685 2
25658 22672 22684 1
25659 22673 22686 un
25660 22688 22687 2
25661 22689 22688 1
25662 22690 22689 1
25663 22685 22687 1
25664 22684 22690 2
25665 22692 22691 1
25666 22693 22692 1
25667 22694 22693 2
25668 22688 22691 1
25669 22687 22694 1
25670 22696 22695 1
25671 22697 22696 1
25672 22698 22697 1
25673 22694 22695 1
25674 22693 22698 1
25675 22700 22699 un
25676 22686 22700 un
25677 22683 22699 un
25678 22702 22701 un
25679 22703 22702 1
25680 22699 22703 un
25681 22682 22701 un
25682 22705 22704 un
25683 22706 22705 un
25684 22707 22706 un
25685 22702 22704 un
25686 22701 22707 un
25687 22709 22708 un
25688 22710 22709 un
25689 22711 22710 un
25690 22706 22708 un
25691 22705 22711 un
25692 22713 22712 un
25693 22714 22713 un
25694 22715 22714 un
25695 22710 22712 un
25696 22709 22715 un
25697 22717 22716 un
25698 22681 22717 un
25699 22707 22716 un
25700 22719 22718 un
25701 22716 22719 un
25702 22708 22718 un
25703 22721 22720 un
25704 22718 22721 un
25705 22715 22720 un
25706 22723 22722 un
25707 22724 22723 un
25708 22720 22724 un
25709 22714 22722 un
25710 22726 22725 1
25711 22727 22726 1
25712 22728 22727 1
25713 22713 22725 1
25714 22712 22728 1
25715 22730 22729 1
25716 22731 22730 1
25717 22732 22731 1
25718 22727 22729 1
25719 22726 22732 1
25720 22734 22733 1
25721 22735 22734 1
25722 22736 22735 1
25723 22732 22733 1
25724 22731 22736 1
25725 22738 22737 un
25726 22739 22738 un
25727 22721 22739 un
25728 22719 22737 un
25729 22741 22740 1
25730 22742 22741 1
25731 22743 22742 1
25732 22738 22740 1
25733 22737 22743 1
25734 22745 22744 1
25735 22746 22745 1
25736 22747 22746 1
25737 22742 22744 1
25738 22741 22747 1
25739 22749 22748 un
25740 22739 22749 un
25741 22724 22748 un
25742 22751 22750 un
25743 22752 22751 un
25744 22748 22752 un
25745 22723 22750 un
25746 22754 22753 un
25747 22755 22754 un
25748 22722 22755 un
25749 22750 22753 un
25750 22757 22756 1
25751 22758 22757 un
25752 22751 22756 1
25753 22753 22758 1
25754 22760 22759 1
25755 22761 22760 1
25756 22754 22759 1
25757 22758 22761 un
25758 22763 22762 1
25759 22764 22763 1
25760 22765 22764 1
25761 22760 22762 1
25762 22759 22765 1
25763 22767 22766 1
25764 22768 22767 1
25765 22757 22768 un
25766 22761 22766 un
25767 22762 22769 1
25768 22766 22770 un
25769 22769 22770 un
25770 22696 22771 1
25771 22771 22772 1
25772 22771 22773 1
25773 22728 22774 1
25774 22776 22775 1
25775 22777 22776 un
25776 22778 22777 1
25777 22768 22775 un
25778 22767 22778 un
25779 22780 22779 un
25780 22781 22780 1
25781 22782 22781 un
25782 22778 22779 un
25783 22777 22782 un
25784 22784 22783 un
25785 22785 22784 1
25786 22786 22785 1
25787 22781 22783 un
25788 22780 22786 un
25789 22788 22787 un
25790 22789 22788 un
25791 22779 22789 un
25792 22786 22787 un
25793 22791 22790 un
25794 22792 22791 un
25795 22785 22792 un
25796 22787 22790 un
25797 22794 22793 un
25798 22788 22794 un
25799 22770 22789 un
25800 22769 22793 un
25801 22796 22795 un
25802 22794 22796 un
25803 22790 22795 un
25804 22798 22797 1
25805 22799 22798 1
25806 22800 22799 1
25807 22796 22797 1
25808 22795 22800 1
25809 22800 22801 2
25810 22655 22802 1
25811 22655 22803 1
25812 22656 22804 1
25813 22656 22805 1
25814 22657 22806 1
25815 22658 22807 1
25816 22659 22808 1
25817 22659 22809 1
25818 22661 22810 1
25819 22662 22811 1
25820 22663 22812 1
25821 22663 22813 1
25822 22664 22814 1
25823 22664 22815 1
25824 22666 22816 1
25825 22667 22817 1
25826 22668 22818 1
25827 22668 22819 1
25828 22672 22820 1
25829 22677 22821 1
25830 22677 22822 1
25831 22678 22823 1
25832 22678 22824 1
25833 22679 22825 1
25834 22679 22826 1
25835 22689 22827 1
25836 22689 22828 1
25837 22690 22829 1
25838 22691 22830 1
25839 22691 22831 1
25840 22692 22832 1
25841 22692 22833 1
25842 22695 22834 1
25843 22695 22835 1
25844 22696 22836 1
25845 22697 22837 1
25846 22697 22838 1
25847 22698 22839 1
25848 22698 22840 1
25849 22700 22841 1
25850 22704 22842 1
25851 22711 22843 1
25852 22717 22844 1
25853 22726 22845 1
25854 22727 22846 1
25855 22728 22847 1
25856 22729 22848 1
25857 22729 22849 1
25858 22730 22850 1
25859 22730 22851 1
25860 22731 22852 1
25861 22732 22853 1
25862 22733 22854 1
25863 22733 22855 1
25864 22734 22856 1
25865 22734 22857 1
25866 22735 22858 1
25867 22735 22859 1
25868 22736 22860 1
25869 22741 22861 1
25870 22742 22862 1
25871 22744 22863 1
25872 22744 22864 1
25873 22745 22865 1
25874 22745 22866 1
25875 22746 22867 1
25876 22746 22868 1
25877 22747 22869 1
25878 22747 22870 1
25879 22749 22871 1
25880 22752 22872 1
25881 22755 22873 1
25882 22759 22874 1
25883 22760 22875 1
25884 22762 22876 1
25885 22763 22877 1
25886 22763 22878 1
25887 22764 22879 1
25888 22764 22880 1
25889 22765 22881 1
25890 22765 22882 1
25891 22771 22883 1
25892 22772 22884 1
25893 22772 22885 1
25894 22772 22886 1
25895 22773 22887 1
25896 22773 22888 1
25897 22773 22889 1
25898 22774 22890 1
25899 22775 22891 1
25900 22776 22892 1
25901 22782 22893 1
25902 22783 22894 1
25903 22784 22895 1
25904 22791 22896 1
25905 22792 22897 1
25906 22793 22898 1
25907 22797 22899 1
25908 22797 22900 1
25909 22798 22901 1
25910 22798 22902 1
25911 22799 22903 1
25912 22799 22904 1
25913 22907 22906 1
25914 22908 22907 1
25915 22909 22908 1
25916 22910 22909 1
25917 22905 22906 1
25918 22905 22910 1
25919 22912 22911 1
25920 22913 22912 1
25921 22914 22913 1
25922 22908 22911 1
25923 22907 22914 1
25924 22916 22915 1
25925 22917 22916 1
25926 22918 22917 1
25927 22912 22915 1
25928 22911 22918 1
25929 22920 22919 un
25930 22921 22920 un
25931 22922 22921 un
25932 22917 22919 1
25933 22916 22922 1
25934 22924 22923 1
25935 22925 22924 un
25936 22926 22925 un
25937 22921 22923 un
25938 22920 22926 un
25939 22928 22927 1
25940 22929 22928 1
25941 22919 22929 1
25942 22926 22927 1
25943 22931 22930 1
25944 22932 22931 un
25945 22933 22932 un
25946 22925 22930 1
25947 22924 22933 un
25948 22935 22934 un
25949 22936 22935 2
25950 22922 22934 1
25951 22923 22936 un
25952 22938 22937 2
25953 22939 22938 1
25954 22940 22939 1
25955 22935 22937 1
25956 22934 22940 2
25957 22942 22941 1
25958 22943 22942 1
25959 22944 22943 2
25960 22938 22941 1
25961 22937 22944 1
25962 22946 22945 1
25963 22947 22946 1
25964 22948 22947 1
25965 22944 22945 1
25966 22943 22948 1
25967 22950 22949 un
25968 22936 22950 un
25969 22933 22949 un
25970 22952 22951 un
25971 22953 22952 1
25972 22949 22953 un
25973 22932 22951 un
25974 22955 22954 un
25975 22956 22955 un
25976 22957 22956 un
25977 22952 22954 un
25978 22951 22957 un
25979 22959 22958 un
25980 22960 22959 un
25981 22961 22960 un
25982 22956 22958 un
25983 22955 22961 un
25984 22963 22962 un
25985 22964 22963 un
25986 22965 22964 un
25987 22960 22962 un
25988 22959 22965 un
25989 22967 22966 un
25990 22931 22967 un
25991 22957 22966 un
25992 22969 22968 un
25993 22966 22969 un
25994 22958 22968 un
25995 22971 22970 un
25996 22968 22971 un
25997 22965 22970 un
25998 22973 22972 un
25999 22974 22973 un
26000 22970 22974 un
26001 22964 22972 un
26002 22976 22975 1
26003 22977 22976 1
26004 22978 22977 1
26005 22963 22975 1
26006 22962 22978 1
26007 22980 22979 1
26008 22981 22980 1
26009 22982 22981 1
26010 22977 22979 1
26011 22976 22982 1
26012 22984 22983 1
26013 22985 22984 1
26014 22986 22985 1
26015 22982 22983 1
26016 22981 22986 1
26017 22988 22987 un
26018 22989 22988 un
26019 22971 22989 un
26020 22969 22987 un
26021 22991 22990 1
26022 22992 22991 1
26023 22993 22992 1
26024 22988 22990 1
26025 22987 22993 1
26026 22995 22994 1
26027 22996 22995 1
26028 22997 22996 1
26029 22992 22994 1
26030 22991 22997 1
26031 22999 22998 un
26032 22989 22999 un
26033 22974 22998 un
26034 23001 23000 un
26035 23002 23001 un
26036 22998 23002 un
26037 22973 23000 un
26038 23004 23003 un
26039 23005 23004 un
26040 22972 23005 un
26041 23000 23003 un
26042 23007 23006 1
26043 23008 23007 un
26044 23001 23006 1
26045 23003 23008 1
26046 23010 23009 1
26047 23011 23010 1
26048 23004 23009 1
26049 23008 23011 un
26050 23013 23012 1
26051 23014 23013 1
26052 23015 23014 1
26053 23010 23012 1
26054 23009 23015 1
26055 23017 23016 1
26056 23018 23017 1
26057 23007 23018 un
26058 23011 23016 un
26059 23012 23019 1
26060 23016 23020 un
26061 23019 23020 un
26062 22946 23021 1
26063 23021 23022 1
26064 23021 23023 1
26065 22978 23024 1
26066 23026 23025 1
26067 23027 23026 un
26068 23028 23027 1
26069 23018 23025 un
26070 23017 23028 un
26071 23030 23029 un
26072 23031 23030 1
26073 23032 23031 un
26074 23028 23029 un
26075 23027 23032 un
26076 23034 23033 un
26077 23035 23034 1
26078 23036 23035 1
26079 23031 23033 un
26080 23030 23036 un
26081 23038 23037 un
26082 23039 23038 un
26083 23029 23039 un
26084 23036 23037 un
26085 23041 23040 un
26086 23042 23041 un
26087 23035 23042 un
26088 23037 23040 un
26089 23044 23043 un
26090 23038 23044 un
26091 23020 23039 un
26092 23019 23043 un
26093 23046 23045 un
26094 23044 23046 un
26095 23040 23045 un
26096 23048 23047 1
26097 23049 23048 1
26098 23050 23049 1
26099 23046 23047 1
26100 23045 23050 1
26101 23050 23051 2
26102 22905 23052 1
26103 22905 23053 1
26104 22906 23054 1
26105 22906 23055 1
26106 22907 23056 1
26107 22908 23057 1
26108 22909 23058 1
26109 22909 23059 1
26110 22911 23060 1
26111 22912 23061 1
26112 22913 23062 1
26113 22913 23063 1
26114 22914 23064 1
26115 22914 23065 1
26116 22916 23066 1
26117 22917 23067 1
26118 22918 23068 1
26119 22918 23069 1
26120 22922 23070 1
26121 22927 23071 1
26122 22927 23072 1
26123 22928 23073 1
26124 22928 23074 1
26125 22929 23075 1
26126 22929 23076 1
26127 22939 23077 1
26128 22939 23078 1
26129 22940 23079 1
26130 22941 23080 1
26131 22941 23081 1
26132 22942 23082 1
26133 22942 23083 1
26134 22945 23084 1
26135 22945 23085 1
26136 22946 23086 1
26137 22947 23087 1
26138 22947 23088 1
26139 22948 23089 1
26140 22948 23090 1
26141 22950 23091 1
26142 22954 23092 1
26143 22961 23093 1
26144 22967 23094 1
26145 22976 23095 1
26146 22977 23096 1
26147 22978 23097 1
26148 22979 23098 1
26149 22979 23099 1
26150 22980 23100 1
26151 22980 23101 1
26152 22981 23102 1
26153 22982 23103 1
26154 22983 23104 1
26155 22983 23105 1
26156 22984 23106 1
26157 22984 23107 1
26158 22985 23108 1
26159 22985 23109 1
26160 22986 23110 1
26161 22991 23111 1
26162 22992 23112 1
26163 22994 23113 1
26164 22994 23114 1
26165 22995 23115 1
26166 22995 23116 1
26167 22996 23117 1
26168 22996 23118 1
26169 22997 23119 1
26170 22997 23120 1
26171 22999 23121 1
26172 23002 23122 1
26173 23005 23123 1
26174 23009 23124 1
26175 23010 23125 1
26176 23012 23126 1
26177 23013 23127 1
26178 23013 23128 1
26179 23014 23129 1
26180 23014 23130 1
26181 23015 23131 1
26182 23015 23132 1
26183 23021 23133 1
26184 23022 23134 1
26185 23022 23135 1
26186 23022 23136 1
26187 23023 23137 1
26188 23023 23138 1
26189 23023 23139 1
26190 23024 23140 1
26191 23025 23141 1
26192 23026 23142 1
26193 23032 23143 1
26194 23033 23144 1
26195 23034 23145 1
26196 23041 23146 1
26197 23042 23147 1
26198 23043 23148 1
26199 23047 23149 1
26200 23047 23150 1
26201 23048 23151 1
26202 23048 23152 1
26203 23049 23153 1
26204 23049 23154 1
26205 23157 23156 1
26206 23158 23157 1
26207 23159 23158 1
26208 23160 23159 1
26209 23155 23156 1
26210 23155 23160 1
26211 23162 23161 1
26212 23163 23162 1
26213 23164 23163 1
26214 23158 23161 1
26215 23157 23164 1
26216 23166 23165 1
26217 23167 23166 1
26218 23168 23167 1
26219 23162 23165 1
26220 23161 23168 1
26221 23170 23169 un
26222 23171 23170 un
26223 23172 23171 un
26224 23167 23169 1
26225 23166 23172 1
26226 23174 23173 1
26227 23175 23174 un
26228 23176 23175 un
26229 23171 23173 un
26230 23170 23176 un
26231 23178 23177 1
26232 23179 23178 1
26233 23169 23179 1
26234 23176 23177 1
26235 23181 23180 1
26236 23182 23181 un
26237 23183 23182 un
26238 23175 23180 1
26239 23174 23183 un
26240 23185 23184 un
26241 23186 23185 2
26242 23172 23184 1
26243 23173 23186 un
26244 23188 23187 2
26245 23189 23188 1
26246 23190 23189 1
26247 23185 23187 1
26248 23184 23190 2
26249 23192 23191 1
26250 23193 23192 1
26251 23194 23193 2
26252 23188 23191 1
26253 23187 23194 1
26254 23196 23195 1
26255 23197 23196 1
26256 23198 23197 1
26257 23194 23195 1
26258 23193 23198 1
26259 23200 23199 un
26260 23186 23200 un
26261 23183 23199 un
26262 23202 23201 un
26263 23203 23202 1
26264 23199 23203 un
26265 23182 23201 un
26266 23205 23204 un
26267 23206 23205 un
26268 23207 23206 un
26269 23202 23204 un
26270 23201 23207 un
26271 23209 23208 un
26272 23210 23209 un
26273 23211 23210 un
26274 23206 23208 un
26275 23205 23211 un
26276 23213 23212 un
26277 23214 23213 un
26278 23215 23214 un
26279 23210 23212 un
26280 23209 23215 un
26281 23217 23216 un
26282 23181 23217 un
26283 23207 23216 un
26284 23219 23218 un
26285 23216 23219 un
26286 23208 23218 un
26287 23221 23220 un
26288 23218 23221 un
26289 23215 23220 un
26290 23223 23222 un
26291 23224 23223 un
26292 23220 23224 un
26293 23214 23222 un
26294 23226 23225 1
26295 23227 23226 1
26296 23228 23227 1
26297 23213 23225 1
26298 23212 23228 1
26299 23230 23229 1
26300 23231 23230 1
26301 23232 23231 1
26302 23227 23229 1
26303 23226 23232 1
26304 23234 23233 1
26305 23235 23234 1
26306 23236 23235 1
26307 23232 23233 1
26308 23231 23236 1
26309 23238 23237 un
26310 23239 23238 un
26311 23221 23239 un
26312 23219 23237 un
26313 23241 23240 1
26314 23242 23241 1
26315 23243 23242 1
26316 23238 23240 1
26317 23237 23243 1
26318 23245 23244 1
26319 23246 23245 1
26320 23247 23246 1
26321 23242 23244 1
26322 23241 23247 1
26323 23249 23248 un
26324 23239 23249 un
26325 23224 23248 un
26326 23251 23250 un
26327 23252 23251 un
26328 23248 23252 un
26329 23223 23250 un
26330 23254 23253 un
26331 23255 23254 un
26332 23222 23255 un
26333 23250 23253 un
26334 23257 23256 1
26335 23258 23257 un
26336 23251 23256 1
26337 23253 23258 1
26338 23260 23259 1
26339 23261 23260 1
26340 23254 23259 1
26341 23258 23261 un
26342 23263 23262 1
26343 23264 23263 1
26344 23265 23264 1
26345 23260 23262 1
26346 23259 23265 1
26347 23267 23266 1
26348 23268 23267 1
26349 23257 23268 un
26350 23261 23266 un
26351 23262 23269 1
26352 23266 23270 un
26353 23269 23270 un
26354 23196 23271 1
26355 23271 23272 1
26356 23271 23273 1
26357 23228 23274 1
26358 23276 23275 1
26359 23277 23276 un
26360 23278 23277 1
26361 23268 23275 un
26362 23267 23278 un
26363 23280 23279 un
26364 23281 23280 1
26365 23282 23281 un
26366 23278 23279 un
26367 23277 23282 un
26368 23284 23283 un
26369 23285 23284 1
26370 23286 23285 1
26371 23281 23283 un
26372 23280 23286 un
26373 23288 23287 un
26374 23289 23288 un
26375 23279 23289 un
26376 23286 23287 un
26377 23291 23290 un
26378 23292 23291 un
26379 23285 23292 un
26380 23287 23290 un
26381 23294 23293 un
26382 23288 23294 un
26383 23270 23289 un
26384 23269 23293 un
26385 23296 23295 un
26386 23294 23296 un
26387 23290 23295 un
26388 23298 23297 1
26389 23299 23298 1
26390 23300 23299 1
26391 23296 23297 1
26392 23295 23300 1
26393 23300 23301 2
26394 23155 23302 1
26395 23155 23303 1
26396 23156 23304 1
26397 23156 23305 1
26398 23157 23306 1
26399 23158 23307 1
26400 23159 23308 1
26401 23159 23309 1
26402 23161 23310 1
26403 23162 23311 1
26404 23163 23312 1
26405 23163 23313 1
26406 23164 23314 1
26407 23164 23315 1
26408 23166 23316 1
26409 23167 23317 1
26410 23168 23318 1
26411 23168 23319 1
26412 23172 23320 1
26413 23177 23321 1
26414 23177 23322 1
26415 23178 23323 1
26416 23178 23324 1
26417 23179 23325 1
26418 23179 23326 1
26419 23189 23327 1
26420 23189 23328 1
26421 23190 23329 1
26422 23191 23330 1
26423 23191 23331 1
26424 23192 23332 1
26425 23192 23333 1
26426 23195 23334 1
26427 23195 23335 1
26428 23196 23336 1
26429 23197 23337 1
26430 23197 23338 1
26431 23198 23339 1
26432 23198 23340 1
26433 23200 23341 1
26434 23204 23342 1
26435 23211 23343 1
26436 23217 23344 1
26437 23226 23345 1
26438 23227 23346 1
26439 23228 23347 1
26440 23229 23348 1
26441 23229 23349 1
26442 23230 23350 1
26443 23230 23351 1
26444 23231 23352 1
26445 23232 23353 1
26446 23233 23354 1
26447 23233 23355 1
26448 23234 23356 1
26449 23234 23357 1
26450 23235 23358 1
26451 23235 23359 1
26452 23236 23360 1
26453 23241 23361 1
26454 23242 23362 1
26455 23244 23363 1
26456 23244 23364 1
26457 23245 23365 1
26458 23245 23366 1
26459 23246 23367 1
26460 23246 23368 1
26461 23247 23369 1
26462 23247 23370 1
26463 23249 23371 1
26464 23252 23372 1
26465 23255 23373 1
26466 23259 23374 1
26467 23260 23375 1
26468 23262 23376 1
26469 23263 23377 1
26470 23263 23378 1
26471 23264 23379 1
26472 23264 23380 1
26473 23265 23381 1
26474 23265 23382 1
26475 23271 23383 1
26476 23272 23384 1
26477 23272 23385 1
26478 23272 23386 1
26479 23273 23387 1
26480 23273 23388 1
26481 23273 23389 1
26482 23274 23390 1
26483 23275 23391 1
26484 23276 23392 1
26485 23282 23393 1
26486 23283 23394 1
26487 23284 23395 1
26488 23291 23396 1
26489 23292 23397 1
26490 23293 23398 1
26491 23297 23399 1
26492 23297 23400 1
26493 23298 23401 1
26494 23298 23402 1
26495 23299 23403 1
26496 23299 23404 1
26497 23407 23406 1
26498 23408 23407 1
26499 23409 23408 1
26500 23410 23409 1
26501 23405 23406 1
26502 23405 23410 1
26503 23412 23411 1
26504 23413 23412 1
26505 23414 23413 1
26506 23408 23411 1
26507 23407 23414 1
26508 23416 23415 1
26509 23417 23416 1
26510 23418 23417 1
26511 23412 23415 1
26512 23411 23418 1
26513 23420 23419 un
26514 23421 23420 un
26515 23422 23421 un
26516 23417 23419 1
26517 23416 23422 1
26518 23424 23423 1
26519 23425 23424 un
26520 23426 23425 un
26521 23421 23423 un
26522 23420 23426 un
26523 23428 23427 1
26524 23429 23428 1
26525 23419 23429 1
26526 23426 23427 1
26527 23431 23430 1
26528 23432 23431 un
26529 23433 23432 un
26530 23425 23430 1
26531 23424 23433 un
26532 23435 23434 un
26533 23436 23435 2
26534 23422 23434 1
26535 23423 23436 un
26536 23438 23437 2
26537 23439 23438 1
26538 23440 23439 1
26539 23435 23437 1
26540 23434 23440 2
26541 23442 23441 1
26542 23443 23442 1
26543 23444 23443 2
26544 23438 23441 1
26545 23437 23444 1
26546 23446 23445 1
26547 23447 23446 1
26548 23448 23447 1
26549 23444 23445 1
26550 23443 23448 1
26551 23450 23449 un
26552 23436 23450 un
26553 23433 23449 un
26554 23452 23451 un
26555 23453 23452 1
26556 23449 23453 un
26557 23432 23451 un
26558 23455 23454 un
26559 23456 23455 un
26560 23457 23456 un
26561 23452 23454 un
26562 23451 23457 un
26563 23459 23458 un
26564 23460 23459 un
26565 23461 23460 un
26566 23456 23458 un
26567 23455 23461 un
26568 23463 23462 un
26569 23464 23463 un
26570 23465 23464 un
26571 23460 23462 un
26572 23459 23465 un
26573 23467 23466 un
26574 23431 23467 un
26575 23457 23466 un
26576 23469 23468 un
26577 23466 23469 un
26578 23458 23468 un
26579 23471 23470 un
26580 23468 23471 un
26581 23465 23470 un
26582 23473 23472 un
26583 23474 23473 un
26584 23470 23474 un
26585 23464 23472 un
26586 23476 23475 1
26587 23477 23476 1
26588 23478 23477 1
26589 23463 23475 1
26590 23462 23478 1
26591 23480 23479 1
26592 23481 23480 1
26593 23482 23481 1
26594 23477 23479 1
26595 23476 23482 1
26596 23484 23483 1
26597 23485 23484 1
26598 23486 23485 1
26599 23482 23483 1
26600 23481 23486 1
26601 23488 23487 un
26602 23489 23488 un
26603 23471 23489 un
26604 23469 23487 un
26605 23491 23490 1
26606 23492 23491 1
26607 23493 23492 1
26608 23488 23490 1
26609 23487 23493 1
26610 23495 23494 1
26611 23496 23495 1
26612 23497 23496 1
26613 23492 23494 1
26614 23491 23497 1
26615 23499 23498 un
26616 23489 23499 un
26617 23474 23498 un
26618 23501 23500 un
26619 23502 23501 un
26620 23498 23502 un
26621 23473 23500 un
26622 23504 23503 un
26623 23505 23504 un
26624 23472 23505 un
26625 23500 23503 un
26626 23507 23506 1
26627 23508 23507 un
26628 23501 23506 1
26629 23503 23508 1
26630 23510 23509 1
26631 23511 23510 1
26632 23504 23509 1
26633 23508 23511 un
26634 23513 23512 1
26635 23514 23513 1
26636 23515 23514 1
26637 23510 23512 1
26638 23509 23515 1
26639 23517 23516 1
26640 23518 23517 1
26641 23507 23518 un
26642 23511 23516 un
26643 23512 23519 1
26644 23516 23520 un
26645 23519 23520 un
26646 23446 23521 1
26647 23521 23522 1
26648 23521 23523 1
26649 23478 23524 1
26650 23526 23525 1
26651 23527 23526 un
26652 23528 23527 1
26653 23518 23525 un
26654 23517 23528 un
26655 23530 23529 un
26656 23531 23530 1
26657 23532 23531 un
26658 23528 23529 un
26659 23527 23532 un
26660 23534 23533 un
26661 23535 23534 1
26662 23536 23535 1
26663 23531 23533 un
26664 23530 23536 un
26665 23538 23537 un
26666 23539 23538 un
26667 23529 23539 un
26668 23536 23537 un
26669 23541 23540 un
26670 23542 23541 un
26671 23535 23542 un
26672 23537 23540 un
26673 23544 23543 un
26674 23538 23544 un
26675 23520 23539 un
26676 23519 23543 un
26677 23546 23545 un
26678 23544 23546 un
26679 23540 23545 un
26680 23548 23547 1
26681 23549 23548 1
26682 23550 23549 1
26683 23546 23547 1
26684 23545 23550 1
26685 23550 23551 2
26686 23405 23552 1
26687 23405 23553 1
26688 23406 23554 1
26689 23406 23555 1
26690 23407 23556 1
26691 23408 23557 1
26692 23409 23558 1
26693 23409 23559 1
26694 23411 23560 1
26695 23412 23561 1
26696 23413 23562 1
26697 23413 23563 1
26698 23414 23564 1
26699 23414 23565 1
26700 23416 23566 1
26701 23417 23567 1
26702 23418 23568 1
26703 23418 23569 1
26704 23422 23570 1
26705 23427 23571 1
26706 23427 23572 1
26707 23428 23573 1
26708 23428 23574 1
26709 23429 23575 1
26710 23429 23576 1
26711 23439 23577 1
26712 23439 23578 1
26713 23440 23579 1
26714 23441 23580 1
26715 23441 23581 1
26716 23442 23582 1
26717 23442 23583 1
26718 23445 23584 1
26719 23445 23585 1
26720 23446 23586 1
26721 23447 23587 1
26722 23447 23588 1
26723 23448 23589 1
26724 23448 23590 1
26725 23450 23591 1
26726 23454 23592 1
26727 23461 23593 1
26728 23467 23594 1
26729 23476 23595 1
26730 23477 23596 1
26731 23478 23597 1
26732 23479 23598 1
26733 23479 23599 1
26734 23480 23600 1
26735 23480 23601 1
26736 23481 23602 1
26737 23482 23603 1
26738 23483 23604 1
26739 23483 23605 1
26740 23484 23606 1
26741 23484 23607 1
26742 23485 23608 1
26743 23485 23609 1
26744 23486 23610 1
26745 23491 23611 1
26746 23492 23612 1
26747 23494 23613 1
26748 23494 23614 1
26749 23495 23615 1
26750 23495 23616 1
26751 23496 23617 1
26752 23496 23618 1
26753 23497 23619 1
26754 23497 23620 1
26755 23499 23621 1
26756 23502 23622 1
26757 23505 23623 1
26758 23509 23624 1
26759 23510 23625 1
26760 23512 23626 1
26761 23513 23627 1
26762 23513 23628 1
26763 23514 23629 1
26764 23514 23630 1
26765 23515 23631 1
26766 23515 23632 1
26767 23521 23633 1
26768 23522 23634 1
26769 23522 23635 1
26770 23522 23636 1
26771 23523 23637 1
26772 23523 23638 1
26773 23523 23639 1
26774 23524 23640 1
26775 23525 23641 1
26776 23526 23642 1
26777 23532 23643 1
26778 23533 23644 1
26779 23534 23645 1
26780 23541 23646 1
26781 23542 23647 1
26782 23543 23648 1
26783 23547 23649 1
26784 23547 23650 1
26785 23548 23651 1
26786 23548 23652 1
26787 23549 23653 1
26788 23549 23654 1
26789 23657 23656 1
26790 23658 23657 1
26791 23659 23658 1
26792 23660 23659 1
26793 23655 23656 1
26794 23655 23660 1
26795 23662 23661 1
26796 23663 23662 1
26797 23664 23663 1
26798 23658 23661 1
26799 23657 23664 1
26800 23666 23665 1
26801 23667 23666 1
26802 23668 23667 1
26803 23662 23665 1
26804 23661 23668 1
26805 23670 23669 un
26806 23671 23670 un
26807 23672 23671 un
26808 23667 23669 1
26809 23666 23672 1
26810 23674 23673 1
26811 23675 23674 un
26812 23676 23675 un
26813 23671 23673 un
26814 23670 23676 un
26815 23678 23677 1
26816 23679 23678 1
26817 23669 23679 1
26818 23676 23677 1
26819 23681 23680 1
26820 23682 23681 un
26821 23683 23682 un
26822 23675 23680 1
26823 23674 23683 un
26824 23685 23684 un
26825 23686 23685 2
26826 23672 23684 1
26827 23673 23686 un
26828 23688 23687 2
26829 23689 23688 1
26830 23690 23689 1
26831 23685 23687 1
26832 23684 23690 2
26833 23692 23691 1
26834 23693 23692 1
26835 23694 23693 2
26836 23688 23691 1
26837 23687 23694 1
26838 23696 23695 1
26839 23697 23696 1
26840 23698 23697 1
26841 23694 23695 1
26842 23693 23698 1
26843 23700 23699 un
26844 23686 23700 un
26845 23683 23699 un
26846 23702 23701 un
26847 23703 23702 1
26848 23699 23703 un
26849 23682 23701 un
26850 23705 23704 un
26851 23706 23705 un
26852 23707 23706 un
26853 23702 23704 un
26854 23701 23707 un
26855 23709 23708 un
26856 23710 23709 un
26857 23711 23710 un
26858 23706 23708 un
26859 23705 23711 un
26860 23713 23712 un
26861 23714 23713 un
26862 23715 23714 un
26863 23710 23712 un
26864 23709 23715 un
26865 23717 23716 un
26866 23681 23717 un
26867 23707 23716 un
26868 23719 23718 un
26869 23716 23719 un
26870 23708 23718 un
26871 23721 23720 un
26872 23718 23721 un
26873 23715 23720 un
26874 23723 23722 un
26875 23724 23723 un
26876 23720 23724 un
26877 23714 23722 un
26878 23726 23725 1
26879 23727 23726 1
26880 23728 23727 1
26881 23713 23725 1
26882 23712 23728 1
26883 23730 23729 1
26884 23731 23730 1
26885 23732 23731 1
26886 23727 23729 1
26887 23726 23732 1
26888 23734 23733 1
26889 23735 23734 1
26890 23736 23735 1
26891 23732 23733 1
26892 23731 23736 1
26893 23738 23737 un
26894 23739 23738 un
26895 23721 23739 un
26896 23719 23737 un
26897 23741 23740 1
26898 23742 23741 1
26899 23743 23742 1
26900 23738 23740 1
26901 23737 23743 1
26902 23745 23744 1
26903 23746 23745 1
26904 23747 23746 1
26905 23742 23744 1
26906 23741 23747 1
26907 23749 23748 un
26908 23739 23749 un
26909 23724 23748 un
26910 23751 23750 un
26911 23752 23751 un
26912 23748 23752 un
26913 23723 23750 un
26914 23754 23753 un
26915 23755 23754 un
26916 23722 23755 un
26917 23750 23753 un
26918 23757 23756 1
26919 23758 23757 un
26920 23751 23756 1
26921 23753 23758 1
26922 23760 23759 1
26923 23761 23760 1
26924 23754 23759 1
26925 23758 23761 un
26926 23763 23762 1
26927 23764 23763 1
26928 23765 23764 1
26929 23760 23762 1
26930 23759 23765 1
26931 23767 23766 1
26932 23768 23767 1
26933 23757 23768 un
26934 23761 23766 un
26935 23762 23769 1
26936 23766 23770 un
26937 23769 23770 un
26938 23696 23771 1
26939 23771 23772 1
26940 23771 23773 1
26941 23728 23774 1
26942 23776 23775 1
26943 23777 23776 un
26944 23778 23777 1
26945 23768 23775 un
26946 23767 23778 un
26947 23780 23779 un
26948 23781 23780 1
26949 23782 23781 un
26950 23778 23779 un
26951 23777 23782 un
26952 23784 23783 un
26953 23785 23784 1
26954 23786 23785 1
26955 23781 23783 un
26956 23780 23786 un
26957 23788 23787 un
26958 23789 23788 un
26959 23779 23789 un
26960 23786 23787 un
26961 23791 23790 un
26962 23792 23791 un
26963 23785 23792 un
26964 23787 23790 un
26965 23794 23793 un
26966 23788 23794 un
26967 23770 23789 un
26968 23769 23793 un
26969 23796 23795 un
26970 23794 23796 un
26971 23790 23795 un
26972 23798 23797 1
26973 23799 23798 1
26974 23800 23799 1
26975 23796 23797 1
26976 23795 23800 1
26977 23800 23801 2
26978 23655 23802 1
26979 23655 23803 1
26980 23656 23804 1
26981 23656 23805 1
26982 23657 23806 1
26983 23658 23807 1
26984 23659 23808 1
26985 23659 23809 1
26986 23661 23810 1
26987 23662 23811 1
26988 23663 23812 1
26989 23663 23813 1
26990 23664 23814 1
26991 23664 23815 1
26992 23666 23816 1
26993 23667 23817 1
26994 23668 23818 1
26995 23668 23819 1
26996 23672 23820 1
26997 23677 23821 1
26998 23677 23822 1
26999 23678 23823 1
27000 23678 23824 1
27001 23679 23825 1
27002 23679 23826 1
27003 23689 23827 1
27004 23689 23828 1
27005 23690 23829 1
27006 23691 23830 1
27007 23691 23831 1
27008 23692 23832 1
27009 23692 23833 1
27010 23695 23834 1
27011 23695 23835 1
27012 23696 23836 1
27013 23697 23837 1
27014 23697 23838 1
27015 23698 23839 1
27016 23698 23840 1
27017 23700 23841 1
27018 23704 23842 1
27019 23711 23843 1
27020 23717 23844 1
27021 23726 23845 1
27022 23727 23846 1
27023 23728 23847 1
27024 23729 23848 1
27025 23729 23849 1
27026 23730 23850 1
27027 23730 23851 1
27028 23731 23852 1
27029 23732 23853 1
27030 23733 23854 1
27031 23733 23855 1
27032 23734 23856 1
27033 23734 23857 1
27034 23735 23858 1
27035 23735 23859 1
27036 23736 23860 1
27037 23741 23861 1
27038 23742 23862 1
27039 23744 23863 1
27040 23744 23864 1
27041 23745 23865 1
27042 23745 23866 1
27043 23746 23867 1
27044 23746 23868 1
27045 23747 23869 1
27046 23747 23870 1
27047 23749 23871 1
27048 23752 23872 1
27049 23755 23873 1
27050 23759 23874 1
27051 23760 23875 1
27052 23762 23876 1
27053 23763 23877 1
27054 23763 23878 1
27055 23764 23879 1
27056 23764 23880 1
27057 23765 23881 1
27058 23765 23882 1
27059 23771 23883 1
27060 23772 23884 1
27061 23772 23885 1
27062 23772 23886 1
27063 23773 23887 1
27064 23773 23888 1
27065 23773 23889 1
27066 23774 23890 1
27067 23775 23891 1
27068 23776 23892 1
27069 23782 23893 1
27070 23783 23894 1
27071 23784 23895 1
27072 23791 23896 1
27073 23792 23897 1
27074 23793 23898 1
27075 23797 23899 1
27076 23797 23900 1
27077 23798 23901 1
27078 23798 23902 1
27079 23799 23903 1
27080 23799 23904 1
27081 23907 23906 1
27082 23908 23907 1
27083 23909 23908 1
27084 23910 23909 1
27085 23905 23906 1
27086 23905 23910 1
27087 23912 23911 1
27088 23913 23912 1
27089 23914 23913 1
27090 23908 23911 1
27091 23907 23914 1
27092 23916 23915 1
27093 23917 23916 1
27094 23918 23917 1
27095 23912 23915 1
27096 23911 23918 1
27097 23920 23919 un
27098 23921 23920 un
27099 23922 23921 un
27100 23917 23919 1
27101 23916 23922 1
27102 23924 23923 1
27103 23925 23924 un
27104 23926 23925 un
27105 23921 23923 un
27106 23920 23926 un
27107 23928 23927 1
27108 23929 23928 1
27109 23919 23929 1
27110 23926 23927 1
27111 23931 23930 1
27112 23932 23931 un
27113 23933 23932 un
27114 23925 23930 1
27115 23924 23933 un
27116 23935 23934 un
27117 23936 23935 2
27118 23922 23934 1
27119 23923 23936 un
27120 23938 23937 2
27121 23939 23938 1
27122 23940 23939 1
27123 23935 23937 1
27124 23934 23940 2
27125 23942 23941 1
27126 23943 23942 1
27127 23944 23943 2
27128 23938 23941 1
27129 23937 23944 1
27130 23946 23945 1
27131 23947 23946 1
27132 23948 23947 1
27133 23944 23945 1
27134 23943 23948 1
27135 23950 23949 un
27136 23936 23950 un
27137 23933 23949 un
27138 23952 23951 un
27139 23953 23952 1
27140 23949 23953 un
27141 23932 23951 un
27142 23955 23954 un
27143 23956 23955 un
27144 23957 23956 un
27145 23952 23954 un
27146 23951 23957 un
27147 23959 23958 un
27148 23960 23959 un
27149 23961 23960 un
27150 23956 23958 un
27151 23955 23961 un
27152 23963 23962 un
27153 23964 23963 un
27154 23965 23964 un
27155 23960 23962 un
27156 23959 23965 un
27157 23967 23966 un
27158 23931 23967 un
27159 23957 23966 un
27160 23969 23968 un
27161 23966 23969 un
27162 23958 23968 un
27163 23971 23970 un
27164 23968 23971 un
27165 23965 23970 un
27166 23973 23972 un
27167 23974 23973 un
27168 23970 23974 un
27169 23964 23972 un
27170 23976 23975 1
27171 23977 23976 1
27172 23978 23977 1
27173 23963 23975 1
27174 23962 23978 1
27175 23980 23979 1
27176 23981 23980 1
27177 23982 23981 1
27178 23977 23979 1
27179 23976 23982 1
27180 23984 23983 1
27181 23985 23984 1
27182 23986 23985 1
27183 23982 23983 1
27184 23981 23986 1
27185 23988 23987 un
27186 23989 23988 un
27187 23971 23989 un
27188 23969 23987 un
27189 23991 23990 1
27190 23992 23991 1
27191 23993 23992 1
27192 23988 23990 1
27193 23987 23993 1
27194 23995 23994 1
27195 23996 23995 1
27196 23997 23996 1
27197 23992 23994 1
27198 23991 23997 1
27199 23999 23998 un
27200 23989 23999 un
27201 23974 23998 un
27202 24001 24000 un
27203 24002 24001 un
27204 23998 24002 un
27205 23973 24000 un
27206 24004 24003 un
27207 24005 24004 un
27208 23972 24005 un
27209 24000 24003 un
27210 24007 24006 1
27211 24008 24007 un
27212 24001 24006 1
27213 24003 24008 1
27214 24010 24009 1
27215 24011 24010 1
27216 24004 24009 1
27217 24008 24011 un
27218 24013 24012 1
27219 24014 24013 1
27220 24015 24014 1
27221 24010 24012 1
27222 24009 24015 1
27223 24017 24016 1
27224 24018 24017 1
27225 24007 24018 un
27226 24011 24016 un
27227 24012 24019 1
27228 24016 24020 un
27229 24019 24020 un
27230 23946 24021 1
27231 24021 24022 1
27232 24021 24023 1
27233 23978 24024 1
27234 24026 24025 1
27235 24027 24026 un
27236 24028 24027 1
27237 24018 24025 un
27238 24017 24028 un
27239 24030 24029 un
27240 24031 24030 1
27241 24032 24031 un
27242 24028 24029 un
27243 24027 24032 un
27244 24034 24033 un
27245 24035 24034 1
27246 24036 24035 1
27247 24031 24033 un
27248 24030 24036 un
27249 24038 24037 un
27250 24039 24038 un
27251 24029 24039 un
27252 24036 24037 un
27253 24041 24040 un
27254 24042 24041 un
27255 24035 24042 un
27256 24037 24040 un
27257 24044 24043 un
27258 24038 24044 un
27259 24020 24039 un
27260 24019 24043 un
27261 24046 24045 un
27262 24044 24046 un
27263 24040 24045 un
27264 24048 24047 1
27265 24049 24048 1
27266 24050 24049 1
27267 24046 24047 1
27268 24045 24050 1
27269 24050 24051 2
27270 23905 24052 1
27271 23905 24053 1
27272 23906 24054 1
27273 23906 24055 1
27274 23907 24056 1
27275 23908 24057 1
27276 23909 24058 1
27277 23909 24059 1
27278 23911 24060 1
27279 23912 24061 1
27280 23913 24062 1
27281 23913 24063 1
27282 23914 24064 1
27283 23914 24065 1
27284 23916 24066 1
27285 23917 24067 1
27286 23918 24068 1
27287 23918 24069 1
27288 23922 24070 1
27289 23927 24071 1
27290 23927 24072 1
27291 23928 24073 1
27292 23928 24074 1
27293 23929 24075 1
27294 23929 24076 1
27295 23939 24077 1
27296 23939 24078 1
27297 23940 24079 1
27298 23941 24080 1
27299 23941 24081 1
27300 23942 24082 1
27301 23942 24083 1
27302 23945 24084 1
27303 23945 24085 1
27304 23946 24086 1
27305 23947 24087 1
27306 23947 24088 1
27307 23948 24089 1
27308 23948 24090 1
27309 23950 24091 1
27310 23954 24092 1
27311 23961 24093 1
27312 23967 24094 1
27313 23976 24095 1
27314 23977 24096 1
27315 23978 24097 1
27316 23979 24098 1
27317 23979 24099 1
27318 23980 24100 1
27319 23980 24101 1
27320 23981 24102 1
27321 23982 24103 1
27322 23983 24104 1
27323 23983 24105 1
27324 23984 24106 1
27325 23984 24107 1
27326 23985 24108 1
27327 23985 24109 1
27328 23986 24110 1
27329 23991 24111 1
27330 23992 24112 1
27331 23994 24113 1
27332 23994 24114 1
27333 23995 24115 1
27334 23995 24116 1
27335 23996 24117 1
27336 23996 24118 1
27337 23997 24119 1
27338 23997 24120 1
27339 23999 24121 1
27340 24002 24122 1
27341 24005 24123 1
27342 24009 24124 1
27343 24010 24125 1
27344 24012 24126 1
27345 24013 24127 1
27346 24013 24128 1
27347 24014 24129 1
27348 24014 24130 1
27349 24015 24131 1
27350 24015 24132 1
27351 24021 24133 1
27352 24022 24134 1
27353 24022 24135 1
27354 24022 24136 1
27355 24023 24137 1
27356 24023 24138 1
27357 24023 24139 1
27358 24024 24140 1
27359 24025 24141 1
27360 24026 24142 1
27361 24032 24143 1
27362 24033 24144 1
27363 24034 24145 1
27364 24041 24146 1
27365 24042 24147 1
27366 24043 24148 1
27367 24047 24149 1
27368 24047 24150 1
27369 24048 24151 1
27370 24048 24152 1
27371 24049 24153 1
27372 24049 24154 1
27373 24157 24156 1
27374 24158 24157 1
27375 24159 24158 1
27376 24160 24159 1
27377 24155 24156 1
27378 24155 24160 1
27379 24162 24161 1
27380 24163 24162 1
27381 24164 24163 1
27382 24158 24161 1
27383 24157 24164 1
27384 24166 24165 1
27385 24167 24166 1
27386 24168 24167 1
27387 24162 24165 1
27388 24161 24168 1
27389 24170 24169 un
27390 24171 24170 un
27391 24172 24171 un
27392 24167 24169 1
27393 24166 24172 1
27394 24174 24173 1
27395 24175 24174 un
27396 24176 24175 un
27397 24171 24173 un
27398 24170 24176 un
27399 24178 24177 1
27400 24179 24178 1
27401 24169 24179 1
27402 24176 24177 1
27403 24181 24180 1
27404 24182 24181 un
27405 24183 24182 un
27406 24175 24180 1
27407 24174 24183 un
27408 24185 24184 un
27409 24186 24185 2
27410 24172 24184 1
27411 24173 24186 un
27412 24188 24187 2
27413 24189 24188 1
27414 24190 24189 1
27415 24185 24187 1
27416 24184 24190 2
27417 24192 24191 1
27418 24193 24192 1
27419 24194 24193 2
27420 24188 24191 1
27421 24187 24194 1
27422 24196 24195 1
27423 24197 24196 1
27424 24198 24197 1
27425 24194 24195 1
27426 24193 24198 1
27427 24200 24199 un
27428 24186 24200 un
27429 24183 24199 un
27430 24202 24201 un
27431 24203 24202 1
27432 24199 24203 un
27433 24182 24201 un
27434 24205 24204 un
27435 24206 24205 un
27436 24207 24206 un
27437 24202 24204 un
27438 24201 24207 un
27439 24209 24208 un
27440 24210 24209 un
27441 24211 24210 un
27442 24206 24208 un
27443 24205 24211 un
27444 24213 24212 un
27445 24214 24213 un
27446 24215 24214 un
27447 24210 24212 un
27448 24209 24215 un
27449 24217 24216 un
27450 24181 24217 un
27451 24207 24216 un
27452 24219 24218 un
27453 24216 24219 un
27454 24208 24218 un
27455 24221 24220 un
27456 24218 24221 un
27457 24215 24220 un
27458 24223 24222 un
27459 24224 24223 un
27460 24220 24224 un
27461 24214 24222 un
27462 24226 24225 1
27463 24227 24226 1
27464 24228 24227 1
27465 24213 24225 1
27466 24212 24228 1
27467 24230 24229 1
27468 24231 24230 1
27469 24232 24231 1
27470 24227 24229 1
27471 24226 24232 1
27472 24234 24233 1
27473 24235 24234 1
27474 24236 24235 1
27475 24232 24233 1
27476 24231 24236 1
27477 24238 24237 un
27478 24239 24238 un
27479 24221 24239 un
27480 24219 24237 un
27481 24241 24240 1
27482 24242 24241 1
27483 24243 24242 1
27484 24238 24240 1
27485 24237 24243 1
27486 24245 24244 1
27487 24246 24245 1
27488 24247 24246 1
27489 24242 24244 1
27490 24241 24247 1
27491 24249 24248 un
27492 24239 24249 un
27493 24224 24248 un
27494 24251 24250 un
27495 24252 24251 un
27496 24248 24252 un
27497 24223 24250 un
27498 24254 24253 un
27499 24255 24254 un
27500 24222 24255 un
27501 24250 24253 un
27502 24257 24256 1
27503 24258 24257 un
27504 24251 24256 1
27505 24253 24258 1
27506 24260 24259 1
27507 24261 24260 1
27508 24254 24259 1
27509 24258 24261 un
27510 24263 24262 1
27511 24264 24263 1
27512 24265 24264 1
27513 24260 24262 1
27514 24259 24265 1
27515 24267 24266 1
27516 24268 24267 1
27517 24257 24268 un
27518 24261 24266 un
27519 24262 24269 1
27520 24266 24270 un
27521 24269 24270 un
27522 24196 24271 1
27523 24271 24272 1
27524 24271 24273 1
27525 24228 24274 1
27526 24276 24275 1
27527 24277 24276 un
27528 24278 24277 1
27529 24268 24275 un
27530 24267 24278 un
27531 24280 24279 un
27532 24281 24280 1
27533 24282 24281 un
27534 24278 24279 un
27535 24277 24282 un
27536 24284 24283 un
27537 24285 24284 1
27538 24286 24285 1
27539 24281 24283 un
27540 24280 24286 un
27541 24288 24287 un
27542 24289 24288 un
27543 24279 24289 un
27544 24286 24287 un
27545 24291 24290 un
27546 24292 24291 un
27547 24285 24292 un
27548 24287 24290 un
27549 24294 24293 un
27550 24288 24294 un
27551 24270 24289 un
27552 24269 24293 un
27553 24296 24295 un
27554 24294 24296 un
27555 24290 24295 un
27556 24298 24297 1
27557 24299 24298 1
27558 24300 24299 1
27559 24296 24297 1
27560 24295 24300 1
27561 24300 24301 2
27562 24155 24302 1
27563 24155 24303 1
27564 24156 24304 1
27565 24156 24305 1
27566 24157 24306 1
27567 24158 24307 1
27568 24159 24308 1
27569 24159 24309 1
27570 24161 24310 1
27571 24162 24311 1
27572 24163 24312 1
27573 24163 24313 1
27574 24164 24314 1
27575 24164 24315 1
27576 24166 24316 1
27577 24167 24317 1
27578 24168 24318 1
27579 24168 24319 1
27580 24172 24320 1
27581 24177 24321 1
27582 24177 24322 1
27583 24178 24323 1
27584 24178 24324 1
27585 24179 24325 1
27586 24179 24326 1
27587 24189 24327 1
27588 24189 24328 1
27589 24190 24329 1
27590 24191 24330 1
27591 24191 24331 1
27592 24192 24332 1
27593 24192 24333 1
27594 24195 24334 1
27595 24195 24335 1
27596 24196 24336 1
27597 24197 24337 1
27598 24197 24338 1
27599 24198 24339 1
27600 24198 24340 1
27601 24200 24341 1
27602 24204 24342 1
27603 24211 24343 1
27604 24217 24344 1
27605 24226 24345 1
27606 24227 24346 1
27607 24228 24347 1
27608 24229 24348 1
27609 24229 24349 1
27610 24230 24350 1
27611 24230 24351 1
27612 24231 24352 1
27613 24232 24353 1
27614 24233 24354 1
27615 24233 24355 1
27616 24234 24356 1
27617 24234 24357 1
27618 24235 24358 1
27619 24235 24359 1
27620 24236 24360 1
27621 24241 24361 1
27622 24242 24362 1
27623 24244 24363 1
27624 24244 24364 1
27625 24245 24365 1
27626 24245 24366 1
27627 24246 24367 1
27628 24246 24368 1
27629 24247 24369 1
27630 24247 24370 1
27631 24249 24371 1
27632 24252 24372 1
27633 24255 24373 1
27634 24259 24374 1
27635 24260 24375 1
27636 24262 24376 1
27637 24263 24377 1
27638 24263 24378 1
27639 24264 24379 1
27640 24264 24380 1
27641 24265 24381 1
27642 24265 24382 1
27643 24271 24383 1
27644 24272 24384 1
27645 24272 24385 1
27646 24272 24386 1
27647 24273 24387 1
27648 24273 24388 1
27649 24273 24389 1
27650 24274 24390 1
27651 24275 24391 1
27652 24276 24392 1
27653 24282 24393 1
27654 24283 24394 1
27655 24284 24395 1
27656 24291 24396 1
27657 24292 24397 1
27658 24293 24398 1
27659 24297 24399 1
27660 24297 24400 1
27661 24298 24401 1
27662 24298 24402 1
27663 24299 24403 1
27664 24299 24404 1
27665 24407 24406 1
27666 24408 24407 1
27667 24409 24408 1
27668 24410 24409 1
27669 24405 24406 1
27670 24405 24410 1
27671 24412 24411 1
27672 24413 24412 1
27673 24414 24413 1
27674 24408 24411 1
27675 24407 24414 1
27676 24416 24415 1
27677 24417 24416 1
27678 24418 24417 1
27679 24412 24415 1
27680 24411 24418 1
27681 24420 24419 un
27682 24421 24420 un
27683 24422 24421 un
27684 24417 24419 1
27685 24416 24422 1
27686 24424 24423 1
27687 24425 24424 un
27688 24426 24425 un
27689 24421 24423 un
27690 24420 24426 un
27691 24428 24427 1
27692 24429 24428 1
27693 24419 24429 1
27694 24426 24427 1
27695 24431 24430 1
27696 24432 24431 un
27697 24433 24432 un
27698 24425 24430 1
27699 24424 24433 un
27700 24435 24434 un
27701 24436 24435 2
27702 24422 24434 1
27703 24423 24436 un
27704 24438 24437 2
27705 24439 24438 1
27706 24440 24439 1
27707 24435 24437 1
27708 24434 24440 2
27709 24442 24441 1
27710 24443 24442 1
27711 24444 24443 2
27712 24438 24441 1
27713 24437 24444 1
27714 24446 24445 1
27715 24447 24446 1
27716 24448 24447 1
27717 24444 24445 1
27718 24443 24448 1
27719 24450 24449 un
27720 24436 24450 un
27721 24433 24449 un
27722 24452 24451 un
27723 24453 24452 1
27724 24449 24453 un
27725 24432 24451 un
27726 24455 24454 un
27727 24456 24455 un
27728 24457 24456 un
27729 24452 24454 un
27730 24451 24457 un
27731 24459 24458 un
27732 24460 24459 un
27733 24461 24460 un
27734 24456 24458 un
27735 24455 24461 un
27736 24463 24462 un
27737 24464 24463 un
27738 24465 24464 un
27739 24460 24462 un
27740 24459 24465 un
27741 24467 24466 un
27742 24431 24467 un
27743 24457 24466 un
27744 24469 24468 un
27745 24466 24469 un
27746 24458 24468 un
27747 24471 24470 un
27748 24468 24471 un
27749 24465 24470 un
27750 24473 24472 un
27751 24474 24473 un
27752 24470 24474 un
27753 24464 24472 un
27754 24476 24475 1
27755 24477 24476 1
27756 24478 24477 1
27757 24463 24475 1
27758 24462 24478 1
27759 24480 24479 1
27760 24481 24480 1
27761 24482 24481 1
27762 24477 24479 1
27763 24476 24482 1
27764 24484 24483 1
27765 24485 24484 1
27766 24486 24485 1
27767 24482 24483 1
27768 24481 24486 1
27769 24488 24487 un
27770 24489 24488 un
27771 24471 24489 un
27772 24469 24487 un
27773 24491 24490 1
27774 24492 24491 1
27775 24493 24492 1
27776 24488 24490 1
27777 24487 24493 1
27778 24495 24494 1
27779 24496 24495 1
27780 24497 24496 1
27781 24492 24494 1
27782 24491 24497 1
27783 24499 24498 un
27784 24489 24499 un
27785 24474 24498 un
27786 24501 24500 un
27787 24502 24501 un
27788 24498 24502 un
27789 24473 24500 un
27790 24504 24503 un
27791 24505 24504 un
27792 24472 24505 un
27793 24500 24503 un
27794 24507 24506 1
27795 24508 24507 un
27796 24501 24506 1
27797 24503 24508 1
27798 24510 24509 1
27799 24511 24510 1
27800 24504 24509 1
27801 24508 24511 un
27802 24513 24512 1
27803 24514 24513 1
27804 24515 24514 1
27805 24510 24512 1
27806 24509 24515 1
27807 24517 24516 1
27808 24518 24517 1
27809 24507 24518 un
27810 24511 24516 un
27811 24512 24519 1
27812 24516 24520 un
27813 24519 24520 un
27814 24446 24521 1
27815 24521 24522 1
27816 24521 24523 1
27817 24478 24524 1
27818 24526 24525 1
27819 24527 24526 un
27820 24528 24527 1
27821 24518 24525 un
27822 24517 24528 un
27823 24530 24529 un
27824 24531 24530 1
27825 24532 24531 un
27826 24528 24529 un
27827 24527 24532 un
27828 24534 24533 un
27829 24535 24534 1
27830 24536 24535 1
27831 24531 24533 un
27832 24530 24536 un
27833 24538 24537 un
27834 24539 24538 un
27835 24529 24539 un
27836 24536 24537 un
27837 24541 24540 un
27838 24542 24541 un
27839 24535 24542 un
27840 24537 24540 un
27841 24544 24543 un
27842 24538 24544 un
27843 24520 24539 un
27844 24519 24543 un
27845 24546 24545 un
27846 24544 24546 un
27847 24540 24545 un
27848 24548 24547 1
27849 24549 24548 1
27850 24550 24549 1
27851 24546 24547 1
27852 24545 24550 1
27853 24550 24551 2
27854 24405 24552 1
27855 24405 24553 1
27856 24406 24554 1
27857 24406 24555 1
27858 24407 24556 1
27859 24408 24557 1
27860 24409 24558 1
27861 24409 24559 1
27862 24411 24560 1
27863 24412 24561 1
27864 24413 24562 1
27865 24413 24563 1
27866 24414 24564 1
27867 24414 24565 1
27868 24416 24566 1
27869 24417 24567 1
27870 24418 24568 1
27871 24418 24569 1
27872 24422 24570 1
27873 24427 24571 1
27874 24427 24572 1
27875 24428 24573 1
27876 24428 24574 1
27877 24429 24575 1
27878 24429 24576 1
27879 24439 24577 1
27880 24439 24578 1
27881 24440 24579 1
27882 24441 24580 1
27883 24441 24581 1
27884 24442 24582 1
27885 24442 24583 1
27886 24445 24584 1
27887 24445 24585 1
27888 24446 24586 1
27889 24447 24587 1
27890 24447 24588 1
27891 24448 24589 1
27892 24448 24590 1
27893 24450 24591 1
27894 24454 24592 1
27895 24461 24593 1
27896 24467 24594 1
27897 24476 24595 1
27898 24477 24596 1
27899 24478 24597 1
27900 24479 24598 1
27901 24479 24599 1
27902 24480 24600 1
27903 24480 24601 1
27904 24481 24602 1
27905 24482 24603 1
27906 24483 24604 1
27907 24483 24605 1
27908 24484 24606 1
27909 24484 24607 1
27910 24485 24608 1
27911 24485 24609 1
27912 24486 24610 1
27913 24491 24611 1
27914 24492 24612 1
27915 24494 24613 1
27916 24494 24614 1
27917 24495 24615 1
27918 24495 24616 1
27919 24496 24617 1
27920 24496 24618 1
27921 24497 24619 1
27922 24497 24620 1
27923 24499 24621 1
27924 24502 24622 1
27925 24505 24623 1
27926 24509 24624 1
27927 24510 24625 1
27928 24512 24626 1
27929 24513 24627 1
27930 24513 24628 1
27931 24514 24629 1
27932 24514 24630 1
27933 24515 24631 1
27934 24515 24632 1
27935 24521 24633 1
27936 24522 24634 1
27937 24522 24635 1
27938 24522 24636 1
27939 24523 24637 1
27940 24523 24638 1
27941 24523 24639 1
27942 24524 24640 1
27943 24525 24641 1
27944 24526 24642 1
27945 24532 24643 1
27946 24533 24644 1
27947 24534 24645 1
27948 24541 24646 1
27949 24542 24647 1
27950 24543 24648 1
27951 24547 24649 1
27952 24547 24650 1
27953 24548 24651 1
27954 24548 24652 1
27955 24549 24653 1
27956 24549 24654 1
27957 24657 24656 1
27958 24658 24657 1
27959 24659 24658 1
27960 24660 24659 1
27961 24655 24656 1
27962 24655 24660 1
27963 24662 24661 1
27964 24663 24662 1
27965 24664 24663 1
27966 24658 24661 1
27967 24657 24664 1
27968 24666 24665 1
27969 24667 24666 1
27970 24668 24667 1
27971 24662 24665 1
27972 24661 24668 1
27973 24670 24669 un
27974 24671 24670 un
27975 24672 24671 un
27976 24667 24669 1
27977 24666 24672 1
27978 24674 24673 1
27979 24675 24674 un
27980 24676 24675 un
27981 24671 24673 un
27982 24670 24676 un
27983 24678 24677 1
27984 24679 24678 1
27985 24669 24679 1
27986 24676 24677 1
27987 24681 24680 1
27988 24682 24681 un
27989 24683 24682 un
27990 24675 24680 1
27991 24674 24683 un
27992 24685 24684 un
27993 24686 24685 2
27994 24672 24684 1
27995 24673 24686 un
27996 24688 24687 2
27997 24689 24688 1
27998 24690 24689 1
27999 24685 24687 1
28000 24684 24690 2
28001 24692 24691 1
28002 24693 24692 1
28003 24694 24693 2
28004 24688 24691 1
28005 24687 24694 1
28006 24696 24695 1
28007 24697 24696 1
28008 24698 24697 1
28009 24694 24695 1
28010 24693 24698 1
28011 24700 24699 un
28012 24686 24700 un
28013 24683 24699 un
28014 24702 24701 un
28015 24703 24702 1
28016 24699 24703 un
28017 24682 24701 un
28018 24705 24704 un
28019 24706 24705 un
28020 24707 24706 un
28021 24702 24704 un
28022 24701 24707 un
28023 24709 24708 un
28024 24710 24709 un
28025 24711 24710 un
28026 24706 24708 un
28027 24705 24711 un
28028 24713 24712 un
28029 24714 24713 un
28030 24715 24714 un
28031 24710 24712 un
28032 24709 24715 un
28033 24717 24716 un
28034 24681 24717 un
28035 24707 24716 un
28036 24719 24718 un
28037 24716 24719 un
28038 24708 24718 un
28039 24721 24720 un
28040 24718 24721 un
28041 24715 24720 un
28042 24723 24722 un
28043 24724 24723 un
28044 24720 24724 un
28045 24714 24722 un
28046 24726 24725 1
28047 24727 24726 1
28048 24728 24727 1
28049 24713 24725 1
28050 24712 24728 1
28051 24730 24729 1
28052 24731 24730 1
28053 24732 24731 1
28054 24727 24729 1
28055 24726 24732 1
28056 24734 24733 1
28057 24735 24734 1
28058 24736 24735 1
28059 24732 24733 1
28060 24731 24736 1
28061 24738 24737 un
28062 24739 24738 un
28063 24721 24739 un
28064 24719 24737 un
28065 24741 24740 1
28066 24742 24741 1
28067 24743 24742 1
28068 24738 24740 1
28069 24737 24743 1
28070 24745 24744 1
28071 24746 24745 1
28072 24747 24746 1
28073 24742 24744 1
28074 24741 24747 1
28075 24749 24748 un
28076 24739 24749 un
28077 24724 24748 un
28078 24751 24750 un
28079 24752 24751 un
28080 24748 24752 un
28081 24723 24750 un
28082 24754 24753 un
28083 24755 24754 un
28084 24722 24755 un
28085 24750 24753 un
28086 24757 24756 1
28087 24758 24757 un
28088 24751 24756 1
28089 24753 24758 1
28090 24760 24759 1
28091 24761 24760 1
28092 24754 24759 1
28093 24758 24761 un
28094 24763 24762 1
28095 24764 24763 1
28096 24765 24764 1
28097 24760 24762 1
28098 24759 24765 1
28099 24767 24766 1
28100 24768 24767 1
28101 24757 24768 un
28102 24761 24766 un
28103 24762 24769 1
28104 24766 24770 un
28105 24769 24770 un
28106 24696 24771 1
28107 24771 24772 1
28108 24771 24773 1
28109 24728 24774 1
28110 24776 24775 1
28111 24777 24776 un
28112 24778 24777 1
28113 24768 24775 un
28114 24767 24778 un
28115 24780 24779 un
28116 24781 24780 1
28117 24782 24781 un
28118 24778 24779 un
28119 24777 24782 un
28120 24784 24783 un
28121 24785 24784 1
28122 24786 24785 1
28123 24781 24783 un
28124 24780 24786 un
28125 24788 24787 un
28126 24789 24788 un
28127 24779 24789 un
28128 24786 24787 un
28129 24791 24790 un
28130 24792 24791 un
28131 24785 24792 un
28132 24787 24790 un
28133 24794 24793 un
28134 24788 24794 un
28135 24770 24789 un
28136 24769 24793 un
28137 24796 24795 un
28138 24794 24796 un
28139 24790 24795 un
28140 24798 24797 1
28141 24799 24798 1
28142 24800 24799 1
28143 24796 24797 1
28144 24795 24800 1
28145 24800 24801 2
28146 24655 24802 1
28147 24655 24803 1
28148 24656 24804 1
28149 24656 24805 1
28150 24657 24806 1
28151 24658 24807 1
28152 24659 24808 1
28153 24659 24809 1
28154 24661 24810 1
28155 24662 24811 1
28156 24663 24812 1
28157 24663 24813 1
28158 24664 24814 1
28159 24664 24815 1
28160 24666 24816 1
28161 24667 24817 1
28162 24668 24818 1
28163 24668 24819 1
28164 24672 24820 1
28165 24677 24821 1
28166 24677 24822 1
28167 24678 24823 1
28168 24678 24824 1
28169 24679 24825 1
28170 24679 24826 1
28171 24689 24827 1
28172 24689 24828 1
28173 24690 24829 1
28174 24691 24830 1
28175 24691 24831 1
28176 24692 24832 1
28177 24692 24833 1
28178 24695 24834 1
28179 24695 24835 1
28180 24696 24836 1
28181 24697 24837 1
28182 24697 24838 1
28183 24698 24839 1
28184 24698 24840 1
28185 24700 24841 1
28186 24704 24842 1
28187 24711 24843 1
28188 24717 24844 1
28189 24726 24845 1
28190 24727 24846 1
28191 24728 24847 1
28192 24729 24848 1
28193 24729 24849 1
28194 24730 24850 1
28195 24730 24851 1
28196 24731 24852 1
28197 24732 24853 1
28198 24733 24854 1
28199 24733 24855 1
28200 24734 24856 1
28201 24734 24857 1
28202 24735 24858 1
28203 24735 24859 1
28204 24736 24860 1
28205 24741 24861 1
28206 24742 24862 1
28207 24744 24863 1
28208 24744 24864 1
28209 24745 24865 1
28210 24745 24866 1
28211 24746 24867 1
28212 24746 24868 1
28213 24747 24869 1
28214 24747 24870 1
28215 24749 24871 1
28216 24752 24872 1
28217 24755 24873 1
28218 24759 24874 1
28219 24760 24875 1
28220 24762 24876 1
28221 24763 24877 1
28222 24763 24878 1
28223 24764 24879 1
28224 24764 24880 1
28225 24765 24881 1
28226 24765 24882 1
28227 24771 24883 1
28228 24772 24884 1
28229 24772 24885 1
28230 24772 24886 1
28231 24773 24887 1
28232 24773 24888 1
28233 24773 24889 1
28234 24774 24890 1
28235 24775 24891 1
28236 24776 24892 1
28237 24782 24893 1
28238 24783 24894 1
28239 24784 24895 1
28240 24791 24896 1
28241 24792 24897 1
28242 24793 24898 1
28243 24797 24899 1
28244 24797 24900 1
28245 24798 24901 1
28246 24798 24902 1
28247 24799 24903 1
28248 24799 24904 1
28249 24907 24906 1
28250 24908 24907 1
28251 24909 24908 1
28252 24910 24909 1
28253 24905 24906 1
28254 24905 24910 1
28255 24912 24911 1
28256 24913 24912 1
28257 24914 24913 1
28258 24908 24911 1
28259 24907 24914 1
28260 24916 24915 1
28261 24917 24916 1
28262 24918 24917 1
28263 24912 24915 1
28264 24911 24918 1
28265 24920 24919 un
28266 24921 24920 un
28267 24922 24921 un
28268 24917 24919 1
28269 24916 24922 1
28270 24924 24923 1
28271 24925 24924 un
28272 24926 24925 un
28273 24921 24923 un
28274 24920 24926 un
28275 24928 24927 1
28276 24929 24928 1
28277 24919 24929 1
28278 24926 24927 1
28279 24931 24930 1
28280 24932 24931 un
28281 24933 24932 un
28282 24925 24930 1
28283 24924 24933 un
28284 24935 24934 un
28285 24936 24935 2
28286 24922 24934 1
28287 24923 24936 un
28288 24938 24937 2
28289 24939 24938 1
28290 24940 24939 1
28291 24935 24937 1
28292 24934 24940 2
28293 24942 24941 1
28294 24943 24942 1
28295 24944 24943 2
28296 24938 24941 1
28297 24937 24944 1
28298 24946 24945 1
28299 24947 24946 1
28300 24948 24947 1
28301 24944 24945 1
28302 24943 24948 1
28303 24950 24949 un
28304 24936 24950 un
28305 24933 24949 un
28306 24952 24951 un
28307 24953 24952 1
28308 24949 24953 un
28309 24932 24951 un
28310 24955 24954 un
28311 24956 24955 un
28312 24957 24956 un
28313 24952 24954 un
28314 24951 24957 un
28315 24959 24958 un
28316 24960 24959 un
28317 24961 24960 un
28318 24956 24958 un
28319 24955 24961 un
28320 24963 24962 un
28321 24964 24963 un
28322 24965 24964 un
28323 24960 24962 un
28324 24959 24965 un
28325 24967 24966 un
28326 24931 24967 un
28327 24957 24966 un
28328 24969 24968 un
28329 24966 24969 un
28330 24958 24968 un
28331 24971 24970 un
28332 24968 24971 un
28333 24965 24970 un
28334 24973 24972 un
28335 24974 24973 un
28336 24970 24974 un
28337 24964 24972 un
28338 24976 24975 1
28339 24977 24976 1
28340 24978 24977 1
28341 24963 24975 1
28342 24962 24978 1
28343 24980 24979 1
28344 24981 24980 1
28345 24982 24981 1
28346 24977 24979 1
28347 24976 24982 1
28348 24984 24983 1
28349 24985 24984 1
28350 24986 24985 1
28351 24982 24983 1
28352 24981 24986 1
28353 24988 24987 un
28354 24989 24988 un
28355 24971 24989 un
28356 24969 24987 un
28357 24991 24990 1
28358 24992 24991 1
28359 24993 24992 1
28360 24988 24990 1
28361 24987 24993 1
28362 24995 24994 1
28363 24996 24995 1
28364 24997 24996 1
28365 24992 24994 1
28366 24991 24997 1
28367 24999 24998 un
28368 24989 24999 un
28369 24974 24998 un
28370 25001 25000 un
28371 25002 25001 un
28372 24998 25002 un
28373 24973 25000 un
28374 25004 25003 un
28375 25005 25004 un
28376 24972 25005 un
28377 25000 25003 un
28378 25007 25006 1
28379 25008 25007 un
28380 25001 25006 1
28381 25003 25008 1
28382 25010 25009 1
28383 25011 25010 1
28384 25004 25009 1
28385 25008 25011 un
28386 25013 25012 1
28387 25014 25013 1
28388 25015 25014 1
28389 25010 25012 1
28390 25009 25015 1
28391 25017 25016 1
28392 25018 25017 1
28393 25007 25018 un
28394 25011 25016 un
28395 25012 25019 1
28396 25016 25020 un
28397 25019 25020 un
28398 24946 25021 1
28399 25021 25022 1
28400 25021 25023 1
28401 24978 25024 1
28402 25026 25025 1
28403 25027 25026 un
28404 25028 25027 1
28405 25018 25025 un
28406 25017 25028 un
28407 25030 25029 un
28408 25031 25030 1
28409 25032 25031 un
28410 25028 25029 un
28411 25027 25032 un
28412 25034 25033 un
28413 25035 25034 1
28414 25036 25035 1
28415 25031 25033 un
28416 25030 25036 un
28417 25038 25037 un
28418 25039 25038 un
28419 25029 25039 un
28420 25036 25037 un
28421 25041 25040 un
28422 25042 25041 un
28423 25035 25042 un
28424 25037 25040 un
28425 25044 25043 un
28426 25038 25044 un
28427 25020 25039 un
28428 25019 25043 un
28429 25046 25045 un
28430 25044 25046 un
28431 25040 25045 un
28432 25048 25047 1
28433 25049 25048 1
28434 25050 25049 1
28435 25046 25047 1
28436 25045 25050 1
28437 25050 25051 2
28438 24905 25052 1
28439 24905 25053 1
28440 24906 25054 1
28441 24906 25055 1
28442 24907 25056 1
28443 24908 25057 1
28444 24909 25058 1
28445 24909 25059 1
28446 24911 25060 1
28447 24912 25061 1
28448 24913 25062 1
28449 24913 25063 1
28450 24914 25064 1
28451 24914 25065 1
28452 24916 25066 1
28453 24917 25067 1
28454 24918 25068 1
28455 24918 25069 1
28456 24922 25070 1
28457 24927 25071 1
28458 24927 25072 1
28459 24928 25073 1
28460 24928 25074 1
28461 24929 25075 1
28462 24929 25076 1
28463 24939 25077 1
28464 24939 25078 1
28465 24940 25079 1
28466 24941 25080 1
28467 24941 25081 1
28468 24942 25082 1
28469 24942 25083 1
28470 24945 25084 1
28471 24945 25085 1
28472 24946 25086 1
28473 24947 25087 1
28474 24947 25088 1
28475 24948 25089 1
28476 24948 25090 1
28477 24950 25091 1
28478 24954 25092 1
28479 24961 25093 1
28480 24967 25094 1
28481 24976 25095 1
28482 24977 25096 1
28483 24978 25097 1
28484 24979 25098 1
28485 24979 25099 1
28486 24980 25100 1
28487 24980 25101 1
28488 24981 25102 1
28489 24982 25103 1
28490 24983 25104 1
28491 24983 25105 1
28492 24984 25106 1
28493 24984 25107 1
28494 24985 25108 1
28495 24985 25109 1
28496 24986 25110 1
28497 24991 25111 1
28498 24992 25112 1
28499 24994 25113 1
28500 24994 25114 1
28501 24995 25115 1
28502 24995 25116 1
28503 24996 25117 1
28504 24996 25118 1
28505 24997 25119 1
28506 24997 25120 1
28507 24999 25121 1
28508 25002 25122 1
28509 25005 25123 1
28510 25009 25124 1
28511 25010 25125 1
28512 25012 25126 1
28513 25013 25127 1
28514 25013 25128 1
28515 25014 25129 1
28516 25014 25130 1
28517 25015 25131 1
28518 25015 25132 1
28519 25021 25133 1
28520 25022 25134 1
28521 25022 25135 1
28522 25022 25136 1
28523 25023 25137 1
28524 25023 25138 1
28525 25023 25139 1
28526 25024 25140 1
28527 25025 25141 1
28528 25026 25142 1
28529 25032 25143 1
28530 25033 25144 1
28531 25034 25145 1
28532 25041 25146 1
28533 25042 25147 1
28534 25043 25148 1
28535 25047 25149 1
28536 25047 25150 1
28537 25048 25151 1
28538 25048 25152 1
28539 25049 25153 1
28540 25049 25154 1
28541 25157 25156 1
28542 25158 25157 1
28543 25159 25158 1
28544 25160 25159 1
28545 25155 25156 1
28546 25155 25160 1
28547 25162 25161 1
28548 25163 25162 1
28549 25164 25163 1
28550 25158 25161 1
28551 25157 25164 1
28552 25166 25165 1
28553 25167 25166 1
28554 25168 25167 1
28555 25162 25165 1
28556 25161 25168 1
28557 25170 25169 un
28558 25171 25170 un
28559 25172 25171 un
28560 25167 25169 1
28561 25166 25172 1
28562 25174 25173 1
28563 25175 25174 un
28564 25176 25175 un
28565 25171 25173 un
28566 25170 25176 un
28567 25178 25177 1
28568 25179 25178 1
28569 25169 25179 1
28570 25176 25177 1
28571 25181 25180 1
28572 25182 25181 un
28573 25183 25182 un
28574 25175 25180 1
28575 25174 25183 un
28576 25185 25184 un
28577 25186 25185 2
28578 25172 25184 1
28579 25173 25186 un
28580 25188 25187 2
28581 25189 25188 1
28582 25190 25189 1
28583 25185 25187 1
28584 25184 25190 2
28585 25192 25191 1
28586 25193 25192 1
28587 25194 25193 2
28588 25188 25191 1
28589 25187 25194 1
28590 25196 25195 1
28591 25197 25196 1
28592 25198 25197 1
28593 25194 25195 1
28594 25193 25198 1
28595 25200 25199 un
28596 25186 25200 un
28597 25183 25199 un
28598 25202 25201 un
28599 25203 25202 1
28600 25199 25203 un
28601 25182 25201 un
28602 25205 25204 un
28603 25206 25205 un
28604 25207 25206 un
28605 25202 25204 un
28606 25201 25207 un
28607 25209 25208 un
28608 25210 25209 un
28609 25211 25210 un
28610 25206 25208 un
28611 25205 25211 un
28612 25213 25212 un
28613 25214 25213 un
28614 25215 25214 un
28615 25210 25212 un
28616 25209 25215 un
28617 25217 25216 un
28618 25181 25217 un
28619 25207 25216 un
28620 25219 25218 un
28621 25216 25219 un
28622 25208 25218 un
28623 25221 25220 un
28624 25218 25221 un
28625 25215 25220 un
28626 25223 25222 un
28627 25224 25223 un
28628 25220 25224 un
28629 25214 25222 un
28630 25226 25225 1
28631 25227 25226 1
28632 25228 25227 1
28633 25213 25225 1
28634 25212 25228 1
28635 25230 25229 1
28636 25231 25230 1
28637 25232 25231 1
28638 25227 25229 1
28639 25226 25232 1
28640 25234 25233 1
28641 25235 25234 1
28642 25236 25235 1
28643 25232 25233 1
28644 25231 25236 1
28645 25238 25237 un
28646 25239 25238 un
28647 25221 25239 un
28648 25219 25237 un
28649 25241 25240 1
28650 25242 25241 1
28651 25243 25242 1
28652 25238 25240 1
28653 25237 25243 1
28654 25245 25244 1
28655 25246 25245 1
28656 25247 25246 1
28657 25242 25244 1
28658 25241 25247 1
28659 25249 25248 un
28660 25239 25249 un
28661 25224 25248 un
28662 25251 25250 un
28663 25252 25251 un
28664 25248 25252 un
28665 25223 25250 un
28666 25254 25253 un
28667 25255 25254 un
28668 25222 25255 un
28669 25250 25253 un
28670 25257 25256 1
28671 25258 25257 un
28672 25251 25256 1
28673 25253 25258 1
28674 25260 25259 1
28675 25261 25260 1
28676 25254 25259 1
28677 25258 25261 un
28678 25263 25262 1
28679 25264 25263 1
28680 25265 25264 1
28681 25260 25262 1
28682 25259 25265 1
28683 25267 25266 1
28684 25268 25267 1
28685 25257 25268 un
28686 25261 25266 un
28687 25262 25269 1
28688 25266 25270 un
28689 25269 25270 un
28690 25196 25271 1
28691 25271 25272 1
28692 25271 25273 1
28693 25228 25274 1
28694 25276 25275 1
28695 25277 25276 un
28696 25278 25277 1
28697 25268 25275 un
28698 25267 25278 un
28699 25280 25279 un
28700 25281 25280 1
28701 25282 25281 un
28702 25278 25279 un
28703 25277 25282 un
28704 25284 25283 un
28705 25285 25284 1
28706 25286 25285 1
28707 25281 25283 un
28708 25280 25286 un
28709 25288 25287 un
28710 25289 25288 un
28711 25279 25289 un
28712 25286 25287 un
28713 25291 25290 un
28714 25292 25291 un
28715 25285 25292 un
28716 25287 25290 un
28717 25294 25293 un
28718 25288 25294 un
28719 25270 25289 un
28720 25269 25293 un
28721 25296 25295 un
28722 25294 25296 un
28723 25290 25295 un
28724 25298 25297 1
28725 25299 25298 1
28726 25300 25299 1
28727 25296 25297 1
28728 25295 25300 1
28729 25300 25301 2
28730 25155 25302 1
28731 25155 25303 1
28732 25156 25304 1
28733 25156 25305 1
28734 25157 25306 1
28735 25158 25307 1
28736 25159 25308 1
28737 25159 25309 1
28738 25161 25310 1
28739 25162 25311 1
28740 25163 25312 1
28741 25163 25313 1
28742 25164 25314 1
28743 25164 25315 1
28744 25166 25316 1
28745 25167 25317 1
28746 25168 25318 1
28747 25168 25319 1
28748 25172 25320 1
28749 25177 25321 1
28750 25177 25322 1
28751 25178 25323 1
28752 25178 25324 1
28753 25179 25325 1
28754 25179 25326 1
28755 25189 25327 1
28756 25189 25328 1
28757 25190 25329 1
28758 25191 25330 1
28759 25191 25331 1
28760 25192 25332 1
28761 25192 25333 1
28762 25195 25334 1
28763 25195 25335 1
28764 25196 25336 1
28765 25197 25337 1
28766 25197 25338 1
28767 25198 25339 1
28768 25198 25340 1
28769 25200 25341 1
28770 25204 25342 1
28771 25211 25343 1
28772 25217 25344 1
28773 25226 25345 1
28774 25227 25346 1
28775 25228 25347 1
28776 25229 25348 1
28777 25229 25349 1
28778 25230 25350 1
28779 25230 25351 1
28780 25231 25352 1
28781 25232 25353 1
28782 25233 25354 1
28783 25233 25355 1
28784 25234 25356 1
28785 25234 25357 1
28786 25235 25358 1
28787 25235 25359 1
28788 25236 25360 1
28789 25241 25361 1
28790 25242 25362 1
28791 25244 25363 1
28792 25244 25364 1
28793 25245 25365 1
28794 25245 25366 1
28795 25246 25367 1
28796 25246 25368 1
28797 25247 25369 1
28798 25247 25370 1
28799 25249 25371 1
28800 25252 25372 1
28801 25255 25373 1
28802 25259 25374 1
28803 25260 25375 1
28804 25262 25376 1
28805 25263 25377 1
28806 25263 25378 1
28807 25264 25379 1
28808 25264 25380 1
28809 25265 25381 1
28810 25265 25382 1
28811 25271 25383 1
28812 25272 25384 1
28813 25272 25385 1
28814 25272 25386 1
28815 25273 25387 1
28816 25273 25388 1
28817 25273 25389 1
28818 25274 25390 1
28819 25275 25391 1
28820 25276 25392 1
28821 25282 25393 1
28822 25283 25394 1
28823 25284 25395 1
28824 25291 25396 1
28825 25292 25397 1
28826 25293 25398 1
28827 25297 25399 1
28828 25297 25400 1
28829 25298 25401 1
28830 25298 25402 1
28831 25299 25403 1
28832 25299 25404 1
28833 25407 25406 1
28834 25408 25407 1
28835 25409 25408 1
28836 25410 25409 1
28837 25405 25406 1
28838 25405 25410 1
28839 25412 25411 1
28840 25413 25412 1
28841 25414 25413 1
28842 25408 25411 1
28843 25407 25414 1
28844 25416 25415 1
28845 25417 25416 1
28846 25418 25417 1
28847 25412 25415 1
28848 25411 25418 1
28849 25420 25419 un
28850 25421 25420 un
28851 25422 25421 un
28852 25417 25419 1
28853 25416 25422 1
28854 25424 25423 1
28855 25425 25424 un
28856 25426 25425 un
28857 25421 25423 un
28858 25420 25426 un
28859 25428 25427 1
28860 25429 25428 1
28861 25419 25429 1
28862 25426 25427 1
28863 25431 25430 1
28864 25432 25431 un
28865 25433 25432 un
28866 25425 25430 1
28867 25424 25433 un
28868 25435 25434 un
28869 25436 25435 2
28870 25422 25434 1
28871 25423 25436 un
28872 25438 25437 2
28873 25439 25438 1
28874 25440 25439 1
28875 25435 25437 1
28876 25434 25440 2
28877 25442 25441 1
28878 25443 25442 1
28879 25444 25443 2
28880 25438 25441 1
28881 25437 25444 1
28882 25446 25445 1
28883 25447 25446 1
28884 25448 25447 1
28885 25444 25445 1
28886 25443 25448 1
28887 25450 25449 un
28888 25436 25450 un
28889 25433 25449 un
28890 25452 25451 un
28891 25453 25452 1
28892 25449 25453 un
28893 25432 25451 un
28894 25455 25454 un
28895 25456 25455 un
28896 25457 25456 un
28897 25452 25454 un
28898 25451 25457 un
28899 25459 25458 un
28900 25460 25459 un
28901 25461 25460 un
28902 25456 25458 un
28903 25455 25461 un
28904 25463 25462 un
28905 25464 25463 un
28906 25465 25464 un
28907 25460 25462 un
28908 25459 25465 un
28909 25467 25466 un
28910 25431 25467 un
28911 25457 25466 un
28912 25469 25468 un
28913 25466 25469 un
28914 25458 25468 un
28915 25471 25470 un
28916 25468 25471 un
28917 25465 25470 un
28918 25473 25472 un
28919 25474 25473 un
28920 25470 25474 un
28921 25464 25472 un
28922 25476 25475 1
28923 25477 25476 1
28924 25478 25477 1
28925 25463 25475 1
28926 25462 25478 1
28927 25480 25479 1
28928 25481 25480 1
28929 25482 25481 1
28930 25477 25479 1
28931 25476 25482 1
28932 25484 25483 1
28933 25485 25484 1
28934 25486 25485 1
28935 25482 25483 1
28936 25481 25486 1
28937 25488 25487 un
28938 25489 25488 un
28939 25471 25489 un
28940 25469 25487 un
28941 25491 25490 1
28942 25492 25491 1
28943 25493 25492 1
28944 25488 25490 1
28945 25487 25493 1
28946 25495 25494 1
28947 25496 25495 1
28948 25497 25496 1
28949 25492 25494 1
28950 25491 25497 1
28951 25499 25498 un
28952 25489 25499 un
28953 25474 25498 un
28954 25501 25500 un
28955 25502 25501 un
28956 25498 25502 un
28957 25473 25500 un
28958 25504 25503 un
28959 25505 25504 un
28960 25472 25505 un
28961 25500 25503 un
28962 25507 25506 1
28963 25508 25507 un
28964 25501 25506 1
28965 25503 25508 1
28966 25510 25509 1
28967 25511 25510 1
28968 25504 25509 1
28969 25508 25511 un
28970 25513 25512 1
28971 25514 25513 1
28972 25515 25514 1
28973 25510 25512 1
28974 25509 25515 1
28975 25517 25516 1
28976 25518 25517 1
28977 25507 25518 un
28978 25511 25516 un
28979 25512 25519 1
28980 25516 25520 un
28981 25519 25520 un
28982 25446 25521 1
28983 25521 25522 1
28984 25521 25523 1
28985 25478 25524 1
28986 25526 25525 1
28987 25527 25526 un
28988 25528 25527 1
28989 25518 25525 un
28990 25517 25528 un
28991 25530 25529 un
28992 25531 25530 1
28993 25532 25531 un
28994 25528 25529 un
28995 25527 25532 un
28996 25534 25533 un
28997 25535 25534 1
28998 25536 25535 1
28999 25531 25533 un
29000 25530 25536 un
29001 25538 25537 un
29002 25539 25538 un
29003 25529 25539 un
29004 25536 25537 un
29005 25541 25540 un
29006 25542 25541 un
29007 25535 25542 un
29008 25537 25540 un
29009 25544 25543 un
29010 25538 25544 un
29011 25520 25539 un
29012 25519 25543 un
29013 25546 25545 un
29014 25544 25546 un
29015 25540 25545 un
29016 25548 25547 1
29017 25549 25548 1
29018 25550 25549 1
29019 25546 25547 1
29020 25545 25550 1
29021 25550 25551 2
29022 25405 25552 1
29023 25405 25553 1
29024 25406 25554 1
29025 25406 25555 1
29026 25407 25556 1
29027 25408 25557 1
29028 25409 25558 1
29029 25409 25559 1
29030 25411 25560 1
29031 25412 25561 1
29032 25413 25562 1
29033 25413 25563 1
29034 25414 25564 1
29035 25414 25565 1
29036 25416 25566 1
29037 25417 25567 1
29038 25418 25568 1
29039 25418 25569 1
29040 25422 25570 1
29041 25427 25571 1
29042 25427 25572 1
29043 25428 25573 1
29044 25428 25574 1
29045 25429 25575 1
29046 25429 25576 1
29047 25439 25577 1
29048 25439 25578 1
29049 25440 25579 1
29050 25441 25580 1
29051 25441 25581 1
29052 25442 25582 1
29053 25442 25583 1
29054 25445 25584 1
29055 25445 25585 1
29056 25446 25586 1
29057 25447 25587 1
29058 25447 25588 1
29059 25448 25589 1
29060 25448 25590 1
29061 25450 25591 1
29062 25454 25592 1
29063 25461 25593 1
29064 25467 25594 1
29065 25476 25595 1
29066 25477 25596 1
29067 25478 25597 1
29068 25479 25598 1
29069 25479 25599 1
29070 25480 25600 1
29071 25480 25601 1
29072 25481 25602 1
29073 25482 25603 1
29074 25483 25604 1
29075 25483 25605 1
29076 25484 25606 1
29077 25484 25607 1
29078 25485 25608 1
29079 25485 25609 1
29080 25486 25610 1
29081 25491 25611 1
29082 25492 25612 1
29083 25494 25613 1
29084 25494 25614 1
29085 25495 25615 1
29086 25495 25616 1
29087 25496 25617 1
29088 25496 25618 1
29089 25497 25619 1
29090 25497 25620 1
29091 25499 25621 1
29092 25502 25622 1
29093 25505 25623 1
29094 25509 25624 1
29095 25510 25625 1
29096 25512 25626 1
29097 25513 25627 1
29098 25513 25628 1
29099 25514 25629 1
29100 25514 25630 1
29101 25515 25631 1
29102 25515 25632 1
29103 25521 25633 1
29104 25522 25634 1
29105 25522 25635 1
29106 25522 25636 1
29107 25523 25637 1
29108 25523 25638 1
29109 25523 25639 1
29110 25524 25640 1
29111 25525 25641 1
29112 25526 25642 1
29113 25532 25643 1
29114 25533 25644 1
29115 25534 25645 1
29116 25541 25646 1
29117 25542 25647 1
29118 25543 25648 1
29119 25547 25649 1
29120 25547 25650 1
29121 25548 25651 1
29122 25548 25652 1
29123 25549 25653 1
29124 25549 25654 1
29125 25657 25656 1
29126 25658 25657 1
29127 25659 25658 1
29128 25660 25659 1
29129 25655 25656 1
29130 25655 25660 1
29131 25662 25661 1
29132 25663 25662 1
29133 25664 25663 1
29134 25658 25661 1
29135 25657 25664 1
29136 25666 25665 1
29137 25667 25666 1
29138 25668 25667 1
29139 25662 25665 1
29140 25661 25668 1
29141 25670 25669 un
29142 25671 25670 un
29143 25672 25671 un
29144 25667 25669 1
29145 25666 25672 1
29146 25674 25673 1
29147 25675 25674 un
29148 25676 25675 un
29149 25671 25673 un
29150 25670 25676 un
29151 25678 25677 1
29152 25679 25678 1
29153 25669 25679 1
29154 25676 25677 1
29155 25681 25680 1
29156 25682 25681 un
29157 25683 25682 un
29158 25675 25680 1
29159 25674 25683 un
29160 25685 25684 un
29161 25686 25685 2
29162 25672 25684 1
29163 25673 25686 un
29164 25688 25687 2
29165 25689 25688 1
29166 25690 25689 1
29167 25685 25687 1
29168 25684 25690 2
29169 25692 25691 1
29170 25693 25692 1
29171 25694 25693 2
29172 25688 25691 1
29173 25687 25694 1
29174 25696 25695 1
29175 25697 25696 1
29176 25698 25697 1
29177 25694 25695 1
29178 25693 25698 1
29179 25700 25699 un
29180 25686 25700 un
29181 25683 25699 un
29182 25702 25701 un
29183 25703 25702 1
29184 25699 25703 un
29185 25682 25701 un
29186 25705 25704 un
29187 25706 25705 un
29188 25707 25706 un
29189 25702 25704 un
29190 25701 25707 un
29191 25709 25708 un
29192 25710 25709 un
29193 25711 25710 un
29194 25706 25708 un
29195 25705 25711 un
29196 25713 25712 un
29197 25714 25713 un
29198 25715 25714 un
29199 25710 25712 un
29200 25709 25715 un
29201 25717 25716 un
29202 25681 25717 un
29203 25707 25716 un
29204 25719 25718 un
29205 25716 25719 un
29206 25708 25718 un
29207 25721 25720 un
29208 25718 25721 un
29209 25715 25720 un
29210 25723 25722 un
29211 25724 25723 un
29212 25720 25724 un
29213 25714 25722 un
29214 25726 25725 1
29215 25727 25726 1
29216 25728 25727 1
29217 25713 25725 1
29218 25712 25728 1
29219 25730 25729 1
29220 25731 25730 1
29221 25732 25731 1
29222 25727 25729 1
29223 25726 25732 1
29224 25734 25733 1
29225 25735 25734 1
29226 25736 25735 1
29227 25732 25733 1
29228 25731 25736 1
29229 25738 25737 un
29230 25739 25738 un
29231 25721 25739 un
29232 25719 25737 un
29233 25741 25740 1
29234 25742 25741 1
29235 25743 25742 1
29236 25738 25740 1
29237 25737 25743 1
29238 25745 25744 1
29239 25746 25745 1
29240 25747 25746 1
29241 25742 25744 1
29242 25741 25747 1
29243 25749 25748 un
29244 25739 25749 un
29245 25724 25748 un
29246 25751 25750 un
29247 25752 25751 un
29248 25748 25752 un
29249 25723 25750 un
29250 25754 25753 un
29251 25755 25754 un
29252 25722 25755 un
29253 25750 25753 un
29254 25757 25756 1
29255 25758 25757 un
29256 25751 25756 1
29257 25753 25758 1
29258 25760 25759 1
29259 25761 25760 1
29260 25754 25759 1
29261 25758 25761 un
29262 25763 25762 1
29263 25764 25763 1
29264 25765 25764 1
29265 25760 25762 1
29266 25759 25765 1
29267 25767 25766 1
29268 25768 25767 1
29269 25757 25768 un
29270 25761 25766 un
29271 25762 25769 1
29272 25766 25770 un
29273 25769 25770 un
29274 25696 25771 1
29275 25771 25772 1
29276 25771 25773 1
29277 25728 25774 1
29278 25776 25775 1
29279 25777 25776 un
29280 25778 25777 1
29281 25768 25775 un
29282 25767 25778 un
29283 25780 25779 un
29284 25781 25780 1
29285 25782 25781 un
29286 25778 25779 un
29287 25777 25782 un
29288 25784 25783 un
29289 25785 25784 1
29290 25786 25785 1
29291 25781 25783 un
29292 25780 25786 un
29293 25788 25787 un
29294 25789 25788 un
29295 25779 25789 un
29296 25786 25787 un
29297 25791 25790 un
29298 25792 25791 un
29299 25785 25792 un
29300 25787 25790 un
29301 25794 25793 un
29302 25788 25794 un
29303 25770 25789 un
29304 25769 25793 un
29305 25796 25795 un
29306 25794 25796 un
29307 25790 25795 un
29308 25798 25797 1
29309 25799 25798 1
29310 25800 25799 1
29311 25796 25797 1
29312 25795 25800 1
29313 25800 25801 2
29314 25655 25802 1
29315 25655 25803 1
29316 25656 25804 1
29317 25656 25805 1
29318 25657 25806 1
29319 25658 25807 1
29320 25659 25808 1
29321 25659 25809 1
29322 25661 25810 1
29323 25662 25811 1
29324 25663 25812 1
29325 25663 25813 1
29326 25664 25814 1
29327 25664 25815 1
29328 25666 25816 1
29329 25667 25817 1
29330 25668 25818 1
29331 25668 25819 1
29332 25672 25820 1
29333 25677 25821 1
29334 25677 25822 1
29335 25678 25823 1
29336 25678 25824 1
29337 25679 25825 1
29338 25679 25826 1
29339 25689 25827 1
29340 25689 25828 1
29341 25690 25829 1
29342 25691 25830 1
29343 25691 25831 1
29344 25692 25832 1
29345 25692 25833 1
29346 25695 25834 1
29347 25695 25835 1
29348 25696 25836 1
29349 25697 25837 1
29350 25697 25838 1
29351 25698 25839 1
29352 25698 25840 1
29353 25700 25841 1
29354 25704 25842 1
29355 25711 25843 1
29356 25717 25844 1
29357 25726 25845 1
29358 25727 25846 1
29359 25728 25847 1
29360 25729 25848 1
29361 25729 25849 1
29362 25730 25850 1
29363 25730 25851 1
29364 25731 25852 1
29365 25732 25853 1
29366 25733 25854 1
29367 25733 25855 1
29368 25734 25856 1
29369 25734 25857 1
29370 25735 25858 1
29371 25735 25859 1
29372 25736 25860 1
29373 25741 25861 1
29374 25742 25862 1
29375 25744 25863 1
29376 25744 25864 1
29377 25745 25865 1
29378 25745 25866 1
29379 25746 25867 1
29380 25746 25868 1
29381 25747 25869 1
29382 25747 25870 1
29383 25749 25871 1
29384 25752 25872 1
29385 25755 25873 1
29386 25759 25874 1
29387 25760 25875 1
29388 25762 25876 1
29389 25763 25877 1
29390 25763 25878 1
29391 25764 25879 1
29392 25764 25880 1
29393 25765 25881 1
29394 25765 25882 1
29395 25771 25883 1
29396 25772 25884 1
29397 25772 25885 1
29398 25772 25886 1
29399 25773 25887 1
29400 25773 25888 1
29401 25773 25889 1
29402 25774 25890 1
29403 25775 25891 1
29404 25776 25892 1
29405 25782 25893 1
29406 25783 25894 1
29407 25784 25895 1
29408 25791 25896 1
29409 25792 25897 1
29410 25793 25898 1
29411 25797 25899 1
29412 25797 25900 1
29413 25798 25901 1
29414 25798 25902 1
29415 25799 25903 1
29416 25799 25904 1
29417 25907 25906 1
29418 25908 25907 1
29419 25909 25908 1
29420 25910 25909 1
29421 25905 25906 1
29422 25905 25910 1
29423 25912 25911 1
29424 25913 25912 1
29425 25914 25913 1
29426 25908 25911 1
29427 25907 25914 1
29428 25916 25915 1
29429 25917 25916 1
29430 25918 25917 1
29431 25912 25915 1
29432 25911 25918 1
29433 25920 25919 un
29434 25921 25920 un
29435 25922 25921 un
29436 25917 25919 1
29437 25916 25922 1
29438 25924 25923 1
29439 25925 25924 un
29440 25926 25925 un
29441 25921 25923 un
29442 25920 25926 un
29443 25928 25927 1
29444 25929 25928 1
29445 25919 25929 1
29446 25926 25927 1
29447 25931 25930 1
29448 25932 25931 un
29449 25933 25932 un
29450 25925 25930 1
29451 25924 25933 un
29452 25935 25934 un
29453 25936 25935 2
29454 25922 25934 1
29455 25923 25936 un
29456 25938 25937 2
29457 25939 25938 1
29458 25940 25939 1
29459 25935 25937 1
29460 25934 25940 2
29461 25942 25941 1
29462 25943 25942 1
29463 25944 25943 2
29464 25938 25941 1
29465 25937 25944 1
29466 25946 25945 1
29467 25947 25946 1
29468 25948 25947 1
29469 25944 25945 1
29470 25943 25948 1
29471 25950 25949 un
29472 25936 25950 un
29473 25933 25949 un
29474 25952 25951 un
29475 25953 25952 1
29476 25949 25953 un
29477 25932 25951 un
29478 25955 25954 un
29479 25956 25955 un
29480 25957 25956 un
29481 25952 25954 un
29482 25951 25957 un
29483 25959 25958 un
29484 25960 25959 un
29485 25961 25960 un
29486 25956 25958 un
29487 25955 25961 un
29488 25963 25962 un
29489 25964 25963 un
29490 25965 25964 un
29491 25960 25962 un
29492 25959 25965 un
29493 25967 25966 un
29494 25931 25967 un
29495 25957 25966 un
29496 25969 25968 un
29497 25966 25969 un
29498 25958 25968 un
29499 25971 25970 un
29500 25968 25971 un
29501 25965 25970 un
29502 25973 25972 un
29503 25974 25973 un
29504 25970 25974 un
29505 25964 25972 un
29506 25976 25975 1
29507 25977 25976 1
29508 25978 25977 1
29509 25963 25975 1
29510 25962 25978 1
29511 25980 25979 1
29512 25981 25980 1
29513 25982 25981 1
29514 25977 25979 1
29515 25976 25982 1
29516 25984 25983 1
29517 25985 25984 1
29518 25986 25985 1
29519 25982 25983 1
29520 25981 25986 1
29521 25988 25987 un
29522 25989 25988 un
29523 25971 25989 un
29524 25969 25987 un
29525 25991 25990 1
29526 25992 25991 1
29527 25993 25992 1
29528 25988 25990 1
29529 25987 25993 1
29530 25995 25994 1
29531 25996 25995 1
29532 25997 25996 1
29533 25992 25994 1
29534 25991 25997 1
29535 25999 25998 un
29536 25989 25999 un
29537 25974 25998 un
29538 26001 26000 un
29539 26002 26001 un
29540 25998 26002 un
29541 25973 26000 un
29542 26004 26003 un
29543 26005 26004 un
29544 25972 26005 un
29545 26000 26003 un
29546 26007 26006 1
29547 26008 26007 un
29548 26001 26006 1
29549 26003 26008 1
29550 26010 26009 1
29551 26011 26010 1
29552 26004 26009 1
29553 26008 26011 un
29554 26013 26012 1
29555 26014 26013 1
29556 26015 26014 1
29557 26010 26012 1
29558 26009 26015 1
29559 26017 26016 1
29560 26018 26017 1
29561 26007 26018 un
29562 26011 26016 un
29563 26012 26019 1
29564 26016 26020 un
29565 26019 26020 un
29566 25946 26021 1
29567 26021 26022 1
29568 26021 26023 1
29569 25978 26024 1
29570 26026 26025 1
29571 26027 26026 un
29572 26028 26027 1
29573 26018 26025 un
29574 26017 26028 un
29575 26030 26029 un
29576 26031 26030 1
29577 26032 26031 un
29578 26028 26029 un
29579 26027 26032 un
29580 26034 26033 un
29581 26035 26034 1
29582 26036 26035 1
29583 26031 26033 un
29584 26030 26036 un
29585 26038 26037 un
29586 26039 26038 un
29587 26029 26039 un
29588 26036 26037 un
29589 26041 26040 un
29590 26042 26041 un
29591 26035 26042 un
29592 26037 26040 un
29593 26044 26043 un
29594 26038 26044 un
29595 26020 26039 un
29596 26019 26043 un
29597 26046 26045 un
29598 26044 26046 un
29599 26040 26045 un
29600 26048 26047 1
29601 26049 26048 1
29602 26050 26049 1
29603 26046 26047 1
29604 26045 26050 1
29605 26050 26051 2
29606 25905 26052 1
29607 25905 26053 1
29608 25906 26054 1
29609 25906 26055 1
29610 25907 26056 1
29611 25908 26057 1
29612 25909 26058 1
29613 25909 26059 1
29614 25911 26060 1
29615 25912 26061 1
29616 25913 26062 1
29617 25913 26063 1
29618 25914 26064 1
29619 25914 26065 1
29620 25916 26066 1
29621 25917 26067 1
29622 25918 26068 1
29623 25918 26069 1
29624 25922 26070 1
29625 25927 26071 1
29626 25927 26072 1
29627 25928 26073 1
29628 25928 26074 1
29629 25929 26075 1
29630 25929 26076 1
29631 25939 26077 1
29632 25939 26078 1
29633 25940 26079 1
29634 25941 26080 1
29635 25941 26081 1
29636 25942 26082 1
29637 25942 26083 1
29638 25945 26084 1
29639 25945 26085 1
29640 25946 26086 1
29641 25947 26087 1
29642 25947 26088 1
29643 25948 26089 1
29644 25948 26090 1
29645 25950 26091 1
29646 25954 26092 1
29647 25961 26093 1
29648 25967 26094 1
29649 25976 26095 1
29650 25977 26096 1
29651 25978 26097 1
29652 25979 26098 1
29653 25979 26099 1
29654 25980 26100 1
29655 25980 26101 1
29656 25981 26102 1
29657 25982 26103 1
29658 25983 26104 1
29659 25983 26105 1
29660 25984 26106 1
29661 25984 26107 1
29662 25985 26108 1
29663 25985 26109 1
29664 25986 26110 1
29665 25991 26111 1
29666 25992 26112 1
29667 25994 26113 1
29668 25994 26114 1
29669 25995 26115 1
29670 25995 26116 1
29671 25996 26117 1
29672 25996 26118 1
29673 25997 26119 1
29674 25997 26120 1
29675 25999 26121 1
29676 26002 26122 1
29677 26005 26123 1
29678 26009 26124 1
29679 26010 26125 1
29680 26012 26126 1
29681 26013 26127 1
29682 26013 26128 1
29683 26014 26129 1
29684 26014 26130 1
29685 26015 26131 1
29686 26015 26132 1
29687 26021 26133 1
29688 26022 26134 1
29689 26022 26135 1
29690 26022 26136 1
29691 26023 26137 1
29692 26023 26138 1
29693 26023 26139 1
29694 26024 26140 1
29695 26025 26141 1
29696 26026 26142 1
29697 26032 26143 1
29698 26033 26144 1
29699 26034 26145 1
29700 26041 26146 1
29701 26042 26147 1
29702 26043 26148 1
29703 26047 26149 1
29704 26047 26150 1
29705 26048 26151 1
29706 26048 26152 1
29707 26049 26153 1
29708 26049 26154 1
29709 26157 26156 1
29710 26158 26157 1
29711 26159 26158 1
29712 26160 26159 1
29713 26155 26156 1
29714 26155 26160 1
29715 26162 26161 1
29716 26163 26162 1
29717 26164 26163 1
29718 26158 26161 1
29719 26157 26164 1
29720 26166 26165 1
29721 26167 26166 1
29722 26168 26167 1
29723 26162 26165 1
29724 26161 26168 1
29725 26170 26169 un
29726 26171 26170 un
29727 26172 26171 un
29728 26167 26169 1
29729 26166 26172 1
29730 26174 26173 1
29731 26175 26174 un
29732 26176 26175 un
29733 26171 26173 un
29734 26170 26176 un
29735 26178 26177 1
29736 26179 26178 1
29737 26169 26179 1
29738 26176 26177 1
29739 26181 26180 1
29740 26182 26181 un
29741 26183 26182 un
29742 26175 26180 1
29743 26174 26183 un
29744 26185 26184 un
29745 26186 26185 2
29746 26172 26184 1
29747 26173 26186 un
29748 26188 26187 2
29749 26189 26188 1
29750 26190 26189 1
29751 26185 26187 1
29752 26184 26190 2
29753 26192 26191 1
29754 26193 26192 1
29755 26194 26193 2
29756 26188 26191 1
29757 26187 26194 1
29758 26196 26195 1
29759 26197 26196 1
29760 26198 26197 1
29761 26194 26195 1
29762 26193 26198 1
29763 26200 26199 un
29764 26186 26200 un
29765 26183 26199 un
29766 26202 26201 un
29767 26203 26202 1
29768 26199 26203 un
29769 26182 26201 un
29770 26205 26204 un
29771 26206 26205 un
29772 26207 26206 un
29773 26202 26204 un
29774 26201 26207 un
29775 26209 26208 un
29776 26210 26209 un
29777 26211 26210 un
29778 26206 26208 un
29779 26205 26211 un
29780 26213 26212 un
29781 26214 26213 un
29782 26215 26214 un
29783 26210 26212 un
29784 26209 26215 un
29785 26217 26216 un
29786 26181 26217 un
29787 26207 26216 un
29788 26219 26218 un
29789 26216 26219 un
29790 26208 26218 un
29791 26221 26220 un
29792 26218 26221 un
29793 26215 26220 un
29794 26223 26222 un
29795 26224 26223 un
29796 26220 26224 un
29797 26214 26222 un
29798 26226 26225 1
29799 26227 26226 1
29800 26228 26227 1
29801 26213 26225 1
29802 26212 26228 1
29803 26230 26229 1
29804 26231 26230 1
29805 26232 26231 1
29806 26227 26229 1
29807 26226 26232 1
29808 26234 26233 1
29809 26235 26234 1
29810 26236 26235 1
29811 26232 26233 1
29812 26231 26236 1
29813 26238 26237 un
29814 26239 26238 un
29815 26221 26239 un
29816 26219 26237 un
29817 26241 26240 1
29818 26242 26241 1
29819 26243 26242 1
29820 26238 26240 1
29821 26237 26243 1
29822 26245 26244 1
29823 26246 26245 1
29824 26247 26246 1
29825 26242 26244 1
29826 26241 26247 1
29827 26249 26248 un
29828 26239 26249 un
29829 26224 26248 un
29830 26251 26250 un
29831 26252 26251 un
29832 26248 26252 un
29833 26223 26250 un
29834 26254 26253 un
29835 26255 26254 un
29836 26222 26255 un
29837 26250 26253 un
29838 26257 26256 1
29839 26258 26257 un
29840 26251 26256 1
29841 26253 26258 1
29842 26260 26259 1
29843 26261 26260 1
29844 26254 26259 1
29845 26258 26261 un
29846 26263 26262 1
29847 26264 26263 1
29848 26265 26264 1
29849 26260 26262 1
29850 26259 26265 1
29851 26267 26266 1
29852 26268 26267 1
29853 26257 26268 un
29854 26261 26266 un
29855 26262 26269 1
29856 26266 26270 un
29857 26269 26270 un
29858 26196 26271 1
29859 26271 26272 1
29860 26271 26273 1
29861 26228 26274 1
29862 26276 26275 1
29863 26277 26276 un
29864 26278 26277 1
29865 26268 26275 un
29866 26267 26278 un
29867 26280 26279 un
29868 26281 26280 1
29869 26282 26281 un
29870 26278 26279 un
29871 26277 26282 un
29872 26284 26283 un
29873 26285 26284 1
29874 26286 26285 1
29875 26281 26283 un
29876 26280 26286 un
29877 26288 26287 un
29878 26289 26288 un
29879 26279 26289 un
29880 26286 26287 un
29881 26291 26290 un
29882 26292 26291 un
29883 26285 26292 un
29884 26287 26290 un
29885 26294 26293 un
29886 26288 26294 un
29887 26270 26289 un
29888 26269 26293 un
29889 26296 26295 un
29890 26294 26296 un
29891 26290 26295 un
29892 26298 26297 1
29893 26299 26298 1
29894 26300 26299 1
29895 26296 26297 1
29896 26295 26300 1
29897 26300 26301 2
29898 26155 26302 1
29899 26155 26303 1
29900 26156 26304 1
29901 26156 26305 1
29902 26157 26306 1
29903 26158 26307 1
29904 26159 26308 1
29905 26159 26309 1
29906 26161 26310 1
29907 26162 26311 1
29908 26163 26312 1
29909 26163 26313 1
29910 26164 26314 1
29911 26164 26315 1
29912 26166 26316 1
29913 26167 26317 1
29914 26168 26318 1
29915 26168 26319 1
29916 26172 26320 1
29917 26177 26321 1
29918 26177 26322 1
29919 26178 26323 1
29920 26178 26324 1
29921 26179 26325 1
29922 26179 26326 1
29923 26189 26327 1
29924 26189 26328 1
29925 26190 26329 1
29926 26191 26330 1
29927 26191 26331 1
29928 26192 26332 1
29929 26192 26333 1
29930 26195 26334 1
29931 26195 26335 1
29932 26196 26336 1
29933 26197 26337 1
29934 26197 26338 1
29935 26198 26339 1
29936 26198 26340 1
29937 26200 26341 1
29938 26204 26342 1
29939 26211 26343 1
29940 26217 26344 1
29941 26226 26345 1
29942 26227 26346 1
29943 26228 26347 1
29944 26229 26348 1
29945 26229 26349 1
29946 26230 26350 1
29947 26230 26351 1
29948 26231 26352 1
29949 26232 26353 1
29950 26233 26354 1
29951 26233 26355 1
29952 26234 26356 1
29953 26234 26357 1
29954 26235 26358 1
29955 26235 26359 1
29956 26236 26360 1
29957 26241 26361 1
29958 26242 26362 1
29959 26244 26363 1
29960 26244 26364 1
29961 26245 26365 1
29962 26245 26366 1
29963 26246 26367 1
29964 26246 26368 1
29965 26247 26369 1
29966 26247 26370 1
29967 26249 26371 1
29968 26252 26372 1
29969 26255 26373 1
29970 26259 26374 1
29971 26260 26375 1
29972 26262 26376 1
29973 26263 26377 1
29974 26263 26378 1
29975 26264 26379 1
29976 26264 26380 1
29977 26265 26381 1
29978 26265 26382 1
29979 26271 26383 1
29980 26272 26384 1
29981 26272 26385 1
29982 26272 26386 1
29983 26273 26387 1
29984 26273 26388 1
29985 26273 26389 1
29986 26274 26390 1
29987 26275 26391 1
29988 26276 26392 1
29989 26282 26393 1
29990 26283 26394 1
29991 26284 26395 1
29992 26291 26396 1
29993 26292 26397 1
29994 26293 26398 1
29995 26297 26399 1
29996 26297 26400 1
29997 26298 26401 1
29998 26298 26402 1
29999 26299 26403 1
30000 26299 26404 1
30001 26407 26406 1
30002 26408 26407 1
30003 26409 26408 1
30004 26410 26409 1
30005 26405 26406 1
30006 26405 26410 1
30007 26412 26411 1
30008 26413 26412 1
30009 26414 26413 1
30010 26408 26411 1
30011 26407 26414 1
30012 26416 26415 1
30013 26417 26416 1
30014 26418 26417 1
30015 26412 26415 1
30016 26411 26418 1
30017 26420 26419 un
30018 26421 26420 un
30019 26422 26421 un
30020 26417 26419 1
30021 26416 26422 1
30022 26424 26423 1
30023 26425 26424 un
30024 26426 26425 un
30025 26421 26423 un
30026 26420 26426 un
30027 26428 26427 1
30028 26429 26428 1
30029 26419 26429 1
30030 26426 26427 1
30031 26431 26430 1
30032 26432 26431 un
30033 26433 26432 un
30034 26425 26430 1
30035 26424 26433 un
30036 26435 26434 un
30037 26436 26435 2
30038 26422 26434 1
30039 26423 26436 un
30040 26438 26437 2
30041 26439 26438 1
30042 26440 26439 1
30043 26435 26437 1
30044 26434 26440 2
30045 26442 26441 1
30046 26443 26442 1
30047 26444 26443 2
30048 26438 26441 1
30049 26437 26444 1
30050 26446 26445 1
30051 26447 26446 1
30052 26448 26447 1
30053 26444 26445 1
30054 26443 26448 1
30055 26450 26449 un
30056 26436 26450 un
30057 26433 26449 un
30058 26452 26451 un
30059 26453 26452 1
30060 26449 26453 un
30061 26432 26451 un
30062 26455 26454 un
30063 26456 26455 un
30064 26457 26456 un
30065 26452 26454 un
30066 26451 26457 un
30067 26459 26458 un
30068 26460 26459 un
30069 26461 26460 un
30070 26456 26458 un
30071 26455 26461 un
30072 26463 26462 un
30073 26464 26463 un
30074 26465 26464 un
30075 26460 26462 un
30076 26459 26465 un
30077 26467 26466 un
30078 26431 26467 un
30079 26457 26466 un
30080 26469 26468 un
30081 26466 26469 un
30082 26458 26468 un
30083 26471 26470 un
30084 26468 26471 un
30085 26465 26470 un
30086 26473 26472 un
30087 26474 26473 un
30088 26470 26474 un
30089 26464 26472 un
30090 26476 26475 1
30091 26477 26476 1
30092 26478 26477 1
30093 26463 26475 1
30094 26462 26478 1
30095 26480 26479 1
30096 26481 26480 1
30097 26482 26481 1
30098 26477 26479 1
30099 26476 26482 1
30100 26484 26483 1
30101 26485 26484 1
30102 26486 26485 1
30103 26482 26483 1
30104 26481 26486 1
30105 26488 26487 un
30106 26489 26488 un
30107 26471 26489 un
30108 26469 26487 un
30109 26491 26490 1
30110 26492 26491 1
30111 26493 26492 1
30112 26488 26490 1
30113 26487 26493 1
30114 26495 26494 1
30115 26496 26495 1
30116 26497 26496 1
30117 26492 26494 1
30118 26491 26497 1
30119 26499 26498 un
30120 26489 26499 un
30121 26474 26498 un
30122 26501 26500 un
30123 26502 26501 un
30124 26498 26502 un
30125 26473 26500 un
30126 26504 26503 un
30127 26505 26504 un
30128 26472 26505 un
30129 26500 26503 un
30130 26507 26506 1
30131 26508 26507 un
30132 26501 26506 1
30133 26503 26508 1
30134 26510 26509 1
30135 26511 26510 1
30136 26504 26509 1
30137 26508 26511 un
30138 26513 26512 1
30139 26514 26513 1
30140 26515 26514 1
30141 26510 26512 1
30142 26509 26515 1
30143 26517 26516 1
30144 26518 26517 1
30145 26507 26518 un
30146 26511 26516 un
30147 26512 26519 1
30148 26516 26520 un
30149 26519 26520 un
30150 26446 26521 1
30151 26521 26522 1
30152 26521 26523 1
30153 26478 26524 1
30154 26526 26525 1
30155 26527 26526 un
30156 26528 26527 1
30157 26518 26525 un
30158 26517 26528 un
30159 26530 26529 un
30160 26531 26530 1
30161 26532 26531 un
30162 26528 26529 un
30163 26527 26532 un
30164 26534 26533 un
30165 26535 26534 1
30166 26536 26535 1
30167 26531 26533 un
30168 26530 26536 un
30169 26538 26537 un
30170 26539 26538 un
30171 26529 26539 un
30172 26536 26537 un
30173 26541 26540 un
30174 26542 26541 un
30175 26535 26542 un
30176 26537 26540 un
30177 26544 26543 un
30178 26538 26544 un
30179 26520 26539 un
30180 26519 26543 un
30181 26546 26545 un
30182 26544 26546 un
30183 26540 26545 un
30184 26548 26547 1
30185 26549 26548 1
30186 26550 26549 1
30187 26546 26547 1
30188 26545 26550 1
30189 26550 26551 2
30190 26405 26552 1
30191 26405 26553 1
30192 26406 26554 1
30193 26406 26555 1
30194 26407 26556 1
30195 26408 26557 1
30196 26409 26558 1
30197 26409 26559 1
30198 26411 26560 1
30199 26412 26561 1
30200 26413 26562 1
30201 26413 26563 1
30202 26414 26564 1
30203 26414 26565 1
30204 26416 26566 1
30205 26417 26567 1
30206 26418 26568 1
30207 26418 26569 1
30208 26422 26570 1
30209 26427 26571 1
30210 26427 26572 1
30211 26428 26573 1
30212 26428 26574 1
30213 26429 26575 1
30214 26429 26576 1
30215 26439 26577 1
30216 26439 26578 1
30217 26440 26579 1
30218 26441 26580 1
30219 26441 26581 1
30220 26442 26582 1
30221 26442 26583 1
30222 26445 26584 1
30223 26445 26585 1
30224 26446 26586 1
30225 26447 26587 1
30226 26447 26588 1
30227 26448 26589 1
30228 26448 26590 1
30229 26450 26591 1
30230 26454 26592 1
30231 26461 26593 1
30232 26467 26594 1
30233 26476 26595 1
30234 26477 26596 1
30235 26478 26597 1
30236 26479 26598 1
30237 26479 26599 1
30238 26480 26600 1
30239 26480 26601 1
30240 26481 26602 1
30241 26482 26603 1
30242 26483 26604 1
30243 26483 26605 1
30244 26484 26606 1
30245 26484 26607 1
30246 26485 26608 1
30247 26485 26609 1
30248 26486 26610 1
30249 26491 26611 1
30250 26492 26612 1
30251 26494 26613 1
30252 26494 26614 1
30253 26495 26615 1
30254 26495 26616 1
30255 26496 26617 1
30256 26496 26618 1
30257 26497 26619 1
30258 26497 26620 1
30259 26499 26621 1
30260 26502 26622 1
30261 26505 26623 1
30262 26509 26624 1
30263 26510 26625 1
30264 26512 26626 1
30265 26513 26627 1
30266 26513 26628 1
30267 26514 26629 1
30268 26514 26630 1
30269 26515 26631 1
30270 26515 26632 1
30271 26521 26633 1
30272 26522 26634 1
30273 26522 26635 1
30274 26522 26636 1
30275 26523 26637 1
30276 26523 26638 1
30277 26523 26639 1
30278 26524 26640 1
30279 26525 26641 1
30280 26526 26642 1
30281 26532 26643 1
30282 26533 26644 1
30283 26534 26645 1
30284 26541 26646 1
30285 26542 26647 1
30286 26543 26648 1
30287 26547 26649 1
30288 26547 26650 1
30289 26548 26651 1
30290 26548 26652 1
30291 26549 26653 1
30292 26549 26654 1
30293 26657 26656 1
30294 26658 26657 1
30295 26659 26658 1
30296 26660 26659 1
30297 26655 26656 1
30298 26655 26660 1
30299 26662 26661 1
30300 26663 26662 1
30301 26664 26663 1
30302 26658 26661 1
30303 26657 26664 1
30304 26666 26665 1
30305 26667 26666 1
30306 26668 26667 1
30307 26662 26665 1
30308 26661 26668 1
30309 26670 26669 un
30310 26671 26670 un
30311 26672 26671 un
30312 26667 26669 1
30313 26666 26672 1
30314 26674 26673 1
30315 26675 26674 un
30316 26676 26675 un
30317 26671 26673 un
30318 26670 26676 un
30319 26678 26677 1
30320 26679 26678 1
30321 26669 26679 1
30322 26676 26677 1
30323 26681 26680 1
30324 26682 26681 un
30325 26683 26682 un
30326 26675 26680 1
30327 26674 26683 un
30328 26685 26684 un
30329 26686 26685 2
30330 26672 26684 1
30331 26673 26686 un
30332 26688 26687 2
30333 26689 26688 1
30334 26690 26689 1
30335 26685 26687 1
30336 26684 26690 2
30337 26692 26691 1
30338 26693 26692 1
30339 26694 26693 2
30340 26688 26691 1
30341 26687 26694 1
30342 26696 26695 1
30343 26697 26696 1
30344 26698 26697 1
30345 26694 26695 1
30346 26693 26698 1
30347 26700 26699 un
30348 26686 26700 un
30349 26683 26699 un
30350 26702 26701 un
30351 26703 26702 1
30352 26699 26703 un
30353 26682 26701 un
30354 26705 26704 un
30355 26706 26705 un
30356 26707 26706 un
30357 26702 26704 un
30358 26701 26707 un
30359 26709 26708 un
30360 26710 26709 un
30361 26711 26710 un
30362 26706 26708 un
30363 26705 26711 un
30364 26713 26712 un
30365 26714 26713 un
30366 26715 26714 un
30367 26710 26712 un
30368 26709 26715 un
30369 26717 26716 un
30370 26681 26717 un
30371 26707 26716 un
30372 26719 26718 un
30373 26716 26719 un
30374 26708 26718 un
30375 26721 26720 un
30376 26718 26721 un
30377 26715 26720 un
30378 26723 26722 un
30379 26724 26723 un
30380 26720 26724 un
30381 26714 26722 un
30382 26726 26725 1
30383 26727 26726 1
30384 26728 26727 1
30385 26713 26725 1
30386 26712 26728 1
30387 26730 26729 1
30388 26731 26730 1
30389 26732 26731 1
30390 26727 26729 1
30391 26726 26732 1
30392 26734 26733 1
30393 26735 26734 1
30394 26736 26735 1
30395 26732 26733 1
30396 26731 26736 1
30397 26738 26737 un
30398 26739 26738 un
30399 26721 26739 un
30400 26719 26737 un
30401 26741 26740 1
30402 26742 26741 1
30403 26743 26742 1
30404 26738 26740 1
30405 26737 26743 1
30406 26745 26744 1
30407 26746 26745 1
30408 26747 26746 1
30409 26742 26744 1
30410 26741 26747 1
30411 26749 26748 un
30412 26739 26749 un
30413 26724 26748 un
30414 26751 26750 un
30415 26752 26751 un
30416 26748 26752 un
30417 26723 26750 un
30418 26754 26753 un
30419 26755 26754 un
30420 26722 26755 un
30421 26750 26753 un
30422 26757 26756 1
30423 26758 26757 un
30424 26751 26756 1
30425 26753 26758 1
30426 26760 26759 1
30427 26761 26760 1
30428 26754 26759 1
30429 26758 26761 un
30430 26763 26762 1
30431 26764 26763 1
30432 26765 26764 1
30433 26760 26762 1
30434 26759 26765 1
30435 26767 26766 1
30436 26768 26767 1
30437 26757 26768 un
30438 26761 26766 un
30439 26762 26769 1
30440 26766 26770 un
30441 26769 26770 un
30442 26696 26771 1
30443 26771 26772 1
30444 26771 26773 1
30445 26728 26774 1
30446 26776 26775 1
30447 26777 26776 un
30448 26778 26777 1
30449 26768 26775 un
30450 26767 26778 un
30451 26780 26779 un
30452 26781 26780 1
30453 26782 26781 un
30454 26778 26779 un
30455 26777 26782 un
30456 26784 26783 un
30457 26785 26784 1
30458 26786 26785 1
30459 26781 26783 un
30460 26780 26786 un
30461 26788 26787 un
30462 26789 26788 un
30463 26779 26789 un
30464 26786 26787 un
30465 26791 26790 un
30466 26792 26791 un
30467 26785 26792 un
30468 26787 26790 un
30469 26794 26793 un
30470 26788 26794 un
30471 26770 26789 un
30472 26769 26793 un
30473 26796 26795 un
30474 26794 26796 un
30475 26790 26795 un
30476 26798 26797 1
30477 26799 26798 1
30478 26800 26799 1
30479 26796 26797 1
30480 26795 26800 1
30481 26800 26801 2
30482 26655 26802 1
30483 26655 26803 1
30484 26656 26804 1
30485 26656 26805 1
30486 26657 26806 1
30487 26658 26807 1
30488 26659 26808 1
30489 26659 26809 1
30490 26661 26810 1
30491 26662 26811 1
30492 26663 26812 1
30493 26663 26813 1
30494 26664 26814 1
30495 26664 26815 1
30496 26666 26816 1
30497 26667 26817 1
30498 26668 26818 1
30499 26668 26819 1
30500 26672 26820 1
30501 26677 26821 1
30502 26677 26822 1
30503 26678 26823 1
30504 26678 26824 1
30505 26679 26825 1
30506 26679 26826 1
30507 26689 26827 1
30508 26689 26828 1
30509 26690 26829 1
30510 26691 26830 1
30511 26691 26831 1
30512 26692 26832 1
30513 26692 26833 1
30514 26695 26834 1
30515 26695 26835 1
30516 26696 26836 1
30517 26697 26837 1
30518 26697 26838 1
30519 26698 26839 1
30520 26698 26840 1
30521 26700 26841 1
30522 26704 26842 1
30523 26711 26843 1
30524 26717 26844 1
30525 26726 26845 1
30526 26727 26846 1
30527 26728 26847 1
30528 26729 26848 1
30529 26729 26849 1
30530 26730 26850 1
30531 26730 26851 1
30532 26731 26852 1
30533 26732 26853 1
30534 26733 26854 1
30535 26733 26855 1
30536 26734 26856 1
30537 26734 26857 1
30538 26735 26858 1
30539 26735 26859 1
30540 26736 26860 1
30541 26741 26861 1
30542 26742 26862 1
30543 26744 26863 1
30544 26744 26864 1
30545 26745 26865 1
30546 26745 26866 1
30547 26746 26867 1
30548 26746 26868 1
30549 26747 26869 1
30550 26747 26870 1
30551 26749 26871 1
30552 26752 26872 1
30553 26755 26873 1
30554 26759 26874 1
30555 26760 26875 1
30556 26762 26876 1
30557 26763 26877 1
30558 26763 26878 1
30559 26764 26879 1
30560 26764 26880 1
30561 26765 26881 1
30562 26765 26882 1
30563 26771 26883 1
30564 26772 26884 1
30565 26772 26885 1
30566 26772 26886 1
30567 26773 26887 1
30568 26773 26888 1
30569 26773 26889 1
30570 26774 26890 1
30571 26775 26891 1
30572 26776 26892 1
30573 26782 26893 1
30574 26783 26894 1
30575 26784 26895 1
30576 26791 26896 1
30577 26792 26897 1
30578 26793 26898 1
30579 26797 26899 1
30580 26797 26900 1
30581 26798 26901 1
30582 26798 26902 1
30583 26799 26903 1
30584 26799 26904 1
30585 26907 26906 1
30586 26908 26907 1
30587 26909 26908 1
30588 26910 26909 1
30589 26905 26906 1
30590 26905 26910 1
30591 26912 26911 1
30592 26913 26912 1
30593 26914 26913 1
30594 26908 26911 1
30595 26907 26914 1
30596 26916 26915 1
30597 26917 26916 1
30598 26918 26917 1
30599 26912 26915 1
30600 26911 26918 1
30601 26920 26919 un
30602 26921 26920 un
30603 26922 26921 un
30604 26917 26919 1
30605 26916 26922 1
30606 26924 26923 1
30607 26925 26924 un
30608 26926 26925 un
30609 26921 26923 un
30610 26920 26926 un
30611 26928 26927 1
30612 26929 26928 1
30613 26919 26929 1
30614 26926 26927 1
30615 26931 26930 1
30616 26932 26931 un
30617 26933 26932 un
30618 26925 26930 1
30619 26924 26933 un
30620 26935 26934 un
30621 26936 26935 2
30622 26922 26934 1
30623 26923 26936 un
30624 26938 26937 2
30625 26939 26938 1
30626 26940 26939 1
30627 26935 26937 1
30628 26934 26940 2
30629 26942 26941 1
30630 26943 26942 1
30631 26944 26943 2
30632 26938 26941 1
30633 26937 26944 1
30634 26946 26945 1
30635 26947 26946 1
30636 26948 26947 1
30637 26944 26945 1
30638 26943 26948 1
30639 26950 26949 un
30640 26936 26950 un
30641 26933 26949 un
30642 26952 26951 un
30643 26953 26952 1
30644 26949 26953 un
30645 26932 26951 un
30646 26955 26954 un
30647 26956 26955 un
30648 26957 26956 un
30649 26952 26954 un
30650 26951 26957 un
30651 26959 26958 un
30652 26960 26959 un
30653 26961 26960 un
30654 26956 26958 un
30655 26955 26961 un
30656 26963 26962 un
30657 26964 26963 un
30658 26965 26964 un
30659 26960 26962 un
30660 26959 26965 un
30661 26967 26966 un
30662 26931 26967 un
30663 26957 26966 un
30664 26969 26968 un
30665 26966 26969 un
30666 26958 26968 un
30667 26971 26970 un
30668 26968 26971 un
30669 26965 26970 un
30670 26973 26972 un
30671 26974 26973 un
30672 26970 26974 un
30673 26964 26972 un
30674 26976 26975 1
30675 26977 26976 1
30676 26978 26977 1
30677 26963 26975 1
30678 26962 26978 1
30679 26980 26979 1
30680 26981 26980 1
30681 26982 26981 1
30682 26977 26979 1
30683 26976 26982 1
30684 26984 26983 1
30685 26985 26984 1
30686 26986 26985 1
30687 26982 26983 1
30688 26981 26986 1
30689 26988 26987 un
30690 26989 26988 un
30691 26971 26989 un
30692 26969 26987 un
30693 26991 26990 1
30694 26992 26991 1
30695 26993 26992 1
30696 26988 26990 1
30697 26987 26993 1
30698 26995 26994 1
30699 26996 26995 1
30700 26997 26996 1
30701 26992 26994 1
30702 26991 26997 1
30703 26999 26998 un
30704 26989 26999 un
30705 26974 26998 un
30706 27001 27000 un
30707 27002 27001 un
30708 26998 27002 un
30709 26973 27000 un
30710 27004 27003 un
30711 27005 27004 un
30712 26972 27005 un
30713 27000 27003 un
30714 27007 27006 1
30715 27008 27007 un
30716 27001 27006 1
30717 27003 27008 1
30718 27010 27009 1
30719 27011 27010 1
30720 27004 27009 1
30721 27008 27011 un
30722 27013 27012 1
30723 27014 27013 1
30724 27015 27014 1
30725 27010 27012 1
30726 27009 27015 1
30727 27017 27016 1
30728 27018 27017 1
30729 27007 27018 un
30730 27011 27016 un
30731 27012 27019 1
30732 27016 27020 un
30733 27019 27020 un
30734 26946 27021 1
30735 27021 27022 1
30736 27021 27023 1
30737 26978 27024 1
30738 27026 27025 1
30739 27027 27026 un
30740 27028 27027 1
30741 27018 27025 un
30742 27017 27028 un
30743 27030 27029 un
30744 27031 27030 1
30745 27032 27031 un
30746 27028 27029 un
30747 27027 27032 un
30748 27034 27033 un
30749 27035 27034 1
30750 27036 27035 1
30751 27031 27033 un
30752 27030 27036 un
30753 27038 27037 un
30754 27039 27038 un
30755 27029 27039 un
30756 27036 27037 un
30757 27041 27040 un
30758 27042 27041 un
30759 27035 27042 un
30760 27037 27040 un
30761 27044 27043 un
30762 27038 27044 un
30763 27020 27039 un
30764 27019 27043 un
30765 27046 27045 un
30766 27044 27046 un
30767 27040 27045 un
30768 27048 27047 1
30769 27049 27048 1
30770 27050 27049 1
30771 27046 27047 1
30772 27045 27050 1
30773 27050 27051 2
30774 26905 27052 1
30775 26905 27053 1
30776 26906 27054 1
30777 26906 27055 1
30778 26907 27056 1
30779 26908 27057 1
30780 26909 27058 1
30781 26909 27059 1
30782 26911 27060 1
30783 26912 27061 1
30784 26913 27062 1
30785 26913 27063 1
30786 26914 27064 1
30787 26914 27065 1
30788 26916 27066 1
30789 26917 27067 1
30790 26918 27068 1
30791 26918 27069 1
30792 26922 27070 1
30793 26927 27071 1
30794 26927 27072 1
30795 26928 27073 1
30796 26928 27074 1
30797 26929 27075 1
30798 26929 27076 1
30799 26939 27077 1
30800 26939 27078 1
30801 26940 27079 1
30802 26941 27080 1
30803 26941 27081 1
30804 26942 27082 1
30805 26942 27083 1
30806 26945 27084 1
30807 26945 27085 1
30808 26946 27086 1
30809 26947 27087 1
30810 26947 27088 1
30811 26948 27089 1
30812 26948 27090 1
30813 26950 27091 1
30814 26954 27092 1
30815 26961 27093 1
30816 26967 27094 1
30817 26976 27095 1
30818 26977 27096 1
30819 26978 27097 1
30820 26979 27098 1
30821 26979 27099 1
30822 26980 27100 1
30823 26980 27101 1
30824 26981 27102 1
30825 26982 27103 1
30826 26983 27104 1
30827 26983 27105 1
30828 26984 27106 1
30829 26984 27107 1
30830 26985 27108 1
30831 26985 27109 1
30832 26986 27110 1
30833 26991 27111 1
30834 26992 27112 1
30835 26994 27113 1
30836 26994 27114 1
30837 26995 27115 1
30838 26995 27116 1
30839 26996 27117 1
30840 26996 27118 1
30841 26997 27119 1
30842 26997 27120 1
30843 26999 27121 1
30844 27002 27122 1
30845 27005 27123 1
30846 27009 27124 1
30847 27010 27125 1
30848 27012 27126 1
30849 27013 27127 1
30850 27013 27128 1
30851 27014 27129 1
30852 27014 27130 1
30853 27015 27131 1
30854 27015 27132 1
30855 27021 27133 1
30856 27022 27134 1
30857 27022 27135 1
30858 27022 27136 1
30859 27023 27137 1
30860 27023 27138 1
30861 27023 27139 1
30862 27024 27140 1
30863 27025 27141 1
30864 27026 27142 1
30865 27032 27143 1
30866 27033 27144 1
30867 27034 27145 1
30868 27041 27146 1
30869 27042 27147 1
30870 27043 27148 1
30871 27047 27149 1
30872 27047 27150 1
30873 27048 27151 1
30874 27048 27152 1
30875 27049 27153 1
30876 27049 27154 1
30877 27157 27156 1
30878 27158 27157 1
30879 27159 27158 1
30880 27160 27159 1
30881 27155 27156 1
30882 27155 27160 1
30883 27162 27161 1
30884 27163 27162 1
30885 27164 27163 1
30886 27158 27161 1
30887 27157 27164 1
30888 27166 27165 1
30889 27167 27166 1
30890 27168 27167 1
30891 27162 27165 1
30892 27161 27168 1
30893 27170 27169 un
30894 27171 27170 un
30895 27172 27171 un
30896 27167 27169 1
30897 27166 27172 1
30898 27174 27173 1
30899 27175 27174 un
30900 27176 27175 un
30901 27171 27173 un
30902 27170 27176 un
30903 27178 27177 1
30904 27179 27178 1
30905 27169 27179 1
30906 27176 27177 1
30907 27181 27180 1
30908 27182 27181 un
30909 27183 27182 un
30910 27175 27180 1
30911 27174 27183 un
30912 27185 27184 un
30913 27186 27185 2
30914 27172 27184 1
30915 27173 27186 un
30916 27188 27187 2
30917 27189 27188 1
30918 27190 27189 1
30919 27185 27187 1
30920 27184 27190 2
30921 27192 27191 1
30922 27193 27192 1
30923 27194 27193 2
30924 27188 27191 1
30925 27187 27194 1
30926 27196 27195 1
30927 27197 27196 1
30928 27198 27197 1
30929 27194 27195 1
30930 27193 27198 1
30931 27200 27199 un
30932 27186 27200 un
30933 27183 27199 un
30934 27202 27201 un
30935 27203 27202 1
30936 27199 27203 un
30937 27182 27201 un
30938 27205 27204 un
30939 27206 27205 un
30940 27207 27206 un
30941 27202 27204 un
30942 27201 27207 un
30943 27209 27208 un
30944 27210 27209 un
30945 27211 27210 un
30946 27206 27208 un
30947 27205 27211 un
30948 27213 27212 un
30949 27214 27213 un
30950 27215 27214 un
30951 27210 27212 un
30952 27209 27215 un
30953 27217 27216 un
30954 27181 27217 un
30955 27207 27216 un
30956 27219 27218 un
30957 27216 27219 un
30958 27208 27218 un
30959 27221 27220 un
30960 27218 27221 un
30961 27215 27220 un
30962 27223 27222 un
30963 27224 27223 un
30964 27220 27224 un
30965 27214 27222 un
30966 27226 27225 1
30967 27227 27226 1
30968 27228 27227 1
30969 27213 27225 1
30970 27212 27228 1
30971 27230 27229 1
30972 27231 27230 1
30973 27232 27231 1
30974 27227 27229 1
30975 27226 27232 1
30976 27234 27233 1
30977 27235 27234 1
30978 27236 27235 1
30979 27232 27233 1
30980 27231 27236 1
30981 27238 27237 un
30982 27239 27238 un
30983 27221 27239 un
30984 27219 27237 un
30985 27241 27240 1
30986 27242 27241 1
30987 27243 27242 1
30988 27238 27240 1
30989 27237 27243 1
30990 27245 27244 1
30991 27246 27245 1
30992 27247 27246 1
30993 27242 27244 1
30994 27241 27247 1
30995 27249 27248 un
30996 27239 27249 un
30997 27224 27248 un
30998 27251 27250 un
30999 27252 27251 un
31000 27248 27252 un
31001 27223 27250 un
31002 27254 27253 un
31003 27255 27254 un
31004 27222 27255 un
31005 27250 27253 un
31006 27257 27256 1
31007 27258 27257 un
31008 27251 27256 1
31009 27253 27258 1
31010 27260 27259 1
31011 27261 27260 1
31012 27254 27259 1
31013 27258 27261 un
31014 27263 27262 1
31015 27264 27263 1
31016 27265 27264 1
31017 27260 27262 1
31018 27259 27265 1
31019 27267 27266 1
31020 27268 27267 1
31021 27257 27268 un
31022 27261 27266 un
31023 27262 27269 1
31024 27266 27270 un
31025 27269 27270 un
31026 27196 27271 1
31027 27271 27272 1
31028 27271 27273 1
31029 27228 27274 1
31030 27276 27275 1
31031 27277 27276 un
31032 27278 27277 1
31033 27268 27275 un
31034 27267 27278 un
31035 27280 27279 un
31036 27281 27280 1
31037 27282 27281 un
31038 27278 27279 un
31039 27277 27282 un
31040 27284 27283 un
31041 27285 27284 1
31042 27286 27285 1
31043 27281 27283 un
31044 27280 27286 un
31045 27288 27287 un
31046 27289 27288 un
31047 27279 27289 un
31048 27286 27287 un
31049 27291 27290 un
31050 27292 27291 un
31051 27285 27292 un
31052 27287 27290 un
31053 27294 27293 un
31054 27288 27294 un
31055 27270 27289 un
31056 27269 27293 un
31057 27296 27295 un
31058 27294 27296 un
31059 27290 27295 un
31060 27298 27297 1
31061 27299 27298 1
31062 27300 27299 1
31063 27296 27297 1
31064 27295 27300 1
31065 27300 27301 2
31066 27155 27302 1
31067 27155 27303 1
31068 27156 27304 1
31069 27156 27305 1
31070 27157 27306 1
31071 27158 27307 1
31072 27159 27308 1
31073 27159 27309 1
31074 27161 27310 1
31075 27162 27311 1
31076 27163 27312 1
31077 27163 27313 1
31078 27164 27314 1
31079 27164 27315 1
31080 27166 27316 1
31081 27167 27317 1
31082 27168 27318 1
31083 27168 27319 1
31084 27172 27320 1
31085 27177 27321 1
31086 27177 27322 1
31087 27178 27323 1
31088 27178 27324 1
31089 27179 27325 1
31090 27179 27326 1
31091 27189 27327 1
31092 27189 27328 1
31093 27190 27329 1
31094 27191 27330 1
31095 27191 27331 1
31096 27192 27332 1
31097 27192 27333 1
31098 27195 27334 1
31099 27195 27335 1
31100 27196 27336 1
31101 27197 27337 1
31102 27197 27338 1
31103 27198 27339 1
31104 27198 27340 1
31105 27200 27341 1
31106 27204 27342 1
31107 27211 27343 1
31108 27217 27344 1
31109 27226 27345 1
31110 27227 27346 1
31111 27228 27347 1
31112 27229 27348 1
31113 27229 27349 1
31114 27230 27350 1
31115 27230 27351 1
31116 27231 27352 1
31117 27232 27353 1
31118 27233 27354 1
31119 27233 27355 1
31120 27234 27356 1
31121 27234 27357 1
31122 27235 27358 1
31123 27235 27359 1
31124 27236 27360 1
31125 27241 27361 1
31126 27242 27362 1
31127 27244 27363 1
31128 27244 27364 1
31129 27245 27365 1
31130 27245 27366 1
31131 27246 27367 1
31132 27246 27368 1
31133 27247 27369 1
31134 27247 27370 1
31135 27249 27371 1
31136 27252 27372 1
31137 27255 27373 1
31138 27259 27374 1
31139 27260 27375 1
31140 27262 27376 1
31141 27263 27377 1
31142 27263 27378 1
31143 27264 27379 1
31144 27264 27380 1
31145 27265 27381 1
31146 27265 27382 1
31147 27271 27383 1
31148 27272 27384 1
31149 27272 27385 1
31150 27272 27386 1
31151 27273 27387 1
31152 27273 27388 1
31153 27273 27389 1
31154 27274 27390 1
31155 27275 27391 1
31156 27276 27392 1
31157 27282 27393 1
31158 27283 27394 1
31159 27284 27395 1
31160 27291 27396 1
31161 27292 27397 1
31162 27293 27398 1
31163 27297 27399 1
31164 27297 27400 1
31165 27298 27401 1
31166 27298 27402 1
31167 27299 27403 1
31168 27299 27404 1
31169 27407 27406 1
31170 27408 27407 1
31171 27409 27408 1
31172 27410 27409 1
31173 27405 27406 1
31174 27405 27410 1
31175 27412 27411 1
31176 27413 27412 1
31177 27414 27413 1
31178 27408 27411 1
31179 27407 27414 1
31180 27416 27415 1
31181 27417 27416 1
31182 27418 27417 1
31183 27412 27415 1
31184 27411 27418 1
31185 27420 27419 un
31186 27421 27420 un
31187 27422 27421 un
31188 27417 27419 1
31189 27416 27422 1
31190 27424 27423 1
31191 27425 27424 un
31192 27426 27425 un
31193 27421 27423 un
31194 27420 27426 un
31195 27428 27427 1
31196 27429 27428 1
31197 27419 27429 1
31198 27426 27427 1
31199 27431 27430 1
31200 27432 27431 un
31201 27433 27432 un
31202 27425 27430 1
31203 27424 27433 un
31204 27435 27434 un
31205 27436 27435 2
31206 27422 27434 1
31207 27423 27436 un
31208 27438 27437 2
31209 27439 27438 1
31210 27440 27439 1
31211 27435 27437 1
31212 27434 27440 2
31213 27442 27441 1
31214 27443 27442 1
31215 27444 27443 2
31216 27438 27441 1
31217 27437 27444 1
31218 27446 27445 1
31219 27447 27446 1
31220 27448 27447 1
31221 27444 27445 1
31222 27443 27448 1
31223 27450 27449 un
31224 27436 27450 un
31225 27433 27449 un
31226 27452 27451 un
31227 27453 27452 1
31228 27449 27453 un
31229 27432 27451 un
31230 27455 27454 un
31231 27456 27455 un
31232 27457 27456 un
31233 27452 27454 un
31234 27451 27457 un
31235 27459 27458 un
31236 27460 27459 un
31237 27461 27460 un
31238 27456 27458 un
31239 27455 27461 un
31240 27463 27462 un
31241 27464 27463 un
31242 27465 27464 un
31243 27460 27462 un
31244 27459 27465 un
31245 27467 27466 un
31246 27431 27467 un
31247 27457 27466 un
31248 27469 27468 un
31249 27466 27469 un
31250 27458 27468 un
31251 27471 27470 un
31252 27468 27471 un
31253 27465 27470 un
31254 27473 27472 un
31255 27474 27473 un
31256 27470 27474 un
31257 27464 27472 un
31258 27476 27475 1
31259 27477 27476 1
31260 27478 27477 1
31261 27463 27475 1
31262 27462 27478 1
31263 27480 27479 1
31264 27481 27480 1
31265 27482 27481 1
31266 27477 27479 1
31267 27476 27482 1
31268 27484 27483 1
31269 27485 27484 1
31270 27486 27485 1
31271 27482 27483 1
31272 27481 27486 1
31273 27488 27487 un
31274 27489 27488 un
31275 27471 27489 un
31276 27469 27487 un
31277 27491 27490 1
31278 27492 27491 1
31279 27493 27492 1
31280 27488 27490 1
31281 27487 27493 1
31282 27495 27494 1
31283 27496 27495 1
31284 27497 27496 1
31285 27492 27494 1
31286 27491 27497 1
31287 27499 27498 un
31288 27489 27499 un
31289 27474 27498 un
31290 27501 27500 un
31291 27502 27501 un
31292 27498 27502 un
31293 27473 27500 un
31294 27504 27503 un
31295 27505 27504 un
31296 27472 27505 un
31297 27500 27503 un
31298 27507 27506 1
31299 27508 27507 un
31300 27501 27506 1
31301 27503 27508 1
31302 27510 27509 1
31303 27511 27510 1
31304 27504 27509 1
31305 27508 27511 un
31306 27513 27512 1
31307 27514 27513 1
31308 27515 27514 1
31309 27510 27512 1
31310 27509 27515 1
31311 27517 27516 1
31312 27518 27517 1
31313 27507 27518 un
31314 27511 27516 un
31315 27512 27519 1
31316 27516 27520 un
31317 27519 27520 un
31318 27446 27521 1
31319 27521 27522 1
31320 27521 27523 1
31321 27478 27524 1
31322 27526 27525 1
31323 27527 27526 un
31324 27528 27527 1
31325 27518 27525 un
31326 27517 27528 un
31327 27530 27529 un
31328 27531 27530 1
31329 27532 27531 un
31330 27528 27529 un
31331 27527 27532 un
31332 27534 27533 un
31333 27535 27534 1
31334 27536 27535 1
31335 27531 27533 un
31336 27530 27536 un
31337 27538 27537 un
31338 27539 27538 un
31339 27529 27539 un
31340 27536 27537 un
31341 27541 27540 un
31342 27542 27541 un
31343 27535 27542 un
31344 27537 27540 un
31345 27544 27543 un
31346 27538 27544 un
31347 27520 27539 un
31348 27519 27543 un
31349 27546 27545 un
31350 27544 27546 un
31351 27540 27545 un
31352 27548 27547 1
31353 27549 27548 1
31354 27550 27549 1
31355 27546 27547 1
31356 27545 27550 1
31357 27550 27551 2
31358 27405 27552 1
31359 27405 27553 1
31360 27406 27554 1
31361 27406 27555 1
31362 27407 27556 1
31363 27408 27557 1
31364 27409 27558 1
31365 27409 27559 1
31366 27411 27560 1
31367 27412 27561 1
31368 27413 27562 1
31369 27413 27563 1
31370 27414 27564 1
31371 27414 27565 1
31372 27416 27566 1
31373 27417 27567 1
31374 27418 27568 1
31375 27418 27569 1
31376 27422 27570 1
31377 27427 27571 1
31378 27427 27572 1
31379 27428 27573 1
31380 27428 27574 1
31381 27429 27575 1
31382 27429 27576 1
31383 27439 27577 1
31384 27439 27578 1
31385 27440 27579 1
31386 27441 27580 1
31387 27441 27581 1
31388 27442 27582 1
31389 27442 27583 1
31390 27445 27584 1
31391 27445 27585 1
31392 27446 27586 1
31393 27447 27587 1
31394 27447 27588 1
31395 27448 27589 1
31396 27448 27590 1
31397 27450 27591 1
31398 27454 27592 1
31399 27461 27593 1
31400 27467 27594 1
31401 27476 27595 1
31402 27477 27596 1
31403 27478 27597 1
31404 27479 27598 1
31405 27479 27599 1
31406 27480 27600 1
31407 27480 27601 1
31408 27481 27602 1
31409 27482 27603 1
31410 27483 27604 1
31411 27483 27605 1
31412 27484 27606 1
31413 27484 27607 1
31414 27485 27608 1
31415 27485 27609 1
31416 27486 27610 1
31417 27491 27611 1
31418 27492 27612 1
31419 27494 27613 1
31420 27494 27614 1
31421 27495 27615 1
31422 27495 27616 1
31423 27496 27617 1
31424 27496 27618 1
31425 27497 27619 1
31426 27497 27620 1
31427 27499 27621 1
31428 27502 27622 1
31429 27505 27623 1
31430 27509 27624 1
31431 27510 27625 1
31432 27512 27626 1
31433 27513 27627 1
31434 27513 27628 1
31435 27514 27629 1
31436 27514 27630 1
31437 27515 27631 1
31438 27515 27632 1
31439 27521 27633 1
31440 27522 27634 1
31441 27522 27635 1
31442 27522 27636 1
31443 27523 27637 1
31444 27523 27638 1
31445 27523 27639 1
31446 27524 27640 1
31447 27525 27641 1
31448 27526 27642 1
31449 27532 27643 1
31450 27533 27644 1
31451 27534 27645 1
31452 27541 27646 1
31453 27542 27647 1
31454 27543 27648 1
31455 27547 27649 1
31456 27547 27650 1
31457 27548 27651 1
31458 27548 27652 1
31459 27549 27653 1
31460 27549 27654 1
31461 27657 27656 1
31462 27658 27657 1
31463 27659 27658 1
31464 27660 27659 1
31465 27655 27656 1
31466 27655 27660 1
31467 27662 27661 1
31468 27663 27662 1
31469 27664 27663 1
31470 27658 27661 1
31471 27657 27664 1
31472 27666 27665 1
31473 27667 27666 1
31474 27668 27667 1
31475 27662 27665 1
31476 27661 27668 1
31477 27670 27669 un
31478 27671 27670 un
31479 27672 27671 un
31480 27667 27669 1
31481 27666 27672 1
31482 27674 27673 1
31483 27675 27674 un
31484 27676 27675 un
31485 27671 27673 un
31486 27670 27676 un
31487 27678 27677 1
31488 27679 27678 1
31489 27669 27679 1
31490 27676 27677 1
31491 27681 27680 1
31492 27682 27681 un
31493 27683 27682 un
31494 27675 27680 1
31495 27674 27683 un
31496 27685 27684 un
31497 27686 27685 2
31498 27672 27684 1
31499 27673 27686 un
31500 27688 27687 2
31501 27689 27688 1
31502 27690 27689 1
31503 27685 27687 1
31504 27684 27690 2
31505 27692 27691 1
31506 27693 27692 1
31507 27694 27693 2
31508 27688 27691 1
31509 27687 27694 1
31510 27696 27695 1
31511 27697 27696 1
31512 27698 27697 1
31513 27694 27695 1
31514 27693 27698 1
31515 27700 27699 un
31516 27686 27700 un
31517 27683 27699 un
31518 27702 27701 un
31519 27703 27702 1
31520 27699 27703 un
31521 27682 27701 un
31522 27705 27704 un
31523 27706 27705 un
31524 27707 27706 un
31525 27702 27704 un
31526 27701 27707 un
31527 27709 27708 un
31528 27710 27709 un
31529 27711 27710 un
31530 27706 27708 un
31531 27705 27711 un
31532 27713 27712 un
31533 27714 27713 un
31534 27715 27714 un
31535 27710 27712 un
31536 27709 27715 un
31537 27717 27716 un
31538 27681 27717 un
31539 27707 27716 un
31540 27719 27718 un
31541 27716 27719 un
31542 27708 27718 un
31543 27721 27720 un
31544 27718 27721 un
31545 27715 27720 un
31546 27723 27722 un
31547 27724 27723 un
31548 27720 27724 un
31549 27714 27722 un
31550 27726 27725 1
31551 27727 27726 1
31552 27728 27727 1
31553 27713 27725 1
31554 27712 27728 1
31555 27730 27729 1
31556 27731 27730 1
31557 27732 27731 1
31558 27727 27729 1
31559 27726 27732 1
31560 27734 27733 1
31561 27735 27734 1
31562 27736 27735 1
31563 27732 27733 1
31564 27731 27736 1
31565 27738 27737 un
31566 27739 27738 un
31567 27721 27739 un
31568 27719 27737 un
31569 27741 27740 1
31570 27742 27741 1
31571 27743 27742 1
31572 27738 27740 1
31573 27737 27743 1
31574 27745 27744 1
31575 27746 27745 1
31576 27747 27746 1
31577 27742 27744 1
31578 27741 27747 1
31579 27749 27748 un
31580 27739 27749 un
31581 27724 27748 un
31582 27751 27750 un
31583 27752 27751 un
31584 27748 27752 un
31585 27723 27750 un
31586 27754 27753 un
31587 27755 27754 un
31588 27722 27755 un
31589 27750 27753 un
31590 27757 27756 1
31591 27758 27757 un
31592 27751 27756 1
31593 27753 27758 1
31594 27760 27759 1
31595 27761 27760 1
31596 27754 27759 1
31597 27758 27761 un
31598 27763 27762 1
31599 27764 27763 1
31600 27765 27764 1
31601 27760 27762 1
31602 27759 27765 1
31603 27767 27766 1
31604 27768 27767 1
31605 27757 27768 un
31606 27761 27766 un
31607 27762 27769 1
31608 27766 27770 un
31609 27769 27770 un
31610 27696 27771 1
31611 27771 27772 1
31612 27771 27773 1
31613 27728 27774 1
31614 27776 27775 1
31615 27777 27776 un
31616 27778 27777 1
31617 27768 27775 un
31618 27767 27778 un
31619 27780 27779 un
31620 27781 27780 1
31621 27782 27781 un
31622 27778 27779 un
31623 27777 27782 un
31624 27784 27783 un
31625 27785 27784 1
31626 27786 27785 1
31627 27781 27783 un
31628 27780 27786 un
31629 27788 27787 un
31630 27789 27788 un
31631 27779 27789 un
31632 27786 27787 un
31633 27791 27790 un
31634 27792 27791 un
31635 27785 27792 un
31636 27787 27790 un
31637 27794 27793 un
31638 27788 27794 un
31639 27770 27789 un
31640 27769 27793 un
31641 27796 27795 un
31642 27794 27796 un
31643 27790 27795 un
31644 27798 27797 1
31645 27799 27798 1
31646 27800 27799 1
31647 27796 27797 1
31648 27795 27800 1
31649 27800 27801 2
31650 27655 27802 1
31651 27655 27803 1
31652 27656 27804 1
31653 27656 27805 1
31654 27657 27806 1
31655 27658 27807 1
31656 27659 27808 1
31657 27659 27809 1
31658 27661 27810 1
31659 27662 27811 1
31660 27663 27812 1
31661 27663 27813 1
31662 27664 27814 1
31663 27664 27815 1
31664 27666 27816 1
31665 27667 27817 1
31666 27668 27818 1
31667 27668 27819 1
31668 27672 27820 1
31669 27677 27821 1
31670 27677 27822 1
31671 27678 27823 1
31672 27678 27824 1
31673 27679 27825 1
31674 27679 27826 1
31675 27689 27827 1
31676 27689 27828 1
31677 27690 27829 1
31678 27691 27830 1
31679 27691 27831 1
31680 27692 27832 1
31681 27692 27833 1
31682 27695 27834 1
31683 27695 27835 1
31684 27696 27836 1
31685 27697 27837 1
31686 27697 27838 1
31687 27698 27839 1
31688 27698 27840 1
31689 27700 27841 1
31690 27704 27842 1
31691 27711 27843 1
31692 27717 27844 1
31693 27726 27845 1
31694 27727 27846 1
31695 27728 27847 1
31696 27729 27848 1
31697 27729 27849 1
31698 27730 27850 1
31699 27730 27851 1
31700 27731 27852 1
31701 27732 27853 1
31702 27733 27854 1
31703 27733 27855 1
31704 27734 27856 1
31705 27734 27857 1
31706 27735 27858 1
31707 27735 27859 1
31708 27736 27860 1
31709 27741 27861 1
31710 27742 27862 1
31711 27744 27863 1
31712 27744 27864 1
31713 27745 27865 1
31714 27745 27866 1
31715 27746 27867 1
31716 27746 27868 1
31717 27747 27869 1
31718 27747 27870 1
31719 27749 27871 1
31720 27752 27872 1
31721 27755 27873 1
31722 27759 27874 1
31723 27760 27875 1
31724 27762 27876 1
31725 27763 27877 1
31726 27763 27878 1
31727 27764 27879 1
31728 27764 27880 1
31729 27765 27881 1
31730 27765 27882 1
31731 27771 27883 1
31732 27772 27884 1
31733 27772 27885 1
31734 27772 27886 1
31735 27773 27887 1
31736 27773 27888 1
31737 27773 27889 1
31738 27774 27890 1
31739 27775 27891 1
31740 27776 27892 1
31741 27782 27893 1
31742 27783 27894 1
31743 27784 27895 1
31744 27791 27896 1
31745 27792 27897 1
31746 27793 27898 1
31747 27797 27899 1
31748 27797 27900 1
31749 27798 27901 1
31750 27798 27902 1
31751 27799 27903 1
31752 27799 27904 1
31753 27907 27906 1
31754 27908 27907 1
31755 27909 27908 1
31756 27910 27909 1
31757 27905 27906 1
31758 27905 27910 1
31759 27912 27911 1
31760 27913 27912 1
31761 27914 27913 1
31762 27908 27911 1
31763 27907 27914 1
31764 27916 27915 1
31765 27917 27916 1
31766 27918 27917 1
31767 27912 27915 1
31768 27911 27918 1
31769 27920 27919 un
31770 27921 27920 un
31771 27922 27921 un
31772 27917 27919 1
31773 27916 27922 1
31774 27924 27923 1
31775 27925 27924 un
31776 27926 27925 un
31777 27921 27923 un
31778 27920 27926 un
31779 27928 27927 1
31780 27929 27928 1
31781 27919 27929 1
31782 27926 27927 1
31783 27931 27930 1
31784 27932 27931 un
31785 27933 27932 un
31786 27925 27930 1
31787 27924 27933 un
31788 27935 27934 un
31789 27936 27935 2
31790 27922 27934 1
31791 27923 27936 un
31792 27938 27937 2
31793 27939 27938 1
31794 27940 27939 1
31795 27935 27937 1
31796 27934 27940 2
31797 27942 27941 1
31798 27943 27942 1
31799 27944 27943 2
31800 27938 27941 1
31801 27937 27944 1
31802 27946 27945 1
31803 27947 27946 1
31804 27948 27947 1
31805 27944 27945 1
31806 27943 27948 1
31807 27950 27949 un
31808 27936 27950 un
31809 27933 27949 un
31810 27952 27951 un
31811 27953 27952 1
31812 27949 27953 un
31813 27932 27951 un
31814 27955 27954 un
31815 27956 27955 un
31816 27957 27956 un
31817 27952 27954 un
31818 27951 27957 un
31819 27959 27958 un
31820 27960 27959 un
31821 27961 27960 un
31822 27956 27958 un
31823 27955 27961 un
31824 27963 27962 un
31825 27964 27963 un
31826 27965 27964 un
31827 27960 27962 un
31828 27959 27965 un
31829 27967 27966 un
31830 27931 27967 un
31831 27957 27966 un
31832 27969 27968 un
31833 27966 27969 un
31834 27958 27968 un
31835 27971 27970 un
31836 27968 27971 un
31837 27965 27970 un
31838 27973 27972 un
31839 27974 27973 un
31840 27970 27974 un
31841 27964 27972 un
31842 27976 27975 1
31843 27977 27976 1
31844 27978 27977 1
31845 27963 27975 1
31846 27962 27978 1
31847 27980 27979 1
31848 27981 27980 1
31849 27982 27981 1
31850 27977 27979 1
31851 27976 27982 1
31852 27984 27983 1
31853 27985 27984 1
31854 27986 27985 1
31855 27982 27983 1
31856 27981 27986 1
31857 27988 27987 un
31858 27989 27988 un
31859 27971 27989 un
31860 27969 27987 un
31861 27991 27990 1
31862 27992 27991 1
31863 27993 27992 1
31864 27988 27990 1
31865 27987 27993 1
31866 27995 27994 1
31867 27996 27995 1
31868 27997 27996 1
31869 27992 27994 1
31870 27991 27997 1
31871 27999 27998 un
31872 27989 27999 un
31873 27974 27998 un
31874 28001 28000 un
31875 28002 28001 un
31876 27998 28002 un
31877 27973 28000 un
31878 28004 28003 un
31879 28005 28004 un
31880 27972 28005 un
31881 28000 28003 un
31882 28007 28006 1
31883 28008 28007 un
31884 28001 28006 1
31885 28003 28008 1
31886 28010 28009 1
31887 28011 28010 1
31888 28004 28009 1
31889 28008 28011 un
31890 28013 28012 1
31891 28014 28013 1
31892 28015 28014 1
31893 28010 28012 1
31894 28009 28015 1
31895 28017 28016 1
31896 28018 28017 1
31897 28007 28018 un
31898 28011 28016 un
31899 28012 28019 1
31900 28016 28020 un
31901 28019 28020 un
31902 27946 28021 1
31903 28021 28022 1
31904 28021 28023 1
31905 27978 28024 1
31906 28026 28025 1
31907 28027 28026 un
31908 28028 28027 1
31909 28018 28025 un
31910 28017 28028 un
31911 28030 28029 un
31912 28031 28030 1
31913 28032 28031 un
31914 28028 28029 un
31915 28027 28032 un
31916 28034 28033 un
31917 28035 28034 1
31918 28036 28035 1
31919 28031 28033 un
31920 28030 28036 un
31921 28038 28037 un
31922 28039 28038 un
31923 28029 28039 un
31924 28036 28037 un
31925 28041 28040 un
31926 28042 28041 un
31927 28035 28042 un
31928 28037 28040 un
31929 28044 28043 un
31930 28038 28044 un
31931 28020 28039 un
31932 28019 28043 un
31933 28046 28045 un
31934 28044 28046 un
31935 28040 28045 un
31936 28048 28047 1
31937 28049 28048 1
31938 28050 28049 1
31939 28046 28047 1
31940 28045 28050 1
31941 28050 28051 2
31942 27905 28052 1
31943 27905 28053 1
31944 27906 28054 1
31945 27906 28055 1
31946 27907 28056 1
31947 27908 28057 1
31948 27909 28058 1
31949 27909 28059 1
31950 27911 28060 1
31951 27912 28061 1
31952 27913 28062 1
31953 27913 28063 1
31954 27914 28064 1
31955 27914 28065 1
31956 27916 28066 1
31957 27917 28067 1
31958 27918 28068 1
31959 27918 28069 1
31960 27922 28070 1
31961 27927 28071 1
31962 27927 28072 1
31963 27928 28073 1
31964 27928 28074 1
31965 27929 28075 1
31966 27929 28076 1
31967 27939 28077 1
31968 27939 28078 1
31969 27940 28079 1
31970 27941 28080 1
31971 27941 28081 1
31972 27942 28082 1
31973 27942 28083 1
31974 27945 28084 1
31975 27945 28085 1
31976 27946 28086 1
31977 27947 28087 1
31978 27947 28088 1
31979 27948 28089 1
31980 27948 28090 1
31981 27950 28091 1
31982 27954 28092 1
31983 27961 28093 1
31984 27967 28094 1
31985 27976 28095 1
31986 27977 28096 1
31987 27978 28097 1
31988 27979 28098 1
31989 27979 28099 1
31990 27980 28100 1
31991 27980 28101 1
31992 27981 28102 1
31993 27982 28103 1
31994 27983 28104 1
31995 27983 28105 1
31996 27984 28106 1
31997 27984 28107 1
31998 27985 28108 1
31999 27985 28109 1
32000 27986 28110 1
32001 27991 28111 1
32002 27992 28112 1
32003 27994 28113 1
32004 27994 28114 1
32005 27995 28115 1
32006 27995 28116 1
32007 27996 28117 1
32008 27996 28118 1
32009 27997 28119 1
32010 27997 28120 1
32011 27999 28121 1
32012 28002 28122 1
32013 28005 28123 1
32014 28009 28124 1
32015 28010 28125 1
32016 28012 28126 1
32017 28013 28127 1
32018 28013 28128 1
32019 28014 28129 1
32020 28014 28130 1
32021 28015 28131 1
32022 28015 28132 1
32023 28021 28133 1
32024 28022 28134 1
32025 28022 28135 1
32026 28022 28136 1
32027 28023 28137 1
32028 28023 28138 1
32029 28023 28139 1
32030 28024 28140 1
32031 28025 28141 1
32032 28026 28142 1
32033 28032 28143 1
32034 28033 28144 1
32035 28034 28145 1
32036 28041 28146 1
32037 28042 28147 1
32038 28043 28148 1
32039 28047 28149 1
32040 28047 28150 1
32041 28048 28151 1
32042 28048 28152 1
32043 28049 28153 1
32044 28049 28154 1
32045 28157 28156 1
32046 28158 28157 1
32047 28159 28158 1
32048 28160 28159 1
32049 28155 28156 1
32050 28155 28160 1
32051 28162 28161 1
32052 28163 28162 1
32053 28164 28163 1
32054 28158 28161 1
32055 28157 28164 1
32056 28166 28165 1
32057 28167 28166 1
32058 28168 28167 1
32059 28162 28165 1
32060 28161 28168 1
32061 28170 28169 un
32062 28171 28170 un
32063 28172 28171 un
32064 28167 28169 1
32065 28166 28172 1
32066 28174 28173 1
32067 28175 28174 un
32068 28176 28175 un
32069 28171 28173 un
32070 28170 28176 un
32071 28178 28177 1
32072 28179 28178 1
32073 28169 28179 1
32074 28176 28177 1
32075 28181 28180 1
32076 28182 28181 un
32077 28183 28182 un
32078 28175 28180 1
32079 28174 28183 un
32080 28185 28184 un
32081 28186 28185 2
32082 28172 28184 1
32083 28173 28186 un
32084 28188 28187 2
32085 28189 28188 1
32086 28190 28189 1
32087 28185 28187 1
32088 28184 28190 2
32089 28192 28191 1
32090 28193 28192 1
32091 28194 28193 2
32092 28188 28191 1
32093 28187 28194 1
32094 28196 28195 1
32095 28197 28196 1
32096 28198 28197 1
32097 28194 28195 1
32098 28193 28198 1
32099 28200 28199 un
32100 28186 28200 un
32101 28183 28199 un
32102 28202 28201 un
32103 28203 28202 1
32104 28199 28203 un
32105 28182 28201 un
32106 28205 28204 un
32107 28206 28205 un
32108 28207 28206 un
32109 28202 28204 un
32110 28201 28207 un
32111 28209 28208 un
32112 28210 28209 un
32113 28211 28210 un
32114 28206 28208 un
32115 28205 28211 un
32116 28213 28212 un
32117 28214 28213 un
32118 28215 28214 un
32119 28210 28212 un
32120 28209 28215 un
32121 28217 28216 un
32122 28181 28217 un
32123 28207 28216 un
32124 28219 28218 un
32125 28216 28219 un
32126 28208 28218 un
32127 28221 28220 un
32128 28218 28221 un
32129 28215 28220 un
32130 28223 28222 un
32131 28224 28223 un
32132 28220 28224 un
32133 28214 28222 un
32134 28226 28225 1
32135 28227 28226 1
32136 28228 28227 1
32137 28213 28225 1
32138 28212 28228 1
32139 28230 28229 1
32140 28231 28230 1
32141 28232 28231 1
32142 28227 28229 1
32143 28226 28232 1
32144 28234 28233 1
32145 28235 28234 1
32146 28236 28235 1
32147 28232 28233 1
32148 28231 28236 1
32149 28238 28237 un
32150 28239 28238 un
32151 28221 28239 un
32152 28219 28237 un
32153 28241 28240 1
32154 28242 28241 1
32155 28243 28242 1
32156 28238 28240 1
32157 28237 28243 1
32158 28245 28244 1
32159 28246 28245 1
32160 28247 28246 1
32161 28242 28244 1
32162 28241 28247 1
32163 28249 28248 un
32164 28239 28249 un
32165 28224 28248 un
32166 28251 28250 un
32167 28252 28251 un
32168 28248 28252 un
32169 28223 28250 un
32170 28254 28253 un
32171 28255 28254 un
32172 28222 28255 un
32173 28250 28253 un
32174 28257 28256 1
32175 28258 28257 un
32176 28251 28256 1
32177 28253 28258 1
32178 28260 28259 1
32179 28261 28260 1
32180 28254 28259 1
32181 28258 28261 un
32182 28263 28262 1
32183 28264 28263 1
32184 28265 28264 1
32185 28260 28262 1
32186 28259 28265 1
32187 28267 28266 1
32188 28268 28267 1
32189 28257 28268 un
32190 28261 28266 un
32191 28262 28269 1
32192 28266 28270 un
32193 28269 28270 un
32194 28196 28271 1
32195 28271 28272 1
32196 28271 28273 1
32197 28228 28274 1
32198 28276 28275 1
32199 28277 28276 un
32200 28278 28277 1
32201 28268 28275 un
32202 28267 28278 un
32203 28280 28279 un
32204 28281 28280 1
32205 28282 28281 un
32206 28278 28279 un
32207 28277 28282 un
32208 28284 28283 un
32209 28285 28284 1
32210 28286 28285 1
32211 28281 28283 un
32212 28280 28286 un
32213 28288 28287 un
32214 28289 28288 un
32215 28279 28289 un
32216 28286 28287 un
32217 28291 28290 un
32218 28292 28291 un
32219 28285 28292 un
32220 28287 28290 un
32221 28294 28293 un
32222 28288 28294 un
32223 28270 28289 un
32224 28269 28293 un
32225 28296 28295 un
32226 28294 28296 un
32227 28290 28295 un
32228 28298 28297 1
32229 28299 28298 1
32230 28300 28299 1
32231 28296 28297 1
32232 28295 28300 1
32233 28300 28301 2
32234 28155 28302 1
32235 28155 28303 1
32236 28156 28304 1
32237 28156 28305 1
32238 28157 28306 1
32239 28158 28307 1
32240 28159 28308 1
32241 28159 28309 1
32242 28161 28310 1
32243 28162 28311 1
32244 28163 28312 1
32245 28163 28313 1
32246 28164 28314 1
32247 28164 28315 1
32248 28166 28316 1
32249 28167 28317 1
32250 28168 28318 1
32251 28168 28319 1
32252 28172 28320 1
32253 28177 28321 1
32254 28177 28322 1
32255 28178 28323 1
32256 28178 28324 1
32257 28179 28325 1
32258 28179 28326 1
32259 28189 28327 1
32260 28189 28328 1
32261 28190 28329 1
32262 28191 28330 1
32263 28191 28331 1
32264 28192 28332 1
32265 28192 28333 1
32266 28195 28334 1
32267 28195 28335 1
32268 28196 28336 1
32269 28197 28337 1
32270 28197 28338 1
32271 28198 28339 1
32272 28198 28340 1
32273 28200 28341 1
32274 28204 28342 1
32275 28211 28343 1
32276 28217 28344 1
32277 28226 28345 1
32278 28227 28346 1
32279 28228 28347 1
32280 28229 28348 1
32281 28229 28349 1
32282 28230 28350 1
32283 28230 28351 1
32284 28231 28352 1
32285 28232 28353 1
32286 28233 28354 1
32287 28233 28355 1
32288 28234 28356 1
32289 28234 28357 1
32290 28235 28358 1
32291 28235 28359 1
32292 28236 28360 1
32293 28241 28361 1
32294 28242 28362 1
32295 28244 28363 1
32296 28244 28364 1
32297 28245 28365 1
32298 28245 28366 1
32299 28246 28367 1
32300 28246 28368 1
32301 28247 28369 1
32302 28247 28370 1
32303 28249 28371 1
32304 28252 28372 1
32305 28255 28373 1
32306 28259 28374 1
32307 28260 28375 1
32308 28262 28376 1
32309 28263 28377 1
32310 28263 28378 1
32311 28264 28379 1
32312 28264 28380 1
32313 28265 28381 1
32314 28265 28382 1
32315 28271 28383 1
32316 28272 28384 1
32317 28272 28385 1
32318 28272 28386 1
32319 28273 28387 1
32320 28273 28388 1
32321 28273 28389 1
32322 28274 28390 1
32323 28275 28391 1
32324 28276 28392 1
32325 28282 28393 1
32326 28283 28394 1
32327 28284 28395 1
32328 28291 28396 1
32329 28292 28397 1
32330 28293 28398 1
32331 28297 28399 1
32332 28297 28400 1
32333 28298 28401 1
32334 28298 28402 1
32335 28299 28403 1
32336 28299 28404 1
32337 28407 28406 1
32338 28408 28407 1
32339 28409 28408 1
32340 28410 28409 1
32341 28405 28406 1
32342 28405 28410 1
32343 28412 28411 1
32344 28413 28412 1
32345 28414 28413 1
32346 28408 28411 1
32347 28407 28414 1
32348 28416 28415 1
32349 28417 28416 1
32350 28418 28417 1
32351 28412 28415 1
32352 28411 28418 1
32353 28420 28419 un
32354 28421 28420 un
32355 28422 28421 un
32356 28417 28419 1
32357 28416 28422 1
32358 28424 28423 1
32359 28425 28424 un
32360 28426 28425 un
32361 28421 28423 un
32362 28420 28426 un
32363 28428 28427 1
32364 28429 28428 1
32365 28419 28429 1
32366 28426 28427 1
32367 28431 28430 1
32368 28432 28431 un
32369 28433 28432 un
32370 28425 28430 1
32371 28424 28433 un
32372 28435 28434 un
32373 28436 28435 2
32374 28422 28434 1
32375 28423 28436 un
32376 28438 28437 2
32377 28439 28438 1
32378 28440 28439 1
32379 28435 28437 1
32380 28434 28440 2
32381 28442 28441 1
32382 28443 28442 1
32383 28444 28443 2
32384 28438 28441 1
32385 28437 28444 1
32386 28446 28445 1
32387 28447 28446 1
32388 28448 28447 1
32389 28444 28445 1
32390 28443 28448 1
32391 28450 28449 un
32392 28436 28450 un
32393 28433 28449 un
32394 28452 28451 un
32395 28453 28452 1
32396 28449 28453 un
32397 28432 28451 un
32398 28455 28454 un
32399 28456 28455 un
32400 28457 28456 un
32401 28452 28454 un
32402 28451 28457 un
32403 28459 28458 un
32404 28460 28459 un
32405 28461 28460 un
32406 28456 28458 un
32407 28455 28461 un
32408 28463 28462 un
32409 28464 28463 un
32410 28465 28464 un
32411 28460 28462 un
32412 28459 28465 un
32413 28467 28466 un
32414 28431 28467 un
32415 28457 28466 un
32416 28469 28468 un
32417 28466 28469 un
32418 28458 28468 un
32419 28471 28470 un
32420 28468 28471 un
32421 28465 28470 un
32422 28473 28472 un
32423 28474 28473 un
32424 28470 28474 un
32425 28464 28472 un
32426 28476 28475 1
32427 28477 28476 1
32428 28478 28477 1
32429 28463 28475 1
32430 28462 28478 1
32431 28480 28479 1
32432 28481 28480 1
32433 28482 28481 1
32434 28477 28479 1
32435 28476 28482 1
32436 28484 28483 1
32437 28485 28484 1
32438 28486 28485 1
32439 28482 28483 1
32440 28481 28486 1
32441 28488 28487 un
32442 28489 28488 un
32443 28471 28489 un
32444 28469 28487 un
32445 28491 28490 1
32446 28492 28491 1
32447 28493 28492 1
32448 28488 28490 1
32449 28487 28493 1
32450 28495 28494 1
32451 28496 28495 1
32452 28497 28496 1
32453 28492 28494 1
32454 28491 28497 1
32455 28499 28498 un
32456 28489 28499 un
32457 28474 28498 un
32458 28501 28500 un
32459 28502 28501 un
32460 28498 28502 un
32461 28473 28500 un
32462 28504 28503 un
32463 28505 28504 un
32464 28472 28505 un
32465 28500 28503 un
32466 28507 28506 1
32467 28508 28507 un
32468 28501 28506 1
32469 28503 28508 1
32470 28510 28509 1
32471 28511 28510 1
32472 28504 28509 1
32473 28508 28511 un
32474 28513 28512 1
32475 28514 28513 1
32476 28515 28514 1
32477 28510 28512 1
32478 28509 28515 1
32479 28517 28516 1
32480 28518 28517 1
32481 28507 28518 un
32482 28511 28516 un
32483 28512 28519 1
32484 28516 28520 un
32485 28519 28520 un
32486 28446 28521 1
32487 28521 28522 1
32488 28521 28523 1
32489 28478 28524 1
32490 28526 28525 1
32491 28527 28526 un
32492 28528 28527 1
32493 28518 28525 un
32494 28517 28528 un
32495 28530 28529 un
32496 28531 28530 1
32497 28532 28531 un
32498 28528 28529 un
32499 28527 28532 un
32500 28534 28533 un
32501 28535 28534 1
32502 28536 28535 1
32503 28531 28533 un
32504 28530 28536 un
32505 28538 28537 un
32506 28539 28538 un
32507 28529 28539 un
32508 28536 28537 un
32509 28541 28540 un
32510 28542 28541 un
32511 28535 28542 un
32512 28537 28540 un
32513 28544 28543 un
32514 28538 28544 un
32515 28520 28539 un
32516 28519 28543 un
32517 28546 28545 un
32518 28544 28546 un
32519 28540 28545 un
32520 28548 28547 1
32521 28549 28548 1
32522 28550 28549 1
32523 28546 28547 1
32524 28545 28550 1
32525 28550 28551 2
32526 28405 28552 1
32527 28405 28553 1
32528 28406 28554 1
32529 28406 28555 1
32530 28407 28556 1
32531 28408 28557 1
32532 28409 28558 1
32533 28409 28559 1
32534 28411 28560 1
32535 28412 28561 1
32536 28413 28562 1
32537 28413 28563 1
32538 28414 28564 1
32539 28414 28565 1
32540 28416 28566 1
32541 28417 28567 1
32542 28418 28568 1
32543 28418 28569 1
32544 28422 28570 1
32545 28427 28571 1
32546 28427 28572 1
32547 28428 28573 1
32548 28428 28574 1
32549 28429 28575 1
32550 28429 28576 1
32551 28439 28577 1
32552 28439 28578 1
32553 28440 28579 1
32554 28441 28580 1
32555 28441 28581 1
32556 28442 28582 1
32557 28442 28583 1
32558 28445 28584 1
32559 28445 28585 1
32560 28446 28586 1
32561 28447 28587 1
32562 28447 28588 1
32563 28448 28589 1
32564 28448 28590 1
32565 28450 28591 1
32566 28454 28592 1
32567 28461 28593 1
32568 28467 28594 1
32569 28476 28595 1
32570 28477 28596 1
32571 28478 28597 1
32572 28479 28598 1
32573 28479 28599 1
32574 28480 28600 1
32575 28480 28601 1
32576 28481 28602 1
32577 28482 28603 1
32578 28483 28604 1
32579 28483 28605 1
32580 28484 28606 1
32581 28484 28607 1
32582 28485 28608 1
32583 28485 28609 1
32584 28486 28610 1
32585 28491 28611 1
32586 28492 28612 1
32587 28494 28613 1
32588 28494 28614 1
32589 28495 28615 1
32590 28495 28616 1
32591 28496 28617 1
32592 28496 28618 1
32593 28497 28619 1
32594 28497 28620 1
32595 28499 28621 1
32596 28502 28622 1
32597 28505 28623 1
32598 28509 28624 1
32599 28510 28625 1
32600 28512 28626 1
32601 28513 28627 1
32602 28513 28628 1
32603 28514 28629 1
32604 28514 28630 1
32605 28515 28631 1
32606 28515 28632 1
32607 28521 28633 1
32608 28522 28634 1
32609 28522 28635 1
32610 28522 28636 1
32611 28523 28637 1
32612 28523 28638 1
32613 28523 28639 1
32614 28524 28640 1
32615 28525 28641 1
32616 28526 28642 1
32617 28532 28643 1
32618 28533 28644 1
32619 28534 28645 1
32620 28541 28646 1
32621 28542 28647 1
32622 28543 28648 1
32623 28547 28649 1
32624 28547 28650 1
32625 28548 28651 1
32626 28548 28652 1
32627 28549 28653 1
32628 28549 28654 1
32629 28657 28656 1
32630 28658 28657 1
32631 28659 28658 1
32632 28660 28659 1
32633 28655 28656 1
32634 28655 28660 1
32635 28662 28661 1
32636 28663 28662 1
32637 28664 28663 1
32638 28658 28661 1
32639 28657 28664 1
32640 28666 28665 1
32641 28667 28666 1
32642 28668 28667 1
32643 28662 28665 1
32644 28661 28668 1
32645 28670 28669 un
32646 28671 28670 un
32647 28672 28671 un
32648 28667 28669 1
32649 28666 28672 1
32650 28674 28673 1
32651 28675 28674 un
32652 28676 28675 un
32653 28671 28673 un
32654 28670 28676 un
32655 28678 28677 1
32656 28679 28678 1
32657 28669 28679 1
32658 28676 28677 1
32659 28681 28680 1
32660 28682 28681 un
32661 28683 28682 un
32662 28675 28680 1
32663 28674 28683 un
32664 28685 28684 un
32665 28686 28685 2
32666 28672 28684 1
32667 28673 28686 un
32668 28688 28687 2
32669 28689 28688 1
32670 28690 28689 1
32671 28685 28687 1
32672 28684 28690 2
32673 28692 28691 1
32674 28693 28692 1
32675 28694 28693 2
32676 28688 28691 1
32677 28687 28694 1
32678 28696 28695 1
32679 28697 28696 1
32680 28698 28697 1
32681 28694 28695 1
32682 28693 28698 1
32683 28700 28699 un
32684 28686 28700 un
32685 28683 28699 un
32686 28702 28701 un
32687 28703 28702 1
32688 28699 28703 un
32689 28682 28701 un
32690 28705 28704 un
32691 28706 28705 un
32692 28707 28706 un
32693 28702 28704 un
32694 28701 28707 un
32695 28709 28708 un
32696 28710 28709 un
32697 28711 28710 un
32698 28706 28708 un
32699 28705 28711 un
32700 28713 28712 un
32701 28714 28713 un
32702 28715 28714 un
32703 28710 28712 un
32704 28709 28715 un
32705 28717 28716 un
32706 28681 28717 un
32707 28707 28716 un
32708 28719 28718 un
32709 28716 28719 un
32710 28708 28718 un
32711 28721 28720 un
32712 28718 28721 un
32713 28715 28720 un
32714 28723 28722 un
32715 28724 28723 un
32716 28720 28724 un
32717 28714 28722 un
32718 28726 28725 1
32719 28727 28726 1
32720 28728 28727 1
32721 28713 28725 1
32722 28712 28728 1
32723 28730 28729 1
32724 28731 28730 1
32725 28732 28731 1
32726 28727 28729 1
32727 28726 28732 1
32728 28734 28733 1
32729 28735 28734 1
32730 28736 28735 1
32731 28732 28733 1
32732 28731 28736 1
32733 28738 28737 un
32734 28739 28738 un
32735 28721 28739 un
32736 28719 28737 un
32737 28741 28740 1
32738 28742 28741 1
32739 28743 28742 1
32740 28738 28740 1
32741 28737 28743 1
32742 28745 28744 1
32743 28746 28745 1
32744 28747 28746 1
32745 28742 28744 1
32746 28741 28747 1
32747 28749 28748 un
32748 28739 28749 un
32749 28724 28748 un
32750 28751 28750 un
32751 28752 28751 un
32752 28748 28752 un
32753 28723 28750 un
32754 28754 28753 un
32755 28755 28754 un
32756 28722 28755 un
32757 28750 28753 un
32758 28757 28756 1
32759 28758 28757 un
32760 28751 28756 1
32761 28753 28758 1
32762 28760 28759 1
32763 28761 28760 1
32764 28754 28759 1
32765 28758 28761 un
32766 28763 28762 1
32767 28764 28763 1
32768 28765 28764 1
32769 28760 28762 1
32770 28759 28765 1
32771 28767 28766 1
32772 28768 28767 1
32773 28757 28768 un
32774 28761 28766 un
32775 28762 28769 1
32776 28766 28770 un
32777 28769 28770 un
32778 28696 28771 1
32779 28771 28772 1
32780 28771 28773 1
32781 28728 28774 1
32782 28776 28775 1
32783 28777 28776 un
32784 28778 28777 1
32785 28768 28775 un
32786 28767 28778 un
32787 28780 28779 un
32788 28781 28780 1
32789 28782 28781 un
32790 28778 28779 un
32791 28777 28782 un
32792 28784 28783 un
32793 28785 28784 1
32794 28786 28785 1
32795 28781 28783 un
32796 28780 28786 un
32797 28788 28787 un
32798 28789 28788 un
32799 28779 28789 un
32800 28786 28787 un
32801 28791 28790 un
32802 28792 28791 un
32803 28785 28792 un
32804 28787 28790 un
32805 28794 28793 un
32806 28788 28794 un
32807 28770 28789 un
32808 28769 28793 un
32809 28796 28795 un
32810 28794 28796 un
32811 28790 28795 un
32812 28798 28797 1
32813 28799 28798 1
32814 28800 28799 1
32815 28796 28797 1
32816 28795 28800 1
32817 28800 28801 2
32818 28655 28802 1
32819 28655 28803 1
32820 28656 28804 1
32821 28656 28805 1
32822 28657 28806 1
32823 28658 28807 1
32824 28659 28808 1
32825 28659 28809 1
32826 28661 28810 1
32827 28662 28811 1
32828 28663 28812 1
32829 28663 28813 1
32830 28664 28814 1
32831 28664 28815 1
32832 28666 28816 1
32833 28667 28817 1
32834 28668 28818 1
32835 28668 28819 1
32836 28672 28820 1
32837 28677 28821 1
32838 28677 28822 1
32839 28678 28823 1
32840 28678 28824 1
32841 28679 28825 1
32842 28679 28826 1
32843 28689 28827 1
32844 28689 28828 1
32845 28690 28829 1
32846 28691 28830 1
32847 28691 28831 1
32848 28692 28832 1
32849 28692 28833 1
32850 28695 28834 1
32851 28695 28835 1
32852 28696 28836 1
32853 28697 28837 1
32854 28697 28838 1
32855 28698 28839 1
32856 28698 28840 1
32857 28700 28841 1
32858 28704 28842 1
32859 28711 28843 1
32860 28717 28844 1
32861 28726 28845 1
32862 28727 28846 1
32863 28728 28847 1
32864 28729 28848 1
32865 28729 28849 1
32866 28730 28850 1
32867 28730 28851 1
32868 28731 28852 1
32869 28732 28853 1
32870 28733 28854 1
32871 28733 28855 1
32872 28734 28856 1
32873 28734 28857 1
32874 28735 28858 1
32875 28735 28859 1
32876 28736 28860 1
32877 28741 28861 1
32878 28742 28862 1
32879 28744 28863 1
32880 28744 28864 1
32881 28745 28865 1
32882 28745 28866 1
32883 28746 28867 1
32884 28746 28868 1
32885 28747 28869 1
32886 28747 28870 1
32887 28749 28871 1
32888 28752 28872 1
32889 28755 28873 1
32890 28759 28874 1
32891 28760 28875 1
32892 28762 28876 1
32893 28763 28877 1
32894 28763 28878 1
32895 28764 28879 1
32896 28764 28880 1
32897 28765 28881 1
32898 28765 28882 1
32899 28771 28883 1
32900 28772 28884 1
32901 28772 28885 1
32902 28772 28886 1
32903 28773 28887 1
32904 28773 28888 1
32905 28773 28889 1
32906 28774 28890 1
32907 28775 28891 1
32908 28776 28892 1
32909 28782 28893 1
32910 28783 28894 1
32911 28784 28895 1
32912 28791 28896 1
32913 28792 28897 1
32914 28793 28898 1
32915 28797 28899 1
32916 28797 28900 1
32917 28798 28901 1
32918 28798 28902 1
32919 28799 28903 1
32920 28799 28904 1
32921 28907 28906 1
32922 28908 28907 1
32923 28909 28908 1
32924 28910 28909 1
32925 28905 28906 1
32926 28905 28910 1
32927 28912 28911 1
32928 28913 28912 1
32929 28914 28913 1
32930 28908 28911 1
32931 28907 28914 1
32932 28916 28915 1
32933 28917 28916 1
32934 28918 28917 1
32935 28912 28915 1
32936 28911 28918 1
32937 28920 28919 un
32938 28921 28920 un
32939 28922 28921 un
32940 28917 28919 1
32941 28916 28922 1
32942 28924 28923 1
32943 28925 28924 un
32944 28926 28925 un
32945 28921 28923 un
32946 28920 28926 un
32947 28928 28927 1
32948 28929 28928 1
32949 28919 28929 1
32950 28926 28927 1
32951 28931 28930 1
32952 28932 28931 un
32953 28933 28932 un
32954 28925 28930 1
32955 28924 28933 un
32956 28935 28934 un
32957 28936 28935 2
32958 28922 28934 1
32959 28923 28936 un
32960 28938 28937 2
32961 28939 28938 1
32962 28940 28939 1
32963 28935 28937 1
32964 28934 28940 2
32965 28942 28941 1
32966 28943 28942 1
32967 28944 28943 2
32968 28938 28941 1
32969 28937 28944 1
32970 28946 28945 1
32971 28947 28946 1
32972 28948 28947 1
32973 28944 28945 1
32974 28943 28948 1
32975 28950 28949 un
32976 28936 28950 un
32977 28933 28949 un
32978 28952 28951 un
32979 28953 28952 1
32980 28949 28953 un
32981 28932 28951 un
32982 28955 28954 un
32983 28956 28955 un
32984 28957 28956 un
32985 28952 28954 un
32986 28951 28957 un
32987 28959 28958 un
32988 28960 28959 un
32989 28961 28960 un
32990 28956 28958 un
32991 28955 28961 un
32992 28963 28962 un
32993 28964 28963 un
32994 28965 28964 un
32995 28960 28962 un
32996 28959 28965 un
32997 28967 28966 un
32998 28931 28967 un
32999 28957 28966 un
33000 28969 28968 un
33001 28966 28969 un
33002 28958 28968 un
33003 28971 28970 un
33004 28968 28971 un
33005 28965 28970 un
33006 28973 28972 un
33007 28974 28973 un
33008 28970 28974 un
33009 28964 28972 un
33010 28976 28975 1
33011 28977 28976 1
33012 28978 28977 1
33013 28963 28975 1
33014 28962 28978 1
33015 28980 28979 1
33016 28981 28980 1
33017 28982 28981 1
33018 28977 28979 1
33019 28976 28982 1
33020 28984 28983 1
33021 28985 28984 1
33022 28986 28985 1
33023 28982 28983 1
33024 28981 28986 1
33025 28988 28987 un
33026 28989 28988 un
33027 28971 28989 un
33028 28969 28987 un
33029 28991 28990 1
33030 28992 28991 1
33031 28993 28992 1
33032 28988 28990 1
33033 28987 28993 1
33034 28995 28994 1
33035 28996 28995 1
33036 28997 28996 1
33037 28992 28994 1
33038 28991 28997 1
33039 28999 28998 un
33040 28989 28999 un
33041 28974 28998 un
33042 29001 29000 un
33043 29002 29001 un
33044 28998 29002 un
33045 28973 29000 un
33046 29004 29003 un
33047 29005 29004 un
33048 28972 29005 un
33049 29000 29003 un
33050 29007 29006 1
33051 29008 29007 un
33052 29001 29006 1
33053 29003 29008 1
33054 29010 29009 1
33055 29011 29010 1
33056 29004 29009 1
33057 29008 29011 un
33058 29013 29012 1
33059 29014 29013 1
33060 29015 29014 1
33061 29010 29012 1
33062 29009 29015 1
33063 29017 29016 1
33064 29018 29017 1
33065 29007 29018 un
33066 29011 29016 un
33067 29012 29019 1
33068 29016 29020 un
33069 29019 29020 un
33070 28946 29021 1
33071 29021 29022 1
33072 29021 29023 1
33073 28978 29024 1
33074 29026 29025 1
33075 29027 29026 un
33076 29028 29027 1
33077 29018 29025 un
33078 29017 29028 un
33079 29030 29029 un
33080 29031 29030 1
33081 29032 29031 un
33082 29028 29029 un
33083 29027 29032 un
33084 29034 29033 un
33085 29035 29034 1
33086 29036 29035 1
33087 29031 29033 un
33088 29030 29036 un
33089 29038 29037 un
33090 29039 29038 un
33091 29029 29039 un
33092 29036 29037 un
33093 29041 29040 un
33094 29042 29041 un
33095 29035 29042 un
33096 29037 29040 un
33097 29044 29043 un
33098 29038 29044 un
33099 29020 29039 un
33100 29019 29043 un
33101 29046 29045 un
33102 29044 29046 un
33103 29040 29045 un
33104 29048 29047 1
33105 29049 29048 1
33106 29050 29049 1
33107 29046 29047 1
33108 29045 29050 1
33109 29050 29051 2
33110 28905 29052 1
33111 28905 29053 1
33112 28906 29054 1
33113 28906 29055 1
33114 28907 29056 1
33115 28908 29057 1
33116 28909 29058 1
33117 28909 29059 1
33118 28911 29060 1
33119 28912 29061 1
33120 28913 29062 1
33121 28913 29063 1
33122 28914 29064 1
33123 28914 29065 1
33124 28916 29066 1
33125 28917 29067 1
33126 28918 29068 1
33127 28918 29069 1
33128 28922 29070 1
33129 28927 29071 1
33130 28927 29072 1
33131 28928 29073 1
33132 28928 29074 1
33133 28929 29075 1
33134 28929 29076 1
33135 28939 29077 1
33136 28939 29078 1
33137 28940 29079 1
33138 28941 29080 1
33139 28941 29081 1
33140 28942 29082 1
33141 28942 29083 1
33142 28945 29084 1
33143 28945 29085 1
33144 28946 29086 1
33145 28947 29087 1
33146 28947 29088 1
33147 28948 29089 1
33148 28948 29090 1
33149 28950 29091 1
33150 28954 29092 1
33151 28961 29093 1
33152 28967 29094 1
33153 28976 29095 1
33154 28977 29096 1
33155 28978 29097 1
33156 28979 29098 1
33157 28979 29099 1
33158 28980 29100 1
33159 28980 29101 1
33160 28981 29102 1
33161 28982 29103 1
33162 28983 29104 1
33163 28983 29105 1
33164 28984 29106 1
33165 28984 29107 1
33166 28985 29108 1
33167 28985 29109 1
33168 28986 29110 1
33169 28991 29111 1
33170 28992 29112 1
33171 28994 29113 1
33172 28994 29114 1
33173 28995 29115 1
33174 28995 29116 1
33175 28996 29117 1
33176 28996 29118 1
33177 28997 29119 1
33178 28997 29120 1
33179 28999 29121 1
33180 29002 29122 1
33181 29005 29123 1
33182 29009 29124 1
33183 29010 29125 1
33184 29012 29126 1
33185 29013 29127 1
33186 29013 29128 1
33187 29014 29129 1
33188 29014 29130 1
33189 29015 29131 1
33190 29015 29132 1
33191 29021 29133 1
33192 29022 29134 1
33193 29022 29135 1
33194 29022 29136 1
33195 29023 29137 1
33196 29023 29138 1
33197 29023 29139 1
33198 29024 29140 1
33199 29025 29141 1
33200 29026 29142 1
33201 29032 29143 1
33202 29033 29144 1
33203 29034 29145 1
33204 29041 29146 1
33205 29042 29147 1
33206 29043 29148 1
33207 29047 29149 1
33208 29047 29150 1
33209 29048 29151 1
33210 29048 29152 1
33211 29049 29153 1
33212 29049 29154 1
33213 29157 29156 1
33214 29158 29157 1
33215 29159 29158 1
33216 29160 29159 1
33217 29155 29156 1
33218 29155 29160 1
33219 29162 29161 1
33220 29163 29162 1
33221 29164 29163 1
33222 29158 29161 1
33223 29157 29164 1
33224 29166 29165 1
33225 29167 29166 1
33226 29168 29167 1
33227 29162 29165 1
33228 29161 29168 1
33229 29170 29169 un
33230 29171 29170 un
33231 29172 29171 un
33232 29167 29169 1
33233 29166 29172 1
33234 29174 29173 1
33235 29175 29174 un
33236 29176 29175 un
33237 29171 29173 un
33238 29170 29176 un
33239 29178 29177 1
33240 29179 29178 1
33241 29169 29179 1
33242 29176 29177 1
33243 29181 29180 1
33244 29182 29181 un
33245 29183 29182 un
33246 29175 29180 1
33247 29174 29183 un
33248 29185 29184 un
33249 29186 29185 2
33250 29172 29184 1
33251 29173 29186 un
33252 29188 29187 2
33253 29189 29188 1
33254 29190 29189 1
33255 29185 29187 1
33256 29184 29190 2
33257 29192 29191 1
33258 29193 29192 1
33259 29194 29193 2
33260 29188 29191 1
33261 29187 29194 1
33262 29196 29195 1
33263 29197 29196 1
33264 29198 29197 1
33265 29194 29195 1
33266 29193 29198 1
33267 29200 29199 un
33268 29186 29200 un
33269 29183 29199 un
33270 29202 29201 un
33271 29203 29202 1
33272 29199 29203 un
33273 29182 29201 un
33274 29205 29204 un
33275 29206 29205 un
33276 29207 29206 un
33277 29202 29204 un
33278 29201 29207 un
33279 29209 29208 un
33280 29210 29209 un
33281 29211 29210 un
33282 29206 29208 un
33283 29205 29211 un
33284 29213 29212 un
33285 29214 29213 un
33286 29215 29214 un
33287 29210 29212 un
33288 29209 29215 un
33289 29217 29216 un
33290 29181 29217 un
33291 29207 29216 un
33292 29219 29218 un
33293 29216 29219 un
33294 29208 29218 un
33295 29221 29220 un
33296 29218 29221 un
33297 29215 29220 un
33298 29223 29222 un
33299 29224 29223 un
33300 29220 29224 un
33301 29214 29222 un
33302 29226 29225 1
33303 29227 29226 1
33304 29228 29227 1
33305 29213 29225 1
33306 29212 29228 1
33307 29230 29229 1
33308 29231 29230 1
33309 29232 29231 1
33310 29227 29229 1
33311 29226 29232 1
33312 29234 29233 1
33313 29235 29234 1
33314 29236 29235 1
33315 29232 29233 1
33316 29231 29236 1
33317 29238 29237 un
33318 29239 29238 un
33319 29221 29239 un
33320 29219 29237 un
33321 29241 29240 1
33322 29242 29241 1
33323 29243 29242 1
33324 29238 29240 1
33325 29237 29243 1
33326 29245 29244 1
33327 29246 29245 1
33328 29247 29246 1
33329 29242 29244 1
33330 29241 29247 1
33331 29249 29248 un
33332 29239 29249 un
33333 29224 29248 un
33334 29251 29250 un
33335 29252 29251 un
33336 29248 29252 un
33337 29223 29250 un
33338 29254 29253 un
33339 29255 29254 un
33340 29222 29255 un
33341 29250 29253 un
33342 29257 29256 1
33343 29258 29257 un
33344 29251 29256 1
33345 29253 29258 1
33346 29260 29259 1
33347 29261 29260 1
33348 29254 29259 1
33349 29258 29261 un
33350 29263 29262 1
33351 29264 29263 1
33352 29265 29264 1
33353 29260 29262 1
33354 29259 29265 1
33355 29267 29266 1
33356 29268 29267 1
33357 29257 29268 un
33358 29261 29266 un
33359 29262 29269 1
33360 29266 29270 un
33361 29269 29270 un
33362 29196 29271 1
33363 29271 29272 1
33364 29271 29273 1
33365 29228 29274 1
33366 29276 29275 1
33367 29277 29276 un
33368 29278 29277 1
33369 29268 29275 un
33370 29267 29278 un
33371 29280 29279 un
33372 29281 29280 1
33373 29282 29281 un
33374 29278 29279 un
33375 29277 29282 un
33376 29284 29283 un
33377 29285 29284 1
33378 29286 29285 1
33379 29281 29283 un
33380 29280 29286 un
33381 29288 29287 un
33382 29289 29288 un
33383 29279 29289 un
33384 29286 29287 un
33385 29291 29290 un
33386 29292 29291 un
33387 29285 29292 un
33388 29287 29290 un
33389 29294 29293 un
33390 29288 29294 un
33391 29270 29289 un
33392 29269 29293 un
33393 29296 29295 un
33394 29294 29296 un
33395 29290 29295 un
33396 29298 29297 1
33397 29299 29298 1
33398 29300 29299 1
33399 29296 29297 1
33400 29295 29300 1
33401 29300 29301 2
33402 29155 29302 1
33403 29155 29303 1
33404 29156 29304 1
33405 29156 29305 1
33406 29157 29306 1
33407 29158 29307 1
33408 29159 29308 1
33409 29159 29309 1
33410 29161 29310 1
33411 29162 29311 1
33412 29163 29312 1
33413 29163 29313 1
33414 29164 29314 1
33415 29164 29315 1
33416 29166 29316 1
33417 29167 29317 1
33418 29168 29318 1
33419 29168 29319 1
33420 29172 29320 1
33421 29177 29321 1
33422 29177 29322 1
33423 29178 29323 1
33424 29178 29324 1
33425 29179 29325 1
33426 29179 29326 1
33427 29189 29327 1
33428 29189 29328 1
33429 29190 29329 1
33430 29191 29330 1
33431 29191 29331 1
33432 29192 29332 1
33433 29192 29333 1
33434 29195 29334 1
33435 29195 29335 1
33436 29196 29336 1
33437 29197 29337 1
33438 29197 29338 1
33439 29198 29339 1
33440 29198 29340 1
33441 29200 29341 1
33442 29204 29342 1
33443 29211 29343 1
33444 29217 29344 1
33445 29226 29345 1
33446 29227 29346 1
33447 29228 29347 1
33448 29229 29348 1
33449 29229 29349 1
33450 29230 29350 1
33451 29230 29351 1
33452 29231 29352 1
33453 29232 29353 1
33454 29233 29354 1
33455 29233 29355 1
33456 29234 29356 1
33457 29234 29357 1
33458 29235 29358 1
33459 29235 29359 1
33460 29236 29360 1
33461 29241 29361 1
33462 29242 29362 1
33463 29244 29363 1
33464 29244 29364 1
33465 29245 29365 1
33466 29245 29366 1
33467 29246 29367 1
33468 29246 29368 1
33469 29247 29369 1
33470 29247 29370 1
33471 29249 29371 1
33472 29252 29372 1
33473 29255 29373 1
33474 29259 29374 1
33475 29260 29375 1
33476 29262 29376 1
33477 29263 29377 1
33478 29263 29378 1
33479 29264 29379 1
33480 29264 29380 1
33481 29265 29381 1
33482 29265 29382 1
33483 29271 29383 1
33484 29272 29384 1
33485 29272 29385 1
33486 29272 29386 1
33487 29273 29387 1
33488 29273 29388 1
33489 29273 29389 1
33490 29274 29390 1
33491 29275 29391 1
33492 29276 29392 1
33493 29282 29393 1
33494 29283 29394 1
33495 29284 29395 1
33496 29291 29396 1
33497 29292 29397 1
33498 29293 29398 1
33499 29297 29399 1
33500 29297 29400 1
33501 29298 29401 1
33502 29298 29402 1
33503 29299 29403 1
33504 29299 29404 1
33505 29407 29406 1
33506 29408 29407 1
33507 29409 29408 1
33508 29410 29409 1
33509 29405 29406 1
33510 29405 29410 1
33511 29412 29411 1
33512 29413 29412 1
33513 29414 29413 1
33514 29408 29411 1
33515 29407 29414 1
33516 29416 29415 1
33517 29417 29416 1
33518 29418 29417 1
33519 29412 29415 1
33520 29411 29418 1
33521 29420 29419 un
33522 29421 29420 un
33523 29422 29421 un
33524 29417 29419 1
33525 29416 29422 1
33526 29424 29423 1
33527 29425 29424 un
33528 29426 29425 un
33529 29421 29423 un
33530 29420 29426 un
33531 29428 29427 1
33532 29429 29428 1
33533 29419 29429 1
33534 29426 29427 1
33535 29431 29430 1
33536 29432 29431 un
33537 29433 29432 un
33538 29425 29430 1
33539 29424 29433 un
33540 29435 29434 un
33541 29436 29435 2
33542 29422 29434 1
33543 29423 29436 un
33544 29438 29437 2
33545 29439 29438 1
33546 29440 29439 1
33547 29435 29437 1
33548 29434 29440 2
33549 29442 29441 1
33550 29443 29442 1
33551 29444 29443 2
33552 29438 29441 1
33553 29437 29444 1
33554 29446 29445 1
33555 29447 29446 1
33556 29448 29447 1
33557 29444 29445 1
33558 29443 29448 1
33559 29450 29449 un
33560 29436 29450 un
33561 29433 29449 un
33562 29452 29451 un
33563 29453 29452 1
33564 29449 29453 un
33565 29432 29451 un
33566 29455 29454 un
33567 29456 29455 un
33568 29457 29456 un
33569 29452 29454 un
33570 29451 29457 un
33571 29459 29458 un
33572 29460 29459 un
33573 29461 29460 un
33574 29456 29458 un
33575 29455 29461 un
33576 29463 29462 un
33577 29464 29463 un
33578 29465 29464 un
33579 29460 29462 un
33580 29459 29465 un
33581 29467 29466 un
33582 29431 29467 un
33583 29457 29466 un
33584 29469 29468 un
33585 29466 29469 un
33586 29458 29468 un
33587 29471 29470 un
33588 29468 29471 un
33589 29465 29470 un
33590 29473 29472 un
33591 29474 29473 un
33592 29470 29474 un
33593 29464 29472 un
33594 29476 29475 1
33595 29477 29476 1
33596 29478 29477 1
33597 29463 29475 1
33598 29462 29478 1
33599 29480 29479 1
33600 29481 29480 1
33601 29482 29481 1
33602 29477 29479 1
33603 29476 29482 1
33604 29484 29483 1
33605 29485 29484 1
33606 29486 29485 1
33607 29482 29483 1
33608 29481 29486 1
33609 29488 29487 un
33610 29489 29488 un
33611 29471 29489 un
33612 29469 29487 un
33613 29491 29490 1
33614 29492 29491 1
33615 29493 29492 1
33616 29488 29490 1
33617 29487 29493 1
33618 29495 29494 1
33619 29496 29495 1
33620 29497 29496 1
33621 29492 29494 1
33622 29491 29497 1
33623 29499 29498 un
33624 29489 29499 un
33625 29474 29498 un
33626 29501 29500 un
33627 29502 29501 un
33628 29498 29502 un
33629 29473 29500 un
33630 29504 29503 un
33631 29505 29504 un
33632 29472 29505 un
33633 29500 29503 un
33634 29507 29506 1
33635 29508 29507 un
33636 29501 29506 1
33637 29503 29508 1
33638 29510 29509 1
33639 29511 29510 1
33640 29504 29509 1
33641 29508 29511 un
33642 29513 29512 1
33643 29514 29513 1
33644 29515 29514 1
33645 29510 29512 1
33646 29509 29515 1
33647 29517 29516 1
33648 29518 29517 1
33649 29507 29518 un
33650 29511 29516 un
33651 29512 29519 1
33652 29516 29520 un
33653 29519 29520 un
33654 29446 29521 1
33655 29521 29522 1
33656 29521 29523 1
33657 29478 29524 1
33658 29526 29525 1
33659 29527 29526 un
33660 29528 29527 1
33661 29518 29525 un
33662 29517 29528 un
33663 29530 29529 un
33664 29531 29530 1
33665 29532 29531 un
33666 29528 29529 un
33667 29527 29532 un
33668 29534 29533 un
33669 29535 29534 1
33670 29536 29535 1
33671 29531 29533 un
33672 29530 29536 un
33673 29538 29537 un
33674 29539 29538 un
33675 29529 29539 un
33676 29536 29537 un
33677 29541 29540 un
33678 29542 29541 un
33679 29535 29542 un
33680 29537 29540 un
33681 29544 29543 un
33682 29538 29544 un
33683 29520 29539 un
33684 29519 29543 un
33685 29546 29545 un
33686 29544 29546 un
33687 29540 29545 un
33688 29548 29547 1
33689 29549 29548 1
33690 29550 29549 1
33691 29546 29547 1
33692 29545 29550 1
33693 29550 29551 2
33694 29405 29552 1
33695 29405 29553 1
33696 29406 29554 1
33697 29406 29555 1
33698 29407 29556 1
33699 29408 29557 1
33700 29409 29558 1
33701 29409 29559 1
33702 29411 29560 1
33703 29412 29561 1
33704 29413 29562 1
33705 29413 29563 1
33706 29414 29564 1
33707 29414 29565 1
33708 29416 29566 1
33709 29417 29567 1
33710 29418 29568 1
33711 29418 29569 1
33712 29422 29570 1
33713 29427 29571 1
33714 29427 29572 1
33715 29428 29573 1
33716 29428 29574 1
33717 29429 29575 1
33718 29429 29576 1
33719 29439 29577 1
33720 29439 29578 1
33721 29440 29579 1
33722 29441 29580 1
33723 29441 29581 1
33724 29442 29582 1
33725 29442 29583 1
33726 29445 29584 1
33727 29445 29585 1
33728 29446 29586 1
33729 29447 29587 1
33730 29447 29588 1
33731 29448 29589 1
33732 29448 29590 1
33733 29450 29591 1
33734 29454 29592 1
33735 29461 29593 1
33736 29467 29594 1
33737 29476 29595 1
33738 29477 29596 1
33739 29478 29597 1
33740 29479 29598 1
33741 29479 29599 1
33742 29480 29600 1
33743 29480 29601 1
33744 29481 29602 1
33745 29482 29603 1
33746 29483 29604 1
33747 29483 29605 1
33748 29484 29606 1
33749 29484 29607 1
33750 29485 29608 1
33751 29485 29609 1
33752 29486 29610 1
33753 29491 29611 1
33754 29492 29612 1
33755 29494 29613 1
33756 29494 29614 1
33757 29495 29615 1
33758 29495 29616 1
33759 29496 29617 1
33760 29496 29618 1
33761 29497 29619 1
33762 29497 29620 1
33763 29499 29621 1
33764 29502 29622 1
33765 29505 29623 1
33766 29509 29624 1
33767 29510 29625 1
33768 29512 29626 1
33769 29513 29627 1
33770 29513 29628 1
33771 29514 29629 1
33772 29514 29630 1
33773 29515 29631 1
33774 29515 29632 1
33775 29521 29633 1
33776 29522 29634 1
33777 29522 29635 1
33778 29522 29636 1
33779 29523 29637 1
33780 29523 29638 1
33781 29523 29639 1
33782 29524 29640 1
33783 29525 29641 1
33784 29526 29642 1
33785 29532 29643 1
33786 29533 29644 1
33787 29534 29645 1
33788 29541 29646 1
33789 29542 29647 1
33790 29543 29648 1
33791 29547 29649 1
33792 29547 29650 1
33793 29548 29651 1
33794 29548 29652 1
33795 29549 29653 1
33796 29549 29654 1
33797 29657 29656 1
33798 29658 29657 1
33799 29659 29658 1
33800 29660 29659 1
33801 29655 29656 1
33802 29655 29660 1
33803 29662 29661 1
33804 29663 29662 1
33805 29664 29663 1
33806 29658 29661 1
33807 29657 29664 1
33808 29666 29665 1
33809 29667 29666 1
33810 29668 29667 1
33811 29662 29665 1
33812 29661 29668 1
33813 29670 29669 un
33814 29671 29670 un
33815 29672 29671 un
33816 29667 29669 1
33817 29666 29672 1
33818 29674 29673 1
33819 29675 29674 un
33820 29676 29675 un
33821 29671 29673 un
33822 29670 29676 un
33823 29678 29677 1
33824 29679 29678 1
33825 29669 29679 1
33826 29676 29677 1
33827 29681 29680 1
33828 29682 29681 un
33829 29683 29682 un
33830 29675 29680 1
33831 29674 29683 un
33832 29685 29684 un
33833 29686 29685 2
33834 29672 29684 1
33835 29673 29686 un
33836 29688 29687 2
33837 29689 29688 1
33838 29690 29689 1
33839 29685 29687 1
33840 29684 29690 2
33841 29692 29691 1
33842 29693 29692 1
33843 29694 29693 2
33844 29688 29691 1
33845 29687 29694 1
33846 29696 29695 1
33847 29697 29696 1
33848 29698 29697 1
33849 29694 29695 1
33850 29693 29698 1
33851 29700 29699 un
33852 29686 29700 un
33853 29683 29699 un
33854 29702 29701 un
33855 29703 29702 1
33856 29699 29703 un
33857 29682 29701 un
33858 29705 29704 un
33859 29706 29705 un
33860 29707 29706 un
33861 29702 29704 un
33862 29701 29707 un
33863 29709 29708 un
33864 29710 29709 un
33865 29711 29710 un
33866 29706 29708 un
33867 29705 29711 un
33868 29713 29712 un
33869 29714 29713 un
33870 29715 29714 un
33871 29710 29712 un
33872 29709 29715 un
33873 29717 29716 un
33874 29681 29717 un
33875 29707 29716 un
33876 29719 29718 un
33877 29716 29719 un
33878 29708 29718 un
33879 29721 29720 un
33880 29718 29721 un
33881 29715 29720 un
33882 29723 29722 un
33883 29724 29723 un
33884 29720 29724 un
33885 29714 29722 un
33886 29726 29725 1
33887 29727 29726 1
33888 29728 29727 1
33889 29713 29725 1
33890 29712 29728 1
33891 29730 29729 1
33892 29731 29730 1
33893 29732 29731 1
33894 29727 29729 1
33895 29726 29732 1
33896 29734 29733 1
33897 29735 29734 1
33898 29736 29735 1
33899 29732 29733 1
33900 29731 29736 1
33901 29738 29737 un
33902 29739 29738 un
33903 29721 29739 un
33904 29719 29737 un
33905 29741 29740 1
33906 29742 29741 1
33907 29743 29742 1
33908 29738 29740 1
33909 29737 29743 1
33910 29745 29744 1
33911 29746 29745 1
33912 29747 29746 1
33913 29742 29744 1
33914 29741 29747 1
33915 29749 29748 un
33916 29739 29749 un
33917 29724 29748 un
33918 29751 29750 un
33919 29752 29751 un
33920 29748 29752 un
33921 29723 29750 un
33922 29754 29753 un
33923 29755 29754 un
33924 29722 29755 un
33925 29750 29753 un
33926 29757 29756 1
33927 29758 29757 un
33928 29751 29756 1
33929 29753 29758 1
33930 29760 29759 1
33931 29761 29760 1
33932 29754 29759 1
33933 29758 29761 un
33934 29763 29762 1
33935 29764 29763 1
33936 29765 29764 1
33937 29760 29762 1
33938 29759 29765 1
33939 29767 29766 1
33940 29768 29767 1
33941 29757 29768 un
33942 29761 29766 un
33943 29762 29769 1
33944 29766 29770 un
33945 29769 29770 un
33946 29696 29771 1
33947 29771 29772 1
33948 29771 29773 1
33949 29728 29774 1
33950 29776 29775 1
33951 29777 29776 un
33952 29778 29777 1
33953 29768 29775 un
33954 29767 29778 un
33955 29780 29779 un
33956 29781 29780 1
33957 29782 29781 un
33958 29778 29779 un
33959 29777 29782 un
33960 29784 29783 un
33961 29785 29784 1
33962 29786 29785 1
33963 29781 29783 un
33964 29780 29786 un
33965 29788 29787 un
33966 29789 29788 un
33967 29779 29789 un
33968 29786 29787 un
33969 29791 29790 un
33970 29792 29791 un
33971 29785 29792 un
33972 29787 29790 un
33973 29794 29793 un
33974 29788 29794 un
33975 29770 29789 un
33976 29769 29793 un
33977 29796 29795 un
33978 29794 29796 un
33979 29790 29795 un
33980 29798 29797 1
33981 29799 29798 1
33982 29800 29799 1
33983 29796 29797 1
33984 29795 29800 1
33985 29800 29801 2
33986 29655 29802 1
33987 29655 29803 1
33988 29656 29804 1
33989 29656 29805 1
33990 29657 29806 1
33991 29658 29807 1
33992 29659 29808 1
33993 29659 29809 1
33994 29661 29810 1
33995 29662 29811 1
33996 29663 29812 1
33997 29663 29813 1
33998 29664 29814 1
33999 29664 29815 1
34000 29666 29816 1
34001 29667 29817 1
34002 29668 29818 1
34003 29668 29819 1
34004 29672 29820 1
34005 29677 29821 1
34006 29677 29822 1
34007 29678 29823 1
34008 29678 29824 1
34009 29679 29825 1
34010 29679 29826 1
34011 29689 29827 1
34012 29689 29828 1
34013 29690 29829 1
34014 29691 29830 1
34015 29691 29831 1
34016 29692 29832 1
34017 29692 29833 1
34018 29695 29834 1
34019 29695 29835 1
34020 29696 29836 1
34021 29697 29837 1
34022 29697 29838 1
34023 29698 29839 1
34024 29698 29840 1
34025 29700 29841 1
34026 29704 29842 1
34027 29711 29843 1
34028 29717 29844 1
34029 29726 29845 1
34030 29727 29846 1
34031 29728 29847 1
34032 29729 29848 1
34033 29729 29849 1
34034 29730 29850 1
34035 29730 29851 1
34036 29731 29852 1
34037 29732 29853 1
34038 29733 29854 1
34039 29733 29855 1
34040 29734 29856 1
34041 29734 29857 1
34042 29735 29858 1
34043 29735 29859 1
34044 29736 29860 1
34045 29741 29861 1
34046 29742 29862 1
34047 29744 29863 1
34048 29744 29864 1
34049 29745 29865 1
34050 29745 29866 1
34051 29746 29867 1
34052 29746 29868 1
34053 29747 29869 1
34054 29747 29870 1
34055 29749 29871 1
34056 29752 29872 1
34057 29755 29873 1
34058 29759 29874 1
34059 29760 29875 1
34060 29762 29876 1
34061 29763 29877 1
34062 29763 29878 1
34063 29764 29879 1
34064 29764 29880 1
34065 29765 29881 1
34066 29765 29882 1
34067 29771 29883 1
34068 29772 29884 1
34069 29772 29885 1
34070 29772 29886 1
34071 29773 29887 1
34072 29773 29888 1
34073 29773 29889 1
34074 29774 29890 1
34075 29775 29891 1
34076 29776 29892 1
34077 29782 29893 1
34078 29783 29894 1
34079 29784 29895 1
34080 29791 29896 1
34081 29792 29897 1
34082 29793 29898 1
34083 29797 29899 1
34084 29797 29900 1
34085 29798 29901 1
34086 29798 29902 1
34087 29799 29903 1
34088 29799 29904 1
34089 29907 29906 1
34090 29908 29907 1
34091 29909 29908 1
34092 29910 29909 1
34093 29905 29906 1
34094 29905 29910 1
34095 29912 29911 1
34096 29913 29912 1
34097 29914 29913 1
34098 29908 29911 1
34099 29907 29914 1
34100 29916 29915 1
34101 29917 29916 1
34102 29918 29917 1
34103 29912 29915 1
34104 29911 29918 1
34105 29920 29919 un
34106 29921 29920 un
34107 29922 29921 un
34108 29917 29919 1
34109 29916 29922 1
34110 29924 29923 1
34111 29925 29924 un
34112 29926 29925 un
34113 29921 29923 un
34114 29920 29926 un
34115 29928 29927 1
34116 29929 29928 1
34117 29919 29929 1
34118 29926 29927 1
34119 29931 29930 1
34120 29932 29931 un
34121 29933 29932 un
34122 29925 29930 1
34123 29924 29933 un
34124 29935 29934 un
34125 29936 29935 2
34126 29922 29934 1
34127 29923 29936 un
34128 29938 29937 2
34129 29939 29938 1
34130 29940 29939 1
34131 29935 29937 1
34132 29934 29940 2
34133 29942 29941 1
34134 29943 29942 1
34135 29944 29943 2
34136 29938 29941 1
34137 29937 29944 1
34138 29946 29945 1
34139 29947 29946 1
34140 29948 29947 1
34141 29944 29945 1
34142 29943 29948 1
34143 29950 29949 un
34144 29936 29950 un
34145 29933 29949 un
34146 29952 29951 un
34147 29953 29952 1
34148 29949 29953 un
34149 29932 29951 un
34150 29955 29954 un
34151 29956 29955 un
34152 29957 29956 un
34153 29952 29954 un
34154 29951 29957 un
34155 29959 29958 un
34156 29960 29959 un
34157 29961 29960 un
34158 29956 29958 un
34159 29955 29961 un
34160 29963 29962 un
34161 29964 29963 un
34162 29965 29964 un
34163 29960 29962 un
34164 29959 29965 un
34165 29967 29966 un
34166 29931 29967 un
34167 29957 29966 un
34168 29969 29968 un
34169 29966 29969 un
34170 29958 29968 un
34171 29971 29970 un
34172 29968 29971 un
34173 29965 29970 un
34174 29973 29972 un
34175 29974 29973 un
34176 29970 29974 un
34177 29964 29972 un
34178 29976 29975 1
34179 29977 29976 1
34180 29978 29977 1
34181 29963 29975 1
34182 29962 29978 1
34183 29980 29979 1
34184 29981 29980 1
34185 29982 29981 1
34186 29977 29979 1
34187 29976 29982 1
34188 29984 29983 1
34189 29985 29984 1
34190 29986 29985 1
34191 29982 29983 1
34192 29981 29986 1
34193 29988 29987 un
34194 29989 29988 un
34195 29971 29989 un
34196 29969 29987 un
34197 29991 29990 1
34198 29992 29991 1
34199 29993 29992 1
34200 29988 29990 1
34201 29987 29993 1
34202 29995 29994 1
34203 29996 29995 1
34204 29997 29996 1
34205 29992 29994 1
34206 29991 29997 1
34207 29999 29998 un
34208 29989 29999 un
34209 29974 29998 un
34210 30001 30000 un
34211 30002 30001 un
34212 29998 30002 un
34213 29973 30000 un
34214 30004 30003 un
34215 30005 30004 un
34216 29972 30005 un
34217 30000 30003 un
34218 30007 30006 1
34219 30008 30007 un
34220 30001 30006 1
34221 30003 30008 1
34222 30010 30009 1
34223 30011 30010 1
34224 30004 30009 1
34225 30008 30011 un
34226 30013 30012 1
34227 30014 30013 1
34228 30015 30014 1
34229 30010 30012 1
34230 30009 30015 1
34231 30017 30016 1
34232 30018 30017 1
34233 30007 30018 un
34234 30011 30016 un
34235 30012 30019 1
34236 30016 30020 un
34237 30019 30020 un
34238 29946 30021 1
34239 30021 30022 1
34240 30021 30023 1
34241 29978 30024 1
34242 30026 30025 1
34243 30027 30026 un
34244 30028 30027 1
34245 30018 30025 un
34246 30017 30028 un
34247 30030 30029 un
34248 30031 30030 1
34249 30032 30031 un
34250 30028 30029 un
34251 30027 30032 un
34252 30034 30033 un
34253 30035 30034 1
34254 30036 30035 1
34255 30031 30033 un
34256 30030 30036 un
34257 30038 30037 un
34258 30039 30038 un
34259 30029 30039 un
34260 30036 30037 un
34261 30041 30040 un
34262 30042 30041 un
34263 30035 30042 un
34264 30037 30040 un
34265 30044 30043 un
34266 30038 30044 un
34267 30020 30039 un
34268 30019 30043 un
34269 30046 30045 un
34270 30044 30046 un
34271 30040 30045 un
34272 30048 30047 1
34273 30049 30048 1
34274 30050 30049 1
34275 30046 30047 1
34276 30045 30050 1
34277 30050 30051 2
34278 29905 30052 1
34279 29905 30053 1
34280 29906 30054 1
34281 29906 30055 1
34282 29907 30056 1
34283 29908 30057 1
34284 29909 30058 1
34285 29909 30059 1
34286 29911 30060 1
34287 29912 30061 1
34288 29913 30062 1
34289 29913 30063 1
34290 29914 30064 1
34291 29914 30065 1
34292 29916 30066 1
34293 29917 30067 1
34294 29918 30068 1
34295 29918 30069 1
34296 29922 30070 1
34297 29927 30071 1
34298 29927 30072 1
34299 29928 30073 1
34300 29928 30074 1
34301 29929 30075 1
34302 29929 30076 1
34303 29939 30077 1
34304 29939 30078 1
34305 29940 30079 1
34306 29941 30080 1
34307 29941 30081 1
34308 29942 30082 1
34309 29942 30083 1
34310 29945 30084 1
34311 29945 30085 1
34312 29946 30086 1
34313 29947 30087 1
34314 29947 30088 1
34315 29948 30089 1
34316 29948 30090 1
34317 29950 30091 1
34318 29954 30092 1
34319 29961 30093 1
34320 29967 30094 1
34321 29976 30095 1
34322 29977 30096 1
34323 29978 30097 1
34324 29979 30098 1
34325 29979 30099 1
34326 29980 30100 1
34327 29980 30101 1
34328 29981 30102 1
34329 29982 30103 1
34330 29983 30104 1
34331 29983 30105 1
34332 29984 30106 1
34333 29984 30107 1
34334 29985 30108 1
34335 29985 30109 1
34336 29986 30110 1
34337 29991 30111 1
34338 29992 30112 1
34339 29994 30113 1
34340 29994 30114 1
34341 29995 30115 1
34342 29995 30116 1
34343 29996 30117 1
34344 29996 30118 1
34345 29997 30119 1
34346 29997 30120 1
34347 29999 30121 1
34348 30002 30122 1
34349 30005 30123 1
34350 30009 30124 1
34351 30010 30125 1
34352 30012 30126 1
34353 30013 30127 1
34354 30013 30128 1
34355 30014 30129 1
34356 30014 30130 1
34357 30015 30131 1
34358 30015 30132 1
34359 30021 30133 1
34360 30022 30134 1
34361 30022 30135 1
34362 30022 30136 1
34363 30023 30137 1
34364 30023 30138 1
34365 30023 30139 1
34366 30024 30140 1
34367 30025 30141 1
34368 30026 30142 1
34369 30032 30143 1
34370 30033 30144 1
34371 30034 30145 1
34372 30041 30146 1
34373 30042 30147 1
34374 30043 30148 1
34375 30047 30149 1
34376 30047 30150 1
34377 30048 30151 1
34378 30048 30152 1
34379 30049 30153 1
34380 30049 30154 1
34381 30157 30156 1
34382 30158 30157 1
34383 30159 30158 1
34384 30160 30159 1
34385 30155 30156 1
34386 30155 30160 1
34387 30162 30161 1
34388 30163 30162 1
34389 30164 30163 1
34390 30158 30161 1
34391 30157 30164 1
34392 30166 30165 1
34393 30167 30166 1
34394 30168 30167 1
34395 30162 30165 1
34396 30161 30168 1
34397 30170 30169 un
34398 30171 30170 un
34399 30172 30171 un
34400 30167 30169 1
34401 30166 30172 1
34402 30174 30173 1
34403 30175 30174 un
34404 30176 30175 un
34405 30171 30173 un
34406 30170 30176 un
34407 30178 30177 1
34408 30179 30178 1
34409 30169 30179 1
34410 30176 30177 1
34411 30181 30180 1
34412 30182 30181 un
34413 30183 30182 un
34414 30175 30180 1
34415 30174 30183 un
34416 30185 30184 un
34417 30186 30185 2
34418 30172 30184 1
34419 30173 30186 un
34420 30188 30187 2
34421 30189 30188 1
34422 30190 30189 1
34423 30185 30187 1
34424 30184 30190 2
34425 30192 30191 1
34426 30193 30192 1
34427 30194 30193 2
34428 30188 30191 1
34429 30187 30194 1
34430 30196 30195 1
34431 30197 30196 1
34432 30198 30197 1
34433 30194 30195 1
34434 30193 30198 1
34435 30200 30199 un
34436 30186 30200 un
34437 30183 30199 un
34438 30202 30201 un
34439 30203 30202 1
34440 30199 30203 un
34441 30182 30201 un
34442 30205 30204 un
34443 30206 30205 un
34444 30207 30206 un
34445 30202 30204 un
34446 30201 30207 un
34447 30209 30208 un
34448 30210 30209 un
34449 30211 30210 un
34450 30206 30208 un
34451 30205 30211 un
34452 30213 30212 un
34453 30214 30213 un
34454 30215 30214 un
34455 30210 30212 un
34456 30209 30215 un
34457 30217 30216 un
34458 30181 30217 un
34459 30207 30216 un
34460 30219 30218 un
34461 30216 30219 un
34462 30208 30218 un
34463 30221 30220 un
34464 30218 30221 un
34465 30215 30220 un
34466 30223 30222 un
34467 30224 30223 un
34468 30220 30224 un
34469 30214 30222 un
34470 30226 30225 1
34471 30227 30226 1
34472 30228 30227 1
34473 30213 30225 1
34474 30212 30228 1
34475 30230 30229 1
34476 30231 30230 1
34477 30232 30231 1
34478 30227 30229 1
34479 30226 30232 1
34480 30234 30233 1
34481 30235 30234 1
34482 30236 30235 1
34483 30232 30233 1
34484 30231 30236 1
34485 30238 30237 un
34486 30239 30238 un
34487 30221 30239 un
34488 30219 30237 un
34489 30241 30240 1
34490 30242 30241 1
34491 30243 30242 1
34492 30238 30240 1
34493 30237 30243 1
34494 30245 30244 1
34495 30246 30245 1
34496 30247 30246 1
34497 30242 30244 1
34498 30241 30247 1
34499 30249 30248 un
34500 30239 30249 un
34501 30224 30248 un
34502 30251 30250 un
34503 30252 30251 un
34504 30248 30252 un
34505 30223 30250 un
34506 30254 30253 un
34507 30255 30254 un
34508 30222 30255 un
34509 30250 30253 un
34510 30257 30256 1
34511 30258 30257 un
34512 30251 30256 1
34513 30253 30258 1
34514 30260 30259 1
34515 30261 30260 1
34516 30254 30259 1
34517 30258 30261 un
34518 30263 30262 1
34519 30264 30263 1
34520 30265 30264 1
34521 30260 30262 1
34522 30259 30265 1
34523 30267 30266 1
34524 30268 30267 1
34525 30257 30268 un
34526 30261 30266 un
34527 30262 30269 1
34528 30266 30270 un
34529 30269 30270 un
34530 30196 30271 1
34531 30271 30272 1
34532 30271 30273 1
34533 30228 30274 1
34534 30276 30275 1
34535 30277 30276 un
34536 30278 30277 1
34537 30268 30275 un
34538 30267 30278 un
34539 30280 30279 un
34540 30281 30280 1
34541 30282 30281 un
34542 30278 30279 un
34543 30277 30282 un
34544 30284 30283 un
34545 30285 30284 1
34546 30286 30285 1
34547 30281 30283 un
34548 30280 30286 un
34549 30288 30287 un
34550 30289 30288 un
34551 30279 30289 un
34552 30286 30287 un
34553 30291 30290 un
34554 30292 30291 un
34555 30285 30292 un
34556 30287 30290 un
34557 30294 30293 un
34558 30288 30294 un
34559 30270 30289 un
34560 30269 30293 un
34561 30296 30295 un
34562 30294 30296 un
34563 30290 30295 un
34564 30298 30297 1
34565 30299 30298 1
34566 30300 30299 1
34567 30296 30297 1
34568 30295 30300 1
34569 30300 30301 2
34570 30155 30302 1
34571 30155 30303 1
34572 30156 30304 1
34573 30156 30305 1
34574 30157 30306 1
34575 30158 30307 1
34576 30159 30308 1
34577 30159 30309 1
34578 30161 30310 1
34579 30162 30311 1
34580 30163 30312 1
34581 30163 30313 1
34582 30164 30314 1
34583 30164 30315 1
34584 30166 30316 1
34585 30167 30317 1
34586 30168 30318 1
34587 30168 30319 1
34588 30172 30320 1
34589 30177 30321 1
34590 30177 30322 1
34591 30178 30323 1
34592 30178 30324 1
34593 30179 30325 1
34594 30179 30326 1
34595 30189 30327 1
34596 30189 30328 1
34597 30190 30329 1
34598 30191 30330 1
34599 30191 30331 1
34600 30192 30332 1
34601 30192 30333 1
34602 30195 30334 1
34603 30195 30335 1
34604 30196 30336 1
34605 30197 30337 1
34606 30197 30338 1
34607 30198 30339 1
34608 30198 30340 1
34609 30200 30341 1
34610 30204 30342 1
34611 30211 30343 1
34612 30217 30344 1
34613 30226 30345 1
34614 30227 30346 1
34615 30228 30347 1
34616 30229 30348 1
34617 30229 30349 1
34618 30230 30350 1
34619 30230 30351 1
34620 30231 30352 1
34621 30232 30353 1
34622 30233 30354 1
34623 30233 30355 1
34624 30234 30356 1
34625 30234 30357 1
34626 30235 30358 1
34627 30235 30359 1
34628 30236 30360 1
34629 30241 30361 1
34630 30242 30362 1
34631 30244 30363 1
34632 30244 30364 1
34633 30245 30365 1
34634 30245 30366 1
34635 30246 30367 1
34636 30246 30368 1
34637 30247 30369 1
34638 30247 30370 1
34639 30249 30371 1
34640 30252 30372 1
34641 30255 30373 1
34642 30259 30374 1
34643 30260 30375 1
34644 30262 30376 1
34645 30263 30377 1
34646 30263 30378 1
34647 30264 30379 1
34648 30264 30380 1
34649 30265 30381 1
34650 30265 30382 1
34651 30271 30383 1
34652 30272 30384 1
34653 30272 30385 1
34654 30272 30386 1
34655 30273 30387 1
34656 30273 30388 1
34657 30273 30389 1
34658 30274 30390 1
34659 30275 30391 1
34660 30276 30392 1
34661 30282 30393 1
34662 30283 30394 1
34663 30284 30395 1
34664 30291 30396 1
34665 30292 30397 1
34666 30293 30398 1
34667 30297 30399 1
34668 30297 30400 1
34669 30298 30401 1
34670 30298 30402 1
34671 30299 30403 1
34672 30299 30404 1
34673 30407 30406 1
34674 30408 30407 1
34675 30409 30408 1
34676 30410 30409 1
34677 30405 30406 1
34678 30405 30410 1
34679 30412 30411 1
34680 30413 30412 1
34681 30414 30413 1
34682 30408 30411 1
34683 30407 30414 1
34684 30416 30415 1
34685 30417 30416 1
34686 30418 30417 1
34687 30412 30415 1
34688 30411 30418 1
34689 30420 30419 un
34690 30421 30420 un
34691 30422 30421 un
34692 30417 30419 1
34693 30416 30422 1
34694 30424 30423 1
34695 30425 30424 un
34696 30426 30425 un
34697 30421 30423 un
34698 30420 30426 un
34699 30428 30427 1
34700 30429 30428 1
34701 30419 30429 1
34702 30426 30427 1
34703 30431 30430 1
34704 30432 30431 un
34705 30433 30432 un
34706 30425 30430 1
34707 30424 30433 un
34708 30435 30434 un
34709 30436 30435 2
34710 30422 30434 1
34711 30423 30436 un
34712 30438 30437 2
34713 30439 30438 1
34714 30440 30439 1
34715 30435 30437 1
34716 30434 30440 2
34717 30442 30441 1
34718 30443 30442 1
34719 30444 30443 2
34720 30438 30441 1
34721 30437 30444 1
34722 30446 30445 1
34723 30447 30446 1
34724 30448 30447 1
34725 30444 30445 1
34726 30443 30448 1
34727 30450 30449 un
34728 30436 30450 un
34729 30433 30449 un
34730 30452 30451 un
34731 30453 30452 1
34732 30449 30453 un
34733 30432 30451 un
34734 30455 30454 un
34735 30456 30455 un
34736 30457 30456 un
34737 30452 30454 un
34738 30451 30457 un
34739 30459 30458 un
34740 30460 30459 un
34741 30461 30460 un
34742 30456 30458 un
34743 30455 30461 un
34744 30463 30462 un
34745 30464 30463 un
34746 30465 30464 un
34747 30460 30462 un
34748 30459 30465 un
34749 30467 30466 un
34750 30431 30467 un
34751 30457 30466 un
34752 30469 30468 un
34753 30466 30469 un
34754 30458 30468 un
34755 30471 30470 un
34756 30468 30471 un
34757 30465 30470 un
34758 30473 30472 un
34759 30474 30473 un
34760 30470 30474 un
34761 30464 30472 un
34762 30476 30475 1
34763 30477 30476 1
34764 30478 30477 1
34765 30463 30475 1
34766 30462 30478 1
34767 30480 30479 1
34768 30481 30480 1
34769 30482 30481 1
34770 30477 30479 1
34771 30476 30482 1
34772 30484 30483 1
34773 30485 30484 1
34774 30486 30485 1
34775 30482 30483 1
34776 30481 30486 1
34777 30488 30487 un
34778 30489 30488 un
34779 30471 30489 un
34780 30469 30487 un
34781 30491 30490 1
34782 30492 30491 1
34783 30493 30492 1
34784 30488 30490 1
34785 30487 30493 1
34786 30495 30494 1
34787 30496 30495 1
34788 30497 30496 1
34789 30492 30494 1
34790 30491 30497 1
34791 30499 30498 un
34792 30489 30499 un
34793 30474 30498 un
34794 30501 30500 un
34795 30502 30501 un
34796 30498 30502 un
34797 30473 30500 un
34798 30504 30503 un
34799 30505 30504 un
34800 30472 30505 un
34801 30500 30503 un
34802 30507 30506 1
34803 30508 30507 un
34804 30501 30506 1
34805 30503 30508 1
34806 30510 30509 1
34807 30511 30510 1
34808 30504 30509 1
34809 30508 30511 un
34810 30513 30512 1
34811 30514 30513 1
34812 30515 30514 1
34813 30510 30512 1
34814 30509 30515 1
34815 30517 30516 1
34816 30518 30517 1
34817 30507 30518 un
34818 30511 30516 un
34819 30512 30519 1
34820 30516 30520 un
34821 30519 30520 un
34822 30446 30521 1
34823 30521 30522 1
34824 30521 30523 1
34825 30478 30524 1
34826 30526 30525 1
34827 30527 30526 un
34828 30528 30527 1
34829 30518 30525 un
34830 30517 30528 un
34831 30530 30529 un
34832 30531 30530 1
34833 30532 30531 un
34834 30528 30529 un
34835 30527 30532 un
34836 30534 30533 un
34837 30535 30534 1
34838 30536 30535 1
34839 30531 30533 un
34840 30530 30536 un
34841 30538 30537 un
34842 30539 30538 un
34843 30529 30539 un
34844 30536 30537 un
34845 30541 30540 un
34846 30542 30541 un
34847 30535 30542 un
34848 30537 30540 un
34849 30544 30543 un
34850 30538 30544 un
34851 30520 30539 un
34852 30519 30543 un
34853 30546 30545 un
34854 30544 30546 un
34855 30540 30545 un
34856 30548 30547 1
34857 30549 30548 1
34858 30550 30549 1
34859 30546 30547 1
34860 30545 30550 1
34861 30550 30551 2
34862 30405 30552 1
34863 30405 30553 1
34864 30406 30554 1
34865 30406 30555 1
34866 30407 30556 1
34867 30408 30557 1
34868 30409 30558 1
34869 30409 30559 1
34870 30411 30560 1
34871 30412 30561 1
34872 30413 30562 1
34873 30413 30563 1
34874 30414 30564 1
34875 30414 30565 1
34876 30416 30566 1
34877 30417 30567 1
34878 30418 30568 1
34879 30418 30569 1
34880 30422 30570 1
34881 30427 30571 1
34882 30427 30572 1
34883 30428 30573 1
34884 30428 30574 1
34885 30429 30575 1
34886 30429 30576 1
34887 30439 30577 1
34888 30439 30578 1
34889 30440 30579 1
34890 30441 30580 1
34891 30441 30581 1
34892 30442 30582 1
34893 30442 30583 1
34894 30445 30584 1
34895 30445 30585 1
34896 30446 30586 1
34897 30447 30587 1
34898 30447 30588 1
34899 30448 30589 1
34900 30448 30590 1
34901 30450 30591 1
34902 30454 30592 1
34903 30461 30593 1
34904 30467 30594 1
34905 30476 30595 1
34906 30477 30596 1
34907 30478 30597 1
34908 30479 30598 1
34909 30479 30599 1
34910 30480 30600 1
34911 30480 30601 1
34912 30481 30602 1
34913 30482 30603 1
34914 30483 30604 1
34915 30483 30605 1
34916 30484 30606 1
34917 30484 30607 1
34918 30485 30608 1
34919 30485 30609 1
34920 30486 30610 1
34921 30491 30611 1
34922 30492 30612 1
34923 30494 30613 1
34924 30494 30614 1
34925 30495 30615 1
34926 30495 30616 1
34927 30496 30617 1
34928 30496 30618 1
34929 30497 30619 1
34930 30497 30620 1
34931 30499 30621 1
34932 30502 30622 1
34933 30505 30623 1
34934 30509 30624 1
34935 30510 30625 1
34936 30512 30626 1
34937 30513 30627 1
34938 30513 30628 1
34939 30514 30629 1
34940 30514 30630 1
34941 30515 30631 1
34942 30515 30632 1
34943 30521 30633 1
34944 30522 30634 1
34945 30522 30635 1
34946 30522 30636 1
34947 30523 30637 1
34948 30523 30638 1
34949 30523 30639 1
34950 30524 30640 1
34951 30525 30641 1
34952 30526 30642 1
34953 30532 30643 1
34954 30533 30644 1
34955 30534 30645 1
34956 30541 30646 1
34957 30542 30647 1
34958 30543 30648 1
34959 30547 30649 1
34960 30547 30650 1
34961 30548 30651 1
34962 30548 30652 1
34963 30549 30653 1
34964 30549 30654 1
34965 30657 30656 1
34966 30658 30657 1
34967 30659 30658 1
34968 30660 30659 1
34969 30655 30656 1
34970 30655 30660 1
34971 30662 30661 1
34972 30663 30662 1
34973 30664 30663 1
34974 30658 30661 1
34975 30657 30664 1
34976 30666 30665 1
34977 30667 30666 1
34978 30668 30667 1
34979 30662 30665 1
34980 30661 30668 1
34981 30670 30669 un
34982 30671 30670 un
34983 30672 30671 un
34984 30667 30669 1
34985 30666 30672 1
34986 30674 30673 1
34987 30675 30674 un
34988 30676 30675 un
34989 30671 30673 un
34990 30670 30676 un
34991 30678 30677 1
34992 30679 30678 1
34993 30669 30679 1
34994 30676 30677 1
34995 30681 30680 1
34996 30682 30681 un
34997 30683 30682 un
34998 30675 30680 1
34999 30674 30683 un
35000 30685 30684 un
35001 30686 30685 2
35002 30672 30684 1
35003 30673 30686 un
35004 30688 30687 2
35005 30689 30688 1
35006 30690 30689 1
35007 30685 30687 1
35008 30684 30690 2
35009 30692 30691 1
35010 30693 30692 1
35011 30694 30693 2
35012 30688 30691 1
35013 30687 30694 1
35014 30696 30695 1
35015 30697 30696 1
35016 30698 30697 1
35017 30694 30695 1
35018 30693 30698 1
35019 30700 30699 un
35020 30686 30700 un
35021 30683 30699 un
35022 30702 30701 un
35023 30703 30702 1
35024 30699 30703 un
35025 30682 30701 un
35026 30705 30704 un
35027 30706 30705 un
35028 30707 30706 un
35029 30702 30704 un
35030 30701 30707 un
35031 30709 30708 un
35032 30710 30709 un
35033 30711 30710 un
35034 30706 30708 un
35035 30705 30711 un
35036 30713 30712 un
35037 30714 30713 un
35038 30715 30714 un
35039 30710 30712 un
35040 30709 30715 un
35041 30717 30716 un
35042 30681 30717 un
35043 30707 30716 un
35044 30719 30718 un
35045 30716 30719 un
35046 30708 30718 un
35047 30721 30720 un
35048 30718 30721 un
35049 30715 30720 un
35050 30723 30722 un
35051 30724 30723 un
35052 30720 30724 un
35053 30714 30722 un
35054 30726 30725 1
35055 30727 30726 1
35056 30728 30727 1
35057 30713 30725 1
35058 30712 30728 1
35059 30730 30729 1
35060 30731 30730 1
35061 30732 30731 1
35062 30727 30729 1
35063 30726 30732 1
35064 30734 30733 1
35065 30735 30734 1
35066 30736 30735 1
35067 30732 30733 1
35068 30731 30736 1
35069 30738 30737 un
35070 30739 30738 un
35071 30721 30739 un
35072 30719 30737 un
35073 30741 30740 1
35074 30742 30741 1
35075 30743 30742 1
35076 30738 30740 1
35077 30737 30743 1
35078 30745 30744 1
35079 30746 30745 1
35080 30747 30746 1
35081 30742 30744 1
35082 30741 30747 1
35083 30749 30748 un
35084 30739 30749 un
35085 30724 30748 un
35086 30751 30750 un
35087 30752 30751 un
35088 30748 30752 un
35089 30723 30750 un
35090 30754 30753 un
35091 30755 30754 un
35092 30722 30755 un
35093 30750 30753 un
35094 30757 30756 1
35095 30758 30757 un
35096 30751 30756 1
35097 30753 30758 1
35098 30760 30759 1
35099 30761 30760 1
35100 30754 30759 1
35101 30758 30761 un
35102 30763 30762 1
35103 30764 30763 1
35104 30765 30764 1
35105 30760 30762 1
35106 30759 30765 1
35107 30767 30766 1
35108 30768 30767 1
35109 30757 30768 un
35110 30761 30766 un
35111 30762 30769 1
35112 30766 30770 un
35113 30769 30770 un
35114 30696 30771 1
35115 30771 30772 1
35116 30771 30773 1
35117 30728 30774 1
35118 30776 30775 1
35119 30777 30776 un
35120 30778 30777 1
35121 30768 30775 un
35122 30767 30778 un
35123 30780 30779 un
35124 30781 30780 1
35125 30782 30781 un
35126 30778 30779 un
35127 30777 30782 un
35128 30784 30783 un
35129 30785 30784 1
35130 30786 30785 1
35131 30781 30783 un
35132 30780 30786 un
35133 30788 30787 un
35134 30789 30788 un
35135 30779 30789 un
35136 30786 30787 un
35137 30791 30790 un
35138 30792 30791 un
35139 30785 30792 un
35140 30787 30790 un
35141 30794 30793 un
35142 30788 30794 un
35143 30770 30789 un
35144 30769 30793 un
35145 30796 30795 un
35146 30794 30796 un
35147 30790 30795 un
35148 30798 30797 1
35149 30799 30798 1
35150 30800 30799 1
35151 30796 30797 1
35152 30795 30800 1
35153 30800 30801 2
35154 30655 30802 1
35155 30655 30803 1
35156 30656 30804 1
35157 30656 30805 1
35158 30657 30806 1
35159 30658 30807 1
35160 30659 30808 1
35161 30659 30809 1
35162 30661 30810 1
35163 30662 30811 1
35164 30663 30812 1
35165 30663 30813 1
35166 30664 30814 1
35167 30664 30815 1
35168 30666 30816 1
35169 30667 30817 1
35170 30668 30818 1
35171 30668 30819 1
35172 30672 30820 1
35173 30677 30821 1
35174 30677 30822 1
35175 30678 30823 1
35176 30678 30824 1
35177 30679 30825 1
35178 30679 30826 1
35179 30689 30827 1
35180 30689 30828 1
35181 30690 30829 1
35182 30691 30830 1
35183 30691 30831 1
35184 30692 30832 1
35185 30692 30833 1
35186 30695 30834 1
35187 30695 30835 1
35188 30696 30836 1
35189 30697 30837 1
35190 30697 30838 1
35191 30698 30839 1
35192 30698 30840 1
35193 30700 30841 1
35194 30704 30842 1
35195 30711 30843 1
35196 30717 30844 1
35197 30726 30845 1
35198 30727 30846 1
35199 30728 30847 1
35200 30729 30848 1
35201 30729 30849 1
35202 30730 30850 1
35203 30730 30851 1
35204 30731 30852 1
35205 30732 30853 1
35206 30733 30854 1
35207 30733 30855 1
35208 30734 30856 1
35209 30734 30857 1
35210 30735 30858 1
35211 30735 30859 1
35212 30736 30860 1
35213 30741 30861 1
35214 30742 30862 1
35215 30744 30863 1
35216 30744 30864 1
35217 30745 30865 1
35218 30745 30866 1
35219 30746 30867 1
35220 30746 30868 1
35221 30747 30869 1
35222 30747 30870 1
35223 30749 30871 1
35224 30752 30872 1
35225 30755 30873 1
35226 30759 30874 1
35227 30760 30875 1
35228 30762 30876 1
35229 30763 30877 1
35230 30763 30878 1
35231 30764 30879 1
35232 30764 30880 1
35233 30765 30881 1
35234 30765 30882 1
35235 30771 30883 1
35236 30772 30884 1
35237 30772 30885 1
35238 30772 30886 1
35239 30773 30887 1
35240 30773 30888 1
35241 30773 30889 1
35242 30774 30890 1
35243 30775 30891 1
35244 30776 30892 1
35245 30782 30893 1
35246 30783 30894 1
35247 30784 30895 1
35248 30791 30896 1
35249 30792 30897 1
35250 30793 30898 1
35251 30797 30899 1
35252 30797 30900 1
35253 30798 30901 1
35254 30798 30902 1
35255 30799 30903 1
35256 30799 30904 1
35257 30907 30906 1
35258 30908 30907 1
35259 30909 30908 1
35260 30910 30909 1
35261 30905 30906 1
35262 30905 30910 1
35263 30912 30911 1
35264 30913 30912 1
35265 30914 30913 1
35266 30908 30911 1
35267 30907 30914 1
35268 30916 30915 1
35269 30917 30916 1
35270 30918 30917 1
35271 30912 30915 1
35272 30911 30918 1
35273 30920 30919 un
35274 30921 30920 un
35275 30922 30921 un
35276 30917 30919 1
35277 30916 30922 1
35278 30924 30923 1
35279 30925 30924 un
35280 30926 30925 un
35281 30921 30923 un
35282 30920 30926 un
35283 30928 30927 1
35284 30929 30928 1
35285 30919 30929 1
35286 30926 30927 1
35287 30931 30930 1
35288 30932 30931 un
35289 30933 30932 un
35290 30925 30930 1
35291 30924 30933 un
35292 30935 30934 un
35293 30936 30935 2
35294 30922 30934 1
35295 30923 30936 un
35296 30938 30937 2
35297 30939 30938 1
35298 30940 30939 1
35299 30935 30937 1
35300 30934 30940 2
35301 30942 30941 1
35302 30943 30942 1
35303 30944 30943 2
35304 30938 30941 1
35305 30937 30944 1
35306 30946 30945 1
35307 30947 30946 1
35308 30948 30947 1
35309 30944 30945 1
35310 30943 30948 1
35311 30950 30949 un
35312 30936 30950 un
35313 30933 30949 un
35314 30952 30951 un
35315 30953 30952 1
35316 30949 30953 un
35317 30932 30951 un
35318 30955 30954 un
35319 30956 30955 un
35320 30957 30956 un
35321 30952 30954 un
35322 30951 30957 un
35323 30959 30958 un
35324 30960 30959 un
35325 30961 30960 un
35326 30956 30958 un
35327 30955 30961 un
35328 30963 30962 un
35329 30964 30963 un
35330 30965 30964 un
35331 30960 30962 un
35332 30959 30965 un
35333 30967 30966 un
35334 30931 30967 un
35335 30957 30966 un
35336 30969 30968 un
35337 30966 30969 un
35338 30958 30968 un
35339 30971 30970 un
35340 30968 30971 un
35341 30965 30970 un
35342 30973 30972 un
35343 30974 30973 un
35344 30970 30974 un
35345 30964 30972 un
35346 30976 30975 1
35347 30977 30976 1
35348 30978 30977 1
35349 30963 30975 1
35350 30962 30978 1
35351 30980 30979 1
35352 30981 30980 1
35353 30982 30981 1
35354 30977 30979 1
35355 30976 30982 1
35356 30984 30983 1
35357 30985 30984 1
35358 30986 30985 1
35359 30982 30983 1
35360 30981 30986 1
35361 30988 30987 un
35362 30989 30988 un
35363 30971 30989 un
35364 30969 30987 un
35365 30991 30990 1
35366 30992 30991 1
35367 30993 30992 1
35368 30988 30990 1
35369 30987 30993 1
35370 30995 30994 1
35371 30996 30995 1
35372 30997 30996 1
35373 30992 30994 1
35374 30991 30997 1
35375 30999 30998 un
35376 30989 30999 un
35377 30974 30998 un
35378 31001 31000 un
35379 31002 31001 un
35380 30998 31002 un
35381 30973 31000 un
35382 31004 31003 un
35383 31005 31004 un
35384 30972 31005 un
35385 31000 31003 un
35386 31007 31006 1
35387 31008 31007 un
35388 31001 31006 1
35389 31003 31008 1
35390 31010 31009 1
35391 31011 31010 1
35392 31004 31009 1
35393 31008 31011 un
35394 31013 31012 1
35395 31014 31013 1
35396 31015 31014 1
35397 31010 31012 1
35398 31009 31015 1
35399 31017 31016 1
35400 31018 31017 1
35401 31007 31018 un
35402 31011 31016 un
35403 31012 31019 1
35404 31016 31020 un
35405 31019 31020 un
35406 30946 31021 1
35407 31021 31022 1
35408 31021 31023 1
35409 30978 31024 1
35410 31026 31025 1
35411 31027 31026 un
35412 31028 31027 1
35413 31018 31025 un
35414 31017 31028 un
35415 31030 31029 un
35416 31031 31030 1
35417 31032 31031 un
35418 31028 31029 un
35419 31027 31032 un
35420 31034 31033 un
35421 31035 31034 1
35422 31036 31035 1
35423 31031 31033 un
35424 31030 31036 un
35425 31038 31037 un
35426 31039 31038 un
35427 31029 31039 un
35428 31036 31037 un
35429 31041 31040 un
35430 31042 31041 un
35431 31035 31042 un
35432 31037 31040 un
35433 31044 31043 un
35434 31038 31044 un
35435 31020 31039 un
35436 31019 31043 un
35437 31046 31045 un
35438 31044 31046 un
35439 31040 31045 un
35440 31048 31047 1
35441 31049 31048 1
35442 31050 31049 1
35443 31046 31047 1
35444 31045 31050 1
35445 31050 31051 2
35446 30905 31052 1
35447 30905 31053 1
35448 30906 31054 1
35449 30906 31055 1
35450 30907 31056 1
35451 30908 31057 1
35452 30909 31058 1
35453 30909 31059 1
35454 30911 31060 1
35455 30912 31061 1
35456 30913 31062 1
35457 30913 31063 1
35458 30914 31064 1
35459 30914 31065 1
35460 30916 31066 1
35461 30917 31067 1
35462 30918 31068 1
35463 30918 31069 1
35464 30922 31070 1
35465 30927 31071 1
35466 30927 31072 1
35467 30928 31073 1
35468 30928 31074 1
35469 30929 31075 1
35470 30929 31076 1
35471 30939 31077 1
35472 30939 31078 1
35473 30940 31079 1
35474 30941 31080 1
35475 30941 31081 1
35476 30942 31082 1
35477 30942 31083 1
35478 30945 31084 1
35479 30945 31085 1
35480 30946 31086 1
35481 30947 31087 1
35482 30947 31088 1
35483 30948 31089 1
35484 30948 31090 1
35485 30950 31091 1
35486 30954 31092 1
35487 30961 31093 1
35488 30967 31094 1
35489 30976 31095 1
35490 30977 31096 1
35491 30978 31097 1
35492 30979 31098 1
35493 30979 31099 1
35494 30980 31100 1
35495 30980 31101 1
35496 30981 31102 1
35497 30982 31103 1
35498 30983 31104 1
35499 30983 31105 1
35500 30984 31106 1
35501 30984 31107 1
35502 30985 31108 1
35503 30985 31109 1
35504 30986 31110 1
35505 30991 31111 1
35506 30992 31112 1
35507 30994 31113 1
35508 30994 31114 1
35509 30995 31115 1
35510 30995 31116 1
35511 30996 31117 1
35512 30996 31118 1
35513 30997 31119 1
35514 30997 31120 1
35515 30999 31121 1
35516 31002 31122 1
35517 31005 31123 1
35518 31009 31124 1
35519 31010 31125 1
35520 31012 31126 1
35521 31013 31127 1
35522 31013 31128 1
35523 31014 31129 1
35524 31014 31130 1
35525 31015 31131 1
35526 31015 31132 1
35527 31021 31133 1
35528 31022 31134 1
35529 31022 31135 1
35530 31022 31136 1
35531 31023 31137 1
35532 31023 31138 1
35533 31023 31139 1
35534 31024 31140 1
35535 31025 31141 1
35536 31026 31142 1
35537 31032 31143 1
35538 31033 31144 1
35539 31034 31145 1
35540 31041 31146 1
35541 31042 31147 1
35542 31043 31148 1
35543 31047 31149 1
35544 31047 31150 1
35545 31048 31151 1
35546 31048 31152 1
35547 31049 31153 1
35548 31049 31154 1
35549 31157 31156 1
35550 31158 31157 1
35551 31159 31158 1
35552 31160 31159 1
35553 31155 31156 1
35554 31155 31160 1
35555 31162 31161 1
35556 31163 31162 1
35557 31164 31163 1
35558 31158 31161 1
35559 31157 31164 1
35560 31166 31165 1
35561 31167 31166 1
35562 31168 31167 1
35563 31162 31165 1
35564 31161 31168 1
35565 31170 31169 un
35566 31171 31170 un
35567 31172 31171 un
35568 31167 31169 1
35569 31166 31172 1
35570 31174 31173 1
35571 31175 31174 un
35572 31176 31175 un
35573 31171 31173 un
35574 31170 31176 un
35575 31178 31177 1
35576 31179 31178 1
35577 31169 31179 1
35578 31176 31177 1
35579 31181 31180 1
35580 31182 31181 un
35581 31183 31182 un
35582 31175 31180 1
35583 31174 31183 un
35584 31185 31184 un
35585 31186 31185 2
35586 31172 31184 1
35587 31173 31186 un
35588 31188 31187 2
35589 31189 31188 1
35590 31190 31189 1
35591 31185 31187 1
35592 31184 31190 2
35593 31192 31191 1
35594 31193 31192 1
35595 31194 31193 2
35596 31188 31191 1
35597 31187 31194 1
35598 31196 31195 1
35599 31197 31196 1
35600 31198 31197 1
35601 31194 31195 1
35602 31193 31198 1
35603 31200 31199 un
35604 31186 31200 un
35605 31183 31199 un
35606 31202 31201 un
35607 31203 31202 1
35608 31199 31203 un
35609 31182 31201 un
35610 31205 31204 un
35611 31206 31205 un
35612 31207 31206 un
35613 31202 31204 un
35614 31201 31207 un
35615 31209 31208 un
35616 31210 31209 un
35617 31211 31210 un
35618 31206 31208 un
35619 31205 31211 un
35620 31213 31212 un
35621 31214 31213 un
35622 31215 31214 un
35623 31210 31212 un
35624 31209 31215 un
35625 31217 31216 un
35626 31181 31217 un
35627 31207 31216 un
35628 31219 31218 un
35629 31216 31219 un
35630 31208 31218 un
35631 31221 31220 un
35632 31218 31221 un
35633 31215 31220 un
35634 31223 31222 un
35635 31224 31223 un
35636 31220 31224 un
35637 31214 31222 un
35638 31226 31225 1
35639 31227 31226 1
35640 31228 31227 1
35641 31213 31225 1
35642 31212 31228 1
35643 31230 31229 1
35644 31231 31230 1
35645 31232 31231 1
35646 31227 31229 1
35647 31226 31232 1
35648 31234 31233 1
35649 31235 31234 1
35650 31236 31235 1
35651 31232 31233 1
35652 31231 31236 1
35653 31238 31237 un
35654 31239 31238 un
35655 31221 31239 un
35656 31219 31237 un
35657 31241 31240 1
35658 31242 31241 1
35659 31243 31242 1
35660 31238 31240 1
35661 31237 31243 1
35662 31245 31244 1
35663 31246 31245 1
35664 31247 31246 1
35665 31242 31244 1
35666 31241 31247 1
35667 31249 31248 un
35668 31239 31249 un
35669 31224 31248 un
35670 31251 31250 un
35671 31252 31251 un
35672 31248 31252 un
35673 31223 31250 un
35674 31254 31253 un
35675 31255 31254 un
35676 31222 31255 un
35677 31250 31253 un
35678 31257 31256 1
35679 31258 31257 un
35680 31251 31256 1
35681 31253 31258 1
35682 31260 31259 1
35683 31261 31260 1
35684 31254 31259 1
35685 31258 31261 un
35686 31263 31262 1
35687 31264 31263 1
35688 31265 31264 1
35689 31260 31262 1
35690 31259 31265 1
35691 31267 31266 1
35692 31268 31267 1
35693 31257 31268 un
35694 31261 31266 un
35695 31262 31269 1
35696 31266 31270 un
35697 31269 31270 un
35698 31196 31271 1
35699 31271 31272 1
35700 31271 31273 1
35701 31228 31274 1
35702 31276 31275 1
35703 31277 31276 un
35704 31278 31277 1
35705 31268 31275 un
35706 31267 31278 un
35707 31280 31279 un
35708 31281 31280 1
35709 31282 31281 un
35710 31278 31279 un
35711 31277 31282 un
35712 31284 31283 un
35713 31285 31284 1
35714 31286 31285 1
35715 31281 31283 un
35716 31280 31286 un
35717 31288 31287 un
35718 31289 31288 un
35719 31279 31289 un
35720 31286 31287 un
35721 31291 31290 un
35722 31292 31291 un
35723 31285 31292 un
35724 31287 31290 un
35725 31294 31293 un
35726 31288 31294 un
35727 31270 31289 un
35728 31269 31293 un
35729 31296 31295 un
35730 31294 31296 un
35731 31290 31295 un
35732 31298 31297 1
35733 31299 31298 1
35734 31300 31299 1
35735 31296 31297 1
35736 31295 31300 1
35737 31300 31301 2
35738 31155 31302 1
35739 31155 31303 1
35740 31156 31304 1
35741 31156 31305 1
35742 31157 31306 1
35743 31158 31307 1
35744 31159 31308 1
35745 31159 31309 1
35746 31161 31310 1
35747 31162 31311 1
35748 31163 31312 1
35749 31163 31313 1
35750 31164 31314 1
35751 31164 31315 1
35752 31166 31316 1
35753 31167 31317 1
35754 31168 31318 1
35755 31168 31319 1
35756 31172 31320 1
35757 31177 31321 1
35758 31177 31322 1
35759 31178 31323 1
35760 31178 31324 1
35761 31179 31325 1
35762 31179 31326 1
35763 31189 31327 1
35764 31189 31328 1
35765 31190 31329 1
35766 31191 31330 1
35767 31191 31331 1
35768 31192 31332 1
35769 31192 31333 1
35770 31195 31334 1
35771 31195 31335 1
35772 31196 31336 1
35773 31197 31337 1
35774 31197 31338 1
35775 31198 31339 1
35776 31198 31340 1
35777 31200 31341 1
35778 31204 31342 1
35779 31211 31343 1
35780 31217 31344 1
35781 31226 31345 1
35782 31227 31346 1
35783 31228 31347 1
35784 31229 31348 1
35785 31229 31349 1
35786 31230 31350 1
35787 31230 31351 1
35788 31231 31352 1
35789 31232 31353 1
35790 31233 31354 1
35791 31233 31355 1
35792 31234 31356 1
35793 31234 31357 1
35794 31235 31358 1
35795 31235 31359 1
35796 31236 31360 1
35797 31241 31361 1
35798 31242 31362 1
35799 31244 31363 1
35800 31244 31364 1
35801 31245 31365 1
35802 31245 31366 1
35803 31246 31367 1
35804 31246 31368 1
35805 31247 31369 1
35806 31247 31370 1
35807 31249 31371 1
35808 31252 31372 1
35809 31255 31373 1
35810 31259 31374 1
35811 31260 31375 1
35812 31262 31376 1
35813 31263 31377 1
35814 31263 31378 1
35815 31264 31379 1
35816 31264 31380 1
35817 31265 31381 1
35818 31265 31382 1
35819 31271 31383 1
35820 31272 31384 1
35821 31272 31385 1
35822 31272 31386 1
35823 31273 31387 1
35824 31273 31388 1
35825 31273 31389 1
35826 31274 31390 1
35827 31275 31391 1
35828 31276 31392 1
35829 31282 31393 1
35830 31283 31394 1
35831 31284 31395 1
35832 31291 31396 1
35833 31292 31397 1
35834 31293 31398 1
35835 31297 31399 1
35836 31297 31400 1
35837 31298 31401 1
35838 31298 31402 1
35839 31299 31403 1
35840 31299 31404 1
35841 31407 31406 1
35842 31408 31407 1
35843 31409 31408 1
35844 31410 31409 1
35845 31405 31406 1
35846 31405 31410 1
35847 31412 31411 1
35848 31413 31412 1
35849 31414 31413 1
35850 31408 31411 1
35851 31407 31414 1
35852 31416 31415 1
35853 31417 31416 1
35854 31418 31417 1
35855 31412 31415 1
35856 31411 31418 1
35857 31420 31419 un
35858 31421 31420 un
35859 31422 31421 un
35860 31417 31419 1
35861 31416 31422 1
35862 31424 31423 1
35863 31425 31424 un
35864 31426 31425 un
35865 31421 31423 un
35866 31420 31426 un
35867 31428 31427 1
35868 31429 31428 1
35869 31419 31429 1
35870 31426 31427 1
35871 31431 31430 1
35872 31432 31431 un
35873 31433 31432 un
35874 31425 31430 1
35875 31424 31433 un
35876 31435 31434 un
35877 31436 31435 2
35878 31422 31434 1
35879 31423 31436 un
35880 31438 31437 2
35881 31439 31438 1
35882 31440 31439 1
35883 31435 31437 1
35884 31434 31440 2
35885 31442 31441 1
35886 31443 31442 1
35887 31444 31443 2
35888 31438 31441 1
35889 31437 31444 1
35890 31446 31445 1
35891 31447 31446 1
35892 31448 31447 1
35893 31444 31445 1
35894 31443 31448 1
35895 31450 31449 un
35896 31436 31450 un
35897 31433 31449 un
35898 31452 31451 un
35899 31453 31452 1
35900 31449 31453 un
35901 31432 31451 un
35902 31455 31454 un
35903 31456 31455 un
35904 31457 31456 un
35905 31452 31454 un
35906 31451 31457 un
35907 31459 31458 un
35908 31460 31459 un
35909 31461 31460 un
35910 31456 31458 un
35911 31455 31461 un
35912 31463 31462 un
35913 31464 31463 un
35914 31465 31464 un
35915 31460 31462 un
35916 31459 31465 un
35917 31467 31466 un
35918 31431 31467 un
35919 31457 31466 un
35920 31469 31468 un
35921 31466 31469 un
35922 31458 31468 un
35923 31471 31470 un
35924 31468 31471 un
35925 31465 31470 un
35926 31473 31472 un
35927 31474 31473 un
35928 31470 31474 un
35929 31464 31472 un
35930 31476 31475 1
35931 31477 31476 1
35932 31478 31477 1
35933 31463 31475 1
35934 31462 31478 1
35935 31480 31479 1
35936 31481 31480 1
35937 31482 31481 1
35938 31477 31479 1
35939 31476 31482 1
35940 31484 31483 1
35941 31485 31484 1
35942 31486 31485 1
35943 31482 31483 1
35944 31481 31486 1
35945 31488 31487 un
35946 31489 31488 un
35947 31471 31489 un
35948 31469 31487 un
35949 31491 31490 1
35950 31492 31491 1
35951 31493 31492 1
35952 31488 31490 1
35953 31487 31493 1
35954 31495 31494 1
35955 31496 31495 1
35956 31497 31496 1
35957 31492 31494 1
35958 31491 31497 1
35959 31499 31498 un
35960 31489 31499 un
35961 31474 31498 un
35962 31501 31500 un
35963 31502 31501 un
35964 31498 31502 un
35965 31473 31500 un
35966 31504 31503 un
35967 31505 31504 un
35968 31472 31505 un
35969 31500 31503 un
35970 31507 31506 1
35971 31508 31507 un
35972 31501 31506 1
35973 31503 31508 1
35974 31510 31509 1
35975 31511 31510 1
35976 31504 31509 1
35977 31508 31511 un
35978 31513 31512 1
35979 31514 31513 1
35980 31515 31514 1
35981 31510 31512 1
35982 31509 31515 1
35983 31517 31516 1
35984 31518 31517 1
35985 31507 31518 un
35986 31511 31516 un
35987 31512 31519 1
35988 31516 31520 un
35989 31519 31520 un
35990 31446 31521 1
35991 31521 31522 1
35992 31521 31523 1
35993 31478 31524 1
35994 31526 31525 1
35995 31527 31526 un
35996 31528 31527 1
35997 31518 31525 un
35998 31517 31528 un
35999 31530 31529 un
36000 31531 31530 1
36001 31532 31531 un
36002 31528 31529 un
36003 31527 31532 un
36004 31534 31533 un
36005 31535 31534 1
36006 31536 31535 1
36007 31531 31533 un
36008 31530 31536 un
36009 31538 31537 un
36010 31539 31538 un
36011 31529 31539 un
36012 31536 31537 un
36013 31541 31540 un
36014 31542 31541 un
36015 31535 31542 un
36016 31537 31540 un
36017 31544 31543 un
36018 31538 31544 un
36019 31520 31539 un
36020 31519 31543 un
36021 31546 31545 un
36022 31544 31546 un
36023 31540 31545 un
36024 31548 31547 1
36025 31549 31548 1
36026 31550 31549 1
36027 31546 31547 1
36028 31545 31550 1
36029 31550 31551 2
36030 31405 31552 1
36031 31405 31553 1
36032 31406 31554 1
36033 31406 31555 1
36034 31407 31556 1
36035 31408 31557 1
36036 31409 31558 1
36037 31409 31559 1
36038 31411 31560 1
36039 31412 31561 1
36040 31413 31562 1
36041 31413 31563 1
36042 31414 31564 1
36043 31414 31565 1
36044 31416 31566 1
36045 31417 31567 1
36046 31418 31568 1
36047 31418 31569 1
36048 31422 31570 1
36049 31427 31571 1
36050 31427 31572 1
36051 31428 31573 1
36052 31428 31574 1
36053 31429 31575 1
36054 31429 31576 1
36055 31439 31577 1
36056 31439 31578 1
36057 31440 31579 1
36058 31441 31580 1
36059 31441 31581 1
36060 31442 31582 1
36061 31442 31583 1
36062 31445 31584 1
36063 31445 31585 1
36064 31446 31586 1
36065 31447 31587 1
36066 31447 31588 1
36067 31448 31589 1
36068 31448 31590 1
36069 31450 31591 1
36070 31454 31592 1
36071 31461 31593 1
36072 31467 31594 1
36073 31476 31595 1
36074 31477 31596 1
36075 31478 31597 1
36076 31479 31598 1
36077 31479 31599 1
36078 31480 31600 1
36079 31480 31601 1
36080 31481 31602 1
36081 31482 31603 1
36082 31483 31604 1
36083 31483 31605 1
36084 31484 31606 1
36085 31484 31607 1
36086 31485 31608 1
36087 31485 31609 1
36088 31486 31610 1
36089 31491 31611 1
36090 31492 31612 1
36091 31494 31613 1
36092 31494 31614 1
36093 31495 31615 1
36094 31495 31616 1
36095 31496 31617 1
36096 31496 31618 1
36097 31497 31619 1
36098 31497 31620 1
36099 31499 31621 1
36100 31502 31622 1
36101 31505 31623 1
36102 31509 31624 1
36103 31510 31625 1
36104 31512 31626 1
36105 31513 31627 1
36106 31513 31628 1
36107 31514 31629 1
36108 31514 31630 1
36109 31515 31631 1
36110 31515 31632 1
36111 31521 31633 1
36112 31522 31634 1
36113 31522 31635 1
36114 31522 31636 1
36115 31523 31637 1
36116 31523 31638 1
36117 31523 31639 1
36118 31524 31640 1
36119 31525 31641 1
36120 31526 31642 1
36121 31532 31643 1
36122 31533 31644 1
36123 31534 31645 1
36124 31541 31646 1
36125 31542 31647 1
36126 31543 31648 1
36127 31547 31649 1
36128 31547 31650 1
36129 31548 31651 1
36130 31548 31652 1
36131 31549 31653 1
36132 31549 31654 1
@<TRIPOS>CRYSIN
73.4947 73.4947 73.4947 90 90 90 1 1
Molecular System has 1 molecules, 31654 atoms, and 36132 bonds
