@<TRIPOS>MOLECULE
Sketch 4
130 142
SMALL
USER_CHARGES


@<TRIPOS>ATOM
1 C420 0.462554172504733 0.538901428241438 0.0837211108047908 C.Trigonal 0.0 **** 0.0
2 C421 0.471662815740016 0.526571604173605 0.0752621020361402 C 0.0 **** 0.0
3 C422 0.473670439537086 0.510709554577705 0.0823810686896247 C.Trigonal 0.0 **** 0.0
4 C423 0.467157466621676 0.507421219588543 0.0981404967504966 C.Trigonal 0.0 **** 0.0
5 C424 0.458970567063761 0.520067384423949 0.107123272074918 C 0.0 **** 0.0
6 C425 0.456439492435591 0.535781039901978 0.0998037863770624 C 0.0 **** 0.0
7 C432 0.469094610120554 0.489957254877798 0.105885865439687 C 0.0 **** 0.0
8 C433 0.474194807529976 0.475580650414545 0.0941539968861921 C.Trigonal 0.0 **** 0.0
9 C434 0.480823858166028 0.478918891040952 0.0785102004777241 C.Trigonal 0.0 **** 0.0
10 C435 0.483338002258252 0.497144073175004 0.0727732789022271 C 0.0 **** 0.0
11 C441 0.485359409050901 0.465817507217427 0.0676514561488206 C 0.0 **** 0.0
12 C442 0.482455801068449 0.449065786368298 0.0718082826627509 C 0.0 **** 0.0
13 C443 0.476913578564043 0.445232888705229 0.0881781420714768 C.Trigonal 0.0 **** 0.0
14 C444 0.472606869488535 0.458697123263779 0.0992949412078753 C.Trigonal 0.0 **** 0.0
15 C450 0.466129312175254 0.454734935242201 0.115340822874113 C 0.0 **** 0.0
16 C451 0.461194409356496 0.438430528325461 0.119503080287586 C.Trigonal 0.0 **** 0.0
17 C452 0.469303603591664 0.425345372768556 0.110430177868832 C.Trigonal 0.0 **** 0.0
18 C453 0.476073384665267 0.428336432985945 0.0944557251441062 C 0.0 **** 0.0
19 C459 0.46892922987068 0.408035738357695 0.118448605765765 C.Trigonal 0.0 **** 0.0
20 C460 0.45701223487124 0.404721067836198 0.130378656438631 C.Trigonal 0.0 **** 0.0
21 C461 0.443104751073678 0.417505276010061 0.133737189593831 C.Trigonal 0.0 **** 0.0
22 C462 0.446233868815885 0.434447121099432 0.129140957556855 C.Trigonal 0.0 **** 0.0
23 C468 0.45820430869895 0.3895359443572 0.142144245485783 C 0.0 **** 0.0
24 C469 0.47661402478511 0.383430044892494 0.14361804749211 C 0.0 **** 0.0
25 C470 0.484194575470807 0.380416222548274 0.125893101854413 C 0.0 **** 0.0
26 C471 0.484825330625706 0.397259128980573 0.11614070759473 C 0.0 **** 0.0
27 C477 0.433083691834189 0.446521079244348 0.13168218300841 C 0.0 **** 0.0
28 C478 0.417823191871797 0.441492710860092 0.138566154946158 C.Trigonal 0.0 **** 0.0
29 C479 0.414936164421822 0.424798922867841 0.142774091350571 C.Trigonal 0.0 **** 0.0
30 C480 0.427416190158775 0.412684811591073 0.140148808009445 C 0.0 **** 0.0
31 C486 0.398041267961979 0.419443855285587 0.150055822477499 C 0.0 **** 0.0
32 C487 0.38503015780642 0.432575524067054 0.152685144439358 C.Trigonal 0.0 **** 0.0
33 C488 0.387906101275949 0.448888761569108 0.148398691555199 C.Trigonal 0.0 **** 0.0
34 C489 0.404077938554176 0.454479914791019 0.141154360794727 C 0.0 **** 0.0
35 C495 0.374323213857606 0.46226788118361 0.150756062684206 C 0.0 **** 0.0
36 C496 0.363812586831861 0.458396591328646 0.166745653215763 C 0.0 **** 0.0
37 C497 0.357476238696864 0.440232690750682 0.166668182330243 C.Trigonal 0.0 **** 0.0
38 C498 0.368140671467775 0.427494973189865 0.159953739048395 C.Trigonal 0.0 **** 0.0
39 N504 0.363589918820933 0.41115866455587 0.160078670738144 N 0.0 **** 0.0
40 C505 0.349269526531397 0.406937506245047 0.168015183578282 C.Trigonal 0.0 **** 0.0
41 C506 0.337803052247559 0.419046853908095 0.174548972406359 C.Trigonal 0.0 **** 0.0
42 C507 0.341968063597598 0.435809043337431 0.173386903856146 C.Trigonal 0.0 **** 0.0
43 C513 0.330070925707496 0.44939970525337 0.180050884908122 C 0.0 **** 0.0
44 C514 0.312009938418392 0.442818535414232 0.18244620220323 C 0.0 **** 0.0
45 C515 0.312311656751422 0.426208531759107 0.192170793028192 C 0.0 **** 0.0
46 C516 0.321152750121724 0.412612170745226 0.181600322188613 C 0.0 **** 0.0
47 C522 0.324462872392497 0.396125164776839 0.19160636783838 C 0.0 **** 0.0
48 C523 0.334026473407918 0.383585216534217 0.180690211928043 C.Trigonal 0.0 **** 0.0
49 C524 0.345885855324854 0.389482117245747 0.168875483349417 C.Trigonal 0.0 **** 0.0
50 C529 0.354803580255954 0.377759342413625 0.158804052473776 C 0.0 **** 0.0
51 C530 0.352443046919643 0.360781676959278 0.161252647165786 C 0.0 **** 0.0
52 C531 0.341647818865089 0.354912100728421 0.173714640469171 C 0.0 **** 0.0
53 C532 0.332554116465672 0.366366501378837 0.183559266606122 C 0.0 **** 0.0
54 C538 0.447141357453946 0.549508473161185 0.109511363731155 C 0.0 **** 0.0
55 C540 0.459784298227056 0.56193700302515 0.117345397300321 C 0.0 **** 0.0
56 C542 0.460091692043172 0.555831429345693 0.0751701481788924 C 0.0 **** 0.0
57 C544 0.452593495517478 0.51660719224741 0.124900144353021 C 0.0 **** 0.0
58 C546 0.479269903297819 0.530248336041238 0.0580536598705984 C 0.0 **** 0.0
59 C548 0.493319715176887 0.470146797754459 0.0506675783864516 C 0.0 **** 0.0
60 C550 0.485978114178297 0.435820598195506 0.0584017700346205 C 0.0 **** 0.0
61 O552 0.48176181475798 0.415332876869315 0.0845345241692986 O 0.0 **** 0.0
62 C554 0.474424965818557 0.367117006328399 0.115506561851261 C 0.0 **** 0.0
63 C556 0.47759114430718 0.367434627429613 0.154623527394351 C 0.0 **** 0.0
64 O558 0.424641067339354 0.395814350789634 0.14350797372169 O 0.0 **** 0.0
65 O560 0.43554901914036 0.462906504454617 0.126652061182135 O 0.0 **** 0.0
66 O562 0.406527624646919 0.469147322780758 0.137208135351932 O 0.0 **** 0.0
67 O564 0.395972179977666 0.404562586722811 0.153347373090632 O 0.0 **** 0.0
68 C566 0.321465220223805 0.35990713129543 0.197764656194129 C 0.0 **** 0.0
69 C568 0.340436968344121 0.336046143146644 0.176299751318937 C 0.0 **** 0.0
70 H570 0.478232614249921 0.490595158385 0.1164372925148 H 0.0 **** 0.0
71 H572 0.456712491366629 0.486707557936866 0.111369351775445 H 0.0 **** 0.0
72 H574 0.479513734318434 0.497971203897939 0.0594190269870974 H 0.0 **** 0.0
73 H576 0.496976201602673 0.500170032131782 0.0732684347470386 H 0.0 **** 0.0
74 H578 0.462669166021691 0.465200232002039 0.123691838563736 H 0.0 **** 0.0
75 H580 0.453753331238868 0.392790411855265 0.154943207562481 H 0.0 **** 0.0
76 H582 0.450161855025935 0.379172000022548 0.137495511659634 H 0.0 **** 0.0
77 H584 0.484086283644685 0.393373122233277 0.149914083400135 H 0.0 **** 0.0
78 H586 0.497263350801907 0.375844040081989 0.127419170843054 H 0.0 **** 0.0
79 H588 0.487494110864679 0.394223670818898 0.102873513404756 H 0.0 **** 0.0
80 H590 0.495775647389649 0.404569957052493 0.12075589040844 H 0.0 **** 0.0
81 H592 0.379622845477252 0.475131859312509 0.151946590925455 H 0.0 **** 0.0
82 H594 0.366012123909268 0.462475195617432 0.139569809167884 H 0.0 **** 0.0
83 H596 0.353528655685524 0.467675148967861 0.16750990951284 H 0.0 **** 0.0
84 H598 0.371721430612588 0.460502814006687 0.178070022575116 H 0.0 **** 0.0
85 H600 0.334861155122319 0.454177113822047 0.192262755471891 H 0.0 **** 0.0
86 H602 0.329634575232731 0.460229685394116 0.171367598030546 H 0.0 **** 0.0
87 H604 0.30607294012161 0.44072073700333 0.170011500887121 H 0.0 **** 0.0
88 H606 0.304261042164334 0.452347903234997 0.189025727370332 H 0.0 **** 0.0
89 H608 0.299382980344947 0.422141287865033 0.195370197462974 H 0.0 **** 0.0
90 H610 0.319052848714654 0.428125272567131 0.204218337114899 H 0.0 **** 0.0
91 H612 0.312787381679363 0.409587874971061 0.170808361777607 H 0.0 **** 0.0
92 H614 0.331877682777494 0.398954249357275 0.203088325069229 H 0.0 **** 0.0
93 H616 0.312283818279022 0.39101583234478 0.195883450031191 H 0.0 **** 0.0
94 H618 0.364085802683652 0.382286157561905 0.149523712731285 H 0.0 **** 0.0
95 H620 0.359559615496495 0.351645899189567 0.153596339368771 H 0.0 **** 0.0
96 H622 0.43917771145716 0.544179071979403 0.119554200680413 H 0.0 **** 0.0
97 H624 0.438128025424184 0.556331750072791 0.101410740879901 H 0.0 **** 0.0
98 H626 0.467481593712056 0.56822271736965 0.107603638831481 H 0.0 **** 0.0
99 H628 0.468469204338124 0.555390007395655 0.126028353476178 H 0.0 **** 0.0
100 H630 0.453313133583996 0.571897522803923 0.124595066174478 H 0.0 **** 0.0
101 H632 0.471919684804106 0.563096219488465 0.0757240527877729 H 0.0 **** 0.0
102 H634 0.450228832667551 0.563744721370898 0.0807900567358064 H 0.0 **** 0.0
103 H636 0.456552445364788 0.554310421016103 0.0618007350723779 H 0.0 **** 0.0
104 H638 0.454770756143802 0.527431294513655 0.133355186662638 H 0.0 **** 0.0
105 H640 0.459001232360149 0.505913536283712 0.130989995115549 H 0.0 **** 0.0
106 H642 0.438942671748971 0.513829513895579 0.124881280287736 H 0.0 **** 0.0
107 H644 0.470618963438005 0.5264314273091 0.0478682863904774 H 0.0 **** 0.0
108 H646 0.491253090869184 0.523506838076075 0.0560891379745385 H 0.0 **** 0.0
109 H648 0.482198966855863 0.543690369201902 0.0562577614546015 H 0.0 **** 0.0
110 H650 0.483805029608301 0.470186950316742 0.0404883171450658 H 0.0 **** 0.0
111 H652 0.503298765814502 0.461082643460097 0.0472468428930329 H 0.0 **** 0.0
112 H654 0.499616459510878 0.48251005767599 0.0505877137562713 H 0.0 **** 0.0
113 H656 0.498173749680248 0.429444656557887 0.060559416441771 H 0.0 **** 0.0
114 H658 0.48616846501679 0.440969489339659 0.0455263662311357 H 0.0 **** 0.0
115 H660 0.475953159528445 0.42620200426063 0.0580785971281843 H 0.0 **** 0.0
116 H662 0.4763005602934 0.40518869225333 0.0879243690444834 H 0.0 **** 0.0
117 H664 0.474079961082024 0.354924145073689 0.122158476955005 H 0.0 **** 0.0
118 H666 0.480689749176848 0.365078171655321 0.10325437269749 H 0.0 **** 0.0
119 H668 0.461382501019029 0.371220333376297 0.113000451915191 H 0.0 **** 0.0
120 H670 0.473268150830253 0.370205864362253 0.167535081397939 H 0.0 **** 0.0
121 H672 0.490702485413336 0.362855367601313 0.155363149803939 H 0.0 **** 0.0
122 H674 0.469611474177327 0.357282893338791 0.14948352987517 H 0.0 **** 0.0
123 H676 0.413485045713319 0.394566658649732 0.147982381599855 H 0.0 **** 0.0
124 H678 0.425586726513282 0.469350299400531 0.128884215077919 H 0.0 **** 0.0
125 H680 0.326684541805807 0.363660000574327 0.210108459879817 H 0.0 **** 0.0
126 H682 0.320226045320907 0.346101716298186 0.197945762685995 H 0.0 **** 0.0
127 H684 0.308538237593282 0.364887652847694 0.196968264124387 H 0.0 **** 0.0
128 H686 0.344526703560569 0.332385867329525 0.189093535452565 H 0.0 **** 0.0
129 H688 0.348459718960728 0.329131455856704 0.167353416870044 H 0.0 **** 0.0
130 H690 0.32740638372516 0.331527303064461 0.174489262791159 H 0.0 **** 0.0
@<TRIPOS>BOND
1 3 2 Aromatic
2 4 3 Aromatic
3 5 4 Aromatic
4 6 5 Aromatic
5 1 2 Aromatic
6 1 6 Aromatic
7 8 7 1
8 9 8 Aromatic
9 10 9 1
10 4 7 1
11 3 10 1
12 12 11 Aromatic
13 13 12 Aromatic
14 14 13 Aromatic
15 9 11 Aromatic
16 8 14 Aromatic
17 16 15 Aromatic
18 17 16 Aromatic
19 18 17 Aromatic
20 14 15 Aromatic
21 13 18 Aromatic
22 20 19 1
23 21 20 1
24 22 21 Aromatic
25 17 19 1
26 16 22 Aromatic
27 24 23 1
28 25 24 Aromatic
29 26 25 1
30 20 23 1
31 19 26 1
32 28 27 Aromatic
33 29 28 Aromatic
34 30 29 Aromatic
35 22 27 Aromatic
36 21 30 Aromatic
37 32 31 1
38 33 32 Aromatic
39 34 33 1
40 29 31 1
41 28 34 1
42 36 35 1
43 37 36 1
44 38 37 Aromatic
45 33 35 1
46 32 38 Aromatic
47 40 39 Aromatic
48 41 40 Aromatic
49 42 41 Aromatic
50 38 39 Aromatic
51 37 42 Aromatic
52 44 43 1
53 45 44 1
54 46 45 1
55 42 43 1
56 41 46 1
57 48 47 1
58 49 48 Aromatic
59 40 49 Aromatic
60 46 47 1
61 51 50 Aromatic
62 52 51 Aromatic
63 53 52 Aromatic
64 49 50 Aromatic
65 48 53 Aromatic
66 6 54 1
67 54 55 1
68 1 56 1
69 5 57 1
70 2 58 1
71 11 59 1
72 12 60 1
73 18 61 1
74 25 62 1
75 24 63 1
76 30 64 1
77 27 65 1
78 34 66 Double
79 31 67 Double
80 53 68 1
81 52 69 1
82 7 70 1
83 7 71 1
84 10 72 1
85 10 73 1
86 15 74 1
87 23 75 1
88 23 76 1
89 24 77 1
90 25 78 1
91 26 79 1
92 26 80 1
93 35 81 1
94 35 82 1
95 36 83 1
96 36 84 1
97 43 85 1
98 43 86 1
99 44 87 1
100 44 88 1
101 45 89 1
102 45 90 1
103 46 91 1
104 47 92 1
105 47 93 1
106 50 94 1
107 51 95 1
108 54 96 1
109 54 97 1
110 55 98 1
111 55 99 1
112 55 100 1
113 56 101 1
114 56 102 1
115 56 103 1
116 57 104 1
117 57 105 1
118 57 106 1
119 58 107 1
120 58 108 1
121 58 109 1
122 59 110 1
123 59 111 1
124 59 112 1
125 60 113 1
126 60 114 1
127 60 115 1
128 61 116 1
129 62 117 1
130 62 118 1
131 62 119 1
132 63 120 1
133 63 121 1
134 63 122 1
135 64 123 1
136 65 124 1
137 68 125 1
138 68 126 1
139 68 127 1
140 69 128 1
141 69 129 1
142 69 130 1
@<TRIPOS>MOLECULE
Sketch 4
130 142
SMALL
USER_CHARGES


@<TRIPOS>ATOM
1 C692 0.562754505178723 0.812023074662536 0.894841591386175 C.Trigonal 0.0 **** 0.0
2 C693 0.566060426118272 0.816056729128577 0.878110773393062 C 0.0 **** 0.0
3 C694 0.560899682385549 0.831483154433174 0.871601948401812 C.Trigonal 0.0 **** 0.0
4 C695 0.552126100681139 0.842626524640305 0.881620142979999 C.Trigonal 0.0 **** 0.0
5 C696 0.548130419109396 0.838333140565728 0.898132176679245 C 0.0 **** 0.0
6 C697 0.553942601654255 0.823274709992912 0.904916626220661 C 0.0 **** 0.0
7 C704 0.546901563143626 0.859802001085949 0.874757439951151 C 0.0 **** 0.0
8 C705 0.5559078449155 0.866019856652576 0.858922527288335 C.Trigonal 0.0 **** 0.0
9 C706 0.564296385488411 0.85475084162514 0.848752124934821 C.Trigonal 0.0 **** 0.0
10 C707 0.56479440713137 0.836020828620879 0.853341737137312 C 0.0 **** 0.0
11 C713 0.572526620246799 0.860095344838069 0.834126784898947 C 0.0 **** 0.0
12 C714 0.573130563930168 0.877001807558454 0.829688894088419 C 0.0 **** 0.0
13 C715 0.563400241939314 0.888487185359994 0.838963142849166 C.Trigonal 0.0 **** 0.0
14 C716 0.555431345090231 0.883108621386396 0.854180509213061 C.Trigonal 0.0 **** 0.0
15 C722 0.547316341074594 0.895290090929095 0.864329324082518 C 0.0 **** 0.0
16 C723 0.5469972006275 0.912326166757708 0.860031169944135 C.Trigonal 0.0 **** 0.0
17 C724 0.550119576495068 0.915878530086347 0.842836133593956 C.Trigonal 0.0 **** 0.0
18 C725 0.560142358542286 0.905152235025713 0.833182861873449 C 0.0 **** 0.0
19 C731 0.544152824414594 0.932732062984004 0.836392198942147 C.Trigonal 0.0 **** 0.0
20 C732 0.541750746833007 0.945396351353547 0.847641428053381 C.Trigonal 0.0 **** 0.0
21 C733 0.547215280201429 0.942898249073801 0.865759739421476 C.Trigonal 0.0 **** 0.0
22 C734 0.548217478083925 0.926174793416843 0.871892770577022 C.Trigonal 0.0 **** 0.0
23 C740 0.53189132339942 0.961306290709888 0.843341720250105 C 0.0 **** 0.0
24 C741 0.519535860513423 0.957916778543865 0.828723261044166 C 0.0 **** 0.0
25 C742 0.528986543649863 0.949983709161708 0.813568013064931 C 0.0 **** 0.0
26 C743 0.536523391711279 0.932722164942458 0.818670273779677 C 0.0 **** 0.0
27 C749 0.553922399114294 0.923788766876571 0.888812808619211 C 0.0 **** 0.0
28 C750 0.558850261973945 0.937601774872753 0.898389059810249 C.Trigonal 0.0 **** 0.0
29 C751 0.558100254960859 0.953804057417799 0.891916028324139 C.Trigonal 0.0 **** 0.0
30 C752 0.552463454754026 0.956538040452935 0.875527562716345 C 0.0 **** 0.0
31 C758 0.563602304870694 0.968805875865324 0.902433717067094 C 0.0 **** 0.0
32 C759 0.569767142627658 0.965616992433512 0.919710961249123 C.Trigonal 0.0 **** 0.0
33 C760 0.570662665214981 0.949722509871253 0.925995467672881 C.Trigonal 0.0 **** 0.0
34 C761 0.565422903409317 0.934847372772271 0.916082457047869 C 0.0 **** 0.0
35 C767 0.577257690419961 0.946477660840559 0.943730335393123 C 0.0 **** 0.0
36 C768 0.572581642694802 0.961270621521489 0.955628289523714 C 0.0 **** 0.0
37 C769 0.577237925122388 0.978286671322758 0.947943046386505 C.Trigonal 0.0 **** 0.0
38 C770 0.57532142466079 0.980490658378179 0.930281084640528 C.Trigonal 0.0 **** 0.0
39 N776 0.578281541438604 0.995431428029331 0.92286957996332 N 0.0 **** 0.0
40 C777 0.58242097344404 1.00864879838478 0.932640281016866 C.Trigonal 0.0 **** 0.0
41 C778 0.585275202283231 1.00711992555634 0.950260164355479 C.Trigonal 0.0 **** 0.0
42 C779 0.582754076803404 0.991671200040277 0.957721743039799 C.Trigonal 0.0 **** 0.0
43 C785 0.585262782807541 0.989161752371329 0.976680765950022 C 0.0 **** 0.0
44 C786 0.594278089415728 1.00401895158497 0.985261990467892 C 0.0 **** 0.0
45 C787 0.587611558112879 1.02085971243321 0.978714539767698 C 0.0 **** 0.0
46 C788 0.591784677677993 1.02241261106927 0.95987704195994 C 0.0 **** 0.0
47 C794 0.584553508760531 1.03880533011369 0.952072917122096 C 0.0 **** 0.0
48 C795 0.587297886142656 1.03890145651213 0.933112367867423 C.Trigonal 0.0 **** 0.0
49 C796 0.584936137812333 1.02392537415989 0.923876459791129 C.Trigonal 0.0 **** 0.0
50 C801 0.58615283215773 1.02437128022125 0.906048755426646 C 0.0 **** 0.0
51 C802 0.590648461310775 1.03910742690263 0.898113760467312 C 0.0 **** 0.0
52 C803 0.593660494294693 1.05373865057257 0.907264087441505 C 0.0 **** 0.0
53 C804 0.591688617494539 1.05365215241369 0.924795738988961 C 0.0 **** 0.0
54 C810 0.550752388956996 0.819485728204365 0.923441413535398 C 0.0 **** 0.0
55 C812 0.534895315265609 0.808666808412043 0.925607972758662 C 0.0 **** 0.0
56 C814 0.569080978262811 0.795218680140617 0.901552650333707 C 0.0 **** 0.0
57 C816 0.537767666685104 0.850434092240312 0.908847202532252 C 0.0 **** 0.0
58 C818 0.575903774874864 0.803892972195429 0.867012068757033 C 0.0 **** 0.0
59 C820 0.581233915894585 0.847052047659861 0.822960417720016 C 0.0 **** 0.0
60 C822 0.583666760282256 0.881949370316371 0.814459234603678 C 0.0 **** 0.0
61 O824 0.566706866957074 0.910970521314927 0.81802023074941 O 0.0 **** 0.0
62 C826 0.54308250736188 0.961460824347713 0.806603128417707 C 0.0 **** 0.0
63 C828 0.51048396308939 0.974412369096643 0.82378113257228 C 0.0 **** 0.0
64 O830 0.552193643634167 0.972418185939209 0.868372042235327 O 0.0 **** 0.0
65 O832 0.555207073221426 0.907679761915886 0.895049408313724 O 0.0 **** 0.0
66 O834 0.566328417806276 0.920561894153368 0.921719243394242 O 0.0 **** 0.0
67 O836 0.562609530761444 0.982814464837525 0.896171917462166 O 0.0 **** 0.0
68 C838 0.594495521960141 1.06979563755162 0.934720442957105 C 0.0 **** 0.0
69 C840 0.598936470758829 1.06944417624873 0.897715498981228 C 0.0 **** 0.0
70 H842 0.533118012059091 0.859875088865532 0.872441691732209 H 0.0 **** 0.0
71 H844 0.549365195768883 0.868958173700785 0.884932806945379 H 0.0 **** 0.0
72 H846 0.577578611002049 0.831341402217821 0.850534904438976 H 0.0 **** 0.0
73 H848 0.556016076907146 0.829047190038814 0.844988160524704 H 0.0 **** 0.0
74 H850 0.542329708180826 0.891358114207643 0.87660946002569 H 0.0 **** 0.0
75 H852 0.524518181577619 0.965673952751266 0.854309889258084 H 0.0 **** 0.0
76 H854 0.540596668908872 0.971593217589969 0.83986577433173 H 0.0 **** 0.0
77 H856 0.50988459357001 0.948850158874709 0.833075388067872 H 0.0 **** 0.0
78 H858 0.519831894204294 0.947799931920343 0.803303580060155 H 0.0 **** 0.0
79 H860 0.545711519636333 0.928945111280862 0.808940117718027 H 0.0 **** 0.0
80 H862 0.526330787774722 0.923208874408151 0.818301260724885 H 0.0 **** 0.0
81 H864 0.572222539269845 0.934656930796733 0.94919487673181 H 0.0 **** 0.0
82 H866 0.591097624798949 0.944980402121975 0.943316150071138 H 0.0 **** 0.0
83 H868 0.578783179973073 0.959055555294477 0.96785400726684 H 0.0 **** 0.0
84 H870 0.55884939711177 0.960959879493934 0.958172651084932 H 0.0 **** 0.0
85 H872 0.572774147360986 0.987397917034279 0.982630287118796 H 0.0 **** 0.0
86 H874 0.592586266265859 0.977594000746213 0.97922546207574 H 0.0 **** 0.0
87 H876 0.60797194457325 1.00330504149284 0.982693132850631 H 0.0 **** 0.0
88 H878 0.592782275085403 1.00311106320466 0.999065670338537 H 0.0 **** 0.0
89 H880 0.593261617495226 1.03148224354218 0.985766486150454 H 0.0 **** 0.0
90 H882 0.573826558458598 1.02161649837341 0.980713203530224 H 0.0 **** 0.0
91 H884 0.605718078800423 1.02284436549102 0.958598821609054 H 0.0 **** 0.0
92 H886 0.570892275084247 1.03970729342762 0.954843427575935 H 0.0 **** 0.0
93 H888 0.590545461081207 1.04963107712383 0.958386233472511 H 0.0 **** 0.0
94 H890 0.58405226893506 1.0128306797883 0.898597654611274 H 0.0 **** 0.0
95 H892 0.591828731649891 1.03937188849502 0.88427494673997 H 0.0 **** 0.0
96 H894 0.549495431117926 0.831198827746024 0.930820227885535 H 0.0 **** 0.0
97 H896 0.561643939251541 0.813059131457976 0.929156817937445 H 0.0 **** 0.0
98 H898 0.536249779067541 0.796637339021825 0.918809013996358 H 0.0 **** 0.0
99 H900 0.523677109155854 0.815195962662561 0.920619768509557 H 0.0 **** 0.0
100 H902 0.53243864515051 0.805678311811191 0.938966744888856 H 0.0 **** 0.0
101 H904 0.582865036654615 0.794149172483428 0.899960138348075 H 0.0 **** 0.0
102 H906 0.563236896755148 0.784618892503632 0.894715386443142 H 0.0 **** 0.0
103 H908 0.566399523653896 0.792979138215879 0.914939851094519 H 0.0 **** 0.0
104 H910 0.529302161553502 0.858373596264322 0.901219733274589 H 0.0 **** 0.0
105 H912 0.545989930980572 0.858892192884481 0.916259801909409 H 0.0 **** 0.0
106 H914 0.529412883227813 0.843756315920383 0.917718074644322 H 0.0 **** 0.0
107 H916 0.589510168739676 0.806857138335871 0.867252949610847 H 0.0 **** 0.0
108 H918 0.571717649213456 0.80434194610166 0.85377685602247 H 0.0 **** 0.0
109 H920 0.574536668758308 0.79065844413468 0.870914003465491 H 0.0 **** 0.0
110 H922 0.594789750375428 0.846036709446952 0.826008566033611 H 0.0 **** 0.0
111 H924 0.580101678377674 0.850207219658355 0.80946173869489 H 0.0 **** 0.0
112 H926 0.575688995978336 0.834377204495191 0.824069649888345 H 0.0 **** 0.0
113 H928 0.575782891204703 0.883457226346515 0.803074769253734 H 0.0 **** 0.0
114 H930 0.593581631389807 0.872704532137734 0.811502880461562 H 0.0 **** 0.0
115 H932 0.59062626960065 0.893792640279279 0.816597394637742 H 0.0 **** 0.0
116 H934 0.57704759818075 0.91658511048865 0.820731506013524 H 0.0 **** 0.0
117 H936 0.537953585725888 0.973648997459916 0.802356333792726 H 0.0 **** 0.0
118 H938 0.549132670072664 0.955370645408521 0.795673632525771 H 0.0 **** 0.0
119 H940 0.552866257121724 0.963796922266452 0.81619067117284 H 0.0 **** 0.0
120 H942 0.503114885025558 0.979239561995312 0.83452740145977 H 0.0 **** 0.0
121 H944 0.501781572240944 0.972208794148658 0.813166494952374 H 0.0 **** 0.0
122 H946 0.51961800400527 0.984218981831286 0.820110358463939 H 0.0 **** 0.0
123 H948 0.555701051869536 0.980520512160672 0.876628556910595 H 0.0 **** 0.0
124 H950 0.559767147656931 0.908064248766792 0.906228829781944 H 0.0 **** 0.0
125 H952 0.584367987471378 1.07189733758756 0.944010919627564 H 0.0 **** 0.0
126 H954 0.594742856514258 1.08112613900901 0.926728531535951 H 0.0 **** 0.0
127 H956 0.606586019502093 1.06939176936774 0.941633490575987 H 0.0 **** 0.0
128 H958 0.589473982483976 1.07958270104004 0.898950247211459 H 0.0 **** 0.0
129 H960 0.600516626618341 1.06694601170463 0.884152368294556 H 0.0 **** 0.0
130 H962 0.611096367359087 1.07436596119187 0.902383404985988 H 0.0 **** 0.0
@<TRIPOS>BOND
1 3 2 Aromatic
2 4 3 Aromatic
3 5 4 Aromatic
4 6 5 Aromatic
5 1 2 Aromatic
6 1 6 Aromatic
7 8 7 1
8 9 8 Aromatic
9 10 9 1
10 4 7 1
11 3 10 1
12 12 11 Aromatic
13 13 12 Aromatic
14 14 13 Aromatic
15 9 11 Aromatic
16 8 14 Aromatic
17 16 15 Aromatic
18 17 16 Aromatic
19 18 17 Aromatic
20 14 15 Aromatic
21 13 18 Aromatic
22 20 19 1
23 21 20 1
24 22 21 Aromatic
25 17 19 1
26 16 22 Aromatic
27 24 23 1
28 25 24 Aromatic
29 26 25 1
30 20 23 1
31 19 26 1
32 28 27 Aromatic
33 29 28 Aromatic
34 30 29 Aromatic
35 22 27 Aromatic
36 21 30 Aromatic
37 32 31 1
38 33 32 Aromatic
39 34 33 1
40 29 31 1
41 28 34 1
42 36 35 1
43 37 36 1
44 38 37 Aromatic
45 33 35 1
46 32 38 Aromatic
47 40 39 Aromatic
48 41 40 Aromatic
49 42 41 Aromatic
50 38 39 Aromatic
51 37 42 Aromatic
52 44 43 1
53 45 44 1
54 46 45 1
55 42 43 1
56 41 46 1
57 48 47 1
58 49 48 Aromatic
59 40 49 Aromatic
60 46 47 1
61 51 50 Aromatic
62 52 51 Aromatic
63 53 52 Aromatic
64 49 50 Aromatic
65 48 53 Aromatic
66 6 54 1
67 54 55 1
68 1 56 1
69 5 57 1
70 2 58 1
71 11 59 1
72 12 60 1
73 18 61 1
74 25 62 1
75 24 63 1
76 30 64 1
77 27 65 1
78 34 66 Double
79 31 67 Double
80 53 68 1
81 52 69 1
82 7 70 1
83 7 71 1
84 10 72 1
85 10 73 1
86 15 74 1
87 23 75 1
88 23 76 1
89 24 77 1
90 25 78 1
91 26 79 1
92 26 80 1
93 35 81 1
94 35 82 1
95 36 83 1
96 36 84 1
97 43 85 1
98 43 86 1
99 44 87 1
100 44 88 1
101 45 89 1
102 45 90 1
103 46 91 1
104 47 92 1
105 47 93 1
106 50 94 1
107 51 95 1
108 54 96 1
109 54 97 1
110 55 98 1
111 55 99 1
112 55 100 1
113 56 101 1
114 56 102 1
115 56 103 1
116 57 104 1
117 57 105 1
118 57 106 1
119 58 107 1
120 58 108 1
121 58 109 1
122 59 110 1
123 59 111 1
124 59 112 1
125 60 113 1
126 60 114 1
127 60 115 1
128 61 116 1
129 62 117 1
130 62 118 1
131 62 119 1
132 63 120 1
133 63 121 1
134 63 122 1
135 64 123 1
136 65 124 1
137 68 125 1
138 68 126 1
139 68 127 1
140 69 128 1
141 69 129 1
142 69 130 1
@<TRIPOS>MOLECULE
Sketch 4
130 142
SMALL
USER_CHARGES


@<TRIPOS>ATOM
1 C964 0.627214709325704 0.819165008932913 0.816715464343605 C.Trigonal 0.0 **** 0.0
2 C965 0.626330234394987 0.823422893122147 0.799747745120049 C 0.0 **** 0.0
3 C966 0.629054347647109 0.839997829245008 0.794933966803755 C.Trigonal 0.0 **** 0.0
4 C967 0.633892270888189 0.851895155271379 0.806701644792841 C.Trigonal 0.0 **** 0.0
5 C968 0.63571072207297 0.84748532905247 0.823516994979368 C 0.0 **** 0.0
6 C969 0.63213923593027 0.831115230186383 0.828572350466573 C 0.0 **** 0.0
7 C976 0.637056089219677 0.869779935001116 0.800343282692352 C 0.0 **** 0.0
8 C977 0.623471760337182 0.875221043466789 0.787936556857743 C.Trigonal 0.0 **** 0.0
9 C978 0.618136431446462 0.863272765477179 0.776467593881753 C.Trigonal 0.0 **** 0.0
10 C979 0.626794108715629 0.846055657175614 0.776863344226403 C 0.0 **** 0.0
11 C985 0.605059109362021 0.866733806748831 0.765305795939112 C 0.0 **** 0.0
12 C986 0.596279698711672 0.881861619914133 0.766294310008448 C 0.0 **** 0.0
13 C987 0.603126676468577 0.89503684345829 0.776022914193785 C.Trigonal 0.0 **** 0.0
14 C988 0.616934777522954 0.89162911658999 0.786937499989548 C.Trigonal 0.0 **** 0.0
15 C994 0.624167044402193 0.905008903264119 0.795853231228002 C 0.0 **** 0.0
16 C995 0.61789362334588 0.921570643492383 0.795464053571125 C.Trigonal 0.0 **** 0.0
17 C996 0.604643213471454 0.925048210096964 0.783744630741323 C.Trigonal 0.0 **** 0.0
18 C997 0.597624177399819 0.911991097975048 0.774119374177665 C 0.0 **** 0.0
19 C1003 0.598953088045637 0.943453883037893 0.781846282164291 C.Trigonal 0.0 **** 0.0
20 C1004 0.608003183004077 0.955912306721666 0.789463226297035 C.Trigonal 0.0 **** 0.0
21 C1005 0.623452977494972 0.95181282614954 0.799842054017667 C.Trigonal 0.0 **** 0.0
22 C1006 0.625748896254274 0.934960838479139 0.804962765615711 C.Trigonal 0.0 **** 0.0
23 C1012 0.601485000426323 0.973970898412732 0.791012922453376 C 0.0 **** 0.0
24 C1013 0.582170670980451 0.974319358442776 0.789485180047833 C 0.0 **** 0.0
25 C1014 0.5768408906619 0.965985236767723 0.772733437297996 C 0.0 **** 0.0
26 C1015 0.582262581476556 0.947243768224115 0.772668350624058 C 0.0 **** 0.0
27 C1021 0.637463153912065 0.931946118523255 0.818252809840259 C 0.0 **** 0.0
28 C1022 0.64852555037 0.944640949698749 0.823105485078257 C.Trigonal 0.0 **** 0.0
29 C1023 0.647936841129289 0.960376902995742 0.815584325621872 C.Trigonal 0.0 **** 0.0
30 C1024 0.63552940814107 0.964094740316486 0.803727808399005 C 0.0 **** 0.0
31 C1030 0.660045098997315 0.97410626811248 0.820913481825688 C 0.0 **** 0.0
32 C1031 0.671473363804343 0.970561000117871 0.835181791420438 C.Trigonal 0.0 **** 0.0
33 C1032 0.67229152120353 0.955139100565652 0.842464678871149 C.Trigonal 0.0 **** 0.0
34 C1033 0.661267688368086 0.941232412228232 0.836883660225514 C 0.0 **** 0.0
35 C1039 0.684644234418786 0.951602576281462 0.856762737677636 C 0.0 **** 0.0
36 C1040 0.700662554013635 0.962908455648177 0.855566919178289 C 0.0 **** 0.0
37 C1041 0.696269043588665 0.9813128892663 0.852037508355063 C.Trigonal 0.0 **** 0.0
38 C1042 0.682081152118518 0.984819563090922 0.841757394980275 C.Trigonal 0.0 **** 0.0
39 N1048 0.677232036891441 1.00060561889315 0.838405682271563 N 0.0 **** 0.0
40 C1049 0.686525740060692 1.01340349681388 0.844403385864956 C.Trigonal 0.0 **** 0.0
41 C1050 0.701621899699267 1.010864887755 0.853601090889384 C.Trigonal 0.0 **** 0.0
42 C1051 0.706099701719004 0.994596132990104 0.857741797186203 C.Trigonal 0.0 **** 0.0
43 C1057 0.721580019294609 0.990972901347214 0.868634219705873 C 0.0 **** 0.0
44 C1058 0.733576795168938 1.00614818370382 0.870022726191303 C 0.0 **** 0.0
45 C1059 0.723801220087016 1.02250267518879 0.87285408936176 C 0.0 **** 0.0
46 C1060 0.712606190960366 1.0261072651717 0.85751517092244 C 0.0 **** 0.0
47 C1066 0.701857051167916 1.04234411822972 0.85997331334491 C 0.0 **** 0.0
48 C1067 0.687903188478574 1.04391209535741 0.846891582056124 C.Trigonal 0.0 **** 0.0
49 C1068 0.680326527813611 1.02943483662836 0.840050305888101 C.Trigonal 0.0 **** 0.0
50 C1073 0.666591848850923 1.03115177920367 0.828743383406868 C 0.0 **** 0.0
51 C1074 0.660939440484556 1.04690277600014 0.824403816185546 C 0.0 **** 0.0
52 C1075 0.668497654222929 1.06124400075454 0.830953331358392 C 0.0 **** 0.0
53 C1076 0.68195722046256 1.05971960622457 0.84226553228659 C 0.0 **** 0.0
54 C1082 0.633358353479188 0.826181442596138 0.847089291627087 C 0.0 **** 0.0
55 C1084 0.617116835018073 0.831479187457177 0.856201819474028 C 0.0 **** 0.0
56 C1086 0.62286165733672 0.801345426971573 0.822362954315876 C 0.0 **** 0.0
57 C1088 0.641081964500913 0.860988725402368 0.835940392876937 C 0.0 **** 0.0
58 C1090 0.622038272261718 0.81016859615486 0.786591225355343 C 0.0 **** 0.0
59 C1092 0.599990701884579 0.853330916227773 0.75251147462931 C 0.0 **** 0.0
60 C1094 0.580199742162475 0.88328505732923 0.755904797648119 C 0.0 **** 0.0
61 O1096 0.585551646668112 0.915892439095689 0.762370342246733 O 0.0 **** 0.0
62 C1098 0.584038263776027 0.975050175358487 0.757026646552939 C 0.0 **** 0.0
63 C1100 0.575375965386521 0.992482229195212 0.791065360111578 C 0.0 **** 0.0
64 O1102 0.634447812567214 0.979638598048246 0.795958038690192 O 0.0 **** 0.0
65 O1104 0.637550247439623 0.916448083550619 0.82606438253752 O 0.0 **** 0.0
66 O1106 0.661996669298786 0.927218169433457 0.843130592908515 O 0.0 **** 0.0
67 O1108 0.65979697047939 0.98741586318547 0.813220473509676 O 0.0 **** 0.0
68 C1110 0.690130907827446 1.07543748204905 0.849516356175725 C 0.0 **** 0.0
69 C1112 0.661640241134153 1.07810666555384 0.825318893601283 C 0.0 **** 0.0
70 H1114 0.637501853740634 0.878527229132012 0.811022988058831 H 0.0 **** 0.0
71 H1116 0.649556392973765 0.870452889715699 0.794163276165898 H 0.0 **** 0.0
72 H1118 0.639191942897505 0.846817320213692 0.770459122700676 H 0.0 **** 0.0
73 H1120 0.619379672767415 0.836802157370541 0.769786259143229 H 0.0 **** 0.0
74 H1122 0.63565259565316 0.902187220702522 0.802981048503268 H 0.0 **** 0.0
75 H1124 0.604744485395817 0.97943787268023 0.803418216739579 H 0.0 **** 0.0
76 H1126 0.607226052519418 0.982093638850437 0.781298219849621 H 0.0 **** 0.0
77 H1128 0.576875904695879 0.966873052280255 0.799986982860567 H 0.0 **** 0.0
78 H1130 0.562956647886671 0.966437465398288 0.771802580798313 H 0.0 **** 0.0
79 H1132 0.58301364506741 0.943398153262749 0.759328499323605 H 0.0 **** 0.0
80 H1134 0.572089150453609 0.93978902773743 0.778620316432403 H 0.0 **** 0.0
81 H1136 0.67834518826133 0.954049117140939 0.868894379653568 H 0.0 **** 0.0
82 H1138 0.688640622876705 0.938232760174552 0.857078487255764 H 0.0 **** 0.0
83 H1140 0.709003390676699 0.958100189411376 0.845452802023048 H 0.0 **** 0.0
84 H1142 0.707727105870176 0.961526271668618 0.867477636326208 H 0.0 **** 0.0
85 H1144 0.717303886285169 0.987503305137382 0.881471574661924 H 0.0 **** 0.0
86 H1146 0.72864361882743 0.980020081373073 0.863719669180112 H 0.0 **** 0.0
87 H1148 0.741006549468855 1.00734819421692 0.858283724290807 H 0.0 **** 0.0
88 H1150 0.742668984349422 1.00407306840887 0.88036289801487 H 0.0 **** 0.0
89 H1152 0.732529735479283 1.03316750798061 0.87495537982358 H 0.0 **** 0.0
90 H1154 0.715998233942052 1.02136193853157 0.884340325497223 H 0.0 **** 0.0
91 H1156 0.721014164854978 1.0282696645831 0.846542752290338 H 0.0 **** 0.0
92 H1158 0.69621854340553 1.04211792653031 0.872707635795505 H 0.0 **** 0.0
93 H1160 0.710456869237207 1.05326715924188 0.859723821422804 H 0.0 **** 0.0
94 H1162 0.660474291848714 1.0199573798468 0.823227551117157 H 0.0 **** 0.0
95 H1164 0.650316495755985 1.04812749950853 0.815526758536273 H 0.0 **** 0.0
96 H1166 0.644464810185609 0.831850254884747 0.85323778868479 H 0.0 **** 0.0
97 H1168 0.635336974157203 0.812513760409666 0.848669743352224 H 0.0 **** 0.0
98 H1170 0.615286273040487 0.845266366632845 0.85575583917019 H 0.0 **** 0.0
99 H1172 0.617192912358813 0.827689965193329 0.869565467849799 H 0.0 **** 0.0
100 H1174 0.606025515677567 0.82556558173652 0.850245390507138 H 0.0 **** 0.0
101 H1176 0.614728271841647 0.794640873424152 0.813336261519398 H 0.0 **** 0.0
102 H1178 0.615730401345388 0.80128971190119 0.834299965420877 H 0.0 **** 0.0
103 H1180 0.634360708897966 0.793715527693261 0.82420710075867 H 0.0 **** 0.0
104 H1182 0.631077300848612 0.870568979152603 0.837476185182964 H 0.0 **** 0.0
105 H1184 0.652595871752282 0.86745102805084 0.831577016367117 H 0.0 **** 0.0
106 H1186 0.643981064019152 0.85620592922002 0.848570380980002 H 0.0 **** 0.0
107 H1188 0.62803880365046 0.812811546002507 0.77434087907285 H 0.0 **** 0.0
108 H1190 0.608286658153427 0.809340960561774 0.784541044733959 H 0.0 **** 0.0
109 H1192 0.626608546258615 0.797537607501004 0.790140993676277 H 0.0 **** 0.0
110 H1194 0.593710168635579 0.858653531557603 0.7413287514772 H 0.0 **** 0.0
111 H1196 0.591439591689817 0.843902355556602 0.75817452715841 H 0.0 **** 0.0
112 H1198 0.611063061516455 0.846620224695285 0.747425796558156 H 0.0 **** 0.0
113 H1200 0.570329158845677 0.890628634492195 0.762413140238333 H 0.0 **** 0.0
114 H1202 0.574202406651683 0.870884166149459 0.753979805634188 H 0.0 **** 0.0
115 H1204 0.582532679545921 0.8887369849965 0.743297720931427 H 0.0 **** 0.0
116 H1206 0.583002714660353 0.905918449872811 0.756292028333948 H 0.0 **** 0.0
117 H1208 0.580172861628842 0.988391498786392 0.756738261445712 H 0.0 **** 0.0
118 H1210 0.579200061790135 0.969028201476845 0.745462594910388 H 0.0 **** 0.0
119 H1212 0.597909113647759 0.974383962874763 0.756720317868388 H 0.0 **** 0.0
120 H1214 0.578769138224243 0.997840360194315 0.803442181022926 H 0.0 **** 0.0
121 H1216 0.561517721373785 0.992599677122906 0.789960001278633 H 0.0 **** 0.0
122 H1218 0.580627320938517 1.00068222655313 0.781176832277115 H 0.0 **** 0.0
123 H1220 0.643654706853121 0.98665034177622 0.799522069743794 H 0.0 **** 0.0
124 H1222 0.646633127874196 0.916040662846277 0.834035963049741 H 0.0 **** 0.0
125 H1224 0.691811592561916 1.07445149437025 0.863286634291431 H 0.0 **** 0.0
126 H1226 0.682694924527156 1.08692775164453 0.84733844791691 H 0.0 **** 0.0
127 H1228 0.702668044535511 1.07750439462953 0.843844196394261 H 0.0 **** 0.0
128 H1230 0.671747167954452 1.08577123756748 0.819741802488492 H 0.0 **** 0.0
129 H1232 0.65609788783352 1.08529821807552 0.835839299187153 H 0.0 **** 0.0
130 H1234 0.651763286048464 1.07671553976908 0.815658858570193 H 0.0 **** 0.0
@<TRIPOS>BOND
1 3 2 Aromatic
2 4 3 Aromatic
3 5 4 Aromatic
4 6 5 Aromatic
5 1 2 Aromatic
6 1 6 Aromatic
7 8 7 1
8 9 8 Aromatic
9 10 9 1
10 4 7 1
11 3 10 1
12 12 11 Aromatic
13 13 12 Aromatic
14 14 13 Aromatic
15 9 11 Aromatic
16 8 14 Aromatic
17 16 15 Aromatic
18 17 16 Aromatic
19 18 17 Aromatic
20 14 15 Aromatic
21 13 18 Aromatic
22 20 19 1
23 21 20 1
24 22 21 Aromatic
25 17 19 1
26 16 22 Aromatic
27 24 23 1
28 25 24 Aromatic
29 26 25 1
30 20 23 1
31 19 26 1
32 28 27 Aromatic
33 29 28 Aromatic
34 30 29 Aromatic
35 22 27 Aromatic
36 21 30 Aromatic
37 32 31 1
38 33 32 Aromatic
39 34 33 1
40 29 31 1
41 28 34 1
42 36 35 1
43 37 36 1
44 38 37 Aromatic
45 33 35 1
46 32 38 Aromatic
47 40 39 Aromatic
48 41 40 Aromatic
49 42 41 Aromatic
50 38 39 Aromatic
51 37 42 Aromatic
52 44 43 1
53 45 44 1
54 46 45 1
55 42 43 1
56 41 46 1
57 48 47 1
58 49 48 Aromatic
59 40 49 Aromatic
60 46 47 1
61 51 50 Aromatic
62 52 51 Aromatic
63 53 52 Aromatic
64 49 50 Aromatic
65 48 53 Aromatic
66 6 54 1
67 54 55 1
68 1 56 1
69 5 57 1
70 2 58 1
71 11 59 1
72 12 60 1
73 18 61 1
74 25 62 1
75 24 63 1
76 30 64 1
77 27 65 1
78 34 66 Double
79 31 67 Double
80 53 68 1
81 52 69 1
82 7 70 1
83 7 71 1
84 10 72 1
85 10 73 1
86 15 74 1
87 23 75 1
88 23 76 1
89 24 77 1
90 25 78 1
91 26 79 1
92 26 80 1
93 35 81 1
94 35 82 1
95 36 83 1
96 36 84 1
97 43 85 1
98 43 86 1
99 44 87 1
100 44 88 1
101 45 89 1
102 45 90 1
103 46 91 1
104 47 92 1
105 47 93 1
106 50 94 1
107 51 95 1
108 54 96 1
109 54 97 1
110 55 98 1
111 55 99 1
112 55 100 1
113 56 101 1
114 56 102 1
115 56 103 1
116 57 104 1
117 57 105 1
118 57 106 1
119 58 107 1
120 58 108 1
121 58 109 1
122 59 110 1
123 59 111 1
124 59 112 1
125 60 113 1
126 60 114 1
127 60 115 1
128 61 116 1
129 62 117 1
130 62 118 1
131 62 119 1
132 63 120 1
133 63 121 1
134 63 122 1
135 64 123 1
136 65 124 1
137 68 125 1
138 68 126 1
139 68 127 1
140 69 128 1
141 69 129 1
142 69 130 1
@<TRIPOS>MOLECULE
Sketch 4
130 142
SMALL
USER_CHARGES


@<TRIPOS>ATOM
1 C1236 0.0561104574202962 0.868200821574061 0.183841038204392 C.Trigonal 0.0 **** 0.0
2 C1237 0.0717124759250011 0.860236935741516 0.183280962674901 C 0.0 **** 0.0
3 C1238 0.0841546841513171 0.866092735543541 0.172445607194181 C.Trigonal 0.0 **** 0.0
4 C1239 0.0811874492415378 0.880258251625124 0.162842534364138 C.Trigonal 0.0 **** 0.0
5 C1240 0.0658527959976087 0.888682312994049 0.163860019045881 C 0.0 **** 0.0
6 C1241 0.0531916483017359 0.882469630059081 0.1741956377733 C 0.0 **** 0.0
7 C1248 0.0947242697320014 0.887094824466101 0.151222190513545 C 0.0 **** 0.0
8 C1249 0.111186862219247 0.877389081604134 0.149634039204646 C.Trigonal 0.0 **** 0.0
9 C1250 0.114296036258692 0.863249470247323 0.159074879245424 C.Trigonal 0.0 **** 0.0
10 C1251 0.101046753449689 0.856869778544242 0.171551367433091 C 0.0 **** 0.0
11 C1257 0.129515285244669 0.854514504804484 0.157426880265135 C 0.0 **** 0.0
12 C1258 0.141983839400386 0.859772744422538 0.146290241342991 C 0.0 **** 0.0
13 C1259 0.13960535178667 0.874913960036784 0.137455203039477 C.Trigonal 0.0 **** 0.0
14 C1260 0.123787882307168 0.883380754899514 0.138700236829267 C.Trigonal 0.0 **** 0.0
15 C1266 0.121801192515099 0.899222588104232 0.130789729797785 C 0.0 **** 0.0
16 C1267 0.135786049453653 0.908915790017303 0.126740644328766 C.Trigonal 0.0 **** 0.0
17 C1268 0.150070294263659 0.899395491430347 0.12209100629749 C.Trigonal 0.0 **** 0.0
18 C1269 0.152801363691755 0.883162853169621 0.128359137889527 C 0.0 **** 0.0
19 C1275 0.163917453181869 0.908877898500666 0.113423519274632 C.Trigonal 0.0 **** 0.0
20 C1276 0.166312994975692 0.925308243722502 0.117507855889007 C.Trigonal 0.0 **** 0.0
21 C1277 0.154813537380576 0.933306837615938 0.130561206254125 C.Trigonal 0.0 **** 0.0
22 C1278 0.138696003009014 0.926012007118351 0.132956259659657 C.Trigonal 0.0 **** 0.0
23 C1284 0.17885918217483 0.93652304876386 0.108185525302939 C 0.0 **** 0.0
24 C1285 0.183488210474217 0.929119418231259 0.0907749788903349 C 0.0 **** 0.0
25 C1286 0.187680103695888 0.910065792035066 0.0921265443871503 C 0.0 **** 0.0
26 C1287 0.171873180342587 0.900431342804883 0.0980690535636595 C 0.0 **** 0.0
27 C1293 0.127609466689889 0.934009772002003 0.14465703420478 C 0.0 **** 0.0
28 C1294 0.133439282225972 0.947091001447773 0.154723894615497 C.Trigonal 0.0 **** 0.0
29 C1295 0.149618698480554 0.953344291129302 0.1528185198349 C.Trigonal 0.0 **** 0.0
30 C1296 0.160413339423025 0.946491032955244 0.140775872315695 C 0.0 **** 0.0
31 C1302 0.155747436364744 0.967880130631182 0.163629303484112 C 0.0 **** 0.0
32 C1303 0.143902807877486 0.975186404700409 0.1760868362206 C.Trigonal 0.0 **** 0.0
33 C1304 0.128258467635028 0.968649980083375 0.178330509845556 C.Trigonal 0.0 **** 0.0
34 C1305 0.121939296402887 0.954479093296028 0.168049329235555 C 0.0 **** 0.0
35 C1311 0.116467789361885 0.975581086384684 0.191810843599491 C 0.0 **** 0.0
36 C1312 0.118959925965783 0.994832726727473 0.194143131653033 C 0.0 **** 0.0
37 C1313 0.137545387391752 0.99964095299832 0.195590040825775 C.Trigonal 0.0 **** 0.0
38 C1314 0.1496415872064 0.990163125268114 0.186389289394198 C.Trigonal 0.0 **** 0.0
39 N1320 0.165946329048212 0.994589926710962 0.186147292212679 N 0.0 **** 0.0
40 C1321 0.170672778316376 1.0086456330796 0.194309542677833 C.Trigonal 0.0 **** 0.0
41 C1322 0.159467033184171 1.01814727026171 0.204496454264642 C.Trigonal 0.0 **** 0.0
42 C1323 0.142802478383248 1.01338187510527 0.205038879867491 C.Trigonal 0.0 **** 0.0
43 C1329 0.129921397084906 1.02344611042782 0.215263375950588 C 0.0 **** 0.0
44 C1330 0.138181405881312 1.03548377543868 0.227990251554087 C 0.0 **** 0.0
45 C1331 0.152741890827028 1.04505061044665 0.219859449965266 C 0.0 **** 0.0
46 C1332 0.166680592959843 1.03267938724662 0.21473877570217 C 0.0 **** 0.0
47 C1338 0.180992043247285 1.04155155258008 0.204793354203594 C 0.0 **** 0.0
48 C1339 0.193531233635002 1.02873427261178 0.197983129670022 C.Trigonal 0.0 **** 0.0
49 C1340 0.187816618389869 1.0128971225057 0.192399777485386 C.Trigonal 0.0 **** 0.0
50 C1345 0.199348294235232 1.00161608606807 0.184740832885789 C 0.0 **** 0.0
51 C1346 0.215975684851464 1.00611008831421 0.183176491172417 C 0.0 **** 0.0
52 C1347 0.221734609310873 1.02164065889143 0.188868308287031 C 0.0 **** 0.0
53 C1348 0.210411450651511 1.03302100439291 0.196169882546399 C 0.0 **** 0.0
54 C1354 0.0362430999014312 0.89141493910767 0.174983614504839 C 0.0 **** 0.0
55 C1356 0.0241748164222742 0.884247061874668 0.161618466503174 C 0.0 **** 0.0
56 C1358 0.0424620764472328 0.861243007958934 0.195297599574637 C 0.0 **** 0.0
57 C1360 0.062702591709161 0.904766104343885 0.153851804677034 C 0.0 **** 0.0
58 C1362 0.0749409271362801 0.845014424678496 0.19448813469959 C 0.0 **** 0.0
59 C1364 0.132353549377673 0.838688654139242 0.168007356485633 C 0.0 **** 0.0
60 C1366 0.157962727025528 0.849228925266288 0.144997644687032 C 0.0 **** 0.0
61 O1368 0.168328271217889 0.875698384823136 0.126699637704815 O 0.0 **** 0.0
62 C1370 0.202481763650223 0.906369683977466 0.104193869612114 C 0.0 **** 0.0
63 C1372 0.198294984955091 0.939141612559725 0.0831319479756899 C 0.0 **** 0.0
64 O1374 0.176745003366137 0.9521685526861 0.138692891823519 O 0.0 **** 0.0
65 O1376 0.111419389072394 0.92812700889529 0.146365570652412 O 0.0 **** 0.0
66 O1378 0.107884148868632 0.948588556140774 0.170154438364466 O 0.0 **** 0.0
67 O1380 0.170087396715608 0.972967837955451 0.161361139067739 O 0.0 **** 0.0
68 C1382 0.216394183341394 1.05025094334984 0.202017016886436 C 0.0 **** 0.0
69 C1384 0.240262064840916 1.02547361264867 0.186251775068863 C 0.0 **** 0.0
70 H1386 0.0892523624441347 0.88810661059002 0.138431270983652 H 0.0 **** 0.0
71 H1388 0.0976947666302804 0.90002360015059 0.155515793708807 H 0.0 **** 0.0
72 H1390 0.106744243022986 0.857283000821263 0.184275934796037 H 0.0 **** 0.0
73 H1392 0.0984575082266922 0.843464652543475 0.168665737797433 H 0.0 **** 0.0
74 H1394 0.10948464016406 0.90531062911809 0.132164345734567 H 0.0 **** 0.0
75 H1396 0.173683748332578 0.949332389288563 0.106286024855321 H 0.0 **** 0.0
76 H1398 0.190462182239911 0.937855331978289 0.115768429397827 H 0.0 **** 0.0
77 H1400 0.1725298225653 0.930548038433434 0.0822958219096644 H 0.0 **** 0.0
78 H1402 0.191130767321966 0.905372111564048 0.0794749392720911 H 0.0 **** 0.0
79 H1404 0.175248388229742 0.887092104614379 0.100076756142317 H 0.0 **** 0.0
80 H1406 0.162514814626829 0.900453817735918 0.0877296038652055 H 0.0 **** 0.0
81 H1408 0.103029880237316 0.973208837936451 0.188845526097311 H 0.0 **** 0.0
82 H1410 0.119015972053105 0.969056993040739 0.203862726044204 H 0.0 **** 0.0
83 H1412 0.111562328846548 0.998746123797257 0.20522402514585 H 0.0 **** 0.0
84 H1414 0.113358628679302 1.00151868629174 0.183245130342841 H 0.0 **** 0.0
85 H1416 0.121962523898299 1.03086111550268 0.206509658721869 H 0.0 **** 0.0
86 H1418 0.121416157259055 1.01494799843473 0.222249238914808 H 0.0 **** 0.0
87 H1420 0.142995233346364 1.02821645331181 0.238846780732209 H 0.0 **** 0.0
88 H1422 0.128747027604248 1.0443958590631 0.232981971865548 H 0.0 **** 0.0
89 H1424 0.157869028256806 1.0545726660285 0.228652739316622 H 0.0 **** 0.0
90 H1426 0.148066736625899 1.05193162736749 0.208661712355491 H 0.0 **** 0.0
91 H1428 0.172286486179354 1.02747025781726 0.226428236307867 H 0.0 **** 0.0
92 H1430 0.17552103341597 1.0487785795864 0.194162723670118 H 0.0 **** 0.0
93 H1432 0.186995410589206 1.05083651041488 0.213212039972796 H 0.0 **** 0.0
94 H1434 0.195092708027167 0.98924606024676 0.180070826207761 H 0.0 **** 0.0
95 H1436 0.224910086049409 0.997250078621273 0.177292467361578 H 0.0 **** 0.0
96 H1438 0.0376080495887235 0.905125160606244 0.173115749922899 H 0.0 **** 0.0
97 H1440 0.0305722791375526 0.890090498740239 0.187581805930799 H 0.0 **** 0.0
98 H1442 0.0219088469240686 0.870663709990053 0.163605389676614 H 0.0 **** 0.0
99 H1444 0.0293663894285016 0.885799079382113 0.148810777173048 H 0.0 **** 0.0
100 H1446 0.0118310681412112 0.890660643860998 0.161947944334668 H 0.0 **** 0.0
101 H1448 0.0431375694431626 0.847421652293221 0.196046724501772 H 0.0 **** 0.0
102 H1450 0.02963099339511 0.864023465007354 0.190814284869285 H 0.0 **** 0.0
103 H1452 0.0436471707329515 0.866322843380091 0.208221750221073 H 0.0 **** 0.0
104 H1454 0.0728520302004753 0.908010745846184 0.145005778169826 H 0.0 **** 0.0
105 H1456 0.0613092208666488 0.915708009068208 0.162362141811426 H 0.0 **** 0.0
106 H1458 0.0511190539937597 0.903816231111225 0.146209086646589 H 0.0 **** 0.0
107 H1460 0.0883890248410065 0.842067366788922 0.196127544377187 H 0.0 **** 0.0
108 H1462 0.0688559506890318 0.833615218223943 0.189297266751106 H 0.0 **** 0.0
109 H1464 0.0700263847653096 0.847114606423401 0.207330849119839 H 0.0 **** 0.0
110 H1466 0.145225436554023 0.838301508221766 0.173229363003563 H 0.0 **** 0.0
111 H1468 0.130444071802286 0.827169489998134 0.160402592269258 H 0.0 **** 0.0
112 H1470 0.123997429268807 0.837722582431707 0.179022673150602 H 0.0 **** 0.0
113 H1472 0.162082149509592 0.847676030066752 0.131822596335119 H 0.0 **** 0.0
114 H1474 0.156454584781975 0.836269664260327 0.149670494551448 H 0.0 **** 0.0
115 H1476 0.168454281277424 0.854982454344305 0.15210178711042 H 0.0 **** 0.0
116 H1478 0.175877743147529 0.883985673520011 0.122454629016593 H 0.0 **** 0.0
117 H1480 0.213877870015014 0.913201495496886 0.100200399608829 H 0.0 **** 0.0
118 H1482 0.20536099510176 0.892781395760967 0.10406818891813 H 0.0 **** 0.0
119 H1484 0.199501188735486 0.910092149932351 0.11725105600998 H 0.0 **** 0.0
120 H1486 0.194501223182036 0.952317851131894 0.0808092884094865 H 0.0 **** 0.0
121 H1488 0.202218555198332 0.933531465709931 0.0710588772689136 H 0.0 **** 0.0
122 H1490 0.209237492503723 0.939256745773194 0.0917068885822488 H 0.0 **** 0.0
123 H1492 0.178711203168371 0.96132574877489 0.146335564252886 H 0.0 **** 0.0
124 H1494 0.105913462053434 0.934056427976373 0.155329456882677 H 0.0 **** 0.0
125 H1496 0.209079851673327 1.06043783343329 0.195960620785133 H 0.0 **** 0.0
126 H1498 0.229705532724104 1.05272056564121 0.199141132681106 H 0.0 **** 0.0
127 H1500 0.215017140508078 1.05159468756281 0.215815804451991 H 0.0 **** 0.0
128 H1502 0.242120229089391 1.03338737492392 0.174965779281316 H 0.0 **** 0.0
129 H1504 0.247589165096812 1.01382677374804 0.184327795497186 H 0.0 **** 0.0
130 H1506 0.24594352274218 1.03196373254157 0.197134328933952 H 0.0 **** 0.0
@<TRIPOS>BOND
1 3 2 Aromatic
2 4 3 Aromatic
3 5 4 Aromatic
4 6 5 Aromatic
5 1 2 Aromatic
6 1 6 Aromatic
7 8 7 1
8 9 8 Aromatic
9 10 9 1
10 4 7 1
11 3 10 1
12 12 11 Aromatic
13 13 12 Aromatic
14 14 13 Aromatic
15 9 11 Aromatic
16 8 14 Aromatic
17 16 15 Aromatic
18 17 16 Aromatic
19 18 17 Aromatic
20 14 15 Aromatic
21 13 18 Aromatic
22 20 19 1
23 21 20 1
24 22 21 Aromatic
25 17 19 1
26 16 22 Aromatic
27 24 23 1
28 25 24 Aromatic
29 26 25 1
30 20 23 1
31 19 26 1
32 28 27 Aromatic
33 29 28 Aromatic
34 30 29 Aromatic
35 22 27 Aromatic
36 21 30 Aromatic
37 32 31 1
38 33 32 Aromatic
39 34 33 1
40 29 31 1
41 28 34 1
42 36 35 1
43 37 36 1
44 38 37 Aromatic
45 33 35 1
46 32 38 Aromatic
47 40 39 Aromatic
48 41 40 Aromatic
49 42 41 Aromatic
50 38 39 Aromatic
51 37 42 Aromatic
52 44 43 1
53 45 44 1
54 46 45 1
55 42 43 1
56 41 46 1
57 48 47 1
58 49 48 Aromatic
59 40 49 Aromatic
60 46 47 1
61 51 50 Aromatic
62 52 51 Aromatic
63 53 52 Aromatic
64 49 50 Aromatic
65 48 53 Aromatic
66 6 54 1
67 54 55 1
68 1 56 1
69 5 57 1
70 2 58 1
71 11 59 1
72 12 60 1
73 18 61 1
74 25 62 1
75 24 63 1
76 30 64 1
77 27 65 1
78 34 66 Double
79 31 67 Double
80 53 68 1
81 52 69 1
82 7 70 1
83 7 71 1
84 10 72 1
85 10 73 1
86 15 74 1
87 23 75 1
88 23 76 1
89 24 77 1
90 25 78 1
91 26 79 1
92 26 80 1
93 35 81 1
94 35 82 1
95 36 83 1
96 36 84 1
97 43 85 1
98 43 86 1
99 44 87 1
100 44 88 1
101 45 89 1
102 45 90 1
103 46 91 1
104 47 92 1
105 47 93 1
106 50 94 1
107 51 95 1
108 54 96 1
109 54 97 1
110 55 98 1
111 55 99 1
112 55 100 1
113 56 101 1
114 56 102 1
115 56 103 1
116 57 104 1
117 57 105 1
118 57 106 1
119 58 107 1
120 58 108 1
121 58 109 1
122 59 110 1
123 59 111 1
124 59 112 1
125 60 113 1
126 60 114 1
127 60 115 1
128 61 116 1
129 62 117 1
130 62 118 1
131 62 119 1
132 63 120 1
133 63 121 1
134 63 122 1
135 64 123 1
136 65 124 1
137 68 125 1
138 68 126 1
139 68 127 1
140 69 128 1
141 69 129 1
142 69 130 1
@<TRIPOS>MOLECULE
Sketch 4
130 142
SMALL
USER_CHARGES


@<TRIPOS>ATOM
1 C1508 0.254006334005842 0.456150144414862 0.282740373306014 C.Trigonal 0.0 **** 0.0
2 C1509 0.244785617331353 0.450927134717355 0.296675641964766 C 0.0 **** 0.0
3 C1510 0.243570825979294 0.433895650991936 0.300569036978663 C.Trigonal 0.0 **** 0.0
4 C1511 0.251604665104754 0.422085723084469 0.290681146476486 C.Trigonal 0.0 **** 0.0
5 C1512 0.26131200107662 0.427318625176926 0.277050587067727 C 0.0 **** 0.0
6 C1513 0.262543028395435 0.444343285860658 0.273084165417094 C 0.0 **** 0.0
7 C1520 0.250215434490361 0.403300984419208 0.294720059583325 C 0.0 **** 0.0
8 C1521 0.238784454617975 0.397914582270239 0.309218009633939 C.Trigonal 0.0 **** 0.0
9 C1522 0.231339999833785 0.409780216914318 0.319374156741787 C.Trigonal 0.0 **** 0.0
10 C1523 0.233368422295054 0.42860505828795 0.31592079150483 C 0.0 **** 0.0
11 C1529 0.222292047221489 0.405012905860064 0.333706973464296 C 0.0 **** 0.0
12 C1530 0.220625741830144 0.388231925608199 0.338291306310709 C 0.0 **** 0.0
13 C1531 0.225871159087795 0.375841470057519 0.326835210886532 C.Trigonal 0.0 **** 0.0
14 C1532 0.235764298700958 0.38074482802284 0.312657757765494 C.Trigonal 0.0 **** 0.0
15 C1538 0.243548962747079 0.367926251656526 0.303098753410766 C 0.0 **** 0.0
16 C1539 0.244931118290582 0.351557831457023 0.309279385376271 C.Trigonal 0.0 **** 0.0
17 C1540 0.231780287321732 0.346400075874236 0.320299703852895 C.Trigonal 0.0 **** 0.0
18 C1541 0.222271710254029 0.358474865568115 0.329119794017624 C 0.0 **** 0.0
19 C1547 0.230209988147006 0.327616681944511 0.323592906924037 C.Trigonal 0.0 **** 0.0
20 C1548 0.244100081420283 0.317856568730009 0.321407443708133 C.Trigonal 0.0 **** 0.0
21 C1549 0.260827305221647 0.326063577970618 0.317361801388014 C.Trigonal 0.0 **** 0.0
22 C1550 0.260538317328352 0.341944089165221 0.309304623006346 C.Trigonal 0.0 **** 0.0
23 C1556 0.243412936336524 0.298682842006059 0.320918538163219 C 0.0 **** 0.0
24 C1557 0.225810639080551 0.292749358675561 0.315308612009094 C 0.0 **** 0.0
25 C1558 0.212059155954416 0.300682245925054 0.326660581421591 C 0.0 **** 0.0
26 C1559 0.212492421723061 0.320220532069768 0.325693201409787 C 0.0 **** 0.0
27 C1565 0.276359862225842 0.34939992577764 0.305133547380122 C 0.0 **** 0.0
28 C1566 0.291222880721061 0.342082287266641 0.310804922969079 C.Trigonal 0.0 **** 0.0
29 C1567 0.291074468955191 0.327155185025204 0.319828150745341 C.Trigonal 0.0 **** 0.0
30 C1568 0.275899135482547 0.318983360514011 0.323083427611159 C 0.0 **** 0.0
31 C1574 0.307330210120689 0.319711572593785 0.326586392010351 C 0.0 **** 0.0
32 C1575 0.323085868734453 0.329209334549851 0.323669678246181 C.Trigonal 0.0 **** 0.0
33 C1576 0.323272789210123 0.343666427972123 0.314556696638857 C.Trigonal 0.0 **** 0.0
34 C1577 0.307758397617336 0.350914947210334 0.307437933450825 C 0.0 **** 0.0
35 C1583 0.33967306186446 0.35315251400747 0.311386516639429 C 0.0 **** 0.0
36 C1584 0.354661795830734 0.340678757237748 0.310081072397894 C 0.0 **** 0.0
37 C1585 0.354802687146002 0.32894194028926 0.325273545115424 C.Trigonal 0.0 **** 0.0
38 C1586 0.339169249844601 0.322819722486414 0.33148982061893 C.Trigonal 0.0 **** 0.0
39 N1592 0.338346245990001 0.312080863950572 0.344544896603557 N 0.0 **** 0.0
40 C1593 0.352804302679609 0.30758023578403 0.352101829989245 C.Trigonal 0.0 **** 0.0
41 C1594 0.368693338600072 0.314424199521366 0.347501745602918 C.Trigonal 0.0 **** 0.0
42 C1595 0.369575337273087 0.324179110457536 0.333203629987305 C.Trigonal 0.0 **** 0.0
43 C1601 0.38656156963307 0.330001757241297 0.326569564494045 C 0.0 **** 0.0
44 C1602 0.400109330065337 0.317143787444161 0.331694669498093 C 0.0 **** 0.0
45 C1603 0.400787312047544 0.315531750684888 0.350929800002065 C 0.0 **** 0.0
46 C1604 0.383726078970846 0.310507908160404 0.358820420433033 C 0.0 **** 0.0
47 C1610 0.382820995766715 0.291715038839726 0.364137754914636 C 0.0 **** 0.0
48 C1611 0.365580245121507 0.287860698977661 0.371753819493692 C.Trigonal 0.0 **** 0.0
49 C1612 0.351049869674815 0.295609306106912 0.365124248829352 C.Trigonal 0.0 **** 0.0
50 C1617 0.334987605486457 0.29122220091109 0.371597379880178 C 0.0 **** 0.0
51 C1618 0.333761704681354 0.279741747244003 0.384501849668781 C 0.0 **** 0.0
52 C1619 0.348054969725938 0.272181407280416 0.391216443546376 C 0.0 **** 0.0
53 C1620 0.363951831461657 0.27616643733762 0.38467823589885 C 0.0 **** 0.0
54 C1626 0.273395274832133 0.450063535996008 0.258294695860663 C 0.0 **** 0.0
55 C1628 0.262852347424732 0.451172990490137 0.242053499443162 C 0.0 **** 0.0
56 C1630 0.255003952830039 0.474873698470488 0.27862686368692 C 0.0 **** 0.0
57 C1632 0.270977685702592 0.414514626078962 0.266599460170931 C 0.0 **** 0.0
58 C1634 0.236086613234437 0.464112068651589 0.307535774169536 C 0.0 **** 0.0
59 C1636 0.215031381484371 0.418928244471351 0.344793432996649 C 0.0 **** 0.0
60 C1638 0.212920366965761 0.384586984234122 0.355391916616846 C 0.0 **** 0.0
61 O1640 0.210517448389577 0.35300519937252 0.340575869529647 O 0.0 **** 0.0
62 C1642 0.213417112922735 0.295043689342622 0.345203414871376 C 0.0 **** 0.0
63 C1644 0.22504282246727 0.27330787125161 0.315604766527855 C 0.0 **** 0.0
64 O1646 0.275181270738077 0.30417399224249 0.332232680151319 O 0.0 **** 0.0
65 O1648 0.276701373753504 0.364380035157267 0.296444229367124 O 0.0 **** 0.0
66 O1650 0.307893012595651 0.363907075858892 0.299246792428743 O 0.0 **** 0.0
67 O1652 0.306635782197738 0.306346409879088 0.334184922074799 O 0.0 **** 0.0
68 C1654 0.379457281916346 0.267540798735606 0.391829032606799 C 0.0 **** 0.0
69 C1656 0.345738406528065 0.259568202496559 0.405404198341785 C 0.0 **** 0.0
70 H1658 0.245795540761614 0.396775194397964 0.283246721290258 H 0.0 **** 0.0
71 H1660 0.263065146163481 0.398474367296346 0.297320694373744 H 0.0 **** 0.0
72 H1662 0.2392134258748 0.434389197557019 0.327201784341997 H 0.0 **** 0.0
73 H1664 0.220672807533747 0.434197348920746 0.314587220200074 H 0.0 **** 0.0
74 H1666 0.251329491896217 0.372097682032835 0.292470161679252 H 0.0 **** 0.0
75 H1668 0.252764301475075 0.29357298044036 0.311919521576488 H 0.0 **** 0.0
76 H1670 0.246424133939381 0.293385945788549 0.333426873138085 H 0.0 **** 0.0
77 H1672 0.223661110637954 0.296972711819501 0.302201684392626 H 0.0 **** 0.0
78 H1674 0.199714874087583 0.296383493597245 0.322003588774578 H 0.0 **** 0.0
79 H1676 0.206099708507719 0.32516316283428 0.33699033333083 H 0.0 **** 0.0
80 H1678 0.204814082924152 0.32419956248163 0.314821541151753 H 0.0 **** 0.0
81 H1680 0.339210930866017 0.360767261383094 0.299721017015146 H 0.0 **** 0.0
82 H1682 0.341973546919418 0.362110754048872 0.321813476578056 H 0.0 **** 0.0
83 H1684 0.366347306426796 0.348146789092712 0.309093922274346 H 0.0 **** 0.0
84 H1686 0.353659859442654 0.333309880949984 0.298263693847514 H 0.0 **** 0.0
85 H1688 0.386499784448496 0.331135575341743 0.312701091992038 H 0.0 **** 0.0
86 H1690 0.389772144401569 0.342590280081418 0.331649053973797 H 0.0 **** 0.0
87 H1692 0.412452519007793 0.321253581216095 0.326793670697338 H 0.0 **** 0.0
88 H1694 0.397383010159741 0.304771675872582 0.32586811474768 H 0.0 **** 0.0
89 H1696 0.404560212938309 0.327942311250909 0.356042230365165 H 0.0 **** 0.0
90 H1698 0.410820902554454 0.306696621928523 0.354849713155734 H 0.0 **** 0.0
91 H1700 0.382272901668501 0.317944529198919 0.370590978103708 H 0.0 **** 0.0
92 H1702 0.385174249016088 0.283464904495767 0.353124395291145 H 0.0 **** 0.0
93 H1704 0.393075322937383 0.289335197808444 0.373206245760685 H 0.0 **** 0.0
94 H1706 0.323492298771639 0.297078327582786 0.366424742785635 H 0.0 **** 0.0
95 H1708 0.321249949163221 0.276443031626548 0.389563608862213 H 0.0 **** 0.0
96 H1710 0.284161191103588 0.441477470998235 0.256292181548675 H 0.0 **** 0.0
97 H1712 0.279302124474308 0.462392045805916 0.260943574550696 H 0.0 **** 0.0
98 H1714 0.252243014703839 0.460054525980601 0.24348101576347 H 0.0 **** 0.0
99 H1716 0.257512046584911 0.438802219486603 0.238653366663766 H 0.0 **** 0.0
100 H1718 0.270534891654989 0.455508268424809 0.231293191786561 H 0.0 **** 0.0
101 H1720 0.265391411315781 0.480961460631198 0.285660192959137 H 0.0 **** 0.0
102 H1722 0.243259578313119 0.481582588831225 0.281809867433754 H 0.0 **** 0.0
103 H1724 0.257089843891045 0.477356405971465 0.265137474623021 H 0.0 **** 0.0
104 H1726 0.266370555654509 0.401513023504851 0.267954282903125 H 0.0 **** 0.0
105 H1728 0.284460835955166 0.414500497906098 0.270124692718017 H 0.0 **** 0.0
106 H1730 0.270107704360117 0.417381425447641 0.253040987837679 H 0.0 **** 0.0
107 H1732 0.231957910280174 0.459406448252979 0.319895665247669 H 0.0 **** 0.0
108 H1734 0.224815191467663 0.469184414685177 0.301117045974918 H 0.0 **** 0.0
109 H1736 0.244685787926758 0.474704084677156 0.310226749719512 H 0.0 **** 0.0
110 H1738 0.204988904168146 0.414507448750717 0.353267658213532 H 0.0 **** 0.0
111 H1740 0.209165557465401 0.429071476463361 0.337342384254073 H 0.0 **** 0.0
112 H1742 0.225021645244735 0.42471359901209 0.352564608246468 H 0.0 **** 0.0
113 H1744 0.199099519195404 0.384681244010703 0.354883568598243 H 0.0 **** 0.0
114 H1746 0.21686367629434 0.394019399420217 0.364811857228716 H 0.0 **** 0.0
115 H1748 0.216970782071768 0.372588468765621 0.3609319853862 H 0.0 **** 0.0
116 H1750 0.20441363849329 0.362582234409993 0.34444983336606 H 0.0 **** 0.0
117 H1752 0.212092825628451 0.281265174933881 0.346351374309254 H 0.0 **** 0.0
118 H1754 0.203196486053324 0.300813238752037 0.352636274558601 H 0.0 **** 0.0
119 H1756 0.22560945357704 0.298858709279647 0.350587657084246 H 0.0 **** 0.0
120 H1758 0.234781559551974 0.26798380405078 0.307253756576954 H 0.0 **** 0.0
121 H1760 0.212613612265125 0.268860645968069 0.311264667565798 H 0.0 **** 0.0
122 H1762 0.227365557232568 0.268362727671396 0.328383081323868 H 0.0 **** 0.0
123 H1764 0.286435510378378 0.300849258165022 0.335134235091466 H 0.0 **** 0.0
124 H1766 0.28816253914007 0.367907859222133 0.295074089219676 H 0.0 **** 0.0
125 H1768 0.386325296716764 0.275925313106599 0.400585737078838 H 0.0 **** 0.0
126 H1770 0.388178799852142 0.263859987509441 0.381698875647827 H 0.0 **** 0.0
127 H1772 0.376484749834886 0.255875840137476 0.398728192925329 H 0.0 **** 0.0
128 H1774 0.348870613410962 0.246648385954209 0.401249243527366 H 0.0 **** 0.0
129 H1776 0.332625037974321 0.259326695556965 0.409964802312284 H 0.0 **** 0.0
130 H1778 0.353771352095706 0.262639238690547 0.416345438563588 H 0.0 **** 0.0
@<TRIPOS>BOND
1 3 2 Aromatic
2 4 3 Aromatic
3 5 4 Aromatic
4 6 5 Aromatic
5 1 2 Aromatic
6 1 6 Aromatic
7 8 7 1
8 9 8 Aromatic
9 10 9 1
10 4 7 1
11 3 10 1
12 12 11 Aromatic
13 13 12 Aromatic
14 14 13 Aromatic
15 9 11 Aromatic
16 8 14 Aromatic
17 16 15 Aromatic
18 17 16 Aromatic
19 18 17 Aromatic
20 14 15 Aromatic
21 13 18 Aromatic
22 20 19 1
23 21 20 1
24 22 21 Aromatic
25 17 19 1
26 16 22 Aromatic
27 24 23 1
28 25 24 Aromatic
29 26 25 1
30 20 23 1
31 19 26 1
32 28 27 Aromatic
33 29 28 Aromatic
34 30 29 Aromatic
35 22 27 Aromatic
36 21 30 Aromatic
37 32 31 1
38 33 32 Aromatic
39 34 33 1
40 29 31 1
41 28 34 1
42 36 35 1
43 37 36 1
44 38 37 Aromatic
45 33 35 1
46 32 38 Aromatic
47 40 39 Aromatic
48 41 40 Aromatic
49 42 41 Aromatic
50 38 39 Aromatic
51 37 42 Aromatic
52 44 43 1
53 45 44 1
54 46 45 1
55 42 43 1
56 41 46 1
57 48 47 1
58 49 48 Aromatic
59 40 49 Aromatic
60 46 47 1
61 51 50 Aromatic
62 52 51 Aromatic
63 53 52 Aromatic
64 49 50 Aromatic
65 48 53 Aromatic
66 6 54 1
67 54 55 1
68 1 56 1
69 5 57 1
70 2 58 1
71 11 59 1
72 12 60 1
73 18 61 1
74 25 62 1
75 24 63 1
76 30 64 1
77 27 65 1
78 34 66 Double
79 31 67 Double
80 53 68 1
81 52 69 1
82 7 70 1
83 7 71 1
84 10 72 1
85 10 73 1
86 15 74 1
87 23 75 1
88 23 76 1
89 24 77 1
90 25 78 1
91 26 79 1
92 26 80 1
93 35 81 1
94 35 82 1
95 36 83 1
96 36 84 1
97 43 85 1
98 43 86 1
99 44 87 1
100 44 88 1
101 45 89 1
102 45 90 1
103 46 91 1
104 47 92 1
105 47 93 1
106 50 94 1
107 51 95 1
108 54 96 1
109 54 97 1
110 55 98 1
111 55 99 1
112 55 100 1
113 56 101 1
114 56 102 1
115 56 103 1
116 57 104 1
117 57 105 1
118 57 106 1
119 58 107 1
120 58 108 1
121 58 109 1
122 59 110 1
123 59 111 1
124 59 112 1
125 60 113 1
126 60 114 1
127 60 115 1
128 61 116 1
129 62 117 1
130 62 118 1
131 62 119 1
132 63 120 1
133 63 121 1
134 63 122 1
135 64 123 1
136 65 124 1
137 68 125 1
138 68 126 1
139 68 127 1
140 69 128 1
141 69 129 1
142 69 130 1
@<TRIPOS>MOLECULE
Sketch 4
130 142
SMALL
USER_CHARGES


@<TRIPOS>ATOM
1 C1780 0.694287338160271 0.77024219434213 0.355264664874989 C.Trigonal 0.0 **** 0.0
2 C1781 0.6975347647293 0.769479915761366 0.338078751579864 C 0.0 **** 0.0
3 C1782 0.711516485533797 0.777674522051529 0.331413005928114 C.Trigonal 0.0 **** 0.0
4 C1783 0.722778128143218 0.78563302789795 0.341998657261302 C.Trigonal 0.0 **** 0.0
5 C1784 0.720147090074848 0.785525489932104 0.359334083048992 C 0.0 **** 0.0
6 C1785 0.70569606737749 0.778119160392838 0.365935950512005 C 0.0 **** 0.0
7 C1792 0.738282897593791 0.79436874816246 0.334746867095786 C 0.0 **** 0.0
8 C1793 0.738455882645719 0.797897549755563 0.315859294170354 C.Trigonal 0.0 **** 0.0
9 C1794 0.72701714524948 0.790283929057154 0.305332211534573 C.Trigonal 0.0 **** 0.0
10 C1795 0.714388307740528 0.777538790253461 0.312378978787471 C 0.0 **** 0.0
11 C1801 0.726836370139234 0.794016369721178 0.288116096279091 C 0.0 **** 0.0
12 C1802 0.737514543893977 0.806048618845808 0.281229837161288 C 0.0 **** 0.0
13 C1803 0.750651495745883 0.812366523323605 0.291260342265366 C.Trigonal 0.0 **** 0.0
14 C1804 0.750768460241386 0.808474658285214 0.308766973756233 C.Trigonal 0.0 **** 0.0
15 C1810 0.763566229699613 0.815395470074822 0.318780810153512 C 0.0 **** 0.0
16 C1811 0.774344959887261 0.82799499332633 0.312806956915236 C.Trigonal 0.0 **** 0.0
17 C1812 0.776250819230231 0.829307496568246 0.294990611835156 C.Trigonal 0.0 **** 0.0
18 C1813 0.764573823784096 0.821547921532196 0.284324843790722 C 0.0 **** 0.0
19 C1819 0.791611478091253 0.83905139239007 0.28866087858917 C.Trigonal 0.0 **** 0.0
20 C1820 0.802098740010596 0.846572242309421 0.300093776142189 C.Trigonal 0.0 **** 0.0
21 C1821 0.796235428579238 0.84942768002837 0.318200945555921 C.Trigonal 0.0 **** 0.0
22 C1822 0.782123121119416 0.840072631969414 0.323797401552633 C.Trigonal 0.0 **** 0.0
23 C1828 0.819781115539876 0.852512968805296 0.29526729145841 C 0.0 **** 0.0
24 C1829 0.82613127444123 0.844315476174671 0.278857434806167 C 0.0 **** 0.0
25 C1830 0.812539105663091 0.847123042578303 0.265278267604792 C 0.0 **** 0.0
26 C1831 0.796211706122012 0.837633053415468 0.269906970801103 C 0.0 **** 0.0
27 C1837 0.774739415392653 0.844254540121227 0.339721371195705 C 0.0 **** 0.0
28 C1838 0.78200140270565 0.856596110489683 0.349686024876591 C.Trigonal 0.0 **** 0.0
29 C1839 0.796766628867546 0.864461942337426 0.344763891069538 C.Trigonal 0.0 **** 0.0
30 C1840 0.803687722381731 0.861359765557832 0.328886676651249 C 0.0 **** 0.0
31 C1846 0.805252764084747 0.877079374413505 0.356361757813353 C 0.0 **** 0.0
32 C1847 0.796573973933725 0.881512472893081 0.372211668475363 C.Trigonal 0.0 **** 0.0
33 C1848 0.781514617919159 0.874635619874605 0.376427872139105 C.Trigonal 0.0 **** 0.0
34 C1849 0.773351706797452 0.861705393278052 0.365904360720866 C 0.0 **** 0.0
35 C1855 0.772357579105337 0.880417206417312 0.392294653516033 C 0.0 **** 0.0
36 C1856 0.775418040540499 0.899563172883662 0.394977815114528 C 0.0 **** 0.0
37 C1857 0.794279121316104 0.903325697409082 0.395110716445908 C.Trigonal 0.0 **** 0.0
38 C1858 0.804702225628756 0.894136842519652 0.383838564082073 C.Trigonal 0.0 **** 0.0
39 N1864 0.821453630092421 0.896374671016047 0.383344596426315 N 0.0 **** 0.0
40 C1865 0.828115441138304 0.908757033275712 0.392761961070795 C.Trigonal 0.0 **** 0.0
41 C1866 0.818424827611633 0.918638329505314 0.404129924745673 C.Trigonal 0.0 **** 0.0
42 C1867 0.801415904794724 0.915494482033347 0.405395957832578 C.Trigonal 0.0 **** 0.0
43 C1873 0.790201552513723 0.925669495814496 0.417348022423793 C 0.0 **** 0.0
44 C1874 0.80030118629967 0.936184760011127 0.430118858264361 C 0.0 **** 0.0
45 C1875 0.815180919700657 0.944835722647318 0.421462788180343 C 0.0 **** 0.0
46 C1876 0.827594930018322 0.931438842461244 0.415100172607618 C 0.0 **** 0.0
47 C1882 0.842514982869198 0.939275969253406 0.405155211362715 C 0.0 **** 0.0
48 C1883 0.853332504010703 0.925484335412563 0.397355857151586 C.Trigonal 0.0 **** 0.0
49 C1884 0.845698458345221 0.91073018041328 0.391136813303 C.Trigonal 0.0 **** 0.0
50 C1889 0.855773327782447 0.898314678187725 0.383159320259647 C 0.0 **** 0.0
51 C1890 0.87285668146842 0.90074353534834 0.381727392551429 C 0.0 **** 0.0
52 C1891 0.880409440594689 0.915429030086698 0.387543846475537 C 0.0 **** 0.0
53 C1892 0.870495956546111 0.927960544315647 0.39501662551137 C 0.0 **** 0.0
54 C1898 0.702372940724692 0.778658673375361 0.384842790558664 C 0.0 **** 0.0
55 C1900 0.692400301507267 0.794648745267387 0.389341939723826 C 0.0 **** 0.0
56 C1902 0.678332796652477 0.762123424157826 0.36216890048512 C 0.0 **** 0.0
57 C1904 0.732848345373153 0.793758093881065 0.371160690826969 C 0.0 **** 0.0
58 C1906 0.685650726956115 0.759936192202667 0.326435607687018 C 0.0 **** 0.0
59 C1908 0.714300033623877 0.784829227033893 0.27684037018578 C 0.0 **** 0.0
60 C1910 0.734671845722421 0.810940793555029 0.262914669783385 C 0.0 **** 0.0
61 O1912 0.765833694061491 0.822423509142167 0.267084818470834 O 0.0 **** 0.0
62 C1914 0.818753480194938 0.841781842169287 0.247630799928342 C 0.0 **** 0.0
63 C1916 0.830600307446195 0.825576071667098 0.281694383847102 C 0.0 **** 0.0
64 O1918 0.817504265095344 0.87035718428422 0.323282784841288 O 0.0 **** 0.0
65 O1920 0.760160924566415 0.836293997425093 0.344675930279746 O 0.0 **** 0.0
66 O1922 0.759780642021386 0.855488506960572 0.369608402735537 O 0.0 **** 0.0
67 O1924 0.818700129250438 0.88315108743548 0.352024728620817 O 0.0 **** 0.0
68 C1926 0.878448137735405 0.944482049309844 0.400415870672569 C 0.0 **** 0.0
69 C1928 0.899290475547952 0.917302320218894 0.385224506516611 C 0.0 **** 0.0
70 H1930 0.739433295797484 0.806690052894402 0.341157654637608 H 0.0 **** 0.0
71 H1932 0.749632199193004 0.786920331235065 0.338055429055854 H 0.0 **** 0.0
72 H1934 0.718455257490686 0.764723526585255 0.308595511486892 H 0.0 **** 0.0
73 H1936 0.702096701374271 0.779839107629633 0.306257039301811 H 0.0 **** 0.0
74 H1938 0.763830049303479 0.812098905651647 0.332223454765416 H 0.0 **** 0.0
75 H1940 0.819671994856417 0.866305803450992 0.293500801907655 H 0.0 **** 0.0
76 H1942 0.829015612367139 0.849592576327739 0.30528549930252 H 0.0 **** 0.0
77 H1944 0.837724087357002 0.850882595771436 0.274923114000375 H 0.0 **** 0.0
78 H1946 0.809726516647153 0.860763911992499 0.264823472964604 H 0.0 **** 0.0
79 H1948 0.797781545880619 0.82421274224146 0.266468375829926 H 0.0 **** 0.0
80 H1950 0.78615921183427 0.843176617666749 0.26202647497157 H 0.0 **** 0.0
81 H1952 0.75860321172202 0.8781184593502 0.391632242123666 H 0.0 **** 0.0
82 H1954 0.777045943182815 0.873243029802872 0.403279796125375 H 0.0 **** 0.0
83 H1956 0.769114093579201 0.903394945631604 0.406733354174961 H 0.0 **** 0.0
84 H1958 0.769220944705261 0.906748078024157 0.384726438001589 H 0.0 **** 0.0
85 H1960 0.78222393472901 0.934256789699435 0.409761465283622 H 0.0 **** 0.0
86 H1962 0.781571671971034 0.917324563484602 0.424392279988185 H 0.0 **** 0.0
87 H1964 0.805162623078198 0.927894448978562 0.440231165452362 H 0.0 **** 0.0
88 H1966 0.79195655716036 0.945472284749729 0.436307000188885 H 0.0 **** 0.0
89 H1968 0.82163956722531 0.953484163706573 0.43023563406283 H 0.0 **** 0.0
90 H1970 0.810582275600694 0.952562539263714 0.410795369381732 H 0.0 **** 0.0
91 H1972 0.83284690254193 0.924779166514925 0.426228095647233 H 0.0 **** 0.0
92 H1974 0.837601856822912 0.947648341802925 0.395128720400202 H 0.0 **** 0.0
93 H1976 0.84978655987983 0.94738078877447 0.413765549301494 H 0.0 **** 0.0
94 H1978 0.849967007696038 0.88677231301597 0.378049710519023 H 0.0 **** 0.0
95 H1980 0.880629413965574 0.891068441511623 0.375494407592526 H 0.0 **** 0.0
96 H1982 0.714156561137683 0.778327705368913 0.39219715757725 H 0.0 **** 0.0
97 H1984 0.695416593936696 0.767375772279167 0.389078017419883 H 0.0 **** 0.0
98 H1986 0.680180485983498 0.794995095158562 0.382752052729434 H 0.0 **** 0.0
99 H1988 0.699394362403872 0.806141973414999 0.385803882530116 H 0.0 **** 0.0
100 H1990 0.689755964249661 0.795336210726626 0.402958522260372 H 0.0 **** 0.0
101 H1992 0.680351428818246 0.748608481229625 0.364886836623324 H 0.0 **** 0.0
102 H1994 0.667728137221232 0.763133034341155 0.353237888029076 H 0.0 **** 0.0
103 H1996 0.673794265346224 0.768113985425445 0.373835428620776 H 0.0 **** 0.0
104 H1998 0.744752272336673 0.797272471341034 0.364989355669347 H 0.0 **** 0.0
105 H2000 0.73655037993382 0.785190584744696 0.381475499646774 H 0.0 **** 0.0
106 H2002 0.727645465487706 0.805367155219016 0.376818828800391 H 0.0 **** 0.0
107 H2004 0.679587101672152 0.749162824432069 0.332772203107924 H 0.0 **** 0.0
108 H2006 0.692301596820832 0.754483870458248 0.315529392334141 H 0.0 **** 0.0
109 H2008 0.67558701850659 0.768255285804129 0.321574884061669 H 0.0 **** 0.0
110 H2010 0.71900904959871 0.783232065479484 0.263868543793857 H 0.0 **** 0.0
111 H2012 0.702138301428825 0.791587830527605 0.276228542836266 H 0.0 **** 0.0
112 H2014 0.711875501453026 0.771934024463918 0.281339770785664 H 0.0 **** 0.0
113 H2016 0.737313305735564 0.824410324859896 0.260688574530158 H 0.0 **** 0.0
114 H2018 0.721442158721653 0.809366873079112 0.258996358128235 H 0.0 **** 0.0
115 H2020 0.742591040728848 0.803411928015047 0.254297682419009 H 0.0 **** 0.0
116 H2022 0.77687935049827 0.826077039478168 0.264377366939634 H 0.0 **** 0.0
117 H2024 0.830573610649277 0.848377765034531 0.244451073656047 H 0.0 **** 0.0
118 H2026 0.809263446529322 0.844998117830703 0.237988955875842 H 0.0 **** 0.0
119 H2028 0.821011523504718 0.828088309709959 0.247086955391674 H 0.0 **** 0.0
120 H2030 0.84055789985094 0.824494874673719 0.291330469191778 H 0.0 **** 0.0
121 H2032 0.835384714626052 0.819918118533998 0.269973172112294 H 0.0 **** 0.0
122 H2034 0.819605081390641 0.818253404470374 0.285999556962897 H 0.0 **** 0.0
123 H2036 0.822013842571945 0.876804424885793 0.332460479798152 H 0.0 **** 0.0
124 H2038 0.756040052877682 0.841508817818827 0.354768015854078 H 0.0 **** 0.0
125 H2040 0.87110982246148 0.955322797091559 0.395690222665229 H 0.0 **** 0.0
126 H2042 0.89130928275808 0.946176857892038 0.395530353899126 H 0.0 **** 0.0
127 H2044 0.879092117972262 0.945424005607662 0.414268959616793 H 0.0 **** 0.0
128 H2046 0.902393354611736 0.928060428534559 0.376952328781317 H 0.0 **** 0.0
129 H2048 0.9048901318424 0.905991876907755 0.379429950269701 H 0.0 **** 0.0
130 H2050 0.90571463250057 0.919200685501097 0.397410329438851 H 0.0 **** 0.0
@<TRIPOS>BOND
1 3 2 Aromatic
2 4 3 Aromatic
3 5 4 Aromatic
4 6 5 Aromatic
5 1 2 Aromatic
6 1 6 Aromatic
7 8 7 1
8 9 8 Aromatic
9 10 9 1
10 4 7 1
11 3 10 1
12 12 11 Aromatic
13 13 12 Aromatic
14 14 13 Aromatic
15 9 11 Aromatic
16 8 14 Aromatic
17 16 15 Aromatic
18 17 16 Aromatic
19 18 17 Aromatic
20 14 15 Aromatic
21 13 18 Aromatic
22 20 19 1
23 21 20 1
24 22 21 Aromatic
25 17 19 1
26 16 22 Aromatic
27 24 23 1
28 25 24 Aromatic
29 26 25 1
30 20 23 1
31 19 26 1
32 28 27 Aromatic
33 29 28 Aromatic
34 30 29 Aromatic
35 22 27 Aromatic
36 21 30 Aromatic
37 32 31 1
38 33 32 Aromatic
39 34 33 1
40 29 31 1
41 28 34 1
42 36 35 1
43 37 36 1
44 38 37 Aromatic
45 33 35 1
46 32 38 Aromatic
47 40 39 Aromatic
48 41 40 Aromatic
49 42 41 Aromatic
50 38 39 Aromatic
51 37 42 Aromatic
52 44 43 1
53 45 44 1
54 46 45 1
55 42 43 1
56 41 46 1
57 48 47 1
58 49 48 Aromatic
59 40 49 Aromatic
60 46 47 1
61 51 50 Aromatic
62 52 51 Aromatic
63 53 52 Aromatic
64 49 50 Aromatic
65 48 53 Aromatic
66 6 54 1
67 54 55 1
68 1 56 1
69 5 57 1
70 2 58 1
71 11 59 1
72 12 60 1
73 18 61 1
74 25 62 1
75 24 63 1
76 30 64 1
77 27 65 1
78 34 66 Double
79 31 67 Double
80 53 68 1
81 52 69 1
82 7 70 1
83 7 71 1
84 10 72 1
85 10 73 1
86 15 74 1
87 23 75 1
88 23 76 1
89 24 77 1
90 25 78 1
91 26 79 1
92 26 80 1
93 35 81 1
94 35 82 1
95 36 83 1
96 36 84 1
97 43 85 1
98 43 86 1
99 44 87 1
100 44 88 1
101 45 89 1
102 45 90 1
103 46 91 1
104 47 92 1
105 47 93 1
106 50 94 1
107 51 95 1
108 54 96 1
109 54 97 1
110 55 98 1
111 55 99 1
112 55 100 1
113 56 101 1
114 56 102 1
115 56 103 1
116 57 104 1
117 57 105 1
118 57 106 1
119 58 107 1
120 58 108 1
121 58 109 1
122 59 110 1
123 59 111 1
124 59 112 1
125 60 113 1
126 60 114 1
127 60 115 1
128 61 116 1
129 62 117 1
130 62 118 1
131 62 119 1
132 63 120 1
133 63 121 1
134 63 122 1
135 64 123 1
136 65 124 1
137 68 125 1
138 68 126 1
139 68 127 1
140 69 128 1
141 69 129 1
142 69 130 1
@<TRIPOS>MOLECULE
Sketch 4
130 142
SMALL
USER_CHARGES


@<TRIPOS>ATOM
1 C2052 0.141560296573879 0.889691358495758 0.188688635173724 C.Trigonal 0.0 **** 0.0
2 C2053 0.152258057123374 0.876260735064712 0.192014635130707 C 0.0 **** 0.0
3 C2054 0.147907482365133 0.864355363226 0.20410688235054 C.Trigonal 0.0 **** 0.0
4 C2055 0.132682666335071 0.865491197193722 0.212445643641904 C.Trigonal 0.0 **** 0.0
5 C2056 0.12150053762019 0.878400662062327 0.208440979089877 C 0.0 **** 0.0
6 C2057 0.126024891783609 0.890556673173691 0.196635653649579 C 0.0 **** 0.0
7 C2064 0.128015374286846 0.85238333446444 0.225789202664947 C 0.0 **** 0.0
8 C2065 0.142069385260418 0.841010564364835 0.232489350926864 C.Trigonal 0.0 **** 0.0
9 C2066 0.157115869313892 0.839843708493755 0.22395541277748 C.Trigonal 0.0 **** 0.0
10 C2067 0.160092050714847 0.849998177576727 0.207875324181987 C 0.0 **** 0.0
11 C2073 0.17001392223389 0.829304505412795 0.22965076011818 C 0.0 **** 0.0
12 C2074 0.168734374589858 0.820778426930525 0.244853715006792 C 0.0 **** 0.0
13 C2075 0.153230645574046 0.821111522674116 0.253393577726804 C.Trigonal 0.0 **** 0.0
14 C2076 0.139669571292706 0.830993826204689 0.246957138146628 C.Trigonal 0.0 **** 0.0
15 C2082 0.123717241901654 0.829821968551298 0.254654528776587 C 0.0 **** 0.0
16 C2083 0.120520162927486 0.819727415178184 0.268807588275524 C.Trigonal 0.0 **** 0.0
17 C2084 0.134973919812629 0.812424394551863 0.276551592941041 C.Trigonal 0.0 **** 0.0
18 C2085 0.150402334922974 0.811405365882093 0.268119371015656 C 0.0 **** 0.0
19 C2091 0.13248137851107 0.803008226738315 0.29295752398637 C.Trigonal 0.0 **** 0.0
20 C2092 0.117170524960038 0.796208798575949 0.296186153242198 C.Trigonal 0.0 **** 0.0
21 C2093 0.102886779485475 0.799317858872281 0.284168920539948 C.Trigonal 0.0 **** 0.0
22 C2094 0.103898082255356 0.813416644737455 0.273365174128454 C.Trigonal 0.0 **** 0.0
23 C2100 0.112146160232021 0.788665976210794 0.313141314350908 C 0.0 **** 0.0
24 C2101 0.124006424952221 0.794559473828088 0.327296415317194 C 0.0 **** 0.0
25 C2102 0.14254792206026 0.792497315139337 0.321655962027586 C 0.0 **** 0.0
26 C2103 0.146042163819031 0.804484589847429 0.306696906649091 C 0.0 **** 0.0
27 C2109 0.0884604940692905 0.818835974266099 0.265897488467098 C 0.0 **** 0.0
28 C2110 0.0739583552400921 0.809118493496099 0.2679491468315 C.Trigonal 0.0 **** 0.0
29 C2111 0.0746207919204031 0.793443793814744 0.275667852718539 C.Trigonal 0.0 **** 0.0
30 C2112 0.089347108164686 0.788165584537928 0.283498444955543 C 0.0 **** 0.0
31 C2118 0.0592392920865454 0.782316884025968 0.27710693183311 C 0.0 **** 0.0
32 C2119 0.0429781629547683 0.789770417017724 0.272355918131726 C.Trigonal 0.0 **** 0.0
33 C2120 0.0419722315509015 0.805300964040345 0.265249223780624 C.Trigonal 0.0 **** 0.0
34 C2121 0.057125544893824 0.81573974502873 0.261941286988572 C 0.0 **** 0.0
35 C2127 0.0249091678279683 0.812601907305065 0.260417254512215 C 0.0 **** 0.0
36 C2128 0.0125136366590979 0.798388186998403 0.255154790162477 C 0.0 **** 0.0
37 C2129 0.0119642348359241 0.784410246270803 0.268243587402552 C.Trigonal 0.0 **** 0.0
38 C2130 0.0272363703118981 0.779874936551803 0.276298866165202 C.Trigonal 0.0 **** 0.0
39 N2136 0.0276716748800478 0.768131068192935 0.288481164481626 N 0.0 **** 0.0
40 C2137 0.0131562503249224 0.760691749599545 0.293003898115117 C.Trigonal 0.0 **** 0.0
41 C2138 -0.00235214268071461 0.763741340067435 0.284564716483962 C.Trigonal 0.0 **** 0.0
42 C2139 -0.00269923868863587 0.7757641350104 0.2720764581153 C.Trigonal 0.0 **** 0.0
43 C2145 -0.0190313763766702 0.78019241068565 0.262870395320389 C 0.0 **** 0.0
44 C2146 -0.0328296949178153 0.766799984057547 0.265324043975439 C 0.0 **** 0.0
45 C2147 -0.0340353152411264 0.761955231860364 0.283963911661388 C 0.0 **** 0.0
46 C2148 -0.0176325773419087 0.753154304201614 0.289329315444755 C 0.0 **** 0.0
47 C2154 -0.0171644803452639 0.749038359244764 0.308455284861671 C 0.0 **** 0.0
48 C2155 1.28352089457316e-05 0.742105761867358 0.313485973989392 C.Trigonal 0.0 **** 0.0
49 C2156 0.0146972008592838 0.748875090921653 0.306184284307144 C.Trigonal 0.0 **** 0.0
50 C2161 0.0306996494146321 0.743105320914 0.311662548550487 C 0.0 **** 0.0
51 C2162 0.031690819896563 0.730513443648763 0.323507639864081 C 0.0 **** 0.0
52 C2163 0.0172306642622212 0.723609834019069 0.330572584264739 C 0.0 **** 0.0
53 C2164 0.00137504286766236 0.729627157485589 0.325683895977099 C 0.0 **** 0.0
54 C2170 0.114106487483466 0.904984846564813 0.192509776518044 C 0.0 **** 0.0
55 C2172 0.118455486705552 0.920162145730889 0.203685524654561 C 0.0 **** 0.0
56 C2174 0.147133008066135 0.90306920527592 0.176107065987654 C 0.0 **** 0.0
57 C2176 0.104276046300227 0.879531473570361 0.216836968490401 C 0.0 **** 0.0
58 C2178 0.168864699573382 0.874931809546953 0.182513476209558 C 0.0 **** 0.0
59 C2180 0.186003146362656 0.827477061919192 0.219081493412471 C 0.0 **** 0.0
60 C2182 0.184231792511984 0.811282335514958 0.251077311583308 C 0.0 **** 0.0
61 O2184 0.162317350746426 0.800537217914776 0.274470104707609 O 0.0 **** 0.0
62 C2186 0.146865520712478 0.77423399646035 0.316550666163704 C 0.0 **** 0.0
63 C2188 0.120074487669327 0.78450702831801 0.343454289236839 C 0.0 **** 0.0
64 O2190 0.0907310977916973 0.772726459204649 0.291448677245625 O 0.0 **** 0.0
65 O2192 0.0880226951292939 0.833746057186081 0.257090784503372 O 0.0 **** 0.0
66 O2194 0.0563151313418818 0.829561733326822 0.255238194329373 O 0.0 **** 0.0
67 O2196 0.0609300915536359 0.767919037387438 0.28230069554896 O 0.0 **** 0.0
68 C2198 -0.0144147971949846 0.722424701787556 0.333793482808364 C 0.0 **** 0.0
69 C2200 0.0193690039112992 0.70979064876228 0.343623083882527 C 0.0 **** 0.0
70 H2202 0.12281174926397 0.859229483392301 0.236759321349131 H 0.0 **** 0.0
71 H2204 0.117739200597287 0.844367185682348 0.220740397013621 H 0.0 **** 0.0
72 H2206 0.160148234176217 0.841224768436095 0.197012352192232 H 0.0 **** 0.0
73 H2208 0.172867762120132 0.855499476100837 0.208716536083869 H 0.0 **** 0.0
74 H2210 0.11336279269821 0.836113199796986 0.24804513108357 H 0.0 **** 0.0
75 H2212 0.0991478630781829 0.792304799425543 0.316621728455955 H 0.0 **** 0.0
76 H2214 0.112454585731398 0.774763143783139 0.31239716467961 H 0.0 **** 0.0
77 H2216 0.121678271547623 0.808057213731039 0.329822972076226 H 0.0 **** 0.0
78 H2218 0.150904546957008 0.796141173289244 0.332172588930511 H 0.0 **** 0.0
79 H2220 0.158954368236433 0.802005906563681 0.302255920609514 H 0.0 **** 0.0
80 H2222 0.146102149319788 0.817595504853401 0.311427749478781 H 0.0 **** 0.0
81 H2224 0.0196122680800314 0.819720078987881 0.271148271665409 H 0.0 **** 0.0
82 H2226 0.0259946500563033 0.821692961808144 0.249971488414389 H 0.0 **** 0.0
83 H2228 0.0164758527894168 0.793057575283462 0.242908020868964 H 0.0 **** 0.0
84 H2230 -1.03255187137489e-05 0.804069362322989 0.253259238844501 H 0.0 **** 0.0
85 H2232 -0.0237810627554686 0.792408224620225 0.26770153776455 H 0.0 **** 0.0
86 H2234 -0.0166837404751118 0.781974717065654 0.249263462890991 H 0.0 **** 0.0
87 H2236 -0.0298050446410606 0.755432949387401 0.257833203660943 H 0.0 **** 0.0
88 H2238 -0.0450184337618779 0.771548143677229 0.26051825849867 H 0.0 **** 0.0
89 H2240 -0.0449314888021731 0.753572004656677 0.286271712097469 H 0.0 **** 0.0
90 H2242 -0.0361215311736896 0.773402970908632 0.291663399709144 H 0.0 **** 0.0
91 H2244 -0.0169342466826484 0.741070379929096 0.282346959720073 H 0.0 **** 0.0
92 H2246 -0.0198822709733014 0.760606568825227 0.3158021235059 H 0.0 **** 0.0
93 H2248 -0.0274498274701307 0.74012192669589 0.31124221078904 H 0.0 **** 0.0
94 H2250 0.0423451877313476 0.748232510558166 0.306077842746111 H 0.0 **** 0.0
95 H2252 0.0441483120387237 0.725826856757611 0.327506696598094 H 0.0 **** 0.0
96 H2254 0.100783851581482 0.901508186414212 0.194419932846103 H 0.0 **** 0.0
97 H2256 0.114893855909403 0.908439676910698 0.179053619177289 H 0.0 **** 0.0
98 H2258 0.131684751292323 0.924152070257774 0.202118939500668 H 0.0 **** 0.0
99 H2260 0.116639417541694 0.916952456384034 0.217093447551054 H 0.0 **** 0.0
100 H2262 0.110425334005386 0.931105968653428 0.200757941225206 H 0.0 **** 0.0
101 H2264 0.160639061443227 0.906075191135067 0.177512977288565 H 0.0 **** 0.0
102 H2266 0.140489479316199 0.915135866227291 0.177518071071243 H 0.0 **** 0.0
103 H2268 0.145107185403822 0.898762009203339 0.163039036597141 H 0.0 **** 0.0
104 H2270 0.102864250602959 0.891473989115173 0.22383792624965 H 0.0 **** 0.0
105 H2272 0.101650201064099 0.869327458005348 0.225827664730847 H 0.0 **** 0.0
106 H2274 0.0940588241122825 0.878933711493721 0.20739573267276 H 0.0 **** 0.0
107 H2276 0.173622186031776 0.861920319525733 0.181731065492379 H 0.0 **** 0.0
108 H2278 0.17871033096798 0.882700242876022 0.188538541987144 H 0.0 **** 0.0
109 H2280 0.167617413007852 0.879228340952614 0.16935007673901 H 0.0 **** 0.0
110 H2282 0.190607860199411 0.814340348597907 0.219032948479203 H 0.0 **** 0.0
111 H2284 0.196229867111449 0.835611234110502 0.223893351863079 H 0.0 **** 0.0
112 H2286 0.184137720495311 0.830593114354894 0.205694437221139 H 0.0 **** 0.0
113 H2288 0.186631069786109 0.813451197913954 0.264616910790581 H 0.0 **** 0.0
114 H2290 0.195987038326618 0.815489422701831 0.245009380203889 H 0.0 **** 0.0
115 H2292 0.183170703128754 0.797599196403345 0.248691629502351 H 0.0 **** 0.0
116 H2294 0.170375715181085 0.798298165174757 0.265912416119708 H 0.0 **** 0.0
117 H2296 0.144617699727867 0.765445087451427 0.327023663302809 H 0.0 **** 0.0
118 H2298 0.160248562464438 0.773562164347296 0.313140978949392 H 0.0 **** 0.0
119 H2300 0.139459967336387 0.770056655204185 0.305555693556119 H 0.0 **** 0.0
120 H2302 0.107591604315105 0.788080242212708 0.34843554216904 H 0.0 **** 0.0
121 H2304 0.129585363227991 0.786949967995995 0.353275665978603 H 0.0 **** 0.0
122 H2306 0.119856765757425 0.770899832443922 0.340743676659244 H 0.0 **** 0.0
123 H2308 0.0811100150328731 0.766042437841356 0.288523655861549 H 0.0 **** 0.0
124 H2310 0.0765299157493549 0.837037630122064 0.255326023431516 H 0.0 **** 0.0
125 H2312 -0.0229881121367347 0.732524304627106 0.338059874192449 H 0.0 **** 0.0
126 H2314 -0.0117161297176379 0.714714935087204 0.345002221354622 H 0.0 **** 0.0
127 H2316 -0.0213952511891476 0.714328892082272 0.324856957047145 H 0.0 **** 0.0
128 H2318 0.0326508574339359 0.705934982058031 0.344890380586114 H 0.0 **** 0.0
129 H2320 0.0121745965960995 0.698373140613693 0.340207170351109 H 0.0 **** 0.0
130 H2322 0.0151150704239473 0.713970583877845 0.356207471216159 H 0.0 **** 0.0
@<TRIPOS>BOND
1 3 2 Aromatic
2 4 3 Aromatic
3 5 4 Aromatic
4 6 5 Aromatic
5 1 2 Aromatic
6 1 6 Aromatic
7 8 7 1
8 9 8 Aromatic
9 10 9 1
10 4 7 1
11 3 10 1
12 12 11 Aromatic
13 13 12 Aromatic
14 14 13 Aromatic
15 9 11 Aromatic
16 8 14 Aromatic
17 16 15 Aromatic
18 17 16 Aromatic
19 18 17 Aromatic
20 14 15 Aromatic
21 13 18 Aromatic
22 20 19 1
23 21 20 1
24 22 21 Aromatic
25 17 19 1
26 16 22 Aromatic
27 24 23 1
28 25 24 Aromatic
29 26 25 1
30 20 23 1
31 19 26 1
32 28 27 Aromatic
33 29 28 Aromatic
34 30 29 Aromatic
35 22 27 Aromatic
36 21 30 Aromatic
37 32 31 1
38 33 32 Aromatic
39 34 33 1
40 29 31 1
41 28 34 1
42 36 35 1
43 37 36 1
44 38 37 Aromatic
45 33 35 1
46 32 38 Aromatic
47 40 39 Aromatic
48 41 40 Aromatic
49 42 41 Aromatic
50 38 39 Aromatic
51 37 42 Aromatic
52 44 43 1
53 45 44 1
54 46 45 1
55 42 43 1
56 41 46 1
57 48 47 1
58 49 48 Aromatic
59 40 49 Aromatic
60 46 47 1
61 51 50 Aromatic
62 52 51 Aromatic
63 53 52 Aromatic
64 49 50 Aromatic
65 48 53 Aromatic
66 6 54 1
67 54 55 1
68 1 56 1
69 5 57 1
70 2 58 1
71 11 59 1
72 12 60 1
73 18 61 1
74 25 62 1
75 24 63 1
76 30 64 1
77 27 65 1
78 34 66 Double
79 31 67 Double
80 53 68 1
81 52 69 1
82 7 70 1
83 7 71 1
84 10 72 1
85 10 73 1
86 15 74 1
87 23 75 1
88 23 76 1
89 24 77 1
90 25 78 1
91 26 79 1
92 26 80 1
93 35 81 1
94 35 82 1
95 36 83 1
96 36 84 1
97 43 85 1
98 43 86 1
99 44 87 1
100 44 88 1
101 45 89 1
102 45 90 1
103 46 91 1
104 47 92 1
105 47 93 1
106 50 94 1
107 51 95 1
108 54 96 1
109 54 97 1
110 55 98 1
111 55 99 1
112 55 100 1
113 56 101 1
114 56 102 1
115 56 103 1
116 57 104 1
117 57 105 1
118 57 106 1
119 58 107 1
120 58 108 1
121 58 109 1
122 59 110 1
123 59 111 1
124 59 112 1
125 60 113 1
126 60 114 1
127 60 115 1
128 61 116 1
129 62 117 1
130 62 118 1
131 62 119 1
132 63 120 1
133 63 121 1
134 63 122 1
135 64 123 1
136 65 124 1
137 68 125 1
138 68 126 1
139 68 127 1
140 69 128 1
141 69 129 1
142 69 130 1
@<TRIPOS>MOLECULE
Sketch 4
130 142
SMALL
USER_CHARGES


@<TRIPOS>ATOM
1 C2324 0.932628697626441 0.496240014204907 0.259604128211319 C.Trigonal 0.0 **** 0.0
2 C2325 0.950089985655479 0.496340004479127 0.260373509704697 C 0.0 **** 0.0
3 C2326 0.95952185002492 0.495642826371052 0.245632088821076 C.Trigonal 0.0 **** 0.0
4 C2327 0.951660208674998 0.495407620311453 0.230116299774223 C.Trigonal 0.0 **** 0.0
5 C2328 0.934142087817479 0.49570989877323 0.229270430163469 C 0.0 **** 0.0
6 C2329 0.924665606889403 0.496119726408893 0.244044307462696 C 0.0 **** 0.0
7 C2336 0.962388769227109 0.495060226235799 0.214090254257917 C 0.0 **** 0.0
8 C2337 0.980626704098325 0.489229043317781 0.2158935180642 C.Trigonal 0.0 **** 0.0
9 C2338 0.988262762854133 0.48901773597544 0.231462883630319 C.Trigonal 0.0 **** 0.0
10 C2339 0.978661164770368 0.495112610263347 0.246966624899096 C 0.0 **** 0.0
11 C2345 1.00488107126819 0.483551586016654 0.233324357437423 C 0.0 **** 0.0
12 C2346 1.0137590713678 0.476804622952903 0.219833371951981 C 0.0 **** 0.0
13 C2347 1.00579768899402 0.475919082338412 0.204029772680722 C.Trigonal 0.0 **** 0.0
14 C2348 0.990135106156572 0.484213733732339 0.201730950334521 C.Trigonal 0.0 **** 0.0
15 C2354 0.983861882331821 0.4857596837677 0.185339160322134 C 0.0 **** 0.0
16 C2355 0.990474464697526 0.476508147503982 0.171661652046543 C.Trigonal 0.0 **** 0.0
17 C2356 1.0037929935464 0.464960552339987 0.175177875254695 C.Trigonal 0.0 **** 0.0
18 C2357 1.01179646228037 0.46510348033184 0.190809156871198 C 0.0 **** 0.0
19 C2363 1.00793743352256 0.451885571422596 0.161678315769767 C.Trigonal 0.0 **** 0.0
20 C2364 0.996913097214882 0.449302000488873 0.148696695355869 C.Trigonal 0.0 **** 0.0
21 C2365 0.983712736172177 0.462717898039449 0.144564637176275 C.Trigonal 0.0 **** 0.0
22 C2366 0.982755223024552 0.476943032031637 0.155316201357134 C.Trigonal 0.0 **** 0.0
23 C2372 0.998582612212143 0.434194579366122 0.136753036607662 C 0.0 **** 0.0
24 C2373 1.01199897206561 0.421370336650031 0.142376807630943 C 0.0 **** 0.0
25 C2374 1.02800834300624 0.430737923645769 0.147981047799855 C 0.0 **** 0.0
26 C2375 1.02364897309217 0.440861685603102 0.163921371896106 C 0.0 **** 0.0
27 C2381 0.973225343697654 0.491213572340904 0.149864628024081 C 0.0 **** 0.0
28 C2382 0.96284540301073 0.489850238537375 0.135857686000131 C.Trigonal 0.0 **** 0.0
29 C2383 0.962073701733138 0.47493666540741 0.126835471710404 C.Trigonal 0.0 **** 0.0
30 C2384 0.97285050078047 0.461592203654067 0.130671056063307 C 0.0 **** 0.0
31 C2390 0.950031373701662 0.473108021521553 0.112097906423527 C 0.0 **** 0.0
32 C2391 0.940287450320266 0.488073255209003 0.106931443688335 C.Trigonal 0.0 **** 0.0
33 C2392 0.941404887853642 0.50285553304342 0.115428990020576 C.Trigonal 0.0 **** 0.0
34 C2393 0.952462287433348 0.504862567253776 0.130306710704009 C 0.0 **** 0.0
35 C2399 0.930924580127812 0.51792462846556 0.109812118890776 C 0.0 **** 0.0
36 C2400 0.913443367846833 0.512022004362203 0.103237955171973 C 0.0 **** 0.0
37 C2401 0.915333138643212 0.498181607233543 0.0900050821413283 C.Trigonal 0.0 **** 0.0
38 C2402 0.928814180763082 0.486561501443575 0.0918439118086611 C.Trigonal 0.0 **** 0.0
39 N2408 0.931419644153305 0.474126302654172 0.0806675703409218 N 0.0 **** 0.0
40 C2409 0.919887430129152 0.471715297873818 0.0685694874376337 C.Trigonal 0.0 **** 0.0
41 C2410 0.905904024892207 0.482625247364425 0.0661533604851832 C.Trigonal 0.0 **** 0.0
42 C2411 0.904098775554075 0.496222377308672 0.076753112049011 C.Trigonal 0.0 **** 0.0
43 C2417 0.889439170861601 0.508556845616466 0.0746043277602763 C 0.0 **** 0.0
44 C2418 0.880553675663587 0.506645548780152 0.0574638646838719 C 0.0 **** 0.0
45 C2419 0.877386913735023 0.48810014700847 0.0534196328446456 C 0.0 **** 0.0
46 C2420 0.894376876914089 0.479173686957065 0.0512095614703983 C 0.0 **** 0.0
47 C2426 0.892317245041011 0.459927153903615 0.0485699497204712 C 0.0 **** 0.0
48 C2427 0.909402684179366 0.451215603289688 0.0484046841341545 C.Trigonal 0.0 **** 0.0
49 C2428 0.922828849881521 0.457685382867436 0.0580354742285172 C.Trigonal 0.0 **** 0.0
50 C2433 0.938595123992264 0.449287120529029 0.0579581352935073 C 0.0 **** 0.0
51 C2434 0.940364572823498 0.434412691235868 0.0492730721718932 C 0.0 **** 0.0
52 C2435 0.926782207474482 0.427336826091042 0.0407948088826192 C 0.0 **** 0.0
53 C2436 0.911244493406632 0.435713541815486 0.040540966884535 C 0.0 **** 0.0
54 C2442 0.905499213693138 0.496282683359524 0.243243411846532 C 0.0 **** 0.0
55 C2444 0.898827774441396 0.478142155282991 0.244300049398643 C 0.0 **** 0.0
56 C2446 0.922663789801116 0.496358132384183 0.276007247250353 C 0.0 **** 0.0
57 C2448 0.925012268413581 0.495338389632946 0.212385467480547 C 0.0 **** 0.0
58 C2450 0.958972272272932 0.496886323819132 0.277373291294414 C 0.0 **** 0.0
59 C2452 1.01326103664654 0.484418702244474 0.250625819273286 C 0.0 **** 0.0
60 C2454 1.03125021175244 0.4697348072182 0.223129058483328 C 0.0 **** 0.0
61 O2456 1.02510105615711 0.454705757520482 0.194483777896983 O 0.0 **** 0.0
62 C2458 1.03540177824507 0.442307571505819 0.134118850376966 C 0.0 **** 0.0
63 C2460 1.0156891290361 0.408739716452293 0.128058661777605 C 0.0 **** 0.0
64 O2462 0.973292613753485 0.447403447577233 0.120651429921088 O 0.0 **** 0.0
65 O2464 0.974501708931425 0.506017697316119 0.158854527295882 O 0.0 **** 0.0
66 O2466 0.953643361904561 0.518113036887134 0.138024857455823 O 0.0 **** 0.0
67 O2468 0.948577689414145 0.459304039939753 0.105461799996493 O 0.0 **** 0.0
68 C2470 0.896493882054067 0.427204763928005 0.0318380041058514 C 0.0 **** 0.0
69 C2472 0.929224730297311 0.410286847548664 0.0325434145221676 C 0.0 **** 0.0
70 H2474 0.956346658882904 0.486424370847861 0.205032450292435 H 0.0 **** 0.0
71 H2476 0.962187096220094 0.507658658197482 0.208201912812576 H 0.0 **** 0.0
72 H2478 0.983397005574185 0.507746175458792 0.250614900713095 H 0.0 **** 0.0
73 H2480 0.981668451434089 0.486422726048151 0.257417824842921 H 0.0 **** 0.0
74 H2482 0.972076393625826 0.492837434548348 0.183613950784227 H 0.0 **** 0.0
75 H2484 0.98655143611425 0.427270316171545 0.136065341919073 H 0.0 **** 0.0
76 H2486 1.0017132222682 0.43862607511706 0.123926815879357 H 0.0 **** 0.0
77 H2488 1.00706436448161 0.414208207697949 0.153267094146485 H 0.0 **** 0.0
78 H2490 1.0375791411183 0.421280755221033 0.151408181493849 H 0.0 **** 0.0
79 H2492 1.03484324714517 0.448566456832853 0.167011289796463 H 0.0 **** 0.0
80 H2494 1.02150334270058 0.431711378802568 0.17419162485485 H 0.0 **** 0.0
81 H2496 0.929064192391239 0.527146562988752 0.120062600312035 H 0.0 **** 0.0
82 H2498 0.937634217550592 0.524690604496505 0.0996869751695206 H 0.0 **** 0.0
83 H2500 0.906726935227271 0.523133512427529 0.0983086481506397 H 0.0 **** 0.0
84 H2502 0.90582718642502 0.507261792288519 0.113928757604013 H 0.0 **** 0.0
85 H2504 0.880165805558545 0.506396672986381 0.0848138789349804 H 0.0 **** 0.0
86 H2506 0.893816080341324 0.521712347332121 0.0758833469807114 H 0.0 **** 0.0
87 H2508 0.888510654334397 0.512148692015532 0.0474709507248036 H 0.0 **** 0.0
88 H2510 0.868630979189223 0.513774744297917 0.0573055017901535 H 0.0 **** 0.0
89 H2512 0.869715845978671 0.486760999825895 0.0418547913797634 H 0.0 **** 0.0
90 H2514 0.870103169813715 0.482214061784353 0.0637632171774594 H 0.0 **** 0.0
91 H2516 0.900450620843869 0.484334479728074 0.0397756110116844 H 0.0 **** 0.0
92 H2518 0.884436606342148 0.454603168596276 0.0587841368819146 H 0.0 **** 0.0
93 H2520 0.88543651473062 0.457951641457435 0.0366462451706742 H 0.0 **** 0.0
94 H2522 0.949239803239617 0.454303400208271 0.0653484701994506 H 0.0 **** 0.0
95 H2524 0.952583368692547 0.427805161634985 0.0493935238829315 H 0.0 **** 0.0
96 H2526 0.900840567455108 0.502229265620442 0.231589036106621 H 0.0 **** 0.0
97 H2528 0.900093814884127 0.504057883503528 0.253441304980152 H 0.0 **** 0.0
98 H2530 0.902474694001631 0.47196264972039 0.256216439231483 H 0.0 **** 0.0
99 H2532 0.9039405543511 0.47047053442099 0.233897202939605 H 0.0 **** 0.0
100 H2534 0.884967033289177 0.477723684874581 0.243387638712954 H 0.0 **** 0.0
101 H2536 0.928383745592827 0.487860630830572 0.285427780342099 H 0.0 **** 0.0
102 H2538 0.909581849259089 0.492000107266617 0.274658186345224 H 0.0 **** 0.0
103 H2540 0.922234189117812 0.509153538275297 0.281510965764234 H 0.0 **** 0.0
104 H2542 0.917477444863195 0.483700493135515 0.211085873506363 H 0.0 **** 0.0
105 H2544 0.933370625504483 0.495817739484788 0.201359316234946 H 0.0 **** 0.0
106 H2546 0.91639339426741 0.506180743012996 0.210977535002341 H 0.0 **** 0.0
107 H2548 0.970936046251729 0.503929089398463 0.27684767318979 H 0.0 **** 0.0
108 H2550 0.961816903194743 0.484030473920979 0.281941681619025 H 0.0 **** 0.0
109 H2552 0.951400288376894 0.503213567792955 0.287129767406932 H 0.0 **** 0.0
110 H2554 1.01491476820075 0.471682710189926 0.256023221462363 H 0.0 **** 0.0
111 H2556 1.0063643201319 0.492002293686693 0.259943950726297 H 0.0 **** 0.0
112 H2558 1.02575160830975 0.490423977555841 0.24988717684775 H 0.0 **** 0.0
113 H2560 1.0397925688367 0.472452182041066 0.212520535306583 H 0.0 **** 0.0
114 H2562 1.03084419374608 0.455940661488949 0.225039501673278 H 0.0 **** 0.0
115 H2564 1.03751743300784 0.475072179763137 0.234242001381927 H 0.0 **** 0.0
116 H2566 1.02657217530103 0.447007147431644 0.185489651464729 H 0.0 **** 0.0
117 H2568 1.03962174840491 0.434753869285146 0.123263407885209 H 0.0 **** 0.0
118 H2570 1.04635046163005 0.449339048877455 0.138964407894352 H 0.0 **** 0.0
119 H2572 1.02609341514685 0.451623457990377 0.129684636389947 H 0.0 **** 0.0
120 H2574 1.00441867007573 0.401075832655235 0.125331075361316 H 0.0 **** 0.0
121 H2576 1.02605563201116 0.400195880878426 0.131597187853126 H 0.0 **** 0.0
122 H2578 1.01931821331432 0.415383664738913 0.116439491518899 H 0.0 **** 0.0
123 H2580 0.963641514747941 0.447130248698573 0.113385254501598 H 0.0 **** 0.0
124 H2582 0.967871694360041 0.514516823180936 0.153354926944002 H 0.0 **** 0.0
125 H2584 0.884133859776914 0.431925946303325 0.0359806036439478 H 0.0 **** 0.0
126 H2586 0.896367727218426 0.413629428929429 0.0347715840177449 H 0.0 **** 0.0
127 H2588 0.897224405581716 0.428700181672308 0.0180146280729886 H 0.0 **** 0.0
128 H2590 0.923576344625598 0.400120984565464 0.0402153932208846 H 0.0 **** 0.0
129 H2592 0.942703113892303 0.407316745557099 0.0310211241277492 H 0.0 **** 0.0
130 H2594 0.923480580192858 0.409767341934535 0.0199032872497948 H 0.0 **** 0.0
@<TRIPOS>BOND
1 3 2 Aromatic
2 4 3 Aromatic
3 5 4 Aromatic
4 6 5 Aromatic
5 1 2 Aromatic
6 1 6 Aromatic
7 8 7 1
8 9 8 Aromatic
9 10 9 1
10 4 7 1
11 3 10 1
12 12 11 Aromatic
13 13 12 Aromatic
14 14 13 Aromatic
15 9 11 Aromatic
16 8 14 Aromatic
17 16 15 Aromatic
18 17 16 Aromatic
19 18 17 Aromatic
20 14 15 Aromatic
21 13 18 Aromatic
22 20 19 1
23 21 20 1
24 22 21 Aromatic
25 17 19 1
26 16 22 Aromatic
27 24 23 1
28 25 24 Aromatic
29 26 25 1
30 20 23 1
31 19 26 1
32 28 27 Aromatic
33 29 28 Aromatic
34 30 29 Aromatic
35 22 27 Aromatic
36 21 30 Aromatic
37 32 31 1
38 33 32 Aromatic
39 34 33 1
40 29 31 1
41 28 34 1
42 36 35 1
43 37 36 1
44 38 37 Aromatic
45 33 35 1
46 32 38 Aromatic
47 40 39 Aromatic
48 41 40 Aromatic
49 42 41 Aromatic
50 38 39 Aromatic
51 37 42 Aromatic
52 44 43 1
53 45 44 1
54 46 45 1
55 42 43 1
56 41 46 1
57 48 47 1
58 49 48 Aromatic
59 40 49 Aromatic
60 46 47 1
61 51 50 Aromatic
62 52 51 Aromatic
63 53 52 Aromatic
64 49 50 Aromatic
65 48 53 Aromatic
66 6 54 1
67 54 55 1
68 1 56 1
69 5 57 1
70 2 58 1
71 11 59 1
72 12 60 1
73 18 61 1
74 25 62 1
75 24 63 1
76 30 64 1
77 27 65 1
78 34 66 Double
79 31 67 Double
80 53 68 1
81 52 69 1
82 7 70 1
83 7 71 1
84 10 72 1
85 10 73 1
86 15 74 1
87 23 75 1
88 23 76 1
89 24 77 1
90 25 78 1
91 26 79 1
92 26 80 1
93 35 81 1
94 35 82 1
95 36 83 1
96 36 84 1
97 43 85 1
98 43 86 1
99 44 87 1
100 44 88 1
101 45 89 1
102 45 90 1
103 46 91 1
104 47 92 1
105 47 93 1
106 50 94 1
107 51 95 1
108 54 96 1
109 54 97 1
110 55 98 1
111 55 99 1
112 55 100 1
113 56 101 1
114 56 102 1
115 56 103 1
116 57 104 1
117 57 105 1
118 57 106 1
119 58 107 1
120 58 108 1
121 58 109 1
122 59 110 1
123 59 111 1
124 59 112 1
125 60 113 1
126 60 114 1
127 60 115 1
128 61 116 1
129 62 117 1
130 62 118 1
131 62 119 1
132 63 120 1
133 63 121 1
134 63 122 1
135 64 123 1
136 65 124 1
137 68 125 1
138 68 126 1
139 68 127 1
140 69 128 1
141 69 129 1
142 69 130 1
@<TRIPOS>MOLECULE
Sketch 4
130 142
SMALL
USER_CHARGES


@<TRIPOS>ATOM
1 C2596 0.453353756974843 0.732792765337137 0.937764567235693 C.Trigonal 0.0 **** 0.0
2 C2597 0.457306928855374 0.740754198737644 0.922669112359437 C 0.0 **** 0.0
3 C2598 0.452337162806201 0.757335784177422 0.919931197336709 C.Trigonal 0.0 **** 0.0
4 C2599 0.443126393529061 0.765677422431852 0.932058359186369 C.Trigonal 0.0 **** 0.0
5 C2600 0.439303811424889 0.757822918437538 0.947296936229854 C 0.0 **** 0.0
6 C2601 0.444637284922009 0.741430315571082 0.950253693407964 C 0.0 **** 0.0
7 C2608 0.436672839190126 0.783523342106258 0.928935901848717 C 0.0 **** 0.0
8 C2609 0.438562296055708 0.790878926187814 0.911253388595461 C.Trigonal 0.0 **** 0.0
9 C2610 0.448457717441778 0.782962340803817 0.899423651812159 C.Trigonal 0.0 **** 0.0
10 C2611 0.456886079463055 0.76607886254175 0.903405606732041 C 0.0 **** 0.0
11 C2617 0.45114982838299 0.790288016083632 0.883643003810309 C 0.0 **** 0.0
12 C2618 0.443229506182263 0.805258300712197 0.87905531403955 C 0.0 **** 0.0
13 C2619 0.430884568400914 0.811922184646833 0.889857507201185 C.Trigonal 0.0 **** 0.0
14 C2620 0.429725642524677 0.805587244957451 0.906547089982153 C.Trigonal 0.0 **** 0.0
15 C2626 0.418004341228835 0.81292868215963 0.917445008547819 C 0.0 **** 0.0
16 C2627 0.404885445142293 0.823534900162662 0.911920907129142 C.Trigonal 0.0 **** 0.0
17 C2628 0.403985173275969 0.82668030881133 0.894231312196628 C.Trigonal 0.0 **** 0.0
18 C2629 0.417575940282692 0.822569747101239 0.883828571419502 C 0.0 **** 0.0
19 C2635 0.387375193258222 0.833588872330264 0.887191608256946 C.Trigonal 0.0 **** 0.0
20 C2636 0.374001264084699 0.835680065961522 0.897844943193225 C.Trigonal 0.0 **** 0.0
21 C2637 0.376565245147223 0.835659858397002 0.916910494830234 C.Trigonal 0.0 **** 0.0
22 C2638 0.392302789718057 0.83008174952993 0.923225028008232 C.Trigonal 0.0 **** 0.0
23 C2644 0.355875205497753 0.83700219185755 0.891294292849464 C 0.0 **** 0.0
24 C2645 0.35419880529205 0.830538336303117 0.873094020919283 C 0.0 **** 0.0
25 C2646 0.367394197859648 0.839341637142645 0.861907315445594 C 0.0 **** 0.0
26 C2647 0.385135927702926 0.834006094129866 0.867892410381643 C 0.0 **** 0.0
27 C2653 0.395308464208972 0.83142380616503 0.940965271761835 C 0.0 **** 0.0
28 C2654 0.382285703472409 0.835868774829366 0.951747757600735 C.Trigonal 0.0 **** 0.0
29 C2655 0.366733605444416 0.840514801837593 0.945410930330083 C.Trigonal 0.0 **** 0.0
30 C2656 0.364072253123817 0.841287678334097 0.928057553846525 C 0.0 **** 0.0
31 C2662 0.352409764324072 0.845153754664932 0.957247046327981 C 0.0 **** 0.0
32 C2663 0.355701827397771 0.844864711953241 0.975585323099723 C.Trigonal 0.0 **** 0.0
33 C2664 0.371077849854058 0.840672994712349 0.981786003078069 C.Trigonal 0.0 **** 0.0
34 C2665 0.385226198867013 0.835907173725835 0.970616620501171 C 0.0 **** 0.0
35 C2671 0.374328527280228 0.84065699710087 1.00072412242969 C 0.0 **** 0.0
36 C2672 0.358265270011727 0.835281476904339 1.01058092529555 C 0.0 **** 0.0
37 C2673 0.342656358350576 0.844906728115432 1.00468563811415 C.Trigonal 0.0 **** 0.0
38 C2674 0.341439450722874 0.849370413809568 0.98739120548817 C.Trigonal 0.0 **** 0.0
39 N2680 0.327893874736264 0.857456948964996 0.9812960600171 N 0.0 **** 0.0
40 C2681 0.314851241827783 0.860427421931624 0.991659668307724 C.Trigonal 0.0 **** 0.0
41 C2682 0.315281005377268 0.856498345432954 1.00912890068149 C.Trigonal 0.0 **** 0.0
42 C2683 0.329496159829044 0.848868191055762 1.0155100543341 C.Trigonal 0.0 **** 0.0
43 C2689 0.330644896154721 0.844023029924235 1.03417375783494 C 0.0 **** 0.0
44 C2690 0.316485727338743 0.851679601652926 1.04502965559346 C 0.0 **** 0.0
45 C2691 0.299559472275595 0.850548794437215 1.03585646978062 C 0.0 **** 0.0
46 C2692 0.300403280333298 0.861750785984073 1.02009821920098 C 0.0 **** 0.0
47 C2698 0.283945386939606 0.861442829377106 1.00954405528764 C 0.0 **** 0.0
48 C2699 0.286407685541046 0.871534088300443 0.993465287855434 C.Trigonal 0.0 **** 0.0
49 C2700 0.301376982408187 0.869311033954119 0.984210304654926 C.Trigonal 0.0 **** 0.0
50 C2705 0.303330840511882 0.877664767797057 0.968539243933592 C 0.0 **** 0.0
51 C2706 0.29150629637867 0.889292810037825 0.963531444913962 C 0.0 **** 0.0
52 C2707 0.277140793524175 0.892201806881964 0.973111819238096 C 0.0 **** 0.0
53 C2708 0.274272804298271 0.882740014441791 0.987733106264899 C 0.0 **** 0.0
54 C2714 0.440623098668898 0.732703169139702 0.966877533253417 C 0.0 **** 0.0
55 C2716 0.422554435348596 0.725712814076492 0.966491081966847 C 0.0 **** 0.0
56 C2718 0.458634788019876 0.714566768223568 0.940620589487005 C 0.0 **** 0.0
57 C2720 0.428886650780857 0.767553574699736 0.960162329409559 C 0.0 **** 0.0
58 C2722 0.466785365582291 0.731036150807719 0.909104027236011 C 0.0 **** 0.0
59 C2724 0.462915657721059 0.781793428557843 0.870981462501153 C 0.0 **** 0.0
60 C2726 0.447128101755218 0.812355093367047 0.861651263457483 C 0.0 **** 0.0
61 O2728 0.418126248681441 0.82757677719782 0.867221994722016 O 0.0 **** 0.0
62 C2730 0.365681964487709 0.858790596171395 0.861902831923853 C 0.0 **** 0.0
63 C2732 0.33607019545681 0.833307137140271 0.866562959291236 C 0.0 **** 0.0
64 O2734 0.349203540022601 0.84769191967517 0.921638921095682 O 0.0 **** 0.0
65 O2736 0.411162483958679 0.828153034794001 0.947095099474936 O 0.0 **** 0.0
66 O2738 0.39899638939334 0.831923620769547 0.976195798495444 O 0.0 **** 0.0
67 O2740 0.338712691072596 0.848543697342298 0.951126296879866 O 0.0 **** 0.0
68 C2742 0.257910455043959 0.885090837867047 0.997362412278443 C 0.0 **** 0.0
69 C2744 0.264882912207707 0.905484886667184 0.966939031007503 C 0.0 **** 0.0
70 H2746 0.423084568048136 0.783346581116388 0.93200067518109 H 0.0 **** 0.0
71 H2748 0.442769911317501 0.792238625216102 0.937994128139518 H 0.0 **** 0.0
72 H2750 0.470733779931195 0.767806223175526 0.902934926047332 H 0.0 **** 0.0
73 H2752 0.453480504943831 0.757311309601135 0.893109724414186 H 0.0 **** 0.0
74 H2754 0.417707221894965 0.808117836994402 0.930390346726784 H 0.0 **** 0.0
75 H2756 0.347286547214611 0.829250586014326 0.899064304365525 H 0.0 **** 0.0
76 H2758 0.351445413288722 0.850184104573524 0.89191749516794 H 0.0 **** 0.0
77 H2760 0.356747850364479 0.816836222188928 0.872956803568521 H 0.0 **** 0.0
78 H2762 0.365732825953837 0.834917085247473 0.848802061360996 H 0.0 **** 0.0
79 H2764 0.394055040759149 0.842798123585931 0.861942502792359 H 0.0 **** 0.0
80 H2766 0.387688310830891 0.821280737292566 0.862785233209445 H 0.0 **** 0.0
81 H2768 0.384771626681188 0.832106123643233 1.00429733686903 H 0.0 **** 0.0
82 H2770 0.378193333300748 0.853439977056585 1.00471415259413 H 0.0 **** 0.0
83 H2772 0.360764837289982 0.837127248542988 1.02411952149124 H 0.0 **** 0.0
84 H2774 0.356216195885203 0.821574851359264 1.00889038841536 H 0.0 **** 0.0
85 H2776 0.330023288180728 0.830113884892786 1.03519697818431 H 0.0 **** 0.0
86 H2778 0.342888987504632 0.847906883232942 1.0395449272096 H 0.0 **** 0.0
87 H2780 0.319284981144933 0.865107854081595 1.04760379886446 H 0.0 **** 0.0
88 H2782 0.316005734034538 0.845355567465862 1.05743913267645 H 0.0 **** 0.0
89 H2784 0.289111011650755 0.854646002273216 1.04409595864815 H 0.0 **** 0.0
90 H2786 0.296921373548449 0.837319982247622 1.03232327175843 H 0.0 **** 0.0
91 H2788 0.302382640510438 0.874904137502981 1.02443478732457 H 0.0 **** 0.0
92 H2790 0.280670524243343 0.848267119311897 1.0063183839517 H 0.0 **** 0.0
93 H2792 0.273569294037052 0.866290057767886 1.01738798885868 H 0.0 **** 0.0
94 H2794 0.314923538161542 0.875984283536673 0.961063398144751 H 0.0 **** 0.0
95 H2796 0.293409706117439 0.896415817715784 0.951750742258034 H 0.0 **** 0.0
96 H2798 0.442217184110392 0.741308089753825 0.97768494688502 H 0.0 **** 0.0
97 H2800 0.449524653620571 0.722361160938034 0.969586032964257 H 0.0 **** 0.0
98 H2802 0.420971836203677 0.716574767995157 0.956119409911069 H 0.0 **** 0.0
99 H2804 0.413202165603388 0.735852834733517 0.964683945907238 H 0.0 **** 0.0
100 H2806 0.419369311540323 0.719216595452118 0.97835786007381 H 0.0 **** 0.0
101 H2808 0.460514308115436 0.707531472545797 0.928808303840607 H 0.0 **** 0.0
102 H2810 0.448956093270616 0.707427386701801 0.947565448154966 H 0.0 **** 0.0
103 H2812 0.470503446859189 0.713822396711605 0.947886387208817 H 0.0 **** 0.0
104 H2814 0.415733857286306 0.768964555482282 0.955768825364011 H 0.0 **** 0.0
105 H2816 0.43401170183681 0.780310758585286 0.962238611071112 H 0.0 **** 0.0
106 H2818 0.428208460060769 0.761621747014767 0.972647677557228 H 0.0 **** 0.0
107 H2820 0.472434937398174 0.739147623608757 0.899381693364216 H 0.0 **** 0.0
108 H2822 0.458292013910359 0.722147555285805 0.902541024610518 H 0.0 **** 0.0
109 H2824 0.477297308897039 0.723676674642614 0.91445270504644 H 0.0 **** 0.0
110 H2826 0.47426201284371 0.789507509683487 0.868686477803601 H 0.0 **** 0.0
111 H2828 0.456521207519998 0.779909755270602 0.858753185675707 H 0.0 **** 0.0
112 H2830 0.467525838049254 0.769325675595218 0.874845498446771 H 0.0 **** 0.0
113 H2832 0.438096430466956 0.807641381954906 0.852150044962513 H 0.0 **** 0.0
114 H2834 0.459860186686541 0.809117818485796 0.857213395526446 H 0.0 **** 0.0
115 H2836 0.446812143255876 0.826246925953376 0.861479354664896 H 0.0 **** 0.0
116 H2838 0.412448637073601 0.838078154039924 0.866447604826484 H 0.0 **** 0.0
117 H2840 0.352876176672763 0.862641595792752 0.85812872886145 H 0.0 **** 0.0
118 H2842 0.374554539191943 0.864391780760721 0.852796076271998 H 0.0 **** 0.0
119 H2844 0.368409707865785 0.864132229658807 0.874442774553549 H 0.0 **** 0.0
120 H2846 0.327053824710836 0.825888647991222 0.874124154994637 H 0.0 **** 0.0
121 H2848 0.334990480982855 0.829216250109926 0.85331779176063 H 0.0 **** 0.0
122 H2850 0.332407803792897 0.846687406605001 0.867404359597375 H 0.0 **** 0.0
123 H2852 0.341346245611609 0.849258460091762 0.930683131054072 H 0.0 **** 0.0
124 H2854 0.411407692115107 0.830161256975523 0.958994743041216 H 0.0 **** 0.0
125 H2856 0.25260195619939 0.872957906415165 1.00160529460166 H 0.0 **** 0.0
126 H2858 0.248006097797003 0.891066528170788 0.989696034775648 H 0.0 **** 0.0
127 H2860 0.259902118713022 0.893107749502562 1.00854083203661 H 0.0 **** 0.0
128 H2862 0.253585458230535 0.89967241624606 0.961261185196785 H 0.0 **** 0.0
129 H2864 0.270612696080354 0.91363923741421 0.957264510124566 H 0.0 **** 0.0
130 H2866 0.260679702635346 0.913839412678021 0.97723399483822 H 0.0 **** 0.0
@<TRIPOS>BOND
1 3 2 Aromatic
2 4 3 Aromatic
3 5 4 Aromatic
4 6 5 Aromatic
5 1 2 Aromatic
6 1 6 Aromatic
7 8 7 1
8 9 8 Aromatic
9 10 9 1
10 4 7 1
11 3 10 1
12 12 11 Aromatic
13 13 12 Aromatic
14 14 13 Aromatic
15 9 11 Aromatic
16 8 14 Aromatic
17 16 15 Aromatic
18 17 16 Aromatic
19 18 17 Aromatic
20 14 15 Aromatic
21 13 18 Aromatic
22 20 19 1
23 21 20 1
24 22 21 Aromatic
25 17 19 1
26 16 22 Aromatic
27 24 23 1
28 25 24 Aromatic
29 26 25 1
30 20 23 1
31 19 26 1
32 28 27 Aromatic
33 29 28 Aromatic
34 30 29 Aromatic
35 22 27 Aromatic
36 21 30 Aromatic
37 32 31 1
38 33 32 Aromatic
39 34 33 1
40 29 31 1
41 28 34 1
42 36 35 1
43 37 36 1
44 38 37 Aromatic
45 33 35 1
46 32 38 Aromatic
47 40 39 Aromatic
48 41 40 Aromatic
49 42 41 Aromatic
50 38 39 Aromatic
51 37 42 Aromatic
52 44 43 1
53 45 44 1
54 46 45 1
55 42 43 1
56 41 46 1
57 48 47 1
58 49 48 Aromatic
59 40 49 Aromatic
60 46 47 1
61 51 50 Aromatic
62 52 51 Aromatic
63 53 52 Aromatic
64 49 50 Aromatic
65 48 53 Aromatic
66 6 54 1
67 54 55 1
68 1 56 1
69 5 57 1
70 2 58 1
71 11 59 1
72 12 60 1
73 18 61 1
74 25 62 1
75 24 63 1
76 30 64 1
77 27 65 1
78 34 66 Double
79 31 67 Double
80 53 68 1
81 52 69 1
82 7 70 1
83 7 71 1
84 10 72 1
85 10 73 1
86 15 74 1
87 23 75 1
88 23 76 1
89 24 77 1
90 25 78 1
91 26 79 1
92 26 80 1
93 35 81 1
94 35 82 1
95 36 83 1
96 36 84 1
97 43 85 1
98 43 86 1
99 44 87 1
100 44 88 1
101 45 89 1
102 45 90 1
103 46 91 1
104 47 92 1
105 47 93 1
106 50 94 1
107 51 95 1
108 54 96 1
109 54 97 1
110 55 98 1
111 55 99 1
112 55 100 1
113 56 101 1
114 56 102 1
115 56 103 1
116 57 104 1
117 57 105 1
118 57 106 1
119 58 107 1
120 58 108 1
121 58 109 1
122 59 110 1
123 59 111 1
124 59 112 1
125 60 113 1
126 60 114 1
127 60 115 1
128 61 116 1
129 62 117 1
130 62 118 1
131 62 119 1
132 63 120 1
133 63 121 1
134 63 122 1
135 64 123 1
136 65 124 1
137 68 125 1
138 68 126 1
139 68 127 1
140 69 128 1
141 69 129 1
142 69 130 1
@<TRIPOS>MOLECULE
Sketch 4
130 142
SMALL
USER_CHARGES


@<TRIPOS>ATOM
1 C2868 0.20236916615406 0.590552090762453 -0.0305768718046536 C.Trigonal 0.0 **** 0.0
2 C2869 0.207685590893941 0.584255362001994 -0.01510012899273 C 0.0 **** 0.0
3 C2870 0.207865605327585 0.594636512649878 -0.000980921719520385 C.Trigonal 0.0 **** 0.0
4 C2871 0.202815977106956 0.611209723278437 -0.00238504828862508 C.Trigonal 0.0 **** 0.0
5 C2872 0.196893419746248 0.617383743409675 -0.0177188815224689 C 0.0 **** 0.0
6 C2873 0.196503407462088 0.606990241802898 -0.0317948731312678 C 0.0 **** 0.0
7 C2880 0.203760303822713 0.62309193224327 0.0127185106212531 C 0.0 **** 0.0
8 C2881 0.208732095323949 0.615768282420694 0.0297882502603212 C.Trigonal 0.0 **** 0.0
9 C2882 0.213253444326444 0.599118208086677 0.0313034248462693 C.Trigonal 0.0 **** 0.0
10 C2883 0.213838416985617 0.587569376170971 0.0158897836948407 C 0.0 **** 0.0
11 C2889 0.216919626398709 0.592231400021725 0.0471021088078322 C 0.0 **** 0.0
12 C2890 0.215886650774578 0.60188892759634 0.0616898177251861 C 0.0 **** 0.0
13 C2891 0.214490940870971 0.619453795896601 0.0600294320549695 C.Trigonal 0.0 **** 0.0
14 C2892 0.209625416912147 0.626172600173814 0.0441662649047779 C.Trigonal 0.0 **** 0.0
15 C2898 0.207454947472532 0.643591947916606 0.0428087353996037 C 0.0 **** 0.0
16 C2899 0.212046825550814 0.654943687105523 0.0556527663810452 C.Trigonal 0.0 **** 0.0
17 C2900 0.219685282444648 0.648204571251073 0.0704317846104286 C.Trigonal 0.0 **** 0.0
18 C2901 0.22034781115365 0.630810030597918 0.0728924078606055 C 0.0 **** 0.0
19 C2907 0.227990897928009 0.660756175305971 0.0825003663011627 C.Trigonal 0.0 **** 0.0
20 C2908 0.231208387269869 0.676865257528274 0.077188257969073 C.Trigonal 0.0 **** 0.0
21 C2909 0.222275658614396 0.683770461055605 0.0614961240054864 C.Trigonal 0.0 **** 0.0
22 C2910 0.210997959702939 0.672799721984296 0.0531001295297927 C.Trigonal 0.0 **** 0.0
23 C2916 0.241765013426122 0.689150868074244 0.087753379338666 C 0.0 **** 0.0
24 C2917 0.250379207663454 0.680757719202522 0.103045887332344 C 0.0 **** 0.0
25 C2918 0.238090269787435 0.668813090005797 0.112205516713384 C 0.0 **** 0.0
26 C2919 0.233560043611632 0.654449417101058 0.0999359731569952 C 0.0 **** 0.0
27 C2925 0.199451346703422 0.67975159920224 0.0412082145796693 C 0.0 **** 0.0
28 C2926 0.20176349886186 0.696088348042566 0.0354836555263591 C.Trigonal 0.0 **** 0.0
29 C2927 0.214847568688701 0.705841379148083 0.0416425424959694 C.Trigonal 0.0 **** 0.0
30 C2928 0.224740972672202 0.700096476424037 0.0550526390402674 C 0.0 **** 0.0
31 C2934 0.218036995672803 0.723307253866633 0.0344011355575044 C 0.0 **** 0.0
32 C2935 0.205873046119441 0.730031076279379 0.0219045450346208 C.Trigonal 0.0 **** 0.0
33 C2936 0.192532134909557 0.720673240564472 0.0166493787309577 C.Trigonal 0.0 **** 0.0
34 C2937 0.18967968579461 0.703277427392637 0.0226350977546682 C 0.0 **** 0.0
35 C2943 0.179694932081855 0.727745460387516 0.0042487880224057 C 0.0 **** 0.0
36 C2944 0.188235574615266 0.740096264429694 -0.00823995921262665 C 0.0 **** 0.0
37 C2945 0.199037179225873 0.753111464811148 0.000922359889272822 C.Trigonal 0.0 **** 0.0
38 C2946 0.208313849191417 0.747789391170652 0.0153097903990194 C.Trigonal 0.0 **** 0.0
39 N2952 0.21891474864786 0.758262914751925 0.0233280964071842 N 0.0 **** 0.0
40 C2953 0.220789600769098 0.774031626785803 0.0173753123487812 C.Trigonal 0.0 **** 0.0
41 C2954 0.21107983112901 0.780471705028342 0.00379257685265082 C.Trigonal 0.0 **** 0.0
42 C2955 0.200287090552702 0.769689908486876 -0.00447313953619491 C.Trigonal 0.0 **** 0.0
43 C2961 0.190006185335461 0.775687070468376 -0.0196660778673178 C 0.0 **** 0.0
44 C2962 0.189031914533911 0.795003289377581 -0.0210396513099456 C 0.0 **** 0.0
45 C2963 0.206408048149981 0.802851476815966 -0.0183363527774733 C 0.0 **** 0.0
46 C2964 0.212408587691584 0.799208697695812 -0.000290620099178616 C 0.0 **** 0.0
47 C2970 0.230609843817263 0.805746295166748 0.00274124384458683 C 0.0 **** 0.0
48 C2971 0.237667076908894 0.79957408841225 0.0194629444505715 C.Trigonal 0.0 **** 0.0
49 C2972 0.232730686977942 0.783889725037509 0.0261178539074389 C.Trigonal 0.0 **** 0.0
50 C2977 0.24018887297655 0.778130140000507 0.0413019041871549 C 0.0 **** 0.0
51 C2978 0.252154804701291 0.787803066294903 0.0492513879719634 C 0.0 **** 0.0
52 C2979 0.257258903631649 0.80316691217511 0.0425739507314306 C 0.0 **** 0.0
53 C2980 0.25007672216038 0.808927733272662 0.02753779521099 C 0.0 **** 0.0
54 C2986 0.189552594311528 0.613529242678302 -0.0484805166839759 C 0.0 **** 0.0
55 C2988 0.203531828360891 0.621592224803447 -0.0592249522579577 C 0.0 **** 0.0
56 C2990 0.202467382286986 0.579038563827051 -0.0459353726163513 C 0.0 **** 0.0
57 C2992 0.190815126879132 0.635562046074857 -0.0188796946538502 C 0.0 **** 0.0
58 C2994 0.213423626944244 0.565968272869501 -0.0139884240796063 C 0.0 **** 0.0
59 C2996 0.221585487170366 0.57360171504378 0.0482744463679768 C 0.0 **** 0.0
60 C2998 0.217937708631693 0.592851232767162 0.0784650483798105 C 0.0 **** 0.0
61 O3000 0.227275747751389 0.623752803360268 0.0870845546870841 O 0.0 **** 0.0
62 C3002 0.222076044082782 0.677741663153446 0.11884367741643 C 0.0 **** 0.0
63 C3004 0.257579085536056 0.694298056246994 0.115021701178932 C 0.0 **** 0.0
64 O3006 0.236745727038375 0.710404453692565 0.0622715966751771 O 0.0 **** 0.0
65 O3008 0.186346066221824 0.669842494460861 0.0355756953211291 O 0.0 **** 0.0
66 O3010 0.177815631058913 0.694760646882046 0.017778775251431 O 0.0 **** 0.0
67 O3012 0.230609526266197 0.730851150547675 0.0390585667204601 O 0.0 **** 0.0
68 C3014 0.256005246322691 0.825425714373844 0.0198246734832694 C 0.0 **** 0.0
69 C3016 0.270882806253219 0.812854660598433 0.0518529464258867 C 0.0 **** 0.0
70 H3018 0.212974514124455 0.633114325195298 0.00957810958674863 H 0.0 **** 0.0
71 H3020 0.191330880907909 0.629270929524735 0.0141613233911066 H 0.0 **** 0.0
72 H3022 0.206090792357884 0.57635368859121 0.0188315765194909 H 0.0 **** 0.0
73 H3024 0.226957625099444 0.58312044958781 0.0142640572409494 H 0.0 **** 0.0
74 H3026 0.203810145095132 0.648647916928238 0.0304412204376724 H 0.0 **** 0.0
75 H3028 0.25203042799222 0.694558506529425 0.0800675016688691 H 0.0 **** 0.0
76 H3030 0.233745648340128 0.699655280176466 0.0921728650809955 H 0.0 **** 0.0
77 H3032 0.261080463767685 0.673144125479127 0.0983785240163532 H 0.0 **** 0.0
78 H3034 0.244685759994573 0.663210176950422 0.123115630116795 H 0.0 **** 0.0
79 H3036 0.223513268059799 0.646926243726627 0.1060048121151 H 0.0 **** 0.0
80 H3038 0.24487966968876 0.646457283003942 0.0985422183248595 H 0.0 **** 0.0
81 H3040 0.173362785568924 0.717712495223227 -0.00311520893665193 H 0.0 **** 0.0
82 H3042 0.169656342352063 0.734366493132543 0.0112956238881772 H 0.0 **** 0.0
83 H3044 0.178338507714355 0.745831149760446 -0.0160903902880941 H 0.0 **** 0.0
84 H3046 0.196222851418754 0.732784788692874 -0.0170020895734165 H 0.0 **** 0.0
85 H3048 0.195757362258412 0.77062371351596 -0.0313292691277631 H 0.0 **** 0.0
86 H3050 0.176993997904358 0.77080097128867 -0.0191581533425939 H 0.0 **** 0.0
87 H3052 0.180272260353204 0.799951044024216 -0.0113765045468078 H 0.0 **** 0.0
88 H3054 0.183729782196797 0.798641352562263 -0.033406958674126 H 0.0 **** 0.0
89 H3056 0.206065008039267 0.81661137141043 -0.0205496672105188 H 0.0 **** 0.0
90 H3058 0.215403610131922 0.797568780590159 -0.0275762169924629 H 0.0 **** 0.0
91 H3060 0.203950629877085 0.806108665682757 0.00847565149498716 H 0.0 **** 0.0
92 H3062 0.238877776619871 0.801407938720887 -0.00759128598258057 H 0.0 **** 0.0
93 H3064 0.230379614541477 0.819633684584577 0.00203197669261659 H 0.0 **** 0.0
94 H3066 0.236572861735338 0.765838240714189 0.046675768714293 H 0.0 **** 0.0
95 H3068 0.257956406811713 0.783208053709302 0.0610067568431223 H 0.0 **** 0.0
96 H3070 0.179378609788644 0.622796441151919 -0.0463829786834701 H 0.0 **** 0.0
97 H3072 0.183398598588469 0.60331013243171 -0.0556563734510583 H 0.0 **** 0.0
98 H3074 0.213687636511951 0.612499009708599 -0.0619984818786229 H 0.0 **** 0.0
99 H3076 0.209271816760553 0.632455715140092 -0.0527075674815977 H 0.0 **** 0.0
100 H3078 0.198559833875126 0.626182595267926 -0.0713829373030468 H 0.0 **** 0.0
101 H3080 0.212866080254575 0.569833468870609 -0.0455345177751142 H 0.0 **** 0.0
102 H3082 0.204175347489396 0.585960425218649 -0.0578392117288746 H 0.0 **** 0.0
103 H3084 0.190542914864468 0.571886962398113 -0.0468785870699431 H 0.0 **** 0.0
104 H3086 0.192445690789071 0.640965252513601 -0.0315542891651096 H 0.0 **** 0.0
105 H3088 0.19779581255682 0.644066521126912 -0.0104072264005154 H 0.0 **** 0.0
106 H3090 0.177303681093643 0.636519178331531 -0.0156161776586656 H 0.0 **** 0.0
107 H3092 0.214739711567407 0.561257811936638 -0.00102784162341699 H 0.0 **** 0.0
108 H3094 0.225792787760115 0.564247690620228 -0.0201723333740377 H 0.0 **** 0.0
109 H3096 0.204311963157866 0.557482274347827 -0.020215009608096 H 0.0 **** 0.0
110 H3098 0.210257904870559 0.5656156838069 0.0494926624155094 H 0.0 **** 0.0
111 H3100 0.229906199157443 0.57092235135656 0.0590808099142127 H 0.0 **** 0.0
112 H3102 0.228680119690158 0.569192245861765 0.0371822215510413 H 0.0 **** 0.0
113 H3104 0.231314389321273 0.591901704518513 0.0821796659879133 H 0.0 **** 0.0
114 H3106 0.212729345366553 0.579980466403233 0.0780866094393528 H 0.0 **** 0.0
115 H3108 0.210954281461679 0.599152196001824 0.0886970871495756 H 0.0 **** 0.0
116 H3110 0.231226713440743 0.632514634692976 0.094145363377828 H 0.0 **** 0.0
117 H3112 0.225396966226865 0.687361010018119 0.128311317567799 H 0.0 **** 0.0
118 H3114 0.21360196081674 0.668552207825496 0.124946069561079 H 0.0 **** 0.0
119 H3116 0.215112123053388 0.683921982856875 0.108552142375878 H 0.0 **** 0.0
120 H3118 0.267035068072744 0.702059394128256 0.108403797545555 H 0.0 **** 0.0
121 H3120 0.263774509847354 0.688325867254817 0.125931298600041 H 0.0 **** 0.0
122 H3122 0.247550558767935 0.702718031789434 0.119684318776597 H 0.0 **** 0.0
123 H3124 0.237850528402272 0.720424990871547 0.0556019681539167 H 0.0 **** 0.0
124 H3126 0.179503919874742 0.676288177334399 0.0279869752626049 H 0.0 **** 0.0
125 H3128 0.259104574361473 0.823853050740881 0.00634024084680911 H 0.0 **** 0.0
126 H3130 0.267453611148424 0.830377149646921 0.0258493707833433 H 0.0 **** 0.0
127 H3132 0.246241982099009 0.835301239814276 0.0208447037600514 H 0.0 **** 0.0
128 H3134 0.26774353985262 0.826329561150169 0.0531195381642582 H 0.0 **** 0.0
129 H3136 0.283091405866362 0.81192260405973 0.0452098994424326 H 0.0 **** 0.0
130 H3138 0.272780094600905 0.807970437547163 0.0647132412092679 H 0.0 **** 0.0
@<TRIPOS>BOND
1 3 2 Aromatic
2 4 3 Aromatic
3 5 4 Aromatic
4 6 5 Aromatic
5 1 2 Aromatic
6 1 6 Aromatic
7 8 7 1
8 9 8 Aromatic
9 10 9 1
10 4 7 1
11 3 10 1
12 12 11 Aromatic
13 13 12 Aromatic
14 14 13 Aromatic
15 9 11 Aromatic
16 8 14 Aromatic
17 16 15 Aromatic
18 17 16 Aromatic
19 18 17 Aromatic
20 14 15 Aromatic
21 13 18 Aromatic
22 20 19 1
23 21 20 1
24 22 21 Aromatic
25 17 19 1
26 16 22 Aromatic
27 24 23 1
28 25 24 Aromatic
29 26 25 1
30 20 23 1
31 19 26 1
32 28 27 Aromatic
33 29 28 Aromatic
34 30 29 Aromatic
35 22 27 Aromatic
36 21 30 Aromatic
37 32 31 1
38 33 32 Aromatic
39 34 33 1
40 29 31 1
41 28 34 1
42 36 35 1
43 37 36 1
44 38 37 Aromatic
45 33 35 1
46 32 38 Aromatic
47 40 39 Aromatic
48 41 40 Aromatic
49 42 41 Aromatic
50 38 39 Aromatic
51 37 42 Aromatic
52 44 43 1
53 45 44 1
54 46 45 1
55 42 43 1
56 41 46 1
57 48 47 1
58 49 48 Aromatic
59 40 49 Aromatic
60 46 47 1
61 51 50 Aromatic
62 52 51 Aromatic
63 53 52 Aromatic
64 49 50 Aromatic
65 48 53 Aromatic
66 6 54 1
67 54 55 1
68 1 56 1
69 5 57 1
70 2 58 1
71 11 59 1
72 12 60 1
73 18 61 1
74 25 62 1
75 24 63 1
76 30 64 1
77 27 65 1
78 34 66 Double
79 31 67 Double
80 53 68 1
81 52 69 1
82 7 70 1
83 7 71 1
84 10 72 1
85 10 73 1
86 15 74 1
87 23 75 1
88 23 76 1
89 24 77 1
90 25 78 1
91 26 79 1
92 26 80 1
93 35 81 1
94 35 82 1
95 36 83 1
96 36 84 1
97 43 85 1
98 43 86 1
99 44 87 1
100 44 88 1
101 45 89 1
102 45 90 1
103 46 91 1
104 47 92 1
105 47 93 1
106 50 94 1
107 51 95 1
108 54 96 1
109 54 97 1
110 55 98 1
111 55 99 1
112 55 100 1
113 56 101 1
114 56 102 1
115 56 103 1
116 57 104 1
117 57 105 1
118 57 106 1
119 58 107 1
120 58 108 1
121 58 109 1
122 59 110 1
123 59 111 1
124 59 112 1
125 60 113 1
126 60 114 1
127 60 115 1
128 61 116 1
129 62 117 1
130 62 118 1
131 62 119 1
132 63 120 1
133 63 121 1
134 63 122 1
135 64 123 1
136 65 124 1
137 68 125 1
138 68 126 1
139 68 127 1
140 69 128 1
141 69 129 1
142 69 130 1
@<TRIPOS>MOLECULE
Sketch 4
130 142
SMALL
USER_CHARGES


@<TRIPOS>ATOM
1 C3140 0.174369597425201 0.794264526313043 0.695810803073159 C.Trigonal 0.0 **** 0.0
2 C3141 0.182077069305195 0.808640645357288 0.702231117899667 C 0.0 **** 0.0
3 C3142 0.189216198612377 0.8203747988632 0.691369795972382 C.Trigonal 0.0 **** 0.0
4 C3143 0.189277726813811 0.817438573780239 0.674239687041929 C.Trigonal 0.0 **** 0.0
5 C3144 0.181678692413793 0.80300872240248 0.667776948017845 C 0.0 **** 0.0
6 C3145 0.173764375716216 0.79167762579764 0.678536411619817 C 0.0 **** 0.0
7 C3152 0.197735974212839 0.829896244392502 0.662232676757981 C 0.0 **** 0.0
8 C3153 0.202450985079135 0.847245767541083 0.669106810404985 C.Trigonal 0.0 **** 0.0
9 C3154 0.202295456193858 0.850155402571364 0.686171642914192 C.Trigonal 0.0 **** 0.0
10 C3155 0.197169774629735 0.836304893757753 0.698533228470985 C 0.0 **** 0.0
11 C3161 0.206947333627737 0.865822582098011 0.692644274947248 C 0.0 **** 0.0
12 C3162 0.210658612595555 0.879354359327642 0.6821968734231 C 0.0 **** 0.0
13 C3163 0.212447485365301 0.876347152438017 0.664827854209259 C.Trigonal 0.0 **** 0.0
14 C3164 0.208254787135031 0.860112030283113 0.65832080063908 C.Trigonal 0.0 **** 0.0
15 C3170 0.211699178050241 0.856649516657253 0.641356411535104 C 0.0 **** 0.0
16 C3171 0.221960025755741 0.867047859359523 0.631310412766258 C.Trigonal 0.0 **** 0.0
17 C3172 0.228447140884074 0.881827170589221 0.639180441327058 C.Trigonal 0.0 **** 0.0
18 C3173 0.221423874038663 0.887741317795681 0.654120529175245 C 0.0 **** 0.0
19 C3179 0.242451796470246 0.891322888913024 0.63023783177969 C.Trigonal 0.0 **** 0.0
20 C3180 0.248213777897191 0.885911635623505 0.615048755106706 C.Trigonal 0.0 **** 0.0
21 C3181 0.24185937005267 0.869513901321277 0.607517238779163 C.Trigonal 0.0 **** 0.0
22 C3182 0.227039538401491 0.862464225811545 0.614391477069542 C.Trigonal 0.0 **** 0.0
23 C3188 0.262146602893086 0.896525173720312 0.606905424969863 C 0.0 **** 0.0
24 C3189 0.277465638355516 0.895874850221447 0.618874954606638 C 0.0 **** 0.0
25 C3190 0.272223264542502 0.901316363102253 0.63718692365927 C 0.0 **** 0.0
26 C3191 0.253026051548914 0.905062550680207 0.639055386736478 C 0.0 **** 0.0
27 C3197 0.219541935386432 0.848737119895935 0.60566185429393 C 0.0 **** 0.0
28 C3198 0.229176671838394 0.839540745889841 0.594267457478357 C.Trigonal 0.0 **** 0.0
29 C3199 0.245287735983959 0.844784215374927 0.590065003638008 C.Trigonal 0.0 **** 0.0
30 C3200 0.2517330014182 0.859833763289964 0.596494096314675 C 0.0 **** 0.0
31 C3206 0.256088594665461 0.834360964901768 0.578245372769824 C 0.0 **** 0.0
32 C3207 0.249010641227819 0.818415549587055 0.571680591486042 C.Trigonal 0.0 **** 0.0
33 C3208 0.233171496354855 0.81335169513408 0.57573438818187 C.Trigonal 0.0 **** 0.0
34 C3209 0.222141771426276 0.823453149567197 0.586874532726576 C 0.0 **** 0.0
35 C3215 0.226010726406755 0.796850336923936 0.569037706298669 C 0.0 **** 0.0
36 C3216 0.240126192771189 0.783503285412115 0.566354306426618 C 0.0 **** 0.0
37 C3217 0.255597126864523 0.790713186983388 0.557401411245312 C.Trigonal 0.0 **** 0.0
38 C3218 0.259953268069183 0.807826292261937 0.560248414497242 C.Trigonal 0.0 **** 0.0
39 N3224 0.273945653496974 0.814600711478334 0.55358732303887 N 0.0 **** 0.0
40 C3225 0.284367943536482 0.804652267354704 0.54470338472705 C.Trigonal 0.0 **** 0.0
41 C3226 0.280564030846116 0.787583606844 0.540933425751847 C.Trigonal 0.0 **** 0.0
42 C3227 0.265928649015898 0.780807296276432 0.547339226024695 C.Trigonal 0.0 **** 0.0
43 C3233 0.261287619397572 0.762305454810681 0.544318818740975 C 0.0 **** 0.0
44 C3234 0.272192360122434 0.753659180846787 0.530803669180983 C 0.0 **** 0.0
45 C3235 0.290694739726239 0.758745352117503 0.532525285441573 C 0.0 **** 0.0
46 C3236 0.292472921756687 0.777798425872931 0.529492710167606 C 0.0 **** 0.0
47 C3242 0.311022011001959 0.783735506684277 0.531777497700357 C 0.0 **** 0.0
48 C3243 0.312533509810783 0.802838917472422 0.532750558195166 C.Trigonal 0.0 **** 0.0
49 C3244 0.299339346353131 0.81263413110195 0.539370934944346 C.Trigonal 0.0 **** 0.0
50 C3249 0.301674250696838 0.83025277457115 0.541295185772545 C 0.0 **** 0.0
51 C3250 0.316802649244112 0.837517699272042 0.536999092543943 C 0.0 **** 0.0
52 C3251 0.329966580552536 0.827839517956325 0.530719802302744 C 0.0 **** 0.0
53 C3252 0.327722820358107 0.810480491051255 0.528571507106516 C 0.0 **** 0.0
54 C3258 0.164521827781065 0.776481400383831 0.671334331365836 C 0.0 **** 0.0
55 C3260 0.176131738078732 0.760984611045342 0.671142694274942 C 0.0 **** 0.0
56 C3262 0.166622957700733 0.781821961005264 0.708200266039729 C 0.0 **** 0.0
57 C3264 0.181774691239118 0.79988827070863 0.648833384685609 C 0.0 **** 0.0
58 C3266 0.182274534996087 0.811265781192365 0.721245674048151 C 0.0 **** 0.0
59 C3268 0.207842697846727 0.868190000039701 0.711667488710602 C 0.0 **** 0.0
60 C3270 0.21443527861103 0.896153722102427 0.690653531154972 C 0.0 **** 0.0
61 O3272 0.224101427708567 0.904014003510751 0.659432222207622 O 0.0 **** 0.0
62 C3274 0.282161350452343 0.916607543638394 0.644063621388893 C 0.0 **** 0.0
63 C3276 0.292346904048521 0.905960738699954 0.611404921396757 C 0.0 **** 0.0
64 O3278 0.267778210473946 0.865291076569307 0.592586338381791 O 0.0 **** 0.0
65 O3280 0.2032159660676 0.84421436661257 0.609548614842372 O 0.0 **** 0.0
66 O3282 0.207907077651872 0.818964063640013 0.590634223883992 O 0.0 **** 0.0
67 O3284 0.270201318204961 0.839538735729017 0.57492339256341 O 0.0 **** 0.0
68 C3286 0.34216922019513 0.799906444029867 0.521847088817129 C 0.0 **** 0.0
69 C3288 0.346580529543445 0.836511101134734 0.526847794076543 C 0.0 **** 0.0
70 H3290 0.20931579784715 0.823911705795664 0.657193644968653 H 0.0 **** 0.0
71 H3292 0.189172213500337 0.831833186973655 0.651422244032399 H 0.0 **** 0.0
72 H3294 0.188009894852822 0.841916872202867 0.707415552590368 H 0.0 **** 0.0
73 H3296 0.208392457578887 0.832632724139415 0.705954629844779 H 0.0 **** 0.0
74 H3298 0.20818081342029 0.844124805979236 0.636663521757618 H 0.0 **** 0.0
75 H3300 0.265751087888489 0.893077986436605 0.593942901170242 H 0.0 **** 0.0
76 H3302 0.257590516486613 0.909634432696425 0.605877476024497 H 0.0 **** 0.0
77 H3304 0.28159607475261 0.882588101144756 0.619536696681004 H 0.0 **** 0.0
78 H3306 0.275092205592985 0.890540085651611 0.645536416777728 H 0.0 **** 0.0
79 H3308 0.250017562249789 0.917460809113925 0.633502783594926 H 0.0 **** 0.0
80 H3310 0.250843548710698 0.906078959683442 0.65271011433966 H 0.0 **** 0.0
81 H3312 0.216454908063496 0.791428141034677 0.577656573815178 H 0.0 **** 0.0
82 H3314 0.219435514662487 0.799218803007039 0.557022618771405 H 0.0 **** 0.0
83 H3316 0.234568242287968 0.772810468133009 0.559441496662487 H 0.0 **** 0.0
84 H3318 0.244024020226584 0.778476706837826 0.578789887085011 H 0.0 **** 0.0
85 H3320 0.262713065074954 0.755350442860231 0.556334510028745 H 0.0 **** 0.0
86 H3322 0.247932350862997 0.761124960826361 0.540559203604306 H 0.0 **** 0.0
87 H3324 0.26776586251817 0.757371057286966 0.518138393944486 H 0.0 **** 0.0
88 H3326 0.270646351760679 0.73982801523488 0.531548127465564 H 0.0 **** 0.0
89 H3328 0.298607771095361 0.751746697963144 0.52342553485581 H 0.0 **** 0.0
90 H3330 0.29535089414232 0.75544684280227 0.545252328750903 H 0.0 **** 0.0
91 H3332 0.288923438219562 0.780373983034575 0.516244405163534 H 0.0 **** 0.0
92 H3334 0.316233629763769 0.778178193543883 0.543479118089988 H 0.0 **** 0.0
93 H3336 0.318463656168005 0.778555983780905 0.521240136958803 H 0.0 **** 0.0
94 H3338 0.291513550411539 0.838124129001164 0.546566241823547 H 0.0 **** 0.0
95 H3340 0.31855127223103 0.85119433823255 0.538660843397404 H 0.0 **** 0.0
96 H3342 0.159860643287362 0.779017685418995 0.658477765196147 H 0.0 **** 0.0
97 H3344 0.152972499069099 0.773768057723631 0.678606150409621 H 0.0 **** 0.0
98 H3346 0.180856346924238 0.758043481073219 0.683896733582413 H 0.0 **** 0.0
99 H3348 0.187135628115113 0.763152158290698 0.662927617727722 H 0.0 **** 0.0
100 H3350 0.169566103856517 0.749675327240938 0.666438596363859 H 0.0 **** 0.0
101 H3352 0.155776561826558 0.78748982615467 0.714848998675598 H 0.0 **** 0.0
102 H3354 0.175908627354537 0.777853276566043 0.717787084485082 H 0.0 **** 0.0
103 H3356 0.162126683372044 0.770095949816116 0.702380556337473 H 0.0 **** 0.0
104 H3358 0.19273369660227 0.805612404928135 0.64251923759989 H 0.0 **** 0.0
105 H3360 0.170295864894996 0.805080095398267 0.642868963309593 H 0.0 **** 0.0
106 H3362 0.182430391817145 0.786372320956726 0.645710419642641 H 0.0 **** 0.0
107 H3364 0.189881421767909 0.822096285171671 0.725322621657727 H 0.0 **** 0.0
108 H3366 0.187568880570874 0.800211427584498 0.727825424902763 H 0.0 **** 0.0
109 H3368 0.169374998745492 0.81326328808639 0.726097202942631 H 0.0 **** 0.0
110 H3370 0.196717445760426 0.875060206523552 0.716387608288645 H 0.0 **** 0.0
111 H3372 0.219184277875468 0.875370457673203 0.715337149034308 H 0.0 **** 0.0
112 H3374 0.208722645736239 0.856299792491706 0.718720779672606 H 0.0 **** 0.0
113 H3376 0.228158350722094 0.898174401453986 0.69181394977558 H 0.0 **** 0.0
114 H3378 0.209004491826561 0.897248687355928 0.703378357491779 H 0.0 **** 0.0
115 H3380 0.208943394896277 0.906864371455002 0.683756478267589 H 0.0 **** 0.0
116 H3382 0.228502923204456 0.910126524214711 0.650121324358613 H 0.0 **** 0.0
117 H3384 0.2958081666656 0.913969670163239 0.644232313991696 H 0.0 **** 0.0
118 H3386 0.278275940721165 0.919396328946678 0.65713043569595 H 0.0 **** 0.0
119 H3388 0.279842666315474 0.927947119044267 0.636377897954269 H 0.0 **** 0.0
120 H3390 0.303818297633441 0.904135436913361 0.61904128007801 H 0.0 **** 0.0
121 H3392 0.295135112069977 0.901591763241327 0.598495694219094 H 0.0 **** 0.0
122 H3394 0.289462208507599 0.919507647312812 0.610894622631749 H 0.0 **** 0.0
123 H3396 0.273164094778041 0.85691225390911 0.585736068668415 H 0.0 **** 0.0
124 H3398 0.200035227020165 0.834877233905362 0.602546805257323 H 0.0 **** 0.0
125 H3400 0.343784827944109 0.788136762896595 0.529087866304028 H 0.0 **** 0.0
126 H3402 0.354348175847369 0.806485314286589 0.522545610909629 H 0.0 **** 0.0
127 H3404 0.34005478858066 0.796477280668798 0.50850117048574 H 0.0 **** 0.0
128 H3406 0.356556384815095 0.832450659658202 0.535681359955748 H 0.0 **** 0.0
129 H3408 0.345561766390361 0.85031435846167 0.527954564733914 H 0.0 **** 0.0
130 H3410 0.350945393476648 0.833756378222521 0.51392083709834 H 0.0 **** 0.0
@<TRIPOS>BOND
1 3 2 Aromatic
2 4 3 Aromatic
3 5 4 Aromatic
4 6 5 Aromatic
5 1 2 Aromatic
6 1 6 Aromatic
7 8 7 1
8 9 8 Aromatic
9 10 9 1
10 4 7 1
11 3 10 1
12 12 11 Aromatic
13 13 12 Aromatic
14 14 13 Aromatic
15 9 11 Aromatic
16 8 14 Aromatic
17 16 15 Aromatic
18 17 16 Aromatic
19 18 17 Aromatic
20 14 15 Aromatic
21 13 18 Aromatic
22 20 19 1
23 21 20 1
24 22 21 Aromatic
25 17 19 1
26 16 22 Aromatic
27 24 23 1
28 25 24 Aromatic
29 26 25 1
30 20 23 1
31 19 26 1
32 28 27 Aromatic
33 29 28 Aromatic
34 30 29 Aromatic
35 22 27 Aromatic
36 21 30 Aromatic
37 32 31 1
38 33 32 Aromatic
39 34 33 1
40 29 31 1
41 28 34 1
42 36 35 1
43 37 36 1
44 38 37 Aromatic
45 33 35 1
46 32 38 Aromatic
47 40 39 Aromatic
48 41 40 Aromatic
49 42 41 Aromatic
50 38 39 Aromatic
51 37 42 Aromatic
52 44 43 1
53 45 44 1
54 46 45 1
55 42 43 1
56 41 46 1
57 48 47 1
58 49 48 Aromatic
59 40 49 Aromatic
60 46 47 1
61 51 50 Aromatic
62 52 51 Aromatic
63 53 52 Aromatic
64 49 50 Aromatic
65 48 53 Aromatic
66 6 54 1
67 54 55 1
68 1 56 1
69 5 57 1
70 2 58 1
71 11 59 1
72 12 60 1
73 18 61 1
74 25 62 1
75 24 63 1
76 30 64 1
77 27 65 1
78 34 66 Double
79 31 67 Double
80 53 68 1
81 52 69 1
82 7 70 1
83 7 71 1
84 10 72 1
85 10 73 1
86 15 74 1
87 23 75 1
88 23 76 1
89 24 77 1
90 25 78 1
91 26 79 1
92 26 80 1
93 35 81 1
94 35 82 1
95 36 83 1
96 36 84 1
97 43 85 1
98 43 86 1
99 44 87 1
100 44 88 1
101 45 89 1
102 45 90 1
103 46 91 1
104 47 92 1
105 47 93 1
106 50 94 1
107 51 95 1
108 54 96 1
109 54 97 1
110 55 98 1
111 55 99 1
112 55 100 1
113 56 101 1
114 56 102 1
115 56 103 1
116 57 104 1
117 57 105 1
118 57 106 1
119 58 107 1
120 58 108 1
121 58 109 1
122 59 110 1
123 59 111 1
124 59 112 1
125 60 113 1
126 60 114 1
127 60 115 1
128 61 116 1
129 62 117 1
130 62 118 1
131 62 119 1
132 63 120 1
133 63 121 1
134 63 122 1
135 64 123 1
136 65 124 1
137 68 125 1
138 68 126 1
139 68 127 1
140 69 128 1
141 69 129 1
142 69 130 1
@<TRIPOS>MOLECULE
Sketch 4
130 142
SMALL
USER_CHARGES


@<TRIPOS>ATOM
1 C3412 0.620189697046512 0.841474999064834 0.145919571459226 C.Trigonal 0.0 **** 0.0
2 C3413 0.609545671115556 0.854429440064656 0.151009392410354 C 0.0 **** 0.0
3 C3414 0.613534568211568 0.871049441184167 0.147214971650916 C.Trigonal 0.0 **** 0.0
4 C3415 0.62849157021553 0.874796278288712 0.139203952727325 C.Trigonal 0.0 **** 0.0
5 C3416 0.639386527356454 0.861912721732561 0.134449529116988 C 0.0 **** 0.0
6 C3417 0.634925948593055 0.845197386901036 0.137246619807902 C 0.0 **** 0.0
7 C3424 0.63295633756759 0.893180039721925 0.135681813226395 C 0.0 **** 0.0
8 C3425 0.618095519691145 0.905298660508162 0.134008235315747 C.Trigonal 0.0 **** 0.0
9 C3426 0.603054394010048 0.901381875303366 0.141721326903096 C.Trigonal 0.0 **** 0.0
10 C3427 0.601615155977865 0.885272771844393 0.152219866646092 C 0.0 **** 0.0
11 C3433 0.588974365389777 0.9118170668595 0.140018977854726 C 0.0 **** 0.0
12 C3434 0.58942471730224 0.9259155196056 0.129712820681532 C 0.0 **** 0.0
13 C3435 0.605048395127208 0.931329458270932 0.123491606124697 C.Trigonal 0.0 **** 0.0
14 C3436 0.619428309414642 0.920656499577288 0.125236248213341 C.Trigonal 0.0 **** 0.0
15 C3442 0.634624815752513 0.925578839544566 0.117282050287335 C 0.0 **** 0.0
16 C3443 0.634988525053098 0.938643682585891 0.105617362428195 C.Trigonal 0.0 **** 0.0
17 C3444 0.622709235698566 0.951237999593118 0.108248073685499 C.Trigonal 0.0 **** 0.0
18 C3445 0.607288859538847 0.94746388989748 0.11580657658027 C 0.0 **** 0.0
19 C3451 0.625054494288973 0.967492307673243 0.0988634344891356 C.Trigonal 0.0 **** 0.0
20 C3452 0.632494174515739 0.966962841936518 0.0834939256662842 C.Trigonal 0.0 **** 0.0
21 C3453 0.638148599560383 0.949962642846003 0.0767320101820836 C.Trigonal 0.0 **** 0.0
22 C3454 0.641757186335529 0.937075090188023 0.0885605712689429 C.Trigonal 0.0 **** 0.0
23 C3460 0.636229447371508 0.982856559779567 0.0733083236690439 C 0.0 **** 0.0
24 C3461 0.636473322416805 0.998722283356368 0.0846004665675513 C 0.0 **** 0.0
25 C3462 0.621042420009562 0.999182171926002 0.0966501636291921 C 0.0 **** 0.0
26 C3463 0.621731706959851 0.983791883581534 0.108530056901525 C 0.0 **** 0.0
27 C3469 0.647657483274708 0.92137144061861 0.0821386388220475 C 0.0 **** 0.0
28 C3470 0.646547242139552 0.918024066771955 0.0649735042539936 C.Trigonal 0.0 **** 0.0
29 C3471 0.641370471039901 0.930340653805287 0.0537552087786601 C.Trigonal 0.0 **** 0.0
30 C3472 0.637735559303025 0.946528434499598 0.0594757317996823 C 0.0 **** 0.0
31 C3478 0.639457597008337 0.926371791524702 0.0351530998401358 C 0.0 **** 0.0
32 C3479 0.642723633340329 0.908925311672212 0.0295175866071383 C.Trigonal 0.0 **** 0.0
33 C3480 0.648078278705215 0.896970482434189 0.0405131164203773 C.Trigonal 0.0 **** 0.0
34 C3481 0.650704188031707 0.900572122279251 0.0585699802883007 C 0.0 **** 0.0
35 C3487 0.651742342036374 0.879094142197683 0.0346831515761071 C 0.0 **** 0.0
36 C3488 0.640011720725636 0.873780674938068 0.0199797055358094 C 0.0 **** 0.0
37 C3489 0.63864453997862 0.887382328107849 0.00644058854820763 C.Trigonal 0.0 **** 0.0
38 C3490 0.639953183960275 0.904596310969385 0.0111479385742658 C.Trigonal 0.0 **** 0.0
39 N3496 0.638358758518557 0.916995050858272 -0.000283613178055693 N 0.0 **** 0.0
40 C3497 0.635276553852659 0.91284871276918 -0.0164260088370308 C.Trigonal 0.0 **** 0.0
41 C3498 0.633103072603508 0.895917184647839 -0.0218130119728701 C.Trigonal 0.0 **** 0.0
42 C3499 0.635102118164108 0.883237845126452 -0.0101604415131536 C.Trigonal 0.0 **** 0.0
43 C3505 0.633575560271743 0.864654977301207 -0.0151615193403702 C 0.0 **** 0.0
44 C3506 0.625342771436078 0.862048466916238 -0.0325204949934537 C 0.0 **** 0.0
45 C3507 0.632375802229569 0.874705484299209 -0.0452572177373225 C 0.0 **** 0.0
46 C3508 0.62744813051524 0.892630335891572 -0.0398525134710978 C 0.0 **** 0.0
47 C3514 0.634636174581925 0.906321646306213 -0.0518238200306682 C 0.0 **** 0.0
48 C3515 0.631638540200867 0.923915304184542 -0.0448242672552232 C.Trigonal 0.0 **** 0.0
49 C3516 0.632980895942414 0.926693760466562 -0.0273536206965145 C.Trigonal 0.0 **** 0.0
50 C3521 0.631161838458329 0.94327787874774 -0.0209838744880504 C 0.0 **** 0.0
51 C3522 0.627930335295874 0.956412384923875 -0.0317983586513668 C 0.0 **** 0.0
52 C3523 0.626434257505307 0.953700591562889 -0.049019508272604 C 0.0 **** 0.0
53 C3524 0.628307258156084 0.937389698167657 -0.0554948911350775 C 0.0 **** 0.0
54 C3530 0.646317848774991 0.831108950738112 0.130865632235532 C 0.0 **** 0.0
55 C3532 0.658140247507538 0.824972353190928 0.144932235554456 C 0.0 **** 0.0
56 C3534 0.615301894627562 0.823450910363087 0.150284401971464 C 0.0 **** 0.0
57 C3536 0.656025380658019 0.86625053119346 0.125917840114 C 0.0 **** 0.0
58 C3538 0.59330889520955 0.850535197724389 0.160464361525658 C 0.0 **** 0.0
59 C3540 0.572832231661316 0.907153300724037 0.149369215579198 C 0.0 **** 0.0
60 C3542 0.573114289161597 0.935121485251341 0.126015292298859 C 0.0 **** 0.0
61 O3544 0.594248435213922 0.958867413962193 0.115369789575014 O 0.0 **** 0.0
62 C3546 0.603995965195675 0.999597361955989 0.0872952145548704 C 0.0 **** 0.0
63 C3548 0.637336914435318 1.01464201379184 0.0734457222776402 C 0.0 **** 0.0
64 O3550 0.633323797058801 0.959367993310434 0.0486341260779061 O 0.0 **** 0.0
65 O3552 0.653040674019766 0.909193887756851 0.0932480318295713 O 0.0 **** 0.0
66 O3554 0.655698830992784 0.889824993384187 0.0683812437699056 O 0.0 **** 0.0
67 O3556 0.634926572435947 0.937667807521897 0.0257658475347859 O 0.0 **** 0.0
68 C3558 0.626529887956661 0.934696009631791 -0.0743542230584589 C 0.0 **** 0.0
69 C3560 0.622957275126183 0.968806271185973 -0.0602298278155893 C 0.0 **** 0.0
70 H3562 0.641639547462444 0.897864024169813 0.145584972994353 H 0.0 **** 0.0
71 H3564 0.640021177612592 0.893409881257519 0.1237480804734 H 0.0 **** 0.0
72 H3566 0.588646974388872 0.880454043338709 0.15100870783651 H 0.0 **** 0.0
73 H3568 0.603507747622052 0.888375732645858 0.165719800217543 H 0.0 **** 0.0
74 H3570 0.645303782831743 0.916880930839694 0.118235163679876 H 0.0 **** 0.0
75 H3572 0.648526364349428 0.981872322141746 0.0668064501052246 H 0.0 **** 0.0
76 H3574 0.626492177021477 0.984503526441475 0.0634977084712864 H 0.0 **** 0.0
77 H3576 0.647988302537908 0.998323299919903 0.0924013994894811 H 0.0 **** 0.0
78 H3578 0.621872771633318 1.01068589646995 0.10442952286584 H 0.0 **** 0.0
79 H3580 0.610199964350067 0.983593048132539 0.116283276001414 H 0.0 **** 0.0
80 H3582 0.632239740679454 0.985588561921402 0.117484396887643 H 0.0 **** 0.0
81 H3584 0.664935970815215 0.878518648338143 0.0304675529045202 H 0.0 **** 0.0
82 H3586 0.650583438724987 0.869694869910844 0.0449365108396133 H 0.0 **** 0.0
83 H3588 0.627297973264592 0.870860480165834 0.0249570096307512 H 0.0 **** 0.0
84 H3590 0.64501144404503 0.861936647511517 0.01471267574323 H 0.0 **** 0.0
85 H3592 0.646373052867524 0.859056163723345 -0.0154789658677006 H 0.0 **** 0.0
86 H3594 0.626351983628965 0.857534254512023 -0.00561810484915507 H 0.0 **** 0.0
87 H3596 0.611543854649187 0.863797755357111 -0.0315219493593825 H 0.0 **** 0.0
88 H3598 0.627376945406084 0.848940927000508 -0.0368005797154221 H 0.0 **** 0.0
89 H3600 0.627628354277532 0.872051151510404 -0.0580917147298817 H 0.0 **** 0.0
90 H3602 0.646250050246926 0.873544265315846 -0.0457724327827494 H 0.0 **** 0.0
91 H3604 0.613487915463231 0.893544580619045 -0.0402947446340157 H 0.0 **** 0.0
92 H3606 0.648347836343955 0.904316818094194 -0.0533967599068533 H 0.0 **** 0.0
93 H3608 0.628835927453759 0.90453854283726 -0.0643115301075685 H 0.0 **** 0.0
94 H3610 0.632065823824157 0.945524322872094 -0.00732502950938973 H 0.0 **** 0.0
95 H3612 0.626503809789301 0.969298067550224 -0.026805005692803 H 0.0 **** 0.0
96 H3614 0.653857388398244 0.835223692249733 0.119921865730985 H 0.0 **** 0.0
97 H3616 0.638862789412137 0.820480319600235 0.125849924134843 H 0.0 **** 0.0
98 H3618 0.650978937365496 0.820011856847207 0.155778696289708 H 0.0 **** 0.0
99 H3620 0.6661924974774 0.835334181242404 0.149560292043225 H 0.0 **** 0.0
100 H3622 0.666518654577574 0.81481245506509 0.14044044190083 H 0.0 **** 0.0
101 H3624 0.615897126896739 0.82141048462314 0.164058532016473 H 0.0 **** 0.0
102 H3626 0.623399911984068 0.813769223451501 0.144617269773047 H 0.0 **** 0.0
103 H3628 0.602321732103349 0.820626143164415 0.146150306232479 H 0.0 **** 0.0
104 H3630 0.661139353728783 0.878421664092726 0.13025308309672 H 0.0 **** 0.0
105 H3632 0.654566525051298 0.86692769198283 0.112077079456409 H 0.0 **** 0.0
106 H3634 0.66599835929321 0.856996997869844 0.128698051273029 H 0.0 **** 0.0
107 H3636 0.590459416767006 0.860197076971258 0.17004553753771 H 0.0 **** 0.0
108 H3638 0.593799351773109 0.838518150894201 0.167382979383224 H 0.0 **** 0.0
109 H3640 0.582480201312659 0.849876845484432 0.151708139922989 H 0.0 **** 0.0
110 H3642 0.565189982707888 0.898055685795472 0.142128942171547 H 0.0 **** 0.0
111 H3644 0.5649053075787 0.918206581390626 0.152178801794766 H 0.0 **** 0.0
112 H3646 0.57551400871137 0.90152449087177 0.161797711684751 H 0.0 **** 0.0
113 H3648 0.571805416404918 0.946762599173142 0.133419152606521 H 0.0 **** 0.0
114 H3650 0.56182349835752 0.92747947932613 0.128368241058839 H 0.0 **** 0.0
115 H3652 0.572491312476593 0.938547227554262 0.11257007752318 H 0.0 **** 0.0
116 H3654 0.597181776373479 0.967300738315686 0.107348198184268 H 0.0 **** 0.0
117 H3656 0.603098225137479 1.01096554262361 0.0793655331827939 H 0.0 **** 0.0
118 H3658 0.593476830389632 0.999954003932882 0.0963855068781388 H 0.0 **** 0.0
119 H3660 0.602455088141799 0.98838619701542 0.079258577965834 H 0.0 **** 0.0
120 H3662 0.626708333265324 1.01506198825806 0.064495886261531 H 0.0 **** 0.0
121 H3664 0.649159088902519 1.01477472995462 0.0661257454690331 H 0.0 **** 0.0
122 H3666 0.636915410017589 1.02610576829311 0.0812698222558047 H 0.0 **** 0.0
123 H3668 0.632987225470923 0.955088025344949 0.0373491863774662 H 0.0 **** 0.0
124 H3670 0.656716802538902 0.89949439653331 0.0870734478150078 H 0.0 **** 0.0
125 H3672 0.635374334772116 0.925105602276704 -0.0790153273403892 H 0.0 **** 0.0
126 H3674 0.629211085189159 0.946189524492369 -0.0816604431877522 H 0.0 **** 0.0
127 H3676 0.613644893015649 0.930541176685183 -0.077640797371474 H 0.0 **** 0.0
128 H3678 0.634097122644775 0.972003388852967 -0.0679676618925358 H 0.0 **** 0.0
129 H3680 0.619785284970105 0.980092422306466 -0.0527831838583754 H 0.0 **** 0.0
130 H3682 0.612285328547297 0.966514493291121 -0.068846516170007 H 0.0 **** 0.0
@<TRIPOS>BOND
1 3 2 Aromatic
2 4 3 Aromatic
3 5 4 Aromatic
4 6 5 Aromatic
5 1 2 Aromatic
6 1 6 Aromatic
7 8 7 1
8 9 8 Aromatic
9 10 9 1
10 4 7 1
11 3 10 1
12 12 11 Aromatic
13 13 12 Aromatic
14 14 13 Aromatic
15 9 11 Aromatic
16 8 14 Aromatic
17 16 15 Aromatic
18 17 16 Aromatic
19 18 17 Aromatic
20 14 15 Aromatic
21 13 18 Aromatic
22 20 19 1
23 21 20 1
24 22 21 Aromatic
25 17 19 1
26 16 22 Aromatic
27 24 23 1
28 25 24 Aromatic
29 26 25 1
30 20 23 1
31 19 26 1
32 28 27 Aromatic
33 29 28 Aromatic
34 30 29 Aromatic
35 22 27 Aromatic
36 21 30 Aromatic
37 32 31 1
38 33 32 Aromatic
39 34 33 1
40 29 31 1
41 28 34 1
42 36 35 1
43 37 36 1
44 38 37 Aromatic
45 33 35 1
46 32 38 Aromatic
47 40 39 Aromatic
48 41 40 Aromatic
49 42 41 Aromatic
50 38 39 Aromatic
51 37 42 Aromatic
52 44 43 1
53 45 44 1
54 46 45 1
55 42 43 1
56 41 46 1
57 48 47 1
58 49 48 Aromatic
59 40 49 Aromatic
60 46 47 1
61 51 50 Aromatic
62 52 51 Aromatic
63 53 52 Aromatic
64 49 50 Aromatic
65 48 53 Aromatic
66 6 54 1
67 54 55 1
68 1 56 1
69 5 57 1
70 2 58 1
71 11 59 1
72 12 60 1
73 18 61 1
74 25 62 1
75 24 63 1
76 30 64 1
77 27 65 1
78 34 66 Double
79 31 67 Double
80 53 68 1
81 52 69 1
82 7 70 1
83 7 71 1
84 10 72 1
85 10 73 1
86 15 74 1
87 23 75 1
88 23 76 1
89 24 77 1
90 25 78 1
91 26 79 1
92 26 80 1
93 35 81 1
94 35 82 1
95 36 83 1
96 36 84 1
97 43 85 1
98 43 86 1
99 44 87 1
100 44 88 1
101 45 89 1
102 45 90 1
103 46 91 1
104 47 92 1
105 47 93 1
106 50 94 1
107 51 95 1
108 54 96 1
109 54 97 1
110 55 98 1
111 55 99 1
112 55 100 1
113 56 101 1
114 56 102 1
115 56 103 1
116 57 104 1
117 57 105 1
118 57 106 1
119 58 107 1
120 58 108 1
121 58 109 1
122 59 110 1
123 59 111 1
124 59 112 1
125 60 113 1
126 60 114 1
127 60 115 1
128 61 116 1
129 62 117 1
130 62 118 1
131 62 119 1
132 63 120 1
133 63 121 1
134 63 122 1
135 64 123 1
136 65 124 1
137 68 125 1
138 68 126 1
139 68 127 1
140 69 128 1
141 69 129 1
142 69 130 1
@<TRIPOS>MOLECULE
Sketch 4
130 142
SMALL
USER_CHARGES


@<TRIPOS>ATOM
1 C3684 0.0967849325316013 0.235852087583363 0.0508420968197518 C.Trigonal 0.0 **** 0.0
2 C3685 0.0987503515255259 0.221402477986101 0.0411208067259478 C 0.0 **** 0.0
3 C3686 0.114353989631358 0.213456817229934 0.0402155292767436 C.Trigonal 0.0 **** 0.0
4 C3687 0.1279939375953 0.220231293995635 0.0485642137228214 C.Trigonal 0.0 **** 0.0
5 C3688 0.126009790222265 0.234507302721567 0.0585557385825019 C 0.0 **** 0.0
6 C3689 0.110301193626006 0.242080224424828 0.0600208974775439 C 0.0 **** 0.0
7 C3696 0.14537167115148 0.212154358951463 0.0472348921859871 C 0.0 **** 0.0
8 C3697 0.147122409754051 0.195829344857874 0.037242840412164 C.Trigonal 0.0 **** 0.0
9 C3698 0.133502964795395 0.188876734264733 0.0291099379907454 C.Trigonal 0.0 **** 0.0
10 C3699 0.116121957377438 0.197177157013296 0.0301145904435957 C 0.0 **** 0.0
11 C3705 0.135281313340867 0.174144150240632 0.0196261337617122 C 0.0 **** 0.0
12 C3706 0.150635613717872 0.165800636262917 0.0185091498347867 C 0.0 **** 0.0
13 C3707 0.164104414491752 0.171458830554414 0.0284467205485064 C.Trigonal 0.0 **** 0.0
14 C3708 0.162794077629416 0.187412176518332 0.0365032140002113 C.Trigonal 0.0 **** 0.0
15 C3714 0.176790576213458 0.19353397277109 0.045511620723131 C 0.0 **** 0.0
16 C3715 0.189576077993334 0.182831128451539 0.0512658949172357 C.Trigonal 0.0 **** 0.0
17 C3716 0.191273960060035 0.167390897912582 0.042454125422965 C.Trigonal 0.0 **** 0.0
18 C3717 0.1784120641207 0.161147653621131 0.0322487083016373 C 0.0 **** 0.0
19 C3723 0.20553475419789 0.155977386669308 0.0477331211585765 C.Trigonal 0.0 **** 0.0
20 C3724 0.210294872198864 0.156058944885253 0.064156869514524 C.Trigonal 0.0 **** 0.0
21 C3725 0.202185804121132 0.168745646059885 0.0758933436876958 C.Trigonal 0.0 **** 0.0
22 C3726 0.195941432212521 0.183730733297562 0.068596349784416 C.Trigonal 0.0 **** 0.0
23 C3732 0.22451004832412 0.14503836388019 0.0710004828632134 C 0.0 **** 0.0
24 C3733 0.236003199816066 0.138442084276383 0.0566922973680954 C 0.0 **** 0.0
25 C3734 0.225453665089544 0.131642322901926 0.0416838818565119 C 0.0 **** 0.0
26 C3735 0.21527931192491 0.146388014287786 0.0341181486241194 C 0.0 **** 0.0
27 C3741 0.190654432290931 0.196556508954522 0.0798278575157536 C 0.0 **** 0.0
28 C3742 0.18619070069586 0.192215755892748 0.0962478482064331 C.Trigonal 0.0 **** 0.0
29 C3743 0.189905577533104 0.176372326227064 0.102626122770361 C.Trigonal 0.0 **** 0.0
30 C3744 0.198553732577059 0.164730061899018 0.0927149860589633 C 0.0 **** 0.0
31 C3750 0.18490510070922 0.171689195818342 0.120479421322492 C 0.0 **** 0.0
32 C3751 0.175602785159559 0.184290451145416 0.130545851016306 C.Trigonal 0.0 **** 0.0
33 C3752 0.171733186600369 0.199653182434577 0.124032835333024 C.Trigonal 0.0 **** 0.0
34 C3753 0.17700448139398 0.20489394485374 0.106988420023686 C 0.0 **** 0.0
35 C3759 0.161741444541809 0.212501155051619 0.134144799558083 C 0.0 **** 0.0
36 C3760 0.149627056886755 0.203652632725896 0.146487775763299 C 0.0 **** 0.0
37 C3761 0.159224053107338 0.190822894385359 0.15699036897187 C.Trigonal 0.0 **** 0.0
38 C3762 0.170976509260627 0.180207935484763 0.148626782694035 C.Trigonal 0.0 **** 0.0
39 N3768 0.178839486416974 0.167615192839605 0.156848010552488 N 0.0 **** 0.0
40 C3769 0.176683114317134 0.166406389585637 0.17359322228345 C.Trigonal 0.0 **** 0.0
41 C3770 0.165655269137604 0.177138003783447 0.182803809790265 C.Trigonal 0.0 **** 0.0
42 C3771 0.156586529135877 0.189063586739554 0.174137632572576 C.Trigonal 0.0 **** 0.0
43 C3777 0.144345341307312 0.200896948224383 0.18319009034221 C 0.0 **** 0.0
44 C3778 0.140553559506892 0.195506373448921 0.201418582706893 C 0.0 **** 0.0
45 C3779 0.156613573866869 0.189717743633926 0.210320868162652 C 0.0 **** 0.0
46 C3780 0.163369964404433 0.173891855657495 0.201555199490359 C 0.0 **** 0.0
47 C3786 0.180201661347213 0.167538546865668 0.20902820721359 C 0.0 **** 0.0
48 C3787 0.185944979212788 0.152224533231448 0.19908294337516 C.Trigonal 0.0 **** 0.0
49 C3788 0.184858466427119 0.15267701533922 0.181382000518118 C.Trigonal 0.0 **** 0.0
50 C3793 0.190819192926336 0.138769850108671 0.17193724670834 C 0.0 **** 0.0
51 C3794 0.197845527136737 0.125210043630041 0.180082432307151 C 0.0 **** 0.0
52 C3795 0.198997369049944 0.124732557056543 0.197549419476518 C 0.0 **** 0.0
53 C3796 0.192727890733905 0.138218754523509 0.207051163268256 C 0.0 **** 0.0
54 C3802 0.108041715216903 0.257193275607586 0.0716361002145608 C 0.0 **** 0.0
55 C3804 0.111260686289288 0.273614814418602 0.0619141583855524 C 0.0 **** 0.0
56 C3806 0.0796269933378833 0.244395252892431 0.0516092696905423 C 0.0 **** 0.0
57 C3808 0.141034833485596 0.241542017058783 0.0681921534149035 C 0.0 **** 0.0
58 C3810 0.0837573871556371 0.214401479086907 0.0314044463345069 C 0.0 **** 0.0
59 C3812 0.120120584747417 0.167045617800293 0.0101443158628407 C 0.0 **** 0.0
60 C3814 0.151674952503431 0.150318594576622 0.00731576139503338 C 0.0 **** 0.0
61 O3816 0.17889851131979 0.144797497260103 0.026496796078424 O 0.0 **** 0.0
62 C3818 0.21354335643399 0.116981306683507 0.046570151493718 C 0.0 **** 0.0
63 C3820 0.24811288584382 0.124857234388008 0.0635822051200663 C 0.0 **** 0.0
64 O3822 0.203291706398845 0.149100906591605 0.0986539024480809 O 0.0 **** 0.0
65 O3824 0.188417981887464 0.212672453988805 0.0736825856696392 O 0.0 **** 0.0
66 O3826 0.173907045929085 0.218892000962374 0.101384672846511 O 0.0 **** 0.0
67 O3828 0.188551584451777 0.15770199241738 0.125677404312028 O 0.0 **** 0.0
68 C3830 0.193623249415552 0.137797652519962 0.226139886226486 C 0.0 **** 0.0
69 C3832 0.20735500184798 0.109443500162331 0.205432962875535 C 0.0 **** 0.0
70 H3834 0.154049321056212 0.221520591410786 0.0415591936360863 H 0.0 **** 0.0
71 H3836 0.149872011973054 0.209768059091406 0.060230329761199 H 0.0 **** 0.0
72 H3838 0.107444437086524 0.187857111283205 0.035845988364635 H 0.0 **** 0.0
73 H3840 0.11153710852311 0.199491683806751 0.0171580833711012 H 0.0 **** 0.0
74 H3842 0.174902587554257 0.20580339695096 0.0515202402535977 H 0.0 **** 0.0
75 H3844 0.232318889443612 0.152096029886572 0.0801523502692451 H 0.0 **** 0.0
76 H3846 0.219116715632003 0.134148122366214 0.0777988124474645 H 0.0 **** 0.0
77 H3848 0.243693262856246 0.14907274815189 0.0520260472310994 H 0.0 **** 0.0
78 H3850 0.234202537560143 0.12698650614941 0.0318949635485074 H 0.0 **** 0.0
79 H3852 0.207469338923131 0.141493679528083 0.0237353676028561 H 0.0 **** 0.0
80 H3854 0.224232345714046 0.155271969377618 0.0281853375790475 H 0.0 **** 0.0
81 H3856 0.170509750240867 0.220248557480228 0.141514452705677 H 0.0 **** 0.0
82 H3858 0.154430292225229 0.221186152564478 0.126022253607675 H 0.0 **** 0.0
83 H3860 0.139529902124863 0.197260917389628 0.139294357974152 H 0.0 **** 0.0
84 H3862 0.143472542721986 0.2133838387906 0.154242442263735 H 0.0 **** 0.0
85 H3864 0.149932582596744 0.213690461172878 0.183461362792765 H 0.0 **** 0.0
86 H3866 0.132358713818236 0.201923636408287 0.176190315770729 H 0.0 **** 0.0
87 H3868 0.131342881354915 0.185032912825527 0.201455103106327 H 0.0 **** 0.0
88 H3870 0.134695599706454 0.206081754195002 0.208323055208681 H 0.0 **** 0.0
89 H3872 0.154140424555 0.187016908056148 0.223769263343309 H 0.0 **** 0.0
90 H3874 0.166044145838642 0.199941112315012 0.209831628494263 H 0.0 **** 0.0
91 H3876 0.153892989708119 0.163764890076136 0.203183527243622 H 0.0 **** 0.0
92 H3878 0.189908408703664 0.177531362026225 0.208183252793064 H 0.0 **** 0.0
93 H3880 0.178442605007023 0.164960230373496 0.222540505905624 H 0.0 **** 0.0
94 H3882 0.189646671403559 0.138767869034808 0.158116182701863 H 0.0 **** 0.0
95 H3884 0.202524638825595 0.114483947105073 0.172599118621548 H 0.0 **** 0.0
96 H3886 0.116593713906234 0.256437202177871 0.0825899811163771 H 0.0 **** 0.0
97 H3888 0.0952989335310391 0.257414588343914 0.0772310975585827 H 0.0 **** 0.0
98 H3890 0.101972968289585 0.275231545824055 0.0517072636357925 H 0.0 **** 0.0
99 H3892 0.123893099802756 0.273688829877939 0.0560933371805963 H 0.0 **** 0.0
100 H3894 0.11040600741551 0.284724441808688 0.0702230070111127 H 0.0 **** 0.0
101 H3896 0.0713757218419996 0.238223405803962 0.0609891773153732 H 0.0 **** 0.0
102 H3898 0.0731400439538676 0.243993307222102 0.0393291827246238 H 0.0 **** 0.0
103 H3900 0.0803543119063474 0.25784491244194 0.0549056128829505 H 0.0 **** 0.0
104 H3902 0.15315666146772 0.23912212074764 0.0618720077727679 H 0.0 **** 0.0
105 H3904 0.141831724267672 0.236054734419307 0.0809752427511666 H 0.0 **** 0.0
106 H3906 0.140404273633838 0.255335848577086 0.0695624399435097 H 0.0 **** 0.0
107 H3908 0.0823533556331196 0.220879525965369 0.0191414189485493 H 0.0 **** 0.0
108 H3910 0.0718453638836593 0.215928156645415 0.0383951380745053 H 0.0 **** 0.0
109 H3912 0.0848242594040796 0.200833576262805 0.0287398655996099 H 0.0 **** 0.0
110 H3914 0.119600092317558 0.153179952873792 0.0111128244062501 H 0.0 **** 0.0
111 H3916 0.120659941759235 0.170378178841913 -0.00337613985589779 H 0.0 **** 0.0
112 H3918 0.107897189684564 0.171472515359489 0.0149483600763622 H 0.0 **** 0.0
113 H3920 0.164188638481821 0.149313443693638 0.00138481129305582 H 0.0 **** 0.0
114 H3922 0.142747371162745 0.150720070367849 -0.00330840520642855 H 0.0 **** 0.0
115 H3924 0.149210222403495 0.138624106523652 0.0144699811776831 H 0.0 **** 0.0
116 H3926 0.18698902373879 0.138892626594181 0.0330959218880272 H 0.0 **** 0.0
117 H3928 0.220803304185618 0.106131308914903 0.0513411685109513 H 0.0 **** 0.0
118 H3930 0.206372669753096 0.112682655177578 0.0354527456225794 H 0.0 **** 0.0
119 H3932 0.20447165715383 0.120835873272196 0.0563760650324801 H 0.0 **** 0.0
120 H3934 0.256075724798534 0.130140046366982 0.0736759335976375 H 0.0 **** 0.0
121 H3936 0.256423799533912 0.12015241998144 0.0534789920422072 H 0.0 **** 0.0
122 H3938 0.241061644212572 0.114121049312989 0.0689007953747902 H 0.0 **** 0.0
123 H3940 0.200404708444266 0.148214106310978 0.110352119714324 H 0.0 **** 0.0
124 H3942 0.183716214122563 0.219666157173553 0.0823336274715622 H 0.0 **** 0.0
125 H3944 0.202864499332932 0.147098355909883 0.230792472266547 H 0.0 **** 0.0
126 H3946 0.197258708027502 0.125403197798035 0.231153861528373 H 0.0 **** 0.0
127 H3948 0.181316404258416 0.1407324011836 0.231927064395415 H 0.0 **** 0.0
128 H3950 0.21955584715836 0.112788776225117 0.211239028929507 H 0.0 **** 0.0
129 H3952 0.209907185973249 0.0995994699958441 0.195970191377854 H 0.0 **** 0.0
130 H3954 0.199432334288571 0.10358318764932 0.215234261971364 H 0.0 **** 0.0
@<TRIPOS>BOND
1 3 2 Aromatic
2 4 3 Aromatic
3 5 4 Aromatic
4 6 5 Aromatic
5 1 2 Aromatic
6 1 6 Aromatic
7 8 7 1
8 9 8 Aromatic
9 10 9 1
10 4 7 1
11 3 10 1
12 12 11 Aromatic
13 13 12 Aromatic
14 14 13 Aromatic
15 9 11 Aromatic
16 8 14 Aromatic
17 16 15 Aromatic
18 17 16 Aromatic
19 18 17 Aromatic
20 14 15 Aromatic
21 13 18 Aromatic
22 20 19 1
23 21 20 1
24 22 21 Aromatic
25 17 19 1
26 16 22 Aromatic
27 24 23 1
28 25 24 Aromatic
29 26 25 1
30 20 23 1
31 19 26 1
32 28 27 Aromatic
33 29 28 Aromatic
34 30 29 Aromatic
35 22 27 Aromatic
36 21 30 Aromatic
37 32 31 1
38 33 32 Aromatic
39 34 33 1
40 29 31 1
41 28 34 1
42 36 35 1
43 37 36 1
44 38 37 Aromatic
45 33 35 1
46 32 38 Aromatic
47 40 39 Aromatic
48 41 40 Aromatic
49 42 41 Aromatic
50 38 39 Aromatic
51 37 42 Aromatic
52 44 43 1
53 45 44 1
54 46 45 1
55 42 43 1
56 41 46 1
57 48 47 1
58 49 48 Aromatic
59 40 49 Aromatic
60 46 47 1
61 51 50 Aromatic
62 52 51 Aromatic
63 53 52 Aromatic
64 49 50 Aromatic
65 48 53 Aromatic
66 6 54 1
67 54 55 1
68 1 56 1
69 5 57 1
70 2 58 1
71 11 59 1
72 12 60 1
73 18 61 1
74 25 62 1
75 24 63 1
76 30 64 1
77 27 65 1
78 34 66 Double
79 31 67 Double
80 53 68 1
81 52 69 1
82 7 70 1
83 7 71 1
84 10 72 1
85 10 73 1
86 15 74 1
87 23 75 1
88 23 76 1
89 24 77 1
90 25 78 1
91 26 79 1
92 26 80 1
93 35 81 1
94 35 82 1
95 36 83 1
96 36 84 1
97 43 85 1
98 43 86 1
99 44 87 1
100 44 88 1
101 45 89 1
102 45 90 1
103 46 91 1
104 47 92 1
105 47 93 1
106 50 94 1
107 51 95 1
108 54 96 1
109 54 97 1
110 55 98 1
111 55 99 1
112 55 100 1
113 56 101 1
114 56 102 1
115 56 103 1
116 57 104 1
117 57 105 1
118 57 106 1
119 58 107 1
120 58 108 1
121 58 109 1
122 59 110 1
123 59 111 1
124 59 112 1
125 60 113 1
126 60 114 1
127 60 115 1
128 61 116 1
129 62 117 1
130 62 118 1
131 62 119 1
132 63 120 1
133 63 121 1
134 63 122 1
135 64 123 1
136 65 124 1
137 68 125 1
138 68 126 1
139 68 127 1
140 69 128 1
141 69 129 1
142 69 130 1
@<TRIPOS>MOLECULE
Sketch 4
130 142
SMALL
USER_CHARGES


@<TRIPOS>ATOM
1 C3956 0.707023943448845 0.274456743522115 0.0477232699603566 C.Trigonal 0.0 **** 0.0
2 C3957 0.698526356826762 0.269472377372914 0.062196203196247 C 0.0 **** 0.0
3 C3958 0.686902010527128 0.280231502748452 0.0697511960546524 C.Trigonal 0.0 **** 0.0
4 C3959 0.683185457849817 0.295505887537042 0.0623659340516151 C.Trigonal 0.0 **** 0.0
5 C3960 0.691920591648739 0.300689591508467 0.0481029602690972 C 0.0 **** 0.0
6 C3961 0.704325763501513 0.29046061232169 0.0411711214004689 C 0.0 **** 0.0
7 C3968 0.669601978956514 0.306934095517361 0.0696815232472772 C 0.0 **** 0.0
8 C3969 0.660988979654166 0.301642562193491 0.0860143930922928 C.Trigonal 0.0 **** 0.0
9 C3970 0.665313033555334 0.286893490916028 0.093989360806829 C.Trigonal 0.0 **** 0.0
10 C3971 0.67821656974462 0.274900116473194 0.0860917608751107 C 0.0 **** 0.0
11 C3977 0.65829696757643 0.28279845264423 0.10962275069806 C 0.0 **** 0.0
12 C3978 0.646328965697707 0.293032190247997 0.117275675787894 C 0.0 **** 0.0
13 C3979 0.640102796305297 0.306945134347338 0.108264268531231 C.Trigonal 0.0 **** 0.0
14 C3980 0.64816782098629 0.311730466345336 0.0929869082494772 C.Trigonal 0.0 **** 0.0
15 C3986 0.642329547916188 0.326005672505132 0.0843610870211326 C 0.0 **** 0.0
16 C3987 0.6270863849363 0.334043453346814 0.0883255136817399 C.Trigonal 0.0 **** 0.0
17 C3988 0.620525135386493 0.330478655665865 0.104573217653995 C.Trigonal 0.0 **** 0.0
18 C3989 0.625885096001448 0.31654981295346 0.113780457413965 C 0.0 **** 0.0
19 C3995 0.606544146537373 0.341653742391103 0.110988615924636 C.Trigonal 0.0 **** 0.0
20 C3996 0.59859901417594 0.352803317131064 0.100650964391383 C.Trigonal 0.0 **** 0.0
21 C3997 0.605295997834572 0.356076142434483 0.0829626153559346 C.Trigonal 0.0 **** 0.0
22 C3998 0.618230758820709 0.345291765525045 0.0769327824984918 C.Trigonal 0.0 **** 0.0
23 C4004 0.583095491992757 0.361519874448584 0.108406476171946 C 0.0 **** 0.0
24 C4005 0.58797522166761 0.371547491076269 0.124400928225944 C 0.0 **** 0.0
25 C4006 0.603063348606494 0.362894038108074 0.13363087170606 C 0.0 **** 0.0
26 C4007 0.603721456960843 0.343704577129647 0.130005625638485 C 0.0 **** 0.0
27 C4013 0.623443218288678 0.347256977623096 0.0599092007508667 C 0.0 **** 0.0
28 C4014 0.618995081401421 0.361702857090295 0.0511166244982605 C.Trigonal 0.0 **** 0.0
29 C4015 0.607364208730426 0.372949241514696 0.0575935746298348 C.Trigonal 0.0 **** 0.0
30 C4016 0.600582900149176 0.370322841841772 0.0735861849585695 C 0.0 **** 0.0
31 C4022 0.601538655074333 0.387913363988779 0.0470995055297894 C 0.0 **** 0.0
32 C4023 0.60967150626036 0.390630150788563 0.0305397155693487 C.Trigonal 0.0 **** 0.0
33 C4024 0.622115436458474 0.380306803529099 0.0249962552609608 C.Trigonal 0.0 **** 0.0
34 C4025 0.627069075842339 0.365053872819741 0.0342634768888836 C 0.0 **** 0.0
35 C4031 0.631493354392266 0.383966596505257 0.00867221851181732 C 0.0 **** 0.0
36 C4032 0.632186024942569 0.403253249213754 0.00563900516952332 C 0.0 **** 0.0
37 C4033 0.614413270518797 0.410441205082432 0.00614774816681068 C.Trigonal 0.0 **** 0.0
38 C4034 0.603586754042076 0.404689533176251 0.0192112706142933 C.Trigonal 0.0 **** 0.0
39 N4040 0.587733501492813 0.410404612314006 0.0207178037307299 N 0.0 **** 0.0
40 C4041 0.582302068575177 0.422060711072046 0.0096565086960894 C.Trigonal 0.0 **** 0.0
41 C4042 0.59235559097208 0.428066405193582 -0.00390453131275944 C.Trigonal 0.0 **** 0.0
42 C4043 0.60858481240574 0.422147710243969 -0.00539945623877767 C.Trigonal 0.0 **** 0.0
43 C4049 0.620321729942801 0.428539363207409 -0.0193160182212067 C 0.0 **** 0.0
44 C4050 0.611209946092691 0.43861530183698 -0.0331400760347032 C 0.0 **** 0.0
45 C4051 0.598171045008822 0.450550788640581 -0.0254994969430053 C 0.0 **** 0.0
46 C4052 0.584480902661849 0.439982008186969 -0.0167632081206168 C 0.0 **** 0.0
47 C4058 0.570893304208365 0.451133603538028 -0.00823370550335303 C 0.0 **** 0.0
48 C4059 0.558905625781412 0.440374176913672 0.0021427939017912 C.Trigonal 0.0 **** 0.0
49 C4060 0.565349877766238 0.42693680783233 0.0117874160330179 C.Trigonal 0.0 **** 0.0
50 C4065 0.554407076712941 0.417930823052866 0.0226654482137448 C 0.0 **** 0.0
51 C4066 0.537539651181685 0.421825879788972 0.0229843671384369 C 0.0 **** 0.0
52 C4067 0.531005739615476 0.434565910695807 0.01291319575991 C 0.0 **** 0.0
53 C4068 0.541792227133271 0.443995560261329 0.00262121967211284 C 0.0 **** 0.0
54 C4074 0.71489441734572 0.296864290978761 0.0264549480492111 C 0.0 **** 0.0
55 C4076 0.731126528938596 0.305055378369047 0.0331821178632875 C 0.0 **** 0.0
56 C4078 0.719470023586434 0.262663243794051 0.0391082360024228 C 0.0 **** 0.0
57 C4080 0.688067045846864 0.317538363580841 0.0398863681388031 C 0.0 **** 0.0
58 C4082 0.701871095593755 0.252164667233968 0.0696751777559656 C 0.0 **** 0.0
59 C4084 0.664204360319431 0.2669310319047 0.118744652161445 C 0.0 **** 0.0
60 C4086 0.640213896623488 0.288163191346727 0.134798504904695 C 0.0 **** 0.0
61 O4088 0.617392785761309 0.311634320914405 0.128066249767584 O 0.0 **** 0.0
62 C4090 0.603289932951669 0.366136371598483 0.152744806188075 C 0.0 **** 0.0
63 C4092 0.572100540793512 0.37341123024134 0.135556744638239 C 0.0 **** 0.0
64 O4094 0.589518554297161 0.381785315699872 0.0805316309744949 O 0.0 **** 0.0
65 O4096 0.633300459850191 0.335011991173198 0.052557639328771 O 0.0 **** 0.0
66 O4098 0.637475028896387 0.355171935212488 0.0287278054541412 O 0.0 **** 0.0
67 O4100 0.590422937858263 0.396944589113831 0.0526911204899003 O 0.0 **** 0.0
68 C4102 0.534758249722426 0.458340829518903 -0.00796194093826742 C 0.0 **** 0.0
69 C4104 0.512202718491137 0.437811354755978 0.0137211228203958 C 0.0 **** 0.0
70 H4106 0.675318103816346 0.319455655532492 0.0719983810668667 H 0.0 **** 0.0
71 H4108 0.659806135838499 0.308605724931654 0.0598631429412683 H 0.0 **** 0.0
72 H4110 0.67189892192965 0.262660435282565 0.0837831169948721 H 0.0 **** 0.0
73 H4112 0.688227633166447 0.272679328660629 0.0955600412583065 H 0.0 **** 0.0
74 H4114 0.64940503730725 0.329727610855565 0.0731168068548708 H 0.0 **** 0.0
75 H4116 0.575206277968629 0.369341141677328 0.100124396256453 H 0.0 **** 0.0
76 H4118 0.574554889355168 0.351146936000822 0.112135048746263 H 0.0 **** 0.0
77 H4120 0.592055888504343 0.384292791491237 0.120524702855823 H 0.0 **** 0.0
78 H4122 0.614767878848107 0.36847573783082 0.128516534966927 H 0.0 **** 0.0
79 H4124 0.591964194575334 0.337510955827779 0.1340768240216 H 0.0 **** 0.0
80 H4126 0.614179557113002 0.338668282640935 0.137676308589671 H 0.0 **** 0.0
81 H4128 0.644577189177894 0.379160943753167 0.00894785300783213 H 0.0 **** 0.0
82 H4130 0.625065603712407 0.37763450436182 -0.00187573699596085 H 0.0 **** 0.0
83 H4132 0.638731185109339 0.405664243340184 -0.00634712159011595 H 0.0 **** 0.0
84 H4134 0.640022663690316 0.409243475450264 0.0155334840622063 H 0.0 **** 0.0
85 H4136 0.630035304146731 0.4366718265805 -0.0134977614416699 H 0.0 **** 0.0
86 H4138 0.627049548609906 0.417981719325594 -0.0253585692962696 H 0.0 **** 0.0
87 H4140 0.604556076002864 0.429825588445101 -0.0416443649024046 H 0.0 **** 0.0
88 H4142 0.620458188075026 0.445432421269053 -0.0410266870678985 H 0.0 **** 0.0
89 H4144 0.592457237962939 0.45856590227242 -0.0353720650599365 H 0.0 **** 0.0
90 H4146 0.604282232376846 0.459131671926344 -0.0163612197381232 H 0.0 **** 0.0
91 H4148 0.578131613504758 0.43226210260424 -0.0265669713555505 H 0.0 **** 0.0
92 H4150 0.577108676642684 0.460475407643517 8.19971925290115e-05 H 0.0 **** 0.0
93 H4152 0.564362005399969 0.458399448922866 -0.0181019879551434 H 0.0 **** 0.0
94 H4154 0.559224991643187 0.407475645137736 0.0304593189645069 H 0.0 **** 0.0
95 H4156 0.529061208247582 0.414739002091833 0.031400542676272 H 0.0 **** 0.0
96 H4158 0.708039059685867 0.306228759379827 0.0188075348392722 H 0.0 **** 0.0
97 H4160 0.718127296110341 0.286736633941781 0.0175066062897819 H 0.0 **** 0.0
98 H4162 0.738913745467286 0.295908705936588 0.0401881780321615 H 0.0 **** 0.0
99 H4164 0.728220355741725 0.315602638927894 0.0417822786909951 H 0.0 **** 0.0
100 H4166 0.738898417321443 0.310128524997238 0.0228143275637621 H 0.0 **** 0.0
101 H4168 0.71848953280503 0.249506008344929 0.0433670201243069 H 0.0 **** 0.0
102 H4170 0.732616928774067 0.266725011179945 0.0411953714068979 H 0.0 **** 0.0
103 H4172 0.717291643799675 0.26213287265185 0.0253780787451576 H 0.0 **** 0.0
104 H4174 0.699798846128903 0.324474989912018 0.0373668221593962 H 0.0 **** 0.0
105 H4176 0.680177675832427 0.325972342035391 0.0475153996166788 H 0.0 **** 0.0
106 H4178 0.681459364072746 0.315784433968508 0.0277546503944083 H 0.0 **** 0.0
107 H4180 0.698391602032892 0.251265430398062 0.0830466985778252 H 0.0 **** 0.0
108 H4182 0.71532338825327 0.248767694723482 0.0690992422071105 H 0.0 **** 0.0
109 H4184 0.694719328986679 0.242345021430929 0.0628405694206368 H 0.0 **** 0.0
110 H4186 0.672637727196776 0.270159345763035 0.129361901132052 H 0.0 **** 0.0
111 H4188 0.671162002738614 0.258091480147447 0.11068477782471 H 0.0 **** 0.0
112 H4190 0.65344743434301 0.259724396592802 0.123842312684802 H 0.0 **** 0.0
113 H4192 0.627746230898866 0.281975722112653 0.134332324004432 H 0.0 **** 0.0
114 H4194 0.639312578742978 0.299268321571153 0.143135676457068 H 0.0 **** 0.0
115 H4196 0.648796530071868 0.279578871010964 0.141497907553651 H 0.0 **** 0.0
116 H4198 0.608300284893628 0.319308587276663 0.12946418129985 H 0.0 **** 0.0
117 H4200 0.602667955740896 0.379771996257025 0.155386191128738 H 0.0 **** 0.0
118 H4202 0.61504540337551 0.361227961331855 0.158332133593486 H 0.0 **** 0.0
119 H4204 0.592604693832274 0.359767130647286 0.158842187266172 H 0.0 **** 0.0
120 H4206 0.561659184439805 0.378898892830658 0.128173770993183 H 0.0 **** 0.0
121 H4208 0.574594727904814 0.381930005406435 0.146241603395314 H 0.0 **** 0.0
122 H4210 0.567986830991489 0.361065614281997 0.140428935933697 H 0.0 **** 0.0
123 H4212 0.58611528851482 0.389644432423515 0.0719907036238395 H 0.0 **** 0.0
124 H4214 0.637598762541937 0.339175079876687 0.0420740069243687 H 0.0 **** 0.0
125 H4216 0.541683525547619 0.470189662773692 -0.00562771484889137 H 0.0 **** 0.0
126 H4218 0.521427278669057 0.461057599235188 -0.00528719076234768 H 0.0 **** 0.0
127 H4220 0.535639851526352 0.45544618085752 -0.0215593766671877 H 0.0 **** 0.0
128 H4222 0.509398543046364 0.450362764937135 0.0190483388375637 H 0.0 **** 0.0
129 H4224 0.505701355346942 0.428451131026185 0.0216505844006852 H 0.0 **** 0.0
130 H4226 0.506459845933346 0.43712482105889 0.00108360370008212 H 0.0 **** 0.0
@<TRIPOS>BOND
1 3 2 Aromatic
2 4 3 Aromatic
3 5 4 Aromatic
4 6 5 Aromatic
5 1 2 Aromatic
6 1 6 Aromatic
7 8 7 1
8 9 8 Aromatic
9 10 9 1
10 4 7 1
11 3 10 1
12 12 11 Aromatic
13 13 12 Aromatic
14 14 13 Aromatic
15 9 11 Aromatic
16 8 14 Aromatic
17 16 15 Aromatic
18 17 16 Aromatic
19 18 17 Aromatic
20 14 15 Aromatic
21 13 18 Aromatic
22 20 19 1
23 21 20 1
24 22 21 Aromatic
25 17 19 1
26 16 22 Aromatic
27 24 23 1
28 25 24 Aromatic
29 26 25 1
30 20 23 1
31 19 26 1
32 28 27 Aromatic
33 29 28 Aromatic
34 30 29 Aromatic
35 22 27 Aromatic
36 21 30 Aromatic
37 32 31 1
38 33 32 Aromatic
39 34 33 1
40 29 31 1
41 28 34 1
42 36 35 1
43 37 36 1
44 38 37 Aromatic
45 33 35 1
46 32 38 Aromatic
47 40 39 Aromatic
48 41 40 Aromatic
49 42 41 Aromatic
50 38 39 Aromatic
51 37 42 Aromatic
52 44 43 1
53 45 44 1
54 46 45 1
55 42 43 1
56 41 46 1
57 48 47 1
58 49 48 Aromatic
59 40 49 Aromatic
60 46 47 1
61 51 50 Aromatic
62 52 51 Aromatic
63 53 52 Aromatic
64 49 50 Aromatic
65 48 53 Aromatic
66 6 54 1
67 54 55 1
68 1 56 1
69 5 57 1
70 2 58 1
71 11 59 1
72 12 60 1
73 18 61 1
74 25 62 1
75 24 63 1
76 30 64 1
77 27 65 1
78 34 66 Double
79 31 67 Double
80 53 68 1
81 52 69 1
82 7 70 1
83 7 71 1
84 10 72 1
85 10 73 1
86 15 74 1
87 23 75 1
88 23 76 1
89 24 77 1
90 25 78 1
91 26 79 1
92 26 80 1
93 35 81 1
94 35 82 1
95 36 83 1
96 36 84 1
97 43 85 1
98 43 86 1
99 44 87 1
100 44 88 1
101 45 89 1
102 45 90 1
103 46 91 1
104 47 92 1
105 47 93 1
106 50 94 1
107 51 95 1
108 54 96 1
109 54 97 1
110 55 98 1
111 55 99 1
112 55 100 1
113 56 101 1
114 56 102 1
115 56 103 1
116 57 104 1
117 57 105 1
118 57 106 1
119 58 107 1
120 58 108 1
121 58 109 1
122 59 110 1
123 59 111 1
124 59 112 1
125 60 113 1
126 60 114 1
127 60 115 1
128 61 116 1
129 62 117 1
130 62 118 1
131 62 119 1
132 63 120 1
133 63 121 1
134 63 122 1
135 64 123 1
136 65 124 1
137 68 125 1
138 68 126 1
139 68 127 1
140 69 128 1
141 69 129 1
142 69 130 1
@<TRIPOS>MOLECULE
Sketch 4
130 142
SMALL
USER_CHARGES


@<TRIPOS>ATOM
1 C4228 0.908670899867618 0.83136555345448 0.379322870532127 C.Trigonal 0.0 **** 0.0
2 C4229 0.892249561905711 0.837499135503082 0.379630627308305 C 0.0 **** 0.0
3 C4230 0.880071856087279 0.829558184565946 0.389388401023863 C.Trigonal 0.0 **** 0.0
4 C4231 0.884372417666881 0.815559176295593 0.398699595025167 C.Trigonal 0.0 **** 0.0
5 C4232 0.900936530306128 0.809742758450482 0.398961502798779 C 0.0 **** 0.0
6 C4233 0.913192454578206 0.817840051943482 0.389471471802722 C 0.0 **** 0.0
7 C4240 0.871138465793209 0.805974791664447 0.408744235064789 C 0.0 **** 0.0
8 C4241 0.853091852491738 0.812543084178523 0.408605155162122 C.Trigonal 0.0 **** 0.0
9 C4242 0.848777503986793 0.82677759907885 0.399747441845272 C.Trigonal 0.0 **** 0.0
10 C4243 0.862000357337845 0.836171866113263 0.389285068319755 C 0.0 **** 0.0
11 C4249 0.832334088480555 0.833092992953189 0.400339507929825 C 0.0 **** 0.0
12 C4250 0.819947249837718 0.825506402215829 0.410132120968359 C 0.0 **** 0.0
13 C4251 0.823740876567231 0.810229526295616 0.418245524339046 C.Trigonal 0.0 **** 0.0
14 C4252 0.840518095507362 0.803889428836786 0.417609201181734 C.Trigonal 0.0 **** 0.0
15 C4258 0.844511279230957 0.789085429564565 0.42660162114384 C 0.0 **** 0.0
16 C4259 0.833271447867566 0.781470563470869 0.4377362190561 C.Trigonal 0.0 **** 0.0
17 C4260 0.81612663271882 0.78546310707129 0.434877707509666 C.Trigonal 0.0 **** 0.0
18 C4261 0.811346922030449 0.800294959736066 0.426725863155671 C 0.0 **** 0.0
19 C4267 0.803214041727707 0.774284188941589 0.443164358614995 C.Trigonal 0.0 **** 0.0
20 C4268 0.807462580405847 0.765916067796878 0.457493232429945 C.Trigonal 0.0 **** 0.0
21 C4269 0.825090517466122 0.768031096098228 0.46471158483651 C.Trigonal 0.0 **** 0.0
22 C4270 0.837961473152847 0.773739574551079 0.453717567519643 C.Trigonal 0.0 **** 0.0
23 C4276 0.795936828307258 0.752638026452906 0.465364889399335 C 0.0 **** 0.0
24 C4277 0.783852118247784 0.745113760650753 0.452091280059418 C 0.0 **** 0.0
25 C4278 0.774635676065058 0.759327459540833 0.442425382561244 C 0.0 **** 0.0
26 C4279 0.787720853520316 0.769741432664475 0.432513866983076 C 0.0 **** 0.0
27 C4285 0.854720359698581 0.774522083222025 0.460249665388906 C 0.0 **** 0.0
28 C4286 0.857699371415181 0.771255427253668 0.477177552459849 C.Trigonal 0.0 **** 0.0
29 C4287 0.844631586683955 0.767203543082735 0.488014571684621 C.Trigonal 0.0 **** 0.0
30 C4288 0.828262115455544 0.765570329717538 0.481867632277034 C 0.0 **** 0.0
31 C4294 0.847950025799112 0.764412596462806 0.506679051501356 C 0.0 **** 0.0
32 C4295 0.865483834972112 0.766021357203361 0.512834424286872 C.Trigonal 0.0 **** 0.0
33 C4296 0.878309590732726 0.769498045573097 0.502034579887926 C.Trigonal 0.0 **** 0.0
34 C4297 0.875516494589286 0.772323250566214 0.483872458505712 C 0.0 **** 0.0
35 C4303 0.896472436077381 0.770776607359793 0.508041109131853 C 0.0 **** 0.0
36 C4304 0.899346615107003 0.759613712194993 0.523773936737672 C 0.0 **** 0.0
37 C4305 0.885946351498738 0.763025349646791 0.537055366202005 C.Trigonal 0.0 **** 0.0
38 C4306 0.868952850853671 0.764416376030345 0.531547328367207 C.Trigonal 0.0 **** 0.0
39 N4312 0.856189903218472 0.765631873588679 0.542614468516614 N 0.0 **** 0.0
40 C4313 0.859872710418116 0.766114355834129 0.559158135576471 C.Trigonal 0.0 **** 0.0
41 C4314 0.876690139068405 0.766606192304013 0.565335033900924 C.Trigonal 0.0 **** 0.0
42 C4315 0.889699488808899 0.764812425035216 0.554009104520641 C.Trigonal 0.0 **** 0.0
43 C4321 0.908072877558265 0.76467934468926 0.559886129310531 C 0.0 **** 0.0
44 C4322 0.910273581434433 0.771884911928388 0.577754220517778 C 0.0 **** 0.0
45 C4323 0.89715313389498 0.764289821080511 0.589650141256136 C 0.0 **** 0.0
46 C4324 0.879444662487624 0.769850068154218 0.584077573153792 C 0.0 **** 0.0
47 C4330 0.865264456155669 0.761252507365945 0.59441013289946 C 0.0 **** 0.0
48 C4331 0.848056742145221 0.766051793360884 0.587449506774777 C.Trigonal 0.0 **** 0.0
49 C4332 0.845742858487604 0.767319222473846 0.569894604692964 C.Trigonal 0.0 **** 0.0
50 C4337 0.829380258167068 0.770508318374046 0.563460792166007 C 0.0 **** 0.0
51 C4338 0.816213375392333 0.773224029129374 0.574380744573512 C 0.0 **** 0.0
52 C4339 0.818556248818521 0.772482782650068 0.591721184445432 C 0.0 **** 0.0
53 C4340 0.834495262949253 0.768595590963503 0.598222781112324 C 0.0 **** 0.0
54 C4346 0.931338175739854 0.811672124903228 0.389889355788897 C 0.0 **** 0.0
55 C4348 0.934027954514579 0.797057112044842 0.377467748567644 C 0.0 **** 0.0
56 C4350 0.921335204373033 0.83980486483647 0.367646975974106 C 0.0 **** 0.0
57 C4352 0.904777438796335 0.794075273017512 0.409380183054109 C 0.0 **** 0.0
58 C4354 0.887675767671736 0.852673639331651 0.368816271213407 C 0.0 **** 0.0
59 C4356 0.82796608906186 0.848957266145882 0.390317893617012 C 0.0 **** 0.0
60 C4358 0.802748529849891 0.833983686824258 0.411006046519264 C 0.0 **** 0.0
61 O4360 0.794838076322754 0.805514837155111 0.427055438004196 O 0.0 **** 0.0
62 C4362 0.764203408541876 0.770968190956902 0.454055205657318 C 0.0 **** 0.0
63 C4364 0.771224213529357 0.732974842484421 0.460497368201043 C 0.0 **** 0.0
64 O4366 0.814881501965073 0.761609575379115 0.492308600834883 O 0.0 **** 0.0
65 O4368 0.867717775169801 0.77916289895511 0.449819964719237 O 0.0 **** 0.0
66 O4370 0.887172170595131 0.775619293260874 0.47440564096327 O 0.0 **** 0.0
67 O4372 0.835995950956852 0.760928045798307 0.515724342038953 O 0.0 **** 0.0
68 C4374 0.836928831265952 0.767151806568884 0.617181862324968 C 0.0 **** 0.0
69 C4376 0.803419376200975 0.775723373904486 0.602953960215666 C 0.0 **** 0.0
70 H4378 0.870955857255763 0.792831843602042 0.404024146588412 H 0.0 **** 0.0
71 H4380 0.875326512571339 0.805458678418423 0.422054614903509 H 0.0 **** 0.0
72 H4382 0.862224796099514 0.849410279068179 0.393710607413663 H 0.0 **** 0.0
73 H4384 0.857714434348668 0.836340714914439 0.375997743540295 H 0.0 **** 0.0
74 H4386 0.857628286580123 0.784870661420888 0.425977531348303 H 0.0 **** 0.0
75 H4388 0.803287822629482 0.74220845469462 0.470892031588967 H 0.0 **** 0.0
76 H4390 0.788568281344076 0.758305142950904 0.47572986499136 H 0.0 **** 0.0
77 H4392 0.791356406509387 0.737774075140414 0.44293172592683 H 0.0 **** 0.0
78 H4394 0.765922969893667 0.753497817040038 0.433254213408158 H 0.0 **** 0.0
79 H4396 0.781146839113318 0.780607804501014 0.426932489247658 H 0.0 **** 0.0
80 H4398 0.792102338063745 0.762073885400998 0.42171102307292 H 0.0 **** 0.0
81 H4400 0.905496133559567 0.766806855306196 0.49815868140461 H 0.0 **** 0.0
82 H4402 0.899435224946536 0.784025959775025 0.511017891251962 H 0.0 **** 0.0
83 H4404 0.912261729034104 0.761683369288757 0.528382166056501 H 0.0 **** 0.0
84 H4406 0.898797775762784 0.746172975740244 0.520008030907023 H 0.0 **** 0.0
85 H4408 0.912891227027253 0.751584696390884 0.559639609874551 H 0.0 **** 0.0
86 H4410 0.916116006748739 0.772070100077024 0.551251179089378 H 0.0 **** 0.0
87 H4412 0.908708732694234 0.785744647843032 0.577453980540166 H 0.0 **** 0.0
88 H4414 0.923228665461665 0.769494231700642 0.582300484035508 H 0.0 **** 0.0
89 H4416 0.899478716579445 0.768220647282679 0.602822111505821 H 0.0 **** 0.0
90 H4418 0.898224324634464 0.75039731007697 0.589394787266046 H 0.0 **** 0.0
91 H4420 0.878516411179122 0.78365148674487 0.586253606703457 H 0.0 **** 0.0
92 H4422 0.866787119064428 0.747385133398713 0.593841133846237 H 0.0 **** 0.0
93 H4424 0.866768210334059 0.764851903742178 0.607737677921824 H 0.0 **** 0.0
94 H4426 0.827220190422675 0.771337434642714 0.549760504327566 H 0.0 **** 0.0
95 H4428 0.80359622703436 0.776023398563035 0.569273610332945 H 0.0 **** 0.0
96 H4430 0.934971239591122 0.80777746044144 0.402746788123639 H 0.0 **** 0.0
97 H4432 0.940195271742285 0.82192083932043 0.386852629277951 H 0.0 **** 0.0
98 H4434 0.931523563747446 0.801152593100223 0.364417288368395 H 0.0 **** 0.0
99 H4436 0.925591928197969 0.78635701066107 0.380279509473058 H 0.0 **** 0.0
100 H4438 0.947102834092474 0.792326310652388 0.377939930356916 H 0.0 **** 0.0
101 H4440 0.915520807021986 0.843137194084123 0.355452891342027 H 0.0 **** 0.0
102 H4442 0.93211154245403 0.831707176272366 0.364411238290517 H 0.0 **** 0.0
103 H4444 0.926288588168078 0.851537558238811 0.373263382377275 H 0.0 **** 0.0
104 H4446 0.897696337351765 0.783146974587657 0.404428972153144 H 0.0 **** 0.0
105 H4448 0.901071913531811 0.795657077781414 0.422697463343405 H 0.0 **** 0.0
106 H4450 0.9180897624005 0.790296099089015 0.409459708553945 H 0.0 **** 0.0
107 H4452 0.876226343362388 0.859227008217319 0.373085296349395 H 0.0 **** 0.0
108 H4454 0.88553439394824 0.848841502629332 0.355592558780972 H 0.0 **** 0.0
109 H4456 0.897739089824752 0.862272278571684 0.368899766638037 H 0.0 **** 0.0
110 H4458 0.826791566559628 0.860019676763733 0.398717317276341 H 0.0 **** 0.0
111 H4460 0.815957696569343 0.847419102530144 0.383459284887858 H 0.0 **** 0.0
112 H4462 0.837274182282692 0.852296098742588 0.380613122008952 H 0.0 **** 0.0
113 H4464 0.793401976952451 0.827265697059359 0.403166585687258 H 0.0 **** 0.0
114 H4466 0.802791053409487 0.847205036785215 0.406844140841028 H 0.0 **** 0.0
115 H4468 0.797977926304996 0.834541252856831 0.424064001156299 H 0.0 **** 0.0
116 H4470 0.789356391146647 0.79925730203393 0.435689978939863 H 0.0 **** 0.0
117 H4472 0.754639961357766 0.763685419993991 0.461018320327009 H 0.0 **** 0.0
118 H4474 0.757514586402468 0.780521164663853 0.446520437086727 H 0.0 **** 0.0
119 H4476 0.772323065732061 0.777571351558245 0.463198686472756 H 0.0 **** 0.0
120 H4478 0.777930375324696 0.722343152471687 0.46642232553933 H 0.0 **** 0.0
121 H4480 0.762417158261989 0.727800095302874 0.45106689840014 H 0.0 **** 0.0
122 H4482 0.763897217485722 0.739501713355381 0.470309942001618 H 0.0 **** 0.0
123 H4484 0.818623044238505 0.76188820085237 0.503789262136682 H 0.0 **** 0.0
124 H4486 0.878031182288481 0.779782073308016 0.456090749019623 H 0.0 **** 0.0
125 H4488 0.824965399918792 0.766907383144201 0.624194541557954 H 0.0 **** 0.0
126 H4490 0.844326200443581 0.777872707476709 0.622130482307042 H 0.0 **** 0.0
127 H4492 0.843593005343631 0.755407053081865 0.62055920824856 H 0.0 **** 0.0
128 H4494 0.799661211375763 0.764212344746297 0.609834583376464 H 0.0 **** 0.0
129 H4496 0.792386608550506 0.779883776666754 0.595618515662247 H 0.0 **** 0.0
130 H4498 0.806035084573848 0.785683042022146 0.612320223586128 H 0.0 **** 0.0
@<TRIPOS>BOND
1 3 2 Aromatic
2 4 3 Aromatic
3 5 4 Aromatic
4 6 5 Aromatic
5 1 2 Aromatic
6 1 6 Aromatic
7 8 7 1
8 9 8 Aromatic
9 10 9 1
10 4 7 1
11 3 10 1
12 12 11 Aromatic
13 13 12 Aromatic
14 14 13 Aromatic
15 9 11 Aromatic
16 8 14 Aromatic
17 16 15 Aromatic
18 17 16 Aromatic
19 18 17 Aromatic
20 14 15 Aromatic
21 13 18 Aromatic
22 20 19 1
23 21 20 1
24 22 21 Aromatic
25 17 19 1
26 16 22 Aromatic
27 24 23 1
28 25 24 Aromatic
29 26 25 1
30 20 23 1
31 19 26 1
32 28 27 Aromatic
33 29 28 Aromatic
34 30 29 Aromatic
35 22 27 Aromatic
36 21 30 Aromatic
37 32 31 1
38 33 32 Aromatic
39 34 33 1
40 29 31 1
41 28 34 1
42 36 35 1
43 37 36 1
44 38 37 Aromatic
45 33 35 1
46 32 38 Aromatic
47 40 39 Aromatic
48 41 40 Aromatic
49 42 41 Aromatic
50 38 39 Aromatic
51 37 42 Aromatic
52 44 43 1
53 45 44 1
54 46 45 1
55 42 43 1
56 41 46 1
57 48 47 1
58 49 48 Aromatic
59 40 49 Aromatic
60 46 47 1
61 51 50 Aromatic
62 52 51 Aromatic
63 53 52 Aromatic
64 49 50 Aromatic
65 48 53 Aromatic
66 6 54 1
67 54 55 1
68 1 56 1
69 5 57 1
70 2 58 1
71 11 59 1
72 12 60 1
73 18 61 1
74 25 62 1
75 24 63 1
76 30 64 1
77 27 65 1
78 34 66 Double
79 31 67 Double
80 53 68 1
81 52 69 1
82 7 70 1
83 7 71 1
84 10 72 1
85 10 73 1
86 15 74 1
87 23 75 1
88 23 76 1
89 24 77 1
90 25 78 1
91 26 79 1
92 26 80 1
93 35 81 1
94 35 82 1
95 36 83 1
96 36 84 1
97 43 85 1
98 43 86 1
99 44 87 1
100 44 88 1
101 45 89 1
102 45 90 1
103 46 91 1
104 47 92 1
105 47 93 1
106 50 94 1
107 51 95 1
108 54 96 1
109 54 97 1
110 55 98 1
111 55 99 1
112 55 100 1
113 56 101 1
114 56 102 1
115 56 103 1
116 57 104 1
117 57 105 1
118 57 106 1
119 58 107 1
120 58 108 1
121 58 109 1
122 59 110 1
123 59 111 1
124 59 112 1
125 60 113 1
126 60 114 1
127 60 115 1
128 61 116 1
129 62 117 1
130 62 118 1
131 62 119 1
132 63 120 1
133 63 121 1
134 63 122 1
135 64 123 1
136 65 124 1
137 68 125 1
138 68 126 1
139 68 127 1
140 69 128 1
141 69 129 1
142 69 130 1
@<TRIPOS>MOLECULE
Sketch 4
130 142
SMALL
USER_CHARGES


@<TRIPOS>ATOM
1 C4500 0.0985546497938976 0.049715540824659 0.247242662744157 C.Trigonal 0.0 **** 0.0
2 C4501 0.0895186736082726 0.0410328353502944 0.23503103686126 C 0.0 **** 0.0
3 C4502 0.0819282378491368 0.0497558486350942 0.221849490645072 C.Trigonal 0.0 **** 0.0
4 C4503 0.0835962721154608 0.0670228000240234 0.220692333264666 C.Trigonal 0.0 **** 0.0
5 C4504 0.0934568751513556 0.0756302516134434 0.232359258760892 C 0.0 **** 0.0
6 C4505 0.100887735721621 0.0669698505579611 0.24566921335976 C 0.0 **** 0.0
7 C4512 0.0748015716775789 0.0767553208792388 0.206590912652128 C 0.0 **** 0.0
8 C4513 0.0621459580431626 0.0672849190470537 0.195638317413744 C.Trigonal 0.0 **** 0.0
9 C4514 0.0610115874187961 0.0499893696188095 0.196386954921392 C.Trigonal 0.0 **** 0.0
10 C4515 0.0717200220069182 0.0399348332753866 0.208850394732441 C 0.0 **** 0.0
11 C4521 0.0505617947983808 0.0411480111743451 0.185278714380306 C 0.0 **** 0.0
12 C4522 0.0403487552793385 0.0495688789300592 0.173827838926175 C 0.0 **** 0.0
13 C4523 0.0390452476629877 0.067167110539022 0.175107071436546 C.Trigonal 0.0 **** 0.0
14 C4524 0.0514018783243258 0.0760287571862059 0.184518552786149 C.Trigonal 0.0 **** 0.0
15 C4530 0.0521894254124622 0.0935827862045116 0.1826075750077 C 0.0 **** 0.0
16 C4531 0.0404204350567042 0.102627392713678 0.172899205019551 C.Trigonal 0.0 **** 0.0
17 C4532 0.0254609406269894 0.0939692571108825 0.167936597933766 C.Trigonal 0.0 **** 0.0
18 C4533 0.0250764396398582 0.0763714010365725 0.168341382819305 C 0.0 **** 0.0
19 C4539 0.0103652021782981 0.104790126714615 0.162672196428648 C.Trigonal 0.0 **** 0.0
20 C4540 0.0118855229305282 0.121972784504218 0.162837540512848 C.Trigonal 0.0 **** 0.0
21 C4541 0.0293382711666916 0.130134256027894 0.1633679425881 C.Trigonal 0.0 **** 0.0
22 C4542 0.0431574870067853 0.119737806933523 0.167772935644285 C.Trigonal 0.0 **** 0.0
23 C4548 -0.00353650501673496 0.133570142050062 0.162444570809531 C 0.0 **** 0.0
24 C4549 -0.0197934383615242 0.12412941259448 0.16727970386094 C 0.0 **** 0.0
25 C4550 -0.0215045465962824 0.108089987002521 0.156405408924675 C 0.0 **** 0.0
26 C4551 -0.00680481786273758 0.096008463772067 0.16057198524712 C 0.0 **** 0.0
27 C4557 0.0598558445812731 0.126254880418346 0.165720922950813 C 0.0 **** 0.0
28 C4558 0.0621796338260089 0.142978244832882 0.161213712752376 C.Trigonal 0.0 **** 0.0
29 C4559 0.0485067637482365 0.153416080308671 0.158329984827888 C.Trigonal 0.0 **** 0.0
30 C4560 0.0321253094003946 0.147012295785264 0.158924923984422 C 0.0 **** 0.0
31 C4566 0.0511884771138342 0.171867135654943 0.153766336911334 C 0.0 **** 0.0
32 C4567 0.0686786998886221 0.177966823815111 0.151515327937025 C.Trigonal 0.0 **** 0.0
33 C4568 0.0820003725660999 0.167485728610056 0.153840754949277 C.Trigonal 0.0 **** 0.0
34 C4569 0.0798874009404305 0.14971185457918 0.159028904011919 C 0.0 **** 0.0
35 C4575 0.0999491837706595 0.17361429246928 0.151051437772719 C 0.0 **** 0.0
36 C4576 0.10183079803552 0.192440040724811 0.155766079220314 C 0.0 **** 0.0
37 C4577 0.0879581015322811 0.203166030396179 0.14791032951187 C.Trigonal 0.0 **** 0.0
38 C4578 0.0715466536839966 0.196146891621962 0.146341426851664 C.Trigonal 0.0 **** 0.0
39 N4584 0.0586272152072729 0.205348791902667 0.140405247752669 N 0.0 **** 0.0
40 C4585 0.0612646089233196 0.221707923737244 0.136848533634966 C.Trigonal 0.0 **** 0.0
41 C4586 0.0774578411811216 0.229334617280855 0.137630106863355 C.Trigonal 0.0 **** 0.0
42 C4587 0.0908374018823983 0.219678748107147 0.142920203445232 C.Trigonal 0.0 **** 0.0
43 C4593 0.108648430463049 0.227055338013421 0.144115060648619 C 0.0 **** 0.0
44 C4594 0.110463767740885 0.244421452452434 0.135651549212585 C 0.0 **** 0.0
45 C4595 0.0952141844109039 0.255572606469529 0.139486901216644 C 0.0 **** 0.0
46 C4596 0.0793630227002629 0.247524056902335 0.131760969896619 C 0.0 **** 0.0
47 C4602 0.0631518223672559 0.257640655746656 0.135985113421422 C 0.0 **** 0.0
48 C4603 0.047590670754202 0.24823475661823 0.129883517540877 C.Trigonal 0.0 **** 0.0
49 C4604 0.0469181392698003 0.230533065783618 0.131163050568757 C.Trigonal 0.0 **** 0.0
50 C4609 0.032065644043404 0.221922863697452 0.126160604840015 C 0.0 **** 0.0
51 C4610 0.0187678976798911 0.230847692992303 0.119564301852729 C 0.0 **** 0.0
52 C4611 0.0194228185879189 0.248294808683198 0.118229453507324 C 0.0 **** 0.0
53 C4612 0.0337103440235958 0.256994601515076 0.123837987811175 C 0.0 **** 0.0
54 C4618 0.11153420915233 0.0764220772206939 0.258546616552666 C 0.0 **** 0.0
55 C4620 0.10047374158315 0.0827480359665596 0.273144817491651 C 0.0 **** 0.0
56 C4622 0.106148352195505 0.0401114535331499 0.262008724313233 C 0.0 **** 0.0
57 C4624 0.0962149014793737 0.0945565349548864 0.23079683939347 C 0.0 **** 0.0
58 C4626 0.0875768199870797 0.0219862550154184 0.236322525948881 C 0.0 **** 0.0
59 C4628 0.0507967129722047 0.0218971260374876 0.185401657161827 C 0.0 **** 0.0
60 C4630 0.0303767562271994 0.0391013131929043 0.161289297429504 C 0.0 **** 0.0
61 O4632 0.0115178008757132 0.0672532091668771 0.162544770628334 O 0.0 **** 0.0
62 C4634 -0.0219298576490345 0.111780044802564 0.137235400316881 C 0.0 **** 0.0
63 C4636 -0.0352120515560923 0.135881377768434 0.165454490420074 C 0.0 **** 0.0
64 O4638 0.0185305352789668 0.157030893932788 0.154697799383313 O 0.0 **** 0.0
65 O4640 0.0733242487127724 0.115544258971351 0.167894767187694 O 0.0 **** 0.0
66 O4642 0.0919058694948387 0.140400110505227 0.161405307337542 O 0.0 **** 0.0
67 O4644 0.0388039508373139 0.180868879494997 0.152313708974153 O 0.0 **** 0.0
68 C4646 0.03383114641184 0.276129080464216 0.123027783497631 C 0.0 **** 0.0
69 C4648 0.00431492925499571 0.257334888838067 0.110803566899272 C 0.0 **** 0.0
70 H4650 0.0679582206524506 0.0873610754462247 0.212521229962387 H 0.0 **** 0.0
71 H4652 0.0845357098639718 0.0823429359858791 0.198264024764733 H 0.0 **** 0.0
72 H4654 0.0803981753143191 0.0317573194030527 0.201573194591049 H 0.0 **** 0.0
73 H4656 0.0631647441883897 0.0315425947235191 0.21597115145709 H 0.0 **** 0.0
74 H4658 0.0624532093231821 0.100416542295434 0.188936606402934 H 0.0 **** 0.0
75 H4660 -0.00203522792479585 0.144017934301675 0.171549105174083 H 0.0 **** 0.0
76 H4662 -0.00507863110302094 0.139178535052313 0.149795494608168 H 0.0 **** 0.0
77 H4664 -0.0189134352000784 0.120300718612249 0.180652030086796 H 0.0 **** 0.0
78 H4666 -0.033435558476275 0.101729700851311 0.159748817974244 H 0.0 **** 0.0
79 H4668 -0.00647931748425821 0.0866410771531624 0.150322690234728 H 0.0 **** 0.0
80 H4670 -0.00991861320629285 0.0893096461768658 0.172380043583143 H 0.0 **** 0.0
81 H4672 0.109249579131934 0.166252583926488 0.158403773716728 H 0.0 **** 0.0
82 H4674 0.10319909096659 0.171941050966441 0.1376118066933 H 0.0 **** 0.0
83 H4676 0.114494026298525 0.19654289659082 0.151909637138533 H 0.0 **** 0.0
84 H4678 0.1014331814571 0.193753046590345 0.169630507551813 H 0.0 **** 0.0
85 H4680 0.112220587025133 0.228166474552354 0.157552023065342 H 0.0 **** 0.0
86 H4682 0.117827212949241 0.218424454848598 0.13820524761768 H 0.0 **** 0.0
87 H4684 0.11141479779097 0.242776511189725 0.121825750752445 H 0.0 **** 0.0
88 H4686 0.122346406961835 0.25048597230582 0.139683757571777 H 0.0 **** 0.0
89 H4688 0.0970229113110214 0.26840065015055 0.134326427195837 H 0.0 **** 0.0
90 H4690 0.0936939239066385 0.256992860313286 0.153280286017215 H 0.0 **** 0.0
91 H4692 0.0808987958265054 0.247536272131457 0.117846227579096 H 0.0 **** 0.0
92 H4694 0.0623128182738294 0.25967742146937 0.149776824572647 H 0.0 **** 0.0
93 H4696 0.0642838231177319 0.270214033455487 0.130169208181859 H 0.0 **** 0.0
94 H4698 0.0313153013481863 0.208076854149591 0.127068246178859 H 0.0 **** 0.0
95 H4700 0.00735121261854011 0.224118719579519 0.115370670274421 H 0.0 **** 0.0
96 H4702 0.118108531478074 0.0872230800942261 0.252775950970281 H 0.0 **** 0.0
97 H4704 0.121793185243376 0.0684265440495841 0.263502158438649 H 0.0 **** 0.0
98 H4706 0.09454271732985 0.0722289248251648 0.280046179011131 H 0.0 **** 0.0
99 H4708 0.0902925477236773 0.0910590513019842 0.268592000616848 H 0.0 **** 0.0
100 H4710 0.107997871914688 0.0900456188591563 0.282263892833797 H 0.0 **** 0.0
101 H4712 0.0983281809356348 0.0292135048994766 0.265597036028174 H 0.0 **** 0.0
102 H4714 0.107163992098997 0.0478634583507319 0.273473323954513 H 0.0 **** 0.0
103 H4716 0.118875971886966 0.0353511395020131 0.259002998242639 H 0.0 **** 0.0
104 H4718 0.0897690621683723 0.100352419533798 0.21999493182156 H 0.0 **** 0.0
105 H4720 0.109719512128511 0.0974600600430359 0.229155288917183 H 0.0 **** 0.0
106 H4722 0.0917446109243276 0.101292076207092 0.242124066292222 H 0.0 **** 0.0
107 H4724 0.076506186729661 0.0187270412571265 0.244115283696776 H 0.0 **** 0.0
108 H4726 0.0987018632620016 0.015916428047481 0.242016294820714 H 0.0 **** 0.0
109 H4728 0.0859794946209953 0.0158807562465846 0.223957453814978 H 0.0 **** 0.0
110 H4730 0.0606413100079443 0.0170320651395687 0.17683436595931 H 0.0 **** 0.0
111 H4732 0.0386699156832156 0.0164091487787821 0.181410610935069 H 0.0 **** 0.0
112 H4734 0.0531610656879828 0.0164849402095686 0.197950813043603 H 0.0 **** 0.0
113 H4736 0.0183454475759555 0.0347478789619793 0.166733578785895 H 0.0 **** 0.0
114 H4738 0.0374397180540004 0.0278975141123205 0.157059479528031 H 0.0 **** 0.0
115 H4740 0.0276609956818852 0.0461144943439717 0.149626617865131 H 0.0 **** 0.0
116 H4742 0.00658301630214109 0.0733563743393751 0.153522829695951 H 0.0 **** 0.0
117 H4744 -0.0323696300909779 0.120395429591649 0.134080566062026 H 0.0 **** 0.0
118 H4746 -0.0238994898917617 0.0999957105292279 0.130110601022262 H 0.0 **** 0.0
119 H4748 -0.0100134461603704 0.1174697960333 0.132890473381793 H 0.0 **** 0.0
120 H4750 -0.0340378343583331 0.146746814642938 0.174061916165108 H 0.0 **** 0.0
121 H4752 -0.0469131783924014 0.129098765525896 0.168652612654964 H 0.0 **** 0.0
122 H4754 -0.0362954653934348 0.140797052027183 0.152495083543197 H 0.0 **** 0.0
123 H4756 0.0223800689188576 0.168397318012078 0.153254615947295 H 0.0 **** 0.0
124 H4758 0.0835406420960625 0.121408778245953 0.165207719062137 H 0.0 **** 0.0
125 H4760 0.0401777116884472 0.281795570809192 0.134021553853254 H 0.0 **** 0.0
126 H4762 0.0210334979661419 0.281517123364884 0.122936645489635 H 0.0 **** 0.0
127 H4764 0.0402664101205996 0.280564080220485 0.111515980764281 H 0.0 **** 0.0
128 H4766 -0.00265137252740495 0.264427781321294 0.120553933971336 H 0.0 **** 0.0
129 H4768 -0.00458485957402319 0.248406678696845 0.105003773754628 H 0.0 **** 0.0
130 H4770 0.00804537310804249 0.266286802730427 0.100825375060265 H 0.0 **** 0.0
@<TRIPOS>BOND
1 3 2 Aromatic
2 4 3 Aromatic
3 5 4 Aromatic
4 6 5 Aromatic
5 1 2 Aromatic
6 1 6 Aromatic
7 8 7 1
8 9 8 Aromatic
9 10 9 1
10 4 7 1
11 3 10 1
12 12 11 Aromatic
13 13 12 Aromatic
14 14 13 Aromatic
15 9 11 Aromatic
16 8 14 Aromatic
17 16 15 Aromatic
18 17 16 Aromatic
19 18 17 Aromatic
20 14 15 Aromatic
21 13 18 Aromatic
22 20 19 1
23 21 20 1
24 22 21 Aromatic
25 17 19 1
26 16 22 Aromatic
27 24 23 1
28 25 24 Aromatic
29 26 25 1
30 20 23 1
31 19 26 1
32 28 27 Aromatic
33 29 28 Aromatic
34 30 29 Aromatic
35 22 27 Aromatic
36 21 30 Aromatic
37 32 31 1
38 33 32 Aromatic
39 34 33 1
40 29 31 1
41 28 34 1
42 36 35 1
43 37 36 1
44 38 37 Aromatic
45 33 35 1
46 32 38 Aromatic
47 40 39 Aromatic
48 41 40 Aromatic
49 42 41 Aromatic
50 38 39 Aromatic
51 37 42 Aromatic
52 44 43 1
53 45 44 1
54 46 45 1
55 42 43 1
56 41 46 1
57 48 47 1
58 49 48 Aromatic
59 40 49 Aromatic
60 46 47 1
61 51 50 Aromatic
62 52 51 Aromatic
63 53 52 Aromatic
64 49 50 Aromatic
65 48 53 Aromatic
66 6 54 1
67 54 55 1
68 1 56 1
69 5 57 1
70 2 58 1
71 11 59 1
72 12 60 1
73 18 61 1
74 25 62 1
75 24 63 1
76 30 64 1
77 27 65 1
78 34 66 Double
79 31 67 Double
80 53 68 1
81 52 69 1
82 7 70 1
83 7 71 1
84 10 72 1
85 10 73 1
86 15 74 1
87 23 75 1
88 23 76 1
89 24 77 1
90 25 78 1
91 26 79 1
92 26 80 1
93 35 81 1
94 35 82 1
95 36 83 1
96 36 84 1
97 43 85 1
98 43 86 1
99 44 87 1
100 44 88 1
101 45 89 1
102 45 90 1
103 46 91 1
104 47 92 1
105 47 93 1
106 50 94 1
107 51 95 1
108 54 96 1
109 54 97 1
110 55 98 1
111 55 99 1
112 55 100 1
113 56 101 1
114 56 102 1
115 56 103 1
116 57 104 1
117 57 105 1
118 57 106 1
119 58 107 1
120 58 108 1
121 58 109 1
122 59 110 1
123 59 111 1
124 59 112 1
125 60 113 1
126 60 114 1
127 60 115 1
128 61 116 1
129 62 117 1
130 62 118 1
131 62 119 1
132 63 120 1
133 63 121 1
134 63 122 1
135 64 123 1
136 65 124 1
137 68 125 1
138 68 126 1
139 68 127 1
140 69 128 1
141 69 129 1
142 69 130 1
@<TRIPOS>MOLECULE
Sketch 4
130 142
SMALL
USER_CHARGES


@<TRIPOS>ATOM
1 C4772 0.77656293669805 0.922254163189091 1.07234698608986 C.Trigonal 0.0 **** 0.0
2 C4773 0.764224531831697 0.922638933512168 1.05996128535098 C 0.0 **** 0.0
3 C4774 0.767474834287316 0.916238075089233 1.04402986341452 C.Trigonal 0.0 **** 0.0
4 C4775 0.782696801436244 0.908581477973518 1.04077513272405 C.Trigonal 0.0 **** 0.0
5 C4776 0.79521341247784 0.908175902577436 1.05311527008098 C 0.0 **** 0.0
6 C4777 0.792137333433669 0.915023066033457 1.06895436415219 C 0.0 **** 0.0
7 C4784 0.785638725851689 0.900311457439459 1.02364190292522 C 0.0 **** 0.0
8 C4785 0.774442445810547 0.90611724527803 1.00909980080973 C.Trigonal 0.0 **** 0.0
9 C4786 0.759854545325167 0.914908360486544 1.01224928272674 C.Trigonal 0.0 **** 0.0
10 C4787 0.754052805743178 0.917738451314061 1.0303637562297 C 0.0 **** 0.0
11 C4793 0.750238262662681 0.921414560314219 0.999027081995268 C 0.0 **** 0.0
12 C4794 0.755403003212458 0.919846200477457 0.982357231900221 C 0.0 **** 0.0
13 C4795 0.768688005512462 0.908700410393126 0.978743415691423 C.Trigonal 0.0 **** 0.0
14 C4796 0.778283229726038 0.901866827799563 0.992319172048019 C.Trigonal 0.0 **** 0.0
15 C4802 0.791605851615593 0.890846681466888 0.988766055257959 C 0.0 **** 0.0
16 C4803 0.794929966084146 0.88441777695337 0.972623322463669 C.Trigonal 0.0 **** 0.0
17 C4804 0.784571803492853 0.890705414726723 0.959427608284761 C.Trigonal 0.0 **** 0.0
18 C4805 0.772862434758225 0.903505130327091 0.962129083887955 C 0.0 **** 0.0
19 C4811 0.788217080080136 0.884474725094489 0.94183595153058 C.Trigonal 0.0 **** 0.0
20 C4812 0.803541708771356 0.877844336061678 0.937978009260499 C.Trigonal 0.0 **** 0.0
21 C4813 0.815861506915006 0.873648728118391 0.952099912271235 C.Trigonal 0.0 **** 0.0
22 C4814 0.809610514277835 0.874245608460737 0.968840994976088 C.Trigonal 0.0 **** 0.0
23 C4820 0.805851869658319 0.872085847727762 0.919605500579746 C 0.0 **** 0.0
24 C4821 0.798864167882439 0.886432066703687 0.908378260839239 C 0.0 **** 0.0
25 C4822 0.779431385798862 0.888481172593283 0.91093387829705 C 0.0 **** 0.0
26 C4823 0.774024825062015 0.882507382655318 0.928747060508074 C 0.0 **** 0.0
27 C4829 0.819560889701415 0.866697423019971 0.981750038850266 C 0.0 **** 0.0
28 C4830 0.836157787418201 0.862256236961849 0.978460209513025 C.Trigonal 0.0 **** 0.0
29 C4831 0.842696636761271 0.863553964978102 0.962326182403576 C.Trigonal 0.0 **** 0.0
30 C4832 0.832756162691148 0.869523454174501 0.949117474094414 C 0.0 **** 0.0
31 C4838 0.860472541951131 0.857620081585845 0.958586944394917 C 0.0 **** 0.0
32 C4839 0.87037358210727 0.850519634085905 0.972613037713928 C.Trigonal 0.0 **** 0.0
33 C4840 0.864339713350355 0.850227138967007 0.988604351825449 C.Trigonal 0.0 **** 0.0
34 C4841 0.847106052444185 0.855872626384664 0.992716877662965 C 0.0 **** 0.0
35 C4847 0.875316514570712 0.843996382170375 1.00305145355276 C 0.0 **** 0.0
36 C4848 0.894175800134406 0.847723865631654 0.999279084142009 C 0.0 **** 0.0
37 C4849 0.899070472191264 0.840687739505493 0.98208921078581 C.Trigonal 0.0 **** 0.0
38 C4850 0.88736014943595 0.842921857353299 0.968750299036369 C.Trigonal 0.0 **** 0.0
39 N4856 0.890442410244976 0.83723417500411 0.953125210977722 N 0.0 **** 0.0
40 C4857 0.905349833260672 0.82982399485092 0.950047632768427 C.Trigonal 0.0 **** 0.0
41 C4858 0.917502254466369 0.826867473229787 0.962867046026952 C.Trigonal 0.0 **** 0.0
42 C4859 0.914136906589742 0.83243167330105 0.978957807301586 C.Trigonal 0.0 **** 0.0
43 C4865 0.926919218999388 0.829865705872375 0.993165820196069 C 0.0 **** 0.0
44 C4866 0.940533017327 0.816731718585973 0.98891746231208 C 0.0 **** 0.0
45 C4867 0.947346707191918 0.819583681825112 0.971103128686671 C 0.0 **** 0.0
46 C4868 0.933054671240676 0.816522405384675 0.958404155273336 C 0.0 **** 0.0
47 C4874 0.938341602789316 0.819862754683516 0.939879902585776 C 0.0 **** 0.0
48 C4875 0.923239045737092 0.817954550114125 0.928201705498515 C.Trigonal 0.0 **** 0.0
49 C4876 0.907352967935102 0.823885219667674 0.933421205006715 C.Trigonal 0.0 **** 0.0
50 C4881 0.893500375419035 0.82297349041019 0.922158985211799 C 0.0 **** 0.0
51 C4882 0.895551924858066 0.815674708605234 0.906590193226257 C 0.0 **** 0.0
52 C4883 0.911145953767279 0.809570367467387 0.901476524433295 C 0.0 **** 0.0
53 C4884 0.925076785722123 0.8110550636236 0.912224397448831 C 0.0 **** 0.0
54 C4890 0.805404802377832 0.914760412726314 1.08283068028091 C 0.0 **** 0.0
55 C4892 0.814985099124998 0.931580966184948 1.08322273425423 C 0.0 **** 0.0
56 C4894 0.772430431045788 0.929932067867413 1.08944776755707 C 0.0 **** 0.0
57 C4896 0.812012264300777 0.90023654130018 1.04836832045221 C 0.0 **** 0.0
58 C4898 0.747059964024537 0.930186092674502 1.06361036247689 C 0.0 **** 0.0
59 C4900 0.734110521176232 0.931017977428116 1.00326281400587 C 0.0 **** 0.0
60 C4902 0.745298003584154 0.929673388343536 0.969374394984554 C 0.0 **** 0.0
61 O4904 0.765581876302827 0.910894242400542 0.948122675908198 O 0.0 **** 0.0
62 C4906 0.768880088857361 0.878658401185523 0.897817991075801 C 0.0 **** 0.0
63 C4908 0.803929558208029 0.883630305449905 0.889858571251045 C 0.0 **** 0.0
64 O4910 0.839180494053496 0.871364094759511 0.933084545975074 O 0.0 **** 0.0
65 O4912 0.812544523797906 0.86407707764105 0.997414198789618 O 0.0 **** 0.0
66 O4914 0.84157643891131 0.85563290072082 1.00707007189828 O 0.0 **** 0.0
67 O4916 0.865768435397559 0.858747955884263 0.944191296370236 O 0.0 **** 0.0
68 C4918 0.94224502138423 0.805008405666944 0.906274115748707 C 0.0 **** 0.0
69 C4920 0.912359375243762 0.801617937029814 0.884118605545179 C 0.0 **** 0.0
70 H4922 0.798796324909356 0.902840824081476 1.01991890992638 H 0.0 **** 0.0
71 H4924 0.784448299178873 0.886451930240998 1.02507079370184 H 0.0 **** 0.0
72 H4926 0.74362523511464 0.908880945605439 1.03312175662036 H 0.0 **** 0.0
73 H4928 0.748741043662239 0.930576707088525 1.03123725890386 H 0.0 **** 0.0
74 H4930 0.799583651841191 0.887296154686007 0.999429123547869 H 0.0 **** 0.0
75 H4932 0.818756605800325 0.869366689725143 0.915465773991584 H 0.0 **** 0.0
76 H4934 0.798656278278031 0.860376768182672 0.917431930901168 H 0.0 **** 0.0
77 H4936 0.804961337757442 0.898293755463765 0.912437854781893 H 0.0 **** 0.0
78 H4938 0.776300864591316 0.901969942342424 0.909621070930859 H 0.0 **** 0.0
79 H4940 0.771306655270864 0.868837597526337 0.928231896513367 H 0.0 **** 0.0
80 H4942 0.761839251252116 0.888221889707742 0.932044186211707 H 0.0 **** 0.0
81 H4944 0.871936493243606 0.850116584512654 1.01513015688533 H 0.0 **** 0.0
82 H4946 0.873389788065958 0.830318936250192 1.00476021722725 H 0.0 **** 0.0
83 H4948 0.901859719688839 0.842614685943222 1.00963344451278 H 0.0 **** 0.0
84 H4950 0.896232709481265 0.86153398555179 0.999484791560494 H 0.0 **** 0.0
85 H4952 0.93319007724882 0.84202831246127 0.995862949428919 H 0.0 **** 0.0
86 H4954 0.92058572642702 0.825929522469747 1.00488773091092 H 0.0 **** 0.0
87 H4956 0.935045291898364 0.803943782010196 0.989665049029876 H 0.0 **** 0.0
88 H4958 0.950734182915625 0.817168642769848 0.998405869537671 H 0.0 **** 0.0
89 H4960 0.958005490751173 0.810997914059226 0.968426853746924 H 0.0 **** 0.0
90 H4962 0.952259455989464 0.832582501051269 0.969915938262009 H 0.0 **** 0.0
91 H4964 0.929571711864589 0.803039841642811 0.959325522205573 H 0.0 **** 0.0
92 H4966 0.943625664348338 0.832734045027062 0.938699325684057 H 0.0 **** 0.0
93 H4968 0.948600039993178 0.811052947177402 0.936667171422204 H 0.0 **** 0.0
94 H4970 0.880988367737425 0.827647964177552 0.925987007851008 H 0.0 **** 0.0
95 H4972 0.884705890921304 0.814744832515666 0.897952765732253 H 0.0 **** 0.0
96 H4974 0.814488841509621 0.904395763250618 1.08138669296863 H 0.0 **** 0.0
97 H4976 0.799529278727263 0.912259041850208 1.09520656371228 H 0.0 **** 0.0
98 H4978 0.806625468332038 0.942244390117806 1.08636678890766 H 0.0 **** 0.0
99 H4980 0.82055885072942 0.934295673146924 1.07080642441471 H 0.0 **** 0.0
100 H4982 0.825271912351257 0.931408974783171 1.09258321129416 H 0.0 **** 0.0
101 H4984 0.765990606261773 0.942186669859007 1.08798782536742 H 0.0 **** 0.0
102 H4986 0.783490917911546 0.932563028639922 1.0973480365407 H 0.0 **** 0.0
103 H4988 0.76407251240368 0.921559959028842 1.09680612252842 H 0.0 **** 0.0
104 H4990 0.818070733800236 0.907371748655196 1.03804756707223 H 0.0 **** 0.0
105 H4992 0.810297430313068 0.887152987234949 1.04395371616346 H 0.0 **** 0.0
106 H4994 0.821317813732445 0.899731073909352 1.05857038530426 H 0.0 **** 0.0
107 H4996 0.73706238465677 0.923834331868626 1.05640991247888 H 0.0 **** 0.0
108 H4998 0.746733554741167 0.94367903021546 1.06024344884234 H 0.0 **** 0.0
109 H5000 0.743380315421174 0.928989983332995 1.07693298612132 H 0.0 **** 0.0
110 H5002 0.724672139138308 0.930270320602864 0.993109090870571 H 0.0 **** 0.0
111 H5004 0.736749118385696 0.944494255630305 1.00565257616132 H 0.0 **** 0.0
112 H5006 0.727694499470728 0.925890345507563 1.01447129355768 H 0.0 **** 0.0
113 H5008 0.752752069929245 0.933909306767549 0.958489089138481 H 0.0 **** 0.0
114 H5010 0.740397209458623 0.941569165397702 0.974679565695402 H 0.0 **** 0.0
115 H5012 0.734384283084352 0.922376160904104 0.964834541541684 H 0.0 **** 0.0
116 H5014 0.75354544144122 0.910713283125124 0.949507055466867 H 0.0 **** 0.0
117 H5016 0.770905934532986 0.88373298490933 0.8850527858612 H 0.0 **** 0.0
118 H5018 0.75532803911826 0.87979069887918 0.900676797152407 H 0.0 **** 0.0
119 H5020 0.772210690887133 0.865158280650982 0.897885305991153 H 0.0 **** 0.0
120 H5022 0.817783441578679 0.883508170962739 0.888619197600411 H 0.0 **** 0.0
121 H5024 0.798990695785082 0.893870572945312 0.881873643752456 H 0.0 **** 0.0
122 H5026 0.799086030870814 0.871471891674181 0.885336949027512 H 0.0 **** 0.0
123 H5028 0.850572346550208 0.86735106086873 0.932886709344864 H 0.0 **** 0.0
124 H5030 0.820968505741441 0.859644420331251 1.00486930965734 H 0.0 **** 0.0
125 H5032 0.952315186394357 0.813978588984433 0.909679718029559 H 0.0 **** 0.0
126 H5034 0.9429262821003 0.803685615960125 0.892483981249656 H 0.0 **** 0.0
127 H5036 0.945456748381672 0.792632530819137 0.911812172812563 H 0.0 **** 0.0
128 H5038 0.917927862892021 0.78887833352856 0.884723606604339 H 0.0 **** 0.0
129 H5040 0.920117880121335 0.809321902505227 0.875491967725754 H 0.0 **** 0.0
130 H5042 0.899861643915329 0.800248064014204 0.878218709801441 H 0.0 **** 0.0
@<TRIPOS>BOND
1 3 2 Aromatic
2 4 3 Aromatic
3 5 4 Aromatic
4 6 5 Aromatic
5 1 2 Aromatic
6 1 6 Aromatic
7 8 7 1
8 9 8 Aromatic
9 10 9 1
10 4 7 1
11 3 10 1
12 12 11 Aromatic
13 13 12 Aromatic
14 14 13 Aromatic
15 9 11 Aromatic
16 8 14 Aromatic
17 16 15 Aromatic
18 17 16 Aromatic
19 18 17 Aromatic
20 14 15 Aromatic
21 13 18 Aromatic
22 20 19 1
23 21 20 1
24 22 21 Aromatic
25 17 19 1
26 16 22 Aromatic
27 24 23 1
28 25 24 Aromatic
29 26 25 1
30 20 23 1
31 19 26 1
32 28 27 Aromatic
33 29 28 Aromatic
34 30 29 Aromatic
35 22 27 Aromatic
36 21 30 Aromatic
37 32 31 1
38 33 32 Aromatic
39 34 33 1
40 29 31 1
41 28 34 1
42 36 35 1
43 37 36 1
44 38 37 Aromatic
45 33 35 1
46 32 38 Aromatic
47 40 39 Aromatic
48 41 40 Aromatic
49 42 41 Aromatic
50 38 39 Aromatic
51 37 42 Aromatic
52 44 43 1
53 45 44 1
54 46 45 1
55 42 43 1
56 41 46 1
57 48 47 1
58 49 48 Aromatic
59 40 49 Aromatic
60 46 47 1
61 51 50 Aromatic
62 52 51 Aromatic
63 53 52 Aromatic
64 49 50 Aromatic
65 48 53 Aromatic
66 6 54 1
67 54 55 1
68 1 56 1
69 5 57 1
70 2 58 1
71 11 59 1
72 12 60 1
73 18 61 1
74 25 62 1
75 24 63 1
76 30 64 1
77 27 65 1
78 34 66 Double
79 31 67 Double
80 53 68 1
81 52 69 1
82 7 70 1
83 7 71 1
84 10 72 1
85 10 73 1
86 15 74 1
87 23 75 1
88 23 76 1
89 24 77 1
90 25 78 1
91 26 79 1
92 26 80 1
93 35 81 1
94 35 82 1
95 36 83 1
96 36 84 1
97 43 85 1
98 43 86 1
99 44 87 1
100 44 88 1
101 45 89 1
102 45 90 1
103 46 91 1
104 47 92 1
105 47 93 1
106 50 94 1
107 51 95 1
108 54 96 1
109 54 97 1
110 55 98 1
111 55 99 1
112 55 100 1
113 56 101 1
114 56 102 1
115 56 103 1
116 57 104 1
117 57 105 1
118 57 106 1
119 58 107 1
120 58 108 1
121 58 109 1
122 59 110 1
123 59 111 1
124 59 112 1
125 60 113 1
126 60 114 1
127 60 115 1
128 61 116 1
129 62 117 1
130 62 118 1
131 62 119 1
132 63 120 1
133 63 121 1
134 63 122 1
135 64 123 1
136 65 124 1
137 68 125 1
138 68 126 1
139 68 127 1
140 69 128 1
141 69 129 1
142 69 130 1
@<TRIPOS>MOLECULE
Sketch 4
130 142
SMALL
USER_CHARGES


@<TRIPOS>ATOM
1 C5044 0.889385808154304 0.113995220755192 0.17683811901823 C.Trigonal 0.0 **** 0.0
2 C5045 0.873697718017114 0.119474113761849 0.182390223433234 C 0.0 **** 0.0
3 C5046 0.860405282413457 0.120831459157957 0.17109909785077 C.Trigonal 0.0 **** 0.0
4 C5047 0.862950771620018 0.117363357411622 0.154265886573172 C.Trigonal 0.0 **** 0.0
5 C5048 0.878468449467749 0.111256590130235 0.148810396382201 C 0.0 **** 0.0
6 C5049 0.891464293837019 0.108757889543785 0.160281335053986 C 0.0 **** 0.0
7 C5056 0.848713260025753 0.119561576375921 0.141542488874624 C 0.0 **** 0.0
8 C5057 0.831385224816638 0.124696734749383 0.148078846886595 C.Trigonal 0.0 **** 0.0
9 C5058 0.828790295403463 0.127671558083553 0.164955592754791 C.Trigonal 0.0 **** 0.0
10 C5059 0.84321003433664 0.126272660499528 0.177591760788086 C 0.0 **** 0.0
11 C5065 0.812793525880534 0.131694632386399 0.171093470199846 C 0.0 **** 0.0
12 C5066 0.7990021568314 0.132871865482575 0.160397995751146 C 0.0 **** 0.0
13 C5067 0.801884053729851 0.132219318547675 0.142919811090326 C.Trigonal 0.0 **** 0.0
14 C5068 0.817809843308902 0.126902008691076 0.136846865931726 C.Trigonal 0.0 **** 0.0
15 C5074 0.819825226482173 0.124608956357126 0.119476348263851 C 0.0 **** 0.0
16 C5075 0.80822063180789 0.130492845346949 0.107389114403795 C.Trigonal 0.0 **** 0.0
17 C5076 0.792712955459727 0.137005827046542 0.113701610341792 C.Trigonal 0.0 **** 0.0
18 C5077 0.789552707752836 0.137498377975897 0.131078895284287 C 0.0 **** 0.0
19 C5083 0.779326971665568 0.142037012123759 0.10085397331249 C.Trigonal 0.0 **** 0.0
20 C5084 0.780554293585267 0.136754772609431 0.0845327546306884 C.Trigonal 0.0 **** 0.0
21 C5085 0.797268944655886 0.129572584152339 0.0780468422289222 C.Trigonal 0.0 **** 0.0
22 C5086 0.811029812473056 0.128985218179534 0.0894667201434791 C.Trigonal 0.0 **** 0.0
23 C5092 0.766291578932481 0.13987813068634 0.0717925045606031 C 0.0 **** 0.0
24 C5093 0.749905533962649 0.146936774740248 0.0795289502260328 C 0.0 **** 0.0
25 C5094 0.754475456572492 0.160674993616627 0.0924726808514722 C 0.0 **** 0.0
26 C5095 0.764469709026788 0.152688805710123 0.106998541036938 C 0.0 **** 0.0
27 C5101 0.827346911266949 0.12554219789541 0.0827690507984832 C 0.0 **** 0.0
28 C5102 0.828987045169417 0.119310237606962 0.0665007825001682 C.Trigonal 0.0 **** 0.0
29 C5103 0.815184898903511 0.118309873766655 0.0559304438590025 C.Trigonal 0.0 **** 0.0
30 C5104 0.799434252590317 0.123867551681249 0.0614137017516198 C 0.0 **** 0.0
31 C5110 0.817169014048952 0.111790105473575 0.0379869095871538 C 0.0 **** 0.0
32 C5111 0.834188482731203 0.106680134364634 0.0322679054965964 C.Trigonal 0.0 **** 0.0
33 C5112 0.84757843373411 0.107255564610013 0.0429112445128264 C.Trigonal 0.0 **** 0.0
34 C5113 0.846118286205123 0.113676911460992 0.0603142296017325 C 0.0 **** 0.0
35 C5119 0.864895992065234 0.100979953693452 0.0375258434254104 C 0.0 **** 0.0
36 C5120 0.867908631471787 0.104135601187573 0.0185100018321748 C 0.0 **** 0.0
37 C5121 0.852963484364126 0.0984901209827925 0.00777679913621196 C.Trigonal 0.0 **** 0.0
38 C5122 0.836398747459036 0.100505834769164 0.0143226260733661 C.Trigonal 0.0 **** 0.0
39 N5128 0.822790004289922 0.0976510950928422 0.00463209347070497 N 0.0 **** 0.0
40 C5129 0.825063606927919 0.0929970899369572 -0.011470994895087 C.Trigonal 0.0 **** 0.0
41 C5130 0.84120107514668 0.0893861138081423 -0.018314092015568 C.Trigonal 0.0 **** 0.0
42 C5131 0.855133610384134 0.0921513985962476 -0.00837976177532128 C.Trigonal 0.0 **** 0.0
43 C5137 0.872924938548718 0.0890330931848805 -0.015150322440236 C 0.0 **** 0.0
44 C5138 0.873105428653115 0.0782930348256576 -0.0312865134457196 C 0.0 **** 0.0
45 C5139 0.859801551866699 0.0847108871614119 -0.043652888888622 C 0.0 **** 0.0
46 C5140 0.842146810953057 0.0821934643484571 -0.0360930988532057 C 0.0 **** 0.0
47 C5146 0.828253120935438 0.090181795945348 -0.0473383506204921 C 0.0 **** 0.0
48 C5147 0.811163282054683 0.0897471343217149 -0.0386075239137895 C.Trigonal 0.0 **** 0.0
49 C5148 0.810103918671349 0.0916350765381856 -0.0210014904863564 C.Trigonal 0.0 **** 0.0
50 C5153 0.794025443422602 0.0924308984979031 -0.0132499740491847 C 0.0 **** 0.0
51 C5154 0.77971184027494 0.0909670169839518 -0.022888884272907 C 0.0 **** 0.0
52 C5155 0.780695996725749 0.0889837745441857 -0.0402562422913141 C 0.0 **** 0.0
53 C5156 0.796489997322959 0.0886370077361208 -0.0481012357211337 C 0.0 **** 0.0
54 C5162 0.907516206289804 0.0997339390670526 0.154652970100662 C 0.0 **** 0.0
55 C5164 0.92170531135106 0.111729108122351 0.149289296311439 C 0.0 **** 0.0
56 C5166 0.903653207466725 0.113602746153546 0.189548724834898 C 0.0 **** 0.0
57 C5168 0.881048896272683 0.106782527148593 0.130339883782289 C 0.0 **** 0.0
58 C5170 0.871296464199295 0.123301719910651 0.201068242151385 C 0.0 **** 0.0
59 C5172 0.810345764329866 0.134384048045438 0.190000554734656 C 0.0 **** 0.0
60 C5174 0.781787143001703 0.135674445370052 0.168428154797746 C 0.0 **** 0.0
61 O5176 0.774342941192155 0.143460615697112 0.13667322616498 O 0.0 **** 0.0
62 C5178 0.738652136261586 0.169503038756715 0.0995376154807781 C 0.0 **** 0.0
63 C5180 0.739137093609522 0.132469954991987 0.0869823428119709 C 0.0 **** 0.0
64 O5182 0.785871103769346 0.123866507021587 0.0505392701682424 O 0.0 **** 0.0
65 O5184 0.841315456187542 0.128125704693902 0.0927498187861736 O 0.0 **** 0.0
66 O5186 0.858220631421251 0.114351619834705 0.0698026273936807 O 0.0 **** 0.0
67 O5188 0.804636220290892 0.111010851009077 0.0291013241657246 O 0.0 **** 0.0
68 C5190 0.79759945842659 0.0872251700132809 -0.0671629474568384 C 0.0 **** 0.0
69 C5192 0.7643514786425 0.0875544261939295 -0.0500823462084638 C 0.0 **** 0.0
70 H5194 0.852702798789119 0.129057201878549 0.132117922177907 H 0.0 **** 0.0
71 H5196 0.847279890419686 0.10747245242684 0.134757530411335 H 0.0 **** 0.0
72 H5198 0.839356754108302 0.117266442437959 0.187544028491488 H 0.0 **** 0.0
73 H5200 0.844714012910471 0.138684650993704 0.18372273689234 H 0.0 **** 0.0
74 H5202 0.83155582729372 0.118503828146495 0.11555846586821 H 0.0 **** 0.0
75 H5204 0.77079713317122 0.148855351952947 0.0621572872783104 H 0.0 **** 0.0
76 H5206 0.762737135065997 0.128090731906444 0.0653286832649409 H 0.0 **** 0.0
77 H5208 0.742501906313729 0.152777522916894 0.0693186765716649 H 0.0 **** 0.0
78 H5210 0.76241638351334 0.170250978884387 0.0861911276625788 H 0.0 **** 0.0
79 H5212 0.755810270946607 0.144700561669023 0.114357790000037 H 0.0 **** 0.0
80 H5214 0.768850672531012 0.163058875643422 0.115201930599575 H 0.0 **** 0.0
81 H5216 0.875214690600098 0.107087286511472 0.0446815228660474 H 0.0 **** 0.0
82 H5218 0.865808464839789 0.0873325079778638 0.0402188096907698 H 0.0 **** 0.0
83 H5220 0.879779337208712 0.0978868339349105 0.0149420613382021 H 0.0 **** 0.0
84 H5222 0.870049017394439 0.117798071002493 0.0165433572511067 H 0.0 **** 0.0
85 H5224 0.878975724950908 0.101310018829506 -0.0178586449663266 H 0.0 **** 0.0
86 H5226 0.880806449511975 0.0826638227915741 -0.00560524395506733 H 0.0 **** 0.0
87 H5228 0.870369885425728 0.0649824619546038 -0.0281339506012574 H 0.0 **** 0.0
88 H5230 0.885823845341403 0.0784514076456806 -0.0369917302002281 H 0.0 **** 0.0
89 H5232 0.860723477652621 0.0781109125985551 -0.0559003138364564 H 0.0 **** 0.0
90 H5234 0.86203165621209 0.0982306782290412 -0.0462030297940683 H 0.0 **** 0.0
91 H5236 0.839705659277458 0.0684299284207703 -0.0353792669547457 H 0.0 **** 0.0
92 H5238 0.831674465796395 0.103406710701099 -0.0502229327206767 H 0.0 **** 0.0
93 H5240 0.828073016700996 0.0834062004697664 -0.0594805222171717 H 0.0 **** 0.0
94 H5242 0.792923391573362 0.0942098474630241 0.000482392170858523 H 0.0 **** 0.0
95 H5244 0.767237014089941 0.0915154259345557 -0.0167902267379124 H 0.0 **** 0.0
96 H5246 0.904758292458211 0.0909702860587217 0.144188092684985 H 0.0 **** 0.0
97 H5248 0.912129783913479 0.0914033709682639 0.164754986774971 H 0.0 **** 0.0
98 H5250 0.925368557244231 0.120145210624891 0.159708012723608 H 0.0 **** 0.0
99 H5252 0.917790550972434 0.119539270639705 0.13849126841176 H 0.0 **** 0.0
100 H5254 0.933067840482353 0.104682994914887 0.145434359980009 H 0.0 **** 0.0
101 H5256 0.905640985103042 0.126185113050097 0.19516914561813 H 0.0 **** 0.0
102 H5258 0.915808273284069 0.110075392995518 0.184040127778032 H 0.0 **** 0.0
103 H5260 0.900875704513175 0.104806031345111 0.199962295255196 H 0.0 **** 0.0
104 H5262 0.872821116690028 0.114018832250564 0.121829645151751 H 0.0 **** 0.0
105 H5264 0.878598272921949 0.0932527368812629 0.128119329509909 H 0.0 **** 0.0
106 H5266 0.893987061739853 0.10950654825168 0.126082211559353 H 0.0 **** 0.0
107 H5268 0.871518800873608 0.111517874195703 0.208508501557187 H 0.0 **** 0.0
108 H5270 0.859328549155792 0.12963588187842 0.204006061467782 H 0.0 **** 0.0
109 H5272 0.881282339098309 0.131593732425486 0.2060309752343 H 0.0 **** 0.0
110 H5274 0.80568311384558 0.122757558291454 0.196108677153914 H 0.0 **** 0.0
111 H5276 0.801276730889747 0.144584587428003 0.192655042048816 H 0.0 **** 0.0
112 H5278 0.821921017978114 0.138138268422389 0.196642972944984 H 0.0 **** 0.0
113 H5280 0.778252117051775 0.149129581350614 0.168741849660652 H 0.0 **** 0.0
114 H5282 0.781230670289951 0.131124145265455 0.181538586452689 H 0.0 **** 0.0
115 H5284 0.771817115422377 0.128386095199582 0.162020169530112 H 0.0 **** 0.0
116 H5286 0.775153307344163 0.144881145592086 0.14852661648137 H 0.0 **** 0.0
117 H5288 0.730424331057445 0.173771534666977 0.0892093882899593 H 0.0 **** 0.0
118 H5290 0.742277305195879 0.180571221371348 0.107136219725652 H 0.0 **** 0.0
119 H5292 0.731363410061803 0.160886818855427 0.107619207628564 H 0.0 **** 0.0
120 H5294 0.735998670289238 0.123246665400404 0.077052940174648 H 0.0 **** 0.0
121 H5296 0.727172458931582 0.137369545395884 0.0920507961091494 H 0.0 **** 0.0
122 H5298 0.745916778024982 0.125732399941542 0.0970696615270202 H 0.0 **** 0.0
123 H5300 0.78949176822709 0.11980622534765 0.0397650426301769 H 0.0 **** 0.0
124 H5302 0.851029999615416 0.123574288882648 0.0872056265360597 H 0.0 **** 0.0
125 H5304 0.806113008575698 0.0969257744624846 -0.0723316174993192 H 0.0 **** 0.0
126 H5306 0.785399906072514 0.0890596017040487 -0.0734982341252423 H 0.0 **** 0.0
127 H5308 0.802402381772714 0.0747428086078224 -0.0710636752596939 H 0.0 **** 0.0
128 H5310 0.762461491635133 0.0985456521209022 -0.0584297886779592 H 0.0 **** 0.0
129 H5312 0.753329844890752 0.0868987931566085 -0.0416578886299783 H 0.0 **** 0.0
130 H5314 0.764105618433727 0.0760877922324766 -0.0579660708256886 H 0.0 **** 0.0
@<TRIPOS>BOND
1 3 2 Aromatic
2 4 3 Aromatic
3 5 4 Aromatic
4 6 5 Aromatic
5 1 2 Aromatic
6 1 6 Aromatic
7 8 7 1
8 9 8 Aromatic
9 10 9 1
10 4 7 1
11 3 10 1
12 12 11 Aromatic
13 13 12 Aromatic
14 14 13 Aromatic
15 9 11 Aromatic
16 8 14 Aromatic
17 16 15 Aromatic
18 17 16 Aromatic
19 18 17 Aromatic
20 14 15 Aromatic
21 13 18 Aromatic
22 20 19 1
23 21 20 1
24 22 21 Aromatic
25 17 19 1
26 16 22 Aromatic
27 24 23 1
28 25 24 Aromatic
29 26 25 1
30 20 23 1
31 19 26 1
32 28 27 Aromatic
33 29 28 Aromatic
34 30 29 Aromatic
35 22 27 Aromatic
36 21 30 Aromatic
37 32 31 1
38 33 32 Aromatic
39 34 33 1
40 29 31 1
41 28 34 1
42 36 35 1
43 37 36 1
44 38 37 Aromatic
45 33 35 1
46 32 38 Aromatic
47 40 39 Aromatic
48 41 40 Aromatic
49 42 41 Aromatic
50 38 39 Aromatic
51 37 42 Aromatic
52 44 43 1
53 45 44 1
54 46 45 1
55 42 43 1
56 41 46 1
57 48 47 1
58 49 48 Aromatic
59 40 49 Aromatic
60 46 47 1
61 51 50 Aromatic
62 52 51 Aromatic
63 53 52 Aromatic
64 49 50 Aromatic
65 48 53 Aromatic
66 6 54 1
67 54 55 1
68 1 56 1
69 5 57 1
70 2 58 1
71 11 59 1
72 12 60 1
73 18 61 1
74 25 62 1
75 24 63 1
76 30 64 1
77 27 65 1
78 34 66 Double
79 31 67 Double
80 53 68 1
81 52 69 1
82 7 70 1
83 7 71 1
84 10 72 1
85 10 73 1
86 15 74 1
87 23 75 1
88 23 76 1
89 24 77 1
90 25 78 1
91 26 79 1
92 26 80 1
93 35 81 1
94 35 82 1
95 36 83 1
96 36 84 1
97 43 85 1
98 43 86 1
99 44 87 1
100 44 88 1
101 45 89 1
102 45 90 1
103 46 91 1
104 47 92 1
105 47 93 1
106 50 94 1
107 51 95 1
108 54 96 1
109 54 97 1
110 55 98 1
111 55 99 1
112 55 100 1
113 56 101 1
114 56 102 1
115 56 103 1
116 57 104 1
117 57 105 1
118 57 106 1
119 58 107 1
120 58 108 1
121 58 109 1
122 59 110 1
123 59 111 1
124 59 112 1
125 60 113 1
126 60 114 1
127 60 115 1
128 61 116 1
129 62 117 1
130 62 118 1
131 62 119 1
132 63 120 1
133 63 121 1
134 63 122 1
135 64 123 1
136 65 124 1
137 68 125 1
138 68 126 1
139 68 127 1
140 69 128 1
141 69 129 1
142 69 130 1
@<TRIPOS>MOLECULE
Sketch 4
130 142
SMALL
USER_CHARGES


@<TRIPOS>ATOM
1 C5316 0.234387927961691 0.174943145378437 0.98320467371474 C.Trigonal 0.0 **** 0.0
2 C5317 0.219017115427775 0.166587113815979 0.983222100134532 C 0.0 **** 0.0
3 C5318 0.214869204495363 0.155708044550731 0.970110090053731 C.Trigonal 0.0 **** 0.0
4 C5319 0.225897340976881 0.153374267129241 0.956885178338184 C.Trigonal 0.0 **** 0.0
5 C5320 0.241523526171423 0.161341154022202 0.957058730894474 C 0.0 **** 0.0
6 C5321 0.245845283604723 0.171930516285777 0.970341300264754 C 0.0 **** 0.0
7 C5328 0.221247293702001 0.141837151987737 0.942185980413804 C 0.0 **** 0.0
8 C5329 0.203768263223336 0.133739803731338 0.942084517030297 C.Trigonal 0.0 **** 0.0
9 C5330 0.192907434133117 0.136007118824179 0.955381608531354 C.Trigonal 0.0 **** 0.0
10 C5331 0.198163723010079 0.146210987092951 0.970840519220389 C 0.0 **** 0.0
11 C5337 0.176708789724226 0.129099746752645 0.95509527627196 C 0.0 **** 0.0
12 C5338 0.170634691583787 0.120654885697419 0.941074721819058 C 0.0 **** 0.0
13 C5339 0.181962687415072 0.116683653277578 0.928083918189053 C.Trigonal 0.0 **** 0.0
14 C5340 0.198569108829339 0.123534321889325 0.928527422084517 C.Trigonal 0.0 **** 0.0
15 C5346 0.209512602249803 0.120109889557503 0.915091815485425 C 0.0 **** 0.0
16 C5347 0.204148080331151 0.112347399234851 0.900090008904041 C.Trigonal 0.0 **** 0.0
17 C5348 0.187594158909561 0.105520768285069 0.900061499691099 C.Trigonal 0.0 **** 0.0
18 C5349 0.177351935164666 0.106186791202281 0.914215090870516 C 0.0 **** 0.0
19 C5355 0.18167774631789 0.096673615644454 0.884297846730292 C.Trigonal 0.0 **** 0.0
20 C5356 0.193034387361117 0.0909608845342889 0.8727394668232 C.Trigonal 0.0 **** 0.0
21 C5357 0.211355105916647 0.0965508241821375 0.874223163752419 C.Trigonal 0.0 **** 0.0
22 C5358 0.215079183439346 0.109529086733691 0.885874327973233 C.Trigonal 0.0 **** 0.0
23 C5364 0.187610378792537 0.0838654102583852 0.85552851511211 C 0.0 **** 0.0
24 C5365 0.168584522049787 0.0859403581909931 0.851518538510891 C 0.0 **** 0.0
25 C5366 0.161658003084605 0.101474693714041 0.860974899025949 C 0.0 **** 0.0
26 C5367 0.162981787189263 0.098458679383268 0.880097043610695 C 0.0 **** 0.0
27 C5373 0.23049141969021 0.118448687650474 0.883833421858609 C 0.0 **** 0.0
28 C5374 0.242731159417658 0.112145369403236 0.873042002591674 C.Trigonal 0.0 **** 0.0
29 C5375 0.239956959953169 0.0975511786463137 0.863849665282923 C.Trigonal 0.0 **** 0.0
30 C5376 0.224233867567155 0.0896582882553946 0.864283529538312 C 0.0 **** 0.0
31 C5382 0.25353241273487 0.0907408413686997 0.852163542435522 C 0.0 **** 0.0
32 C5383 0.269039015695381 0.100923970985154 0.84995619232164 C.Trigonal 0.0 **** 0.0
33 C5384 0.271604602644953 0.115226674774026 0.85897973295202 C.Trigonal 0.0 **** 0.0
34 C5385 0.259127734978925 0.121605101261525 0.871164754927626 C 0.0 **** 0.0
35 C5391 0.287732833735045 0.125409570959243 0.856967183789469 C 0.0 **** 0.0
36 C5392 0.293891908592654 0.124998472294487 0.838435838715179 C 0.0 **** 0.0
37 C5393 0.294321439067269 0.107044143429416 0.831587020261924 C.Trigonal 0.0 **** 0.0
38 C5394 0.282177558334985 0.0951853032314565 0.837391385392968 C.Trigonal 0.0 **** 0.0
39 N5400 0.282194258413874 0.07915350471843 0.832025824904363 N 0.0 **** 0.0
40 C5401 0.293371269693029 0.0745743956852636 0.820102937539203 C.Trigonal 0.0 **** 0.0
41 C5402 0.305556364062528 0.0858713254961531 0.813504499189729 C.Trigonal 0.0 **** 0.0
42 C5403 0.305964479378174 0.102086517681142 0.81961730644102 C.Trigonal 0.0 **** 0.0
43 C5409 0.319359024784248 0.114003185609094 0.812840413742962 C 0.0 **** 0.0
44 C5410 0.320509995489403 0.111411896707374 0.793698210777175 C 0.0 **** 0.0
45 C5411 0.32541982768658 0.0932132365995225 0.788969300910741 C 0.0 **** 0.0
46 C5412 0.318931854678498 0.0794715473705376 0.801255323129411 C 0.0 **** 0.0
47 C5418 0.312215137599652 0.0640644714063659 0.791149139878602 C 0.0 **** 0.0
48 C5419 0.302938453415792 0.0515396777248547 0.802304378862952 C.Trigonal 0.0 **** 0.0
49 C5420 0.29300207792468 0.057343514504302 0.815815122198887 C.Trigonal 0.0 **** 0.0
50 C5425 0.283447422032779 0.0456091363865982 0.82534097885698 C 0.0 **** 0.0
51 C5426 0.284136873999427 0.0287577486258406 0.821412768164992 C 0.0 **** 0.0
52 C5427 0.293991278111843 0.0229993409977107 0.808140069360385 C 0.0 **** 0.0
53 C5428 0.303462681089648 0.0344349252274543 0.798629106397907 C 0.0 **** 0.0
54 C5434 0.2631523071769 0.180228010212637 0.970749234669738 C 0.0 **** 0.0
55 C5436 0.26242216161613 0.19771266810195 0.962452578719025 C 0.0 **** 0.0
56 C5438 0.238545087054766 0.186946424355637 0.997588589693561 C 0.0 **** 0.0
57 C5440 0.254188708681578 0.158309787181653 0.942947831998301 C 0.0 **** 0.0
58 C5442 0.206495188026161 0.169323139410752 0.997473486594222 C 0.0 **** 0.0
59 C5444 0.165364596150307 0.131488696677263 0.970418218378849 C 0.0 **** 0.0
60 C5446 0.152065352755287 0.116012394136839 0.940901280752658 C 0.0 **** 0.0
61 O5448 0.162504358244517 0.0972464362856645 0.914873786494648 O 0.0 **** 0.0
62 C5450 0.143679625678876 0.106014192474327 0.855317656178361 C 0.0 **** 0.0
63 C5452 0.158779648821753 0.0695951152489617 0.85570072154099 C 0.0 **** 0.0
64 O5454 0.220735882036001 0.0755467141701645 0.854734140853235 O 0.0 **** 0.0
65 O5456 0.232820928034754 0.133218545198442 0.892644632432943 O 0.0 **** 0.0
66 O5458 0.261549769706763 0.134319639427548 0.879476647748669 O 0.0 **** 0.0
67 O5460 0.250823045853471 0.077443832636753 0.844938660427793 O 0.0 **** 0.0
68 C5462 0.314280238433917 0.0280387104534171 0.78415574223641 C 0.0 **** 0.0
69 C5464 0.293851424388239 0.00429989852704496 0.804331145647326 C 0.0 **** 0.0
70 H5466 0.222369377160108 0.149278818997273 0.930427630764803 H 0.0 **** 0.0
71 H5468 0.230829342159997 0.131723325783922 0.941511918261711 H 0.0 **** 0.0
72 H5470 0.198795781592436 0.137449009542027 0.981705761421031 H 0.0 **** 0.0
73 H5472 0.188016197385245 0.155314741345903 0.973688591413219 H 0.0 **** 0.0
74 H5474 0.22260120920416 0.124347430482468 0.916396476849026 H 0.0 **** 0.0
75 H5476 0.19464919288804 0.0905464355821021 0.845517018333285 H 0.0 **** 0.0
76 H5478 0.19102475312016 0.0703974078772525 0.85452452206497 H 0.0 **** 0.0
77 H5480 0.167271480571557 0.0881736214467511 0.837848494513182 H 0.0 **** 0.0
78 H5482 0.169710138540927 0.112357942401653 0.85792523662355 H 0.0 **** 0.0
79 H5484 0.155683458033662 0.0872619496594906 0.883871830838521 H 0.0 **** 0.0
80 H5486 0.157289827493031 0.109485237643963 0.8864774033287 H 0.0 **** 0.0
81 H5488 0.286154296580049 0.138738847459863 0.860750451043638 H 0.0 **** 0.0
82 H5490 0.297588752878656 0.120138717220558 0.865294553838867 H 0.0 **** 0.0
83 H5492 0.306451759471066 0.130952550769891 0.838165558876933 H 0.0 **** 0.0
84 H5494 0.285528306344646 0.132888238109602 0.830514065924131 H 0.0 **** 0.0
85 H5496 0.316385196389402 0.127348890758446 0.815187027691736 H 0.0 **** 0.0
86 H5498 0.331699711152961 0.111470260740268 0.818844884202047 H 0.0 **** 0.0
87 H5500 0.329532733021048 0.120377559353556 0.788000827352913 H 0.0 **** 0.0
88 H5502 0.308081445404729 0.11445225142025 0.788159230285697 H 0.0 **** 0.0
89 H5504 0.339297520089328 0.0922800565510319 0.788187092602679 H 0.0 **** 0.0
90 H5506 0.320876363572383 0.0906151680359136 0.776043649443528 H 0.0 **** 0.0
91 H5508 0.329639098077498 0.0750677377228571 0.809036243484814 H 0.0 **** 0.0
92 H5510 0.303403036459294 0.0686442911993453 0.781339133927771 H 0.0 **** 0.0
93 H5512 0.322937595327703 0.058274490595484 0.78447089500649 H 0.0 **** 0.0
94 H5514 0.275597461161929 0.0498975919248155 0.835976101167586 H 0.0 **** 0.0
95 H5516 0.27673443430433 0.0196578111749392 0.828866247740532 H 0.0 **** 0.0
96 H5518 0.272741860996255 0.172425168619804 0.964373307635036 H 0.0 **** 0.0
97 H5520 0.267815122273206 0.181402906406386 0.983816845999969 H 0.0 **** 0.0
98 H5522 0.252948151678787 0.205796471268006 0.968621766177179 H 0.0 **** 0.0
99 H5524 0.259067808168024 0.196843113134956 0.948986432765728 H 0.0 **** 0.0
100 H5526 0.274665367733969 0.204237811431237 0.963343844411357 H 0.0 **** 0.0
101 H5528 0.242925512132246 0.179978197755541 1.00882850217468 H 0.0 **** 0.0
102 H5530 0.227466822649465 0.19448222744197 1.00129729026972 H 0.0 **** 0.0
103 H5532 0.248331001552419 0.196235987948248 0.994394076196621 H 0.0 **** 0.0
104 H5534 0.248696151697385 0.152435921160865 0.931665912082157 H 0.0 **** 0.0
105 H5536 0.264480529115986 0.149959405707237 0.947260877328842 H 0.0 **** 0.0
106 H5538 0.259933470606414 0.170197609033397 0.938577736495186 H 0.0 **** 0.0
107 H5540 0.19962397017765 0.157703385324127 1.00071297988008 H 0.0 **** 0.0
108 H5542 0.197020522254807 0.178890698081384 0.993978844808036 H 0.0 **** 0.0
109 H5544 0.212475859680005 0.173565496463385 1.0092402819185 H 0.0 **** 0.0
110 H5546 0.156297257412907 0.121078244969135 0.972013793745448 H 0.0 **** 0.0
111 H5548 0.158171655420095 0.143386771373593 0.969564390627204 H 0.0 **** 0.0
112 H5550 0.172584012167493 0.131650980813887 0.982267769176085 H 0.0 **** 0.0
113 H5552 0.146446370303946 0.117409357873284 0.928271732598368 H 0.0 **** 0.0
114 H5554 0.144363116082761 0.124352055757515 0.94889931267829 H 0.0 **** 0.0
115 H5556 0.150107042222163 0.102960300410431 0.945260365721352 H 0.0 **** 0.0
116 H5558 0.161901157100614 0.0904574071136271 0.905028939734548 H 0.0 **** 0.0
117 H5560 0.138426770616189 0.116155336884164 0.86324784648744 H 0.0 **** 0.0
118 H5562 0.135328731503618 0.0950277137993372 0.856078609311873 H 0.0 **** 0.0
119 H5564 0.143754628292858 0.110404567050057 0.842135699554919 H 0.0 **** 0.0
120 H5566 0.163252705198027 0.059213486575527 0.847666181843433 H 0.0 **** 0.0
121 H5568 0.145191293115736 0.0710554517408272 0.853225731490203 H 0.0 **** 0.0
122 H5570 0.160506583115207 0.0658586048605578 0.868963210750146 H 0.0 **** 0.0
123 H5572 0.230733417355071 0.0720960688710403 0.848850328200251 H 0.0 **** 0.0
124 H5574 0.243927040645619 0.137435581795274 0.890452072234126 H 0.0 **** 0.0
125 H5576 0.311835556851858 0.0350823712761466 0.772426456558871 H 0.0 **** 0.0
126 H5578 0.31202647406366 0.0146897418122602 0.781184392142742 H 0.0 **** 0.0
127 H5580 0.327837504343971 0.0292556009374375 0.787148917455538 H 0.0 **** 0.0
128 H5582 0.287889049947044 0.00164765787096799 0.792027202285057 H 0.0 **** 0.0
129 H5584 0.286783162681011 -0.00283404737083678 0.813908296627848 H 0.0 **** 0.0
130 H5586 0.306754947079576 -0.000831062797515917 0.80403153568134 H 0.0 **** 0.0
@<TRIPOS>BOND
1 3 2 Aromatic
2 4 3 Aromatic
3 5 4 Aromatic
4 6 5 Aromatic
5 1 2 Aromatic
6 1 6 Aromatic
7 8 7 1
8 9 8 Aromatic
9 10 9 1
10 4 7 1
11 3 10 1
12 12 11 Aromatic
13 13 12 Aromatic
14 14 13 Aromatic
15 9 11 Aromatic
16 8 14 Aromatic
17 16 15 Aromatic
18 17 16 Aromatic
19 18 17 Aromatic
20 14 15 Aromatic
21 13 18 Aromatic
22 20 19 1
23 21 20 1
24 22 21 Aromatic
25 17 19 1
26 16 22 Aromatic
27 24 23 1
28 25 24 Aromatic
29 26 25 1
30 20 23 1
31 19 26 1
32 28 27 Aromatic
33 29 28 Aromatic
34 30 29 Aromatic
35 22 27 Aromatic
36 21 30 Aromatic
37 32 31 1
38 33 32 Aromatic
39 34 33 1
40 29 31 1
41 28 34 1
42 36 35 1
43 37 36 1
44 38 37 Aromatic
45 33 35 1
46 32 38 Aromatic
47 40 39 Aromatic
48 41 40 Aromatic
49 42 41 Aromatic
50 38 39 Aromatic
51 37 42 Aromatic
52 44 43 1
53 45 44 1
54 46 45 1
55 42 43 1
56 41 46 1
57 48 47 1
58 49 48 Aromatic
59 40 49 Aromatic
60 46 47 1
61 51 50 Aromatic
62 52 51 Aromatic
63 53 52 Aromatic
64 49 50 Aromatic
65 48 53 Aromatic
66 6 54 1
67 54 55 1
68 1 56 1
69 5 57 1
70 2 58 1
71 11 59 1
72 12 60 1
73 18 61 1
74 25 62 1
75 24 63 1
76 30 64 1
77 27 65 1
78 34 66 Double
79 31 67 Double
80 53 68 1
81 52 69 1
82 7 70 1
83 7 71 1
84 10 72 1
85 10 73 1
86 15 74 1
87 23 75 1
88 23 76 1
89 24 77 1
90 25 78 1
91 26 79 1
92 26 80 1
93 35 81 1
94 35 82 1
95 36 83 1
96 36 84 1
97 43 85 1
98 43 86 1
99 44 87 1
100 44 88 1
101 45 89 1
102 45 90 1
103 46 91 1
104 47 92 1
105 47 93 1
106 50 94 1
107 51 95 1
108 54 96 1
109 54 97 1
110 55 98 1
111 55 99 1
112 55 100 1
113 56 101 1
114 56 102 1
115 56 103 1
116 57 104 1
117 57 105 1
118 57 106 1
119 58 107 1
120 58 108 1
121 58 109 1
122 59 110 1
123 59 111 1
124 59 112 1
125 60 113 1
126 60 114 1
127 60 115 1
128 61 116 1
129 62 117 1
130 62 118 1
131 62 119 1
132 63 120 1
133 63 121 1
134 63 122 1
135 64 123 1
136 65 124 1
137 68 125 1
138 68 126 1
139 68 127 1
140 69 128 1
141 69 129 1
142 69 130 1
@<TRIPOS>MOLECULE
Sketch 4
130 142
SMALL
USER_CHARGES


@<TRIPOS>ATOM
1 C5588 0.113202499677133 0.78916418352033 0.208073008650415 C.Trigonal 0.0 **** 0.0
2 C5589 0.127339972586662 0.791214597947455 0.197954541148769 C 0.0 **** 0.0
3 C5590 0.130129238709228 0.780321577706394 0.184537260082032 C.Trigonal 0.0 **** 0.0
4 C5591 0.118243176701046 0.768305888799826 0.180402338820897 C.Trigonal 0.0 **** 0.0
5 C5592 0.103432572178809 0.767094354140092 0.189714788992894 C 0.0 **** 0.0
6 C5593 0.101168231535533 0.777185564581451 0.203886680697134 C 0.0 **** 0.0
7 C5600 0.121533384249924 0.756656297558501 0.165402611012487 C 0.0 **** 0.0
8 C5601 0.140028623088662 0.753668938726683 0.160892611575098 C.Trigonal 0.0 **** 0.0
9 C5602 0.151871601178135 0.765507173629007 0.165409721959315 C.Trigonal 0.0 **** 0.0
10 C5603 0.146272091728805 0.781715036759318 0.17420653236496 C 0.0 **** 0.0
11 C5609 0.168964659788542 0.76282254998081 0.162251412282695 C 0.0 **** 0.0
12 C5610 0.174635814271708 0.747799875121019 0.155277677402552 C 0.0 **** 0.0
13 C5611 0.162702802781662 0.736690182254854 0.148327219632188 C.Trigonal 0.0 **** 0.0
14 C5612 0.145315071445048 0.739335179875318 0.151854525129155 C.Trigonal 0.0 **** 0.0
15 C5618 0.133686133858327 0.727593001444049 0.145733516522229 C 0.0 **** 0.0
16 C5619 0.138180032497398 0.714221138129979 0.135016719545778 C.Trigonal 0.0 **** 0.0
17 C5620 0.155123254498387 0.713691041885384 0.128993693613696 C.Trigonal 0.0 **** 0.0
18 C5621 0.167341280756369 0.723926258423211 0.136376612483597 C 0.0 **** 0.0
19 C5627 0.159041928514457 0.701445856446546 0.114525931325284 C.Trigonal 0.0 **** 0.0
20 C5628 0.146110701464464 0.693057204074993 0.106845695916485 C.Trigonal 0.0 **** 0.0
21 C5629 0.128110728892683 0.695338253696232 0.112750711664617 C.Trigonal 0.0 **** 0.0
22 C5630 0.125647541605175 0.702690534303636 0.128684201502829 C.Trigonal 0.0 **** 0.0
23 C5636 0.148825463531954 0.679377558858172 0.0935901967366728 C 0.0 **** 0.0
24 C5637 0.167120351522012 0.672973810113952 0.0938189399291254 C 0.0 **** 0.0
25 C5638 0.179208067131331 0.688187217082456 0.0926353730600044 C 0.0 **** 0.0
26 C5639 0.177423346338933 0.698948903660101 0.108790234383998 C 0.0 **** 0.0
27 C5645 0.109437948932473 0.701149393319781 0.136107205864467 C 0.0 **** 0.0
28 C5646 0.0957463675681335 0.697077807443792 0.125920802684251 C.Trigonal 0.0 **** 0.0
29 C5647 0.0979901077029426 0.693916053000635 0.108876629154445 C.Trigonal 0.0 **** 0.0
30 C5648 0.114186896446532 0.692623334758273 0.102161994876781 C 0.0 **** 0.0
31 C5654 0.0829112933157004 0.691704920606922 0.0973448080596959 C 0.0 **** 0.0
32 C5655 0.0659660302521236 0.691807717551485 0.105089026931003 C.Trigonal 0.0 **** 0.0
33 C5656 0.0639030435675258 0.693445681783894 0.122035797524954 C.Trigonal 0.0 **** 0.0
34 C5657 0.0782957304377341 0.696464315388039 0.133469516969177 C 0.0 **** 0.0
35 C5663 0.0464936744943271 0.692873944159283 0.130181857112528 C 0.0 **** 0.0
36 C5664 0.0341140272398103 0.682820630233128 0.118880611980121 C 0.0 **** 0.0
37 C5665 0.0345634717889989 0.689759640329618 0.101038677797762 C.Trigonal 0.0 **** 0.0
38 C5666 0.0507340141912271 0.691725278827762 0.0936308434958217 C.Trigonal 0.0 **** 0.0
39 N5672 0.0525357943135452 0.696270120536987 0.0774395296497108 N 0.0 **** 0.0
40 C5673 0.0386661267723988 0.700399813215201 0.068631273775787 C.Trigonal 0.0 **** 0.0
41 C5674 0.0223521914674878 0.700819735389635 0.075994823044506 C.Trigonal 0.0 **** 0.0
42 C5675 0.0204078171463808 0.694788582677713 0.092162486505515 C.Trigonal 0.0 **** 0.0
43 C5681 0.00304116929018098 0.694103203480724 0.10047353780428 C 0.0 **** 0.0
44 C5682 -0.00985487678678201 0.705690369531516 0.0917677444164152 C 0.0 **** 0.0
45 C5683 -0.00921293602558779 0.703474162806303 0.0726314445631523 C 0.0 **** 0.0
46 C5684 0.00810819894039201 0.708951130395212 0.0659716297664816 C 0.0 **** 0.0
47 C5690 0.0102505719278923 0.705349188394693 0.0468722258335539 C 0.0 **** 0.0
48 C5691 0.0281562115189187 0.709181907104736 0.041183772787811 C.Trigonal 0.0 **** 0.0
49 C5692 0.0418122518067029 0.705660556389871 0.0519516025221919 C.Trigonal 0.0 **** 0.0
50 C5697 0.058481392255286 0.708198632649407 0.0460498279760676 C 0.0 **** 0.0
51 C5698 0.0611029868202645 0.71461640167779 0.0301857945652018 C 0.0 **** 0.0
52 C5699 0.0476583685369239 0.71850957390915 0.019667639115623 C 0.0 **** 0.0
53 C5700 0.0311454507402897 0.715660767975649 0.0251882229604177 C 0.0 **** 0.0
54 C5706 0.0855047737320442 0.775187374117777 0.214841902150057 C 0.0 **** 0.0
55 C5708 0.088749278181186 0.76211398924052 0.228784092675133 C 0.0 **** 0.0
56 C5710 0.111057491431817 0.800337866037968 0.223518852364896 C 0.0 **** 0.0
57 C5712 0.0897407302507382 0.754585404346188 0.184808987954606 C 0.0 **** 0.0
58 C5714 0.139895318506178 0.805153425644335 0.201893419450306 C 0.0 **** 0.0
59 C5716 0.181540855012459 0.7765661419051 0.167051551791186 C 0.0 **** 0.0
60 C5718 0.193592884069172 0.745016739578615 0.154558675909286 C 0.0 **** 0.0
61 O5720 0.184072675045551 0.7226419024441 0.132144662473272 O 0.0 **** 0.0
62 C5722 0.176120909256076 0.699306637939366 0.076887797625164 C 0.0 **** 0.0
63 C5724 0.170021195651978 0.660181491171036 0.0794483098706845 C 0.0 **** 0.0
64 O5726 0.116954898321033 0.688816264802378 0.0854242167082105 O 0.0 **** 0.0
65 O5728 0.1076215676879 0.704693770132868 0.153047296365407 O 0.0 **** 0.0
66 O5730 0.0764733262396821 0.698619323571802 0.148605319959706 O 0.0 **** 0.0
67 O5732 0.0854618712643989 0.690584855866255 0.0822203045197945 O 0.0 **** 0.0
68 C5734 0.016403547683571 0.719528021510545 0.0135669900598467 C 0.0 **** 0.0
69 C5736 0.0516461659036226 0.725704969865838 0.00240985594771287 C 0.0 **** 0.0
70 H5738 0.116077120723934 0.744292265975046 0.168592032319733 H 0.0 **** 0.0
71 H5740 0.114679333008196 0.761412774225419 0.154201532143278 H 0.0 **** 0.0
72 H5742 0.144920919958902 0.791949530424761 0.164783636328183 H 0.0 **** 0.0
73 H5744 0.156391473047341 0.78558254609543 0.182895793183793 H 0.0 **** 0.0
74 H5746 0.120277798131012 0.729637669065315 0.148493527796743 H 0.0 **** 0.0
75 H5748 0.140415699075794 0.668521327163859 0.0959556457069945 H 0.0 **** 0.0
76 H5750 0.145882201733432 0.684234036055995 0.0808852513794475 H 0.0 **** 0.0
77 H5752 0.169439665397827 0.666413381389283 0.105894339972824 H 0.0 **** 0.0
78 H5754 0.192256020481207 0.683390395500124 0.0919470708272829 H 0.0 **** 0.0
79 H5756 0.183523497062865 0.711149433947943 0.10602328905015 H 0.0 **** 0.0
80 H5758 0.184565971915099 0.692622789899633 0.118950653242048 H 0.0 **** 0.0
81 H5760 0.0469328843057264 0.686830906262569 0.142763122986395 H 0.0 **** 0.0
82 H5762 0.041661949879575 0.705786627243882 0.132138833554099 H 0.0 **** 0.0
83 H5764 0.0214666987130038 0.6829215141229 0.124562247728414 H 0.0 **** 0.0
84 H5766 0.0379706971115401 0.669401281167591 0.118756218092913 H 0.0 **** 0.0
85 H5768 -0.00167371946346492 0.680965701616399 0.100262293973019 H 0.0 **** 0.0
86 H5770 0.00378254163180645 0.697843687892541 0.1138523177894 H 0.0 **** 0.0
87 H5772 -0.00701711050979629 0.718985299276069 0.0948977123325971 H 0.0 **** 0.0
88 H5774 -0.022644063634111 0.703133466878992 0.0966875949106506 H 0.0 **** 0.0
89 H5776 -0.0192708105542283 0.710864617061286 0.0664197320002422 H 0.0 **** 0.0
90 H5778 -0.0115471518544667 0.690145284129599 0.0694420254034956 H 0.0 **** 0.0
91 H5780 0.00907186740298353 0.722806702934935 0.0677490446554356 H 0.0 **** 0.0
92 H5782 0.00730839966752275 0.691975821157131 0.0442888339073724 H 0.0 **** 0.0
93 H5784 0.00080776762288761 0.712835730191708 0.0399563606697969 H 0.0 **** 0.0
94 H5786 0.0693790587002687 0.70538764999925 0.0542120788127688 H 0.0 **** 0.0
95 H5788 0.0741146855633598 0.716624618530431 0.0257196934349711 H 0.0 **** 0.0
96 H5790 0.0744381308639357 0.771282239525998 0.207405278299059 H 0.0 **** 0.0
97 H5792 0.0817608891637066 0.787325528413067 0.220523062110868 H 0.0 **** 0.0
98 H5794 0.0994165560508299 0.765850812483404 0.236902854500684 H 0.0 **** 0.0
99 H5796 0.0917922699473256 0.749662433881468 0.223354754547882 H 0.0 **** 0.0
100 H5798 0.0776205234947804 0.76049533664994 0.236968169461339 H 0.0 **** 0.0
101 H5800 0.123313647001958 0.803460267453195 0.229272434090342 H 0.0 **** 0.0
102 H5802 0.10378309451708 0.794272313150043 0.233658831448005 H 0.0 **** 0.0
103 H5804 0.104686168240992 0.812297494054949 0.220274394044995 H 0.0 **** 0.0
104 H5806 0.088932155354175 0.744174113608324 0.194018098819509 H 0.0 **** 0.0
105 H5808 0.091669380447969 0.748830592880834 0.172367511899895 H 0.0 **** 0.0
106 H5810 0.0772569488211388 0.760669845660581 0.184064293393205 H 0.0 **** 0.0
107 H5812 0.146876405211252 0.80940490028803 0.190672622824582 H 0.0 **** 0.0
108 H5814 0.149205927771668 0.801032002393425 0.211406315975439 H 0.0 **** 0.0
109 H5816 0.133541463616577 0.816515403607255 0.206750120680994 H 0.0 **** 0.0
110 H5818 0.192796648153873 0.776522127895591 0.158907372467096 H 0.0 **** 0.0
111 H5820 0.185750552765665 0.775190666305133 0.180260684294306 H 0.0 **** 0.0
112 H5822 0.176186232649842 0.789308574513755 0.1655689379236 H 0.0 **** 0.0
113 H5824 0.196934665554951 0.731700592828523 0.156800168496639 H 0.0 **** 0.0
114 H5826 0.20035562378253 0.75194340163303 0.164495613622141 H 0.0 **** 0.0
115 H5828 0.198885984603483 0.748951514416896 0.142291745617978 H 0.0 **** 0.0
116 H5830 0.185737743863937 0.712134889503124 0.126691929953751 H 0.0 **** 0.0
117 H5832 0.17659435740175 0.691697233718288 0.065291144640223 H 0.0 **** 0.0
118 H5834 0.185911820580481 0.709140685770074 0.0759633850782742 H 0.0 **** 0.0
119 H5836 0.163755574876207 0.70562737921202 0.0774948839191578 H 0.0 **** 0.0
120 H5838 0.161810981014438 0.649081751041673 0.0811284646791803 H 0.0 **** 0.0
121 H5840 0.183212094761331 0.65579835639689 0.0794391674901444 H 0.0 **** 0.0
122 H5842 0.167213695300067 0.665791351226834 0.0670486964512844 H 0.0 **** 0.0
123 H5844 0.106257977898056 0.687766248592558 0.0798448146418292 H 0.0 **** 0.0
124 H5846 0.095814078811728 0.704466921585954 0.155658685571015 H 0.0 **** 0.0
125 H5848 0.00808548122259571 0.708462474580206 0.0120948684575558 H 0.0 **** 0.0
126 H5850 0.0203120035902711 0.723187623614738 0.0007781963082105 H 0.0 **** 0.0
127 H5852 0.00873322820874848 0.730044097094507 0.0185277133382803 H 0.0 **** 0.0
128 H5854 0.0653354456255131 0.72628156367822 0.00013958013744879 H 0.0 **** 0.0
129 H5856 0.0467377888994939 0.738668388205509 0.00110703177964444 H 0.0 **** 0.0
130 H5858 0.046200719408836 0.71798293947749 -0.00780579168785535 H 0.0 **** 0.0
@<TRIPOS>BOND
1 3 2 Aromatic
2 4 3 Aromatic
3 5 4 Aromatic
4 6 5 Aromatic
5 1 2 Aromatic
6 1 6 Aromatic
7 8 7 1
8 9 8 Aromatic
9 10 9 1
10 4 7 1
11 3 10 1
12 12 11 Aromatic
13 13 12 Aromatic
14 14 13 Aromatic
15 9 11 Aromatic
16 8 14 Aromatic
17 16 15 Aromatic
18 17 16 Aromatic
19 18 17 Aromatic
20 14 15 Aromatic
21 13 18 Aromatic
22 20 19 1
23 21 20 1
24 22 21 Aromatic
25 17 19 1
26 16 22 Aromatic
27 24 23 1
28 25 24 Aromatic
29 26 25 1
30 20 23 1
31 19 26 1
32 28 27 Aromatic
33 29 28 Aromatic
34 30 29 Aromatic
35 22 27 Aromatic
36 21 30 Aromatic
37 32 31 1
38 33 32 Aromatic
39 34 33 1
40 29 31 1
41 28 34 1
42 36 35 1
43 37 36 1
44 38 37 Aromatic
45 33 35 1
46 32 38 Aromatic
47 40 39 Aromatic
48 41 40 Aromatic
49 42 41 Aromatic
50 38 39 Aromatic
51 37 42 Aromatic
52 44 43 1
53 45 44 1
54 46 45 1
55 42 43 1
56 41 46 1
57 48 47 1
58 49 48 Aromatic
59 40 49 Aromatic
60 46 47 1
61 51 50 Aromatic
62 52 51 Aromatic
63 53 52 Aromatic
64 49 50 Aromatic
65 48 53 Aromatic
66 6 54 1
67 54 55 1
68 1 56 1
69 5 57 1
70 2 58 1
71 11 59 1
72 12 60 1
73 18 61 1
74 25 62 1
75 24 63 1
76 30 64 1
77 27 65 1
78 34 66 Double
79 31 67 Double
80 53 68 1
81 52 69 1
82 7 70 1
83 7 71 1
84 10 72 1
85 10 73 1
86 15 74 1
87 23 75 1
88 23 76 1
89 24 77 1
90 25 78 1
91 26 79 1
92 26 80 1
93 35 81 1
94 35 82 1
95 36 83 1
96 36 84 1
97 43 85 1
98 43 86 1
99 44 87 1
100 44 88 1
101 45 89 1
102 45 90 1
103 46 91 1
104 47 92 1
105 47 93 1
106 50 94 1
107 51 95 1
108 54 96 1
109 54 97 1
110 55 98 1
111 55 99 1
112 55 100 1
113 56 101 1
114 56 102 1
115 56 103 1
116 57 104 1
117 57 105 1
118 57 106 1
119 58 107 1
120 58 108 1
121 58 109 1
122 59 110 1
123 59 111 1
124 59 112 1
125 60 113 1
126 60 114 1
127 60 115 1
128 61 116 1
129 62 117 1
130 62 118 1
131 62 119 1
132 63 120 1
133 63 121 1
134 63 122 1
135 64 123 1
136 65 124 1
137 68 125 1
138 68 126 1
139 68 127 1
140 69 128 1
141 69 129 1
142 69 130 1
@<TRIPOS>MOLECULE
Sketch 4
130 142
SMALL
USER_CHARGES


@<TRIPOS>ATOM
1 C5860 -0.0474274761817412 0.373213270901406 0.98185167901459 C.Trigonal 0.0 **** 0.0
2 C5861 -0.0374854439007612 0.372142246519035 0.996221048268426 C 0.0 **** 0.0
3 C5862 -0.0207606092408523 0.3673013701603 0.994788437906877 C.Trigonal 0.0 **** 0.0
4 C5863 -0.0140522049215366 0.363440387108099 0.979196207298549 C.Trigonal 0.0 **** 0.0
5 C5864 -0.0237547530400019 0.365216315493511 0.96471602781767 C 0.0 **** 0.0
6 C5865 -0.0404116078966537 0.370457514739698 0.966039972615062 C 0.0 **** 0.0
7 C5872 0.0042939124127705 0.357605503385399 0.978539281643596 C 0.0 **** 0.0
8 C5873 0.00918626920997026 0.346633913700362 0.993592434833884 C.Trigonal 0.0 **** 0.0
9 C5874 0.00253613277528116 0.35084666422942 1.00908449742303 C.Trigonal 0.0 **** 0.0
10 C5875 -0.00928802117856109 0.365983431113508 1.0101035471188 C 0.0 **** 0.0
11 C5881 0.00627460283724116 0.341508858894957 1.02347869506042 C 0.0 **** 0.0
12 C5882 0.0154405823345397 0.326674198634689 1.02240083590028 C 0.0 **** 0.0
13 C5883 0.0234460798325756 0.322784149300147 1.00706006023985 C.Trigonal 0.0 **** 0.0
14 C5884 0.0205046187190122 0.333074669138285 0.992614181039977 C.Trigonal 0.0 **** 0.0
15 C5890 0.0291826372733421 0.329367711201448 0.977697331449619 C 0.0 **** 0.0
16 C5891 0.0381447662514349 0.314253484742513 0.97527009765974 C.Trigonal 0.0 **** 0.0
17 C5892 0.0406173256404489 0.303990101232387 0.98973309413061 C.Trigonal 0.0 **** 0.0
18 C5893 0.0348685123971235 0.308971321709035 1.00551269208745 C 0.0 **** 0.0
19 C5899 0.0509543064477379 0.288081912218028 0.987648140102756 C.Trigonal 0.0 **** 0.0
20 C5900 0.0612389660070442 0.286075052895561 0.974015245839833 C.Trigonal 0.0 **** 0.0
21 C5901 0.0600049136192632 0.298530873490187 0.959410453996265 C.Trigonal 0.0 **** 0.0
22 C5902 0.0462951200738536 0.309958173121132 0.959616668652997 C.Trigonal 0.0 **** 0.0
23 C5908 0.0708842064781705 0.269612786487459 0.970800163904201 C 0.0 **** 0.0
24 C5909 0.069060781407534 0.256362978830532 0.985031235060117 C 0.0 **** 0.0
25 C5910 0.0508684041394121 0.256658509026802 0.991936900188076 C 0.0 **** 0.0
26 C5911 0.0474069260101063 0.273876314965561 1.0001610760918 C 0.0 **** 0.0
27 C5917 0.0420147278166768 0.317981468702775 0.94420258990182 C 0.0 **** 0.0
28 C5918 0.0531688327583455 0.317239032717482 0.930776865992215 C.Trigonal 0.0 **** 0.0
29 C5919 0.0687473797818163 0.309595838523279 0.932370849292847 C.Trigonal 0.0 **** 0.0
30 C5920 0.0720275539937407 0.299521525747428 0.946404098748252 C 0.0 **** 0.0
31 C5926 0.0819767129221194 0.311799042678995 0.918626511704658 C 0.0 **** 0.0
32 C5927 0.0772665026395548 0.321773495450603 0.903446095740873 C.Trigonal 0.0 **** 0.0
33 C5928 0.0611435555480453 0.327140756970425 0.901293158847744 C.Trigonal 0.0 **** 0.0
34 C5929 0.0481277908740017 0.325008041496571 0.914279266732975 C 0.0 **** 0.0
35 C5935 0.0554128831334064 0.335384726948861 0.884973249344305 C 0.0 **** 0.0
36 C5936 0.0695048127086793 0.346744665393876 0.877971553894418 C 0.0 **** 0.0
37 C5937 0.0860107421798519 0.33703978473998 0.876835734795627 C.Trigonal 0.0 **** 0.0
38 C5938 0.0902324230324048 0.325361321644343 0.889799896288158 C.Trigonal 0.0 **** 0.0
39 N5944 0.105121246967021 0.317240168884113 0.889680192903477 N 0.0 **** 0.0
40 C5945 0.11537421266539 0.319433832843396 0.8763680213035 C.Trigonal 0.0 **** 0.0
41 C5946 0.111821869989014 0.330839335088679 0.863021570704465 C.Trigonal 0.0 **** 0.0
42 C5947 0.0970840103432092 0.339835406493327 0.863652473081471 C.Trigonal 0.0 **** 0.0
43 C5953 0.0924762232290122 0.352317687410025 0.84971971413488 C 0.0 **** 0.0
44 C5954 0.107622576540771 0.35727111137582 0.838744440217796 C 0.0 **** 0.0
45 C5955 0.117461750065024 0.341565126539075 0.833535547265176 C 0.0 **** 0.0
46 C5956 0.125037555207551 0.333357423123503 0.849332865457028 C 0.0 **** 0.0
47 C5962 0.133631478917041 0.31631280614999 0.845389527297177 C 0.0 **** 0.0
48 C5963 0.139822067584671 0.308284716534673 0.861649725451043 C.Trigonal 0.0 **** 0.0
49 C5964 0.130419084695495 0.309959464447436 0.876631206874659 C.Trigonal 0.0 **** 0.0
50 C5969 0.136157507357542 0.30189365590186 0.891477817983919 C 0.0 **** 0.0
51 C5970 0.150984806819408 0.292958397384555 0.891122600228021 C 0.0 **** 0.0
52 C5971 0.160122263197991 0.290975086729374 0.87632263789687 C 0.0 **** 0.0
53 C5972 0.154107241722224 0.298210479337844 0.8614290048781 C 0.0 **** 0.0
54 C5978 -0.0511231741125922 0.373010179019455 0.950309606922649 C 0.0 **** 0.0
55 C5980 -0.0592157207205487 0.356239367415471 0.945020806001303 C 0.0 **** 0.0
56 C5982 -0.0659566565380526 0.37764569748061 0.983831483516044 C 0.0 **** 0.0
57 C5984 -0.0157159156163581 0.361266991509217 0.947790663062032 C 0.0 **** 0.0
58 C5986 -0.044860927913401 0.376023846543358 1.0134878549466 C 0.0 **** 0.0
59 C5988 -0.000658925539123484 0.34747896051225 1.04036738271141 C 0.0 **** 0.0
60 C5990 0.0162818132237771 0.315603423530903 1.03804327821703 C 0.0 **** 0.0
61 O5992 0.0398860689754264 0.300611830394197 1.01987740201654 O 0.0 **** 0.0
62 C5994 0.0477000338861509 0.242292402859753 1.00466160538788 C 0.0 **** 0.0
63 C5996 0.0825449497793775 0.259374064406885 0.998804844837729 C 0.0 **** 0.0
64 O5998 0.0866689360129718 0.290305426129677 0.947651720716801 O 0.0 **** 0.0
65 O6000 0.0270616739020536 0.32671457897395 0.942953445604897 O 0.0 **** 0.0
66 O6002 0.0334053847313975 0.328770245339068 0.911916767689371 O 0.0 **** 0.0
67 O6004 0.0958098656034019 0.305466060057968 0.920828711000435 O 0.0 **** 0.0
68 C6006 0.16314549145378 0.295042769365819 0.844876388371597 C 0.0 **** 0.0
69 C6008 0.176306039096207 0.280822349946741 0.87694183646549 C 0.0 **** 0.0
70 H6010 0.00637192557162403 0.350543558434673 0.966834040882007 H 0.0 **** 0.0
71 H6012 0.0127069887505364 0.368738899387973 0.977908891070935 H 0.0 **** 0.0
72 H6014 -0.00184869315234776 0.377731094692727 1.01144933224133 H 0.0 **** 0.0
73 H6016 -0.0170758247295588 0.3650077859608 1.02147729827054 H 0.0 **** 0.0
74 H6018 0.0283940694382485 0.338609978875111 0.967467410146697 H 0.0 **** 0.0
75 H6020 0.0661539044709822 0.264002847876413 0.958962032613755 H 0.0 **** 0.0
76 H6022 0.0844686372741361 0.27189793355623 0.969022261847772 H 0.0 **** 0.0
77 H6024 0.0714071430992725 0.243782381577433 0.979615040879662 H 0.0 **** 0.0
78 H6026 0.0420736817529767 0.254929221709302 0.981259694674453 H 0.0 **** 0.0
79 H6028 0.0552093760526387 0.275149503117841 1.01159488090386 H 0.0 **** 0.0
80 H6030 0.034044597656571 0.274000974428971 1.00418493058605 H 0.0 **** 0.0
81 H6032 0.0522480337897024 0.32548398449088 0.875688520596973 H 0.0 **** 0.0
82 H6034 0.0439109519886966 0.343101463079715 0.886532999534002 H 0.0 **** 0.0
83 H6036 0.0711211028624523 0.357832460651781 0.886297200486092 H 0.0 **** 0.0
84 H6038 0.0653587002540194 0.351578019908543 0.865626725888055 H 0.0 **** 0.0
85 H6040 0.0827360654280052 0.346574611981609 0.841525881291512 H 0.0 **** 0.0
86 H6042 0.0869140964385178 0.363874161429248 0.855049170951294 H 0.0 **** 0.0
87 H6044 0.116042126034828 0.365803297579987 0.845858487743166 H 0.0 **** 0.0
88 H6046 0.103214359010422 0.36435664081853 0.827634973597511 H 0.0 **** 0.0
89 H6048 0.127598946487488 0.344761563309716 0.824509708424828 H 0.0 **** 0.0
90 H6050 0.108956171467962 0.332632266148706 0.827022740184608 H 0.0 **** 0.0
91 H6052 0.134747882423064 0.34207523738669 0.854317470740474 H 0.0 **** 0.0
92 H6054 0.12461157045615 0.307819767302015 0.838979355546748 H 0.0 **** 0.0
93 H6056 0.144002653981117 0.318636946087245 0.836424292449868 H 0.0 **** 0.0
94 H6058 0.12893661848387 0.303001920064096 0.903304579134294 H 0.0 **** 0.0
95 H6060 0.155547205614824 0.286962810421691 0.902737404731143 H 0.0 **** 0.0
96 H6062 -0.0436567429446495 0.378298342295758 0.939824404905256 H 0.0 **** 0.0
97 H6064 -0.0610027422540003 0.382591388139637 0.952359376667605 H 0.0 **** 0.0
98 H6066 -0.0672329353193195 0.357759698592862 0.933758033425767 H 0.0 **** 0.0
99 H6068 -0.0671871968819232 0.351100274900843 0.955194147099646 H 0.0 **** 0.0
100 H6070 -0.0495399723831236 0.34668736308075 0.942087228585634 H 0.0 **** 0.0
101 H6072 -0.0715441014904471 0.37097592154638 0.994677432800381 H 0.0 **** 0.0
102 H6074 -0.0736864579356052 0.373976557467359 0.972935849554079 H 0.0 **** 0.0
103 H6076 -0.0676894408197775 0.391294451032134 0.985862519359298 H 0.0 **** 0.0
104 H6078 -0.00462820430729472 0.369381068585596 0.945573341005985 H 0.0 **** 0.0
105 H6080 -0.0241182930463345 0.363017084643771 0.936949569141886 H 0.0 **** 0.0
106 H6082 -0.0115616497972097 0.3479817335283 0.947221012345815 H 0.0 **** 0.0
107 H6084 -0.0360423241056518 0.383343077479963 1.02136127313695 H 0.0 **** 0.0
108 H6086 -0.0480057838923522 0.364297218651122 1.02032905302382 H 0.0 **** 0.0
109 H6088 -0.0564046387496069 0.38367066572463 1.01283370487754 H 0.0 **** 0.0
110 H6090 0.00712601798863701 0.343355706421767 1.05110020399753 H 0.0 **** 0.0
111 H6092 -0.0136417126566798 0.342934271460929 1.04238763707667 H 0.0 **** 0.0
112 H6094 -0.000841222238325215 0.361336443794517 1.04128818368258 H 0.0 **** 0.0
113 H6096 0.0282591561082028 0.317240504193714 1.04492979638797 H 0.0 **** 0.0
114 H6098 0.0148589756812602 0.302137924789202 1.03484919211079 H 0.0 **** 0.0
115 H6100 0.00595020416930089 0.318016071937 1.04697853561305 H 0.0 **** 0.0
116 H6102 0.0501147791816319 0.294932363518078 1.01732281838325 H 0.0 **** 0.0
117 H6104 0.0507821182734107 0.229983293795543 0.998979215944109 H 0.0 **** 0.0
118 H6106 0.0343169583998798 0.24208829292175 1.00844929077206 H 0.0 **** 0.0
119 H6108 0.0553936452889649 0.243948632229756 1.01610500635387 H 0.0 **** 0.0
120 H6110 0.0953047252615654 0.258576169252405 0.993333169633524 H 0.0 **** 0.0
121 H6112 0.0816925146384082 0.249759644063096 1.00879106149602 H 0.0 **** 0.0
122 H6114 0.0811572799303675 0.271919846965354 1.00454043792401 H 0.0 **** 0.0
123 H6116 0.0941923656244988 0.293518329968319 0.938762015371586 H 0.0 **** 0.0
124 H6118 0.0247049551892115 0.328795763561768 0.931291391161628 H 0.0 **** 0.0
125 H6120 0.169903201262101 0.306379468811467 0.840526391644279 H 0.0 **** 0.0
126 H6122 0.154199275647386 0.291326154519727 0.834880137272611 H 0.0 **** 0.0
127 H6124 0.172376668143907 0.284750606654786 0.845703325694818 H 0.0 **** 0.0
128 H6126 0.178758199061651 0.275854536098709 0.889648385085599 H 0.0 **** 0.0
129 H6128 0.187279807396179 0.28861455771658 0.873384580009715 H 0.0 **** 0.0
130 H6130 0.175903549950092 0.269886474618991 0.868343670782155 H 0.0 **** 0.0
@<TRIPOS>BOND
1 3 2 Aromatic
2 4 3 Aromatic
3 5 4 Aromatic
4 6 5 Aromatic
5 1 2 Aromatic
6 1 6 Aromatic
7 8 7 1
8 9 8 Aromatic
9 10 9 1
10 4 7 1
11 3 10 1
12 12 11 Aromatic
13 13 12 Aromatic
14 14 13 Aromatic
15 9 11 Aromatic
16 8 14 Aromatic
17 16 15 Aromatic
18 17 16 Aromatic
19 18 17 Aromatic
20 14 15 Aromatic
21 13 18 Aromatic
22 20 19 1
23 21 20 1
24 22 21 Aromatic
25 17 19 1
26 16 22 Aromatic
27 24 23 1
28 25 24 Aromatic
29 26 25 1
30 20 23 1
31 19 26 1
32 28 27 Aromatic
33 29 28 Aromatic
34 30 29 Aromatic
35 22 27 Aromatic
36 21 30 Aromatic
37 32 31 1
38 33 32 Aromatic
39 34 33 1
40 29 31 1
41 28 34 1
42 36 35 1
43 37 36 1
44 38 37 Aromatic
45 33 35 1
46 32 38 Aromatic
47 40 39 Aromatic
48 41 40 Aromatic
49 42 41 Aromatic
50 38 39 Aromatic
51 37 42 Aromatic
52 44 43 1
53 45 44 1
54 46 45 1
55 42 43 1
56 41 46 1
57 48 47 1
58 49 48 Aromatic
59 40 49 Aromatic
60 46 47 1
61 51 50 Aromatic
62 52 51 Aromatic
63 53 52 Aromatic
64 49 50 Aromatic
65 48 53 Aromatic
66 6 54 1
67 54 55 1
68 1 56 1
69 5 57 1
70 2 58 1
71 11 59 1
72 12 60 1
73 18 61 1
74 25 62 1
75 24 63 1
76 30 64 1
77 27 65 1
78 34 66 Double
79 31 67 Double
80 53 68 1
81 52 69 1
82 7 70 1
83 7 71 1
84 10 72 1
85 10 73 1
86 15 74 1
87 23 75 1
88 23 76 1
89 24 77 1
90 25 78 1
91 26 79 1
92 26 80 1
93 35 81 1
94 35 82 1
95 36 83 1
96 36 84 1
97 43 85 1
98 43 86 1
99 44 87 1
100 44 88 1
101 45 89 1
102 45 90 1
103 46 91 1
104 47 92 1
105 47 93 1
106 50 94 1
107 51 95 1
108 54 96 1
109 54 97 1
110 55 98 1
111 55 99 1
112 55 100 1
113 56 101 1
114 56 102 1
115 56 103 1
116 57 104 1
117 57 105 1
118 57 106 1
119 58 107 1
120 58 108 1
121 58 109 1
122 59 110 1
123 59 111 1
124 59 112 1
125 60 113 1
126 60 114 1
127 60 115 1
128 61 116 1
129 62 117 1
130 62 118 1
131 62 119 1
132 63 120 1
133 63 121 1
134 63 122 1
135 64 123 1
136 65 124 1
137 68 125 1
138 68 126 1
139 68 127 1
140 69 128 1
141 69 129 1
142 69 130 1
@<TRIPOS>MOLECULE
Sketch 4
130 142
SMALL
USER_CHARGES


@<TRIPOS>ATOM
1 C6132 0.868067281931964 0.646417178859234 0.478381893732296 C.Trigonal 0.0 **** 0.0
2 C6133 0.88161875248385 0.657327752178127 0.476338578665453 C 0.0 **** 0.0
3 C6134 0.880519768324866 0.670419174176727 0.464814894800106 C.Trigonal 0.0 **** 0.0
4 C6135 0.866026544046911 0.672565012911668 0.455442019159641 C.Trigonal 0.0 **** 0.0
5 C6136 0.852155928636865 0.662187729747557 0.457921308284092 C 0.0 **** 0.0
6 C6137 0.853138504459221 0.649183249245756 0.469604242840715 C 0.0 **** 0.0
7 C6144 0.865870811696054 0.687018023681205 0.44285017811697 C 0.0 **** 0.0
8 C6145 0.88264870037783 0.68908380039951 0.433678689286861 C.Trigonal 0.0 **** 0.0
9 C6146 0.897019482679349 0.68752179804879 0.443331074905584 C.Trigonal 0.0 **** 0.0
10 C6147 0.894941326334428 0.682848503727432 0.461940653860244 C 0.0 **** 0.0
11 C6153 0.912954028072997 0.690068475768684 0.436405840784782 C 0.0 **** 0.0
12 C6154 0.91500721280961 0.692629464613035 0.419225625366 C 0.0 **** 0.0
13 C6155 0.90057819505799 0.694940394917649 0.409160513342105 C.Trigonal 0.0 **** 0.0
14 C6156 0.884276111729491 0.692795625897378 0.416471488071452 C.Trigonal 0.0 **** 0.0
15 C6162 0.870169674396497 0.693882530720662 0.405886696830496 C 0.0 **** 0.0
16 C6163 0.871491326022027 0.695679982920923 0.388378181618455 C.Trigonal 0.0 **** 0.0
17 C6164 0.887087770320571 0.701724919777831 0.382142528823304 C.Trigonal 0.0 **** 0.0
18 C6165 0.901631952335407 0.700299682010202 0.391938710216063 C 0.0 **** 0.0
19 C6171 0.887168190948203 0.708856418374431 0.364327137155415 C.Trigonal 0.0 **** 0.0
20 C6172 0.873264657497591 0.707414745571912 0.35421508294816 C.Trigonal 0.0 **** 0.0
21 C6173 0.857517042636802 0.698176882254656 0.360555984246917 C.Trigonal 0.0 **** 0.0
22 C6174 0.85806790997483 0.691247500279801 0.377003211996517 C.Trigonal 0.0 **** 0.0
23 C6180 0.872604484208876 0.715551297746648 0.336657059455393 C 0.0 **** 0.0
24 C6181 0.889472298138122 0.723393885323596 0.331029288498637 C 0.0 **** 0.0
25 C6182 0.897687500549173 0.732926822842679 0.345829748764255 C 0.0 **** 0.0
26 C6183 0.902296236351418 0.719797245527267 0.359331193440928 C 0.0 **** 0.0
27 C6189 0.84462963155259 0.680556089670732 0.382321290593002 C 0.0 **** 0.0
28 C6190 0.829680197345488 0.680443594618985 0.373300541827541 C.Trigonal 0.0 **** 0.0
29 C6191 0.828382777827881 0.68917356444351 0.358252490955393 C.Trigonal 0.0 **** 0.0
30 C6192 0.842333809966201 0.697498845807627 0.351470755233273 C 0.0 **** 0.0
31 C6198 0.811711457559768 0.689716537270169 0.348882953048171 C 0.0 **** 0.0
32 C6199 0.79701972341415 0.681407994962282 0.356746562035522 C.Trigonal 0.0 **** 0.0
33 C6200 0.798494643962561 0.672428080135569 0.371224758239764 C.Trigonal 0.0 **** 0.0
34 C6201 0.814710833439815 0.670879627223537 0.380206346437952 C 0.0 **** 0.0
35 C6207 0.78327208748074 0.663572576762851 0.378885399303943 C 0.0 **** 0.0
36 C6208 0.770845304557621 0.657896616487956 0.364872388807084 C 0.0 **** 0.0
37 C6209 0.766606072324698 0.67261959288258 0.35327969253906 C.Trigonal 0.0 **** 0.0
38 C6210 0.77997711505291 0.683547477791247 0.348568860020316 C.Trigonal 0.0 **** 0.0
39 N6216 0.777540919627665 0.696485317400613 0.337977108563951 N 0.0 **** 0.0
40 C6217 0.762075957257783 0.698879387616883 0.331537472796273 C.Trigonal 0.0 **** 0.0
41 C6218 0.748007470409874 0.688830345310773 0.336182176338198 C.Trigonal 0.0 **** 0.0
42 C6219 0.750509981609561 0.675670814516797 0.347214891196231 C.Trigonal 0.0 **** 0.0
43 C6225 0.735892339105788 0.664309983682121 0.352651072060728 C 0.0 **** 0.0
44 C6226 0.718472499953701 0.671378072905407 0.347857623608847 C 0.0 **** 0.0
45 C6227 0.718659532006842 0.678689185039646 0.330004363393352 C 0.0 **** 0.0
46 C6228 0.730690645860613 0.693860849162195 0.329611850974949 C 0.0 **** 0.0
47 C6234 0.732261022304614 0.701869395994567 0.31181708057027 C 0.0 **** 0.0
48 C6235 0.745708520584901 0.715544781806999 0.311698466298696 C.Trigonal 0.0 **** 0.0
49 C6236 0.76063666305971 0.713069525378781 0.320949819366164 C.Trigonal 0.0 **** 0.0
50 C6241 0.773550915562421 0.725375969564356 0.320217310542166 C 0.0 **** 0.0
51 C6242 0.770978089997685 0.739861835705366 0.311128651665906 C 0.0 **** 0.0
52 C6243 0.75612581672094 0.742524454158598 0.302179593420778 C 0.0 **** 0.0
53 C6244 0.743598147808149 0.73011213774542 0.302182950366112 C 0.0 **** 0.0
54 C6250 0.837975336203171 0.637833650010719 0.472718857129483 C 0.0 **** 0.0
55 C6252 0.837665229161109 0.623484781103278 0.459696343547793 C 0.0 **** 0.0
56 C6254 0.869731136705196 0.631627355677659 0.490505836735565 C 0.0 **** 0.0
57 C6256 0.836354202337414 0.665465309415533 0.447554964674661 C 0.0 **** 0.0
58 C6258 0.897744608327075 0.655163974510075 0.486416546638182 C 0.0 **** 0.0
59 C6260 0.928276863468935 0.689649795785575 0.448018269273489 C 0.0 **** 0.0
60 C6262 0.932971585532385 0.693147774770261 0.412489439337359 C 0.0 **** 0.0
61 O6264 0.91721888437733 0.703961909289442 0.385311178734568 O 0.0 **** 0.0
62 C6266 0.886275353635732 0.7468184909208 0.353434354170804 C 0.0 **** 0.0
63 C6268 0.886731146014329 0.735020102164851 0.315659149081849 C 0.0 **** 0.0
64 O6270 0.841307908705672 0.705295812446058 0.335961812200139 O 0.0 **** 0.0
65 O6272 0.846608870762803 0.67112548796673 0.396748013448695 O 0.0 **** 0.0
66 O6274 0.81626012592886 0.662444708202171 0.392978100176403 O 0.0 **** 0.0
67 O6276 0.811069990834775 0.697018448113576 0.335357860882782 O 0.0 **** 0.0
68 C6278 0.727500948236522 0.732364474781362 0.292032812045911 C 0.0 **** 0.0
69 C6280 0.755092916632566 0.759229329423806 0.292971456764161 C 0.0 **** 0.0
70 H6282 0.85539445266209 0.685458461096583 0.434054004243267 H 0.0 **** 0.0
71 H6284 0.863118580797449 0.698812336592997 0.449731141448313 H 0.0 **** 0.0
72 H6286 0.892805649421541 0.694409831574347 0.469493133557536 H 0.0 **** 0.0
73 H6288 0.906682858270836 0.677243285689945 0.466625324159166 H 0.0 **** 0.0
74 H6290 0.857622852749127 0.692041791730823 0.411325508786706 H 0.0 **** 0.0
75 H6292 0.869019752526132 0.706177239113713 0.327014830723433 H 0.0 **** 0.0
76 H6294 0.862944011116872 0.725597073807345 0.336639210691334 H 0.0 **** 0.0
77 H6296 0.89804045567354 0.713115938943485 0.327145754261398 H 0.0 **** 0.0
78 H6298 0.909437178637854 0.738918167172 0.341354185858965 H 0.0 **** 0.0
79 H6300 0.907325841099861 0.72689439753735 0.370185688538849 H 0.0 **** 0.0
80 H6302 0.912516098823869 0.711763854757956 0.354353760706851 H 0.0 **** 0.0
81 H6304 0.786957116780823 0.652419871108347 0.386398031085548 H 0.0 **** 0.0
82 H6306 0.776818434322152 0.672252357552726 0.387677281919681 H 0.0 **** 0.0
83 H6308 0.75964116412643 0.652364868499448 0.370913380969374 H 0.0 **** 0.0
84 H6310 0.7766591668107 0.647590725543432 0.357448600812266 H 0.0 **** 0.0
85 H6312 0.737448260961005 0.651804815220522 0.346714821643198 H 0.0 **** 0.0
86 H6314 0.73612500646356 0.662270450061547 0.366422889786359 H 0.0 **** 0.0
87 H6316 0.714977859062345 0.681528974680795 0.356772891799825 H 0.0 **** 0.0
88 H6318 0.708756232108059 0.661479453704481 0.349213010132694 H 0.0 **** 0.0
89 H6320 0.705860367982096 0.682644849987196 0.326143923619529 H 0.0 **** 0.0
90 H6322 0.722782049796757 0.66899087445381 0.320872001000293 H 0.0 **** 0.0
91 H6324 0.725454405439831 0.703648801547815 0.338147392830162 H 0.0 **** 0.0
92 H6326 0.735389358929919 0.692042870891311 0.302401335863716 H 0.0 **** 0.0
93 H6328 0.719806480561352 0.70690671732492 0.308364437291963 H 0.0 **** 0.0
94 H6330 0.785334569802299 0.723732015391594 0.327395000473925 H 0.0 **** 0.0
95 H6332 0.780871119323778 0.749629844258107 0.310866860258134 H 0.0 **** 0.0
96 H6334 0.82607719362585 0.64503480069308 0.472300473653928 H 0.0 **** 0.0
97 H6336 0.838082217135204 0.632556442494173 0.485590902590082 H 0.0 **** 0.0
98 H6338 0.849381643956931 0.615991509539501 0.460253482508805 H 0.0 **** 0.0
99 H6340 0.836447122436318 0.628444597489331 0.446751849624925 H 0.0 **** 0.0
100 H6342 0.827050800453892 0.614768235419639 0.461870516855574 H 0.0 **** 0.0
101 H6344 0.867458288461088 0.63559584327996 0.503662129097732 H 0.0 **** 0.0
102 H6346 0.882371554168304 0.625863718076899 0.489856965710174 H 0.0 **** 0.0
103 H6348 0.861007105745523 0.62122149026574 0.487665558871744 H 0.0 **** 0.0
104 H6350 0.83896083585012 0.663875889055539 0.433958867187977 H 0.0 **** 0.0
105 H6352 0.8317098964487 0.678455077098515 0.449512316790022 H 0.0 **** 0.0
106 H6354 0.825744578687466 0.657042367851551 0.450366673467202 H 0.0 **** 0.0
107 H6356 0.901844983312231 0.667338556962231 0.491724247397941 H 0.0 **** 0.0
108 H6358 0.908035404910278 0.650249650963084 0.478405005446286 H 0.0 **** 0.0
109 H6360 0.896438756241889 0.646534321807925 0.497166985653747 H 0.0 **** 0.0
110 H6362 0.93825907478353 0.698375105324565 0.443839411491136 H 0.0 **** 0.0
111 H6364 0.933745701847391 0.676864774565126 0.448818139916405 H 0.0 **** 0.0
112 H6366 0.925234590808851 0.693836171720459 0.460895566879092 H 0.0 **** 0.0
113 H6368 0.934212150264431 0.686039031097858 0.400599573518575 H 0.0 **** 0.0
114 H6370 0.942151223307348 0.687080408910782 0.42093404413662 H 0.0 **** 0.0
115 H6372 0.937267663786615 0.70621956532178 0.410344573481116 H 0.0 **** 0.0
116 H6374 0.916444266739214 0.702803752962859 0.373415876853338 H 0.0 **** 0.0
117 H6376 0.8834890323648 0.7566094220545 0.343976641326628 H 0.0 **** 0.0
118 H6378 0.892639179458455 0.752890230725517 0.364201305667726 H 0.0 **** 0.0
119 H6380 0.874219583523345 0.741662346955628 0.35805392835507 H 0.0 **** 0.0
120 H6382 0.8816391429048 0.727750172089708 0.304952288258905 H 0.0 **** 0.0
121 H6384 0.898746570628267 0.740776325292227 0.311684509304661 H 0.0 **** 0.0
122 H6386 0.87774157929253 0.745207724507517 0.318628040839422 H 0.0 **** 0.0
123 H6388 0.829877937103029 0.704935298735609 0.332078358964899 H 0.0 **** 0.0
124 H6390 0.836353121411983 0.665188888350654 0.399079294067596 H 0.0 **** 0.0
125 H6392 0.728490052481318 0.742038844599338 0.282183402652298 H 0.0 **** 0.0
126 H6394 0.716829025600618 0.735898928104282 0.300256908120937 H 0.0 **** 0.0
127 H6396 0.724016478102829 0.720673181187384 0.285340959941535 H 0.0 **** 0.0
128 H6398 0.764777503431424 0.760004830790814 0.283000654912643 H 0.0 **** 0.0
129 H6400 0.757540175459702 0.769724870134767 0.301790306516671 H 0.0 **** 0.0
130 H6402 0.74285482030721 0.761791267204027 0.287084436669987 H 0.0 **** 0.0
@<TRIPOS>BOND
1 3 2 Aromatic
2 4 3 Aromatic
3 5 4 Aromatic
4 6 5 Aromatic
5 1 2 Aromatic
6 1 6 Aromatic
7 8 7 1
8 9 8 Aromatic
9 10 9 1
10 4 7 1
11 3 10 1
12 12 11 Aromatic
13 13 12 Aromatic
14 14 13 Aromatic
15 9 11 Aromatic
16 8 14 Aromatic
17 16 15 Aromatic
18 17 16 Aromatic
19 18 17 Aromatic
20 14 15 Aromatic
21 13 18 Aromatic
22 20 19 1
23 21 20 1
24 22 21 Aromatic
25 17 19 1
26 16 22 Aromatic
27 24 23 1
28 25 24 Aromatic
29 26 25 1
30 20 23 1
31 19 26 1
32 28 27 Aromatic
33 29 28 Aromatic
34 30 29 Aromatic
35 22 27 Aromatic
36 21 30 Aromatic
37 32 31 1
38 33 32 Aromatic
39 34 33 1
40 29 31 1
41 28 34 1
42 36 35 1
43 37 36 1
44 38 37 Aromatic
45 33 35 1
46 32 38 Aromatic
47 40 39 Aromatic
48 41 40 Aromatic
49 42 41 Aromatic
50 38 39 Aromatic
51 37 42 Aromatic
52 44 43 1
53 45 44 1
54 46 45 1
55 42 43 1
56 41 46 1
57 48 47 1
58 49 48 Aromatic
59 40 49 Aromatic
60 46 47 1
61 51 50 Aromatic
62 52 51 Aromatic
63 53 52 Aromatic
64 49 50 Aromatic
65 48 53 Aromatic
66 6 54 1
67 54 55 1
68 1 56 1
69 5 57 1
70 2 58 1
71 11 59 1
72 12 60 1
73 18 61 1
74 25 62 1
75 24 63 1
76 30 64 1
77 27 65 1
78 34 66 Double
79 31 67 Double
80 53 68 1
81 52 69 1
82 7 70 1
83 7 71 1
84 10 72 1
85 10 73 1
86 15 74 1
87 23 75 1
88 23 76 1
89 24 77 1
90 25 78 1
91 26 79 1
92 26 80 1
93 35 81 1
94 35 82 1
95 36 83 1
96 36 84 1
97 43 85 1
98 43 86 1
99 44 87 1
100 44 88 1
101 45 89 1
102 45 90 1
103 46 91 1
104 47 92 1
105 47 93 1
106 50 94 1
107 51 95 1
108 54 96 1
109 54 97 1
110 55 98 1
111 55 99 1
112 55 100 1
113 56 101 1
114 56 102 1
115 56 103 1
116 57 104 1
117 57 105 1
118 57 106 1
119 58 107 1
120 58 108 1
121 58 109 1
122 59 110 1
123 59 111 1
124 59 112 1
125 60 113 1
126 60 114 1
127 60 115 1
128 61 116 1
129 62 117 1
130 62 118 1
131 62 119 1
132 63 120 1
133 63 121 1
134 63 122 1
135 64 123 1
136 65 124 1
137 68 125 1
138 68 126 1
139 68 127 1
140 69 128 1
141 69 129 1
142 69 130 1
@<TRIPOS>MOLECULE
Sketch 4
130 142
SMALL
USER_CHARGES


@<TRIPOS>ATOM
1 C6404 0.691871720990455 0.0661071204948244 0.138937629783714 C.Trigonal 0.0 **** 0.0
2 C6405 0.684885490317223 0.0800101257994861 0.130931829560784 C 0.0 **** 0.0
3 C6406 0.669792158600384 0.086831855877238 0.136707963635973 C.Trigonal 0.0 **** 0.0
4 C6407 0.66091124579344 0.078882240341799 0.149338332070935 C.Trigonal 0.0 **** 0.0
5 C6408 0.667674847120142 0.0647168134921109 0.157135782068466 C 0.0 **** 0.0
6 C6409 0.6836077859094 0.0589611283472205 0.152593363777216 C 0.0 **** 0.0
7 C6416 0.643667710193704 0.0854559008909448 0.154704275684281 C 0.0 **** 0.0
8 C6417 0.637903966965299 0.102468628189007 0.147813934903053 C.Trigonal 0.0 **** 0.0
9 C6418 0.64710503812499 0.110717573360136 0.135675163997892 C.Trigonal 0.0 **** 0.0
10 C6419 0.663172753703646 0.102894487155242 0.128508834243128 C 0.0 **** 0.0
11 C6425 0.642218129621448 0.12663567092836 0.129925814076432 C 0.0 **** 0.0
12 C6426 0.627911026898237 0.134600045598433 0.136124596280267 C 0.0 **** 0.0
13 C6427 0.616973128513939 0.125297973459247 0.146484759842205 C.Trigonal 0.0 **** 0.0
14 C6428 0.622598189710929 0.109667670329349 0.153207002477446 C.Trigonal 0.0 **** 0.0
15 C6434 0.611901610092488 0.100968107903442 0.164167946272854 C 0.0 **** 0.0
16 C6435 0.594408052777279 0.103966753562613 0.164716581324684 C.Trigonal 0.0 **** 0.0
17 C6436 0.588608702168101 0.119100029086639 0.157024869033885 C.Trigonal 0.0 **** 0.0
18 C6437 0.599852245702789 0.130185477359792 0.149357740974741 C 0.0 **** 0.0
19 C6443 0.569947225857497 0.123181634063245 0.158475944231069 C.Trigonal 0.0 **** 0.0
20 C6444 0.560121371432004 0.114982678002396 0.170000589556228 C.Trigonal 0.0 **** 0.0
21 C6445 0.566926428709094 0.099155383378771 0.178725699373503 C.Trigonal 0.0 **** 0.0
22 C6446 0.58281027350796 0.0930277520885421 0.173374057363708 C.Trigonal 0.0 **** 0.0
23 C6452 0.541161509091343 0.118670196331777 0.171646963892026 C 0.0 **** 0.0
24 C6453 0.53500442497125 0.133645600613229 0.160872217104393 C 0.0 **** 0.0
25 C6454 0.543441688593187 0.132664783917334 0.14340843199366 C 0.0 **** 0.0
26 C6455 0.562541588979474 0.135380977397133 0.145445225021021 C 0.0 **** 0.0
27 C6461 0.587218851594979 0.0761677819208931 0.177654706392348 C 0.0 **** 0.0
28 C6462 0.577639309480377 0.0673552401153057 0.189298577561062 C.Trigonal 0.0 **** 0.0
29 C6463 0.563443987882983 0.0745237222795836 0.196474786608348 C.Trigonal 0.0 **** 0.0
30 C6464 0.557976706697752 0.0904363284573558 0.191288957393265 C 0.0 **** 0.0
31 C6470 0.553017860517462 0.0646280497573623 0.209169045692907 C 0.0 **** 0.0
32 C6471 0.558179210784619 0.0470406416864982 0.212954675073203 C.Trigonal 0.0 **** 0.0
33 C6472 0.572081452975714 0.0401563070724952 0.205710516363938 C.Trigonal 0.0 **** 0.0
34 C6473 0.582737100479264 0.0495901067695294 0.193825068432715 C 0.0 **** 0.0
35 C6479 0.577626565022335 0.0222045387594356 0.209554203089019 C 0.0 **** 0.0
36 C6480 0.562174959780512 0.0109840048913569 0.213423660255286 C 0.0 **** 0.0
37 C6481 0.550771743572244 0.0191532297933447 0.226532892851357 C.Trigonal 0.0 **** 0.0
38 C6482 0.547953018030184 0.0368242296426222 0.225425424880275 C.Trigonal 0.0 **** 0.0
39 N6488 0.536759113534154 0.0445781826085181 0.235446233345904 N 0.0 **** 0.0
40 C6489 0.528371129371554 0.0353121596009466 0.246923727225502 C.Trigonal 0.0 **** 0.0
41 C6490 0.531913730832208 0.0180196276231156 0.249829958143366 C.Trigonal 0.0 **** 0.0
42 C6491 0.54305458336091 0.00998630137425289 0.239232138031135 C.Trigonal 0.0 **** 0.0
43 C6497 0.546804001019426 -0.00883685954294967 0.241149280590686 C 0.0 **** 0.0
44 C6498 0.541429968526684 -0.0159205140805523 0.258368861484411 C 0.0 **** 0.0
45 C6499 0.523743296637121 -0.00978338973963464 0.262903367737617 C 0.0 **** 0.0
46 C6500 0.523892172085706 0.00946701304687233 0.265037465321772 C 0.0 **** 0.0
47 C6506 0.505923402193679 0.0164986916914518 0.268441477801273 C 0.0 **** 0.0
48 C6507 0.50523357399841 0.0356172518088452 0.267118946299334 C.Trigonal 0.0 **** 0.0
49 C6508 0.516262173938362 0.044340529273756 0.256290599817803 C.Trigonal 0.0 **** 0.0
50 C6513 0.514849796712204 0.0620924959519559 0.254810787977398 C 0.0 **** 0.0
51 C6514 0.502869488018359 0.0705877397852936 0.263971106334142 C 0.0 **** 0.0
52 C6515 0.491848479816758 0.0620273216125831 0.274523630199738 C 0.0 **** 0.0
53 C6516 0.492910329017503 0.04446721646761 0.275867844678471 C 0.0 **** 0.0
54 C6522 0.691713749018764 0.0446232231567421 0.162443217640968 C 0.0 **** 0.0
55 C6524 0.688248937943315 0.0276301426300489 0.153916528104993 C 0.0 **** 0.0
56 C6526 0.708396116541434 0.0589958428298222 0.132300489182446 C 0.0 **** 0.0
57 C6528 0.657859964476558 0.0554583003241375 0.170775055040284 C 0.0 **** 0.0
58 C6530 0.693396400281763 0.0878912831997976 0.115644600142133 C 0.0 **** 0.0
59 C6532 0.653128987411688 0.135657152654901 0.116897474909146 C 0.0 **** 0.0
60 C6534 0.624340004107945 0.152480910042845 0.130202690122314 C 0.0 **** 0.0
61 O6536 0.59464669777564 0.145727729841189 0.143739122965099 O 0.0 **** 0.0
62 C6538 0.535892222381754 0.145711780479582 0.131117066812133 C 0.0 **** 0.0
63 C6540 0.538552817008198 0.15048202795257 0.17005739973548 C 0.0 **** 0.0
64 O6542 0.543610975844492 0.0976355966466819 0.197824761957808 O 0.0 **** 0.0
65 O6544 0.600916022610112 0.0688370395627665 0.169958338774955 O 0.0 **** 0.0
66 O6546 0.595408465093226 0.0434220310526918 0.187644647804175 O 0.0 **** 0.0
67 O6548 0.540774952203915 0.0714934332074953 0.215440750651165 O 0.0 **** 0.0
68 C6550 0.480410690823353 0.0353256624213431 0.287168762203176 C 0.0 **** 0.0
69 C6552 0.478808519911152 0.0722132801347887 0.284106560634368 C 0.0 **** 0.0
70 H6554 0.634093576033155 0.0758991770655913 0.151261905769782 H 0.0 **** 0.0
71 H6556 0.643597104805524 0.0862720112438636 0.168597799769687 H 0.0 **** 0.0
72 H6558 0.673236136175779 0.112511630653671 0.129482969631829 H 0.0 **** 0.0
73 H6560 0.66126218878794 0.10040646934958 0.114920184160954 H 0.0 **** 0.0
74 H6562 0.617258951548159 0.0901772402872184 0.170905519504036 H 0.0 **** 0.0
75 H6564 0.534019664421801 0.107323355046896 0.167876941397378 H 0.0 **** 0.0
76 H6566 0.537651640730402 0.121543239972321 0.184769160233842 H 0.0 **** 0.0
77 H6568 0.521227036180112 0.132476060367753 0.159278794302928 H 0.0 **** 0.0
78 H6570 0.541250520265348 0.11996334864235 0.138127373298202 H 0.0 **** 0.0
79 H6572 0.564734474423532 0.148599768590807 0.149136710287327 H 0.0 **** 0.0
80 H6574 0.568392094464746 0.133385719902317 0.132938473152075 H 0.0 **** 0.0
81 H6576 0.584679951175803 0.0164360940176666 0.19896926590536 H 0.0 **** 0.0
82 H6578 0.586277092046125 0.0222159281365702 0.220429377879919 H 0.0 **** 0.0
83 H6580 0.566686107849841 -0.0015689041985848 0.217178592037345 H 0.0 **** 0.0
84 H6582 0.555032737487011 0.00901680066040468 0.201627620490081 H 0.0 **** 0.0
85 H6584 0.540132444032415 -0.0158522341282946 0.231119030260741 H 0.0 **** 0.0
86 H6586 0.560367396404263 -0.0114140934234616 0.239495064282299 H 0.0 **** 0.0
87 H6588 0.550378641329713 -0.0116807941680023 0.268194717284304 H 0.0 **** 0.0
88 H6590 0.542046786794718 -0.0298453484676065 0.258207207486436 H 0.0 **** 0.0
89 H6592 0.51920002151835 -0.0158358569674489 0.274610243098594 H 0.0 **** 0.0
90 H6594 0.51480954744139 -0.0134278208527812 0.252840700187757 H 0.0 **** 0.0
91 H6596 0.531754902584564 0.0124466819767809 0.27622630115699 H 0.0 **** 0.0
92 H6598 0.497047266797886 0.0109283135656057 0.259288015135031 H 0.0 **** 0.0
93 H6600 0.501939181529665 0.0120721051337223 0.28101044174363 H 0.0 **** 0.0
94 H6602 0.523326508951844 0.0691125474531981 0.24632693236126 H 0.0 **** 0.0
95 H6604 0.501942794207238 0.0843828864841642 0.26287002005048 H 0.0 **** 0.0
96 H6606 0.687061140399274 0.0442009502843562 0.175548723118226 H 0.0 **** 0.0
97 H6608 0.705419192231587 0.0466256304831622 0.163798038475381 H 0.0 **** 0.0
98 H6610 0.69238562513752 0.0275894228214336 0.140636687068045 H 0.0 **** 0.0
99 H6612 0.674658283023875 0.024764599153429 0.154156580218903 H 0.0 **** 0.0
100 H6614 0.694825540217225 0.0172333136366781 0.16038603780033 H 0.0 **** 0.0
101 H6616 0.706967287516321 0.0549870355972571 0.119024956896247 H 0.0 **** 0.0
102 H6618 0.713006051063598 0.0478847066091348 0.139150135022143 H 0.0 **** 0.0
103 H6620 0.718590635096808 0.0684575381001985 0.132714206747852 H 0.0 **** 0.0
104 H6622 0.644577068604684 0.059310365394902 0.171680153497041 H 0.0 **** 0.0
105 H6624 0.663542368194757 0.0574053012225388 0.183300988464211 H 0.0 **** 0.0
106 H6626 0.657608917494487 0.0417576748214878 0.168380008799784 H 0.0 **** 0.0
107 H6628 0.693728916526345 0.101764243529523 0.116410946434116 H 0.0 **** 0.0
108 H6630 0.68656786395825 0.0845356665042418 0.103966434562538 H 0.0 **** 0.0
109 H6632 0.706556410446738 0.0839172279943716 0.113908031382175 H 0.0 **** 0.0
110 H6634 0.661628410483372 0.144819141154174 0.123028090506729 H 0.0 **** 0.0
111 H6636 0.645419652666097 0.142538765415 0.107603582084439 H 0.0 **** 0.0
112 H6638 0.661002165677454 0.127086980064022 0.109356715929129 H 0.0 **** 0.0
113 H6640 0.615068352342405 0.152632383849187 0.119816824935506 H 0.0 **** 0.0
114 H6642 0.635675773294742 0.159158384090434 0.125807271714107 H 0.0 **** 0.0
115 H6644 0.619520951486387 0.160422275445059 0.140553225817803 H 0.0 **** 0.0
116 H6646 0.584110912955927 0.147963971330968 0.148930949014557 H 0.0 **** 0.0
117 H6648 0.522016296704909 0.144958042187523 0.131123235583499 H 0.0 **** 0.0
118 H6650 0.540327634341168 0.143220662834061 0.118181538698013 H 0.0 **** 0.0
119 H6652 0.539558492747509 0.158649954907294 0.134632001046705 H 0.0 **** 0.0
120 H6654 0.531438779211819 0.15100086614402 0.181986105816006 H 0.0 **** 0.0
121 H6656 0.534649739652711 0.161294917093506 0.162270332632215 H 0.0 **** 0.0
122 H6658 0.552038668101969 0.151847714947618 0.173066479430928 H 0.0 **** 0.0
123 H6660 0.538338021339902 0.0902131323461378 0.205776879352551 H 0.0 **** 0.0
124 H6662 0.603270946123392 0.0582577271829868 0.175289696981492 H 0.0 **** 0.0
125 H6664 0.477249750953785 0.0226689074729817 0.282416787741138 H 0.0 **** 0.0
126 H6666 0.468309448778842 0.0420756620502021 0.288132137484727 H 0.0 **** 0.0
127 H6668 0.485463879803999 0.0338600833031981 0.300070685508454 H 0.0 **** 0.0
128 H6670 0.466140820386677 0.0706754038533126 0.27854099659752 H 0.0 **** 0.0
129 H6672 0.481783019884558 0.0857709737681497 0.28395187717252 H 0.0 **** 0.0
130 H6674 0.478134692397018 0.0684220607325221 0.297473213538493 H 0.0 **** 0.0
@<TRIPOS>BOND
1 3 2 Aromatic
2 4 3 Aromatic
3 5 4 Aromatic
4 6 5 Aromatic
5 1 2 Aromatic
6 1 6 Aromatic
7 8 7 1
8 9 8 Aromatic
9 10 9 1
10 4 7 1
11 3 10 1
12 12 11 Aromatic
13 13 12 Aromatic
14 14 13 Aromatic
15 9 11 Aromatic
16 8 14 Aromatic
17 16 15 Aromatic
18 17 16 Aromatic
19 18 17 Aromatic
20 14 15 Aromatic
21 13 18 Aromatic
22 20 19 1
23 21 20 1
24 22 21 Aromatic
25 17 19 1
26 16 22 Aromatic
27 24 23 1
28 25 24 Aromatic
29 26 25 1
30 20 23 1
31 19 26 1
32 28 27 Aromatic
33 29 28 Aromatic
34 30 29 Aromatic
35 22 27 Aromatic
36 21 30 Aromatic
37 32 31 1
38 33 32 Aromatic
39 34 33 1
40 29 31 1
41 28 34 1
42 36 35 1
43 37 36 1
44 38 37 Aromatic
45 33 35 1
46 32 38 Aromatic
47 40 39 Aromatic
48 41 40 Aromatic
49 42 41 Aromatic
50 38 39 Aromatic
51 37 42 Aromatic
52 44 43 1
53 45 44 1
54 46 45 1
55 42 43 1
56 41 46 1
57 48 47 1
58 49 48 Aromatic
59 40 49 Aromatic
60 46 47 1
61 51 50 Aromatic
62 52 51 Aromatic
63 53 52 Aromatic
64 49 50 Aromatic
65 48 53 Aromatic
66 6 54 1
67 54 55 1
68 1 56 1
69 5 57 1
70 2 58 1
71 11 59 1
72 12 60 1
73 18 61 1
74 25 62 1
75 24 63 1
76 30 64 1
77 27 65 1
78 34 66 Double
79 31 67 Double
80 53 68 1
81 52 69 1
82 7 70 1
83 7 71 1
84 10 72 1
85 10 73 1
86 15 74 1
87 23 75 1
88 23 76 1
89 24 77 1
90 25 78 1
91 26 79 1
92 26 80 1
93 35 81 1
94 35 82 1
95 36 83 1
96 36 84 1
97 43 85 1
98 43 86 1
99 44 87 1
100 44 88 1
101 45 89 1
102 45 90 1
103 46 91 1
104 47 92 1
105 47 93 1
106 50 94 1
107 51 95 1
108 54 96 1
109 54 97 1
110 55 98 1
111 55 99 1
112 55 100 1
113 56 101 1
114 56 102 1
115 56 103 1
116 57 104 1
117 57 105 1
118 57 106 1
119 58 107 1
120 58 108 1
121 58 109 1
122 59 110 1
123 59 111 1
124 59 112 1
125 60 113 1
126 60 114 1
127 60 115 1
128 61 116 1
129 62 117 1
130 62 118 1
131 62 119 1
132 63 120 1
133 63 121 1
134 63 122 1
135 64 123 1
136 65 124 1
137 68 125 1
138 68 126 1
139 68 127 1
140 69 128 1
141 69 129 1
142 69 130 1
@<TRIPOS>MOLECULE
Sketch 4
130 142
SMALL
USER_CHARGES


@<TRIPOS>ATOM
1 C6676 0.489589831543814 0.892062355936118 0.443722756611402 C.Trigonal 0.0 **** 0.0
2 C6677 0.496313174684757 0.904569030259236 0.453964735203101 C 0.0 **** 0.0
3 C6678 0.489267170291755 0.92062498172231 0.453852462592233 C.Trigonal 0.0 **** 0.0
4 C6679 0.474619653831409 0.923654959151902 0.444988278206889 C.Trigonal 0.0 **** 0.0
5 C6680 0.467037293712031 0.910737103837669 0.435901231009888 C 0.0 **** 0.0
6 C6681 0.474854568042171 0.895104945858525 0.434793875578503 C 0.0 **** 0.0
7 C6688 0.466550923970903 0.941099727468219 0.445273757398978 C 0.0 **** 0.0
8 C6689 0.477267169026478 0.95579158858162 0.451475448158921 C.Trigonal 0.0 **** 0.0
9 C6690 0.492036624087298 0.952886604869514 0.460038447342805 C.Trigonal 0.0 **** 0.0
10 C6691 0.497745568383662 0.934804397734749 0.463693090421173 C 0.0 **** 0.0
11 C6697 0.501931155073677 0.966308169633214 0.465713535003614 C 0.0 **** 0.0
12 C6698 0.497983729129804 0.982901555312694 0.461769785124916 C 0.0 **** 0.0
13 C6699 0.482776479402378 0.986211548348411 0.453273042905453 C.Trigonal 0.0 **** 0.0
14 C6700 0.471984494305811 0.972552315193378 0.448949740864406 C.Trigonal 0.0 **** 0.0
15 C6706 0.456428989509178 0.976156719839308 0.441176087089337 C 0.0 **** 0.0
16 C6707 0.453514701694668 0.991417344743435 0.432861145045898 C.Trigonal 0.0 **** 0.0
17 C6708 0.462880579406109 1.00522904312954 0.439237500091868 C.Trigonal 0.0 **** 0.0
18 C6709 0.477513881644552 1.00282930548719 0.448731214764598 C 0.0 **** 0.0
19 C6715 0.457426456060852 1.02266452072677 0.433838648840819 C.Trigonal 0.0 **** 0.0
20 C6716 0.448373598487728 1.02481725522546 0.419415068482532 C.Trigonal 0.0 **** 0.0
21 C6717 0.443021039886075 1.00931639785157 0.409180106590824 C.Trigonal 0.0 **** 0.0
22 C6718 0.444858591779333 0.993162131448552 0.416769827988212 C.Trigonal 0.0 **** 0.0
23 C6724 0.442188240312521 1.04238680620618 0.413998633099401 C 0.0 **** 0.0
24 C6725 0.448023491674366 1.05677068066674 0.42576712181742 C 0.0 **** 0.0
25 C6726 0.447708179000698 1.05125314596755 0.444396970978517 C 0.0 **** 0.0
26 C6727 0.460753058491796 1.03700856602563 0.446307299305159 C 0.0 **** 0.0
27 C6733 0.439818591474275 0.978787079222251 0.407154903617206 C 0.0 **** 0.0
28 C6734 0.433835142424481 0.980658031779071 0.390850838247809 C.Trigonal 0.0 **** 0.0
29 C6735 0.432964825144632 0.996341441983608 0.383374396387368 C.Trigonal 0.0 **** 0.0
30 C6736 0.437060680738032 1.0107212790173 0.392592606045246 C 0.0 **** 0.0
31 C6742 0.42777492666197 0.998032892419858 0.364954872826007 C 0.0 **** 0.0
32 C6743 0.423092207100605 0.982549381627215 0.355592691472067 C.Trigonal 0.0 **** 0.0
33 C6744 0.422984763401738 0.967314330210241 0.363417067905013 C.Trigonal 0.0 **** 0.0
34 C6745 0.428320362286846 0.965237769349197 0.381092489248303 C 0.0 **** 0.0
35 C6751 0.417196422660603 0.951311401594322 0.354548240888868 C 0.0 **** 0.0
36 C6752 0.420611844237353 0.952201225643083 0.335364227484099 C 0.0 **** 0.0
37 C6753 0.415282188313942 0.96901496617826 0.327724006379501 C.Trigonal 0.0 **** 0.0
38 C6754 0.417938719700318 0.98401265848155 0.337216776780053 C.Trigonal 0.0 **** 0.0
39 N6760 0.416148574151076 0.99928450114774 0.330061178841318 N 0.0 **** 0.0
40 C6761 0.411372235647188 1.0000948079443 0.313825601572133 C.Trigonal 0.0 **** 0.0
41 C6762 0.406198230198116 0.98570571822602 0.304547687997075 C.Trigonal 0.0 **** 0.0
42 C6763 0.408379627079454 0.970078517627398 0.311699840553475 C.Trigonal 0.0 **** 0.0
43 C6769 0.403661799382093 0.95410510898666 0.302037959457165 C 0.0 **** 0.0
44 C6770 0.390879538773071 0.957765251963821 0.287953394845147 C 0.0 **** 0.0
45 C6771 0.39717563148711 0.972306310998558 0.277039978263498 C 0.0 **** 0.0
46 C6772 0.398257622289739 0.988649801462016 0.287333378960206 C 0.0 **** 0.0
47 C6778 0.408107032248248 1.00251756535152 0.277653738006455 C 0.0 **** 0.0
48 C6779 0.41146228057697 1.01781450048958 0.288749553622659 C.Trigonal 0.0 **** 0.0
49 C6780 0.412254508754543 1.01629126553282 0.30642830478385 C.Trigonal 0.0 **** 0.0
50 C6785 0.415826705924 1.03075115060561 0.316272874738979 C 0.0 **** 0.0
51 C6786 0.419344455354268 1.0458381848465 0.308511590265848 C 0.0 **** 0.0
52 C6787 0.419407833808489 1.0471905889877 0.29105627513323 C 0.0 **** 0.0
53 C6788 0.415685605782904 1.03304366076053 0.281201734625268 C 0.0 **** 0.0
54 C6794 0.46722915278644 0.881278218880769 0.423856717664836 C 0.0 **** 0.0
55 C6796 0.474125736095602 0.882331143893319 0.405776241835201 C 0.0 **** 0.0
56 C6798 0.498131638069949 0.874981864770796 0.442135525735682 C 0.0 **** 0.0
57 C6800 0.450406204144963 0.91359518969622 0.426801104447773 C 0.0 **** 0.0
58 C6802 0.511479620996717 0.900631571755234 0.465017657050808 C 0.0 **** 0.0
59 C6804 0.517665141824819 0.962454793836131 0.476115966418046 C 0.0 **** 0.0
60 C6806 0.510419043849816 0.996582948938554 0.466934395791371 C 0.0 **** 0.0
61 O6808 0.487350811186372 1.01632288936502 0.453322255625704 O 0.0 **** 0.0
62 C6810 0.43007738286471 1.04561638838273 0.450492133181088 C 0.0 **** 0.0
63 C6812 0.437349141036686 1.07273349837288 0.422803845794677 C 0.0 **** 0.0
64 O6814 0.435433102512136 1.02649569257077 0.385434962147206 O 0.0 **** 0.0
65 O6816 0.441555901718728 0.962912632211213 0.413837851600454 O 0.0 **** 0.0
66 O6818 0.428130498415561 0.951461654807049 0.3879212723371 O 0.0 **** 0.0
67 O6820 0.428006136086553 1.01204404199511 0.3586217877509 O 0.0 **** 0.0
68 C6822 0.41645186795583 1.03464470164977 0.262120726814916 C 0.0 **** 0.0
69 C6824 0.423889624638266 1.0640488212148 0.283226283273076 C 0.0 **** 0.0
70 H6826 0.462878620808686 0.944113314962986 0.432178598360048 H 0.0 **** 0.0
71 H6828 0.454802982860314 0.940545617146672 0.452809840817304 H 0.0 **** 0.0
72 H6830 0.496270177147186 0.932245986779243 0.477321878486783 H 0.0 **** 0.0
73 H6832 0.511378907750602 0.93411252422997 0.460882262181812 H 0.0 **** 0.0
74 H6834 0.448083044399984 0.965337783058443 0.439239640318296 H 0.0 **** 0.0
75 H6836 0.447129572974334 1.0457013366018 0.401440405178834 H 0.0 **** 0.0
76 H6838 0.428277908504753 1.04237085790243 0.413268187686098 H 0.0 **** 0.0
77 H6840 0.461200147994981 1.05990348685005 0.422485238327103 H 0.0 **** 0.0
78 H6842 0.451795515779301 1.06196682318722 0.45230370422959 H 0.0 **** 0.0
79 H6844 0.460361467581696 1.0325024434393 0.459507714781575 H 0.0 **** 0.0
80 H6846 0.473348558634222 1.04248448206185 0.444094067544187 H 0.0 **** 0.0
81 H6848 0.423585550957385 0.939935493675247 0.359541818662008 H 0.0 **** 0.0
82 H6850 0.403591655198882 0.949360166536508 0.356828323421322 H 0.0 **** 0.0
83 H6852 0.414475922490263 0.941289263586456 0.329384644203599 H 0.0 **** 0.0
84 H6854 0.434306380515076 0.950453872384753 0.333180381565399 H 0.0 **** 0.0
85 H6856 0.415137974130314 0.948418786622348 0.296480052610579 H 0.0 **** 0.0
86 H6858 0.398089921964163 0.944576969892898 0.310499175420046 H 0.0 **** 0.0
87 H6860 0.378539848111729 0.961111976696606 0.293518007958722 H 0.0 **** 0.0
88 H6862 0.388825032512945 0.946356061963786 0.280233784375214 H 0.0 **** 0.0
89 H6864 0.388783458467306 0.974225876395142 0.266109405173755 H 0.0 **** 0.0
90 H6866 0.409748121013524 0.969020403540293 0.271961308086936 H 0.0 **** 0.0
91 H6868 0.385224118896515 0.993251363170541 0.289434970293866 H 0.0 **** 0.0
92 H6870 0.42025070203135 0.997274681928188 0.273183085768346 H 0.0 **** 0.0
93 H6872 0.400765813084676 1.00596151989339 0.266335310000903 H 0.0 **** 0.0
94 H6874 0.416565682687496 1.02976962959882 0.330124967225241 H 0.0 **** 0.0
95 H6876 0.422396521345371 1.0569340723799 0.316278960720734 H 0.0 **** 0.0
96 H6878 0.453380187440029 0.882192972643206 0.423465569184993 H 0.0 **** 0.0
97 H6880 0.469709209400949 0.868633017122705 0.429088478410186 H 0.0 **** 0.0
98 H6882 0.471267399160492 0.894670638180979 0.400021858530042 H 0.0 **** 0.0
99 H6884 0.468506555222012 0.87252229687582 0.397665358020782 H 0.0 **** 0.0
100 H6886 0.487920826787434 0.880623267821667 0.405474055915903 H 0.0 **** 0.0
101 H6888 0.501324522093083 0.872151506076276 0.428893421153199 H 0.0 **** 0.0
102 H6890 0.489867456018615 0.86474728149806 0.446585109770583 H 0.0 **** 0.0
103 H6892 0.509998225344367 0.874005531715331 0.449201755733934 H 0.0 **** 0.0
104 H6894 0.451926825598057 0.912525834617857 0.413005806981124 H 0.0 **** 0.0
105 H6896 0.444726424627092 0.925986499343215 0.429232495768409 H 0.0 **** 0.0
106 H6898 0.440863782911669 0.904291727635476 0.430826453429226 H 0.0 **** 0.0
107 H6900 0.509283477870349 0.889109327979645 0.472482868854242 H 0.0 **** 0.0
108 H6902 0.514384386423173 0.910550154414415 0.474250727951695 H 0.0 **** 0.0
109 H6904 0.522962003385682 0.89856609188437 0.457477092050066 H 0.0 **** 0.0
110 H6906 0.518869801190393 0.971108225329122 0.486947937345908 H 0.0 **** 0.0
111 H6908 0.529187361630168 0.963489861815657 0.468366352219496 H 0.0 **** 0.0
112 H6910 0.517618964537821 0.949786028215547 0.481749730893022 H 0.0 **** 0.0
113 H6912 0.514063017094007 1.0044244316072 0.456025787316899 H 0.0 **** 0.0
114 H6914 0.522420436701387 0.991813522859633 0.471926850222789 H 0.0 **** 0.0
115 H6916 0.505024740829993 1.00487957200921 0.476732744455057 H 0.0 **** 0.0
116 H6918 0.483637614416517 1.02574061865036 0.446950059222303 H 0.0 **** 0.0
117 H6920 0.421076736493484 1.05618230936061 0.449939011438569 H 0.0 **** 0.0
118 H6922 0.43078802982771 1.04139660812655 0.463691860415178 H 0.0 **** 0.0
119 H6924 0.425090848261413 1.035126715682 0.442865279688376 H 0.0 **** 0.0
120 H6926 0.438146079769549 1.07670644421651 0.409497790105028 H 0.0 **** 0.0
121 H6928 0.441921052456243 1.08318743017986 0.430750228278517 H 0.0 **** 0.0
122 H6930 0.42405592936433 1.07035400975142 0.425892269728478 H 0.0 **** 0.0
123 H6932 0.431784157078367 1.02521018459226 0.373974694734019 H 0.0 **** 0.0
124 H6934 0.435450344278192 0.955016233252818 0.407027953155947 H 0.0 **** 0.0
125 H6936 0.425922858637581 1.04394199020385 0.258047299299418 H 0.0 **** 0.0
126 H6938 0.404233649282779 1.03867620964162 0.256950204129579 H 0.0 **** 0.0
127 H6940 0.419898476459648 1.02274502779391 0.255847160668518 H 0.0 **** 0.0
128 H6942 0.436613862469979 1.06373370722143 0.277575242886776 H 0.0 **** 0.0
129 H6944 0.423820964603621 1.07424624322241 0.292640577190185 H 0.0 **** 0.0
130 H6946 0.414884977824597 1.06765968715762 0.273263792903275 H 0.0 **** 0.0
@<TRIPOS>BOND
1 3 2 Aromatic
2 4 3 Aromatic
3 5 4 Aromatic
4 6 5 Aromatic
5 1 2 Aromatic
6 1 6 Aromatic
7 8 7 1
8 9 8 Aromatic
9 10 9 1
10 4 7 1
11 3 10 1
12 12 11 Aromatic
13 13 12 Aromatic
14 14 13 Aromatic
15 9 11 Aromatic
16 8 14 Aromatic
17 16 15 Aromatic
18 17 16 Aromatic
19 18 17 Aromatic
20 14 15 Aromatic
21 13 18 Aromatic
22 20 19 1
23 21 20 1
24 22 21 Aromatic
25 17 19 1
26 16 22 Aromatic
27 24 23 1
28 25 24 Aromatic
29 26 25 1
30 20 23 1
31 19 26 1
32 28 27 Aromatic
33 29 28 Aromatic
34 30 29 Aromatic
35 22 27 Aromatic
36 21 30 Aromatic
37 32 31 1
38 33 32 Aromatic
39 34 33 1
40 29 31 1
41 28 34 1
42 36 35 1
43 37 36 1
44 38 37 Aromatic
45 33 35 1
46 32 38 Aromatic
47 40 39 Aromatic
48 41 40 Aromatic
49 42 41 Aromatic
50 38 39 Aromatic
51 37 42 Aromatic
52 44 43 1
53 45 44 1
54 46 45 1
55 42 43 1
56 41 46 1
57 48 47 1
58 49 48 Aromatic
59 40 49 Aromatic
60 46 47 1
61 51 50 Aromatic
62 52 51 Aromatic
63 53 52 Aromatic
64 49 50 Aromatic
65 48 53 Aromatic
66 6 54 1
67 54 55 1
68 1 56 1
69 5 57 1
70 2 58 1
71 11 59 1
72 12 60 1
73 18 61 1
74 25 62 1
75 24 63 1
76 30 64 1
77 27 65 1
78 34 66 Double
79 31 67 Double
80 53 68 1
81 52 69 1
82 7 70 1
83 7 71 1
84 10 72 1
85 10 73 1
86 15 74 1
87 23 75 1
88 23 76 1
89 24 77 1
90 25 78 1
91 26 79 1
92 26 80 1
93 35 81 1
94 35 82 1
95 36 83 1
96 36 84 1
97 43 85 1
98 43 86 1
99 44 87 1
100 44 88 1
101 45 89 1
102 45 90 1
103 46 91 1
104 47 92 1
105 47 93 1
106 50 94 1
107 51 95 1
108 54 96 1
109 54 97 1
110 55 98 1
111 55 99 1
112 55 100 1
113 56 101 1
114 56 102 1
115 56 103 1
116 57 104 1
117 57 105 1
118 57 106 1
119 58 107 1
120 58 108 1
121 58 109 1
122 59 110 1
123 59 111 1
124 59 112 1
125 60 113 1
126 60 114 1
127 60 115 1
128 61 116 1
129 62 117 1
130 62 118 1
131 62 119 1
132 63 120 1
133 63 121 1
134 63 122 1
135 64 123 1
136 65 124 1
137 68 125 1
138 68 126 1
139 68 127 1
140 69 128 1
141 69 129 1
142 69 130 1
@<TRIPOS>MOLECULE
Sketch 4
130 142
SMALL
USER_CHARGES


@<TRIPOS>ATOM
1 C6948 0.500434659961218 0.403698619080768 0.325410841662206 C.Trigonal 0.0 **** 0.0
2 C6949 0.487595714945958 0.391743475312111 0.325808605992641 C 0.0 **** 0.0
3 C6950 0.478072382840073 0.389499119599559 0.340344511072718 C.Trigonal 0.0 **** 0.0
4 C6951 0.482024430880168 0.398512217436011 0.354652767793031 C.Trigonal 0.0 **** 0.0
5 C6952 0.495396641105901 0.409846800366212 0.354590935032993 C 0.0 **** 0.0
6 C6953 0.504126864567468 0.413026029447963 0.339748432045487 C 0.0 **** 0.0
7 C6960 0.471795260437372 0.396140061133143 0.37069414268794 C 0.0 **** 0.0
8 C6961 0.454529548416145 0.387882620108733 0.36891071781203 C.Trigonal 0.0 **** 0.0
9 C6962 0.45062242136252 0.378561258275606 0.354829702270065 C.Trigonal 0.0 **** 0.0
10 C6963 0.463522541654116 0.37684013520341 0.340560351288433 C 0.0 **** 0.0
11 C6969 0.435080030417226 0.370366202921148 0.353627253674268 C 0.0 **** 0.0
12 C6970 0.422488539727497 0.372806327623411 0.365570012527522 C 0.0 **** 0.0
13 C6971 0.426644656861955 0.381094635722201 0.380675684869579 C.Trigonal 0.0 **** 0.0
14 C6972 0.443012471717238 0.388298328324722 0.382360083154439 C.Trigonal 0.0 **** 0.0
15 C6978 0.448117671458822 0.394251999691669 0.398154483372915 C 0.0 **** 0.0
16 C6979 0.439189929049791 0.390684280852966 0.412995663004393 C.Trigonal 0.0 **** 0.0
17 C6980 0.422786150869868 0.383579897992665 0.411076651756993 C.Trigonal 0.0 **** 0.0
18 C6981 0.416025174897997 0.380528764736407 0.395206522556175 C 0.0 **** 0.0
19 C6987 0.412634577994352 0.380431082617883 0.426955618916125 C.Trigonal 0.0 **** 0.0
20 C6988 0.417543802970757 0.387348557042866 0.441661190221612 C.Trigonal 0.0 **** 0.0
21 C6989 0.433309058521072 0.397945784072892 0.442404470641144 C.Trigonal 0.0 **** 0.0
22 C6990 0.445138328568008 0.395822595121573 0.429373343030683 C.Trigonal 0.0 **** 0.0
23 C6996 0.40880548679134 0.383414901707657 0.458531060175539 C 0.0 **** 0.0
24 C6997 0.40044891948911 0.364003201255912 0.463215111440381 C 0.0 **** 0.0
25 C6998 0.403848239438641 0.355353759065579 0.443373288891115 C 0.0 **** 0.0
26 C6999 0.399198425970788 0.366864238094538 0.428029828862771 C 0.0 **** 0.0
27 C7005 0.461991566513029 0.400970207506181 0.432717139091116 C 0.0 **** 0.0
28 C7006 0.465360436580963 0.410273567605276 0.447185695031479 C.Trigonal 0.0 **** 0.0
29 C7007 0.452435907863359 0.41556008158127 0.457695292032779 C.Trigonal 0.0 **** 0.0
30 C7008 0.436017862825136 0.409903654469289 0.455074994111389 C 0.0 **** 0.0
31 C7014 0.456071302205746 0.42574390467367 0.47337370686922 C 0.0 **** 0.0
32 C7015 0.47392131665241 0.427393636737666 0.47842850987475 C.Trigonal 0.0 **** 0.0
33 C7016 0.48663873818327 0.421960050706927 0.468370369889601 C.Trigonal 0.0 **** 0.0
34 C7017 0.483388328322723 0.414149090275003 0.451797709945654 C 0.0 **** 0.0
35 C7023 0.504956741679667 0.423747014447299 0.473794998576793 C 0.0 **** 0.0
36 C7024 0.506645817131815 0.422003050925553 0.493257987467126 C 0.0 **** 0.0
37 C7025 0.493776755230319 0.432791813685284 0.502684120621031 C.Trigonal 0.0 **** 0.0
38 C7026 0.477698939590541 0.435281394462888 0.49527169118853 C.Trigonal 0.0 **** 0.0
39 N7032 0.465501765966886 0.443733272339824 0.503286059688185 N 0.0 **** 0.0
40 C7033 0.468405322439221 0.449353867928843 0.518958903414547 C.Trigonal 0.0 **** 0.0
41 C7034 0.48432095222797 0.447854401540333 0.526943335627828 C.Trigonal 0.0 **** 0.0
42 C7035 0.497015910209377 0.43957272657132 0.518470551504761 C.Trigonal 0.0 **** 0.0
43 C7041 0.514359426963767 0.43707880533517 0.526474469187538 C 0.0 **** 0.0
44 C7042 0.516925964778099 0.44809546950873 0.542179392069587 C 0.0 **** 0.0
45 C7043 0.501346064382942 0.447684672242486 0.553490188057022 C 0.0 **** 0.0
46 C7044 0.486697435216622 0.456140458796903 0.544089453592556 C 0.0 **** 0.0
47 C7050 0.470000667755997 0.455726445969417 0.554333047281832 C 0.0 **** 0.0
48 C7051 0.455069972607228 0.461461720503743 0.543735659658161 C.Trigonal 0.0 **** 0.0
49 C7052 0.454517628317409 0.457455630618492 0.52647962815614 C.Trigonal 0.0 **** 0.0
50 C7057 0.439957190625095 0.461479310594723 0.516952652338301 C 0.0 **** 0.0
51 C7058 0.426601814412079 0.46931415643448 0.524647777879837 C 0.0 **** 0.0
52 C7059 0.427137517184622 0.473504637384009 0.54163036962352 C 0.0 **** 0.0
53 C7060 0.441420138136122 0.469510271870378 0.551199833655672 C 0.0 **** 0.0
54 C7066 0.517441689060387 0.426890540359594 0.339539073759066 C 0.0 **** 0.0
55 C7068 0.535104392927825 0.419821841130279 0.343077607063703 C 0.0 **** 0.0
56 C7070 0.510107612730229 0.406100365858991 0.309033461333211 C 0.0 **** 0.0
57 C7072 0.499928602246522 0.419152444097257 0.370775911951425 C 0.0 **** 0.0
58 C7074 0.483526900786115 0.381418703254485 0.310163302712813 C 0.0 **** 0.0
59 C7076 0.431744646973507 0.358400719676016 0.338991855493859 C 0.0 **** 0.0
60 C7078 0.405242970556998 0.365094989029397 0.362283866734777 C 0.0 **** 0.0
61 O7080 0.399373094525535 0.375923106634573 0.393438685528154 O 0.0 **** 0.0
62 C7082 0.400186254308083 0.336657762018504 0.437507119798838 C 0.0 **** 0.0
63 C7084 0.382345675686181 0.358545645869768 0.482293206111843 C 0.0 **** 0.0
64 O7086 0.422710258852824 0.414725067616294 0.465197068919524 O 0.0 **** 0.0
65 O7088 0.474611538612065 0.396223353750362 0.421812459988977 O 0.0 **** 0.0
66 O7090 0.49469812701813 0.410353471876033 0.442100453428118 O 0.0 **** 0.0
67 O7092 0.444136852368799 0.431348918323781 0.481324065944967 O 0.0 **** 0.0
68 C7094 0.441998318012299 0.473703791826334 0.569878094314764 C 0.0 **** 0.0
69 C7096 0.411834250641643 0.482365274332498 0.548830643769921 C 0.0 **** 0.0
70 H7098 0.479352761083023 0.388776407671535 0.379864615687007 H 0.0 **** 0.0
71 H7100 0.46983860566667 0.408772688556392 0.376230395043879 H 0.0 **** 0.0
72 H7102 0.456674090592195 0.378122790750976 0.328509314333532 H 0.0 **** 0.0
73 H7104 0.46884289910971 0.363918273343234 0.340855802482182 H 0.0 **** 0.0
74 H7106 0.460290603184622 0.40070721554278 0.398990284606597 H 0.0 **** 0.0
75 H7108 0.41853311689661 0.38608249581792 0.468038440366545 H 0.0 **** 0.0
76 H7110 0.399977509556802 0.39420213873122 0.458834729900838 H 0.0 **** 0.0
77 H7112 0.413055866803205 0.359348019125259 0.466320091067792 H 0.0 **** 0.0
78 H7114 0.417795156982018 0.354853002906376 0.442836086197161 H 0.0 **** 0.0
79 H7116 0.386637395728438 0.372618864325623 0.429306711548938 H 0.0 **** 0.0
80 H7118 0.398808041642376 0.358893860211196 0.416635861314048 H 0.0 **** 0.0
81 H7120 0.513131168303443 0.414097520058919 0.467883818896421 H 0.0 **** 0.0
82 H7122 0.509851336092892 0.436067713806602 0.469647222194062 H 0.0 **** 0.0
83 H7124 0.519731872172257 0.425118030004269 0.496735439649733 H 0.0 **** 0.0
84 H7126 0.504811088684866 0.408599248426101 0.496768223741891 H 0.0 **** 0.0
85 H7128 0.515809710151147 0.423661983058792 0.529992481547085 H 0.0 **** 0.0
86 H7130 0.524508399298878 0.440001637535521 0.517395223647712 H 0.0 **** 0.0
87 H7132 0.519105956840832 0.461267091824027 0.538167779092347 H 0.0 **** 0.0
88 H7134 0.528318080250613 0.444057407059949 0.549062293151114 H 0.0 **** 0.0
89 H7136 0.503761418551974 0.454290437202234 0.565500352158809 H 0.0 **** 0.0
90 H7138 0.498162572891599 0.434496104442223 0.556735489267508 H 0.0 **** 0.0
91 H7140 0.490108654133023 0.469559109156021 0.542074948720207 H 0.0 **** 0.0
92 H7142 0.467607494790564 0.442688695856405 0.558688014995315 H 0.0 **** 0.0
93 H7144 0.47167512883621 0.463465510209005 0.56574829751594 H 0.0 **** 0.0
94 H7146 0.439227938956892 0.458276155148318 0.503451773754199 H 0.0 **** 0.0
95 H7148 0.415231767653946 0.472227979559825 0.517233356550998 H 0.0 **** 0.0
96 H7150 0.514521292645043 0.436687338240291 0.34897467624043 H 0.0 **** 0.0
97 H7152 0.517362521317245 0.433800555837301 0.327463950454346 H 0.0 **** 0.0
98 H7154 0.538805697243409 0.410655567490697 0.333362994460109 H 0.0 **** 0.0
99 H7156 0.535599967344231 0.413372497982079 0.355394412881135 H 0.0 **** 0.0
100 H7158 0.544689221566537 0.429911273663314 0.343212736058026 H 0.0 **** 0.0
101 H7160 0.5170279200671 0.394504196334349 0.305602406757396 H 0.0 **** 0.0
102 H7162 0.519567006539194 0.416169615085423 0.309480772960786 H 0.0 **** 0.0
103 H7164 0.501489782140814 0.409173031454358 0.298531894774297 H 0.0 **** 0.0
104 H7166 0.51348538134726 0.422027039242542 0.371638929837662 H 0.0 **** 0.0
105 H7168 0.497079750515997 0.411679155800504 0.382133331622683 H 0.0 **** 0.0
106 H7170 0.492984758488382 0.431176235842266 0.371826286863026 H 0.0 **** 0.0
107 H7172 0.478875800466085 0.36871326563424 0.313326657365606 H 0.0 **** 0.0
108 H7174 0.49458838023757 0.379367114276257 0.302029312592409 H 0.0 **** 0.0
109 H7176 0.47376251277387 0.387700516192003 0.302450500455566 H 0.0 **** 0.0
110 H7178 0.443039855377042 0.355263315271168 0.331615427498537 H 0.0 **** 0.0
111 H7180 0.42226096832208 0.363469673596816 0.330215113452419 H 0.0 **** 0.0
112 H7182 0.426917295342055 0.346219754716242 0.343709333369729 H 0.0 **** 0.0
113 H7184 0.402833624400996 0.354288485583557 0.370725019887348 H 0.0 **** 0.0
114 H7186 0.403482692987673 0.360589887821473 0.349316026768252 H 0.0 **** 0.0
115 H7188 0.395095788500245 0.374458337460638 0.36412599229689 H 0.0 **** 0.0
116 H7190 0.393491624739885 0.379778058388963 0.403157803953155 H 0.0 **** 0.0
117 H7192 0.405324845972615 0.327181721971614 0.446181044550556 H 0.0 **** 0.0
118 H7194 0.406497957561515 0.334279563824747 0.4253097207368 H 0.0 **** 0.0
119 H7196 0.386706444901828 0.333958637862308 0.435507919974593 H 0.0 **** 0.0
120 H7198 0.384356826448868 0.360209034178988 0.496221186348682 H 0.0 **** 0.0
121 H7200 0.376508055709741 0.345613541604645 0.484218810044914 H 0.0 **** 0.0
122 H7202 0.369524415943279 0.364586258875355 0.483038359505156 H 0.0 **** 0.0
123 H7204 0.426833063236469 0.422381595873563 0.473588733545997 H 0.0 **** 0.0
124 H7206 0.485249918248972 0.399296216144059 0.426623683593479 H 0.0 **** 0.0
125 H7208 0.444181258291542 0.462264357063506 0.577515968602131 H 0.0 **** 0.0
126 H7210 0.430278568891993 0.479405598157741 0.574567554125626 H 0.0 **** 0.0
127 H7212 0.452228188742581 0.482729714416575 0.572668497040564 H 0.0 **** 0.0
128 H7214 0.407365741484516 0.476433151346841 0.560585358064148 H 0.0 **** 0.0
129 H7216 0.401137416175883 0.482108742742473 0.539974955941495 H 0.0 **** 0.0
130 H7218 0.414680197343468 0.495745964846255 0.551355021841083 H 0.0 **** 0.0
@<TRIPOS>BOND
1 3 2 Aromatic
2 4 3 Aromatic
3 5 4 Aromatic
4 6 5 Aromatic
5 1 2 Aromatic
6 1 6 Aromatic
7 8 7 1
8 9 8 Aromatic
9 10 9 1
10 4 7 1
11 3 10 1
12 12 11 Aromatic
13 13 12 Aromatic
14 14 13 Aromatic
15 9 11 Aromatic
16 8 14 Aromatic
17 16 15 Aromatic
18 17 16 Aromatic
19 18 17 Aromatic
20 14 15 Aromatic
21 13 18 Aromatic
22 20 19 1
23 21 20 1
24 22 21 Aromatic
25 17 19 1
26 16 22 Aromatic
27 24 23 1
28 25 24 Aromatic
29 26 25 1
30 20 23 1
31 19 26 1
32 28 27 Aromatic
33 29 28 Aromatic
34 30 29 Aromatic
35 22 27 Aromatic
36 21 30 Aromatic
37 32 31 1
38 33 32 Aromatic
39 34 33 1
40 29 31 1
41 28 34 1
42 36 35 1
43 37 36 1
44 38 37 Aromatic
45 33 35 1
46 32 38 Aromatic
47 40 39 Aromatic
48 41 40 Aromatic
49 42 41 Aromatic
50 38 39 Aromatic
51 37 42 Aromatic
52 44 43 1
53 45 44 1
54 46 45 1
55 42 43 1
56 41 46 1
57 48 47 1
58 49 48 Aromatic
59 40 49 Aromatic
60 46 47 1
61 51 50 Aromatic
62 52 51 Aromatic
63 53 52 Aromatic
64 49 50 Aromatic
65 48 53 Aromatic
66 6 54 1
67 54 55 1
68 1 56 1
69 5 57 1
70 2 58 1
71 11 59 1
72 12 60 1
73 18 61 1
74 25 62 1
75 24 63 1
76 30 64 1
77 27 65 1
78 34 66 Double
79 31 67 Double
80 53 68 1
81 52 69 1
82 7 70 1
83 7 71 1
84 10 72 1
85 10 73 1
86 15 74 1
87 23 75 1
88 23 76 1
89 24 77 1
90 25 78 1
91 26 79 1
92 26 80 1
93 35 81 1
94 35 82 1
95 36 83 1
96 36 84 1
97 43 85 1
98 43 86 1
99 44 87 1
100 44 88 1
101 45 89 1
102 45 90 1
103 46 91 1
104 47 92 1
105 47 93 1
106 50 94 1
107 51 95 1
108 54 96 1
109 54 97 1
110 55 98 1
111 55 99 1
112 55 100 1
113 56 101 1
114 56 102 1
115 56 103 1
116 57 104 1
117 57 105 1
118 57 106 1
119 58 107 1
120 58 108 1
121 58 109 1
122 59 110 1
123 59 111 1
124 59 112 1
125 60 113 1
126 60 114 1
127 60 115 1
128 61 116 1
129 62 117 1
130 62 118 1
131 62 119 1
132 63 120 1
133 63 121 1
134 63 122 1
135 64 123 1
136 65 124 1
137 68 125 1
138 68 126 1
139 68 127 1
140 69 128 1
141 69 129 1
142 69 130 1
@<TRIPOS>MOLECULE
Sketch 4
130 142
SMALL
USER_CHARGES


@<TRIPOS>ATOM
1 C7220 0.0748580135862469 0.650453423158261 0.310771000620149 C.Trigonal 0.0 **** 0.0
2 C7221 0.0826419022701231 0.634938923217884 0.313215892149507 C 0.0 **** 0.0
3 C7222 0.0736574727533387 0.620312986167901 0.310198979549569 C.Trigonal 0.0 **** 0.0
4 C7223 0.0570097052844912 0.621008299347928 0.305063892193572 C.Trigonal 0.0 **** 0.0
5 C7224 0.0491611914231371 0.636414561115384 0.302526797369966 C 0.0 **** 0.0
6 C7225 0.0582294325237555 0.651181915358508 0.305183267339783 C 0.0 **** 0.0
7 C7232 0.0480341391424382 0.604052793721623 0.303398971313884 C 0.0 **** 0.0
8 C7233 0.0517138966121749 0.593766856234711 0.319227040412345 C.Trigonal 0.0 **** 0.0
9 C7234 0.068306020827891 0.593555699892057 0.32450927630155 C.Trigonal 0.0 **** 0.0
10 C7235 0.0807410654663123 0.602760903549197 0.313155792404387 C 0.0 **** 0.0
11 C7241 0.0729255395475207 0.586138466725204 0.339700883456635 C 0.0 **** 0.0
12 C7242 0.0606711080057164 0.580201858364289 0.350708828048986 C 0.0 **** 0.0
13 C7243 0.0440786132609087 0.578254125371417 0.344697882743083 C.Trigonal 0.0 **** 0.0
14 C7244 0.0397796624080467 0.584538287944505 0.32839927382378 C.Trigonal 0.0 **** 0.0
15 C7250 0.0232602402531369 0.582290261782023 0.322489555014753 C 0.0 **** 0.0
16 C7251 0.0100745410516061 0.577862311915857 0.333288018644732 C.Trigonal 0.0 **** 0.0
17 C7252 0.0148170705597239 0.569004266502492 0.348071066574831 C.Trigonal 0.0 **** 0.0
18 C7253 0.0312756036884821 0.569900997905321 0.354240835222231 C 0.0 **** 0.0
19 C7259 0.000956201071187166 0.559846333089828 0.35749167971867 C.Trigonal 0.0 **** 0.0
20 C7260 -0.0155737326484928 0.563366134410826 0.354280064224925 C.Trigonal 0.0 **** 0.0
21 C7261 -0.0201264611535661 0.577351103813676 0.341656976536528 C.Trigonal 0.0 **** 0.0
22 C7262 -0.00690553763593815 0.584292191929834 0.331776589944057 C.Trigonal 0.0 **** 0.0
23 C7268 -0.0297692471821611 0.55328384398334 0.36280314342705 C 0.0 **** 0.0
24 C7269 -0.0236044979832545 0.540147085302884 0.3758301867536 C 0.0 **** 0.0
25 C7270 -0.00714044702111265 0.531532682112016 0.370166435132119 C 0.0 **** 0.0
26 C7271 0.00645199434714969 0.545269751098452 0.368875938232078 C 0.0 **** 0.0
27 C7277 -0.0105055653866355 0.598758221161202 0.321611257603221 C 0.0 **** 0.0
28 C7278 -0.0267680582717561 0.605001280871248 0.320637130972191 C.Trigonal 0.0 **** 0.0
29 C7279 -0.039767186841491 0.597357999631284 0.329352896684987 C.Trigonal 0.0 **** 0.0
30 C7280 -0.0366087226959152 0.583448502357857 0.339667096526314 C 0.0 **** 0.0
31 C7286 -0.057573880882714 0.60443087519702 0.328230375282399 C 0.0 **** 0.0
32 C7287 -0.0603394690351497 0.619869490466716 0.318101920470778 C.Trigonal 0.0 **** 0.0
33 C7288 -0.0475271468685207 0.627135356279865 0.309421371175733 C.Trigonal 0.0 **** 0.0
34 C7289 -0.0302210056545766 0.620374824808143 0.309839096612127 C 0.0 **** 0.0
35 C7295 -0.0506043629729271 0.642804623796806 0.29878071991349 C 0.0 **** 0.0
36 C7296 -0.0634794780316899 0.654519147637241 0.307631587703747 C 0.0 **** 0.0
37 C7297 -0.0793479380398742 0.644867654856719 0.312726793218338 C.Trigonal 0.0 **** 0.0
38 C7298 -0.0777482774252518 0.627710349065379 0.317693737300475 C.Trigonal 0.0 **** 0.0
39 N7304 -0.0911780965614589 0.618748509715873 0.32284368854262 N 0.0 **** 0.0
40 C7305 -0.106008825355809 0.6267397993483 0.324549243348787 C.Trigonal 0.0 **** 0.0
41 C7306 -0.108534127999106 0.643760258941747 0.319603083260384 C.Trigonal 0.0 **** 0.0
42 C7307 -0.0950259976750111 0.652594637624121 0.313297983880261 C.Trigonal 0.0 **** 0.0
43 C7313 -0.0969173648204728 0.671006138895645 0.30782527178466 C 0.0 **** 0.0
44 C7314 -0.115433381517178 0.676309062982702 0.30554936942616 C 0.0 **** 0.0
45 C7315 -0.125986864597004 0.670280900117165 0.320508834593222 C 0.0 **** 0.0
46 C7316 -0.126319302173391 0.650928192390128 0.320711930248319 C 0.0 **** 0.0
47 C7322 -0.135418091918365 0.643917322262036 0.336554534477651 C 0.0 **** 0.0
48 C7323 -0.133804098509877 0.624815589925447 0.337390916826134 C.Trigonal 0.0 **** 0.0
49 C7324 -0.119203905857283 0.616825684064922 0.331193388245347 C.Trigonal 0.0 **** 0.0
50 C7329 -0.117783501893322 0.599059390051448 0.332325509630793 C 0.0 **** 0.0
51 C7330 -0.130421246014855 0.589916702356522 0.339822698166094 C 0.0 **** 0.0
52 C7331 -0.144387755282808 0.597814943619732 0.346822129192676 C 0.0 **** 0.0
53 C7332 -0.145926712969685 0.615363051481674 0.345773513965957 C 0.0 **** 0.0
54 C7338 0.0499099098115883 0.668224026897593 0.302259609635916 C 0.0 **** 0.0
55 C7340 0.0410227942721727 0.674425710472689 0.318305280714384 C 0.0 **** 0.0
56 C7342 0.0848255875753972 0.666483337019964 0.314323378973139 C 0.0 **** 0.0
57 C7344 0.0306909973194527 0.636403956067962 0.297418356803785 C 0.0 **** 0.0
58 C7346 0.100731755672101 0.633464340403992 0.31928578664864 C 0.0 **** 0.0
59 C7348 0.0914951426429587 0.585680562718867 0.344515676937738 C 0.0 **** 0.0
60 C7350 0.0661360303433964 0.575867492162957 0.368573000299848 C 0.0 **** 0.0
61 O7352 0.035427884857435 0.563055673011131 0.369599621174799 O 0.0 **** 0.0
62 C7354 -0.00889326660941162 0.521728300844896 0.353433886242427 C 0.0 **** 0.0
63 C7356 -0.0375560123901584 0.527067719774046 0.379280009866647 C 0.0 **** 0.0
64 O7358 -0.0495926113433002 0.575732765974434 0.348268650042111 O 0.0 **** 0.0
65 O7360 0.00239549039631594 0.606640170862933 0.313181461060894 O 0.0 **** 0.0
66 O7362 -0.0187505754547612 0.626928324943613 0.301939031520176 O 0.0 **** 0.0
67 O7364 -0.0687484416044157 0.597343820685024 0.33607498491649 O 0.0 **** 0.0
68 C7366 -0.160937064221049 0.623986750258287 0.353988884335361 C 0.0 **** 0.0
69 C7368 -0.157232823388025 0.586842333556556 0.355774955152142 C 0.0 **** 0.0
70 H7370 0.034481221945994 0.605895753032238 0.3016275798804 H 0.0 **** 0.0
71 H7372 0.0524855211587442 0.597275261891614 0.292025032423753 H 0.0 **** 0.0
72 H7374 0.0819928608484737 0.596007499740966 0.300983359828355 H 0.0 **** 0.0
73 H7376 0.0934994647722644 0.603090662200381 0.318338633560476 H 0.0 **** 0.0
74 H7378 0.0205117093517111 0.586835206159219 0.309740196842113 H 0.0 **** 0.0
75 H7380 -0.0382907664892192 0.561775866498046 0.369772229584604 H 0.0 **** 0.0
76 H7382 -0.037274046325657 0.546786498148913 0.353012661155774 H 0.0 **** 0.0
77 H7384 -0.0210231667250233 0.546813825395357 0.387786857542944 H 0.0 **** 0.0
78 H7386 -0.00325231244885525 0.522509065010983 0.380030406566033 H 0.0 **** 0.0
79 H7388 0.0180707495068638 0.539190601032908 0.36420236663002 H 0.0 **** 0.0
80 H7390 0.00900007068442332 0.550026764943064 0.381707289367391 H 0.0 **** 0.0
81 H7392 -0.0389176753243585 0.650026634718222 0.296294520402064 H 0.0 **** 0.0
82 H7394 -0.0555309552156706 0.638906247032169 0.286355961654422 H 0.0 **** 0.0
83 H7396 -0.0662123704618743 0.665112978834159 0.299083377081955 H 0.0 **** 0.0
84 H7398 -0.057570670602638 0.660107393721871 0.318986866660462 H 0.0 **** 0.0
85 H7400 -0.0910245855295073 0.679224528579778 0.317449504875378 H 0.0 **** 0.0
86 H7402 -0.0902197648682256 0.673361711185841 0.295856263563742 H 0.0 **** 0.0
87 H7404 -0.120525197994497 0.670673994688823 0.29384537692895 H 0.0 **** 0.0
88 H7406 -0.116301248185397 0.690126803237404 0.303959450327223 H 0.0 **** 0.0
89 H7408 -0.138985597413603 0.675265827827057 0.319820695518452 H 0.0 **** 0.0
90 H7410 -0.120487018295599 0.675129663561519 0.332377128144202 H 0.0 **** 0.0
91 H7412 -0.133416108658607 0.646642481416589 0.30945195204343 H 0.0 **** 0.0
92 H7414 -0.129891134950528 0.649612859645964 0.348045416075442 H 0.0 **** 0.0
93 H7416 -0.148720696927974 0.647943702291292 0.336040067890227 H 0.0 **** 0.0
94 H7418 -0.106479625525448 0.592610174669355 0.327452837511764 H 0.0 **** 0.0
95 H7420 -0.129321981860759 0.576115759278142 0.340577816384891 H 0.0 **** 0.0
96 H7422 0.0407388791072134 0.667666777939856 0.291885381910834 H 0.0 **** 0.0
97 H7424 0.0591090677514558 0.677699533694399 0.297938321505873 H 0.0 **** 0.0
98 H7426 0.049962077952575 0.675697859332714 0.328888410099954 H 0.0 **** 0.0
99 H7428 0.0310337570904945 0.665559134332687 0.32220389287295 H 0.0 **** 0.0
100 H7430 0.0350615591149314 0.686831236077805 0.316276425311577 H 0.0 **** 0.0
101 H7432 0.0914033341667523 0.665819257893672 0.326557427070955 H 0.0 **** 0.0
102 H7434 0.0770435707473714 0.677904583491364 0.315223634221 H 0.0 **** 0.0
103 H7436 0.0943167076625624 0.668754327058352 0.304383099441677 H 0.0 **** 0.0
104 H7438 0.0228565371360356 0.631552306156984 0.307855445234877 H 0.0 **** 0.0
105 H7440 0.0285442531424802 0.628282067416044 0.286326165511253 H 0.0 **** 0.0
106 H7442 0.0254763545128703 0.648795056345574 0.294180898852447 H 0.0 **** 0.0
107 H7444 0.10181843841345 0.624459197742994 0.329821536518197 H 0.0 **** 0.0
108 H7446 0.106017256178392 0.645303354014323 0.324074660333192 H 0.0 **** 0.0
109 H7448 0.109070135062119 0.629027420086696 0.309045553354214 H 0.0 **** 0.0
110 H7450 0.0944964770875786 0.575161870321652 0.353073650953599 H 0.0 **** 0.0
111 H7452 0.0953914162077308 0.59752191426813 0.350691926946559 H 0.0 **** 0.0
112 H7454 0.0996873604059276 0.583622275037736 0.333482867464952 H 0.0 **** 0.0
113 H7456 0.0571742118231374 0.58094391716925 0.377934740227002 H 0.0 **** 0.0
114 H7458 0.078264586604576 0.581598904381729 0.372097376913001 H 0.0 **** 0.0
115 H7460 0.0672204924336614 0.562139688004903 0.370520375778597 H 0.0 **** 0.0
116 H7462 0.0251880323870176 0.560860279772543 0.375391670713 H 0.0 **** 0.0
117 H7464 0.0032832126836374 0.516161765212169 0.34974960303241 H 0.0 **** 0.0
118 H7466 -0.0132083534179325 0.529952775908151 0.343097771726252 H 0.0 **** 0.0
119 H7468 -0.0179181654617265 0.511296075707048 0.35491668934534 H 0.0 **** 0.0
120 H7470 -0.0490495995143629 0.533359935056764 0.383859223725874 H 0.0 **** 0.0
121 H7472 -0.0334476751607339 0.517924154433327 0.388915039953503 H 0.0 **** 0.0
122 H7474 -0.0408216581337533 0.520191578887953 0.367683257988292 H 0.0 **** 0.0
123 H7476 -0.0599016755898398 0.581565394186907 0.345886599032466 H 0.0 **** 0.0
124 H7478 -0.00199976948061349 0.616244309657956 0.307312934653507 H 0.0 **** 0.0
125 H7480 -0.157491820046687 0.636265265751799 0.359520425139651 H 0.0 **** 0.0
126 H7482 -0.166109859628039 0.616520788780622 0.36448873912065 H 0.0 **** 0.0
127 H7484 -0.171195357134454 0.626125537371961 0.344820572004095 H 0.0 **** 0.0
128 H7486 -0.155948107073858 0.587856450760152 0.369609834528334 H 0.0 **** 0.0
129 H7488 -0.15570914822104 0.573439425107448 0.352451501835101 H 0.0 **** 0.0
130 H7490 -0.170251698111922 0.590311437795959 0.352470486190837 H 0.0 **** 0.0
@<TRIPOS>BOND
1 3 2 Aromatic
2 4 3 Aromatic
3 5 4 Aromatic
4 6 5 Aromatic
5 1 2 Aromatic
6 1 6 Aromatic
7 8 7 1
8 9 8 Aromatic
9 10 9 1
10 4 7 1
11 3 10 1
12 12 11 Aromatic
13 13 12 Aromatic
14 14 13 Aromatic
15 9 11 Aromatic
16 8 14 Aromatic
17 16 15 Aromatic
18 17 16 Aromatic
19 18 17 Aromatic
20 14 15 Aromatic
21 13 18 Aromatic
22 20 19 1
23 21 20 1
24 22 21 Aromatic
25 17 19 1
26 16 22 Aromatic
27 24 23 1
28 25 24 Aromatic
29 26 25 1
30 20 23 1
31 19 26 1
32 28 27 Aromatic
33 29 28 Aromatic
34 30 29 Aromatic
35 22 27 Aromatic
36 21 30 Aromatic
37 32 31 1
38 33 32 Aromatic
39 34 33 1
40 29 31 1
41 28 34 1
42 36 35 1
43 37 36 1
44 38 37 Aromatic
45 33 35 1
46 32 38 Aromatic
47 40 39 Aromatic
48 41 40 Aromatic
49 42 41 Aromatic
50 38 39 Aromatic
51 37 42 Aromatic
52 44 43 1
53 45 44 1
54 46 45 1
55 42 43 1
56 41 46 1
57 48 47 1
58 49 48 Aromatic
59 40 49 Aromatic
60 46 47 1
61 51 50 Aromatic
62 52 51 Aromatic
63 53 52 Aromatic
64 49 50 Aromatic
65 48 53 Aromatic
66 6 54 1
67 54 55 1
68 1 56 1
69 5 57 1
70 2 58 1
71 11 59 1
72 12 60 1
73 18 61 1
74 25 62 1
75 24 63 1
76 30 64 1
77 27 65 1
78 34 66 Double
79 31 67 Double
80 53 68 1
81 52 69 1
82 7 70 1
83 7 71 1
84 10 72 1
85 10 73 1
86 15 74 1
87 23 75 1
88 23 76 1
89 24 77 1
90 25 78 1
91 26 79 1
92 26 80 1
93 35 81 1
94 35 82 1
95 36 83 1
96 36 84 1
97 43 85 1
98 43 86 1
99 44 87 1
100 44 88 1
101 45 89 1
102 45 90 1
103 46 91 1
104 47 92 1
105 47 93 1
106 50 94 1
107 51 95 1
108 54 96 1
109 54 97 1
110 55 98 1
111 55 99 1
112 55 100 1
113 56 101 1
114 56 102 1
115 56 103 1
116 57 104 1
117 57 105 1
118 57 106 1
119 58 107 1
120 58 108 1
121 58 109 1
122 59 110 1
123 59 111 1
124 59 112 1
125 60 113 1
126 60 114 1
127 60 115 1
128 61 116 1
129 62 117 1
130 62 118 1
131 62 119 1
132 63 120 1
133 63 121 1
134 63 122 1
135 64 123 1
136 65 124 1
137 68 125 1
138 68 126 1
139 68 127 1
140 69 128 1
141 69 129 1
142 69 130 1
@<TRIPOS>MOLECULE
Sketch 4
130 142
SMALL
USER_CHARGES


@<TRIPOS>ATOM
1 C7492 0.623167279352225 0.553488919268067 0.148835348005448 C.Trigonal 0.0 **** 0.0
2 C7493 0.621927562604491 0.565662105414961 0.136346138231129 C 0.0 **** 0.0
3 C7494 0.617081538149011 0.581954537177663 0.140503382877275 C.Trigonal 0.0 **** 0.0
4 C7495 0.614997828364461 0.586392213942019 0.157183838856773 C.Trigonal 0.0 **** 0.0
5 C7496 0.617312573979079 0.574513454514621 0.169853666201182 C 0.0 **** 0.0
6 C7497 0.620693145622225 0.557899063959259 0.165575297754404 C 0.0 **** 0.0
7 C7504 0.610301116834722 0.604432253926703 0.161830716687918 C 0.0 **** 0.0
8 C7505 0.601391573078388 0.614602873957933 0.148187003618815 C.Trigonal 0.0 **** 0.0
9 C7506 0.603226727239497 0.610073059581563 0.131552782044109 C.Trigonal 0.0 **** 0.0
10 C7507 0.614282745182253 0.595066709940713 0.126786404128501 C 0.0 **** 0.0
11 C7513 0.594948035817145 0.618985837326796 0.118884310712306 C 0.0 **** 0.0
12 C7514 0.583987973075457 0.632078746640604 0.122713264412907 C 0.0 **** 0.0
13 C7515 0.583641897826015 0.638356984088542 0.139219951923367 C.Trigonal 0.0 **** 0.0
14 C7516 0.591926917735547 0.629066678213227 0.152164886583681 C.Trigonal 0.0 **** 0.0
15 C7522 0.591272790331534 0.635103485514729 0.168731525660817 C 0.0 **** 0.0
16 C7523 0.583049545992131 0.650121169553891 0.173165496196418 C.Trigonal 0.0 **** 0.0
17 C7524 0.575561947446361 0.659667458147973 0.159977071740542 C.Trigonal 0.0 **** 0.0
18 C7525 0.576425104846195 0.654287461217192 0.143235537541721 C 0.0 **** 0.0
19 C7531 0.567916205265443 0.67655574146165 0.164822158990415 C.Trigonal 0.0 **** 0.0
20 C7532 0.573364998353004 0.684566511721851 0.179020938483208 C.Trigonal 0.0 **** 0.0
21 C7533 0.584685668027659 0.675089751799881 0.191126142286288 C.Trigonal 0.0 **** 0.0
22 C7534 0.584911484181201 0.6574055396237 0.189731251550147 C.Trigonal 0.0 **** 0.0
23 C7540 0.565209195037237 0.700644280826464 0.185989383789493 C 0.0 **** 0.0
24 C7541 0.551519644967889 0.708054608141872 0.174255667715091 C 0.0 **** 0.0
25 C7542 0.541238329445609 0.693458965416201 0.166399077352666 C 0.0 **** 0.0
26 C7543 0.552654562768563 0.682719847442937 0.154859688111829 C 0.0 **** 0.0
27 C7549 0.59130510763254 0.648128230992676 0.20356911884096 C 0.0 **** 0.0
28 C7550 0.601591176166551 0.656274048347319 0.215190621704351 C.Trigonal 0.0 **** 0.0
29 C7551 0.605174230966347 0.673280661825508 0.213449468552987 C.Trigonal 0.0 **** 0.0
30 C7552 0.596183946123844 0.683064429816964 0.201937973742239 C 0.0 **** 0.0
31 C7558 0.618510403266297 0.681517659318558 0.224306564067538 C 0.0 **** 0.0
32 C7559 0.626471430488423 0.671067895946455 0.237567888490797 C.Trigonal 0.0 **** 0.0
33 C7560 0.621754823033542 0.654823172175474 0.240180346755178 C.Trigonal 0.0 **** 0.0
34 C7561 0.60907383729057 0.646376364144969 0.229536152381301 C 0.0 **** 0.0
35 C7567 0.6291118073008 0.644552046725867 0.254579698167254 C 0.0 **** 0.0
36 C7568 0.647689686160856 0.649471986580119 0.258173478728736 C 0.0 **** 0.0
37 C7569 0.65039531882558 0.668493910506824 0.258399888300248 C.Trigonal 0.0 **** 0.0
38 C7570 0.639931282580212 0.679008454085039 0.248404821247134 C.Trigonal 0.0 **** 0.0
39 N7576 0.641866693113947 0.695801173526829 0.24820912414574 N 0.0 **** 0.0
40 C7577 0.654183336604835 0.702614407999466 0.25761335739858 C.Trigonal 0.0 **** 0.0
41 C7578 0.665659274741747 0.692774780816251 0.26720706331769 C.Trigonal 0.0 **** 0.0
42 C7579 0.6635288314576 0.675589775860084 0.267460242918533 C.Trigonal 0.0 **** 0.0
43 C7585 0.675180047803586 0.664209756198624 0.277776678978125 C 0.0 **** 0.0
44 C7586 0.691345760916749 0.673142870117013 0.283627037152927 C 0.0 **** 0.0
45 C7587 0.687124123734883 0.690700344727233 0.290388869515721 C 0.0 **** 0.0
46 C7588 0.680331862628558 0.701567796563638 0.275879859037978 C 0.0 **** 0.0
47 C7594 0.674896770325837 0.719438332065845 0.2815872300717 C 0.0 **** 0.0
48 C7595 0.66687174570303 0.7288169906325 0.266910946520844 C.Trigonal 0.0 **** 0.0
49 C7596 0.655796519646113 0.720225295501415 0.256055609827302 C.Trigonal 0.0 **** 0.0
50 C7601 0.647547817896716 0.729212533523793 0.24299139413815 C 0.0 **** 0.0
51 C7602 0.65113030832841 0.745976541663825 0.240517308150644 C 0.0 **** 0.0
52 C7603 0.662357747256818 0.754419222430087 0.250976431636753 C 0.0 **** 0.0
53 C7604 0.669991631498856 0.745824989541667 0.264358325546872 C 0.0 **** 0.0
54 C7610 0.621341638069116 0.544416619153254 0.179062080945837 C 0.0 **** 0.0
55 C7612 0.6031215451691 0.539698077384506 0.183565887318922 C 0.0 **** 0.0
56 C7614 0.62730033733874 0.535308780029444 0.144267880054372 C 0.0 **** 0.0
57 C7616 0.615463867740309 0.580063589926277 0.188124061521363 C 0.0 **** 0.0
58 C7618 0.625828858110919 0.560727940922922 0.1183092612026 C 0.0 **** 0.0
59 C7620 0.597550680241373 0.614072307272631 0.100478393261791 C 0.0 **** 0.0
60 C7622 0.573988275411896 0.639339417810523 0.108166795689333 C 0.0 **** 0.0
61 O7624 0.570363146180969 0.664942155010674 0.130962099577282 O 0.0 **** 0.0
62 C7626 0.525490390237976 0.699775967642246 0.156904415054048 C 0.0 **** 0.0
63 C7628 0.559814097121306 0.719666362043376 0.160961140370955 C 0.0 **** 0.0
64 O7630 0.598186189557611 0.70024307280602 0.200889675897609 O 0.0 **** 0.0
65 O7632 0.588171910526649 0.631033552143358 0.204363737532336 O 0.0 **** 0.0
66 O7634 0.604274843612861 0.631973104779291 0.232061693841466 O 0.0 **** 0.0
67 O7636 0.622317054376799 0.696106732313031 0.221186599399067 O 0.0 **** 0.0
68 C7638 0.68182497413691 0.755104510343064 0.276148420333109 C 0.0 **** 0.0
69 C7640 0.665787911225589 0.772889626521119 0.247442312907097 C 0.0 **** 0.0
70 H7642 0.601838157585851 0.603804193416337 0.172838329959765 H 0.0 **** 0.0
71 H7644 0.621787927315625 0.611277597892571 0.165903197461882 H 0.0 **** 0.0
72 H7646 0.626617268747548 0.59973353481088 0.122301703949229 H 0.0 **** 0.0
73 H7648 0.608241286615314 0.588622916666034 0.11607667160603 H 0.0 **** 0.0
74 H7650 0.598624935467977 0.628423411937174 0.178348619249476 H 0.0 **** 0.0
75 H7652 0.559315226185807 0.697715157159028 0.198277421307401 H 0.0 **** 0.0
76 H7654 0.574564510170511 0.710630586663333 0.188377446030026 H 0.0 **** 0.0
77 H7656 0.542946182772499 0.715842176113493 0.181990730493352 H 0.0 **** 0.0
78 H7658 0.536791502488931 0.685415780635376 0.176807728803665 H 0.0 **** 0.0
79 H7660 0.556622798747974 0.690188674730822 0.143858788760644 H 0.0 **** 0.0
80 H7662 0.545158036378832 0.672002461612056 0.150035523871994 H 0.0 **** 0.0
81 H7664 0.621400482001301 0.646881130609168 0.265918860749197 H 0.0 **** 0.0
82 H7666 0.62851803366113 0.630804955976589 0.252220099477853 H 0.0 **** 0.0
83 H7668 0.655854208765496 0.643778075393859 0.248490297632788 H 0.0 **** 0.0
84 H7670 0.651494136399076 0.643688794075878 0.270228386456914 H 0.0 **** 0.0
85 H7672 0.668260870335685 0.65994819346598 0.28910826976445 H 0.0 **** 0.0
86 H7674 0.678570207892986 0.652776230706609 0.270583861886441 H 0.0 **** 0.0
87 H7676 0.700176366740104 0.674476221768685 0.272943839244886 H 0.0 **** 0.0
88 H7678 0.697907344975586 0.665417279365414 0.293190377002317 H 0.0 **** 0.0
89 H7680 0.698382454263798 0.696731249607646 0.295885339902713 H 0.0 **** 0.0
90 H7682 0.677689772146469 0.689726422667192 0.300614187284346 H 0.0 **** 0.0
91 H7684 0.69067491325242 0.703110107162294 0.266601574155876 H 0.0 **** 0.0
92 H7686 0.66579421950601 0.71848238860274 0.292131114952646 H 0.0 **** 0.0
93 H7688 0.686067555151595 0.725985841951247 0.286612280959072 H 0.0 **** 0.0
94 H7690 0.638891734018942 0.722640944650734 0.234345198990431 H 0.0 **** 0.0
95 H7692 0.644978929201564 0.75283700429253 0.230117796586969 H 0.0 **** 0.0
96 H7694 0.628320511569455 0.54872968965404 0.19022501613638 H 0.0 **** 0.0
97 H7696 0.628226373079704 0.533088470491732 0.174933174979358 H 0.0 **** 0.0
98 H7698 0.596149746080244 0.535544672291026 0.172254605452883 H 0.0 **** 0.0
99 H7700 0.596249732675039 0.550488984083025 0.188989367255872 H 0.0 **** 0.0
100 H7702 0.602642882774274 0.529347318928711 0.192784163927641 H 0.0 **** 0.0
101 H7704 0.626302283796336 0.532633787426786 0.130706758892029 H 0.0 **** 0.0
102 H7706 0.618550356076871 0.526411368929522 0.150415496880753 H 0.0 **** 0.0
103 H7708 0.640265619107985 0.5319811129111 0.148136900987287 H 0.0 **** 0.0
104 H7710 0.602070335968009 0.581537191245992 0.191592462387912 H 0.0 **** 0.0
105 H7712 0.621771150744294 0.592268804756623 0.190314999734695 H 0.0 **** 0.0
106 H7714 0.621063728542444 0.571332556566614 0.197288538174823 H 0.0 **** 0.0
107 H7716 0.626425532834712 0.57144179794082 0.109576850000597 H 0.0 **** 0.0
108 H7718 0.616503809699463 0.551764647454239 0.113198152066492 H 0.0 **** 0.0
109 H7720 0.638238584503799 0.554512874012188 0.117739754455202 H 0.0 **** 0.0
110 H7722 0.59792448575283 0.625235754323583 0.0921885077935602 H 0.0 **** 0.0
111 H7724 0.58732918418121 0.605795837876077 0.0959587222449138 H 0.0 **** 0.0
112 H7726 0.609572987983668 0.607541280311512 0.0982328128291154 H 0.0 **** 0.0
113 H7728 0.561775269415544 0.644673142849963 0.11205722047714 H 0.0 **** 0.0
114 H7730 0.570555263534907 0.62957066577115 0.0988759461356924 H 0.0 **** 0.0
115 H7732 0.581489175487049 0.648951608209495 0.101485587818078 H 0.0 **** 0.0
116 H7734 0.575792611560183 0.662409058425554 0.12053075045407 H 0.0 **** 0.0
117 H7736 0.517167453661339 0.70686351089959 0.165500670879317 H 0.0 **** 0.0
118 H7738 0.518264412966325 0.689043239376124 0.151815413293447 H 0.0 **** 0.0
119 H7740 0.528952958172387 0.708035832538262 0.14634193331736 H 0.0 **** 0.0
120 H7742 0.566229733449651 0.730289306733112 0.167226848473081 H 0.0 **** 0.0
121 H7744 0.55026798677463 0.724963473707028 0.152398414236902 H 0.0 **** 0.0
122 H7746 0.569276147956183 0.712804076859045 0.153440605624794 H 0.0 **** 0.0
123 H7748 0.607536683366714 0.703565328773443 0.207775916380608 H 0.0 **** 0.0
124 H7750 0.591726986194778 0.626930631973115 0.215161289924211 H 0.0 **** 0.0
125 H7752 0.678351937106463 0.7529960112604 0.28945092958564 H 0.0 **** 0.0
126 H7754 0.681701689902089 0.768829426658882 0.274270034591298 H 0.0 **** 0.0
127 H7756 0.694940432343631 0.750766918291917 0.274365783402202 H 0.0 **** 0.0
128 H7758 0.660951101691679 0.780998382736802 0.257680610225335 H 0.0 **** 0.0
129 H7760 0.659711391298634 0.777084129957265 0.235683636282405 H 0.0 **** 0.0
130 H7762 0.679414948174957 0.775370963049665 0.24606424841436 H 0.0 **** 0.0
@<TRIPOS>BOND
1 3 2 Aromatic
2 4 3 Aromatic
3 5 4 Aromatic
4 6 5 Aromatic
5 1 2 Aromatic
6 1 6 Aromatic
7 8 7 1
8 9 8 Aromatic
9 10 9 1
10 4 7 1
11 3 10 1
12 12 11 Aromatic
13 13 12 Aromatic
14 14 13 Aromatic
15 9 11 Aromatic
16 8 14 Aromatic
17 16 15 Aromatic
18 17 16 Aromatic
19 18 17 Aromatic
20 14 15 Aromatic
21 13 18 Aromatic
22 20 19 1
23 21 20 1
24 22 21 Aromatic
25 17 19 1
26 16 22 Aromatic
27 24 23 1
28 25 24 Aromatic
29 26 25 1
30 20 23 1
31 19 26 1
32 28 27 Aromatic
33 29 28 Aromatic
34 30 29 Aromatic
35 22 27 Aromatic
36 21 30 Aromatic
37 32 31 1
38 33 32 Aromatic
39 34 33 1
40 29 31 1
41 28 34 1
42 36 35 1
43 37 36 1
44 38 37 Aromatic
45 33 35 1
46 32 38 Aromatic
47 40 39 Aromatic
48 41 40 Aromatic
49 42 41 Aromatic
50 38 39 Aromatic
51 37 42 Aromatic
52 44 43 1
53 45 44 1
54 46 45 1
55 42 43 1
56 41 46 1
57 48 47 1
58 49 48 Aromatic
59 40 49 Aromatic
60 46 47 1
61 51 50 Aromatic
62 52 51 Aromatic
63 53 52 Aromatic
64 49 50 Aromatic
65 48 53 Aromatic
66 6 54 1
67 54 55 1
68 1 56 1
69 5 57 1
70 2 58 1
71 11 59 1
72 12 60 1
73 18 61 1
74 25 62 1
75 24 63 1
76 30 64 1
77 27 65 1
78 34 66 Double
79 31 67 Double
80 53 68 1
81 52 69 1
82 7 70 1
83 7 71 1
84 10 72 1
85 10 73 1
86 15 74 1
87 23 75 1
88 23 76 1
89 24 77 1
90 25 78 1
91 26 79 1
92 26 80 1
93 35 81 1
94 35 82 1
95 36 83 1
96 36 84 1
97 43 85 1
98 43 86 1
99 44 87 1
100 44 88 1
101 45 89 1
102 45 90 1
103 46 91 1
104 47 92 1
105 47 93 1
106 50 94 1
107 51 95 1
108 54 96 1
109 54 97 1
110 55 98 1
111 55 99 1
112 55 100 1
113 56 101 1
114 56 102 1
115 56 103 1
116 57 104 1
117 57 105 1
118 57 106 1
119 58 107 1
120 58 108 1
121 58 109 1
122 59 110 1
123 59 111 1
124 59 112 1
125 60 113 1
126 60 114 1
127 60 115 1
128 61 116 1
129 62 117 1
130 62 118 1
131 62 119 1
132 63 120 1
133 63 121 1
134 63 122 1
135 64 123 1
136 65 124 1
137 68 125 1
138 68 126 1
139 68 127 1
140 69 128 1
141 69 129 1
142 69 130 1
@<TRIPOS>MOLECULE
Sketch 4
130 142
SMALL
USER_CHARGES


@<TRIPOS>ATOM
1 C7764 0.159736287509759 0.598945391984524 0.27588651760376 C.Trigonal 0.0 **** 0.0
2 C7765 0.152323025661017 0.614676190336312 0.277836478800823 C 0.0 **** 0.0
3 C7766 0.161815770742474 0.62797773424022 0.284104258950078 C.Trigonal 0.0 **** 0.0
4 C7767 0.178475867387768 0.625713691919872 0.288660705602503 C.Trigonal 0.0 **** 0.0
5 C7768 0.186000273877326 0.610067918671026 0.286281570649512 C 0.0 **** 0.0
6 C7769 0.176727050667561 0.596817065797099 0.279529812342359 C 0.0 **** 0.0
7 C7776 0.188036910116601 0.641077308612314 0.295678178004155 C 0.0 **** 0.0
8 C7777 0.177140048915876 0.652603315629513 0.306696230785788 C.Trigonal 0.0 **** 0.0
9 C7778 0.16051566551136 0.654443490320674 0.301913962675292 C.Trigonal 0.0 **** 0.0
10 C7779 0.154435811204233 0.645515032576026 0.286074244175237 C 0.0 **** 0.0
11 C7785 0.149324518827989 0.664245349411122 0.311148787208449 C 0.0 **** 0.0
12 C7786 0.154121912259285 0.671227646629757 0.326392480103834 C 0.0 **** 0.0
13 C7787 0.171384544571135 0.671312843291241 0.330515355434764 C.Trigonal 0.0 **** 0.0
14 C7788 0.183067636294764 0.662104397458728 0.320483803564258 C.Trigonal 0.0 **** 0.0
15 C7794 0.200225686135394 0.663233432841496 0.324612180341089 C 0.0 **** 0.0
16 C7795 0.206401054815748 0.670538077240376 0.339612930469848 C.Trigonal 0.0 **** 0.0
17 C7796 0.194441086263785 0.68007013235846 0.349230580358107 C.Trigonal 0.0 **** 0.0
18 C7797 0.17770077384414 0.68113366569219 0.344059141636992 C 0.0 **** 0.0
19 C7803 0.200377045569291 0.688879758713252 0.365345459288859 C.Trigonal 0.0 **** 0.0
20 C7804 0.216893086165783 0.68798289626389 0.36989183276682 C.Trigonal 0.0 **** 0.0
21 C7805 0.22980099907722 0.679782362199444 0.358364928755322 C.Trigonal 0.0 **** 0.0
22 C7806 0.223935060935072 0.669589775521963 0.344922924616977 C.Trigonal 0.0 **** 0.0
23 C7812 0.22289338130845 0.69298704423446 0.387573154653616 C 0.0 **** 0.0
24 C7813 0.208250786791452 0.693493236593762 0.400280564725323 C 0.0 **** 0.0
25 C7814 0.194112009483561 0.70481322978495 0.393288143086556 C 0.0 **** 0.0
26 C7815 0.187043312536457 0.696794287740077 0.377079794459313 C 0.0 **** 0.0
27 C7821 0.236279271646374 0.659735174464047 0.336265799414665 C 0.0 **** 0.0
28 C7822 0.25337143238588 0.662629714487633 0.338982234888785 C.Trigonal 0.0 **** 0.0
29 C7823 0.258823711952286 0.673854059517954 0.351140773186982 C.Trigonal 0.0 **** 0.0
30 C7824 0.247087811880648 0.682774411285904 0.360613646139883 C 0.0 **** 0.0
31 C7830 0.277553909584212 0.675998963743147 0.354856362992259 C 0.0 **** 0.0
32 C7831 0.289653708484366 0.665739909753935 0.345120602953217 C.Trigonal 0.0 **** 0.0
33 C7832 0.284357678005223 0.655578956909694 0.332444476876454 C.Trigonal 0.0 **** 0.0
34 C7833 0.26631746299193 0.653331743522424 0.328554111749674 C 0.0 **** 0.0
35 C7839 0.297043066139163 0.646085931312385 0.321552608782777 C 0.0 **** 0.0
36 C7840 0.313499830071972 0.656552909638407 0.319761014838344 C 0.0 **** 0.0
37 C7841 0.320087182795743 0.661460876164888 0.337095751285804 C.Trigonal 0.0 **** 0.0
38 C7842 0.308189427198862 0.666327042856492 0.34957626282564 C.Trigonal 0.0 **** 0.0
39 N7848 0.312920943014286 0.669644893863745 0.365528920074487 N 0.0 **** 0.0
40 C7849 0.329371533129936 0.668043383987909 0.369405409757499 C.Trigonal 0.0 **** 0.0
41 C7850 0.342049067280543 0.665013858060433 0.357081661445491 C.Trigonal 0.0 **** 0.0
42 C7851 0.337130773385092 0.661781333383044 0.340799702294443 C.Trigonal 0.0 **** 0.0
43 C7857 0.350094316358425 0.657965305577625 0.327083903709981 C 0.0 **** 0.0
44 C7858 0.367783606257397 0.664343133753716 0.331817661428225 C 0.0 **** 0.0
45 C7859 0.372269465816599 0.65814164371297 0.349534564977166 C 0.0 **** 0.0
46 C7860 0.360413566201228 0.666126052601936 0.362584209207133 C 0.0 **** 0.0
47 C7866 0.362099355873631 0.657983137855133 0.380248674981696 C 0.0 **** 0.0
48 C7867 0.349764261995763 0.666453390314687 0.392230553836048 C.Trigonal 0.0 **** 0.0
49 C7868 0.333452625312057 0.670608264122777 0.386532180878407 C.Trigonal 0.0 **** 0.0
50 C7873 0.321904204168482 0.678135421911433 0.397891953462262 C 0.0 **** 0.0
51 C7874 0.327077109652341 0.68223895722649 0.413912364083968 C 0.0 **** 0.0
52 C7875 0.343202792077193 0.678322932229125 0.419521865384791 C 0.0 **** 0.0
53 C7876 0.354345498239412 0.669866113262451 0.408769775269702 C 0.0 **** 0.0
54 C7882 0.185145975847815 0.579888636553458 0.276045647913987 C 0.0 **** 0.0
55 C7884 0.18442597909366 0.568521447948834 0.291736706590945 C 0.0 **** 0.0
56 C7886 0.149181610849469 0.584270963271577 0.269409015096627 C 0.0 **** 0.0
57 C7888 0.204411955824128 0.607733232711756 0.290768500132793 C 0.0 **** 0.0
58 C7890 0.13388235852523 0.617333603147169 0.273271242464655 C 0.0 **** 0.0
59 C7892 0.131418612688004 0.666514873190533 0.304622009888128 C 0.0 **** 0.0
60 C7894 0.140040629773257 0.678844476367368 0.336940583264198 C 0.0 **** 0.0
61 O7896 0.166406981897175 0.691604640844433 0.352203351345546 O 0.0 **** 0.0
62 C7898 0.199893513244628 0.723071640226662 0.389552634515748 C 0.0 **** 0.0
63 C7900 0.214486984816147 0.699568599780013 0.417678213992477 C 0.0 **** 0.0
64 O7902 0.252207257846052 0.694594341472016 0.372334465717676 O 0.0 **** 0.0
65 O7904 0.231070307211436 0.647355500732663 0.325317527735852 O 0.0 **** 0.0
66 O7906 0.261716226947127 0.644319527745878 0.317038328181642 O 0.0 **** 0.0
67 O7908 0.281881070339882 0.685954992796018 0.365744891832345 O 0.0 **** 0.0
68 C7910 0.371643788968947 0.664660150246257 0.415137403806322 C 0.0 **** 0.0
69 C7912 0.348053114835926 0.683561127361545 0.437270912068394 C 0.0 **** 0.0
70 H7914 0.198951324691525 0.636856179132528 0.303044506090991 H 0.0 **** 0.0
71 H7916 0.193240626603728 0.648493369475453 0.285021746040936 H 0.0 **** 0.0
72 H7918 0.157949496110175 0.653335293400153 0.275101555348469 H 0.0 **** 0.0
73 H7920 0.140658207724608 0.644663376676206 0.286054192387981 H 0.0 **** 0.0
74 H7922 0.20870291694522 0.657278228090925 0.315512087444272 H 0.0 **** 0.0
75 H7924 0.232201970209696 0.683801411959543 0.392402300964172 H 0.0 **** 0.0
76 H7926 0.229072900929288 0.705452025536022 0.387256848518817 H 0.0 **** 0.0
77 H7928 0.203221325724811 0.680602325154549 0.401836176544497 H 0.0 **** 0.0
78 H7930 0.18383659175438 0.705396907288918 0.402662936339757 H 0.0 **** 0.0
79 H7932 0.180139829797195 0.706963682448429 0.370630348565137 H 0.0 **** 0.0
80 H7934 0.177847624300416 0.687000297302208 0.380802483607516 H 0.0 **** 0.0
81 H7936 0.299872475101308 0.633768271901012 0.327379590529992 H 0.0 **** 0.0
82 H7938 0.292055106224533 0.643391415626993 0.308806875288285 H 0.0 **** 0.0
83 H7940 0.311065587435544 0.66804513732963 0.31227155197021 H 0.0 **** 0.0
84 H7942 0.322742564801624 0.64906191212508 0.31257734258677 H 0.0 **** 0.0
85 H7944 0.350751718338745 0.644169804310256 0.325087603248979 H 0.0 **** 0.0
86 H7946 0.346266341478324 0.663567039483046 0.314946127735979 H 0.0 **** 0.0
87 H7948 0.368109714584054 0.678285454386989 0.331512004293005 H 0.0 **** 0.0
88 H7950 0.377135296792816 0.65997604522412 0.322450159569321 H 0.0 **** 0.0
89 H7952 0.385535732126876 0.661011522968359 0.352709254579406 H 0.0 **** 0.0
90 H7954 0.370998893669661 0.644290019538131 0.34995864308558 H 0.0 **** 0.0
91 H7956 0.363848863093948 0.679648331452708 0.363629140565222 H 0.0 **** 0.0
92 H7958 0.359435420129597 0.644297390783538 0.379446313171101 H 0.0 **** 0.0
93 H7960 0.375284037991931 0.659208424396315 0.384442705116122 H 0.0 **** 0.0
94 H7962 0.309155655322184 0.681665116896967 0.393628777551471 H 0.0 **** 0.0
95 H7964 0.318269231310736 0.688786816473177 0.422429155799521 H 0.0 **** 0.0
96 H7966 0.198345507726048 0.581567319867045 0.271952045109128 H 0.0 **** 0.0
97 H7968 0.179161325072216 0.573425808127598 0.265267004183052 H 0.0 **** 0.0
98 H7970 0.171286160822774 0.566273088719009 0.295724233251726 H 0.0 **** 0.0
99 H7972 0.19114678240567 0.574267143089547 0.302482278681088 H 0.0 **** 0.0
100 H7974 0.190232316282337 0.556122322129996 0.289286267214435 H 0.0 **** 0.0
101 H7976 0.136241321057613 0.58455423086391 0.274493082106137 H 0.0 **** 0.0
102 H7978 0.154171737084836 0.571885160607719 0.273168364197265 H 0.0 **** 0.0
103 H7980 0.14834661199879 0.58438326897027 0.255499854224708 H 0.0 **** 0.0
104 H7982 0.207386876607595 0.613358602284693 0.303110736200287 H 0.0 **** 0.0
105 H7984 0.212536379452141 0.613640033475646 0.2811364169702 H 0.0 **** 0.0
106 H7986 0.208329954458244 0.594492263974834 0.291870499097823 H 0.0 **** 0.0
107 H7988 0.131770736398637 0.629510724639545 0.266967876405753 H 0.0 **** 0.0
108 H7990 0.125841166918473 0.61700441119332 0.284650726302698 H 0.0 **** 0.0
109 H7992 0.128967687556071 0.607793815871522 0.264487657464398 H 0.0 **** 0.0
110 H7994 0.125206757682294 0.67793381594541 0.309485401734346 H 0.0 **** 0.0
111 H7996 0.123554030510774 0.655562068504558 0.307848795901089 H 0.0 **** 0.0
112 H7998 0.131068904691687 0.667904251735551 0.290831712345875 H 0.0 **** 0.0
113 H8000 0.142224448553584 0.67751236896079 0.350563815515709 H 0.0 **** 0.0
114 H8002 0.127917056915826 0.672352108749888 0.334934739313501 H 0.0 **** 0.0
115 H8004 0.138157414379851 0.692310895789772 0.334064828962553 H 0.0 **** 0.0
116 H8006 0.170613546018493 0.702844388100319 0.351479764142852 H 0.0 **** 0.0
117 H8008 0.204992471125589 0.729110578240934 0.400975691093905 H 0.0 **** 0.0
118 H8010 0.189160211427038 0.730733192306599 0.385134678177119 H 0.0 **** 0.0
119 H8012 0.209593976812278 0.723354795575191 0.379598074154695 H 0.0 **** 0.0
120 H8014 0.223837785815689 0.690639262935297 0.422803750117308 H 0.0 **** 0.0
121 H8016 0.203892877109794 0.700308053926672 0.426650543545306 H 0.0 **** 0.0
122 H8018 0.220463293525596 0.712081198034666 0.416779431511769 H 0.0 **** 0.0
123 H8020 0.264249956467687 0.694365425774261 0.373187942277246 H 0.0 **** 0.0
124 H8022 0.240298798993659 0.643262101360557 0.318630252823401 H 0.0 **** 0.0
125 H8024 0.374227595981572 0.65127938432981 0.41227066099102 H 0.0 **** 0.0
126 H8026 0.372966721903231 0.665981665453611 0.428871508043041 H 0.0 **** 0.0
127 H8028 0.3817209506965 0.67227532749532 0.409292965689885 H 0.0 **** 0.0
128 H8030 0.35090708932205 0.67260583414435 0.445339619114641 H 0.0 **** 0.0
129 H8032 0.337841556755726 0.690629885071075 0.44347789758823 H 0.0 **** 0.0
130 H8034 0.359249709651969 0.691829607309321 0.437220199540369 H 0.0 **** 0.0
@<TRIPOS>BOND
1 3 2 Aromatic
2 4 3 Aromatic
3 5 4 Aromatic
4 6 5 Aromatic
5 1 2 Aromatic
6 1 6 Aromatic
7 8 7 1
8 9 8 Aromatic
9 10 9 1
10 4 7 1
11 3 10 1
12 12 11 Aromatic
13 13 12 Aromatic
14 14 13 Aromatic
15 9 11 Aromatic
16 8 14 Aromatic
17 16 15 Aromatic
18 17 16 Aromatic
19 18 17 Aromatic
20 14 15 Aromatic
21 13 18 Aromatic
22 20 19 1
23 21 20 1
24 22 21 Aromatic
25 17 19 1
26 16 22 Aromatic
27 24 23 1
28 25 24 Aromatic
29 26 25 1
30 20 23 1
31 19 26 1
32 28 27 Aromatic
33 29 28 Aromatic
34 30 29 Aromatic
35 22 27 Aromatic
36 21 30 Aromatic
37 32 31 1
38 33 32 Aromatic
39 34 33 1
40 29 31 1
41 28 34 1
42 36 35 1
43 37 36 1
44 38 37 Aromatic
45 33 35 1
46 32 38 Aromatic
47 40 39 Aromatic
48 41 40 Aromatic
49 42 41 Aromatic
50 38 39 Aromatic
51 37 42 Aromatic
52 44 43 1
53 45 44 1
54 46 45 1
55 42 43 1
56 41 46 1
57 48 47 1
58 49 48 Aromatic
59 40 49 Aromatic
60 46 47 1
61 51 50 Aromatic
62 52 51 Aromatic
63 53 52 Aromatic
64 49 50 Aromatic
65 48 53 Aromatic
66 6 54 1
67 54 55 1
68 1 56 1
69 5 57 1
70 2 58 1
71 11 59 1
72 12 60 1
73 18 61 1
74 25 62 1
75 24 63 1
76 30 64 1
77 27 65 1
78 34 66 Double
79 31 67 Double
80 53 68 1
81 52 69 1
82 7 70 1
83 7 71 1
84 10 72 1
85 10 73 1
86 15 74 1
87 23 75 1
88 23 76 1
89 24 77 1
90 25 78 1
91 26 79 1
92 26 80 1
93 35 81 1
94 35 82 1
95 36 83 1
96 36 84 1
97 43 85 1
98 43 86 1
99 44 87 1
100 44 88 1
101 45 89 1
102 45 90 1
103 46 91 1
104 47 92 1
105 47 93 1
106 50 94 1
107 51 95 1
108 54 96 1
109 54 97 1
110 55 98 1
111 55 99 1
112 55 100 1
113 56 101 1
114 56 102 1
115 56 103 1
116 57 104 1
117 57 105 1
118 57 106 1
119 58 107 1
120 58 108 1
121 58 109 1
122 59 110 1
123 59 111 1
124 59 112 1
125 60 113 1
126 60 114 1
127 60 115 1
128 61 116 1
129 62 117 1
130 62 118 1
131 62 119 1
132 63 120 1
133 63 121 1
134 63 122 1
135 64 123 1
136 65 124 1
137 68 125 1
138 68 126 1
139 68 127 1
140 69 128 1
141 69 129 1
142 69 130 1
@<TRIPOS>MOLECULE
Sketch 4
130 142
SMALL
USER_CHARGES


@<TRIPOS>ATOM
1 C8036 0.210326505896598 0.51592373679376 0.799909956545179 C.Trigonal 0.0 **** 0.0
2 C8037 0.217959883000546 0.529921009599841 0.807106046861057 C 0.0 **** 0.0
3 C8038 0.222374418689196 0.529789209916561 0.824077814041429 C.Trigonal 0.0 **** 0.0
4 C8039 0.21993988283325 0.51550656035834 0.833656134139159 C.Trigonal 0.0 **** 0.0
5 C8040 0.212032315734915 0.501560108480244 0.826580261718227 C 0.0 **** 0.0
6 C8041 0.20676169421747 0.501968835896795 0.809854197991738 C 0.0 **** 0.0
7 C8048 0.225647214324156 0.514947770449412 0.852024607569461 C 0.0 **** 0.0
8 C8049 0.233471048843027 0.530785774054129 0.859613593592446 C.Trigonal 0.0 **** 0.0
9 C8050 0.235028411964622 0.545286240409215 0.850236812537671 C.Trigonal 0.0 **** 0.0
10 C8051 0.229880905140474 0.545727385337682 0.831711733846821 C 0.0 **** 0.0
11 C8057 0.240810041189959 0.560187036650237 0.857600148128675 C 0.0 **** 0.0
12 C8058 0.2458639244346 0.560705727188898 0.874350297082535 C 0.0 **** 0.0
13 C8059 0.247292589583713 0.545420685070102 0.883075777175792 C.Trigonal 0.0 **** 0.0
14 C8060 0.239403648713448 0.530824616223188 0.876375548615286 C.Trigonal 0.0 **** 0.0
15 C8066 0.238783670063059 0.516318925418471 0.886404444270849 C 0.0 **** 0.0
16 C8067 0.247286218838246 0.515024026474845 0.90193802480944 C.Trigonal 0.0 **** 0.0
17 C8068 0.25750657985836 0.528892709215311 0.906995280497889 C.Trigonal 0.0 **** 0.0
18 C8069 0.257760115163012 0.543777969515645 0.897531221805152 C 0.0 **** 0.0
19 C8075 0.26876453395865 0.526355202943452 0.922320416380594 C.Trigonal 0.0 **** 0.0
20 C8076 0.272457367970167 0.510437962532139 0.927771810487164 C.Trigonal 0.0 **** 0.0
21 C8077 0.262426071371827 0.495541822388696 0.920774717959841 C.Trigonal 0.0 **** 0.0
22 C8078 0.248038141148415 0.499347948103698 0.910991995134943 C.Trigonal 0.0 **** 0.0
23 C8084 0.283488244681217 0.50716263895319 0.943365245625761 C 0.0 **** 0.0
24 C8085 0.291708363462299 0.523204117834999 0.950852358073093 C 0.0 **** 0.0
25 C8086 0.279095213786533 0.538033918094603 0.950109093482809 C 0.0 **** 0.0
26 C8087 0.274773401726602 0.542103107758451 0.931645349444639 C 0.0 **** 0.0
27 C8093 0.235903229723074 0.486413947777591 0.908364187716016 C 0.0 **** 0.0
28 C8094 0.240214054694131 0.469790972874078 0.911691551062338 C.Trigonal 0.0 **** 0.0
29 C8095 0.256127299053173 0.465840604154445 0.917723455690375 C.Trigonal 0.0 **** 0.0
30 C8096 0.267187628203857 0.478596307194792 0.922782607189165 C 0.0 **** 0.0
31 C8102 0.261423119247141 0.447546207631424 0.919545172019089 C 0.0 **** 0.0
32 C8103 0.248668877972932 0.434378416009136 0.916039980994651 C.Trigonal 0.0 **** 0.0
33 C8104 0.232658279160532 0.438375964497508 0.911502197267348 C.Trigonal 0.0 **** 0.0
34 C8105 0.22738277336518 0.456011758258254 0.90870623130197 C 0.0 **** 0.0
35 C8111 0.219369745546814 0.424659462825001 0.909184728608393 C 0.0 **** 0.0
36 C8112 0.222932253407371 0.40968612033574 0.921317601761963 C 0.0 **** 0.0
37 C8113 0.241131450457992 0.403689320222722 0.919618307506738 C.Trigonal 0.0 **** 0.0
38 C8114 0.253830556362683 0.416115231398445 0.917414696258643 C.Trigonal 0.0 **** 0.0
39 N8120 0.270180973877098 0.411985990860909 0.916005016629537 N 0.0 **** 0.0
40 C8121 0.274519876070111 0.39569016064556 0.917567313417344 C.Trigonal 0.0 **** 0.0
41 C8122 0.262462228515685 0.382588308226603 0.91956639614479 C.Trigonal 0.0 **** 0.0
42 C8123 0.245680433686131 0.386850286383571 0.920564796719443 C.Trigonal 0.0 **** 0.0
43 C8129 0.232170063273772 0.373358712146047 0.923314096333365 C 0.0 **** 0.0
44 C8130 0.238665091161257 0.355334593895791 0.9203382561104 C 0.0 **** 0.0
45 C8131 0.255945000058178 0.352848186496343 0.928473854653028 C 0.0 **** 0.0
46 C8132 0.268672211402317 0.364415669293689 0.919584583705766 C 0.0 **** 0.0
47 C8138 0.286396257757284 0.363654089377851 0.927711439367588 C 0.0 **** 0.0
48 C8139 0.298014316539526 0.376080452297553 0.91895147464902 C.Trigonal 0.0 **** 0.0
49 C8140 0.291887031576102 0.392411331692072 0.915577253503141 C.Trigonal 0.0 **** 0.0
50 C8145 0.302877376376448 0.404721126129747 0.908731107136889 C 0.0 **** 0.0
51 C8146 0.318795419880279 0.400106578829267 0.903707545805974 C 0.0 **** 0.0
52 C8147 0.324522283114537 0.383750156481658 0.906088704201807 C 0.0 **** 0.0
53 C8148 0.314355756049714 0.371924447434628 0.914377168506881 C 0.0 **** 0.0
54 C8154 0.196789138628884 0.487200615993509 0.802738589429286 C 0.0 **** 0.0
55 C8156 0.177962485748819 0.491763187212174 0.803400204262904 C 0.0 **** 0.0
56 C8158 0.205683956541784 0.516526112997624 0.781323964826623 C 0.0 **** 0.0
57 C8160 0.208859527683975 0.485770228603755 0.837033857518412 C 0.0 **** 0.0
58 C8162 0.221627502306671 0.545664398589767 0.796742295875146 C 0.0 **** 0.0
59 C8164 0.241420436196915 0.576370090185825 0.847324896408428 C 0.0 **** 0.0
60 C8166 0.250631855779925 0.57766628694309 0.881921540601645 C 0.0 **** 0.0
61 O8168 0.268402008780526 0.556635929014515 0.902182300790429 O 0.0 **** 0.0
62 C8170 0.285918935977778 0.55387225104065 0.959115176381967 C 0.0 **** 0.0
63 C8172 0.308448727624909 0.527033256613172 0.941587063229837 C 0.0 **** 0.0
64 O8174 0.282575866218233 0.474902748261415 0.929968287158329 O 0.0 **** 0.0
65 O8176 0.220339777192136 0.490798580478136 0.901998866029748 O 0.0 **** 0.0
66 O8178 0.213096096643284 0.459749016716562 0.904369890195637 O 0.0 **** 0.0
67 O8180 0.275895494437118 0.444550638751191 0.923831206561515 O 0.0 **** 0.0
68 C8182 0.321938730819523 0.354678101926001 0.917736412102185 C 0.0 **** 0.0
69 C8184 0.341955908976203 0.37925147104735 0.899705194101365 C 0.0 **** 0.0
70 H8186 0.214588607549062 0.511631010071006 0.859879572217651 H 0.0 **** 0.0
71 H8188 0.234844431715077 0.504519271752526 0.853300091184944 H 0.0 **** 0.0
72 H8190 0.241043592882806 0.549340904227495 0.824150660732634 H 0.0 **** 0.0
73 H8192 0.220472102724183 0.55593616370099 0.830218476755234 H 0.0 **** 0.0
74 H8194 0.232674520415967 0.505086315959994 0.88109007285748 H 0.0 **** 0.0
75 H8196 0.275675730505811 0.501186664844233 0.953240447849198 H 0.0 **** 0.0
76 H8198 0.293841597206507 0.498357149277143 0.940485285504122 H 0.0 **** 0.0
77 H8200 0.294757875309719 0.520675230173434 0.964204966324854 H 0.0 **** 0.0
78 H8202 0.267410473288915 0.534190975494561 0.956587550718587 H 0.0 **** 0.0
79 H8204 0.285916129012457 0.547544464319533 0.925327734754965 H 0.0 **** 0.0
80 H8206 0.264832102522429 0.551876180858405 0.931768538569065 H 0.0 **** 0.0
81 H8208 0.206480171027732 0.42939104900839 0.911695832348266 H 0.0 **** 0.0
82 H8210 0.219340727086014 0.42007424020776 0.896042222871784 H 0.0 **** 0.0
83 H8212 0.213706606576812 0.399664813971602 0.918633726433367 H 0.0 **** 0.0
84 H8214 0.220526546625355 0.41370399225586 0.934474996933324 H 0.0 **** 0.0
85 H8216 0.227445185058189 0.374328500384425 0.936414680433017 H 0.0 **** 0.0
86 H8218 0.22125149964192 0.375505521834449 0.914988609053428 H 0.0 **** 0.0
87 H8220 0.239979833179651 0.353044033960576 0.906661169505045 H 0.0 **** 0.0
88 H8222 0.229385993958559 0.346048600883064 0.925018663416793 H 0.0 **** 0.0
89 H8224 0.260029148757458 0.339565750829462 0.927399136829282 H 0.0 **** 0.0
90 H8226 0.255323860675323 0.355791381655095 0.942092881727443 H 0.0 **** 0.0
91 H8228 0.269808382822536 0.360083807284794 0.90631611375566 H 0.0 **** 0.0
92 H8230 0.285425519838811 0.366796010091829 0.941277580001565 H 0.0 **** 0.0
93 H8232 0.290911850933673 0.350588086911619 0.927090840888896 H 0.0 **** 0.0
94 H8234 0.298331693113968 0.417629341610764 0.906328297658067 H 0.0 **** 0.0
95 H8236 0.327179957309717 0.409450378161968 0.897776457098629 H 0.0 **** 0.0
96 H8238 0.198857503992907 0.475461460524903 0.80987132545667 H 0.0 **** 0.0
97 H8240 0.200643876331924 0.483948904370735 0.789789798577366 H 0.0 **** 0.0
98 H8242 0.175195283663551 0.503076102858938 0.795803224231432 H 0.0 **** 0.0
99 H8244 0.173978368978102 0.494365825627844 0.816482180078147 H 0.0 **** 0.0
100 H8246 0.169950575441719 0.481477865539929 0.798624738351684 H 0.0 **** 0.0
101 H8248 0.194839488462894 0.524981748230326 0.779180826154974 H 0.0 **** 0.0
102 H8250 0.202348109354423 0.504243470074685 0.775934407785858 H 0.0 **** 0.0
103 H8252 0.216344327987646 0.521110991632053 0.773634504169071 H 0.0 **** 0.0
104 H8254 0.195295393620255 0.482632134186266 0.83738466311174 H 0.0 **** 0.0
105 H8256 0.21293535121294 0.486789716572936 0.850230036740417 H 0.0 **** 0.0
106 H8258 0.215664363040442 0.474837264991806 0.83171144622551 H 0.0 **** 0.0
107 H8260 0.235286722746706 0.547051034169045 0.794397493979908 H 0.0 **** 0.0
108 H8262 0.217319625881047 0.557182202682997 0.80324186347172 H 0.0 **** 0.0
109 H8264 0.215405296387426 0.54577795327757 0.784370781622191 H 0.0 **** 0.0
110 H8266 0.253510917018513 0.582909169272366 0.849227143334814 H 0.0 **** 0.0
111 H8268 0.231188680104576 0.585051811240513 0.851071051321447 H 0.0 **** 0.0
112 H8270 0.240403133838117 0.574505469365811 0.833640381439885 H 0.0 **** 0.0
113 H8272 0.264013591247204 0.580803573346192 0.879847795575748 H 0.0 **** 0.0
114 H8274 0.247949006348089 0.578246164073095 0.895557933726237 H 0.0 **** 0.0
115 H8276 0.243154815773642 0.588051392469517 0.876464827632055 H 0.0 **** 0.0
116 H8278 0.267126658745843 0.565463488842201 0.894186375815972 H 0.0 **** 0.0
117 H8280 0.28954741355083 0.550832595988056 0.97218376940614 H 0.0 **** 0.0
118 H8282 0.276177668543536 0.56378959487899 0.959514372817084 H 0.0 **** 0.0
119 H8284 0.297016056411545 0.558998343542367 0.952505727412632 H 0.0 **** 0.0
120 H8286 0.317316867844343 0.516425661524941 0.943087906380094 H 0.0 **** 0.0
121 H8288 0.314529237030569 0.538370139608253 0.946827475522036 H 0.0 **** 0.0
122 H8290 0.306347538204032 0.528963303566426 0.92798941931949 H 0.0 **** 0.0
123 H8292 0.284463764397811 0.46298577884549 0.929271241413545 H 0.0 **** 0.0
124 H8294 0.213277554051672 0.481001251457865 0.901796758513441 H 0.0 **** 0.0
125 H8296 0.315846976134311 0.347829274647988 0.928109944691989 H 0.0 **** 0.0
126 H8298 0.335333441796689 0.355659749937151 0.921361346325282 H 0.0 **** 0.0
127 H8300 0.321302159477182 0.346716702410532 0.906349764415144 H 0.0 **** 0.0
128 H8302 0.350933279915032 0.377615602708123 0.910221857692523 H 0.0 **** 0.0
129 H8304 0.347006933778253 0.389100968223514 0.891323093514722 H 0.0 **** 0.0
130 H8306 0.341823014696342 0.367445724845074 0.892338126287274 H 0.0 **** 0.0
@<TRIPOS>BOND
1 3 2 Aromatic
2 4 3 Aromatic
3 5 4 Aromatic
4 6 5 Aromatic
5 1 2 Aromatic
6 1 6 Aromatic
7 8 7 1
8 9 8 Aromatic
9 10 9 1
10 4 7 1
11 3 10 1
12 12 11 Aromatic
13 13 12 Aromatic
14 14 13 Aromatic
15 9 11 Aromatic
16 8 14 Aromatic
17 16 15 Aromatic
18 17 16 Aromatic
19 18 17 Aromatic
20 14 15 Aromatic
21 13 18 Aromatic
22 20 19 1
23 21 20 1
24 22 21 Aromatic
25 17 19 1
26 16 22 Aromatic
27 24 23 1
28 25 24 Aromatic
29 26 25 1
30 20 23 1
31 19 26 1
32 28 27 Aromatic
33 29 28 Aromatic
34 30 29 Aromatic
35 22 27 Aromatic
36 21 30 Aromatic
37 32 31 1
38 33 32 Aromatic
39 34 33 1
40 29 31 1
41 28 34 1
42 36 35 1
43 37 36 1
44 38 37 Aromatic
45 33 35 1
46 32 38 Aromatic
47 40 39 Aromatic
48 41 40 Aromatic
49 42 41 Aromatic
50 38 39 Aromatic
51 37 42 Aromatic
52 44 43 1
53 45 44 1
54 46 45 1
55 42 43 1
56 41 46 1
57 48 47 1
58 49 48 Aromatic
59 40 49 Aromatic
60 46 47 1
61 51 50 Aromatic
62 52 51 Aromatic
63 53 52 Aromatic
64 49 50 Aromatic
65 48 53 Aromatic
66 6 54 1
67 54 55 1
68 1 56 1
69 5 57 1
70 2 58 1
71 11 59 1
72 12 60 1
73 18 61 1
74 25 62 1
75 24 63 1
76 30 64 1
77 27 65 1
78 34 66 Double
79 31 67 Double
80 53 68 1
81 52 69 1
82 7 70 1
83 7 71 1
84 10 72 1
85 10 73 1
86 15 74 1
87 23 75 1
88 23 76 1
89 24 77 1
90 25 78 1
91 26 79 1
92 26 80 1
93 35 81 1
94 35 82 1
95 36 83 1
96 36 84 1
97 43 85 1
98 43 86 1
99 44 87 1
100 44 88 1
101 45 89 1
102 45 90 1
103 46 91 1
104 47 92 1
105 47 93 1
106 50 94 1
107 51 95 1
108 54 96 1
109 54 97 1
110 55 98 1
111 55 99 1
112 55 100 1
113 56 101 1
114 56 102 1
115 56 103 1
116 57 104 1
117 57 105 1
118 57 106 1
119 58 107 1
120 58 108 1
121 58 109 1
122 59 110 1
123 59 111 1
124 59 112 1
125 60 113 1
126 60 114 1
127 60 115 1
128 61 116 1
129 62 117 1
130 62 118 1
131 62 119 1
132 63 120 1
133 63 121 1
134 63 122 1
135 64 123 1
136 65 124 1
137 68 125 1
138 68 126 1
139 68 127 1
140 69 128 1
141 69 129 1
142 69 130 1
@<TRIPOS>MOLECULE
Sketch 4
130 142
SMALL
USER_CHARGES


@<TRIPOS>ATOM
1 C8308 0.971528604664914 0.413533961976109 0.233424417467895 C.Trigonal 0.0 **** 0.0
2 C8309 0.970591743803498 0.428072485371757 0.223666083660979 C 0.0 **** 0.0
3 C8310 0.955188483429444 0.436001736615149 0.221732462469932 C.Trigonal 0.0 **** 0.0
4 C8311 0.941303888665516 0.43029938311637 0.230615929059117 C.Trigonal 0.0 **** 0.0
5 C8312 0.942499336618867 0.416661350254457 0.24143778449299 C 0.0 **** 0.0
6 C8313 0.957638084883266 0.407983953082719 0.242567848866833 C 0.0 **** 0.0
7 C8320 0.925158575419197 0.440130532912364 0.227775615046589 C 0.0 **** 0.0
8 C8321 0.922465399043946 0.442180744999094 0.208935558421976 C.Trigonal 0.0 **** 0.0
9 C8322 0.935999957688653 0.448785504853393 0.200144757179891 C.Trigonal 0.0 **** 0.0
10 C8323 0.952253554344817 0.451198045832152 0.210262949234123 C 0.0 **** 0.0
11 C8329 0.9343205369762 0.453232150964882 0.183250034916757 C 0.0 **** 0.0
12 C8330 0.919141503780606 0.450549158919413 0.174836975576855 C 0.0 **** 0.0
13 C8331 0.907264805982773 0.439704958049076 0.18225135191358 C.Trigonal 0.0 **** 0.0
14 C8332 0.908515943069275 0.436341492092306 0.199849099679073 C.Trigonal 0.0 **** 0.0
15 C8338 0.896977168595511 0.425227164014434 0.207100218797747 C 0.0 **** 0.0
16 C8339 0.885199015738644 0.416057176687825 0.197626250424485 C.Trigonal 0.0 **** 0.0
17 C8340 0.886782441290883 0.416627815423114 0.179756700129568 C.Trigonal 0.0 **** 0.0
18 C8341 0.896338501435966 0.429282310686929 0.172202211953664 C 0.0 **** 0.0
19 C8347 0.87839874386229 0.402461824559618 0.169697577954901 C.Trigonal 0.0 **** 0.0
20 C8348 0.869480082040881 0.390494921148894 0.178274322615702 C.Trigonal 0.0 **** 0.0
21 C8349 0.863722288462204 0.393693651931498 0.196264227483186 C.Trigonal 0.0 **** 0.0
22 C8350 0.871955101702229 0.406560935513619 0.205392678252372 C.Trigonal 0.0 **** 0.0
23 C8356 0.866527023476064 0.372897391568568 0.171096360877684 C 0.0 **** 0.0
24 C8357 0.87989843524052 0.368858512066903 0.157596399027274 C 0.0 **** 0.0
25 C8358 0.879419035710299 0.382483718784087 0.143670908410546 C 0.0 **** 0.0
26 C8359 0.883939551276798 0.39991316736674 0.151239876785601 C 0.0 **** 0.0
27 C8365 0.865878908545963 0.410676656918715 0.221846031460738 C 0.0 **** 0.0
28 C8366 0.853199891379126 0.401070304412187 0.229048210657931 C.Trigonal 0.0 **** 0.0
29 C8367 0.845225175157905 0.388512168581647 0.219925281168121 C.Trigonal 0.0 **** 0.0
30 C8368 0.850002927917986 0.385167708624777 0.203333982064204 C 0.0 **** 0.0
31 C8374 0.830917403264371 0.378516828317774 0.227743613939261 C 0.0 **** 0.0
32 C8375 0.826244542883386 0.382389986283883 0.245380655230187 C.Trigonal 0.0 **** 0.0
33 C8376 0.834167322163352 0.394663444176135 0.254272767808215 C.Trigonal 0.0 **** 0.0
34 C8377 0.847830669759454 0.404830495317321 0.24694356305269 C 0.0 **** 0.0
35 C8383 0.829220681503704 0.398384513687165 0.272450851750316 C 0.0 **** 0.0
36 C8384 0.824369826712147 0.38173421779973 0.281459591071232 C 0.0 **** 0.0
37 C8385 0.811051448885213 0.372191340621853 0.271368765058999 C.Trigonal 0.0 **** 0.0
38 C8386 0.812259429575317 0.372394975187295 0.25350054537524 C.Trigonal 0.0 **** 0.0
39 N8392 0.801401517643926 0.363844128896952 0.243756386297312 N 0.0 **** 0.0
40 C8393 0.789508085190505 0.35446060889976 0.251300089500721 C.Trigonal 0.0 **** 0.0
41 C8394 0.787275258711795 0.354043007639603 0.269060616431399 C.Trigonal 0.0 **** 0.0
42 C8395 0.798275175406992 0.363044514677511 0.278991049927708 C.Trigonal 0.0 **** 0.0
43 C8401 0.797027535775129 0.362516176306692 0.298238130524375 C 0.0 **** 0.0
44 C8402 0.780352021774245 0.354989587776424 0.30467716388941 C 0.0 **** 0.0
45 C8403 0.775682574747753 0.339236023130401 0.294610879108658 C 0.0 **** 0.0
46 C8404 0.772363794841097 0.344304082091894 0.276209260990226 C 0.0 **** 0.0
47 C8410 0.768543044450016 0.328863476641822 0.264875972068592 C 0.0 **** 0.0
48 C8411 0.76707894955522 0.334141698586522 0.246510494998842 C.Trigonal 0.0 **** 0.0
49 C8412 0.778738326397287 0.345873967623001 0.240070929648189 C.Trigonal 0.0 **** 0.0
50 C8417 0.778873915378033 0.349475428544652 0.222578814674279 C 0.0 **** 0.0
51 C8418 0.766969332070509 0.342273717917844 0.212288679153668 C 0.0 **** 0.0
52 C8419 0.75484631989203 0.331415324594038 0.21874479184129 C 0.0 **** 0.0
53 C8420 0.754978058624517 0.327253224997129 0.235905783969294 C 0.0 **** 0.0
54 C8426 0.959132282451921 0.392436869420565 0.25374934442298 C 0.0 **** 0.0
55 C8428 0.952444408182982 0.376890589455776 0.244289993525556 C 0.0 **** 0.0
56 C8430 0.988005044828462 0.403858899685641 0.234300689707614 C 0.0 **** 0.0
57 C8432 0.927052748652158 0.411621411162669 0.251485355298466 C 0.0 **** 0.0
58 C8434 0.986234899554694 0.434973784477404 0.215088645978519 C 0.0 **** 0.0
59 C8436 0.948954212954764 0.461483620778243 0.174092508810095 C 0.0 **** 0.0
60 C8438 0.917389800723083 0.457595639000494 0.15709738068983 C 0.0 **** 0.0
61 O8440 0.896459591443774 0.431495577533216 0.155040408548727 O 0.0 **** 0.0
62 C8442 0.862199391900899 0.383362505933955 0.134549872534908 C 0.0 **** 0.0
63 C8444 0.877176090556831 0.350993600655392 0.150418296633331 C 0.0 **** 0.0
64 O8446 0.84137260360366 0.37368177401657 0.193520850892993 O 0.0 **** 0.0
65 O8448 0.872514926759643 0.42436632442885 0.230174743212638 O 0.0 **** 0.0
66 O8450 0.854956006503553 0.41594353772304 0.254858859658172 O 0.0 **** 0.0
67 O8452 0.824157417129061 0.367609373392499 0.219250353049782 O 0.0 **** 0.0
68 C8454 0.74203283716219 0.314764610595338 0.242535588537101 C 0.0 **** 0.0
69 C8456 0.741927001851094 0.324370171579022 0.206556305323214 C 0.0 **** 0.0
70 H8458 0.91428122510712 0.434783477406771 0.234330583922945 H 0.0 **** 0.0
71 H8460 0.926637137972895 0.452782624559999 0.233564006982758 H 0.0 **** 0.0
72 H8462 0.951168151249776 0.462617121334541 0.218192560095254 H 0.0 **** 0.0
73 H8464 0.963086341516817 0.453303612696931 0.202010826227626 H 0.0 **** 0.0
74 H8466 0.898118840730439 0.422593122366283 0.220612831388363 H 0.0 **** 0.0
75 H8468 0.867629270415264 0.363237893813218 0.181101228896745 H 0.0 **** 0.0
76 H8470 0.853765277905132 0.371782756054231 0.165670862970415 H 0.0 **** 0.0
77 H8472 0.892486731662489 0.369096728493481 0.163561315022846 H 0.0 **** 0.0
78 H8474 0.88905648286777 0.37930265312252 0.134123168556827 H 0.0 **** 0.0
79 H8476 0.878246619552465 0.409642773903524 0.143082150607611 H 0.0 **** 0.0
80 H8478 0.897750635835933 0.401301909571511 0.150194339083607 H 0.0 **** 0.0
81 H8480 0.839483191591331 0.404533425744069 0.279647483905981 H 0.0 **** 0.0
82 H8482 0.818447327630771 0.407230261855464 0.272606447647221 H 0.0 **** 0.0
83 H8484 0.820198558050768 0.384791067502065 0.294333229619414 H 0.0 **** 0.0
84 H8486 0.835768371389954 0.373784681218235 0.282895496207826 H 0.0 **** 0.0
85 H8488 0.807609524813522 0.354856610206338 0.30317182824693 H 0.0 **** 0.0
86 H8490 0.798467514493261 0.375238132845323 0.303653600615521 H 0.0 **** 0.0
87 H8492 0.770110133699586 0.36434398031203 0.303270518991414 H 0.0 **** 0.0
88 H8494 0.781353016217358 0.352252487168647 0.318301325315949 H 0.0 **** 0.0
89 H8496 0.764401299005095 0.333052092043475 0.299978087242881 H 0.0 **** 0.0
90 H8498 0.786051311943893 0.329920892768019 0.295273338722994 H 0.0 **** 0.0
91 H8500 0.761190550044385 0.35269904612836 0.27603863084751 H 0.0 **** 0.0
92 H8502 0.778921662440475 0.319592592397856 0.266160731283049 H 0.0 **** 0.0
93 H8504 0.757155652898711 0.322584754951529 0.269671863261425 H 0.0 **** 0.0
94 H8506 0.788120365176876 0.358399447683583 0.217271009304592 H 0.0 **** 0.0
95 H8508 0.767061078135876 0.345161329931913 0.198700636259596 H 0.0 **** 0.0
96 H8510 0.952258365784085 0.394133319915637 0.265727227846008 H 0.0 **** 0.0
97 H8512 0.972264741831343 0.390165600546085 0.257720717884229 H 0.0 **** 0.0
98 H8514 0.959714483645449 0.37460690991189 0.23264160566732 H 0.0 **** 0.0
99 H8516 0.939135774546264 0.378567302489318 0.240620946166459 H 0.0 **** 0.0
100 H8518 0.953233482425692 0.365380013854877 0.252061817795095 H 0.0 **** 0.0
101 H8520 0.986071519534395 0.390110128821768 0.234876481339642 H 0.0 **** 0.0
102 H8522 0.99538591025581 0.407659639813271 0.245474046678254 H 0.0 **** 0.0
103 H8524 0.995821026843349 0.405927701081493 0.223042550899445 H 0.0 **** 0.0
104 H8526 0.923750112901699 0.421458061448004 0.260781395395639 H 0.0 **** 0.0
105 H8528 0.928508276416242 0.399781505411914 0.258497207858617 H 0.0 **** 0.0
106 H8530 0.916126469805516 0.409832612838723 0.243099055762798 H 0.0 **** 0.0
107 H8532 0.997590228021401 0.433046601250093 0.22287128583882 H 0.0 **** 0.0
108 H8534 0.985535767111533 0.448685802063958 0.213179557603762 H 0.0 **** 0.0
109 H8536 0.988400399942926 0.428991910288651 0.202703478477464 H 0.0 **** 0.0
110 H8538 0.948186449176297 0.459889327172079 0.160333864819864 H 0.0 **** 0.0
111 H8540 0.961157278628206 0.455835440176185 0.177532861682758 H 0.0 **** 0.0
112 H8542 0.94946502136263 0.47512346177934 0.17679090600492 H 0.0 **** 0.0
113 H8544 0.904132967937372 0.460175293658749 0.153806528482495 H 0.0 **** 0.0
114 H8546 0.92269174609542 0.448916565127951 0.14758070811405 H 0.0 **** 0.0
115 H8548 0.923784746738456 0.469867272439855 0.155751987348022 H 0.0 **** 0.0
116 H8550 0.886974498149889 0.425776705383719 0.150524077885861 H 0.0 **** 0.0
117 H8552 0.858926865833495 0.371077930438791 0.128929582506927 H 0.0 **** 0.0
118 H8554 0.862652657630357 0.392683815787406 0.124248130869362 H 0.0 **** 0.0
119 H8556 0.852063406654589 0.387055266144283 0.143292042708162 H 0.0 **** 0.0
120 H8558 0.879192964318258 0.341469368426716 0.160352543249526 H 0.0 **** 0.0
121 H8560 0.886197231946386 0.348455859941214 0.140148308112409 H 0.0 **** 0.0
122 H8562 0.86425745661425 0.349464404531792 0.145523187334172 H 0.0 **** 0.0
123 H8564 0.832508627247282 0.368784828756162 0.200119743964188 H 0.0 **** 0.0
124 H8566 0.868241809816657 0.424517802782779 0.24148899545354 H 0.0 **** 0.0
125 H8568 0.747615295494793 0.302073035650052 0.243862223437265 H 0.0 **** 0.0
126 H8570 0.731019357971148 0.313568825693229 0.234177939395388 H 0.0 **** 0.0
127 H8572 0.736842849186381 0.31849080108675 0.254866402560902 H 0.0 **** 0.0
128 H8574 0.739925115917539 0.310761950740904 0.208461341995434 H 0.0 **** 0.0
129 H8576 0.745935037253442 0.325998979754292 0.193358240687106 H 0.0 **** 0.0
130 H8578 0.729615043165511 0.330727709909637 0.20799512032944 H 0.0 **** 0.0
@<TRIPOS>BOND
1 3 2 Aromatic
2 4 3 Aromatic
3 5 4 Aromatic
4 6 5 Aromatic
5 1 2 Aromatic
6 1 6 Aromatic
7 8 7 1
8 9 8 Aromatic
9 10 9 1
10 4 7 1
11 3 10 1
12 12 11 Aromatic
13 13 12 Aromatic
14 14 13 Aromatic
15 9 11 Aromatic
16 8 14 Aromatic
17 16 15 Aromatic
18 17 16 Aromatic
19 18 17 Aromatic
20 14 15 Aromatic
21 13 18 Aromatic
22 20 19 1
23 21 20 1
24 22 21 Aromatic
25 17 19 1
26 16 22 Aromatic
27 24 23 1
28 25 24 Aromatic
29 26 25 1
30 20 23 1
31 19 26 1
32 28 27 Aromatic
33 29 28 Aromatic
34 30 29 Aromatic
35 22 27 Aromatic
36 21 30 Aromatic
37 32 31 1
38 33 32 Aromatic
39 34 33 1
40 29 31 1
41 28 34 1
42 36 35 1
43 37 36 1
44 38 37 Aromatic
45 33 35 1
46 32 38 Aromatic
47 40 39 Aromatic
48 41 40 Aromatic
49 42 41 Aromatic
50 38 39 Aromatic
51 37 42 Aromatic
52 44 43 1
53 45 44 1
54 46 45 1
55 42 43 1
56 41 46 1
57 48 47 1
58 49 48 Aromatic
59 40 49 Aromatic
60 46 47 1
61 51 50 Aromatic
62 52 51 Aromatic
63 53 52 Aromatic
64 49 50 Aromatic
65 48 53 Aromatic
66 6 54 1
67 54 55 1
68 1 56 1
69 5 57 1
70 2 58 1
71 11 59 1
72 12 60 1
73 18 61 1
74 25 62 1
75 24 63 1
76 30 64 1
77 27 65 1
78 34 66 Double
79 31 67 Double
80 53 68 1
81 52 69 1
82 7 70 1
83 7 71 1
84 10 72 1
85 10 73 1
86 15 74 1
87 23 75 1
88 23 76 1
89 24 77 1
90 25 78 1
91 26 79 1
92 26 80 1
93 35 81 1
94 35 82 1
95 36 83 1
96 36 84 1
97 43 85 1
98 43 86 1
99 44 87 1
100 44 88 1
101 45 89 1
102 45 90 1
103 46 91 1
104 47 92 1
105 47 93 1
106 50 94 1
107 51 95 1
108 54 96 1
109 54 97 1
110 55 98 1
111 55 99 1
112 55 100 1
113 56 101 1
114 56 102 1
115 56 103 1
116 57 104 1
117 57 105 1
118 57 106 1
119 58 107 1
120 58 108 1
121 58 109 1
122 59 110 1
123 59 111 1
124 59 112 1
125 60 113 1
126 60 114 1
127 60 115 1
128 61 116 1
129 62 117 1
130 62 118 1
131 62 119 1
132 63 120 1
133 63 121 1
134 63 122 1
135 64 123 1
136 65 124 1
137 68 125 1
138 68 126 1
139 68 127 1
140 69 128 1
141 69 129 1
142 69 130 1
@<TRIPOS>MOLECULE
Sketch 4
130 142
SMALL
USER_CHARGES


@<TRIPOS>ATOM
1 C8580 0.481388735529831 0.568420725490399 0.623690124307007 C.Trigonal 0.0 **** 0.0
2 C8581 0.472484760565383 0.574399691513166 0.609841426639521 C 0.0 **** 0.0
3 C8582 0.455362888956068 0.57757032387352 0.611293430170093 C.Trigonal 0.0 **** 0.0
4 C8583 0.447353256897727 0.575958519691741 0.626712502673682 C.Trigonal 0.0 **** 0.0
5 C8584 0.456206194179773 0.570032940080357 0.640593202312403 C 0.0 **** 0.0
6 C8585 0.473318742567776 0.566443102715392 0.639090207809896 C 0.0 **** 0.0
7 C8592 0.42894175866357 0.581626869271154 0.6274755511032 C 0.0 **** 0.0
8 C8593 0.419019367355626 0.575661319131769 0.61217835137313 C.Trigonal 0.0 **** 0.0
9 C8594 0.426871476050082 0.576635488061255 0.596704904443206 C.Trigonal 0.0 **** 0.0
10 C8595 0.444868346876404 0.583385126156026 0.596291203403217 C 0.0 **** 0.0
11 C8601 0.4183494933314 0.572028933636657 0.582093373367492 C 0.0 **** 0.0
12 C8602 0.402782634797006 0.563983334518019 0.582849438268852 C 0.0 **** 0.0
13 C8603 0.394359523517744 0.563283570471257 0.598436930084439 C.Trigonal 0.0 **** 0.0
14 C8604 0.401953741071792 0.571161428518297 0.612705126283291 C.Trigonal 0.0 **** 0.0
15 C8610 0.391550202578587 0.575909988714331 0.62632602466576 C 0.0 **** 0.0
16 C8611 0.374113691650032 0.573290433409183 0.625846395025736 C.Trigonal 0.0 **** 0.0
17 C8612 0.368410460246061 0.56050380328484 0.614750319310469 C.Trigonal 0.0 **** 0.0
18 C8613 0.378109147172234 0.556110570394639 0.600631642796505 C 0.0 **** 0.0
19 C8619 0.350851841666625 0.55354656374706 0.617848921631525 C.Trigonal 0.0 **** 0.0
20 C8620 0.340008978837224 0.561577135817672 0.62853008740629 C.Trigonal 0.0 **** 0.0
21 C8621 0.345318783787458 0.57813379087121 0.63694629008185 C.Trigonal 0.0 **** 0.0
22 C8622 0.361994090960162 0.583949039812718 0.63412856970691 C.Trigonal 0.0 **** 0.0
23 C8628 0.32232969626869 0.554552216585217 0.632106731428343 C 0.0 **** 0.0
24 C8629 0.317036866473997 0.540108785593986 0.620238331691618 C 0.0 **** 0.0
25 C8630 0.331832482437236 0.5276673023653 0.618251671579238 C 0.0 **** 0.0
26 C8631 0.34688627678553 0.536505751725971 0.609837722584784 C 0.0 **** 0.0
27 C8637 0.366305251861047 0.60065725332493 0.639300850120749 C 0.0 **** 0.0
28 C8638 0.355178950438534 0.609760441448019 0.649201460752052 C.Trigonal 0.0 **** 0.0
29 C8639 0.340012675393798 0.602738776606638 0.654208924265531 C.Trigonal 0.0 **** 0.0
30 C8640 0.334880219898471 0.587068582501854 0.648054072286096 C 0.0 **** 0.0
31 C8646 0.328829026321689 0.611933086675472 0.666685143438091 C 0.0 **** 0.0
32 C8647 0.33442988941861 0.628618727055489 0.672862736764607 C.Trigonal 0.0 **** 0.0
33 C8648 0.348847128963432 0.635830475585331 0.667206129709405 C.Trigonal 0.0 **** 0.0
34 C8649 0.360034331855317 0.627229138465097 0.655071609059596 C 0.0 **** 0.0
35 C8655 0.354231647992303 0.653211125233365 0.6731908672688 C 0.0 **** 0.0
36 C8656 0.348638103430547 0.65671144320141 0.691664836528223 C 0.0 **** 0.0
37 C8657 0.330620762510182 0.650936528211797 0.695342435053864 C.Trigonal 0.0 **** 0.0
38 C8658 0.3236871208112 0.637415466564635 0.685871015616737 C.Trigonal 0.0 **** 0.0
39 N8664 0.30829183171041 0.631281414628603 0.689196182967079 N 0.0 **** 0.0
40 C8665 0.299892709645147 0.637258206299135 0.702554713811343 C.Trigonal 0.0 **** 0.0
41 C8666 0.305661616340792 0.651238451452271 0.712074200147823 C.Trigonal 0.0 **** 0.0
42 C8667 0.32114808025164 0.658037074552823 0.70823511693214 C.Trigonal 0.0 **** 0.0
43 C8673 0.328281310951453 0.67258231061665 0.718673163611886 C 0.0 **** 0.0
44 C8674 0.314427456373243 0.682098299354812 0.728338678984961 C 0.0 **** 0.0
45 C8675 0.303367804098947 0.669592616717304 0.737913012681658 C 0.0 **** 0.0
46 C8676 0.293938185802193 0.657986643058609 0.725659629708718 C 0.0 **** 0.0
47 C8682 0.285561945657869 0.643098616808001 0.735268135609586 C 0.0 **** 0.0
48 C8683 0.278920492202207 0.629475198874238 0.723482115856985 C.Trigonal 0.0 **** 0.0
49 C8684 0.285392193930275 0.627867943118968 0.707062113829458 C.Trigonal 0.0 **** 0.0
50 C8689 0.27937259219065 0.614774040580291 0.696565811063792 C 0.0 **** 0.0
51 C8690 0.268747833487238 0.602714365321936 0.703048263304655 C 0.0 **** 0.0
52 C8691 0.263556293701778 0.60333013494269 0.719741625897268 C 0.0 **** 0.0
53 C8692 0.268652289473405 0.616786251672699 0.729954714732458 C 0.0 **** 0.0
54 C8698 0.483414414695799 0.561010877676779 0.654530849711866 C 0.0 **** 0.0
55 C8700 0.484873332991919 0.541734722704734 0.655465193896268 C 0.0 **** 0.0
56 C8702 0.500096635975943 0.564620961312464 0.621551078986805 C 0.0 **** 0.0
57 C8704 0.447478624750352 0.567764376729431 0.657490944212855 C 0.0 **** 0.0
58 C8706 0.481943752681754 0.577816381822658 0.593505645722879 C 0.0 **** 0.0
59 C8708 0.426301608686674 0.575118485934763 0.564879005351815 C 0.0 **** 0.0
60 C8710 0.396731200191009 0.55720820142552 0.566011965928205 C 0.0 **** 0.0
61 O8712 0.371026652772024 0.545725477619092 0.588613143198884 O 0.0 **** 0.0
62 C8714 0.326651924472556 0.512260814270377 0.607623863618383 C 0.0 **** 0.0
63 C8716 0.311004285632651 0.547440092491091 0.603243070010157 C 0.0 **** 0.0
64 O8718 0.319608962389974 0.580223407525483 0.652801643769275 O 0.0 **** 0.0
65 O8720 0.381612965104011 0.607225155776287 0.634529402504053 O 0.0 **** 0.0
66 O8722 0.372920004428845 0.633743806077595 0.649745810941502 O 0.0 **** 0.0
67 O8724 0.31587304788014 0.605020253139487 0.671283714565764 O 0.0 **** 0.0
68 C8726 0.263569289248109 0.616885956553068 0.748429766778396 C 0.0 **** 0.0
69 C8728 0.252873486774301 0.588903891172769 0.726334261246908 C 0.0 **** 0.0
70 H8730 0.422796153845607 0.577272316778904 0.639041085340147 H 0.0 **** 0.0
71 H8732 0.428512883707026 0.595605777271129 0.628013347388121 H 0.0 **** 0.0
72 H8734 0.444425159660196 0.597280440935315 0.596031572266298 H 0.0 **** 0.0
73 H8736 0.451087638203518 0.579297068975378 0.584677816722133 H 0.0 **** 0.0
74 H8738 0.397163029172295 0.583805957685959 0.636231728946557 H 0.0 **** 0.0
75 H8740 0.32183943220969 0.549865271752437 0.645221143977916 H 0.0 **** 0.0
76 H8742 0.312633278763567 0.564439644105602 0.630773970766013 H 0.0 **** 0.0
77 H8744 0.306305129063912 0.533423995591869 0.626086526659005 H 0.0 **** 0.0
78 H8746 0.335669253359148 0.523263590332494 0.630895015431345 H 0.0 **** 0.0
79 H8748 0.344031853746239 0.538175318229284 0.596317324270344 H 0.0 **** 0.0
80 H8750 0.357885879945851 0.5280213248579 0.610819437939056 H 0.0 **** 0.0
81 H8752 0.368073890624227 0.654818782390764 0.672479727961881 H 0.0 **** 0.0
82 H8754 0.348747256316772 0.662836010714544 0.664742217350819 H 0.0 **** 0.0
83 H8756 0.350301315294285 0.670323982836349 0.69394373825631 H 0.0 **** 0.0
84 H8758 0.357418625235448 0.650234755101406 0.700356340404882 H 0.0 **** 0.0
85 H8760 0.337479894357603 0.667519051351706 0.727885564323499 H 0.0 **** 0.0
86 H8762 0.335213635868726 0.681712340120693 0.71081293782458 H 0.0 **** 0.0
87 H8764 0.306531233901546 0.689485195062579 0.719546217456581 H 0.0 **** 0.0
88 H8766 0.320232330259486 0.691267939286837 0.737082863669389 H 0.0 **** 0.0
89 H8768 0.294258820981937 0.67619564324059 0.746135788076718 H 0.0 **** 0.0
90 H8770 0.311526326476721 0.661956859505552 0.746240885149231 H 0.0 **** 0.0
91 H8772 0.283901717859466 0.665463084767705 0.719427963229054 H 0.0 **** 0.0
92 H8774 0.295094678338263 0.637345568481537 0.743616442750542 H 0.0 **** 0.0
93 H8776 0.27557808605553 0.648300509522953 0.743428232912482 H 0.0 **** 0.0
94 H8778 0.284363647508811 0.613250514883992 0.683683631429153 H 0.0 **** 0.0
95 H8780 0.264682851739816 0.592153574792224 0.694995049690628 H 0.0 **** 0.0
96 H8782 0.477701328552416 0.565854159851245 0.666249982102527 H 0.0 **** 0.0
97 H8784 0.496112031551453 0.566711542972316 0.654432373440703 H 0.0 **** 0.0
98 H8786 0.492350576603613 0.53674868020121 0.644919145009848 H 0.0 **** 0.0
99 H8788 0.472358293752791 0.535698707225579 0.654947603615333 H 0.0 **** 0.0
100 H8790 0.491147480189516 0.537665654579632 0.667182079578023 H 0.0 **** 0.0
101 H8792 0.502562024861539 0.558040147092398 0.609538790257099 H 0.0 **** 0.0
102 H8794 0.505273229835567 0.5564236097286 0.631443042585222 H 0.0 **** 0.0
103 H8796 0.507654410597076 0.57632026645607 0.621537462715701 H 0.0 **** 0.0
104 H8798 0.434150815785484 0.564123425739605 0.656334964688295 H 0.0 **** 0.0
105 H8800 0.448161289185087 0.579387041987039 0.665141805329589 H 0.0 **** 0.0
106 H8802 0.453199360722371 0.557496536130009 0.664844939274205 H 0.0 **** 0.0
107 H8804 0.475465981138367 0.586858189449557 0.585228028367635 H 0.0 **** 0.0
108 H8806 0.484124581087552 0.566140075303887 0.586284315385987 H 0.0 **** 0.0
109 H8808 0.494388328869942 0.583491196963666 0.596013406416895 H 0.0 **** 0.0
110 H8810 0.417040018304281 0.580297217188051 0.555869263218991 H 0.0 **** 0.0
111 H8812 0.431382971487309 0.563368104072698 0.559446663528799 H 0.0 **** 0.0
112 H8814 0.436430583082822 0.584526529472474 0.565187858943908 H 0.0 **** 0.0
113 H8816 0.406875649246414 0.550105795706784 0.55966677606305 H 0.0 **** 0.0
114 H8818 0.393236560415287 0.567760506991912 0.557676105371836 H 0.0 **** 0.0
115 H8820 0.385996934443016 0.548576271103066 0.56615963864837 H 0.0 **** 0.0
116 H8822 0.378841713083746 0.536905616756348 0.585971009930551 H 0.0 **** 0.0
117 H8824 0.315619463882172 0.50603748649255 0.613291476434309 H 0.0 **** 0.0
118 H8826 0.337098956371697 0.503126227672329 0.606954373315817 H 0.0 **** 0.0
119 H8828 0.323417063140822 0.515987117247782 0.594627911253347 H 0.0 **** 0.0
120 H8830 0.301252864839226 0.557058840436223 0.605462462180823 H 0.0 **** 0.0
121 H8832 0.305569574690644 0.537494706761116 0.595205333774009 H 0.0 **** 0.0
122 H8834 0.321427697927102 0.553507734435503 0.596378040392473 H 0.0 **** 0.0
123 H8836 0.314811699184117 0.58708384353305 0.661519246156782 H 0.0 **** 0.0
124 H8838 0.382237714738404 0.618835098791239 0.637810608618018 H 0.0 **** 0.0
125 H8840 0.260547773472471 0.629596370699387 0.753075989118324 H 0.0 **** 0.0
126 H8842 0.27384607344288 0.611880124547393 0.756391335443177 H 0.0 **** 0.0
127 H8844 0.252376639300522 0.609095048319877 0.750859370037164 H 0.0 **** 0.0
128 H8846 0.259231293416713 0.582338730512903 0.736840686324693 H 0.0 **** 0.0
129 H8848 0.250477998640917 0.579413057263381 0.716482562831138 H 0.0 **** 0.0
130 H8850 0.240474213652167 0.593274174992747 0.730873884387732 H 0.0 **** 0.0
@<TRIPOS>BOND
1 3 2 Aromatic
2 4 3 Aromatic
3 5 4 Aromatic
4 6 5 Aromatic
5 1 2 Aromatic
6 1 6 Aromatic
7 8 7 1
8 9 8 Aromatic
9 10 9 1
10 4 7 1
11 3 10 1
12 12 11 Aromatic
13 13 12 Aromatic
14 14 13 Aromatic
15 9 11 Aromatic
16 8 14 Aromatic
17 16 15 Aromatic
18 17 16 Aromatic
19 18 17 Aromatic
20 14 15 Aromatic
21 13 18 Aromatic
22 20 19 1
23 21 20 1
24 22 21 Aromatic
25 17 19 1
26 16 22 Aromatic
27 24 23 1
28 25 24 Aromatic
29 26 25 1
30 20 23 1
31 19 26 1
32 28 27 Aromatic
33 29 28 Aromatic
34 30 29 Aromatic
35 22 27 Aromatic
36 21 30 Aromatic
37 32 31 1
38 33 32 Aromatic
39 34 33 1
40 29 31 1
41 28 34 1
42 36 35 1
43 37 36 1
44 38 37 Aromatic
45 33 35 1
46 32 38 Aromatic
47 40 39 Aromatic
48 41 40 Aromatic
49 42 41 Aromatic
50 38 39 Aromatic
51 37 42 Aromatic
52 44 43 1
53 45 44 1
54 46 45 1
55 42 43 1
56 41 46 1
57 48 47 1
58 49 48 Aromatic
59 40 49 Aromatic
60 46 47 1
61 51 50 Aromatic
62 52 51 Aromatic
63 53 52 Aromatic
64 49 50 Aromatic
65 48 53 Aromatic
66 6 54 1
67 54 55 1
68 1 56 1
69 5 57 1
70 2 58 1
71 11 59 1
72 12 60 1
73 18 61 1
74 25 62 1
75 24 63 1
76 30 64 1
77 27 65 1
78 34 66 Double
79 31 67 Double
80 53 68 1
81 52 69 1
82 7 70 1
83 7 71 1
84 10 72 1
85 10 73 1
86 15 74 1
87 23 75 1
88 23 76 1
89 24 77 1
90 25 78 1
91 26 79 1
92 26 80 1
93 35 81 1
94 35 82 1
95 36 83 1
96 36 84 1
97 43 85 1
98 43 86 1
99 44 87 1
100 44 88 1
101 45 89 1
102 45 90 1
103 46 91 1
104 47 92 1
105 47 93 1
106 50 94 1
107 51 95 1
108 54 96 1
109 54 97 1
110 55 98 1
111 55 99 1
112 55 100 1
113 56 101 1
114 56 102 1
115 56 103 1
116 57 104 1
117 57 105 1
118 57 106 1
119 58 107 1
120 58 108 1
121 58 109 1
122 59 110 1
123 59 111 1
124 59 112 1
125 60 113 1
126 60 114 1
127 60 115 1
128 61 116 1
129 62 117 1
130 62 118 1
131 62 119 1
132 63 120 1
133 63 121 1
134 63 122 1
135 64 123 1
136 65 124 1
137 68 125 1
138 68 126 1
139 68 127 1
140 69 128 1
141 69 129 1
142 69 130 1
@<TRIPOS>MOLECULE
Sketch 4
130 142
SMALL
USER_CHARGES


@<TRIPOS>ATOM
1 C8852 0.839741972461221 0.494835980877295 0.985922078681939 C.Trigonal 0.0 **** 0.0
2 C8853 0.847134559538657 0.484160351484278 0.974154915411089 C 0.0 **** 0.0
3 C8854 0.858449769642176 0.490548055882507 0.96240965572916 C.Trigonal 0.0 **** 0.0
4 C8855 0.862720913074674 0.507373829284821 0.962882580986487 C.Trigonal 0.0 **** 0.0
5 C8856 0.855436776516344 0.518121695908433 0.974706230656029 C 0.0 **** 0.0
6 C8857 0.843952925701637 0.511833342598779 0.986283495568828 C 0.0 **** 0.0
7 C8864 0.875867630189586 0.514501247649182 0.95084983827352 C 0.0 **** 0.0
8 C8865 0.882052131941188 0.50329122828581 0.936521965810898 C.Trigonal 0.0 **** 0.0
9 C8866 0.877288394723811 0.486684653287337 0.935541520672325 C.Trigonal 0.0 **** 0.0
10 C8867 0.866255069165076 0.478834299470947 0.949276591465034 C 0.0 **** 0.0
11 C8873 0.882246711864846 0.476763101242616 0.921863763389758 C 0.0 **** 0.0
12 C8874 0.892042657288175 0.483240581340262 0.908886551072317 C 0.0 **** 0.0
13 C8875 0.898904296923482 0.499437153512854 0.910787009619182 C.Trigonal 0.0 **** 0.0
14 C8876 0.893073342225322 0.509778543630353 0.924212867385226 C.Trigonal 0.0 **** 0.0
15 C8882 0.899330864232713 0.52621803692457 0.92567162762671 C 0.0 **** 0.0
16 C8883 0.91227043108026 0.532610405409811 0.915481303991392 C.Trigonal 0.0 **** 0.0
17 C8884 0.918259167107285 0.521914677043626 0.90240574298171 C.Trigonal 0.0 **** 0.0
18 C8885 0.912209211571456 0.505564139686559 0.900442876480654 C 0.0 **** 0.0
19 C8891 0.93245643745017 0.528608073311992 0.891559132361964 C.Trigonal 0.0 **** 0.0
20 C8892 0.942538404723061 0.541163345767207 0.897414792196616 C.Trigonal 0.0 **** 0.0
21 C8893 0.938488226124412 0.549073437132955 0.914345950281179 C.Trigonal 0.0 **** 0.0
22 C8894 0.92180076177081 0.54748350827459 0.920231668561213 C.Trigonal 0.0 **** 0.0
23 C8900 0.954983515041076 0.550774342926058 0.88613523829325 C 0.0 **** 0.0
24 C8901 0.955900147082819 0.544374676747627 0.867664420815368 C 0.0 **** 0.0
25 C8902 0.938629727200632 0.537363061613957 0.861904051221497 C 0.0 **** 0.0
26 C8903 0.933013610637892 0.522752301586614 0.873345665691321 C 0.0 **** 0.0
27 C8909 0.916817655589101 0.558111356074006 0.933716889908704 C 0.0 **** 0.0
28 C8910 0.929097273928415 0.565502589611995 0.943825024061727 C.Trigonal 0.0 **** 0.0
29 C8911 0.946028541234249 0.563890832896059 0.939831438708381 C.Trigonal 0.0 **** 0.0
30 C8912 0.950883910279571 0.556143354705843 0.924788073874857 C 0.0 **** 0.0
31 C8918 0.959406373500113 0.57120865031804 0.951368052450111 C 0.0 **** 0.0
32 C8919 0.95373371046633 0.580796933211769 0.966371831279566 C.Trigonal 0.0 **** 0.0
33 C8920 0.937101751928924 0.582813098263635 0.969905689195579 C.Trigonal 0.0 **** 0.0
34 C8921 0.923789565604441 0.57538098333555 0.959218367229276 C 0.0 **** 0.0
35 C8927 0.931392657863037 0.592883690063977 0.985251848532787 C 0.0 **** 0.0
36 C8928 0.944009675508125 0.590798216665277 1.00004918337983 C 0.0 **** 0.0
37 C8929 0.962128791000928 0.593686581325153 0.994260661802301 C.Trigonal 0.0 **** 0.0
38 C8930 0.966903338165318 0.588497635619493 0.977796320351745 C.Trigonal 0.0 **** 0.0
39 N8936 0.982773097493092 0.59035069626724 0.972209302190509 N 0.0 **** 0.0
40 C8937 0.994175362775293 0.597629483895176 0.982417486270339 C.Trigonal 0.0 **** 0.0
41 C8938 0.990337811615987 0.602690419888903 0.999162131412982 C.Trigonal 0.0 **** 0.0
42 C8939 0.974164179810143 0.600457886092311 1.00495302178727 C.Trigonal 0.0 **** 0.0
43 C8945 0.969223533262818 0.605635052036518 1.02284451405038 C 0.0 **** 0.0
44 C8946 0.984517636368326 0.608992766371737 1.03427910421178 C 0.0 **** 0.0
45 C8947 0.997656170435351 0.619587437689559 1.02491536103113 C 0.0 **** 0.0
46 C8948 1.00464637172121 0.609047534441794 1.01026958197837 C 0.0 **** 0.0
47 C8954 1.01767941059492 0.618573320863046 0.999278000526307 C 0.0 **** 0.0
48 C8955 1.02322183136918 0.607123130968106 0.984945492790333 C.Trigonal 0.0 **** 0.0
49 C8956 1.01079769698639 0.597920648369997 0.976130615830694 C.Trigonal 0.0 **** 0.0
50 C8961 1.01557704290345 0.587360203820537 0.962522179262466 C 0.0 **** 0.0
51 C8962 1.03235371721886 0.585173866223144 0.958905003121722 C 0.0 **** 0.0
52 C8963 1.04460192048846 0.594139372516028 0.967575420262025 C 0.0 **** 0.0
53 C8964 1.03998797903245 0.605490777158072 0.980312147479113 C 0.0 **** 0.0
54 C8970 0.83615185873131 0.523359753888104 0.999524125436265 C 0.0 **** 0.0
55 C8972 0.821099631785012 0.533009802585306 0.992036453920895 C 0.0 **** 0.0
56 C8974 0.827180830680112 0.487894266023818 0.998664325843371 C 0.0 **** 0.0
57 C8976 0.860616520404677 0.536607778293178 0.974541331893024 C 0.0 **** 0.0
58 C8978 0.842790949149596 0.465484096372601 0.974412016308929 C 0.0 **** 0.0
59 C8980 0.876354666643047 0.458522762101119 0.92100166646871 C 0.0 **** 0.0
60 C8982 0.895376001063918 0.472080474938446 0.893675421252143 C 0.0 **** 0.0
61 O8984 0.919721205881643 0.49481184239657 0.888805505577846 O 0.0 **** 0.0
62 C8986 0.939007560514619 0.531405387027471 0.843429354012018 C 0.0 **** 0.0
63 C8988 0.970281201230383 0.531395215151141 0.865759574873049 C 0.0 **** 0.0
64 O8990 0.967515588218556 0.555285081411097 0.919762893598972 O 0.0 **** 0.0
65 O8992 0.899854452004353 0.560034654694428 0.93704886657691 O 0.0 **** 0.0
66 O8994 0.908805532024451 0.576948950699695 0.962405330050781 O 0.0 **** 0.0
67 O8996 0.974151219609216 0.568626594993062 0.947801002800213 O 0.0 **** 0.0
68 C8998 1.05417225816211 0.615236282228862 0.988714920416037 C 0.0 **** 0.0
69 C9000 1.06288500974844 0.591207578358689 0.962922142486809 C 0.0 **** 0.0
70 H9002 0.870580656598689 0.526034963869689 0.94512213098434 H 0.0 **** 0.0
71 H9004 0.886874003877614 0.518545316575634 0.958429824751634 H 0.0 **** 0.0
72 H9006 0.873881187381915 0.469246714508946 0.95596845539104 H 0.0 **** 0.0
73 H9008 0.855816967026343 0.472039903181142 0.943017614817328 H 0.0 **** 0.0
74 H9010 0.895216618641444 0.533355839529619 0.936735451546688 H 0.0 **** 0.0
75 H9012 0.95096439180097 0.564105120077272 0.88577987051512 H 0.0 **** 0.0
76 H9014 0.967863513982541 0.550639460149072 0.891362896595719 H 0.0 **** 0.0
77 H9016 0.959075581136499 0.55524993238719 0.859557821594122 H 0.0 **** 0.0
78 H9018 0.929252909789339 0.547627906074127 0.862890253140011 H 0.0 **** 0.0
79 H9020 0.941625341334445 0.511910974317065 0.872022112886294 H 0.0 **** 0.0
80 H9022 0.920425509409915 0.518753327719466 0.869017147064411 H 0.0 **** 0.0
81 H9024 0.930499846506836 0.606366525569673 0.981847917918051 H 0.0 **** 0.0
82 H9026 0.918697262143078 0.589131472591186 0.989690161826092 H 0.0 **** 0.0
83 H9028 0.942784165539459 0.577989653801265 1.00547448993948 H 0.0 **** 0.0
84 H9030 0.940318793494771 0.599675315104301 1.01010679701985 H 0.0 **** 0.0
85 H9032 0.961635756616763 0.6173226122836 1.02216624915177 H 0.0 **** 0.0
86 H9034 0.961136661712763 0.595928547641366 1.02870357647549 H 0.0 **** 0.0
87 H9036 0.990351645119561 0.596902471748146 1.03807703406653 H 0.0 **** 0.0
88 H9038 0.980361011890289 0.615194810193141 1.0460210569688 H 0.0 **** 0.0
89 H9040 1.00799646279712 0.623428872142451 1.03342262291055 H 0.0 **** 0.0
90 H9042 0.991816350895841 0.631313842792949 1.02013645152747 H 0.0 **** 0.0
91 H9044 1.01116460843163 0.597974402381841 1.01585067053378 H 0.0 **** 0.0
92 H9046 1.0120821795457 0.630314577749538 0.994207369978851 H 0.0 **** 0.0
93 H9048 1.02811941308577 0.622398034050391 1.00754923812481 H 0.0 **** 0.0
94 H9050 1.00604606139811 0.579867167875147 0.955732511248289 H 0.0 **** 0.0
95 H9052 1.03613317807092 0.576266820283606 0.948941080711241 H 0.0 **** 0.0
96 H9054 0.845579883222506 0.532231907946304 1.00463685224018 H 0.0 **** 0.0
97 H9056 0.831941105890544 0.516235860738852 1.01069695116105 H 0.0 **** 0.0
98 H9058 0.811344324737456 0.524187037916838 0.987485672085721 H 0.0 **** 0.0
99 H9060 0.824975664847909 0.540946359160798 0.981288316715397 H 0.0 **** 0.0
100 H9062 0.815174209209459 0.541328271529576 1.00148611416548 H 0.0 **** 0.0
101 H9064 0.822092809890467 0.475472342165722 0.995185583786005 H 0.0 **** 0.0
102 H9066 0.816102530150775 0.496205910943935 0.999981172090512 H 0.0 **** 0.0
103 H9068 0.833054621605753 0.486560486555042 1.01123296071854 H 0.0 **** 0.0
104 H9070 0.857383314099074 0.542598963680672 0.962399879578336 H 0.0 **** 0.0
105 H9072 0.874351401292647 0.537961017290554 0.97639384809887 H 0.0 **** 0.0
106 H9074 0.854587830784398 0.54432591380647 0.984317739013032 H 0.0 **** 0.0
107 H9076 0.850615215330989 0.457754844376466 0.965979216935634 H 0.0 **** 0.0
108 H9078 0.829547782368869 0.463361597593373 0.970655147230582 H 0.0 **** 0.0
109 H9080 0.844521027844229 0.460129182572254 0.987147926366333 H 0.0 **** 0.0
110 H9082 0.885815988733586 0.450296410687933 0.915059381085879 H 0.0 **** 0.0
111 H9084 0.864636541917521 0.457457818207584 0.913592319568502 H 0.0 **** 0.0
112 H9086 0.874110204181536 0.452916006012609 0.933498633998899 H 0.0 **** 0.0
113 H9088 0.895125825131063 0.479491385530855 0.881950361771245 H 0.0 **** 0.0
114 H9090 0.885637429133812 0.462373564199783 0.891787746194671 H 0.0 **** 0.0
115 H9092 0.907680005095584 0.465601093332693 0.894547672215441 H 0.0 **** 0.0
116 H9094 0.916031572456279 0.497900960941575 0.877725198650247 H 0.0 **** 0.0
117 H9096 0.943161487376765 0.541767188162004 0.835264209156762 H 0.0 **** 0.0
118 H9098 0.926344557526791 0.527356799857492 0.839354019436089 H 0.0 **** 0.0
119 H9100 0.94768245202913 0.520719075640603 0.841712859138072 H 0.0 **** 0.0
120 H9102 0.982424636948405 0.537352131333007 0.86895224302564 H 0.0 **** 0.0
121 H9104 0.971283468746182 0.526928831413723 0.852659228643826 H 0.0 **** 0.0
122 H9106 0.968333471644845 0.520487265994287 0.874137699989544 H 0.0 **** 0.0
123 H9108 0.974558660752535 0.558767225058317 0.928958097200833 H 0.0 **** 0.0
124 H9110 0.898594017919493 0.567295294649909 0.946618242295236 H 0.0 **** 0.0
125 H9112 1.06207113778933 0.60669760590349 0.99636989628797 H 0.0 **** 0.0
126 H9114 1.04996575223518 0.625514492716508 0.996939529105954 H 0.0 **** 0.0
127 H9116 1.0624119761964 0.621209766203163 0.979211516581391 H 0.0 **** 0.0
128 H9118 1.06908565657812 0.603026808897557 0.959113559209556 H 0.0 **** 0.0
129 H9120 1.06411036055254 0.582355910902156 0.952307252008617 H 0.0 **** 0.0
130 H9122 1.07001757688657 0.585875693828258 0.973621291851951 H 0.0 **** 0.0
@<TRIPOS>BOND
1 3 2 Aromatic
2 4 3 Aromatic
3 5 4 Aromatic
4 6 5 Aromatic
5 1 2 Aromatic
6 1 6 Aromatic
7 8 7 1
8 9 8 Aromatic
9 10 9 1
10 4 7 1
11 3 10 1
12 12 11 Aromatic
13 13 12 Aromatic
14 14 13 Aromatic
15 9 11 Aromatic
16 8 14 Aromatic
17 16 15 Aromatic
18 17 16 Aromatic
19 18 17 Aromatic
20 14 15 Aromatic
21 13 18 Aromatic
22 20 19 1
23 21 20 1
24 22 21 Aromatic
25 17 19 1
26 16 22 Aromatic
27 24 23 1
28 25 24 Aromatic
29 26 25 1
30 20 23 1
31 19 26 1
32 28 27 Aromatic
33 29 28 Aromatic
34 30 29 Aromatic
35 22 27 Aromatic
36 21 30 Aromatic
37 32 31 1
38 33 32 Aromatic
39 34 33 1
40 29 31 1
41 28 34 1
42 36 35 1
43 37 36 1
44 38 37 Aromatic
45 33 35 1
46 32 38 Aromatic
47 40 39 Aromatic
48 41 40 Aromatic
49 42 41 Aromatic
50 38 39 Aromatic
51 37 42 Aromatic
52 44 43 1
53 45 44 1
54 46 45 1
55 42 43 1
56 41 46 1
57 48 47 1
58 49 48 Aromatic
59 40 49 Aromatic
60 46 47 1
61 51 50 Aromatic
62 52 51 Aromatic
63 53 52 Aromatic
64 49 50 Aromatic
65 48 53 Aromatic
66 6 54 1
67 54 55 1
68 1 56 1
69 5 57 1
70 2 58 1
71 11 59 1
72 12 60 1
73 18 61 1
74 25 62 1
75 24 63 1
76 30 64 1
77 27 65 1
78 34 66 Double
79 31 67 Double
80 53 68 1
81 52 69 1
82 7 70 1
83 7 71 1
84 10 72 1
85 10 73 1
86 15 74 1
87 23 75 1
88 23 76 1
89 24 77 1
90 25 78 1
91 26 79 1
92 26 80 1
93 35 81 1
94 35 82 1
95 36 83 1
96 36 84 1
97 43 85 1
98 43 86 1
99 44 87 1
100 44 88 1
101 45 89 1
102 45 90 1
103 46 91 1
104 47 92 1
105 47 93 1
106 50 94 1
107 51 95 1
108 54 96 1
109 54 97 1
110 55 98 1
111 55 99 1
112 55 100 1
113 56 101 1
114 56 102 1
115 56 103 1
116 57 104 1
117 57 105 1
118 57 106 1
119 58 107 1
120 58 108 1
121 58 109 1
122 59 110 1
123 59 111 1
124 59 112 1
125 60 113 1
126 60 114 1
127 60 115 1
128 61 116 1
129 62 117 1
130 62 118 1
131 62 119 1
132 63 120 1
133 63 121 1
134 63 122 1
135 64 123 1
136 65 124 1
137 68 125 1
138 68 126 1
139 68 127 1
140 69 128 1
141 69 129 1
142 69 130 1
@<TRIPOS>MOLECULE
Sketch 4
130 142
SMALL
USER_CHARGES


@<TRIPOS>ATOM
1 C9124 0.371683852878141 0.759654990102123 0.219027996375195 C.Trigonal 0.0 **** 0.0
2 C9125 0.380475231619238 0.766134473841632 0.205331009069836 C 0.0 **** 0.0
3 C9126 0.377200637255602 0.78243023853469 0.199791236639805 C.Trigonal 0.0 **** 0.0
4 C9127 0.364931995846797 0.791963829632858 0.20763558326505 C.Trigonal 0.0 **** 0.0
5 C9128 0.355128150015434 0.78500071602606 0.220383030158761 C 0.0 **** 0.0
6 C9129 0.358689675474684 0.76890710170696 0.226257315852177 C 0.0 **** 0.0
7 C9136 0.361921052504304 0.810113302442033 0.201977916698132 C 0.0 **** 0.0
8 C9137 0.376919785088001 0.818895036576179 0.193675174049261 C.Trigonal 0.0 **** 0.0
9 C9138 0.388595915232705 0.80926648303838 0.185204487547111 C.Trigonal 0.0 **** 0.0
10 C9139 0.386753656556218 0.790061972420553 0.184925173349527 C 0.0 **** 0.0
11 C9145 0.402221460842681 0.816732505110288 0.176953628195677 C 0.0 **** 0.0
12 C9146 0.405338321586863 0.833889039712757 0.178297563245346 C 0.0 **** 0.0
13 C9147 0.393093187352939 0.844150457797427 0.185962838477865 C.Trigonal 0.0 **** 0.0
14 C9148 0.378835203344543 0.836523252558911 0.193823939713056 C.Trigonal 0.0 **** 0.0
15 C9154 0.366305869075224 0.846915119637084 0.200747063773881 C 0.0 **** 0.0
16 C9155 0.366851246366305 0.864575756602846 0.200085832974081 C.Trigonal 0.0 **** 0.0
17 C9156 0.381600232900829 0.871856784052877 0.193020729935701 C.Trigonal 0.0 **** 0.0
18 C9157 0.393744767782405 0.862143257025349 0.185014049432906 C 0.0 **** 0.0
19 C9163 0.382019366897051 0.89083757380643 0.191568566078676 C.Trigonal 0.0 **** 0.0
20 C9164 0.367345896180334 0.899454156357409 0.190418547061698 C.Trigonal 0.0 **** 0.0
21 C9165 0.350996532918198 0.890139558360163 0.19285107059264 C.Trigonal 0.0 **** 0.0
22 C9166 0.351658588305883 0.874784007742489 0.201763159174635 C.Trigonal 0.0 **** 0.0
23 C9172 0.367866030819371 0.918769138272997 0.190144097281912 C 0.0 **** 0.0
24 C9173 0.382108373185207 0.925786110556555 0.178585888522193 C 0.0 **** 0.0
25 C9174 0.397152171475764 0.913129383791258 0.176376775256559 C 0.0 **** 0.0
26 C9175 0.398332723701459 0.901051406480357 0.191580043346524 C 0.0 **** 0.0
27 C9181 0.336044472992628 0.867950655806249 0.207100805380526 C 0.0 **** 0.0
28 C9182 0.321281697353775 0.873048474556451 0.199070905557113 C.Trigonal 0.0 **** 0.0
29 C9183 0.321782443603934 0.885256959093335 0.186577677065157 C.Trigonal 0.0 **** 0.0
30 C9184 0.336444080131654 0.894561580098975 0.183905173756874 C 0.0 **** 0.0
31 C9190 0.306489267611356 0.888705271091287 0.175759166498118 C 0.0 **** 0.0
32 C9191 0.290816199347818 0.879379736242861 0.179698324600187 C.Trigonal 0.0 **** 0.0
33 C9192 0.289819528960954 0.869033216013544 0.193297325063292 C.Trigonal 0.0 **** 0.0
34 C9193 0.30469649401056 0.865041360047365 0.203834299509537 C 0.0 **** 0.0
35 C9199 0.273060329426278 0.861095727076219 0.19822788691232 C 0.0 **** 0.0
36 C9200 0.262758530565368 0.856030679394375 0.182416626717631 C 0.0 **** 0.0
37 C9201 0.262085821103748 0.870131739423562 0.169302338495308 C.Trigonal 0.0 **** 0.0
38 C9202 0.275870344735727 0.881512928310934 0.168061199372404 C.Trigonal 0.0 **** 0.0
39 N9208 0.276611526055773 0.89306715638813 0.155734899655913 N 0.0 **** 0.0
40 C9209 0.264466010847355 0.893197867597525 0.14396060460333 C.Trigonal 0.0 **** 0.0
41 C9210 0.249815575480309 0.8829885456336 0.14506676085518 C.Trigonal 0.0 **** 0.0
42 C9211 0.248753043543797 0.871545258205546 0.158054555954652 C.Trigonal 0.0 **** 0.0
43 C9217 0.23355366977668 0.859780346204534 0.15961193690023 C 0.0 **** 0.0
44 C9218 0.218321170488062 0.865943617953803 0.149323300847822 C 0.0 **** 0.0
45 C9219 0.223855117692054 0.870545668833591 0.131445913342973 C 0.0 **** 0.0
46 C9220 0.235949507798355 0.885681409734229 0.132042206643682 C 0.0 **** 0.0
47 C9226 0.243924830620266 0.889501994561203 0.114562588077259 C 0.0 **** 0.0
48 C9227 0.257302059030916 0.903186428140186 0.115864730551841 C.Trigonal 0.0 **** 0.0
49 C9228 0.267384835664177 0.904351649176486 0.130420523687024 C.Trigonal 0.0 **** 0.0
50 C9233 0.280561711502714 0.916395963101635 0.131034061677352 C 0.0 **** 0.0
51 C9234 0.283077847300944 0.927085176562459 0.117654671394918 C 0.0 **** 0.0
52 C9235 0.273039205924145 0.926119895519754 0.103349869381927 C 0.0 **** 0.0
53 C9236 0.260377184235895 0.913866517882151 0.102339883670124 C 0.0 **** 0.0
54 C9242 0.348174339125858 0.761290215637777 0.240376144790556 C 0.0 **** 0.0
55 C9244 0.333550935914554 0.751204530856749 0.232658816600538 C 0.0 **** 0.0
56 C9246 0.375871954874595 0.742179625637423 0.225810980277014 C 0.0 **** 0.0
57 C9248 0.34072252145669 0.795190861324417 0.227940024824093 C 0.0 **** 0.0
58 C9250 0.393667561348973 0.755208105622341 0.196733481938475 C 0.0 **** 0.0
59 C9252 0.414086128323298 0.805555835498712 0.166722877909562 C 0.0 **** 0.0
60 C9254 0.421714328214093 0.84050660617451 0.170806540150864 C 0.0 **** 0.0
61 O9256 0.40623709013834 0.869682049624883 0.175680882005266 O 0.0 **** 0.0
62 C9258 0.414293968234143 0.921798632597119 0.173289790809736 C 0.0 **** 0.0
63 C9260 0.387609461483941 0.942953408872341 0.185994726343111 C 0.0 **** 0.0
64 O9262 0.337274999416251 0.907760549147972 0.172583431810556 O 0.0 **** 0.0
65 O9264 0.336057804239842 0.855385547233 0.219142471124771 O 0.0 **** 0.0
66 O9266 0.30405493123861 0.855653540043198 0.216025724191768 O 0.0 **** 0.0
67 O9268 0.308092595689518 0.898633324456701 0.164095499508878 O 0.0 **** 0.0
68 C9270 0.250046153302115 0.912528125278415 0.0862640102298892 C 0.0 **** 0.0
69 C9272 0.276465166372783 0.938489486586478 0.0891863385505309 C 0.0 **** 0.0
70 H9274 0.350937360572897 0.810583077183673 0.193339178128389 H 0.0 **** 0.0
71 H9276 0.358465851751112 0.817333955348719 0.213328093007184 H 0.0 **** 0.0
72 H9278 0.399542102226607 0.784685679250553 0.184874605744117 H 0.0 **** 0.0
73 H9280 0.380636429417478 0.786128746235109 0.172988659189225 H 0.0 **** 0.0
74 H9282 0.35472414469487 0.840681597524953 0.204973846100768 H 0.0 **** 0.0
75 H9284 0.355854591800765 0.924853282719396 0.18669388756811 H 0.0 **** 0.0
76 H9286 0.370364312589902 0.92283983107068 0.203203672308249 H 0.0 **** 0.0
77 H9288 0.37669939426215 0.928122766298769 0.165962698213785 H 0.0 **** 0.0
78 H9290 0.39439238893967 0.905429635972501 0.16510867094017 H 0.0 **** 0.0
79 H9292 0.398960844948669 0.908444991850259 0.203346136335463 H 0.0 **** 0.0
80 H9294 0.410128675574004 0.893735532981021 0.191140115609686 H 0.0 **** 0.0
81 H9296 0.274609158088682 0.849887780309738 0.206360475447425 H 0.0 **** 0.0
82 H9298 0.265783952168611 0.870317006877445 0.205742575604374 H 0.0 **** 0.0
83 H9300 0.250112140890935 0.852182012383654 0.186687374442456 H 0.0 **** 0.0
84 H9302 0.268522358754846 0.844688603705156 0.176640820982217 H 0.0 **** 0.0
85 H9304 0.237180354930784 0.847039631648165 0.155187293976125 H 0.0 **** 0.0
86 H9306 0.22958321589045 0.858430257330746 0.172878112539724 H 0.0 **** 0.0
87 H9308 0.212716454782601 0.87715875406097 0.155446317039762 H 0.0 **** 0.0
88 H9310 0.208375476077133 0.856173956524547 0.149164847597872 H 0.0 **** 0.0
89 H9312 0.212827076578325 0.873522081529066 0.123475235004798 H 0.0 **** 0.0
90 H9314 0.230074185962271 0.859538566660653 0.125569029097833 H 0.0 **** 0.0
91 H9316 0.228511411096427 0.896895948985379 0.13589908237773 H 0.0 **** 0.0
92 H9318 0.249619945294047 0.87788939193198 0.109383508317742 H 0.0 **** 0.0
93 H9320 0.233806370793339 0.893054252455224 0.10576763301325 H 0.0 **** 0.0
94 H9322 0.288751045354589 0.917317986461429 0.142218531510823 H 0.0 **** 0.0
95 H9324 0.293274698837117 0.936505824702111 0.118218209603002 H 0.0 **** 0.0
96 H9326 0.343235452968327 0.771082634570852 0.248932282887778 H 0.0 **** 0.0
97 H9328 0.35568405709023 0.753027377964035 0.248653191161473 H 0.0 **** 0.0
98 H9330 0.338215949973945 0.7410427849406 0.224388588080578 H 0.0 **** 0.0
99 H9332 0.32528097134572 0.759379192990441 0.225029258687334 H 0.0 **** 0.0
100 H9334 0.32568922751846 0.74522222120195 0.242416364789938 H 0.0 **** 0.0
101 H9336 0.366123972460608 0.732894182061426 0.22225704255327 H 0.0 **** 0.0
102 H9338 0.376983778382507 0.742149091835453 0.239674938108143 H 0.0 **** 0.0
103 H9340 0.388035234802463 0.737295469486888 0.221284492531122 H 0.0 **** 0.0
104 H9342 0.330141286448148 0.787199521692577 0.232066173340186 H 0.0 **** 0.0
105 H9344 0.335193266054763 0.804055057992844 0.218782770392109 H 0.0 **** 0.0
106 H9346 0.345025046475455 0.802562384666843 0.238953265894546 H 0.0 **** 0.0
107 H9348 0.396956022065787 0.759566972607081 0.184033660949687 H 0.0 **** 0.0
108 H9350 0.389140222186172 0.74216013227927 0.195059847216126 H 0.0 **** 0.0
109 H9352 0.405464763141783 0.75473259509874 0.204140400408693 H 0.0 **** 0.0
110 H9354 0.424697326222161 0.800961879800672 0.174503115632909 H 0.0 **** 0.0
111 H9356 0.419349512809924 0.812192526633746 0.155700139846171 H 0.0 **** 0.0
112 H9358 0.407629753656727 0.794482852358576 0.161381827790502 H 0.0 **** 0.0
113 H9360 0.41974527070841 0.845918294394285 0.158126252803935 H 0.0 **** 0.0
114 H9362 0.431494622710347 0.830721561314451 0.169706689086252 H 0.0 **** 0.0
115 H9364 0.427568311797487 0.850190331034228 0.178883383281726 H 0.0 **** 0.0
116 H9366 0.403690163208285 0.881347424433461 0.17483916292631 H 0.0 **** 0.0
117 H9368 0.413744732555776 0.92971177762089 0.161894676528748 H 0.0 **** 0.0
118 H9370 0.424293025429519 0.912306500040242 0.171423261873549 H 0.0 **** 0.0
119 H9372 0.417890920451501 0.929756991988753 0.184089739951502 H 0.0 **** 0.0
120 H9374 0.37658898652984 0.951280170901605 0.187631107064675 H 0.0 **** 0.0
121 H9376 0.396491041289954 0.949387811066846 0.177510243587443 H 0.0 **** 0.0
122 H9378 0.393703627846932 0.941287863270263 0.198388121924105 H 0.0 **** 0.0
123 H9380 0.327091516131174 0.907831034210754 0.166053499917777 H 0.0 **** 0.0
124 H9382 0.324591034776175 0.852709092701607 0.221870445723586 H 0.0 **** 0.0
125 H9384 0.247145435133737 0.899341169497689 0.0829798563080143 H 0.0 **** 0.0
126 H9386 0.256747077178201 0.917755929194657 0.0752965403851212 H 0.0 **** 0.0
127 H9388 0.238026420600071 0.919454111150503 0.0873913420531833 H 0.0 **** 0.0
128 H9390 0.282305167326892 0.932177519434585 0.078259770121655 H 0.0 **** 0.0
129 H9392 0.285135838075851 0.948575904595502 0.0931777781875203 H 0.0 **** 0.0
130 H9394 0.264793602922927 0.944682092576946 0.0848351659700683 H 0.0 **** 0.0
@<TRIPOS>BOND
1 3 2 Aromatic
2 4 3 Aromatic
3 5 4 Aromatic
4 6 5 Aromatic
5 1 2 Aromatic
6 1 6 Aromatic
7 8 7 1
8 9 8 Aromatic
9 10 9 1
10 4 7 1
11 3 10 1
12 12 11 Aromatic
13 13 12 Aromatic
14 14 13 Aromatic
15 9 11 Aromatic
16 8 14 Aromatic
17 16 15 Aromatic
18 17 16 Aromatic
19 18 17 Aromatic
20 14 15 Aromatic
21 13 18 Aromatic
22 20 19 1
23 21 20 1
24 22 21 Aromatic
25 17 19 1
26 16 22 Aromatic
27 24 23 1
28 25 24 Aromatic
29 26 25 1
30 20 23 1
31 19 26 1
32 28 27 Aromatic
33 29 28 Aromatic
34 30 29 Aromatic
35 22 27 Aromatic
36 21 30 Aromatic
37 32 31 1
38 33 32 Aromatic
39 34 33 1
40 29 31 1
41 28 34 1
42 36 35 1
43 37 36 1
44 38 37 Aromatic
45 33 35 1
46 32 38 Aromatic
47 40 39 Aromatic
48 41 40 Aromatic
49 42 41 Aromatic
50 38 39 Aromatic
51 37 42 Aromatic
52 44 43 1
53 45 44 1
54 46 45 1
55 42 43 1
56 41 46 1
57 48 47 1
58 49 48 Aromatic
59 40 49 Aromatic
60 46 47 1
61 51 50 Aromatic
62 52 51 Aromatic
63 53 52 Aromatic
64 49 50 Aromatic
65 48 53 Aromatic
66 6 54 1
67 54 55 1
68 1 56 1
69 5 57 1
70 2 58 1
71 11 59 1
72 12 60 1
73 18 61 1
74 25 62 1
75 24 63 1
76 30 64 1
77 27 65 1
78 34 66 Double
79 31 67 Double
80 53 68 1
81 52 69 1
82 7 70 1
83 7 71 1
84 10 72 1
85 10 73 1
86 15 74 1
87 23 75 1
88 23 76 1
89 24 77 1
90 25 78 1
91 26 79 1
92 26 80 1
93 35 81 1
94 35 82 1
95 36 83 1
96 36 84 1
97 43 85 1
98 43 86 1
99 44 87 1
100 44 88 1
101 45 89 1
102 45 90 1
103 46 91 1
104 47 92 1
105 47 93 1
106 50 94 1
107 51 95 1
108 54 96 1
109 54 97 1
110 55 98 1
111 55 99 1
112 55 100 1
113 56 101 1
114 56 102 1
115 56 103 1
116 57 104 1
117 57 105 1
118 57 106 1
119 58 107 1
120 58 108 1
121 58 109 1
122 59 110 1
123 59 111 1
124 59 112 1
125 60 113 1
126 60 114 1
127 60 115 1
128 61 116 1
129 62 117 1
130 62 118 1
131 62 119 1
132 63 120 1
133 63 121 1
134 63 122 1
135 64 123 1
136 65 124 1
137 68 125 1
138 68 126 1
139 68 127 1
140 69 128 1
141 69 129 1
142 69 130 1
@<TRIPOS>MOLECULE
Sketch 4
130 142
SMALL
USER_CHARGES


@<TRIPOS>ATOM
1 C9396 0.180730112172359 0.473431876920142 0.483587002454084 C.Trigonal 0.0 **** 0.0
2 C9397 0.175046953057009 0.488901698758433 0.477531983738105 C 0.0 **** 0.0
3 C9398 0.171447450660568 0.501649192341687 0.488896577424679 C.Trigonal 0.0 **** 0.0
4 C9399 0.175538142918178 0.499627932201554 0.505728783842727 C.Trigonal 0.0 **** 0.0
5 C9400 0.183306425118173 0.48509410347151 0.511461569726708 C 0.0 **** 0.0
6 C9401 0.1852148029463 0.471600692744442 0.500473814351515 C 0.0 **** 0.0
7 C9408 0.170810823370248 0.514127701989248 0.517226910493525 C 0.0 **** 0.0
8 C9409 0.152525534760388 0.51866277546848 0.513761981089894 C.Trigonal 0.0 **** 0.0
9 C9410 0.148639845837221 0.521785880719839 0.497048123847296 C.Trigonal 0.0 **** 0.0
10 C9411 0.162724563901662 0.518220358162655 0.484246013404663 C 0.0 **** 0.0
11 C9417 0.132931509368212 0.528275976942002 0.492521762487902 C 0.0 **** 0.0
12 C9418 0.120339359998609 0.530197538111448 0.504591813352384 C 0.0 **** 0.0
13 C9419 0.122871939239252 0.523090547479938 0.520624542201237 C.Trigonal 0.0 **** 0.0
14 C9420 0.139565993222006 0.518925363267314 0.525748244488858 C.Trigonal 0.0 **** 0.0
15 C9426 0.142226374006597 0.514029855033258 0.542513030338557 C 0.0 **** 0.0
16 C9427 0.129088436437683 0.512569174370358 0.554176149187168 C.Trigonal 0.0 **** 0.0
17 C9428 0.112535026934199 0.511752232943545 0.547379923694838 C.Trigonal 0.0 **** 0.0
18 C9429 0.109161965609636 0.518016665984528 0.531299949771537 C 0.0 **** 0.0
19 C9435 0.0990226100996579 0.503945269147688 0.558508134618354 C.Trigonal 0.0 **** 0.0
20 C9436 0.1022974415174 0.50186058322036 0.57522839239664 C.Trigonal 0.0 **** 0.0
21 C9437 0.117865975410603 0.50966296478116 0.58303879164381 C.Trigonal 0.0 **** 0.0
22 C9438 0.131396753082947 0.513661426557995 0.572182503202586 C.Trigonal 0.0 **** 0.0
23 C9444 0.0927910389042301 0.489095744676928 0.585982567097022 C 0.0 **** 0.0
24 C9445 0.0865624615835889 0.474531414899493 0.574732870378069 C 0.0 **** 0.0
25 C9446 0.0751948137625394 0.481505024036711 0.560512935189289 C 0.0 **** 0.0
26 C9447 0.0850843950798499 0.494154469451059 0.549323549835579 C 0.0 **** 0.0
27 C9453 0.146228116206677 0.520771895240135 0.579495983325784 C 0.0 **** 0.0
28 C9454 0.147029264057654 0.523362318199239 0.596770254736812 C.Trigonal 0.0 **** 0.0
29 C9455 0.133236503602674 0.520283013392485 0.607032112722659 C.Trigonal 0.0 **** 0.0
30 C9456 0.118482994186764 0.5136372686505 0.600191170970087 C 0.0 **** 0.0
31 C9462 0.133910618804158 0.524423419201682 0.625723062612575 C 0.0 **** 0.0
32 C9463 0.149803029534514 0.531438974390257 0.632527739480351 C.Trigonal 0.0 **** 0.0
33 C9464 0.163493882179125 0.533762490091807 0.622482553205647 C.Trigonal 0.0 **** 0.0
34 C9465 0.163170510895754 0.530062577797209 0.604313622652933 C 0.0 **** 0.0
35 C9471 0.180085390820019 0.540549851898423 0.629416694903817 C 0.0 **** 0.0
36 C9472 0.181907096388458 0.53540755849096 0.648117836057051 C 0.0 **** 0.0
37 C9473 0.166421255007455 0.541353206815733 0.657650625837333 C.Trigonal 0.0 **** 0.0
38 C9474 0.150450572527954 0.537123650611292 0.650726887047167 C.Trigonal 0.0 **** 0.0
39 N9480 0.136055067765343 0.540283439559461 0.659108728375446 N 0.0 **** 0.0
40 C9481 0.136973482119156 0.549320215360838 0.67340100221271 C.Trigonal 0.0 **** 0.0
41 C9482 0.152434885564514 0.556018959550725 0.679638220258574 C.Trigonal 0.0 **** 0.0
42 C9483 0.167243717577209 0.551090199427865 0.672079668193229 C.Trigonal 0.0 **** 0.0
43 C9489 0.184414664386923 0.55647903203121 0.67906902252147 C 0.0 **** 0.0
44 C9490 0.183348345110888 0.5709650827201 0.691920495073683 C 0.0 **** 0.0
45 C9491 0.168589155642039 0.568370120202288 0.704027118155086 C 0.0 **** 0.0
46 C9492 0.152104877476275 0.5688842855248 0.693901379741593 C 0.0 **** 0.0
47 C9498 0.136380402978956 0.56603053589993 0.704983157797542 C 0.0 **** 0.0
48 C9499 0.120891016480048 0.565094307945916 0.693895378450515 C.Trigonal 0.0 **** 0.0
49 C9500 0.121099690595755 0.553572160969464 0.680461173847214 C.Trigonal 0.0 **** 0.0
50 C9505 0.105970310392897 0.550419005863807 0.671611397389405 C 0.0 **** 0.0
51 C9506 0.0925057183089953 0.561197448263011 0.673749855502806 C 0.0 **** 0.0
52 C9507 0.093394370607068 0.57461452967662 0.684977015994446 C 0.0 **** 0.0
53 C9508 0.107644783466186 0.576500779312773 0.695223079802764 C 0.0 **** 0.0
54 C9514 0.192203255454953 0.45490940278864 0.506994474208262 C 0.0 **** 0.0
55 C9516 0.179397359695677 0.446058671857746 0.518535176160836 C 0.0 **** 0.0
56 C9518 0.182032951562984 0.458547586912267 0.471551362447589 C 0.0 **** 0.0
57 C9520 0.188735644002128 0.484179098493815 0.529813592749687 C 0.0 **** 0.0
58 C9522 0.172213160488021 0.491492671781025 0.458781670804425 C 0.0 **** 0.0
59 C9524 0.130021851471648 0.533577373756521 0.474294600771934 C 0.0 **** 0.0
60 C9526 0.103856323509292 0.538527317343488 0.499483321692081 C 0.0 **** 0.0
61 O9528 0.0929503283819768 0.519233639797212 0.525283725590199 O 0.0 **** 0.0
62 C9530 0.0588871104123579 0.489658233879817 0.567351963180184 C 0.0 **** 0.0
63 C9532 0.077402147575405 0.461158357656122 0.585472957056449 C 0.0 **** 0.0
64 O9534 0.104244610899231 0.51089266389779 0.609877458570396 O 0.0 **** 0.0
65 O9536 0.15935807096313 0.52549676281864 0.569242015489906 O 0.0 **** 0.0
66 O9538 0.175537440740794 0.532238155351973 0.595419964270043 O 0.0 **** 0.0
67 O9540 0.121332805422715 0.521924568098403 0.634228712051257 O 0.0 **** 0.0
68 C9542 0.10892622722459 0.59118400604939 0.707394216582833 C 0.0 **** 0.0
69 C9544 0.0786914880538735 0.586790609437838 0.685471594612771 C 0.0 **** 0.0
70 H9546 0.173225583050689 0.511239873441372 0.530471683077804 H 0.0 **** 0.0
71 H9548 0.178966871432289 0.52514934491011 0.514473103539829 H 0.0 **** 0.0
72 H9550 0.171987818087787 0.528689545056706 0.484277956010067 H 0.0 **** 0.0
73 H9552 0.157743840025442 0.517617209913463 0.47139584249083 H 0.0 **** 0.0
74 H9554 0.155163837158635 0.511427658282035 0.546521484187037 H 0.0 **** 0.0
75 H9556 0.101049748003521 0.483584828679849 0.595773225682365 H 0.0 **** 0.0
76 H9558 0.0821276170567007 0.495134043767154 0.592566085218112 H 0.0 **** 0.0
77 H9560 0.0976152023389054 0.468404271906685 0.568849406301509 H 0.0 **** 0.0
78 H9562 0.0713707439035617 0.470853866165694 0.552426043128935 H 0.0 **** 0.0
79 H9564 0.0759177975128164 0.502655320377236 0.543258946514161 H 0.0 **** 0.0
80 H9566 0.0910876223407223 0.48683591159918 0.539088350529418 H 0.0 **** 0.0
81 H9568 0.191080470760233 0.535663435103232 0.622353472603579 H 0.0 **** 0.0
82 H9570 0.180426057283688 0.554430109346713 0.628178686033597 H 0.0 **** 0.0
83 H9572 0.193812105615922 0.540380004332896 0.653191246348784 H 0.0 **** 0.0
84 H9574 0.18299726350332 0.521510171423898 0.649007472991298 H 0.0 **** 0.0
85 H9576 0.19044407727207 0.545461726306982 0.68517206691931 H 0.0 **** 0.0
86 H9578 0.192902107981198 0.560509611303533 0.668796457321184 H 0.0 **** 0.0
87 H9580 0.181502659904254 0.58302916471927 0.685155413498387 H 0.0 **** 0.0
88 H9582 0.19541033186483 0.572133932242869 0.698801232655048 H 0.0 **** 0.0
89 H9584 0.168468154126381 0.578260866715798 0.71384948327257 H 0.0 **** 0.0
90 H9586 0.169908934633216 0.556165136661131 0.710617106756214 H 0.0 **** 0.0
91 H9588 0.151048110083508 0.581648012317496 0.6882380061976 H 0.0 **** 0.0
92 H9590 0.13787484181264 0.554032093848196 0.711952089382988 H 0.0 **** 0.0
93 H9592 0.135667892822746 0.575990581988627 0.714611651019225 H 0.0 **** 0.0
94 H9594 0.105619596825613 0.541164023825899 0.661239054043749 H 0.0 **** 0.0
95 H9596 0.0811116304141947 0.559584605098849 0.665942461393226 H 0.0 **** 0.0
96 H9598 0.204073553288109 0.456853373448968 0.513978841155795 H 0.0 **** 0.0
97 H9600 0.195662585617679 0.446348558179217 0.496624768688081 H 0.0 **** 0.0
98 H9602 0.166863468026834 0.445629699230729 0.512616978633985 H 0.0 **** 0.0
99 H9604 0.177966645894941 0.452659752006767 0.530679950566193 H 0.0 **** 0.0
100 H9606 0.183280878248349 0.433001846756008 0.521345439274591 H 0.0 **** 0.0
101 H9608 0.174122517064109 0.460089161271339 0.460255186876665 H 0.0 **** 0.0
102 H9610 0.177627261211062 0.446761356153126 0.477455035006204 H 0.0 **** 0.0
103 H9612 0.195086426872391 0.45652700450181 0.467249156113606 H 0.0 **** 0.0
104 H9614 0.177750570943379 0.482378163857718 0.538190011512595 H 0.0 **** 0.0
105 H9616 0.19521157312707 0.495862494370198 0.533722288275567 H 0.0 **** 0.0
106 H9618 0.197710606478398 0.473961772337201 0.532459198061763 H 0.0 **** 0.0
107 H9620 0.173547104541171 0.504801767039146 0.455053661953289 H 0.0 **** 0.0
108 H9622 0.159616431203001 0.487150099875628 0.454830295075534 H 0.0 **** 0.0
109 H9624 0.181632764237265 0.484632067127077 0.451190046093165 H 0.0 **** 0.0
110 H9626 0.116694638908077 0.535868005912685 0.47125216012708 H 0.0 **** 0.0
111 H9628 0.134070916950034 0.523809663744611 0.465287403883265 H 0.0 **** 0.0
112 H9630 0.137032191367307 0.545251959220468 0.471357055555562 H 0.0 **** 0.0
113 H9632 0.0950740795103647 0.529432942932511 0.493653920332039 H 0.0 **** 0.0
114 H9634 0.105816361966818 0.548991358567668 0.490547994152493 H 0.0 **** 0.0
115 H9636 0.0974618879078822 0.544416109905206 0.510321552361495 H 0.0 **** 0.0
116 H9638 0.0855544970924102 0.519884284109952 0.534679281125229 H 0.0 **** 0.0
117 H9640 0.0515519360259583 0.48055927813344 0.574864017510108 H 0.0 **** 0.0
118 H9642 0.0508475809688302 0.493661319441715 0.556773250916147 H 0.0 **** 0.0
119 H9644 0.0616979362015366 0.500723931892347 0.575258114986468 H 0.0 **** 0.0
120 H9646 0.0863204563902647 0.455117834682084 0.594272076670014 H 0.0 **** 0.0
121 H9648 0.0719736206017449 0.451290563620391 0.577331653720358 H 0.0 **** 0.0
122 H9650 0.0672133037123996 0.466898075293703 0.592975594711463 H 0.0 **** 0.0
123 H9652 0.106943753952761 0.513186423809932 0.621432789903011 H 0.0 **** 0.0
124 H9654 0.16856693949893 0.529362470440216 0.57601194652375 H 0.0 **** 0.0
125 H9656 0.111997856606492 0.587008023487975 0.720271798518301 H 0.0 **** 0.0
126 H9658 0.0972149698635937 0.598549163303514 0.70827474139179 H 0.0 **** 0.0
127 H9660 0.118902346353304 0.600045654663385 0.703377422034571 H 0.0 **** 0.0
128 H9662 0.0684958392265349 0.582963421914819 0.676849355455636 H 0.0 **** 0.0
129 H9664 0.0825937584499279 0.599615329437292 0.681690650260405 H 0.0 **** 0.0
130 H9666 0.0731303256305105 0.587623947589818 0.698171781831656 H 0.0 **** 0.0
@<TRIPOS>BOND
1 3 2 Aromatic
2 4 3 Aromatic
3 5 4 Aromatic
4 6 5 Aromatic
5 1 2 Aromatic
6 1 6 Aromatic
7 8 7 1
8 9 8 Aromatic
9 10 9 1
10 4 7 1
11 3 10 1
12 12 11 Aromatic
13 13 12 Aromatic
14 14 13 Aromatic
15 9 11 Aromatic
16 8 14 Aromatic
17 16 15 Aromatic
18 17 16 Aromatic
19 18 17 Aromatic
20 14 15 Aromatic
21 13 18 Aromatic
22 20 19 1
23 21 20 1
24 22 21 Aromatic
25 17 19 1
26 16 22 Aromatic
27 24 23 1
28 25 24 Aromatic
29 26 25 1
30 20 23 1
31 19 26 1
32 28 27 Aromatic
33 29 28 Aromatic
34 30 29 Aromatic
35 22 27 Aromatic
36 21 30 Aromatic
37 32 31 1
38 33 32 Aromatic
39 34 33 1
40 29 31 1
41 28 34 1
42 36 35 1
43 37 36 1
44 38 37 Aromatic
45 33 35 1
46 32 38 Aromatic
47 40 39 Aromatic
48 41 40 Aromatic
49 42 41 Aromatic
50 38 39 Aromatic
51 37 42 Aromatic
52 44 43 1
53 45 44 1
54 46 45 1
55 42 43 1
56 41 46 1
57 48 47 1
58 49 48 Aromatic
59 40 49 Aromatic
60 46 47 1
61 51 50 Aromatic
62 52 51 Aromatic
63 53 52 Aromatic
64 49 50 Aromatic
65 48 53 Aromatic
66 6 54 1
67 54 55 1
68 1 56 1
69 5 57 1
70 2 58 1
71 11 59 1
72 12 60 1
73 18 61 1
74 25 62 1
75 24 63 1
76 30 64 1
77 27 65 1
78 34 66 Double
79 31 67 Double
80 53 68 1
81 52 69 1
82 7 70 1
83 7 71 1
84 10 72 1
85 10 73 1
86 15 74 1
87 23 75 1
88 23 76 1
89 24 77 1
90 25 78 1
91 26 79 1
92 26 80 1
93 35 81 1
94 35 82 1
95 36 83 1
96 36 84 1
97 43 85 1
98 43 86 1
99 44 87 1
100 44 88 1
101 45 89 1
102 45 90 1
103 46 91 1
104 47 92 1
105 47 93 1
106 50 94 1
107 51 95 1
108 54 96 1
109 54 97 1
110 55 98 1
111 55 99 1
112 55 100 1
113 56 101 1
114 56 102 1
115 56 103 1
116 57 104 1
117 57 105 1
118 57 106 1
119 58 107 1
120 58 108 1
121 58 109 1
122 59 110 1
123 59 111 1
124 59 112 1
125 60 113 1
126 60 114 1
127 60 115 1
128 61 116 1
129 62 117 1
130 62 118 1
131 62 119 1
132 63 120 1
133 63 121 1
134 63 122 1
135 64 123 1
136 65 124 1
137 68 125 1
138 68 126 1
139 68 127 1
140 69 128 1
141 69 129 1
142 69 130 1
@<TRIPOS>MOLECULE
Sketch 4
130 142
SMALL
USER_CHARGES


@<TRIPOS>ATOM
1 C9668 0.814355799004143 0.142686230881615 0.587310120974568 C.Trigonal 0.0 **** 0.0
2 C9669 0.815628881671122 0.1298611714025 0.575462558814148 C 0.0 **** 0.0
3 C9670 0.818721297838091 0.133778040436735 0.558665177471499 C.Trigonal 0.0 **** 0.0
4 C9671 0.820828396908278 0.15034031369019 0.553833325328399 C.Trigonal 0.0 **** 0.0
5 C9672 0.820336900294758 0.163162178196201 0.56581306076006 C 0.0 **** 0.0
6 C9673 0.817339184416486 0.159289655221843 0.582606902276123 C 0.0 **** 0.0
7 C9680 0.824200054655835 0.154850089010113 0.535405542740451 C 0.0 **** 0.0
8 C9681 0.821616772634545 0.141136775820962 0.522180394531418 C.Trigonal 0.0 **** 0.0
9 C9682 0.819607774524746 0.12463852008217 0.527056862141266 C.Trigonal 0.0 **** 0.0
10 C9683 0.819853649355927 0.119684937900074 0.545676439041326 C 0.0 **** 0.0
11 C9689 0.817380455123136 0.111964490629189 0.515082102853796 C 0.0 **** 0.0
12 C9690 0.815799026512112 0.115617409001755 0.498049214078866 C 0.0 **** 0.0
13 C9691 0.819013485068427 0.132202540377834 0.492645677845149 C.Trigonal 0.0 **** 0.0
14 C9692 0.822199438552485 0.144885704330756 0.50483573528311 C.Trigonal 0.0 **** 0.0
15 C9698 0.826678830975664 0.160992355106493 0.499145993094139 C 0.0 **** 0.0
16 C9699 0.825149697456217 0.166320175284167 0.48233923469158 C.Trigonal 0.0 **** 0.0
17 C9700 0.823120286223355 0.153179115933318 0.470135360829539 C.Trigonal 0.0 **** 0.0
18 C9701 0.820715798260363 0.136493369221175 0.47522927210356 C 0.0 **** 0.0
19 C9707 0.824828887378518 0.157905682819747 0.451504491067805 C.Trigonal 0.0 **** 0.0
20 C9708 0.827775159432491 0.174253057164062 0.447109890172608 C.Trigonal 0.0 **** 0.0
21 C9709 0.825865090583763 0.188332736279785 0.460025805338675 C.Trigonal 0.0 **** 0.0
22 C9710 0.825144143988936 0.183915930407916 0.477335223839104 C.Trigonal 0.0 **** 0.0
23 C9716 0.833374437572581 0.179130269182945 0.429242728971609 C 0.0 **** 0.0
24 C9717 0.840346518499134 0.164145651996859 0.419135108783103 C 0.0 **** 0.0
25 C9718 0.826936369662753 0.150172944171699 0.420022679364918 C 0.0 **** 0.0
26 C9719 0.825195491126658 0.143742603399989 0.438239414516654 C 0.0 **** 0.0
27 C9725 0.822780896635091 0.197357698966486 0.489186536080712 C 0.0 **** 0.0
28 C9726 0.821116115540134 0.213899696327505 0.483707854758497 C.Trigonal 0.0 **** 0.0
29 C9727 0.821413707106858 0.217797442175679 0.466753987913336 C.Trigonal 0.0 **** 0.0
30 C9728 0.823471065958739 0.205070812415214 0.45486954955825 C 0.0 **** 0.0
31 C9734 0.818872732746971 0.235857880118652 0.460811695594103 C 0.0 **** 0.0
32 C9735 0.815283309272528 0.24890200343913 0.473620580762748 C.Trigonal 0.0 **** 0.0
33 C9736 0.815083515609748 0.245093146880102 0.490276559513893 C.Trigonal 0.0 **** 0.0
34 C9737 0.818219210266339 0.227825312903947 0.496479537352219 C 0.0 **** 0.0
35 C9743 0.81137563307541 0.258685345269732 0.503334184564988 C 0.0 **** 0.0
36 C9744 0.798050493312973 0.271294086302806 0.496512143273044 C 0.0 **** 0.0
37 C9745 0.802716275391313 0.277658055988953 0.478952191739709 C.Trigonal 0.0 **** 0.0
38 C9746 0.811464252689782 0.266667291456305 0.467830245941752 C.Trigonal 0.0 **** 0.0
39 N9752 0.815858705544817 0.271565712712224 0.452233474884311 N 0.0 **** 0.0
40 C9753 0.810625395996622 0.2867008909074 0.446722198483818 C.Trigonal 0.0 **** 0.0
41 C9754 0.801633806718443 0.298217648682662 0.457121542720432 C.Trigonal 0.0 **** 0.0
42 C9755 0.798046679535938 0.293569738507331 0.473427409533915 C.Trigonal 0.0 **** 0.0
43 C9761 0.788233102639059 0.305318158841186 0.485218398606278 C 0.0 **** 0.0
44 C9762 0.786351308784854 0.323366161053233 0.478347687075076 C 0.0 **** 0.0
45 C9763 0.782298612771 0.323195508522502 0.459495656619044 C 0.0 **** 0.0
46 C9764 0.797420446985357 0.31559346949105 0.45011252566953 C 0.0 **** 0.0
47 C9770 0.794794749223854 0.314398231908292 0.430790943686338 C 0.0 **** 0.0
48 C9771 0.810148413965221 0.306011964920562 0.423041348680365 C.Trigonal 0.0 **** 0.0
49 C9772 0.816446497210916 0.291195667256822 0.430527837959402 C.Trigonal 0.0 **** 0.0
50 C9777 0.830339879144148 0.282815470051556 0.423034981311853 C 0.0 **** 0.0
51 C9778 0.838682535086835 0.290306537418344 0.409816193553053 C 0.0 **** 0.0
52 C9779 0.832938091393116 0.305338313107087 0.402885017195529 C 0.0 **** 0.0
53 C9780 0.818280740350741 0.312896606593001 0.409175814331365 C 0.0 **** 0.0
54 C9786 0.817196560312488 0.17304779585329 0.595977594247939 C 0.0 **** 0.0
55 C9788 0.800157775733505 0.182168328486112 0.596035033496919 C 0.0 **** 0.0
56 C9790 0.809840657495258 0.138635263195504 0.605528806789156 C 0.0 **** 0.0
57 C9792 0.822829127430876 0.181255975590962 0.55991469249851 C 0.0 **** 0.0
58 C9794 0.813534745619284 0.111635227609371 0.581093229859803 C 0.0 **** 0.0
59 C9796 0.816343031877303 0.093695737540065 0.520967366190853 C 0.0 **** 0.0
60 C9798 0.811445576501909 0.100931834194254 0.486467659736167 C 0.0 **** 0.0
61 O9800 0.819958342018143 0.123425772599005 0.463922610617518 O 0.0 **** 0.0
62 C9802 0.830961414671307 0.135486557094574 0.407928764222973 C 0.0 **** 0.0
63 C9804 0.85786257394273 0.158705798592754 0.425802303005269 C 0.0 **** 0.0
64 O9806 0.822801544870971 0.208727867277555 0.437853798667047 O 0.0 **** 0.0
65 O9808 0.82148353059992 0.193865634284316 0.50608674221534 O 0.0 **** 0.0
66 O9810 0.818236817105877 0.224609237278591 0.511519573593362 O 0.0 **** 0.0
67 O9812 0.81961776517407 0.23882623311412 0.445743922603517 O 0.0 **** 0.0
68 C9814 0.811464859499093 0.328746397846658 0.400834327638773 C 0.0 **** 0.0
69 C9816 0.842783504533705 0.312780411869998 0.388307796410467 C 0.0 **** 0.0
70 H9818 0.815956008376654 0.165571724662485 0.53202665008925 H 0.0 **** 0.0
71 H9820 0.837348310004674 0.159397279588994 0.534367609491311 H 0.0 **** 0.0
72 H9822 0.83148093094944 0.112364036801572 0.54815001272273 H 0.0 **** 0.0
73 H9824 0.809110759228047 0.111078416882791 0.547839312647149 H 0.0 **** 0.0
74 H9826 0.830671804418375 0.169685555563039 0.509047692057458 H 0.0 **** 0.0
75 H9828 0.822508958246085 0.184260940732982 0.422209084011083 H 0.0 **** 0.0
76 H9830 0.843268962097644 0.188935134335749 0.429590865065371 H 0.0 **** 0.0
77 H9832 0.841776679979165 0.168126986075272 0.405870761251191 H 0.0 **** 0.0
78 H9834 0.81474841956721 0.15563861905515 0.416139428288097 H 0.0 **** 0.0
79 H9836 0.835958915582731 0.135259244827408 0.440758149760495 H 0.0 **** 0.0
80 H9838 0.813348708549011 0.136422437270348 0.438637637868362 H 0.0 **** 0.0
81 H9840 0.806726181403446 0.253411223985611 0.515394533596298 H 0.0 **** 0.0
82 H9842 0.823134318432671 0.265516952856829 0.506335216482178 H 0.0 **** 0.0
83 H9844 0.796947042975575 0.28165792537155 0.505702957290304 H 0.0 **** 0.0
84 H9846 0.785525303330727 0.265157777994576 0.496113348653176 H 0.0 **** 0.0
85 H9848 0.775503610206095 0.299966019398426 0.487269311935195 H 0.0 **** 0.0
86 H9850 0.794330166954671 0.306061029964072 0.497715495162932 H 0.0 **** 0.0
87 H9852 0.798310729280663 0.330303672963129 0.480200654472971 H 0.0 **** 0.0
88 H9854 0.776687310971525 0.330278040025785 0.485639272251481 H 0.0 **** 0.0
89 H9856 0.779934310074951 0.336112617037569 0.454856198343475 H 0.0 **** 0.0
90 H9858 0.770722177535103 0.315812004406111 0.457076148201285 H 0.0 **** 0.0
91 H9860 0.808309148581086 0.324053160779241 0.452429984891733 H 0.0 **** 0.0
92 H9862 0.783298793682938 0.306998228047265 0.427970334295136 H 0.0 **** 0.0
93 H9864 0.792558324697512 0.32715754956573 0.425801662871655 H 0.0 **** 0.0
94 H9866 0.835540615261496 0.271290786648444 0.428790375604671 H 0.0 **** 0.0
95 H9868 0.850018653361014 0.284256464900445 0.404528958705607 H 0.0 **** 0.0
96 H9870 0.827536210375318 0.18214584616213 0.594026876722363 H 0.0 **** 0.0
97 H9872 0.819632607725979 0.167905116637829 0.608667060561711 H 0.0 **** 0.0
98 H9874 0.789767537539094 0.173232108164884 0.598419292591099 H 0.0 **** 0.0
99 H9876 0.797640189851077 0.188440681016038 0.583880171980624 H 0.0 **** 0.0
100 H9878 0.799742641068381 0.191895510173884 0.605963628970501 H 0.0 **** 0.0
101 H9880 0.804438410288303 0.125969906030465 0.60717065672707 H 0.0 **** 0.0
102 H9882 0.800206009940319 0.147419787308988 0.610403207043926 H 0.0 **** 0.0
103 H9884 0.820943830899496 0.139518600594596 0.613879164210879 H 0.0 **** 0.0
104 H9886 0.811654364393352 0.185673289773185 0.552845972221147 H 0.0 **** 0.0
105 H9888 0.833857498691931 0.182425676910071 0.551531524326618 H 0.0 **** 0.0
106 H9890 0.824865323715367 0.19033266377592 0.570165228248612 H 0.0 **** 0.0
107 H9892 0.817858398726265 0.102364212245522 0.571737124917449 H 0.0 **** 0.0
108 H9894 0.800202489908454 0.108738591273593 0.583897957665349 H 0.0 **** 0.0
109 H9896 0.820954058475767 0.1090562453061 0.59258888060515 H 0.0 **** 0.0
110 H9898 0.82302104384983 0.0852075617320439 0.512207635883975 H 0.0 **** 0.0
111 H9900 0.803136961746754 0.089418765187796 0.521941244929847 H 0.0 **** 0.0
112 H9902 0.822366002921247 0.0915403036472326 0.533264041956071 H 0.0 **** 0.0
113 H9904 0.802550125959049 0.104601732359754 0.476464944537627 H 0.0 **** 0.0
114 H9906 0.804946793169019 0.0905751840130271 0.493035574588354 H 0.0 **** 0.0
115 H9908 0.822839970254987 0.0956179727732371 0.480479949836639 H 0.0 **** 0.0
116 H9910 0.823481607012216 0.127465498344472 0.453279452327229 H 0.0 **** 0.0
117 H9912 0.832239021797159 0.140159522854486 0.394891915921821 H 0.0 **** 0.0
118 H9914 0.820711338893811 0.126090015768219 0.408167747586769 H 0.0 **** 0.0
119 H9916 0.842792523425776 0.129133643285284 0.411518816992813 H 0.0 **** 0.0
120 H9918 0.86682305406932 0.169296707619671 0.424892629054064 H 0.0 **** 0.0
121 H9920 0.862938244675861 0.148184464822147 0.418275201886559 H 0.0 **** 0.0
122 H9922 0.857302990776316 0.154764208518093 0.43911534207184 H 0.0 **** 0.0
123 H9924 0.82037868422524 0.220477163317633 0.436416182268472 H 0.0 **** 0.0
124 H9926 0.819431085413869 0.204076405136297 0.512160934855961 H 0.0 **** 0.0
125 H9928 0.813919382719943 0.340080768602025 0.408534611816289 H 0.0 **** 0.0
126 H9930 0.797729890333365 0.32788760286946 0.398764531510248 H 0.0 **** 0.0
127 H9932 0.817025107145454 0.331058683617669 0.388336039300813 H 0.0 **** 0.0
128 H9934 0.835866841576994 0.311530981385007 0.376285041850542 H 0.0 **** 0.0
129 H9936 0.855042694840847 0.30647028216033 0.386690094667347 H 0.0 **** 0.0
130 H9938 0.845383370969513 0.326278207910191 0.390400069631575 H 0.0 **** 0.0
@<TRIPOS>BOND
1 3 2 Aromatic
2 4 3 Aromatic
3 5 4 Aromatic
4 6 5 Aromatic
5 1 2 Aromatic
6 1 6 Aromatic
7 8 7 1
8 9 8 Aromatic
9 10 9 1
10 4 7 1
11 3 10 1
12 12 11 Aromatic
13 13 12 Aromatic
14 14 13 Aromatic
15 9 11 Aromatic
16 8 14 Aromatic
17 16 15 Aromatic
18 17 16 Aromatic
19 18 17 Aromatic
20 14 15 Aromatic
21 13 18 Aromatic
22 20 19 1
23 21 20 1
24 22 21 Aromatic
25 17 19 1
26 16 22 Aromatic
27 24 23 1
28 25 24 Aromatic
29 26 25 1
30 20 23 1
31 19 26 1
32 28 27 Aromatic
33 29 28 Aromatic
34 30 29 Aromatic
35 22 27 Aromatic
36 21 30 Aromatic
37 32 31 1
38 33 32 Aromatic
39 34 33 1
40 29 31 1
41 28 34 1
42 36 35 1
43 37 36 1
44 38 37 Aromatic
45 33 35 1
46 32 38 Aromatic
47 40 39 Aromatic
48 41 40 Aromatic
49 42 41 Aromatic
50 38 39 Aromatic
51 37 42 Aromatic
52 44 43 1
53 45 44 1
54 46 45 1
55 42 43 1
56 41 46 1
57 48 47 1
58 49 48 Aromatic
59 40 49 Aromatic
60 46 47 1
61 51 50 Aromatic
62 52 51 Aromatic
63 53 52 Aromatic
64 49 50 Aromatic
65 48 53 Aromatic
66 6 54 1
67 54 55 1
68 1 56 1
69 5 57 1
70 2 58 1
71 11 59 1
72 12 60 1
73 18 61 1
74 25 62 1
75 24 63 1
76 30 64 1
77 27 65 1
78 34 66 Double
79 31 67 Double
80 53 68 1
81 52 69 1
82 7 70 1
83 7 71 1
84 10 72 1
85 10 73 1
86 15 74 1
87 23 75 1
88 23 76 1
89 24 77 1
90 25 78 1
91 26 79 1
92 26 80 1
93 35 81 1
94 35 82 1
95 36 83 1
96 36 84 1
97 43 85 1
98 43 86 1
99 44 87 1
100 44 88 1
101 45 89 1
102 45 90 1
103 46 91 1
104 47 92 1
105 47 93 1
106 50 94 1
107 51 95 1
108 54 96 1
109 54 97 1
110 55 98 1
111 55 99 1
112 55 100 1
113 56 101 1
114 56 102 1
115 56 103 1
116 57 104 1
117 57 105 1
118 57 106 1
119 58 107 1
120 58 108 1
121 58 109 1
122 59 110 1
123 59 111 1
124 59 112 1
125 60 113 1
126 60 114 1
127 60 115 1
128 61 116 1
129 62 117 1
130 62 118 1
131 62 119 1
132 63 120 1
133 63 121 1
134 63 122 1
135 64 123 1
136 65 124 1
137 68 125 1
138 68 126 1
139 68 127 1
140 69 128 1
141 69 129 1
142 69 130 1
@<TRIPOS>MOLECULE
Sketch 4
130 142
SMALL
USER_CHARGES


@<TRIPOS>ATOM
1 C9940 0.430155309677108 -0.0963159957028539 0.0496339158096099 C.Trigonal 0.0 **** 0.0
2 C9941 0.430009082245645 -0.0897123885231863 0.0658424524817628 C 0.0 **** 0.0
3 C9942 0.43617920724763 -0.073590107516658 0.0688191347734264 C.Trigonal 0.0 **** 0.0
4 C9943 0.44119063007233 -0.0635932143664402 0.0554762186872008 C.Trigonal 0.0 **** 0.0
5 C9944 0.440765062057002 -0.0699511897742627 0.0391260093287013 C 0.0 **** 0.0
6 C9945 0.435573252260819 -0.0864442160949812 0.0362645034257711 C 0.0 **** 0.0
7 C9952 0.446594822588462 -0.0453807357669431 0.0586586932003897 C 0.0 **** 0.0
8 C9953 0.450936143959327 -0.0403711372594541 0.0766761982903319 C.Trigonal 0.0 **** 0.0
9 C9954 0.447018421297555 -0.0508629931995893 0.0899146313991102 C.Trigonal 0.0 **** 0.0
10 C9955 0.436936912098139 -0.0669887129588985 0.086877061206374 C 0.0 **** 0.0
11 C9961 0.452493366469923 -0.0470226078769684 0.106192979143122 C 0.0 **** 0.0
12 C9962 0.462054464651174 -0.0327082168828456 0.109388891290206 C 0.0 **** 0.0
13 C9963 0.462790446078788 -0.0201958558752266 0.0969254667179624 C.Trigonal 0.0 **** 0.0
14 C9964 0.457810179761406 -0.0243745671760641 0.0801998719455701 C.Trigonal 0.0 **** 0.0
15 C9970 0.457938269119556 -0.0117033088070803 0.0678948793360613 C 0.0 **** 0.0
16 C9971 0.459511230793275 0.00542740337058399 0.0719681231479266 C.Trigonal 0.0 **** 0.0
17 C9972 0.466096197352399 0.0092405140665804 0.088297212739651 C.Trigonal 0.0 **** 0.0
18 C9973 0.466896858175817 -0.00316186201157833 0.10070728528582 C 0.0 **** 0.0
19 C9979 0.469919422383272 0.0276149542659645 0.0921774763911764 C.Trigonal 0.0 **** 0.0
20 C9980 0.465770685950403 0.0398161312107414 0.0809324173173859 C.Trigonal 0.0 **** 0.0
21 C9981 0.460074920811364 0.0353539664192326 0.0634203266535604 C.Trigonal 0.0 **** 0.0
22 C9982 0.454402255511042 0.0187958730049078 0.0604997089462339 C.Trigonal 0.0 **** 0.0
23 C9988 0.466059842633575 0.0580836542494091 0.0871228724333067 C 0.0 **** 0.0
24 C9989 0.483806915606336 0.0626483560693393 0.0936273949181212 C 0.0 **** 0.0
25 C9990 0.492372527398555 0.0471422345718112 0.102276438661882 C 0.0 **** 0.0
26 C9991 0.479628487535755 0.0334331655050156 0.107839369245783 C 0.0 **** 0.0
27 C9997 0.446196894760015 0.0157456693410292 0.0448571200896184 C 0.0 **** 0.0
28 C9998 0.448858803117695 0.0268484421434094 0.0315151622991927 C.Trigonal 0.0 **** 0.0
29 C9999 0.458485316873993 0.0412301732387677 0.0337095680232549 C.Trigonal 0.0 **** 0.0
30 C10000 0.463605632602581 0.0459985077851683 0.0497989365884421 C 0.0 **** 0.0
31 C10006 0.463362144858131 0.0521149312213557 0.0188353544742927 C 0.0 **** 0.0
32 C10007 0.457335727868083 0.0469133724777805 0.00201407392247569 C.Trigonal 0.0 **** 0.0
33 C10008 0.446977013704889 0.0334699070462369 -1.47108870041125e-05 C.Trigonal 0.0 **** 0.0
34 C10009 0.441621991446127 0.0228989057571815 0.0143691231378106 C 0.0 **** 0.0
35 C10015 0.440665407113651 0.0286836014312108 -0.0174850432250908 C 0.0 **** 0.0
36 C10016 0.454608125595006 0.0318146821793451 -0.0309194820910253 C 0.0 **** 0.0
37 C10017 0.462460385869847 0.0493519884805672 -0.0292797824312011 C.Trigonal 0.0 **** 0.0
38 C10018 0.463256575034897 0.0568645607383085 -0.0130566881992168 C.Trigonal 0.0 **** 0.0
39 N10024 0.47028841815399 0.0720327830116939 -0.0106256538572008 N 0.0 **** 0.0
40 C10025 0.478004749629618 0.0795485784375788 -0.023663326649424 C.Trigonal 0.0 **** 0.0
41 C10026 0.477643033798562 0.0728592222241168 -0.0402373136763986 C.Trigonal 0.0 **** 0.0
42 C10027 0.469495736792875 0.0577681853235029 -0.0429091007023526 C.Trigonal 0.0 **** 0.0
43 C10033 0.468929915545592 0.04979507483838 -0.0604656974828171 C 0.0 **** 0.0
44 C10034 0.47335996074018 0.0623856223169215 -0.0745287922018432 C 0.0 **** 0.0
45 C10035 0.489075909824602 0.0725502228531184 -0.0698761104833617 C 0.0 **** 0.0
46 C10036 0.485368585678288 0.0834042063409284 -0.0542656851843473 C 0.0 **** 0.0
47 C10042 0.501252851203833 0.0930355205956547 -0.0478652488285177 C 0.0 **** 0.0
48 C10043 0.498406735309977 0.101348462310541 -0.0307720165838398 C.Trigonal 0.0 **** 0.0
49 C10044 0.486425704087463 0.0946697754572875 -0.0195107952407068 C.Trigonal 0.0 **** 0.0
50 C10049 0.484047640648884 0.102352238256356 -0.00354474259807764 C 0.0 **** 0.0
51 C10050 0.494001815620168 0.115685585524702 0.00121343667461425 C 0.0 **** 0.0
52 C10051 0.506601064124716 0.12159587964004 -0.00936588628356796 C 0.0 **** 0.0
53 C10052 0.50890396132152 0.114261564366892 -0.0252848592139381 C 0.0 **** 0.0
54 C10058 0.435576150855396 -0.0936606573414062 0.0184621897896694 C 0.0 **** 0.0
55 C10060 0.452480636939413 -0.102355155378533 0.0146918382594286 C 0.0 **** 0.0
56 C10062 0.424025120938674 -0.114267110360075 0.0467066447877377 C 0.0 **** 0.0
57 C10064 0.445959733990647 -0.0591238747084372 0.0241571287434064 C 0.0 **** 0.0
58 C10066 0.42312154628572 -0.100417213371965 0.0801702037610651 C 0.0 **** 0.0
59 C10068 0.448585911103752 -0.0591193122373328 0.12055701237409 C 0.0 **** 0.0
60 C10070 0.470017088921498 -0.0311478037395453 0.126699925666027 C 0.0 **** 0.0
61 O10072 0.471090662647779 0.00142349715768616 0.117046357985063 O 0.0 **** 0.0
62 C10074 0.50364810173215 0.0519719638874736 0.117264662896114 C 0.0 **** 0.0
63 C10076 0.482342702075679 0.0782184255495026 0.105093618105179 C 0.0 **** 0.0
64 O10078 0.472147280293479 0.0608718453486244 0.052684699084847 O 0.0 **** 0.0
65 O10080 0.436725692734429 0.00133742171456551 0.0428548301486562 O 0.0 **** 0.0
66 O10082 0.431884175531951 0.0110964919006271 0.0128949448312872 O 0.0 **** 0.0
67 O10084 0.47256266913811 0.0641894744493366 0.021426967831242 O 0.0 **** 0.0
68 C10086 0.523545195130794 0.12075392432172 -0.0357504610724856 C 0.0 **** 0.0
69 C10088 0.517738033818898 0.135850579815417 -0.00311821164008993 C 0.0 **** 0.0
70 H10090 0.457929052589649 -0.0428144738648565 0.0509736878855211 H 0.0 **** 0.0
71 H10092 0.436512621599512 -0.0368869380174068 0.0540937212436105 H 0.0 **** 0.0
72 H10094 0.423887272257925 -0.0649821562871351 0.0914797285983079 H 0.0 **** 0.0
73 H10096 0.442468231872304 -0.0770828930847419 0.0946994314396544 H 0.0 **** 0.0
74 H10098 0.454326058060982 -0.0153975469390948 0.055083571714621 H 0.0 **** 0.0
75 H10100 0.461534318305314 0.0676869070437882 0.0781503836796155 H 0.0 **** 0.0
76 H10102 0.457061686972653 0.0587479701745171 0.0977451611523627 H 0.0 **** 0.0
77 H10104 0.491646321269514 0.0663135542513308 0.0827495652799225 H 0.0 **** 0.0
78 H10106 0.500661091672686 0.0412791555255426 0.0927535694025212 H 0.0 **** 0.0
79 H10108 0.470920613523775 0.0384109415618896 0.117447841571028 H 0.0 **** 0.0
80 H10110 0.487189540146478 0.0234185399523401 0.113739933195145 H 0.0 **** 0.0
81 H10112 0.436826963049438 0.0152987198205809 -0.0181229825764124 H 0.0 **** 0.0
82 H10114 0.429326521495262 0.0361887331263337 -0.0205211660792043 H 0.0 **** 0.0
83 H10116 0.449004368208367 0.0297287331457698 -0.0434595479369167 H 0.0 **** 0.0
84 H10118 0.464548909717839 0.0221240543601549 -0.0294581414565929 H 0.0 **** 0.0
85 H10120 0.477944808509434 0.0391457279148841 -0.0609025124049517 H 0.0 **** 0.0
86 H10122 0.456345574403695 0.044510071467406 -0.063163445012494 H 0.0 **** 0.0
87 H10124 0.462694902803234 0.0711591199254361 -0.0763566640713648 H 0.0 **** 0.0
88 H10126 0.475088225632717 0.0556830899310877 -0.0866250540757356 H 0.0 **** 0.0
89 H10128 0.493080168774304 0.0806783372224183 -0.0804757083746394 H 0.0 **** 0.0
90 H10130 0.499663067201165 0.0638632184492029 -0.0673215121731377 H 0.0 **** 0.0
91 H10132 0.475882068663302 0.0929347759567675 -0.0579767943146295 H 0.0 **** 0.0
92 H10134 0.511912592088229 0.0841683007731522 -0.0468809297806769 H 0.0 **** 0.0
93 H10136 0.504695874696189 0.102318679466584 -0.0576186337317108 H 0.0 **** 0.0
94 H10138 0.4746695802502 0.0972542725182206 0.00534877315084262 H 0.0 **** 0.0
95 H10140 0.492241950920192 0.121496981885919 0.0137027232346276 H 0.0 **** 0.0
96 H10142 0.433340871980279 -0.0838426200756077 0.0088967413850564 H 0.0 **** 0.0
97 H10144 0.425108318759582 -0.102656085139838 0.0167022832600885 H 0.0 **** 0.0
98 H10146 0.455060010773008 -0.112645801339627 0.0236913751816408 H 0.0 **** 0.0
99 H10148 0.463022666213514 -0.0933111205289216 0.0154994420589432 H 0.0 **** 0.0
100 H10150 0.452607300453436 -0.107817560130283 0.00189472973608853 H 0.0 **** 0.0
101 H10152 0.430605916278433 -0.120533625013687 0.0362154458378278 H 0.0 **** 0.0
102 H10154 0.410380839476557 -0.114480489105662 0.0438842859386888 H 0.0 **** 0.0
103 H10156 0.426176458783619 -0.12244026072088 0.0577338812177287 H 0.0 **** 0.0
104 H10158 0.457428059376143 -0.0641163438141126 0.0180442246025055 H 0.0 **** 0.0
105 H10160 0.448562211240009 -0.0459352907342362 0.0274272923285747 H 0.0 **** 0.0
106 H10162 0.435875550934767 -0.0585830978045459 0.0145716692335582 H 0.0 **** 0.0
107 H10164 0.432160109268883 -0.110409140423971 0.0836349078527693 H 0.0 **** 0.0
108 H10166 0.411173647101351 -0.106585357606458 0.0765750465389511 H 0.0 **** 0.0
109 H10168 0.420256731342673 -0.0931858254541357 0.0916442264459745 H 0.0 **** 0.0
110 H10170 0.447922028674186 -0.0526722482761344 0.132827453792608 H 0.0 **** 0.0
111 H10172 0.458411232390113 -0.0689052557743229 0.121591834920064 H 0.0 **** 0.0
112 H10174 0.436276820386307 -0.065343588874747 0.11895871086391 H 0.0 **** 0.0
113 H10176 0.481847555695522 -0.0239219052251811 0.126273510194634 H 0.0 **** 0.0
114 H10178 0.473744851998604 -0.0435619890200911 0.131726954634428 H 0.0 **** 0.0
115 H10180 0.461557359082805 -0.0252588385223844 0.135988408180178 H 0.0 **** 0.0
116 H10182 0.461508238968589 -0.000416034025566883 0.12417261742309 H 0.0 **** 0.0
117 H10184 0.513549277704759 0.0607861079965911 0.113125725304167 H 0.0 **** 0.0
118 H10186 0.509853487848686 0.0406648230885379 0.12241566897869 H 0.0 **** 0.0
119 H10188 0.496182595352272 0.0577924577896405 0.127442134865594 H 0.0 **** 0.0
120 H10190 0.476997288361286 0.0888378078528955 0.097923424800547 H 0.0 **** 0.0
121 H10192 0.49485700985414 0.08211189578629 0.109554650529313 H 0.0 **** 0.0
122 H10194 0.47427563239427 0.0755984052720105 0.116087072705087 H 0.0 **** 0.0
123 H10196 0.474717550405521 0.0659225721772695 0.0420052195194318 H 0.0 **** 0.0
124 H10198 0.431118821480113 0.00178575972552633 0.0321664241785846 H 0.0 **** 0.0
125 H10200 0.523234196705859 0.117064887282291 -0.0490852215812713 H 0.0 **** 0.0
126 H10202 0.535530103301621 0.116112950428243 -0.0305095059906717 H 0.0 **** 0.0
127 H10204 0.524266910342392 0.134618017649422 -0.0354559991822724 H 0.0 **** 0.0
128 H10206 0.531232287915497 0.132531775757779 -0.00394425132096806 H 0.0 **** 0.0
129 H10208 0.51517711635773 0.138960626570553 0.0101627634966031 H 0.0 **** 0.0
130 H10210 0.515740634456613 0.147500049907087 -0.0104836398407409 H 0.0 **** 0.0
@<TRIPOS>BOND
1 3 2 Aromatic
2 4 3 Aromatic
3 5 4 Aromatic
4 6 5 Aromatic
5 1 2 Aromatic
6 1 6 Aromatic
7 8 7 1
8 9 8 Aromatic
9 10 9 1
10 4 7 1
11 3 10 1
12 12 11 Aromatic
13 13 12 Aromatic
14 14 13 Aromatic
15 9 11 Aromatic
16 8 14 Aromatic
17 16 15 Aromatic
18 17 16 Aromatic
19 18 17 Aromatic
20 14 15 Aromatic
21 13 18 Aromatic
22 20 19 1
23 21 20 1
24 22 21 Aromatic
25 17 19 1
26 16 22 Aromatic
27 24 23 1
28 25 24 Aromatic
29 26 25 1
30 20 23 1
31 19 26 1
32 28 27 Aromatic
33 29 28 Aromatic
34 30 29 Aromatic
35 22 27 Aromatic
36 21 30 Aromatic
37 32 31 1
38 33 32 Aromatic
39 34 33 1
40 29 31 1
41 28 34 1
42 36 35 1
43 37 36 1
44 38 37 Aromatic
45 33 35 1
46 32 38 Aromatic
47 40 39 Aromatic
48 41 40 Aromatic
49 42 41 Aromatic
50 38 39 Aromatic
51 37 42 Aromatic
52 44 43 1
53 45 44 1
54 46 45 1
55 42 43 1
56 41 46 1
57 48 47 1
58 49 48 Aromatic
59 40 49 Aromatic
60 46 47 1
61 51 50 Aromatic
62 52 51 Aromatic
63 53 52 Aromatic
64 49 50 Aromatic
65 48 53 Aromatic
66 6 54 1
67 54 55 1
68 1 56 1
69 5 57 1
70 2 58 1
71 11 59 1
72 12 60 1
73 18 61 1
74 25 62 1
75 24 63 1
76 30 64 1
77 27 65 1
78 34 66 Double
79 31 67 Double
80 53 68 1
81 52 69 1
82 7 70 1
83 7 71 1
84 10 72 1
85 10 73 1
86 15 74 1
87 23 75 1
88 23 76 1
89 24 77 1
90 25 78 1
91 26 79 1
92 26 80 1
93 35 81 1
94 35 82 1
95 36 83 1
96 36 84 1
97 43 85 1
98 43 86 1
99 44 87 1
100 44 88 1
101 45 89 1
102 45 90 1
103 46 91 1
104 47 92 1
105 47 93 1
106 50 94 1
107 51 95 1
108 54 96 1
109 54 97 1
110 55 98 1
111 55 99 1
112 55 100 1
113 56 101 1
114 56 102 1
115 56 103 1
116 57 104 1
117 57 105 1
118 57 106 1
119 58 107 1
120 58 108 1
121 58 109 1
122 59 110 1
123 59 111 1
124 59 112 1
125 60 113 1
126 60 114 1
127 60 115 1
128 61 116 1
129 62 117 1
130 62 118 1
131 62 119 1
132 63 120 1
133 63 121 1
134 63 122 1
135 64 123 1
136 65 124 1
137 68 125 1
138 68 126 1
139 68 127 1
140 69 128 1
141 69 129 1
142 69 130 1
@<TRIPOS>MOLECULE
Sketch 4
130 142
SMALL
USER_CHARGES


@<TRIPOS>ATOM
1 C10212 0.688906908457956 1.00224886584454 0.214670571173453 C.Trigonal 0.0 **** 0.0
2 C10213 0.679609681574753 0.995786814689149 0.228027401947899 C 0.0 **** 0.0
3 C10214 0.687160234562705 0.984939517246364 0.239558405761849 C.Trigonal 0.0 **** 0.0
4 C10215 0.703602459849523 0.979852817018864 0.23718458920728 C.Trigonal 0.0 **** 0.0
5 C10216 0.713106613662828 0.98671477552975 0.224126432241017 C 0.0 **** 0.0
6 C10217 0.705901082343323 0.998352671876603 0.213208876712259 C 0.0 **** 0.0
7 C10224 0.711429154424033 0.966419640947513 0.248550406832926 C 0.0 **** 0.0
8 C10225 0.702026968038 0.961642996374232 0.264619962187079 C.Trigonal 0.0 **** 0.0
9 C10226 0.686113798156266 0.967783128419335 0.267662826918679 C.Trigonal 0.0 **** 0.0
10 C10227 0.676953109664047 0.978484557995234 0.254512330674885 C 0.0 **** 0.0
11 C10233 0.678126900905749 0.964564984895039 0.283009944683926 C 0.0 **** 0.0
12 C10234 0.686023692752208 0.95549110272365 0.295725193398108 C 0.0 **** 0.0
13 C10235 0.700888015952114 0.94676791967773 0.291785194579213 C.Trigonal 0.0 **** 0.0
14 C10236 0.708994866511926 0.950112679645798 0.276187001371145 C.Trigonal 0.0 **** 0.0
15 C10242 0.72355493477705 0.940998178126442 0.272212724622972 C 0.0 **** 0.0
16 C10243 0.731293403261857 0.929609470989047 0.283303337654132 C.Trigonal 0.0 **** 0.0
17 C10244 0.721736106472531 0.924629128390429 0.297712068688788 C.Trigonal 0.0 **** 0.0
18 C10245 0.707098271378689 0.933505331842277 0.302122060534153 C 0.0 **** 0.0
19 C10251 0.727578279676011 0.908858214899115 0.307207253315913 C.Trigonal 0.0 **** 0.0
20 C10252 0.741701965989862 0.900580729121235 0.301900933290912 C.Trigonal 0.0 **** 0.0
21 C10253 0.753742349430299 0.908768373772096 0.289438792054474 C.Trigonal 0.0 **** 0.0
22 C10254 0.748029856303637 0.923148674738561 0.280529697975008 C.Trigonal 0.0 **** 0.0
23 C10260 0.745131340652945 0.882214762735411 0.30670560388387 C 0.0 **** 0.0
24 C10261 0.72885808188884 0.873414487122723 0.312528852516978 C 0.0 **** 0.0
25 C10262 0.72086997657055 0.883650397723092 0.327000523824731 C 0.0 **** 0.0
26 C10263 0.715325836771213 0.900944232294631 0.320008081846518 C 0.0 **** 0.0
27 C10269 0.759496304159369 0.931134502576129 0.269157656615919 C 0.0 **** 0.0
28 C10270 0.774827267748896 0.923576733143405 0.265576137660011 C.Trigonal 0.0 **** 0.0
29 C10271 0.780368471143526 0.909792379502052 0.274698478959291 C.Trigonal 0.0 **** 0.0
30 C10272 0.770196615116329 0.902763300972273 0.287163425110136 C 0.0 **** 0.0
31 C10278 0.797585392193362 0.902214608564262 0.271279741408563 C 0.0 **** 0.0
32 C10279 0.807353399143686 0.908944430010878 0.256953833941589 C.Trigonal 0.0 **** 0.0
33 C10280 0.801449985748607 0.921937349994095 0.247516963051375 C.Trigonal 0.0 **** 0.0
34 C10281 0.785543715255043 0.930618239088242 0.251510247983777 C 0.0 **** 0.0
35 C10287 0.811025859718308 0.928130225467372 0.23208690785236 C 0.0 **** 0.0
36 C10288 0.820429529565234 0.913082251269776 0.22380608462519 C 0.0 **** 0.0
37 C10289 0.831324684350831 0.903950201121909 0.236727218592422 C.Trigonal 0.0 **** 0.0
38 C10290 0.824391732972536 0.901366187882223 0.253034341506434 C.Trigonal 0.0 **** 0.0
39 N10296 0.832994401585882 0.893207443748142 0.265123898271142 N 0.0 **** 0.0
40 C10297 0.848153540107947 0.886724289120979 0.261241278675068 C.Trigonal 0.0 **** 0.0
41 C10298 0.855961781304104 0.889174327303446 0.245294843805168 C.Trigonal 0.0 **** 0.0
42 C10299 0.847361375570254 0.898061154930132 0.233146274307498 C.Trigonal 0.0 **** 0.0
43 C10305 0.855104754394361 0.901058369416141 0.215752665135483 C 0.0 **** 0.0
44 C10306 0.874241032819135 0.89791894098806 0.215441556860281 C 0.0 **** 0.0
45 C10307 0.878411127288514 0.881265211506973 0.224221621117431 C 0.0 **** 0.0
46 C10308 0.873976340643932 0.882870657733149 0.242997999913665 C 0.0 **** 0.0
47 C10314 0.876380775388075 0.866186253787119 0.252871493836669 C 0.0 **** 0.0
48 C10315 0.870857264210674 0.868654854053448 0.271068605721114 C.Trigonal 0.0 **** 0.0
49 C10316 0.856578117499444 0.878603699596157 0.274620309828552 C.Trigonal 0.0 **** 0.0
50 C10321 0.851301988841927 0.880592228121596 0.291574454897048 C 0.0 **** 0.0
51 C10322 0.860032447796813 0.872703276284277 0.304275271868023 C 0.0 **** 0.0
52 C10323 0.873872183780794 0.86255742203578 0.300785410969885 C 0.0 **** 0.0
53 C10324 0.879173203942002 0.860444652987053 0.284090598302679 C 0.0 **** 0.0
54 C10330 0.716499622303899 1.0065378245628 0.19946385275877 C 0.0 **** 0.0
55 C10332 0.716126219769789 0.995885969475921 0.183273447847622 C 0.0 **** 0.0
56 C10334 0.680219914628759 1.013692681909 0.201952557892064 C 0.0 **** 0.0
57 C10336 0.731423223993999 0.981344505311537 0.222172996524656 C 0.0 **** 0.0
58 C10338 0.661026754329345 1.00023411700929 0.229856782734363 C 0.0 **** 0.0
59 C10340 0.660628215891281 0.971780912696955 0.286136119244669 C 0.0 **** 0.0
60 C10342 0.677132595698547 0.954779508227343 0.312689621552069 C 0.0 **** 0.0
61 O10344 0.698486611778641 0.929021452251348 0.316459445658582 O 0.0 **** 0.0
62 C10346 0.732719755881378 0.885980686731679 0.342339173576887 C 0.0 **** 0.0
63 C10348 0.732523706768899 0.855072062150455 0.317734133796533 C 0.0 **** 0.0
64 O10350 0.775961134494996 0.889743590178091 0.297203262467993 O 0.0 **** 0.0
65 O10352 0.755193619656269 0.946164846907875 0.26170011209352 O 0.0 **** 0.0
66 O10354 0.780779073461392 0.942868288432309 0.243515172126036 O 0.0 **** 0.0
67 O10356 0.802520010431815 0.890739107561106 0.280220301856001 O 0.0 **** 0.0
68 C10358 0.894142224493319 0.849118067741917 0.280278315418297 C 0.0 **** 0.0
69 C10360 0.882637754133773 0.854004935788525 0.31546868064885 C 0.0 **** 0.0
70 H10362 0.713135063509064 0.954878404367125 0.240864829462372 H 0.0 **** 0.0
71 H10364 0.724178084992562 0.970684193303348 0.252277725030326 H 0.0 **** 0.0
72 H10366 0.671794075467569 0.989603892377969 0.261131184202111 H 0.0 **** 0.0
73 H10368 0.66607434120901 0.971221485572107 0.249616200214308 H 0.0 **** 0.0
74 H10370 0.728907650168042 0.943254553775636 0.259690319903272 H 0.0 **** 0.0
75 H10372 0.74995127854051 0.87505487961774 0.295756561242155 H 0.0 **** 0.0
76 H10374 0.754731111082743 0.88143186890624 0.316746771129355 H 0.0 **** 0.0
77 H10376 0.71989345163698 0.873085301289806 0.301863676130098 H 0.0 **** 0.0
78 H10378 0.70949499320522 0.876938099336808 0.331414725516235 H 0.0 **** 0.0
79 H10380 0.713471626052425 0.909429909702702 0.330886817754996 H 0.0 **** 0.0
80 H10382 0.702953742048252 0.899146794080341 0.313849293510186 H 0.0 **** 0.0
81 H10384 0.802503201147595 0.933734674202725 0.222543905589332 H 0.0 **** 0.0
82 H10386 0.819908821023367 0.938187087270516 0.235714037323313 H 0.0 **** 0.0
83 H10388 0.827639928452321 0.917697363100225 0.212902237199033 H 0.0 **** 0.0
84 H10390 0.811003927619496 0.904194250375298 0.218565008274923 H 0.0 **** 0.0
85 H10392 0.848895036980345 0.892618981351737 0.206539670608058 H 0.0 **** 0.0
86 H10394 0.852776592720633 0.914050658898323 0.211401497664381 H 0.0 **** 0.0
87 H10396 0.880792583960218 0.908307113904979 0.222068690696353 H 0.0 **** 0.0
88 H10398 0.8789533254727 0.898123635464232 0.202339164859016 H 0.0 **** 0.0
89 H10400 0.89190051562118 0.878072781367809 0.222756188464533 H 0.0 **** 0.0
90 H10402 0.871173049819558 0.870880469786572 0.21836217294117 H 0.0 **** 0.0
91 H10404 0.882647141777892 0.8923654185103 0.248548481330648 H 0.0 **** 0.0
92 H10406 0.868877897587155 0.856008119416125 0.246952887225657 H 0.0 **** 0.0
93 H10408 0.889721141474001 0.8624175929281 0.251909343455395 H 0.0 **** 0.0
94 H10410 0.840258265965751 0.88843986119781 0.294674638478896 H 0.0 **** 0.0
95 H10412 0.855854404264031 0.874341399536741 0.31743077457211 H 0.0 **** 0.0
96 H10414 0.729649121542734 1.00830516054588 0.203677077403194 H 0.0 **** 0.0
97 H10416 0.712064656346046 1.01945384275711 0.196761778968496 H 0.0 **** 0.0
98 H10418 0.703128233115123 0.994227921298612 0.178602749747873 H 0.0 **** 0.0
99 H10420 0.72141286192143 0.983203103428718 0.185444525062211 H 0.0 **** 0.0
100 H10422 0.723529705803003 1.00183674735084 0.173109694056646 H 0.0 **** 0.0
101 H10424 0.678594514095629 1.02655819473029 0.206984069624233 H 0.0 **** 0.0
102 H10426 0.667631950209404 1.00884960458124 0.198538024323175 H 0.0 **** 0.0
103 H10428 0.687068948182651 1.01479772412542 0.189967733806839 H 0.0 **** 0.0
104 H10430 0.739617181679296 0.988458218890318 0.230887848335619 H 0.0 **** 0.0
105 H10432 0.736374045956973 0.983230546932725 0.20936591953095 H 0.0 **** 0.0
106 H10434 0.733193391556835 0.96781830371327 0.224842537466039 H 0.0 **** 0.0
107 H10436 0.653023185223907 0.990498572698999 0.223910354668905 H 0.0 **** 0.0
108 H10438 0.657806806510648 1.01238894491947 0.223980365768506 H 0.0 **** 0.0
109 H10440 0.657093712343333 1.00139299778886 0.243107186627663 H 0.0 **** 0.0
110 H10442 0.661542041061069 0.983977384785001 0.292763258103614 H 0.0 **** 0.0
111 H10444 0.652714888752059 0.963288271812799 0.293789022221394 H 0.0 **** 0.0
112 H10446 0.653505778014768 0.973756862953159 0.274414625556974 H 0.0 **** 0.0
113 H10448 0.668410824681063 0.943958993659266 0.313498367783828 H 0.0 **** 0.0
114 H10450 0.66967803555129 0.966271557248439 0.315019480996733 H 0.0 **** 0.0
115 H10452 0.685972483493766 0.954381544265499 0.323407761847387 H 0.0 **** 0.0
116 H10454 0.687319628898029 0.933181458457463 0.315327043058708 H 0.0 **** 0.0
117 H10456 0.736647261779343 0.873681089846713 0.347467476577538 H 0.0 **** 0.0
118 H10458 0.726147802916951 0.892879812171546 0.352469859730821 H 0.0 **** 0.0
119 H10460 0.744059812219645 0.893211616737804 0.338898750188603 H 0.0 **** 0.0
120 H10462 0.73756874606661 0.847892073472736 0.306943661784455 H 0.0 **** 0.0
121 H10464 0.72091245488924 0.848791766395904 0.322085585258696 H 0.0 **** 0.0
122 H10466 0.741879782779841 0.854681203236699 0.327940386583524 H 0.0 **** 0.0
123 H10468 0.787370515799778 0.887136447358533 0.294184632813274 H 0.0 **** 0.0
124 H10470 0.763957323708134 0.949543137473293 0.254126109360953 H 0.0 **** 0.0
125 H10472 0.905527921433147 0.856619240564219 0.27741585586389 H 0.0 **** 0.0
126 H10474 0.891587813797056 0.840843504905476 0.26941071698993 H 0.0 **** 0.0
127 H10476 0.897310685975255 0.840688266647185 0.290828996251917 H 0.0 **** 0.0
128 H10478 0.880870192220571 0.840193448033577 0.315088575211717 H 0.0 **** 0.0
129 H10480 0.877630214748286 0.858418665516177 0.327644037966461 H 0.0 **** 0.0
130 H10482 0.896303610211359 0.856615528658771 0.315525974528837 H 0.0 **** 0.0
@<TRIPOS>BOND
1 3 2 Aromatic
2 4 3 Aromatic
3 5 4 Aromatic
4 6 5 Aromatic
5 1 2 Aromatic
6 1 6 Aromatic
7 8 7 1
8 9 8 Aromatic
9 10 9 1
10 4 7 1
11 3 10 1
12 12 11 Aromatic
13 13 12 Aromatic
14 14 13 Aromatic
15 9 11 Aromatic
16 8 14 Aromatic
17 16 15 Aromatic
18 17 16 Aromatic
19 18 17 Aromatic
20 14 15 Aromatic
21 13 18 Aromatic
22 20 19 1
23 21 20 1
24 22 21 Aromatic
25 17 19 1
26 16 22 Aromatic
27 24 23 1
28 25 24 Aromatic
29 26 25 1
30 20 23 1
31 19 26 1
32 28 27 Aromatic
33 29 28 Aromatic
34 30 29 Aromatic
35 22 27 Aromatic
36 21 30 Aromatic
37 32 31 1
38 33 32 Aromatic
39 34 33 1
40 29 31 1
41 28 34 1
42 36 35 1
43 37 36 1
44 38 37 Aromatic
45 33 35 1
46 32 38 Aromatic
47 40 39 Aromatic
48 41 40 Aromatic
49 42 41 Aromatic
50 38 39 Aromatic
51 37 42 Aromatic
52 44 43 1
53 45 44 1
54 46 45 1
55 42 43 1
56 41 46 1
57 48 47 1
58 49 48 Aromatic
59 40 49 Aromatic
60 46 47 1
61 51 50 Aromatic
62 52 51 Aromatic
63 53 52 Aromatic
64 49 50 Aromatic
65 48 53 Aromatic
66 6 54 1
67 54 55 1
68 1 56 1
69 5 57 1
70 2 58 1
71 11 59 1
72 12 60 1
73 18 61 1
74 25 62 1
75 24 63 1
76 30 64 1
77 27 65 1
78 34 66 Double
79 31 67 Double
80 53 68 1
81 52 69 1
82 7 70 1
83 7 71 1
84 10 72 1
85 10 73 1
86 15 74 1
87 23 75 1
88 23 76 1
89 24 77 1
90 25 78 1
91 26 79 1
92 26 80 1
93 35 81 1
94 35 82 1
95 36 83 1
96 36 84 1
97 43 85 1
98 43 86 1
99 44 87 1
100 44 88 1
101 45 89 1
102 45 90 1
103 46 91 1
104 47 92 1
105 47 93 1
106 50 94 1
107 51 95 1
108 54 96 1
109 54 97 1
110 55 98 1
111 55 99 1
112 55 100 1
113 56 101 1
114 56 102 1
115 56 103 1
116 57 104 1
117 57 105 1
118 57 106 1
119 58 107 1
120 58 108 1
121 58 109 1
122 59 110 1
123 59 111 1
124 59 112 1
125 60 113 1
126 60 114 1
127 60 115 1
128 61 116 1
129 62 117 1
130 62 118 1
131 62 119 1
132 63 120 1
133 63 121 1
134 63 122 1
135 64 123 1
136 65 124 1
137 68 125 1
138 68 126 1
139 68 127 1
140 69 128 1
141 69 129 1
142 69 130 1
@<TRIPOS>MOLECULE
Sketch 4
130 142
SMALL
USER_CHARGES


@<TRIPOS>ATOM
1 C10484 0.847479835691646 0.428070381124135 0.554022951867731 C.Trigonal 0.0 **** 0.0
2 C10485 0.833534954913509 0.429813441936979 0.543585560198816 C 0.0 **** 0.0
3 C10486 0.820373613333945 0.440418765636392 0.548238861896557 C.Trigonal 0.0 **** 0.0
4 C10487 0.821376053538863 0.449707980700767 0.562896816962338 C.Trigonal 0.0 **** 0.0
5 C10488 0.835800523658186 0.448823965414273 0.572800379671787 C 0.0 **** 0.0
6 C10489 0.848744466975013 0.437808548396809 0.568500148450027 C 0.0 **** 0.0
7 C10496 0.806773344400823 0.461095909597376 0.568177987115346 C 0.0 **** 0.0
8 C10497 0.78980201940884 0.458322803880869 0.559534703181738 C.Trigonal 0.0 **** 0.0
9 C10498 0.78896123210837 0.449191930466834 0.544817729227494 C.Trigonal 0.0 **** 0.0
10 C10499 0.804917754741845 0.44182669307389 0.53691886256268 C 0.0 **** 0.0
11 C10505 0.773561282038056 0.446328921437795 0.536801420639195 C 0.0 **** 0.0
12 C10506 0.758523112467359 0.451777137965906 0.543850916377329 C 0.0 **** 0.0
13 C10507 0.759152204206235 0.462291452215681 0.558055018389864 C.Trigonal 0.0 **** 0.0
14 C10508 0.774873192429489 0.465273449456735 0.566180754038099 C.Trigonal 0.0 **** 0.0
15 C10514 0.775208877444249 0.475548699431431 0.580575044673541 C 0.0 **** 0.0
16 C10515 0.76067636480178 0.482619590773084 0.587798829523386 C.Trigonal 0.0 **** 0.0
17 C10516 0.745019349997746 0.478777052982468 0.579845551704264 C.Trigonal 0.0 **** 0.0
18 C10517 0.744519127028316 0.470389340379083 0.564372655732112 C 0.0 **** 0.0
19 C10523 0.729134416811243 0.486206594805488 0.587522123240669 C.Trigonal 0.0 **** 0.0
20 C10524 0.730551363416408 0.500396796086082 0.596975473157371 C.Trigonal 0.0 **** 0.0
21 C10525 0.747749803086097 0.507504418061889 0.600586305078873 C.Trigonal 0.0 **** 0.0
22 C10526 0.761526050947309 0.49637113577749 0.59989275011817 C.Trigonal 0.0 **** 0.0
23 C10532 0.716074683158905 0.508239336553851 0.606858042026337 C 0.0 **** 0.0
24 C10533 0.701688006535404 0.495461719637412 0.609454394280211 C 0.0 **** 0.0
25 C10534 0.697337334247202 0.486749477903076 0.592530192560185 C 0.0 **** 0.0
26 C10535 0.712629235427109 0.476052540363461 0.586967282675934 C 0.0 **** 0.0
27 C10541 0.77679268876237 0.502083336989121 0.607256388130069 C 0.0 **** 0.0
28 C10542 0.779064806813679 0.51928720478899 0.610100417481313 C.Trigonal 0.0 **** 0.0
29 C10543 0.766244251663229 0.530665610296611 0.60664309482575 C.Trigonal 0.0 **** 0.0
30 C10544 0.750298061844041 0.524875856350858 0.602185498206761 C 0.0 **** 0.0
31 C10550 0.76917432878134 0.54944289188997 0.60794453275901 C 0.0 **** 0.0
32 C10551 0.786018955104774 0.555139619006323 0.613396125890083 C.Trigonal 0.0 **** 0.0
33 C10552 0.798267767995454 0.544057120899078 0.617886054799664 C.Trigonal 0.0 **** 0.0
34 C10553 0.79576457351288 0.525602228693519 0.616733179951278 C 0.0 **** 0.0
35 C10559 0.815327583976729 0.550188991643046 0.624198491988289 C 0.0 **** 0.0
36 C10560 0.813800381490517 0.567753960129058 0.632802357681455 C 0.0 **** 0.0
37 C10561 0.803817763083705 0.580093677383758 0.62195388794017 C.Trigonal 0.0 **** 0.0
38 C10562 0.789510908912212 0.573803244215591 0.613266258071131 C.Trigonal 0.0 **** 0.0
39 N10568 0.779533832433378 0.583882079288062 0.604076266676773 N 0.0 **** 0.0
40 C10569 0.782928137760077 0.600415700745328 0.603731298700387 C.Trigonal 0.0 **** 0.0
41 C10570 0.797463508657439 0.607481604284113 0.611430919713008 C.Trigonal 0.0 **** 0.0
42 C10571 0.807972181412683 0.596997123660394 0.620393854597109 C.Trigonal 0.0 **** 0.0
43 C10577 0.823863407388211 0.603841183126659 0.628837402762409 C 0.0 **** 0.0
44 C10578 0.828862117517399 0.621467838722139 0.622443474138016 C 0.0 **** 0.0
45 C10579 0.813410819141659 0.632965240806328 0.62160663740006 C 0.0 **** 0.0
46 C10580 0.801086538117778 0.626084494104107 0.608362637056621 C 0.0 **** 0.0
47 C10586 0.784242326664494 0.636024086312105 0.607827527230972 C 0.0 **** 0.0
48 C10587 0.771919063875755 0.627757604587258 0.59566465236562 C.Trigonal 0.0 **** 0.0
49 C10588 0.771519576208871 0.610110524679512 0.594173856130907 C.Trigonal 0.0 **** 0.0
50 C10593 0.759688806912055 0.602481630837173 0.583160793513461 C 0.0 **** 0.0
51 C10594 0.748853513558857 0.612388209613648 0.573965358979089 C 0.0 **** 0.0
52 C10595 0.748905784033078 0.629808922057164 0.575726781532835 C 0.0 **** 0.0
53 C10596 0.760207530482418 0.637391180987481 0.586946964850568 C 0.0 **** 0.0
54 C10602 0.864186279949667 0.436332117232227 0.579815797570495 C 0.0 **** 0.0
55 C10604 0.861084832247529 0.422845879962594 0.59338027697728 C 0.0 **** 0.0
56 C10606 0.861343414056262 0.415690703843847 0.549253779993314 C 0.0 **** 0.0
57 C10608 0.837472635712719 0.459602407257695 0.588569443028732 C 0.0 **** 0.0
58 C10610 0.832406657030865 0.419855805796141 0.527213626585302 C 0.0 **** 0.0
59 C10612 0.773363020748322 0.436553718240767 0.5202223248038 C 0.0 **** 0.0
60 C10614 0.742251953348941 0.446153186436264 0.535451540842504 C 0.0 **** 0.0
61 O10616 0.729587298382483 0.470236713660058 0.555563892509295 O 0.0 **** 0.0
62 C10618 0.692545764497226 0.499359097595898 0.57839891571233 C 0.0 **** 0.0
63 C10620 0.68631150004103 0.504505697339439 0.617089412114281 C 0.0 **** 0.0
64 O10622 0.736890183308914 0.535534863740371 0.599202337964346 O 0.0 **** 0.0
65 O10624 0.789399463933198 0.490543667792083 0.610463641385036 O 0.0 **** 0.0
66 O10626 0.806576940570183 0.515445038508618 0.620847122348166 O 0.0 **** 0.0
67 O10628 0.757581781749713 0.558876440248858 0.604266158066417 O 0.0 **** 0.0
68 C10630 0.759615002651772 0.656257623659998 0.589788402026807 C 0.0 **** 0.0
69 C10632 0.736430153977264 0.639941658458253 0.565387312140876 C 0.0 **** 0.0
70 H10634 0.804749296303266 0.459051132436732 0.581813214619473 H 0.0 **** 0.0
71 H10636 0.810587934515746 0.474442161614166 0.566539382643728 H 0.0 **** 0.0
72 H10638 0.808279160906163 0.449376977647291 0.52564275302143 H 0.0 **** 0.0
73 H10640 0.801872679087406 0.429003030535132 0.532432295827717 H 0.0 **** 0.0
74 H10642 0.787660780256662 0.478847964518236 0.585572968400559 H 0.0 **** 0.0
75 H10644 0.720341820248735 0.512681671839436 0.619359480859019 H 0.0 **** 0.0
76 H10646 0.71116351685383 0.519354788719328 0.600061047279877 H 0.0 **** 0.0
77 H10648 0.705893726427816 0.485703576830468 0.618477686246421 H 0.0 **** 0.0
78 H10650 0.686555888062411 0.478177925917536 0.594593528831649 H 0.0 **** 0.0
79 H10652 0.709575550955344 0.470613932135743 0.574592816231671 H 0.0 **** 0.0
80 H10654 0.713871854776757 0.465235202869984 0.595665938917161 H 0.0 **** 0.0
81 H10656 0.820781697835856 0.541281717488372 0.633447023422548 H 0.0 **** 0.0
82 H10658 0.824294039766088 0.550900068263123 0.613552537900172 H 0.0 **** 0.0
83 H10660 0.826570082840235 0.572314949655976 0.635788948381833 H 0.0 **** 0.0
84 H10662 0.807387085787484 0.566214454223751 0.645117369980797 H 0.0 **** 0.0
85 H10664 0.821767381091516 0.604407940358 0.642583414082768 H 0.0 **** 0.0
86 H10666 0.834597674758214 0.595233615349014 0.626791311204064 H 0.0 **** 0.0
87 H10668 0.834423783007022 0.620424294609878 0.60968795448473 H 0.0 **** 0.0
88 H10670 0.83879304837114 0.626908353115102 0.630566333042819 H 0.0 **** 0.0
89 H10672 0.81707874301471 0.646019387382357 0.618388505640218 H 0.0 **** 0.0
90 H10674 0.80729650543306 0.633480428005694 0.634105445697724 H 0.0 **** 0.0
91 H10676 0.807260476753793 0.627306286756221 0.595862808735328 H 0.0 **** 0.0
92 H10678 0.778682699076319 0.636324858390777 0.620569706184633 H 0.0 **** 0.0
93 H10680 0.786987901488738 0.649221068067286 0.604453882715876 H 0.0 **** 0.0
94 H10682 0.759186964322117 0.588646264321829 0.581896143927412 H 0.0 **** 0.0
95 H10684 0.739738700870224 0.606391808484952 0.565349543721009 H 0.0 **** 0.0
96 H10686 0.867288055411732 0.448412503654812 0.585953686376661 H 0.0 **** 0.0
97 H10688 0.875575113251096 0.433225127228959 0.572458955254555 H 0.0 **** 0.0
98 H10690 0.859389056603141 0.410241451367214 0.587743497040742 H 0.0 **** 0.0
99 H10692 0.849639536964643 0.425712350260567 0.600739290084863 H 0.0 **** 0.0
100 H10694 0.871674415466465 0.42203728056869 0.602352417156304 H 0.0 **** 0.0
101 H10696 0.868287899408607 0.410840757139712 0.560246197490779 H 0.0 **** 0.0
102 H10698 0.870608887019529 0.421592132093535 0.540677772609074 H 0.0 **** 0.0
103 H10700 0.856255902166297 0.404407340181979 0.542926235577366 H 0.0 **** 0.0
104 H10702 0.837412270659273 0.45167690918362 0.599999354494921 H 0.0 **** 0.0
105 H10704 0.827384330515163 0.468972317239884 0.590107539941612 H 0.0 **** 0.0
106 H10706 0.849282046240385 0.466959926186925 0.588452611476558 H 0.0 **** 0.0
107 H10708 0.844896049208345 0.417127532640689 0.521809261178209 H 0.0 **** 0.0
108 H10710 0.825564773124433 0.426784283551284 0.517299496820623 H 0.0 **** 0.0
109 H10712 0.825896637474694 0.407691478912729 0.529170715162939 H 0.0 **** 0.0
110 H10714 0.771589339944041 0.422923545897363 0.522475330102617 H 0.0 **** 0.0
111 H10716 0.785060781407218 0.438130674800456 0.512903646901276 H 0.0 **** 0.0
112 H10718 0.763271457437305 0.440890920009213 0.511693306765594 H 0.0 **** 0.0
113 H10720 0.737560325133452 0.455487631828053 0.526237571756024 H 0.0 **** 0.0
114 H10722 0.732226303929878 0.443300467880613 0.544663640241583 H 0.0 **** 0.0
115 H10724 0.743976063091806 0.434185264796939 0.52867428121994 H 0.0 **** 0.0
116 H10726 0.73200539640015 0.466737858990382 0.54436838505413 H 0.0 **** 0.0
117 H10728 0.681727290972059 0.507193542635025 0.58219564703631 H 0.0 **** 0.0
118 H10730 0.689189854132728 0.492508938760206 0.566778296467082 H 0.0 **** 0.0
119 H10732 0.703159839157292 0.507806559721171 0.575339558796207 H 0.0 **** 0.0
120 H10734 0.689180553442201 0.508872329992504 0.629977435778463 H 0.0 **** 0.0
121 H10736 0.675384242506108 0.495959658821895 0.61767563176283 H 0.0 **** 0.0
122 H10738 0.682908053402154 0.515558090855587 0.609427218381174 H 0.0 **** 0.0
123 H10740 0.740716604372508 0.546979959980531 0.60003805030002 H 0.0 **** 0.0
124 H10742 0.798848333259686 0.496348728032707 0.615280840158937 H 0.0 **** 0.0
125 H10744 0.758304938647384 0.659103767467684 0.603327486842916 H 0.0 **** 0.0
126 H10746 0.748909079589821 0.662360167099889 0.583462045530016 H 0.0 **** 0.0
127 H10748 0.771171852741322 0.662544191418323 0.585323145081659 H 0.0 **** 0.0
128 H10750 0.726959777749081 0.646130381183093 0.573499184379899 H 0.0 **** 0.0
129 H10752 0.729508152505462 0.631915596347073 0.556412711808888 H 0.0 **** 0.0
130 H10754 0.742778954731472 0.649803913486978 0.557890912500481 H 0.0 **** 0.0
@<TRIPOS>BOND
1 3 2 Aromatic
2 4 3 Aromatic
3 5 4 Aromatic
4 6 5 Aromatic
5 1 2 Aromatic
6 1 6 Aromatic
7 8 7 1
8 9 8 Aromatic
9 10 9 1
10 4 7 1
11 3 10 1
12 12 11 Aromatic
13 13 12 Aromatic
14 14 13 Aromatic
15 9 11 Aromatic
16 8 14 Aromatic
17 16 15 Aromatic
18 17 16 Aromatic
19 18 17 Aromatic
20 14 15 Aromatic
21 13 18 Aromatic
22 20 19 1
23 21 20 1
24 22 21 Aromatic
25 17 19 1
26 16 22 Aromatic
27 24 23 1
28 25 24 Aromatic
29 26 25 1
30 20 23 1
31 19 26 1
32 28 27 Aromatic
33 29 28 Aromatic
34 30 29 Aromatic
35 22 27 Aromatic
36 21 30 Aromatic
37 32 31 1
38 33 32 Aromatic
39 34 33 1
40 29 31 1
41 28 34 1
42 36 35 1
43 37 36 1
44 38 37 Aromatic
45 33 35 1
46 32 38 Aromatic
47 40 39 Aromatic
48 41 40 Aromatic
49 42 41 Aromatic
50 38 39 Aromatic
51 37 42 Aromatic
52 44 43 1
53 45 44 1
54 46 45 1
55 42 43 1
56 41 46 1
57 48 47 1
58 49 48 Aromatic
59 40 49 Aromatic
60 46 47 1
61 51 50 Aromatic
62 52 51 Aromatic
63 53 52 Aromatic
64 49 50 Aromatic
65 48 53 Aromatic
66 6 54 1
67 54 55 1
68 1 56 1
69 5 57 1
70 2 58 1
71 11 59 1
72 12 60 1
73 18 61 1
74 25 62 1
75 24 63 1
76 30 64 1
77 27 65 1
78 34 66 Double
79 31 67 Double
80 53 68 1
81 52 69 1
82 7 70 1
83 7 71 1
84 10 72 1
85 10 73 1
86 15 74 1
87 23 75 1
88 23 76 1
89 24 77 1
90 25 78 1
91 26 79 1
92 26 80 1
93 35 81 1
94 35 82 1
95 36 83 1
96 36 84 1
97 43 85 1
98 43 86 1
99 44 87 1
100 44 88 1
101 45 89 1
102 45 90 1
103 46 91 1
104 47 92 1
105 47 93 1
106 50 94 1
107 51 95 1
108 54 96 1
109 54 97 1
110 55 98 1
111 55 99 1
112 55 100 1
113 56 101 1
114 56 102 1
115 56 103 1
116 57 104 1
117 57 105 1
118 57 106 1
119 58 107 1
120 58 108 1
121 58 109 1
122 59 110 1
123 59 111 1
124 59 112 1
125 60 113 1
126 60 114 1
127 60 115 1
128 61 116 1
129 62 117 1
130 62 118 1
131 62 119 1
132 63 120 1
133 63 121 1
134 63 122 1
135 64 123 1
136 65 124 1
137 68 125 1
138 68 126 1
139 68 127 1
140 69 128 1
141 69 129 1
142 69 130 1
@<TRIPOS>MOLECULE
Sketch 4
130 142
SMALL
USER_CHARGES


@<TRIPOS>ATOM
1 C10756 0.487295117987464 0.764166236595193 0.543603466618815 C.Trigonal 0.0 **** 0.0
2 C10757 0.469913224045603 0.765461610064712 0.545284111401616 C 0.0 **** 0.0
3 C10758 0.462965055687395 0.77891131393565 0.55409000903241 C.Trigonal 0.0 **** 0.0
4 C10759 0.473373546270386 0.790918905561886 0.561136034315492 C.Trigonal 0.0 **** 0.0
5 C10760 0.490743319032374 0.790102919387027 0.558812481836123 C 0.0 **** 0.0
6 C10761 0.497689086321138 0.776852062860432 0.54973487197839 C 0.0 **** 0.0
7 C10768 0.465691178499893 0.80522250542886 0.571406294372795 C 0.0 **** 0.0
8 C10769 0.448474114076666 0.801626944070811 0.579161986026775 C.Trigonal 0.0 **** 0.0
9 C10770 0.437780897719351 0.790220336722451 0.571633668253712 C.Trigonal 0.0 **** 0.0
10 C10771 0.44385770044099 0.7803760825141 0.55619301377473 C 0.0 **** 0.0
11 C10777 0.421378497458528 0.78797203681272 0.577668938340778 C 0.0 **** 0.0
12 C10778 0.416061449510625 0.795553221380875 0.592576421558151 C 0.0 **** 0.0
13 C10779 0.427734372500828 0.805141479756591 0.601798848532257 C.Trigonal 0.0 **** 0.0
14 C10780 0.443039501824082 0.809928956591778 0.593857299040595 C.Trigonal 0.0 **** 0.0
15 C10786 0.452955553545031 0.822263444916396 0.601606457014886 C 0.0 **** 0.0
16 C10787 0.449997820694344 0.827673152848655 0.618194044101196 C.Trigonal 0.0 **** 0.0
17 C10788 0.437913929859144 0.8184347834555 0.627706514374415 C.Trigonal 0.0 **** 0.0
18 C10789 0.425775925101088 0.808745977095664 0.6194496283654 C 0.0 **** 0.0
19 C10795 0.439051726301102 0.819666663525803 0.646872082482061 C.Trigonal 0.0 **** 0.0
20 C10796 0.450561260678659 0.830409260294785 0.65381092381232 C.Trigonal 0.0 **** 0.0
21 C10797 0.458912310964309 0.843924816788006 0.643092007282507 C.Trigonal 0.0 **** 0.0
22 C10798 0.458251484965381 0.842031227697805 0.625406228089758 C.Trigonal 0.0 **** 0.0
23 C10804 0.45715150920539 0.828067841377244 0.671745909242212 C 0.0 **** 0.0
24 C10805 0.454895082007423 0.809663617747178 0.677517566241004 C 0.0 **** 0.0
25 C10806 0.436215497468285 0.804510145012487 0.675762834904723 C 0.0 **** 0.0
26 C10807 0.430727208950889 0.805424587490351 0.657045370725496 C 0.0 **** 0.0
27 C10813 0.464922085994315 0.855190558334043 0.615073860758415 C 0.0 **** 0.0
28 C10814 0.473532592571058 0.868483293749401 0.622453119243138 C.Trigonal 0.0 **** 0.0
29 C10815 0.474577572180907 0.869838342294099 0.639823869114765 C.Trigonal 0.0 **** 0.0
30 C10816 0.466646365088186 0.858065222184105 0.650205529421337 C 0.0 **** 0.0
31 C10822 0.484239407173099 0.884238539261624 0.647859552477679 C 0.0 **** 0.0
32 C10823 0.492611022128922 0.896534988747412 0.636610448980536 C.Trigonal 0.0 **** 0.0
33 C10824 0.491173037926695 0.895417838362134 0.619580617799515 C.Trigonal 0.0 **** 0.0
34 C10825 0.481622651673963 0.881698605397545 0.611327213972829 C 0.0 **** 0.0
35 C10831 0.499354283007834 0.908348622359174 0.608021684978165 C 0.0 **** 0.0
36 C10832 0.515752285459685 0.915620148339786 0.615794992508803 C 0.0 **** 0.0
37 C10833 0.513821562624065 0.920227681663806 0.634366540993104 C.Trigonal 0.0 **** 0.0
38 C10834 0.502866257468901 0.91048447675219 0.644615997227031 C.Trigonal 0.0 **** 0.0
39 N10840 0.502182629322385 0.91281342769859 0.661365838984557 N 0.0 **** 0.0
40 C10841 0.512248583667191 0.924460321719893 0.668417054417804 C.Trigonal 0.0 **** 0.0
41 C10842 0.522473884471161 0.935499232079145 0.658751433212521 C.Trigonal 0.0 **** 0.0
42 C10843 0.523192630394696 0.93310354108674 0.641586339783869 C.Trigonal 0.0 **** 0.0
43 C10849 0.534753161150402 0.943780326383574 0.630412871148047 C 0.0 **** 0.0
44 C10850 0.541965508023303 0.959304223120758 0.639469812424022 C 0.0 **** 0.0
45 C10851 0.547289064467264 0.955046137781098 0.657429867806622 C 0.0 **** 0.0
46 C10852 0.53186777309069 0.94959832329989 0.667739710543392 C 0.0 **** 0.0
47 C10858 0.537220503050896 0.944081742624995 0.685745107287977 C 0.0 **** 0.0
48 C10859 0.523062311468624 0.935189666259298 0.695072588053746 C.Trigonal 0.0 **** 0.0
49 C10860 0.511667956083164 0.924901057851457 0.686194218436922 C.Trigonal 0.0 **** 0.0
50 C10865 0.499835697685816 0.915131498264527 0.695344095688032 C 0.0 **** 0.0
51 C10866 0.498778730854663 0.916754684167075 0.712556674911154 C 0.0 **** 0.0
52 C10867 0.509543832588497 0.927453590993034 0.721285931888206 C 0.0 **** 0.0
53 C10868 0.521966771831828 0.936381552271743 0.712505312843635 C 0.0 **** 0.0
54 C10874 0.516641827526819 0.775893448496115 0.54673142781065 C 0.0 **** 0.0
55 C10876 0.525497908474258 0.768137344610476 0.562117185943786 C 0.0 **** 0.0
56 C10878 0.49494853924968 0.748875494121924 0.534941591621943 C 0.0 **** 0.0
57 C10880 0.501819281524527 0.803555810675854 0.566842935667976 C 0.0 **** 0.0
58 C10882 0.458408677838253 0.752061061304168 0.537870356544054 C 0.0 **** 0.0
59 C10884 0.40904616267602 0.776865526526662 0.567930557789708 C 0.0 **** 0.0
60 C10886 0.398295256834183 0.792007554864074 0.598822983195218 C 0.0 **** 0.0
61 O10888 0.412168231033439 0.80215387920499 0.627863274743227 O 0.0 **** 0.0
62 C10890 0.424485761461619 0.815526337532039 0.686703625094275 C 0.0 **** 0.0
63 C10892 0.461359769316972 0.807493878679664 0.695751334180509 C 0.0 **** 0.0
64 O10894 0.466172536194749 0.859989564995046 0.667492854584951 O 0.0 **** 0.0
65 O10896 0.462554287006331 0.854403970795237 0.597930103245516 O 0.0 **** 0.0
66 O10898 0.480256659777493 0.88065811630301 0.596002503550537 O 0.0 **** 0.0
67 O10900 0.484921222951894 0.884798583107947 0.663220177859235 O 0.0 **** 0.0
68 C10902 0.534340071291724 0.947370301816584 0.722179589269966 C 0.0 **** 0.0
69 C10904 0.507539460045739 0.92869206010497 0.740256629210505 C 0.0 **** 0.0
70 H10906 0.47451521440307 0.808010119591669 0.581756763287727 H 0.0 **** 0.0
71 H10908 0.464918533760911 0.816751468683287 0.563533849437489 H 0.0 **** 0.0
72 H10910 0.438319104680953 0.785923463781195 0.544617960323354 H 0.0 **** 0.0
73 H10912 0.438864322845759 0.767454588269643 0.557315184737913 H 0.0 **** 0.0
74 H10914 0.464006902936483 0.827045772974041 0.594791387420858 H 0.0 **** 0.0
75 H10916 0.470782750191096 0.830901264516949 0.672435552666565 H 0.0 **** 0.0
76 H10918 0.450683309344387 0.836698650644348 0.680546679573392 H 0.0 **** 0.0
77 H10920 0.462515758055003 0.801415091312636 0.669264886360944 H 0.0 **** 0.0
78 H10922 0.43483391087437 0.791326111478798 0.680040772634596 H 0.0 **** 0.0
79 H10924 0.416898528395857 0.806703054021402 0.656912394425301 H 0.0 **** 0.0
80 H10926 0.433847526136997 0.793194892419156 0.651101216321722 H 0.0 **** 0.0
81 H10928 0.502391168060697 0.903062315005238 0.59545942496487 H 0.0 **** 0.0
82 H10930 0.490471027126423 0.918780219977626 0.605762918183566 H 0.0 **** 0.0
83 H10932 0.519508283035896 0.926541535077717 0.608083364488944 H 0.0 **** 0.0
84 H10934 0.525992357513706 0.906206421310679 0.614531583516563 H 0.0 **** 0.0
85 H10936 0.545330650088016 0.935817603819742 0.625997345922007 H 0.0 **** 0.0
86 H10938 0.528002382287282 0.948180301994639 0.619049733058301 H 0.0 **** 0.0
87 H10940 0.532306138554672 0.969343226239797 0.639888975622652 H 0.0 **** 0.0
88 H10942 0.552740900588393 0.96437609171529 0.632272405834228 H 0.0 **** 0.0
89 H10944 0.553439259582876 0.965997240886665 0.663467743979924 H 0.0 **** 0.0
90 H10946 0.556704698978281 0.944760536524912 0.657137449368959 H 0.0 **** 0.0
91 H10948 0.523264974565702 0.960559876103309 0.668889297988788 H 0.0 **** 0.0
92 H10950 0.548076604104707 0.935355252425853 0.684769696571787 H 0.0 **** 0.0
93 H10952 0.541767828671319 0.955309283985399 0.692533829492547 H 0.0 **** 0.0
94 H10954 0.491019502025759 0.906696808834286 0.688681619686108 H 0.0 **** 0.0
95 H10956 0.489270352185741 0.909409344713318 0.71953933547477 H 0.0 **** 0.0
96 H10958 0.522005496969886 0.788399449520525 0.543835122448887 H 0.0 **** 0.0
97 H10960 0.519596517728651 0.768409675040025 0.535378112083143 H 0.0 **** 0.0
98 H10962 0.520441822477262 0.755475913146889 0.564915575507392 H 0.0 **** 0.0
99 H10964 0.52374912642835 0.775992274116036 0.573461454297224 H 0.0 **** 0.0
100 H10966 0.539172973264171 0.766787373385001 0.560012376658457 H 0.0 **** 0.0
101 H10968 0.487127994686058 0.737524719427747 0.536419986392679 H 0.0 **** 0.0
102 H10970 0.507292446839863 0.745381862506827 0.54026332005402 H 0.0 **** 0.0
103 H10972 0.496696164204522 0.751134696139501 0.521344877124638 H 0.0 **** 0.0
104 H10974 0.504183879943162 0.800578877976366 0.580255709259022 H 0.0 **** 0.0
105 H10976 0.495874773941827 0.816091967912333 0.566352944857767 H 0.0 **** 0.0
106 H10978 0.514174950271005 0.805026381038579 0.560779273899086 H 0.0 **** 0.0
107 H10980 0.446401911537431 0.757408405647648 0.533396515916583 H 0.0 **** 0.0
108 H10982 0.455406770260037 0.742238655751257 0.547284347680646 H 0.0 **** 0.0
109 H10984 0.464010165271159 0.745755916788298 0.526866574256382 H 0.0 **** 0.0
110 H10986 0.39755546303447 0.783955231283198 0.564512247735736 H 0.0 **** 0.0
111 H10988 0.405230854059663 0.765805556728449 0.575485333177308 H 0.0 **** 0.0
112 H10990 0.413970465831514 0.77205298664147 0.555911909275903 H 0.0 **** 0.0
113 H10992 0.398170330868709 0.781369302500761 0.607818391922378 H 0.0 **** 0.0
114 H10994 0.38935868361492 0.788919633330376 0.588685902084408 H 0.0 **** 0.0
115 H10996 0.392818766324125 0.803129283036568 0.605119905849933 H 0.0 **** 0.0
116 H10998 0.411151359285342 0.808027317871593 0.638246378096059 H 0.0 **** 0.0
117 H11000 0.428136717492097 0.814961375124067 0.700095366906287 H 0.0 **** 0.0
118 H11002 0.411423264091527 0.810986407861984 0.685746770618837 H 0.0 **** 0.0
119 H11004 0.424793027653974 0.828754905826537 0.682531790743877 H 0.0 **** 0.0
120 H11006 0.475047843495809 0.809890990970523 0.696310411781284 H 0.0 **** 0.0
121 H11008 0.45903923282858 0.794544034897915 0.700246970145405 H 0.0 **** 0.0
122 H11010 0.455101243259579 0.816401004575723 0.704397083301183 H 0.0 **** 0.0
123 H11012 0.472443255448645 0.869836115470946 0.670581822464824 H 0.0 **** 0.0
124 H11014 0.468171314554168 0.863725981663637 0.592797613035611 H 0.0 **** 0.0
125 H11016 0.534357676374801 0.944770816270223 0.735806001639887 H 0.0 **** 0.0
126 H11018 0.53135334473005 0.960880982068422 0.720583043324474 H 0.0 **** 0.0
127 H11020 0.547427528088422 0.945322108588982 0.717915299752674 H 0.0 **** 0.0
128 H11022 0.51837644585493 0.922979462886238 0.746887102397039 H 0.0 **** 0.0
129 H11024 0.496129757733499 0.922104596021949 0.744647181159726 H 0.0 **** 0.0
130 H11026 0.506419592097804 0.941919390768537 0.744434230225904 H 0.0 **** 0.0
@<TRIPOS>BOND
1 3 2 Aromatic
2 4 3 Aromatic
3 5 4 Aromatic
4 6 5 Aromatic
5 1 2 Aromatic
6 1 6 Aromatic
7 8 7 1
8 9 8 Aromatic
9 10 9 1
10 4 7 1
11 3 10 1
12 12 11 Aromatic
13 13 12 Aromatic
14 14 13 Aromatic
15 9 11 Aromatic
16 8 14 Aromatic
17 16 15 Aromatic
18 17 16 Aromatic
19 18 17 Aromatic
20 14 15 Aromatic
21 13 18 Aromatic
22 20 19 1
23 21 20 1
24 22 21 Aromatic
25 17 19 1
26 16 22 Aromatic
27 24 23 1
28 25 24 Aromatic
29 26 25 1
30 20 23 1
31 19 26 1
32 28 27 Aromatic
33 29 28 Aromatic
34 30 29 Aromatic
35 22 27 Aromatic
36 21 30 Aromatic
37 32 31 1
38 33 32 Aromatic
39 34 33 1
40 29 31 1
41 28 34 1
42 36 35 1
43 37 36 1
44 38 37 Aromatic
45 33 35 1
46 32 38 Aromatic
47 40 39 Aromatic
48 41 40 Aromatic
49 42 41 Aromatic
50 38 39 Aromatic
51 37 42 Aromatic
52 44 43 1
53 45 44 1
54 46 45 1
55 42 43 1
56 41 46 1
57 48 47 1
58 49 48 Aromatic
59 40 49 Aromatic
60 46 47 1
61 51 50 Aromatic
62 52 51 Aromatic
63 53 52 Aromatic
64 49 50 Aromatic
65 48 53 Aromatic
66 6 54 1
67 54 55 1
68 1 56 1
69 5 57 1
70 2 58 1
71 11 59 1
72 12 60 1
73 18 61 1
74 25 62 1
75 24 63 1
76 30 64 1
77 27 65 1
78 34 66 Double
79 31 67 Double
80 53 68 1
81 52 69 1
82 7 70 1
83 7 71 1
84 10 72 1
85 10 73 1
86 15 74 1
87 23 75 1
88 23 76 1
89 24 77 1
90 25 78 1
91 26 79 1
92 26 80 1
93 35 81 1
94 35 82 1
95 36 83 1
96 36 84 1
97 43 85 1
98 43 86 1
99 44 87 1
100 44 88 1
101 45 89 1
102 45 90 1
103 46 91 1
104 47 92 1
105 47 93 1
106 50 94 1
107 51 95 1
108 54 96 1
109 54 97 1
110 55 98 1
111 55 99 1
112 55 100 1
113 56 101 1
114 56 102 1
115 56 103 1
116 57 104 1
117 57 105 1
118 57 106 1
119 58 107 1
120 58 108 1
121 58 109 1
122 59 110 1
123 59 111 1
124 59 112 1
125 60 113 1
126 60 114 1
127 60 115 1
128 61 116 1
129 62 117 1
130 62 118 1
131 62 119 1
132 63 120 1
133 63 121 1
134 63 122 1
135 64 123 1
136 65 124 1
137 68 125 1
138 68 126 1
139 68 127 1
140 69 128 1
141 69 129 1
142 69 130 1
@<TRIPOS>MOLECULE
Sketch 4
130 142
SMALL
USER_CHARGES


@<TRIPOS>ATOM
1 C11028 0.740431552804503 0.71833057957706 0.602685898991584 C.Trigonal 0.0 **** 0.0
2 C11029 0.752655866583506 0.729373747349393 0.608681138164048 C 0.0 **** 0.0
3 C11030 0.763089558601692 0.72433695038002 0.621730969849091 C.Trigonal 0.0 **** 0.0
4 C11031 0.762085721789018 0.70810022906896 0.627956547995065 C.Trigonal 0.0 **** 0.0
5 C11032 0.750222077256914 0.696873878650395 0.62178612531961 C 0.0 **** 0.0
6 C11033 0.73934350479719 0.702020817898175 0.609077953380525 C 0.0 **** 0.0
7 C11040 0.774568233670307 0.703494493581481 0.641739643528934 C 0.0 **** 0.0
8 C11041 0.775007875253472 0.717238675256105 0.655069892156302 C.Trigonal 0.0 **** 0.0
9 C11042 0.775754163994817 0.73361936550092 0.649187347062785 C.Trigonal 0.0 **** 0.0
10 C11043 0.775875994888318 0.736058036214782 0.630032627064899 C 0.0 **** 0.0
11 C11049 0.775760933100841 0.747276053753356 0.660232669779923 C 0.0 **** 0.0
12 C11050 0.774876992566583 0.744741287663076 0.677533994716328 C 0.0 **** 0.0
13 C11051 0.776619386706793 0.728218514946592 0.683722820662272 C.Trigonal 0.0 **** 0.0
14 C11052 0.774782188405698 0.714376285772034 0.672502243194548 C.Trigonal 0.0 **** 0.0
15 C11058 0.773066911892694 0.698252911188898 0.679441159005126 C 0.0 **** 0.0
16 C11059 0.774805686470925 0.695163794625833 0.696791247073418 C.Trigonal 0.0 **** 0.0
17 C11060 0.781334829280851 0.708443366278156 0.707009516180452 C.Trigonal 0.0 **** 0.0
18 C11061 0.781607672777109 0.724964267670509 0.700668380122168 C 0.0 **** 0.0
19 C11067 0.78682166532109 0.703813561445389 0.724926112460066 C.Trigonal 0.0 **** 0.0
20 C11068 0.786185142164029 0.687398998734321 0.730152620836301 C.Trigonal 0.0 **** 0.0
21 C11069 0.779325161516662 0.673730075304739 0.718694312406131 C.Trigonal 0.0 **** 0.0
22 C11070 0.771094201443407 0.678934903682441 0.703867352930337 C.Trigonal 0.0 **** 0.0
23 C11076 0.78878024842177 0.682361053640009 0.748552773042134 C 0.0 **** 0.0
24 C11077 0.786210580833155 0.697655584659874 0.760198074500098 C 0.0 **** 0.0
25 C11078 0.797803161462304 0.712178535751376 0.754431269027588 C 0.0 **** 0.0
26 C11079 0.792109112680547 0.71810884171548 0.736804631949046 C 0.0 **** 0.0
27 C11085 0.760432686166382 0.667091785154199 0.695616372306405 C 0.0 **** 0.0
28 C11086 0.761441453413936 0.650175039658987 0.700000895451377 C.Trigonal 0.0 **** 0.0
29 C11087 0.772836481500288 0.644779547392203 0.712093457547481 C.Trigonal 0.0 **** 0.0
30 C11088 0.781796520490742 0.656483746179377 0.721709887028296 C 0.0 **** 0.0
31 C11094 0.775063215808587 0.626145540920123 0.715611749641172 C 0.0 **** 0.0
32 C11095 0.763689489113384 0.614245179941564 0.706836602853808 C.Trigonal 0.0 **** 0.0
33 C11096 0.751697804788498 0.619665830422476 0.695922673721879 C.Trigonal 0.0 **** 0.0
34 C11097 0.749960735640273 0.637622098443382 0.691450819542725 C 0.0 **** 0.0
35 C11103 0.739394709208133 0.6073250904094 0.687851834879052 C 0.0 **** 0.0
36 C11104 0.735686709373815 0.592304701597967 0.699897419271384 C 0.0 **** 0.0
37 C11105 0.751876429673328 0.584727051232366 0.707056454635312 C.Trigonal 0.0 **** 0.0
38 C11106 0.765621356389373 0.595685802268567 0.710375878740908 C.Trigonal 0.0 **** 0.0
39 N11112 0.780132202289934 0.59000295438647 0.716928082101148 N 0.0 **** 0.0
40 C11113 0.780930642127221 0.573869865541849 0.721866909304555 C.Trigonal 0.0 **** 0.0
41 C11114 0.767703373970791 0.562174320587077 0.718968677654167 C.Trigonal 0.0 **** 0.0
42 C11115 0.753337138889373 0.567758101961099 0.711015464597009 C.Trigonal 0.0 **** 0.0
43 C11121 0.738727879383979 0.55572506553841 0.707331786347076 C 0.0 **** 0.0
44 C11122 0.743781265275973 0.537072940603221 0.709041595133402 C 0.0 **** 0.0
45 C11123 0.753932941379853 0.534281840699702 0.725209931056858 C 0.0 **** 0.0
46 C11124 0.770707980277555 0.543888361549066 0.723946300783876 C 0.0 **** 0.0
47 C11130 0.781214829653551 0.542984205197034 0.740512329424421 C 0.0 **** 0.0
48 C11131 0.796574093159613 0.554511712144271 0.739766554337974 C.Trigonal 0.0 **** 0.0
49 C11132 0.79612185063331 0.569275124352608 0.729912709585398 C.Trigonal 0.0 **** 0.0
50 C11137 0.810438656767537 0.579948247270638 0.729290349325157 C 0.0 **** 0.0
51 C11138 0.824338502666042 0.576276310617931 0.738925941737814 C 0.0 **** 0.0
52 C11139 0.824367455086377 0.562435210485411 0.74962330183086 C 0.0 **** 0.0
53 C11140 0.810291043414932 0.551776970571788 0.750299957432234 C 0.0 **** 0.0
54 C11146 0.726146715476764 0.689852527808192 0.602314909952427 C 0.0 **** 0.0
55 C11148 0.710770327055162 0.690092407546234 0.614030469969353 C 0.0 **** 0.0
56 C11150 0.728348236399121 0.72446302718395 0.589095914016674 C 0.0 **** 0.0
57 C11152 0.749413166372396 0.6794056504236 0.629593274815725 C 0.0 **** 0.0
58 C11154 0.754510947393098 0.746959823675241 0.601315321863937 C 0.0 **** 0.0
59 C11156 0.776396863124888 0.765012864170428 0.65293796311921 C 0.0 **** 0.0
60 C11158 0.772864093829354 0.760068615716132 0.688907515349695 C 0.0 **** 0.0
61 O11160 0.786720339630656 0.738010636045115 0.710818503506797 O 0.0 **** 0.0
62 C11162 0.816719404212313 0.707389404291795 0.754096525727646 C 0.0 **** 0.0
63 C11164 0.789041616355004 0.692716275988097 0.778768861534659 C 0.0 **** 0.0
64 O11166 0.792716184990356 0.651628206539818 0.734355639604524 O 0.0 **** 0.0
65 O11168 0.749579804794364 0.672739309539421 0.683297333580462 O 0.0 **** 0.0
66 O11170 0.73947323406279 0.642633515504813 0.681378110032654 O 0.0 **** 0.0
67 O11172 0.785911623465037 0.621920849137909 0.725674217731107 O 0.0 **** 0.0
68 C11174 0.810659138091926 0.537555467269393 0.763110973315553 C 0.0 **** 0.0
69 C11176 0.839715486172701 0.559572205208958 0.760650233055431 C 0.0 **** 0.0
70 H11178 0.771821686823107 0.691095641283183 0.647069038280771 H 0.0 **** 0.0
71 H11180 0.787316531721359 0.702186577803326 0.636119450043168 H 0.0 **** 0.0
72 H11182 0.788666538604279 0.733556807755393 0.624973113887922 H 0.0 **** 0.0
73 H11184 0.772993494268976 0.749177016674764 0.626801510732416 H 0.0 **** 0.0
74 H11186 0.77053549316519 0.687548878435535 0.671073481537774 H 0.0 **** 0.0
75 H11188 0.779600796093534 0.672608564649036 0.752418440663767 H 0.0 **** 0.0
76 H11190 0.801489168352755 0.67701560108499 0.750435524342286 H 0.0 **** 0.0
77 H11192 0.773025039390616 0.701956772606567 0.759036091895808 H 0.0 **** 0.0
78 H11194 0.796225213804729 0.722836785694697 0.763204889511699 H 0.0 **** 0.0
79 H11196 0.8025287644712 0.725530580085401 0.731316200356551 H 0.0 **** 0.0
80 H11198 0.781221870224572 0.726618601120419 0.738497900454573 H 0.0 **** 0.0
81 H11200 0.727274050360559 0.613401032498524 0.684508692952456 H 0.0 **** 0.0
82 H11202 0.744704952694309 0.602501236842757 0.675968725561406 H 0.0 **** 0.0
83 H11204 0.728144147040198 0.58297612534157 0.692886466686573 H 0.0 **** 0.0
84 H11206 0.727607490216807 0.596726870854935 0.710397638025689 H 0.0 **** 0.0
85 H11208 0.728265083690483 0.558400494274789 0.716174856207513 H 0.0 **** 0.0
86 H11210 0.733716790159213 0.557732851417664 0.694493268910035 H 0.0 **** 0.0
87 H11212 0.751542246072672 0.533301572369972 0.698076505022958 H 0.0 **** 0.0
88 H11214 0.732409184330676 0.52901603999187 0.708715659084437 H 0.0 **** 0.0
89 H11216 0.756367162552499 0.52071164588515 0.727274076886568 H 0.0 **** 0.0
90 H11218 0.746577309179132 0.538748318873532 0.736187811790339 H 0.0 **** 0.0
91 H11220 0.778177733384597 0.53785970043356 0.713803817822749 H 0.0 **** 0.0
92 H11222 0.773181390390874 0.546615918703011 0.751336572506931 H 0.0 **** 0.0
93 H11224 0.784905938693608 0.529712062687975 0.742459470979865 H 0.0 **** 0.0
94 H11226 0.810274053617999 0.591490078031885 0.721532406133097 H 0.0 **** 0.0
95 H11228 0.835411673486699 0.584672629599527 0.738501803226962 H 0.0 **** 0.0
96 H11230 0.731139499643298 0.676928428458588 0.601200981579429 H 0.0 **** 0.0
97 H11232 0.722283572962059 0.693025376023296 0.589348614267786 H 0.0 **** 0.0
98 H11234 0.706158496555613 0.703078787944651 0.615714982543206 H 0.0 **** 0.0
99 H11236 0.713887885083163 0.685194687268072 0.626675224685389 H 0.0 **** 0.0
100 H11238 0.700282961336371 0.682459831054412 0.609029345131062 H 0.0 **** 0.0
101 H11240 0.724953049314862 0.737825843156632 0.590906574754506 H 0.0 **** 0.0
102 H11242 0.716261409196106 0.717694464738939 0.589101544476278 H 0.0 **** 0.0
103 H11244 0.733898097063984 0.723154644884069 0.576395369157757 H 0.0 **** 0.0
104 H11246 0.746432302730562 0.6802609284124 0.643180452766837 H 0.0 **** 0.0
105 H11248 0.761601919381754 0.672815380480806 0.628294532757938 H 0.0 **** 0.0
106 H11250 0.739811500319634 0.671097883316225 0.624105717025986 H 0.0 **** 0.0
107 H11252 0.767824290568619 0.750931490128786 0.600769589440638 H 0.0 **** 0.0
108 H11254 0.747518185054306 0.756353606926938 0.60886218032165 H 0.0 **** 0.0
109 H11256 0.749932745540541 0.747782421597229 0.588248665699701 H 0.0 **** 0.0
110 H11258 0.780140484563539 0.774653495931261 0.662176219182734 H 0.0 **** 0.0
111 H11260 0.764018114391752 0.768720779881482 0.647739399635111 H 0.0 **** 0.0
112 H11262 0.785822752372714 0.765975338973204 0.642743337106248 H 0.0 **** 0.0
113 H11264 0.766229335166567 0.757001736706115 0.700734500958791 H 0.0 **** 0.0
114 H11266 0.764833869694158 0.769766764026213 0.68296396392435 H 0.0 **** 0.0
115 H11268 0.784998477581631 0.766097180671226 0.692063926281393 H 0.0 **** 0.0
116 H11270 0.78673142091252 0.747942390509978 0.704130865885124 H 0.0 **** 0.0
117 H11272 0.8209071018717 0.702829681303642 0.76652155038667 H 0.0 **** 0.0
118 H11274 0.824420934146924 0.718504633367709 0.750846164187166 H 0.0 **** 0.0
119 H11276 0.819279799216232 0.697517856469741 0.744650570431809 H 0.0 **** 0.0
120 H11278 0.780936825141071 0.681953221674162 0.78220133282271 H 0.0 **** 0.0
121 H11280 0.785722934822675 0.703327518681833 0.787083151921107 H 0.0 **** 0.0
122 H11282 0.802256524061013 0.689177618208973 0.781115511987574 H 0.0 **** 0.0
123 H11284 0.793735470083681 0.639580032122556 0.734249068664272 H 0.0 **** 0.0
124 H11286 0.74307940624408 0.663342992425814 0.679380817652416 H 0.0 **** 0.0
125 H11288 0.813907971716685 0.542462619210182 0.775740189648348 H 0.0 **** 0.0
126 H11290 0.820250948112086 0.528048320437976 0.759831008732414 H 0.0 **** 0.0
127 H11292 0.798547142598094 0.531006998460564 0.764607082762021 H 0.0 **** 0.0
128 H11294 0.83724559007306 0.563348277809752 0.773829799062223 H 0.0 **** 0.0
129 H11296 0.850639338173767 0.566926873764121 0.756220828626245 H 0.0 **** 0.0
130 H11298 0.84365281086599 0.546236196339457 0.760713996307658 H 0.0 **** 0.0
@<TRIPOS>BOND
1 3 2 Aromatic
2 4 3 Aromatic
3 5 4 Aromatic
4 6 5 Aromatic
5 1 2 Aromatic
6 1 6 Aromatic
7 8 7 1
8 9 8 Aromatic
9 10 9 1
10 4 7 1
11 3 10 1
12 12 11 Aromatic
13 13 12 Aromatic
14 14 13 Aromatic
15 9 11 Aromatic
16 8 14 Aromatic
17 16 15 Aromatic
18 17 16 Aromatic
19 18 17 Aromatic
20 14 15 Aromatic
21 13 18 Aromatic
22 20 19 1
23 21 20 1
24 22 21 Aromatic
25 17 19 1
26 16 22 Aromatic
27 24 23 1
28 25 24 Aromatic
29 26 25 1
30 20 23 1
31 19 26 1
32 28 27 Aromatic
33 29 28 Aromatic
34 30 29 Aromatic
35 22 27 Aromatic
36 21 30 Aromatic
37 32 31 1
38 33 32 Aromatic
39 34 33 1
40 29 31 1
41 28 34 1
42 36 35 1
43 37 36 1
44 38 37 Aromatic
45 33 35 1
46 32 38 Aromatic
47 40 39 Aromatic
48 41 40 Aromatic
49 42 41 Aromatic
50 38 39 Aromatic
51 37 42 Aromatic
52 44 43 1
53 45 44 1
54 46 45 1
55 42 43 1
56 41 46 1
57 48 47 1
58 49 48 Aromatic
59 40 49 Aromatic
60 46 47 1
61 51 50 Aromatic
62 52 51 Aromatic
63 53 52 Aromatic
64 49 50 Aromatic
65 48 53 Aromatic
66 6 54 1
67 54 55 1
68 1 56 1
69 5 57 1
70 2 58 1
71 11 59 1
72 12 60 1
73 18 61 1
74 25 62 1
75 24 63 1
76 30 64 1
77 27 65 1
78 34 66 Double
79 31 67 Double
80 53 68 1
81 52 69 1
82 7 70 1
83 7 71 1
84 10 72 1
85 10 73 1
86 15 74 1
87 23 75 1
88 23 76 1
89 24 77 1
90 25 78 1
91 26 79 1
92 26 80 1
93 35 81 1
94 35 82 1
95 36 83 1
96 36 84 1
97 43 85 1
98 43 86 1
99 44 87 1
100 44 88 1
101 45 89 1
102 45 90 1
103 46 91 1
104 47 92 1
105 47 93 1
106 50 94 1
107 51 95 1
108 54 96 1
109 54 97 1
110 55 98 1
111 55 99 1
112 55 100 1
113 56 101 1
114 56 102 1
115 56 103 1
116 57 104 1
117 57 105 1
118 57 106 1
119 58 107 1
120 58 108 1
121 58 109 1
122 59 110 1
123 59 111 1
124 59 112 1
125 60 113 1
126 60 114 1
127 60 115 1
128 61 116 1
129 62 117 1
130 62 118 1
131 62 119 1
132 63 120 1
133 63 121 1
134 63 122 1
135 64 123 1
136 65 124 1
137 68 125 1
138 68 126 1
139 68 127 1
140 69 128 1
141 69 129 1
142 69 130 1
@<TRIPOS>MOLECULE
Sketch 4
130 142
SMALL
USER_CHARGES


@<TRIPOS>ATOM
1 C11300 0.670669445057108 0.436242552419663 0.159666646133286 C.Trigonal 0.0 **** 0.0
2 C11301 0.666593979418856 0.449710501217433 0.170078752398974 C 0.0 **** 0.0
3 C11302 0.652589704696565 0.448577592372112 0.180410960747253 C.Trigonal 0.0 **** 0.0
4 C11303 0.643019839619138 0.433984134570508 0.180791603687896 C.Trigonal 0.0 **** 0.0
5 C11304 0.647186414026639 0.420376260750085 0.170625480258751 C 0.0 **** 0.0
6 C11305 0.661151620170454 0.421522994771424 0.160114914626703 C 0.0 **** 0.0
7 C11312 0.627711836096894 0.43416318024796 0.192503186530028 C 0.0 **** 0.0
8 C11313 0.617926855402436 0.450443685465422 0.189752661633813 C.Trigonal 0.0 **** 0.0
9 C11314 0.627454968182317 0.464999568737338 0.188994415035369 C.Trigonal 0.0 **** 0.0
10 C11315 0.646421548596245 0.4629958850051 0.191420596104034 C 0.0 **** 0.0
11 C11321 0.620117330954247 0.480519238548605 0.185501139672264 C 0.0 **** 0.0
12 C11322 0.603248302479886 0.481514729693314 0.180967997795953 C 0.0 **** 0.0
13 C11323 0.593075216787526 0.467045358672032 0.18262162270564 C.Trigonal 0.0 **** 0.0
14 C11324 0.600361227671259 0.451608571552717 0.188036702900012 C.Trigonal 0.0 **** 0.0
15 C11330 0.589705411761775 0.437759248452209 0.190276691738338 C 0.0 **** 0.0
16 C11331 0.573854696354143 0.436612431165989 0.18236472678901 C.Trigonal 0.0 **** 0.0
17 C11332 0.566399958032091 0.452223450158031 0.177253348111252 C.Trigonal 0.0 **** 0.0
18 C11333 0.575651110071496 0.467236716024196 0.178522626714917 C 0.0 **** 0.0
19 C11339 0.548378972071298 0.45178299521595 0.170291798011988 C.Trigonal 0.0 **** 0.0
20 C11340 0.540091475338921 0.436772524174833 0.168887145961899 C.Trigonal 0.0 **** 0.0
21 C11341 0.548115982132196 0.42042040827476 0.174947662181405 C.Trigonal 0.0 **** 0.0
22 C11342 0.565359955321383 0.420742211809997 0.179499194190321 C.Trigonal 0.0 **** 0.0
23 C11348 0.52366200363853 0.435145630255061 0.158853460982458 C 0.0 **** 0.0
24 C11349 0.520715298692093 0.450259990313002 0.147074387433072 C 0.0 **** 0.0
25 C11350 0.522436986771543 0.466780531560846 0.15713209352002 C 0.0 **** 0.0
26 C11351 0.540692551755731 0.468304671722792 0.16359381237507 C 0.0 **** 0.0
27 C11357 0.573654290603462 0.404913070780602 0.181574169381544 C 0.0 **** 0.0
28 C11358 0.564379781072122 0.390083021123147 0.181683159851148 C.Trigonal 0.0 **** 0.0
29 C11359 0.547181653667349 0.390200276305327 0.178872320562604 C.Trigonal 0.0 **** 0.0
30 C11360 0.53882778683593 0.40540237642559 0.176140096486272 C 0.0 **** 0.0
31 C11366 0.537423437766384 0.373748650415049 0.177480782233216 C 0.0 **** 0.0
32 C11367 0.547082652628997 0.357820454491641 0.178347233391247 C.Trigonal 0.0 **** 0.0
33 C11368 0.563792828518802 0.357829850187616 0.181960687858858 C.Trigonal 0.0 **** 0.0
34 C11369 0.573389834117142 0.373541692560191 0.184461966907589 C 0.0 **** 0.0
35 C11375 0.573362219408328 0.34124277954758 0.183413893508185 C 0.0 **** 0.0
36 C11376 0.567459281057425 0.329192594347048 0.169280108921523 C 0.0 **** 0.0
37 C11377 0.548299566094391 0.327367436959386 0.169536277439977 C.Trigonal 0.0 **** 0.0
38 C11378 0.538246410038956 0.341299830885268 0.174676102442634 C.Trigonal 0.0 **** 0.0
39 N11384 0.52130749930514 0.340236988344508 0.175207395912723 N 0.0 **** 0.0
40 C11385 0.513989594959173 0.326471377408897 0.16862247114929 C.Trigonal 0.0 **** 0.0
41 C11386 0.523347826751487 0.312327801687228 0.162707601786661 C.Trigonal 0.0 **** 0.0
42 C11387 0.540582494606431 0.312669819934829 0.164123197114599 C.Trigonal 0.0 **** 0.0
43 C11393 0.551368055156215 0.297596771354068 0.15882515966992 C 0.0 **** 0.0
44 C11394 0.54091752920095 0.281670994217947 0.155252898516978 C 0.0 **** 0.0
45 C11395 0.524987852127623 0.285929453122364 0.145241412363294 C 0.0 **** 0.0
46 C11396 0.513650025154726 0.297085355401749 0.156252595810816 C 0.0 **** 0.0
47 C11402 0.497586166020579 0.303371052928573 0.14719123093343 C 0.0 **** 0.0
48 C11403 0.487623775294411 0.313844057463148 0.1597379097622 C.Trigonal 0.0 **** 0.0
49 C11404 0.496237665890143 0.325931228886932 0.169521241474508 C.Trigonal 0.0 **** 0.0
50 C11409 0.487085078261469 0.335813033292983 0.181266756638192 C 0.0 **** 0.0
51 C11410 0.470199370853004 0.332717603312642 0.183629233256545 C 0.0 **** 0.0
52 C11411 0.461690738942215 0.320818872324426 0.173962594844955 C 0.0 **** 0.0
53 C11412 0.470361039136789 0.311859033858932 0.16151059749988 C 0.0 **** 0.0
54 C11418 0.666033420752948 0.407063157097762 0.148550067719386 C 0.0 **** 0.0
55 C11420 0.65671528757827 0.409215382876662 0.131710420608053 C 0.0 **** 0.0
56 C11422 0.68567003792835 0.437916860770262 0.14774467574273 C 0.0 **** 0.0
57 C11424 0.63597554621816 0.404846643522338 0.171071774119007 C 0.0 **** 0.0
58 C11426 0.677312970199092 0.465546631108709 0.169547953181288 C 0.0 **** 0.0
59 C11428 0.631027022540772 0.49632519967298 0.185656506013995 C 0.0 **** 0.0
60 C11430 0.596970006871395 0.498320454382503 0.174157751356231 C 0.0 **** 0.0
61 O11432 0.567890769324634 0.482335348147972 0.175115475727089 O 0.0 **** 0.0
62 C11434 0.510151392689402 0.468044916458116 0.172180029755347 C 0.0 **** 0.0
63 C11436 0.503353845685963 0.448783143637949 0.13840620680056 C 0.0 **** 0.0
64 O11438 0.521534173788647 0.405895915099588 0.17416990408114 O 0.0 **** 0.0
65 O11440 0.590930958455604 0.4044089701554 0.182993697878327 O 0.0 **** 0.0
66 O11442 0.588230895414553 0.373475452095378 0.188513475926403 O 0.0 **** 0.0
67 O11444 0.522276706930813 0.374348525299922 0.174912263964383 O 0.0 **** 0.0
68 C11446 0.460842748115708 0.299743167055806 0.150160259365794 C 0.0 **** 0.0
69 C11448 0.443081335422019 0.318255581691292 0.177456201611526 C 0.0 **** 0.0
70 H11450 0.619740040479429 0.423100009206202 0.190376385153925 H 0.0 **** 0.0
71 H11452 0.631849234202565 0.433298200811073 0.205829612340482 H 0.0 **** 0.0
72 H11454 0.649334405457641 0.460340980504846 0.204807175242622 H 0.0 **** 0.0
73 H11456 0.653039390702947 0.47465473379732 0.188321409460993 H 0.0 **** 0.0
74 H11458 0.595291540315785 0.426815502297386 0.196549863312308 H 0.0 **** 0.0
75 H11460 0.523895693862418 0.423782919338299 0.150790451037809 H 0.0 **** 0.0
76 H11462 0.512872112208593 0.433920200589128 0.167533439717302 H 0.0 **** 0.0
77 H11464 0.530483268329532 0.450141292811306 0.137135657750766 H 0.0 **** 0.0
78 H11466 0.519901033100321 0.477482870698234 0.148589534799309 H 0.0 **** 0.0
79 H11468 0.540490130120935 0.477975827737249 0.173581613901155 H 0.0 **** 0.0
80 H11470 0.548571322585154 0.47306469009412 0.153130966018432 H 0.0 **** 0.0
81 H11472 0.587203672447182 0.34281183864828 0.182596131497886 H 0.0 **** 0.0
82 H11474 0.570796286293531 0.335493079864381 0.195828544993009 H 0.0 **** 0.0
83 H11476 0.573942896565219 0.317018321573747 0.170930659737051 H 0.0 **** 0.0
84 H11478 0.571548575357009 0.334166290873961 0.15689270632518 H 0.0 **** 0.0
85 H11480 0.558573509873389 0.300947992145308 0.147384666787047 H 0.0 **** 0.0
86 H11482 0.560740874596082 0.294555236316282 0.168674870471939 H 0.0 **** 0.0
87 H11484 0.537146286613092 0.275766455755244 0.167301160151014 H 0.0 **** 0.0
88 H11486 0.548781130109444 0.272281544832995 0.148668899159472 H 0.0 **** 0.0
89 H11488 0.51816805409064 0.274327725072094 0.141582169378404 H 0.0 **** 0.0
90 H11490 0.52835251045054 0.292484092354009 0.133413085379376 H 0.0 **** 0.0
91 H11492 0.509600411047204 0.289414874784232 0.16718989013932 H 0.0 **** 0.0
92 H11494 0.500943856921124 0.310989177887828 0.135988286733252 H 0.0 **** 0.0
93 H11496 0.490495749772975 0.292398615491794 0.142513796243094 H 0.0 **** 0.0
94 H11498 0.493655257790919 0.345141113245644 0.189199166864709 H 0.0 **** 0.0
95 H11500 0.463166451944591 0.339871399055061 0.193211781788232 H 0.0 **** 0.0
96 H11502 0.663247623663152 0.394632545936113 0.154113364964189 H 0.0 **** 0.0
97 H11504 0.679774816697736 0.406725739365882 0.146393471567241 H 0.0 **** 0.0
98 H11506 0.658515502584328 0.421977010176339 0.1264534248549 H 0.0 **** 0.0
99 H11508 0.643030187592476 0.407210507329968 0.133259259644281 H 0.0 **** 0.0
100 H11510 0.661300596953493 0.400212642421357 0.122219084945196 H 0.0 **** 0.0
101 H11512 0.684151415917151 0.430593854897351 0.136056085562957 H 0.0 **** 0.0
102 H11514 0.697450273876553 0.433716336437199 0.153886885517135 H 0.0 **** 0.0
103 H11516 0.687536407710722 0.451018098711963 0.143503561685382 H 0.0 **** 0.0
104 H11518 0.622860444181419 0.408194603093871 0.167758602859827 H 0.0 **** 0.0
105 H11520 0.635845532797009 0.399123593655775 0.183768071558865 H 0.0 **** 0.0
106 H11522 0.63961474133458 0.394863663191687 0.162206752718966 H 0.0 **** 0.0
107 H11524 0.676371811964166 0.473090689841299 0.181083819897346 H 0.0 **** 0.0
108 H11526 0.673646944600238 0.473742287888851 0.158890335065729 H 0.0 **** 0.0
109 H11528 0.690836376575986 0.462592802516967 0.168232002148043 H 0.0 **** 0.0
110 H11530 0.623893458940282 0.507493209113629 0.189809916586214 H 0.0 **** 0.0
111 H11532 0.636338162029104 0.498960727844499 0.173053924903189 H 0.0 **** 0.0
112 H11534 0.641562633736012 0.495502051071838 0.194629453702116 H 0.0 **** 0.0
113 H11536 0.589539001966557 0.505340203944144 0.183606534736676 H 0.0 **** 0.0
114 H11538 0.589410013256904 0.496753064817513 0.162574270211456 H 0.0 **** 0.0
115 H11540 0.607291526883646 0.506623258638011 0.17006290258779 H 0.0 **** 0.0
116 H11542 0.57431275631547 0.490868682553058 0.180534203575966 H 0.0 **** 0.0
117 H11544 0.497018398436726 0.466182539647213 0.168065498700817 H 0.0 **** 0.0
118 H11546 0.511115298428248 0.480609285431816 0.178039330230383 H 0.0 **** 0.0
119 H11548 0.513308559326465 0.45858396226876 0.181845296619605 H 0.0 **** 0.0
120 H11550 0.502940750855602 0.437442378927378 0.130363436061926 H 0.0 **** 0.0
121 H11552 0.500982009868535 0.459864797135217 0.130352714433893 H 0.0 **** 0.0
122 H11554 0.493119329132119 0.447795524651171 0.147757843624383 H 0.0 **** 0.0
123 H11556 0.517223655194473 0.394620885709134 0.174017347236916 H 0.0 **** 0.0
124 H11558 0.594371772242636 0.393158201783386 0.185689478584474 H 0.0 **** 0.0
125 H11560 0.46538461326594 0.300334985761 0.137029574395201 H 0.0 **** 0.0
126 H11562 0.447272531808303 0.30257422144569 0.149495274165673 H 0.0 **** 0.0
127 H11564 0.462195732517685 0.286636811636587 0.154580729535721 H 0.0 **** 0.0
128 H11566 0.435249600426887 0.326972842662243 0.169927178955289 H 0.0 **** 0.0
129 H11568 0.440256312297294 0.320442726293449 0.190882739650435 H 0.0 **** 0.0
130 H11570 0.438883295844715 0.305311290349419 0.174732622676613 H 0.0 **** 0.0
@<TRIPOS>BOND
1 3 2 Aromatic
2 4 3 Aromatic
3 5 4 Aromatic
4 6 5 Aromatic
5 1 2 Aromatic
6 1 6 Aromatic
7 8 7 1
8 9 8 Aromatic
9 10 9 1
10 4 7 1
11 3 10 1
12 12 11 Aromatic
13 13 12 Aromatic
14 14 13 Aromatic
15 9 11 Aromatic
16 8 14 Aromatic
17 16 15 Aromatic
18 17 16 Aromatic
19 18 17 Aromatic
20 14 15 Aromatic
21 13 18 Aromatic
22 20 19 1
23 21 20 1
24 22 21 Aromatic
25 17 19 1
26 16 22 Aromatic
27 24 23 1
28 25 24 Aromatic
29 26 25 1
30 20 23 1
31 19 26 1
32 28 27 Aromatic
33 29 28 Aromatic
34 30 29 Aromatic
35 22 27 Aromatic
36 21 30 Aromatic
37 32 31 1
38 33 32 Aromatic
39 34 33 1
40 29 31 1
41 28 34 1
42 36 35 1
43 37 36 1
44 38 37 Aromatic
45 33 35 1
46 32 38 Aromatic
47 40 39 Aromatic
48 41 40 Aromatic
49 42 41 Aromatic
50 38 39 Aromatic
51 37 42 Aromatic
52 44 43 1
53 45 44 1
54 46 45 1
55 42 43 1
56 41 46 1
57 48 47 1
58 49 48 Aromatic
59 40 49 Aromatic
60 46 47 1
61 51 50 Aromatic
62 52 51 Aromatic
63 53 52 Aromatic
64 49 50 Aromatic
65 48 53 Aromatic
66 6 54 1
67 54 55 1
68 1 56 1
69 5 57 1
70 2 58 1
71 11 59 1
72 12 60 1
73 18 61 1
74 25 62 1
75 24 63 1
76 30 64 1
77 27 65 1
78 34 66 Double
79 31 67 Double
80 53 68 1
81 52 69 1
82 7 70 1
83 7 71 1
84 10 72 1
85 10 73 1
86 15 74 1
87 23 75 1
88 23 76 1
89 24 77 1
90 25 78 1
91 26 79 1
92 26 80 1
93 35 81 1
94 35 82 1
95 36 83 1
96 36 84 1
97 43 85 1
98 43 86 1
99 44 87 1
100 44 88 1
101 45 89 1
102 45 90 1
103 46 91 1
104 47 92 1
105 47 93 1
106 50 94 1
107 51 95 1
108 54 96 1
109 54 97 1
110 55 98 1
111 55 99 1
112 55 100 1
113 56 101 1
114 56 102 1
115 56 103 1
116 57 104 1
117 57 105 1
118 57 106 1
119 58 107 1
120 58 108 1
121 58 109 1
122 59 110 1
123 59 111 1
124 59 112 1
125 60 113 1
126 60 114 1
127 60 115 1
128 61 116 1
129 62 117 1
130 62 118 1
131 62 119 1
132 63 120 1
133 63 121 1
134 63 122 1
135 64 123 1
136 65 124 1
137 68 125 1
138 68 126 1
139 68 127 1
140 69 128 1
141 69 129 1
142 69 130 1
@<TRIPOS>MOLECULE
Sketch 4
130 142
SMALL
USER_CHARGES


@<TRIPOS>ATOM
1 C11572 -0.0478601979390115 0.796444246999697 0.490936545887675 C.Trigonal 0.0 **** 0.0
2 C11573 -0.0545121311865984 0.806223246910703 0.503826934367698 C 0.0 **** 0.0
3 C11574 -0.0441084272139433 0.816867009895075 0.512990786085913 C.Trigonal 0.0 **** 0.0
4 C11575 -0.0272960640673667 0.818331705625689 0.50875255822273 C.Trigonal 0.0 **** 0.0
5 C11576 -0.0204690079819765 0.808255448847413 0.496127535520723 C 0.0 **** 0.0
6 C11577 -0.0308341968427967 0.797514286516358 0.486969971570548 C 0.0 **** 0.0
7 C11584 -0.0167120776983857 0.831380383732572 0.518124101076199 C 0.0 **** 0.0
8 C11585 -0.021527240280235 0.833392540551682 0.536561248532323 C.Trigonal 0.0 **** 0.0
9 C11586 -0.0380376523971972 0.831149738548761 0.541448049725282 C.Trigonal 0.0 **** 0.0
10 C11587 -0.0510662280795208 0.826942518128449 0.527861725228775 C 0.0 **** 0.0
11 C11593 -0.0426964528823614 0.833013822610054 0.558330050228228 C 0.0 **** 0.0
12 C11594 -0.0306331187811879 0.835302700449974 0.570834562477937 C 0.0 **** 0.0
13 C11595 -0.013815710718682 0.838347411761702 0.565944799073132 C.Trigonal 0.0 **** 0.0
14 C11596 -0.0099355104188519 0.839279841876823 0.548475083798825 C.Trigonal 0.0 **** 0.0
15 C11602 0.00466883871495448 0.848057521170775 0.543433962386568 C 0.0 **** 0.0
16 C11603 0.0154257167390722 0.855410773959389 0.555318188229643 C.Trigonal 0.0 **** 0.0
17 C11604 0.0144611832669217 0.848951656916683 0.57192985485828 C.Trigonal 0.0 **** 0.0
18 C11605 -0.000543102696403761 0.841708825219102 0.577711149798239 C 0.0 **** 0.0
19 C11611 0.029469125257931 0.852228195434598 0.58330521762444 C.Trigonal 0.0 **** 0.0
20 C11612 0.0416397305255299 0.863540997229888 0.578670495729559 C.Trigonal 0.0 **** 0.0
21 C11613 0.0395543595329515 0.873867178281088 0.562413244033335 C.Trigonal 0.0 **** 0.0
22 C11614 0.0254866544462321 0.870109619365508 0.55205935863589 C.Trigonal 0.0 **** 0.0
23 C11620 0.057567088968754 0.866217595429692 0.589333756032956 C 0.0 **** 0.0
24 C11621 0.0576133360333011 0.856585770517799 0.606262044714835 C 0.0 **** 0.0
25 C11622 0.0501160999132686 0.838824319155489 0.603501396696944 C 0.0 **** 0.0
26 C11623 0.0314546316460915 0.840388934994729 0.598394492816714 C 0.0 **** 0.0
27 C11629 0.0211819426673021 0.881503769064503 0.538796956346934 C 0.0 **** 0.0
28 C11630 0.0323171242987402 0.894239507623041 0.534500724499243 C.Trigonal 0.0 **** 0.0
29 C11631 0.0475677428547922 0.895920457603026 0.542819252073831 C.Trigonal 0.0 **** 0.0
30 C11632 0.0512028183557529 0.88599703727102 0.556910733079915 C 0.0 **** 0.0
31 C11638 0.0602707617141322 0.909017394992125 0.536980146861472 C 0.0 **** 0.0
32 C11639 0.0555054764018709 0.920170511249411 0.522820128618402 C.Trigonal 0.0 **** 0.0
33 C11640 0.0403355270298005 0.918725348507483 0.51506482701654 C.Trigonal 0.0 **** 0.0
34 C11641 0.0277582316714163 0.906187931957741 0.520406207194727 C 0.0 **** 0.0
35 C11647 0.0355872458644863 0.930014794547793 0.500278052799975 C 0.0 **** 0.0
36 C11648 0.0514791238498111 0.934489889530014 0.489854142594338 C 0.0 **** 0.0
37 C11649 0.0654532858059921 0.941253214729105 0.501196745585795 C.Trigonal 0.0 **** 0.0
38 C11650 0.0677456864042537 0.933634492293487 0.517232078684337 C.Trigonal 0.0 **** 0.0
39 N11656 0.0801555689178075 0.938525031213228 0.527646498999166 N 0.0 **** 0.0
40 C11657 0.0910048675197508 0.950362454103691 0.522304152103793 C.Trigonal 0.0 **** 0.0
41 C11658 0.0892540047067268 0.958711735761064 0.506568253905774 C.Trigonal 0.0 **** 0.0
42 C11659 0.0761192757828025 0.954158399868946 0.496230740019462 C.Trigonal 0.0 **** 0.0
43 C11665 0.0735217068649747 0.962644441470754 0.479111852075777 C 0.0 **** 0.0
44 C11666 0.0848217467738211 0.9781006217916 0.476082456300302 C 0.0 **** 0.0
45 C11667 0.10253520734905 0.974885070851097 0.482983045634584 C 0.0 **** 0.0
46 C11668 0.101307972467296 0.972969896656923 0.502204917078415 C 0.0 **** 0.0
47 C11674 0.118671951658405 0.969972420134637 0.510614666245401 C 0.0 **** 0.0
48 C11675 0.116432494100396 0.965928323285249 0.529210939069506 C.Trigonal 0.0 **** 0.0
49 C11676 0.103346471329312 0.955039446490861 0.53420447204436 C.Trigonal 0.0 **** 0.0
50 C11681 0.102089460120545 0.950105533627726 0.551329907652623 C 0.0 **** 0.0
51 C11682 0.112922342017305 0.956903762283976 0.563011062597325 C 0.0 **** 0.0
52 C11683 0.125460521435078 0.968159427177383 0.558227973528398 C 0.0 **** 0.0
53 C11684 0.12737146689869 0.972418538051881 0.541216578355877 C 0.0 **** 0.0
54 C11690 -0.0239021499153552 0.78699265781102 0.472438641307728 C 0.0 **** 0.0
55 C11692 -0.0171377970636961 0.769943098320486 0.478640253673105 C 0.0 **** 0.0
56 C11694 -0.0594111991133476 0.784514615488006 0.481345022305332 C 0.0 **** 0.0
57 C11696 -0.00159204673020862 0.809053108732114 0.49316604252259 C 0.0 **** 0.0
58 C11698 -0.0731261569656761 0.805226781449866 0.508091423251198 C 0.0 **** 0.0
59 C11700 -0.061328189488292 0.831885686471837 0.56292546287915 C 0.0 **** 0.0
60 C11702 -0.0362539596838207 0.835021119090952 0.589155266202736 C 0.0 **** 0.0
61 O11704 -0.00308103960547447 0.838431654269407 0.594492357357479 O 0.0 **** 0.0
62 C11706 0.0519073562631339 0.827667838402199 0.619332960919315 C 0.0 **** 0.0
63 C11708 0.0481998947119429 0.86692996181808 0.619885101460421 C 0.0 **** 0.0
64 O11710 0.065983597648674 0.888204701151179 0.565781351744754 O 0.0 **** 0.0
65 O11712 0.00604709563669165 0.879392342899708 0.530600927125525 O 0.0 **** 0.0
66 O11714 0.0138822417440104 0.905295498452864 0.51385531957912 O 0.0 **** 0.0
67 O11716 0.0740047500908818 0.909518000661284 0.543851170068939 O 0.0 **** 0.0
68 C11718 0.141533877281164 0.984140410266086 0.535881060285552 C 0.0 **** 0.0
69 C11720 0.136831880692223 0.975225983103957 0.571871107999483 C 0.0 **** 0.0
70 H11722 -0.00330469678193776 0.827891325303418 0.517581724391725 H 0.0 **** 0.0
71 H11724 -0.0178652348440243 0.843732794145035 0.511683566859422 H 0.0 **** 0.0
72 H11726 -0.0570285661539539 0.838701703190432 0.523228243519485 H 0.0 **** 0.0
73 H11728 -0.0611027461029545 0.819351148831772 0.533716517280899 H 0.0 **** 0.0
74 H11730 0.0063580042324077 0.850806439772294 0.529952490572013 H 0.0 **** 0.0
75 H11732 0.0686146492116109 0.861982980085552 0.581977756016641 H 0.0 **** 0.0
76 H11734 0.05938120240932 0.879705354090378 0.592274208368711 H 0.0 **** 0.0
77 H11736 0.0708489806147075 0.85520239614986 0.610382819937045 H 0.0 **** 0.0
78 H11738 0.0571055212582569 0.832662408704335 0.593135453550636 H 0.0 **** 0.0
79 H11740 0.0241956008132559 0.845027765026041 0.609318736774946 H 0.0 **** 0.0
80 H11742 0.0268249595909059 0.827576552632271 0.595377266906792 H 0.0 **** 0.0
81 H11744 0.0262808691826624 0.923976547652335 0.491799662020516 H 0.0 **** 0.0
82 H11746 0.0296305940773466 0.941644555027398 0.504982230134297 H 0.0 **** 0.0
83 H11748 0.0478463588410305 0.943448873590736 0.479889464554767 H 0.0 **** 0.0
84 H11750 0.0559119697818361 0.922992330641743 0.483299841585076 H 0.0 **** 0.0
85 H11752 0.076368318000332 0.953374572973983 0.469167499127416 H 0.0 **** 0.0
86 H11754 0.0602145537902524 0.966405237320921 0.477515124869232 H 0.0 **** 0.0
87 H11756 0.0793651608277784 0.989198211730004 0.482500406712705 H 0.0 **** 0.0
88 H11758 0.0851013735034813 0.981211186128482 0.462493573762908 H 0.0 **** 0.0
89 H11760 0.111222216915535 0.985277641888381 0.479738571397533 H 0.0 **** 0.0
90 H11762 0.107874460577323 0.963349159366774 0.477226954460361 H 0.0 **** 0.0
91 H11764 0.0961629771718173 0.984882566076716 0.507333762219868 H 0.0 **** 0.0
92 H11766 0.125115029338218 0.959376845855695 0.504219442614375 H 0.0 **** 0.0
93 H11768 0.126571465155193 0.98119936190769 0.508499446195763 H 0.0 **** 0.0
94 H11770 0.0920152622653832 0.941459570127627 0.555463128103615 H 0.0 **** 0.0
95 H11772 0.111679155642574 0.953323669426372 0.576383787110238 H 0.0 **** 0.0
96 H11774 -0.0138725280287189 0.793699894153619 0.465547775807328 H 0.0 **** 0.0
97 H11776 -0.0336671878750383 0.784927838879006 0.462730231448723 H 0.0 **** 0.0
98 H11778 -0.0268946908830786 0.762721849863766 0.485423048676877 H 0.0 **** 0.0
99 H11780 -0.0063702465416275 0.771744400257889 0.487211244962124 H 0.0 **** 0.0
100 H11782 -0.0127076936320253 0.762092562940932 0.468039271554428 H 0.0 **** 0.0
101 H11784 -0.0527972477694526 0.773218511824896 0.476794810491664 H 0.0 **** 0.0
102 H11786 -0.0651729875347267 0.790808042005236 0.470320120695347 H 0.0 **** 0.0
103 H11788 -0.069693542266603 0.779643196862948 0.489296287972563 H 0.0 **** 0.0
104 H11790 0.00512094037178848 0.803163013467736 0.503830902098829 H 0.0 **** 0.0
105 H11792 0.00293012461658046 0.822124982312034 0.492324312098641 H 0.0 **** 0.0
106 H11794 0.00276132390812254 0.802539106406999 0.481768877657873 H 0.0 **** 0.0
107 H11796 -0.0779565217389774 0.81723298685935 0.513068240184672 H 0.0 **** 0.0
108 H11798 -0.0754850050770125 0.795395703435082 0.517674568646245 H 0.0 **** 0.0
109 H11800 -0.0809451657455996 0.802423921872413 0.496966865417925 H 0.0 **** 0.0
110 H11802 -0.0647851669450952 0.840947504665977 0.572889546371562 H 0.0 **** 0.0
111 H11804 -0.0647191544977251 0.819091461833773 0.567274393249732 H 0.0 **** 0.0
112 H11806 -0.0696413185266983 0.835120563473985 0.552300266850149 H 0.0 **** 0.0
113 H11808 -0.0292479234912877 0.825440196372038 0.596423035428466 H 0.0 **** 0.0
114 H11810 -0.0495739081124464 0.831734519520135 0.590995724034847 H 0.0 **** 0.0
115 H11812 -0.0342806242461359 0.847403653041952 0.595212110303234 H 0.0 **** 0.0
116 H11814 0.00661920156103033 0.842082343499534 0.600471440441914 H 0.0 **** 0.0
117 H11816 0.0652294118424745 0.82683730921791 0.623234070175608 H 0.0 **** 0.0
118 H11818 0.0473893123604273 0.814785392293902 0.616667054197312 H 0.0 **** 0.0
119 H11820 0.0445105903977396 0.832761785565854 0.629934546232694 H 0.0 **** 0.0
120 H11822 0.0546324808156141 0.879096554127428 0.621927555447014 H 0.0 **** 0.0
121 H11824 0.0480351458547317 0.860174494477695 0.632027787820505 H 0.0 **** 0.0
122 H11826 0.0351114470219961 0.8696385757568 0.616081445463617 H 0.0 **** 0.0
123 H11828 0.0741729818884274 0.893874386688664 0.558878623222437 H 0.0 **** 0.0
124 H11830 0.00480625942677661 0.88782989926733 0.522009484742662 H 0.0 **** 0.0
125 H11832 0.148765565426204 0.97876535422348 0.525289054186661 H 0.0 **** 0.0
126 H11834 0.150737405531051 0.986515672947544 0.545975817559533 H 0.0 **** 0.0
127 H11836 0.136576351113644 0.99652802422032 0.531862789411126 H 0.0 **** 0.0
128 H11838 0.149766924038745 0.970168258246547 0.570819296261547 H 0.0 **** 0.0
129 H11840 0.132177165414367 0.972044653865767 0.584558921566379 H 0.0 **** 0.0
130 H11842 0.137561313667828 0.989109725127596 0.571258626421592 H 0.0 **** 0.0
@<TRIPOS>BOND
1 3 2 Aromatic
2 4 3 Aromatic
3 5 4 Aromatic
4 6 5 Aromatic
5 1 2 Aromatic
6 1 6 Aromatic
7 8 7 1
8 9 8 Aromatic
9 10 9 1
10 4 7 1
11 3 10 1
12 12 11 Aromatic
13 13 12 Aromatic
14 14 13 Aromatic
15 9 11 Aromatic
16 8 14 Aromatic
17 16 15 Aromatic
18 17 16 Aromatic
19 18 17 Aromatic
20 14 15 Aromatic
21 13 18 Aromatic
22 20 19 1
23 21 20 1
24 22 21 Aromatic
25 17 19 1
26 16 22 Aromatic
27 24 23 1
28 25 24 Aromatic
29 26 25 1
30 20 23 1
31 19 26 1
32 28 27 Aromatic
33 29 28 Aromatic
34 30 29 Aromatic
35 22 27 Aromatic
36 21 30 Aromatic
37 32 31 1
38 33 32 Aromatic
39 34 33 1
40 29 31 1
41 28 34 1
42 36 35 1
43 37 36 1
44 38 37 Aromatic
45 33 35 1
46 32 38 Aromatic
47 40 39 Aromatic
48 41 40 Aromatic
49 42 41 Aromatic
50 38 39 Aromatic
51 37 42 Aromatic
52 44 43 1
53 45 44 1
54 46 45 1
55 42 43 1
56 41 46 1
57 48 47 1
58 49 48 Aromatic
59 40 49 Aromatic
60 46 47 1
61 51 50 Aromatic
62 52 51 Aromatic
63 53 52 Aromatic
64 49 50 Aromatic
65 48 53 Aromatic
66 6 54 1
67 54 55 1
68 1 56 1
69 5 57 1
70 2 58 1
71 11 59 1
72 12 60 1
73 18 61 1
74 25 62 1
75 24 63 1
76 30 64 1
77 27 65 1
78 34 66 Double
79 31 67 Double
80 53 68 1
81 52 69 1
82 7 70 1
83 7 71 1
84 10 72 1
85 10 73 1
86 15 74 1
87 23 75 1
88 23 76 1
89 24 77 1
90 25 78 1
91 26 79 1
92 26 80 1
93 35 81 1
94 35 82 1
95 36 83 1
96 36 84 1
97 43 85 1
98 43 86 1
99 44 87 1
100 44 88 1
101 45 89 1
102 45 90 1
103 46 91 1
104 47 92 1
105 47 93 1
106 50 94 1
107 51 95 1
108 54 96 1
109 54 97 1
110 55 98 1
111 55 99 1
112 55 100 1
113 56 101 1
114 56 102 1
115 56 103 1
116 57 104 1
117 57 105 1
118 57 106 1
119 58 107 1
120 58 108 1
121 58 109 1
122 59 110 1
123 59 111 1
124 59 112 1
125 60 113 1
126 60 114 1
127 60 115 1
128 61 116 1
129 62 117 1
130 62 118 1
131 62 119 1
132 63 120 1
133 63 121 1
134 63 122 1
135 64 123 1
136 65 124 1
137 68 125 1
138 68 126 1
139 68 127 1
140 69 128 1
141 69 129 1
142 69 130 1
@<TRIPOS>MOLECULE
Sketch 4
130 142
SMALL
USER_CHARGES


@<TRIPOS>ATOM
1 C11844 0.152675095503338 0.74780364095212 0.790271978520044 C.Trigonal 0.0 **** 0.0
2 C11845 0.154164608131143 0.740350368576357 0.806049014722312 C 0.0 **** 0.0
3 C11846 0.143160369908961 0.727568418587901 0.810788400878623 C.Trigonal 0.0 **** 0.0
4 C11847 0.130300810028144 0.722825418302652 0.800117256441416 C.Trigonal 0.0 **** 0.0
5 C11848 0.12902243820399 0.729972248395205 0.784121862929331 C 0.0 **** 0.0
6 C11849 0.140625928290919 0.742011247927018 0.778974627357971 C 0.0 **** 0.0
7 C11856 0.117526419604807 0.709434198870599 0.805436347685107 C 0.0 **** 0.0
8 C11857 0.118314066179143 0.702869741789464 0.823497673658799 C.Trigonal 0.0 **** 0.0
9 C11858 0.131603239762915 0.707004976521467 0.833838772292043 C.Trigonal 0.0 **** 0.0
10 C11859 0.145493501279595 0.718888521113054 0.827768306185371 C 0.0 **** 0.0
11 C11865 0.132941198685457 0.700080131214407 0.849977122499638 C 0.0 **** 0.0
12 C11866 0.120132491298153 0.690349172581188 0.856808189278321 C 0.0 **** 0.0
13 C11867 0.105484646081892 0.687795643585726 0.847249270203749 C.Trigonal 0.0 **** 0.0
14 C11868 0.105460110826996 0.692384005814319 0.829912247210124 C.Trigonal 0.0 **** 0.0
15 C11874 0.0917027223160514 0.687483907280953 0.819881605375935 C 0.0 **** 0.0
16 C11875 0.0763748278143666 0.682157468765116 0.826901113342248 C.Trigonal 0.0 **** 0.0
17 C11876 0.0771546783115201 0.676377140501503 0.843829490741588 C.Trigonal 0.0 **** 0.0
18 C11877 0.0905097048566483 0.680739150291087 0.854307353389122 C 0.0 **** 0.0
19 C11883 0.0617296776614033 0.667987075544811 0.851039692997976 C.Trigonal 0.0 **** 0.0
20 C11884 0.0466067817215294 0.669100256981008 0.843156385340287 C.Trigonal 0.0 **** 0.0
21 C11885 0.0454789574588903 0.676603412122924 0.825584722615677 C.Trigonal 0.0 **** 0.0
22 C11886 0.0600620873690695 0.684394869609118 0.818810975830012 C.Trigonal 0.0 **** 0.0
23 C11892 0.0310491905360278 0.663685252048662 0.85335504844722 C 0.0 **** 0.0
24 C11893 0.03352318640448 0.669273323266729 0.871992049130044 C 0.0 **** 0.0
25 C11894 0.0500107504314966 0.66195048228723 0.880079334063801 C 0.0 **** 0.0
26 C11895 0.0626573876292791 0.656318919347971 0.866393053224323 C 0.0 **** 0.0
27 C11901 0.0581673600164856 0.693558428615124 0.803477375837237 C 0.0 **** 0.0
28 C11902 0.0438913564280884 0.691112428622874 0.793661005045979 C.Trigonal 0.0 **** 0.0
29 C11903 0.0308408230606081 0.680954778503815 0.799258126621151 C.Trigonal 0.0 **** 0.0
30 C11904 0.0314277822210118 0.673781259421704 0.815293477514471 C 0.0 **** 0.0
31 C11910 0.015927623398986 0.677241726120077 0.787908840729887 C 0.0 **** 0.0
32 C11911 0.0162272545350294 0.68420178667106 0.770636110317742 C.Trigonal 0.0 **** 0.0
33 C11912 0.0284825179465203 0.695008394137913 0.76554417231066 C.Trigonal 0.0 **** 0.0
34 C11913 0.0428785302497906 0.699317566382555 0.776483297857734 C 0.0 **** 0.0
35 C11919 0.0281617966291835 0.703117311892728 0.748123497413264 C 0.0 **** 0.0
36 C11920 0.00985912218789141 0.703939905004466 0.741211103518669 C 0.0 **** 0.0
37 C11921 0.00126575762756637 0.686850006194802 0.742715791561188 C.Trigonal 0.0 **** 0.0
38 C11922 0.00316177373885699 0.678122774625853 0.758221109571577 C.Trigonal 0.0 **** 0.0
39 N11928 -0.00475571405962703 0.663467631320529 0.761206183295328 N 0.0 **** 0.0
40 C11929 -0.0144653842992713 0.656925376346693 0.748967987353643 C.Trigonal 0.0 **** 0.0
41 C11930 -0.0158708828540632 0.664344762479582 0.732734942239553 C.Trigonal 0.0 **** 0.0
42 C11931 -0.00799101162650821 0.679540626112929 0.729843731702136 C.Trigonal 0.0 **** 0.0
43 C11937 -0.00931789828208493 0.688282334046856 0.712707127613143 C 0.0 **** 0.0
44 C11938 -0.0152253167325163 0.676233950512342 0.698705959091189 C 0.0 **** 0.0
45 C11939 -0.0305520927375051 0.666150310540249 0.704610244603639 C 0.0 **** 0.0
46 C11940 -0.025232825240471 0.65451607001179 0.71913610385972 C 0.0 **** 0.0
47 C11946 -0.040303042994635 0.644869899462487 0.727026000978901 C 0.0 **** 0.0
48 C11947 -0.0345283606636602 0.634746932039765 0.742258365014902 C.Trigonal 0.0 **** 0.0
49 C11948 -0.0222818974415012 0.641514301772816 0.753164027354286 C.Trigonal 0.0 **** 0.0
50 C11953 -0.0178107827274053 0.632525559461567 0.767952844484771 C 0.0 **** 0.0
51 C11954 -0.0248345856107887 0.617017105339379 0.771083238794827 C 0.0 **** 0.0
52 C11955 -0.0367624649675497 0.610201655216461 0.760229207999975 C 0.0 **** 0.0
53 C11956 -0.0418381111163162 0.619282984824076 0.745975063798201 C 0.0 **** 0.0
54 C11962 0.140347890777728 0.74881187382968 0.761011823839443 C 0.0 **** 0.0
55 C11964 0.128055017781433 0.763658618823024 0.759343987480603 C 0.0 **** 0.0
56 C11966 0.164648503004406 0.761958457903316 0.785297610153531 C 0.0 **** 0.0
57 C11968 0.11493061786687 0.723988271242364 0.772548633633891 C 0.0 **** 0.0
58 C11970 0.167949389431875 0.746282908921089 0.817977320699465 C 0.0 **** 0.0
59 C11972 0.148840291359582 0.702969784812486 0.860361878591624 C 0.0 **** 0.0
60 C11974 0.122456823433574 0.683442555990756 0.874516637902677 C 0.0 **** 0.0
61 O11976 0.0894494695949999 0.678632125576624 0.871483963178268 O 0.0 **** 0.0
62 C11978 0.0468858176648419 0.64679884837123 0.891862727529116 C 0.0 **** 0.0
63 C11980 0.0175267597503668 0.665373371545312 0.882393678581584 C 0.0 **** 0.0
64 O11982 0.0186736080872125 0.663485117293699 0.821169291524419 O 0.0 **** 0.0
65 O11984 0.0708028727280328 0.70424995874411 0.79831430638291 O 0.0 **** 0.0
66 O11986 0.0540325632803967 0.708815143732674 0.771822955287093 O 0.0 **** 0.0
67 O11988 0.00449188541700484 0.66850429665819 0.793372425928893 O 0.0 **** 0.0
68 C11990 -0.055469669700868 0.612129368306582 0.734576654568188 C 0.0 **** 0.0
69 C11992 -0.0441016285871594 0.593131057654468 0.76465349905896 C 0.0 **** 0.0
70 H11994 0.104804113856741 0.714813380650463 0.803536098310911 H 0.0 **** 0.0
71 H11996 0.118646700281976 0.698565211006017 0.796735806761426 H 0.0 **** 0.0
72 H11998 0.157515581974121 0.711779234373283 0.827367879231188 H 0.0 **** 0.0
73 H12000 0.146936525743783 0.72886178442195 0.837396062265318 H 0.0 **** 0.0
74 H12002 0.0924931496495175 0.690503037273665 0.806414802750815 H 0.0 **** 0.0
75 H12004 0.0193477225093834 0.669728191896801 0.848916264948503 H 0.0 **** 0.0
76 H12006 0.0292208642747874 0.649921199872451 0.852537517238458 H 0.0 **** 0.0
77 H12008 0.0348937400220737 0.683137337321805 0.871843302851093 H 0.0 **** 0.0
78 H12010 0.0558765306910107 0.672034892186069 0.887661938250109 H 0.0 **** 0.0
79 H12012 0.0588152719830332 0.643743076548693 0.861734693841206 H 0.0 **** 0.0
80 H12014 0.0752312758281266 0.65405025279756 0.871879068381149 H 0.0 **** 0.0
81 H12016 0.0333312265898922 0.716093206720445 0.748423696793486 H 0.0 **** 0.0
82 H12018 0.0362108756591553 0.695931684909387 0.739345452378283 H 0.0 **** 0.0
83 H12020 0.0102009624750215 0.708801737364727 0.728220977441564 H 0.0 **** 0.0
84 H12022 0.00264065883941026 0.713388864894897 0.748552573095832 H 0.0 **** 0.0
85 H12024 -0.0182956674867156 0.698936356315056 0.713648097697147 H 0.0 **** 0.0
86 H12026 0.00293319021747226 0.693679454830269 0.708900366419445 H 0.0 **** 0.0
87 H12028 -0.00492579527109799 0.667410073699531 0.695452804130995 H 0.0 **** 0.0
88 H12030 -0.0180588771629408 0.683349236192713 0.687095961860536 H 0.0 **** 0.0
89 H12032 -0.035916980317594 0.658624932722754 0.694175254784448 H 0.0 **** 0.0
90 H12034 -0.0405851128350955 0.674895197171431 0.708789130264508 H 0.0 **** 0.0
91 H12036 -0.0164236120092086 0.644997278700753 0.713860249466851 H 0.0 **** 0.0
92 H12038 -0.0501995323623991 0.653937474793585 0.730887727518356 H 0.0 **** 0.0
93 H12040 -0.0459376620813145 0.636806488521976 0.717210897897919 H 0.0 **** 0.0
94 H12042 -0.00853798752215801 0.637769373340933 0.776848048408671 H 0.0 **** 0.0
95 H12044 -0.0211538680844448 0.610004215129833 0.782500087619679 H 0.0 **** 0.0
96 H12046 0.137028243225897 0.738765757385816 0.751967396574534 H 0.0 **** 0.0
97 H12048 0.153051831503096 0.7528490443136 0.757007905414986 H 0.0 **** 0.0
98 H12050 0.131833062434447 0.77408505172022 0.76771394449237 H 0.0 **** 0.0
99 H12052 0.115098841165695 0.759921672052341 0.762739563472641 H 0.0 **** 0.0
100 H12054 0.127729144488017 0.768624095443034 0.746361553019799 H 0.0 **** 0.0
101 H12056 0.168833945976583 0.769414388352983 0.796244805866571 H 0.0 **** 0.0
102 H12058 0.158700040715307 0.771125590350719 0.776731308946651 H 0.0 **** 0.0
103 H12060 0.176000000991564 0.756977181366433 0.77894427944755 H 0.0 **** 0.0
104 H12062 0.102503566693192 0.725138705674166 0.77871971174473 H 0.0 **** 0.0
105 H12064 0.116720101554141 0.710642525566427 0.768991146078203 H 0.0 **** 0.0
106 H12066 0.113876547588119 0.731191812668885 0.760772859268502 H 0.0 **** 0.0
107 H12068 0.171007357712035 0.737118018622542 0.827916108100899 H 0.0 **** 0.0
108 H12070 0.164345406578926 0.758133409754533 0.824285643971922 H 0.0 **** 0.0
109 H12072 0.179838708514329 0.748656345693937 0.811209320198078 H 0.0 **** 0.0
110 H12074 0.157456142328352 0.712401655004037 0.855086811269682 H 0.0 **** 0.0
111 H12076 0.156102691398663 0.691141858611803 0.861333089273375 H 0.0 **** 0.0
112 H12078 0.145944519830838 0.707189943955098 0.873278808832228 H 0.0 **** 0.0
113 H12080 0.116331365933086 0.691598109151331 0.884001481242013 H 0.0 **** 0.0
114 H12082 0.13576352004435 0.682018366670927 0.878131594764498 H 0.0 **** 0.0
115 H12084 0.117116613556158 0.670691194125295 0.87571139927253 H 0.0 **** 0.0
116 H12086 0.0780937165833779 0.675710843838737 0.874023994966386 H 0.0 **** 0.0
117 H12088 0.0388784747880613 0.650485773087237 0.902586957255847 H 0.0 **** 0.0
118 H12090 0.0589335235683962 0.642076850159064 0.896954883538235 H 0.0 **** 0.0
119 H12092 0.0406913336237843 0.636400711690205 0.885040860987878 H 0.0 **** 0.0
120 H12094 0.00651561732971412 0.67188882784421 0.876966757660118 H 0.0 **** 0.0
121 H12096 0.019003880357871 0.669776682533891 0.895502068460971 H 0.0 **** 0.0
122 H12098 0.0148200048284595 0.651740856095534 0.882504306045453 H 0.0 **** 0.0
123 H12100 0.0106752315607609 0.661750648116726 0.812288110383591 H 0.0 **** 0.0
124 H12102 0.0671191177642614 0.710260530494505 0.788455302837197 H 0.0 **** 0.0
125 H12104 -0.0649729110455245 0.621769730821738 0.731351635689607 H 0.0 **** 0.0
126 H12106 -0.062494643790269 0.60170935299396 0.740450644371147 H 0.0 **** 0.0
127 H12108 -0.050060593237519 0.607276368249064 0.722690246891421 H 0.0 **** 0.0
128 H12110 -0.0573482336623426 0.594235340119534 0.768823276037998 H 0.0 **** 0.0
129 H12112 -0.0370419577439788 0.587115523766447 0.774968477011842 H 0.0 **** 0.0
130 H12114 -0.0436845238277982 0.584374116006746 0.753853084968176 H 0.0 **** 0.0
@<TRIPOS>BOND
1 3 2 Aromatic
2 4 3 Aromatic
3 5 4 Aromatic
4 6 5 Aromatic
5 1 2 Aromatic
6 1 6 Aromatic
7 8 7 1
8 9 8 Aromatic
9 10 9 1
10 4 7 1
11 3 10 1
12 12 11 Aromatic
13 13 12 Aromatic
14 14 13 Aromatic
15 9 11 Aromatic
16 8 14 Aromatic
17 16 15 Aromatic
18 17 16 Aromatic
19 18 17 Aromatic
20 14 15 Aromatic
21 13 18 Aromatic
22 20 19 1
23 21 20 1
24 22 21 Aromatic
25 17 19 1
26 16 22 Aromatic
27 24 23 1
28 25 24 Aromatic
29 26 25 1
30 20 23 1
31 19 26 1
32 28 27 Aromatic
33 29 28 Aromatic
34 30 29 Aromatic
35 22 27 Aromatic
36 21 30 Aromatic
37 32 31 1
38 33 32 Aromatic
39 34 33 1
40 29 31 1
41 28 34 1
42 36 35 1
43 37 36 1
44 38 37 Aromatic
45 33 35 1
46 32 38 Aromatic
47 40 39 Aromatic
48 41 40 Aromatic
49 42 41 Aromatic
50 38 39 Aromatic
51 37 42 Aromatic
52 44 43 1
53 45 44 1
54 46 45 1
55 42 43 1
56 41 46 1
57 48 47 1
58 49 48 Aromatic
59 40 49 Aromatic
60 46 47 1
61 51 50 Aromatic
62 52 51 Aromatic
63 53 52 Aromatic
64 49 50 Aromatic
65 48 53 Aromatic
66 6 54 1
67 54 55 1
68 1 56 1
69 5 57 1
70 2 58 1
71 11 59 1
72 12 60 1
73 18 61 1
74 25 62 1
75 24 63 1
76 30 64 1
77 27 65 1
78 34 66 Double
79 31 67 Double
80 53 68 1
81 52 69 1
82 7 70 1
83 7 71 1
84 10 72 1
85 10 73 1
86 15 74 1
87 23 75 1
88 23 76 1
89 24 77 1
90 25 78 1
91 26 79 1
92 26 80 1
93 35 81 1
94 35 82 1
95 36 83 1
96 36 84 1
97 43 85 1
98 43 86 1
99 44 87 1
100 44 88 1
101 45 89 1
102 45 90 1
103 46 91 1
104 47 92 1
105 47 93 1
106 50 94 1
107 51 95 1
108 54 96 1
109 54 97 1
110 55 98 1
111 55 99 1
112 55 100 1
113 56 101 1
114 56 102 1
115 56 103 1
116 57 104 1
117 57 105 1
118 57 106 1
119 58 107 1
120 58 108 1
121 58 109 1
122 59 110 1
123 59 111 1
124 59 112 1
125 60 113 1
126 60 114 1
127 60 115 1
128 61 116 1
129 62 117 1
130 62 118 1
131 62 119 1
132 63 120 1
133 63 121 1
134 63 122 1
135 64 123 1
136 65 124 1
137 68 125 1
138 68 126 1
139 68 127 1
140 69 128 1
141 69 129 1
142 69 130 1
@<TRIPOS>MOLECULE
Sketch 4
130 142
SMALL
USER_CHARGES


@<TRIPOS>ATOM
1 C12116 0.112293298459443 0.259748032236021 0.549790936853668 C.Trigonal 0.0 **** 0.0
2 C12117 0.11609791670678 0.274898853539751 0.557604500777165 C 0.0 **** 0.0
3 C12118 0.124437230045439 0.287449471959617 0.548759066300535 C.Trigonal 0.0 **** 0.0
4 C12119 0.127977315238829 0.285477995695109 0.531830866175185 C.Trigonal 0.0 **** 0.0
5 C12120 0.123574375256318 0.270583180591598 0.52374219386801 C 0.0 **** 0.0
6 C12121 0.116194757058204 0.257527025903508 0.532880875422111 C 0.0 **** 0.0
7 C12128 0.136365818070195 0.300144799462723 0.522563464901348 C 0.0 **** 0.0
8 C12129 0.148088122996325 0.310809518306764 0.533442974804296 C.Trigonal 0.0 **** 0.0
9 C12130 0.145372175162943 0.311695918953265 0.550581163826005 C.Trigonal 0.0 **** 0.0
10 C12131 0.129380614708868 0.303743604985169 0.557594844762285 C 0.0 **** 0.0
11 C12137 0.157055623738602 0.319546099252524 0.561115238918953 C 0.0 **** 0.0
12 C12138 0.17152630169839 0.326859359542776 0.554457263036438 C 0.0 **** 0.0
13 C12139 0.172270738573766 0.329560508788314 0.536956512390171 C.Trigonal 0.0 **** 0.0
14 C12140 0.160781881428078 0.320889633606645 0.526345703907633 C.Trigonal 0.0 **** 0.0
15 C12146 0.16098952727698 0.324265319695996 0.509045205131418 C 0.0 **** 0.0
16 C12147 0.17237297467062 0.335458385975878 0.501348920057461 C.Trigonal 0.0 **** 0.0
17 C12148 0.183163328883794 0.344761400557553 0.512263504102914 C.Trigonal 0.0 **** 0.0
18 C12149 0.182555030187936 0.342475655244579 0.529678323178912 C 0.0 **** 0.0
19 C12155 0.194051385493073 0.358477311264299 0.504412017241243 C.Trigonal 0.0 **** 0.0
20 C12156 0.190668486715541 0.364228200389472 0.48853987805825 C.Trigonal 0.0 **** 0.0
21 C12157 0.178109242914277 0.354709800988334 0.477363067845375 C.Trigonal 0.0 **** 0.0
22 C12158 0.171480211181316 0.339307256574281 0.483579155749013 C.Trigonal 0.0 **** 0.0
23 C12164 0.200641791248226 0.378857392103893 0.480656138192623 C 0.0 **** 0.0
24 C12165 0.213470765718279 0.387233822131855 0.492632006684125 C 0.0 **** 0.0
25 C12166 0.222180229327312 0.373511631839933 0.503294612280772 C 0.0 **** 0.0
26 C12167 0.208993885416488 0.365092788683289 0.51472160757692 C 0.0 **** 0.0
27 C12173 0.162082094570796 0.328980644344446 0.472277280944672 C 0.0 **** 0.0
28 C12174 0.155938807325568 0.335822837817182 0.457401016726932 C.Trigonal 0.0 **** 0.0
29 C12175 0.161167152710779 0.351553954768575 0.452091265348854 C.Trigonal 0.0 **** 0.0
30 C12176 0.172770813013983 0.36073626419743 0.461583861572425 C 0.0 **** 0.0
31 C12182 0.154694508052578 0.358725951241712 0.435567755065908 C 0.0 **** 0.0
32 C12183 0.142833168812349 0.348590722862808 0.425507010481318 C.Trigonal 0.0 **** 0.0
33 C12184 0.137691855137998 0.333178470844855 0.43080666016578 C.Trigonal 0.0 **** 0.0
34 C12185 0.143539070431343 0.325887886111722 0.446901246499839 C 0.0 **** 0.0
35 C12191 0.125313416638465 0.323015256414203 0.420188759417997 C 0.0 **** 0.0
36 C12192 0.129145119853231 0.325867661565677 0.401237857427173 C 0.0 **** 0.0
37 C12193 0.128906179771933 0.344641876070516 0.397256688968316 C.Trigonal 0.0 **** 0.0
38 C12194 0.13592545268995 0.355859613025135 0.409300642938283 C.Trigonal 0.0 **** 0.0
39 N12200 0.135434085018288 0.372639574616729 0.407091492745017 N 0.0 **** 0.0
40 C12201 0.129302943406867 0.378662266228737 0.392469584379717 C.Trigonal 0.0 **** 0.0
41 C12202 0.122835150602569 0.368042402522404 0.379557256788801 C.Trigonal 0.0 **** 0.0
42 C12203 0.122335697698739 0.350956951336965 0.382381581845166 C.Trigonal 0.0 **** 0.0
43 C12209 0.11515381541434 0.338767469228401 0.369253891244796 C 0.0 **** 0.0
44 C12210 0.108566071898397 0.347337573696139 0.353103039393532 C 0.0 **** 0.0
45 C12211 0.118014864530669 0.363652073808917 0.349022254162559 C 0.0 **** 0.0
46 C12212 0.115319345796391 0.375908742502385 0.363765579596748 C 0.0 **** 0.0
47 C12218 0.123083703366123 0.393568373093839 0.360692504603382 C 0.0 **** 0.0
48 C12219 0.12180315576614 0.403788932635766 0.376806876744542 C.Trigonal 0.0 **** 0.0
49 C12220 0.127026523335231 0.39628673336372 0.39201019468872 C.Trigonal 0.0 **** 0.0
50 C12225 0.126542623862289 0.405879273134251 0.40705762101171 C 0.0 **** 0.0
51 C12226 0.119163263944669 0.421551413448263 0.406978878890928 C 0.0 **** 0.0
52 C12227 0.113416604203123 0.428755754340255 0.392095775656621 C 0.0 **** 0.0
53 C12228 0.11520779359957 0.419988311479124 0.376885204464998 C 0.0 **** 0.0
54 C12234 0.11217124112187 0.240811498534212 0.524337740415842 C 0.0 **** 0.0
55 C12236 0.126776435283025 0.228379211056198 0.527090840303588 C 0.0 **** 0.0
56 C12238 0.103559780049036 0.246061103125537 0.559976843779548 C 0.0 **** 0.0
57 C12240 0.126634108485479 0.268243398380045 0.504972279530241 C 0.0 **** 0.0
58 C12242 0.111343175723011 0.278131067894245 0.575830788335291 C 0.0 **** 0.0
59 C12244 0.153935754171434 0.319471061335043 0.580069447835356 C 0.0 **** 0.0
60 C12246 0.184927927385307 0.332932578246113 0.566722155895517 C 0.0 **** 0.0
61 O12248 0.191311855461813 0.352758567050504 0.540543633594832 O 0.0 **** 0.0
62 C12250 0.236784924280271 0.380793454287913 0.513906733724017 C 0.0 **** 0.0
63 C12252 0.20463955789193 0.401066176204939 0.503236462143605 C 0.0 **** 0.0
64 O12254 0.179005014727509 0.375816624317547 0.455644769995896 O 0.0 **** 0.0
65 O12256 0.158671392355854 0.312522558225429 0.476669639669322 O 0.0 **** 0.0
66 O12258 0.138326603779115 0.31241466997129 0.452142968752287 O 0.0 **** 0.0
67 O12260 0.15962418852329 0.372560556931713 0.431151372290075 O 0.0 **** 0.0
68 C12262 0.109624683054578 0.428080208377286 0.360473060190333 C 0.0 **** 0.0
69 C12264 0.105487623485845 0.446104546901595 0.393240089393636 C 0.0 **** 0.0
70 H12266 0.144098364462789 0.29502947636709 0.512235976522009 H 0.0 **** 0.0
71 H12268 0.126652825940412 0.308318857460454 0.516749668927389 H 0.0 **** 0.0
72 H12270 0.118869613796117 0.312911108284765 0.556590462454336 H 0.0 **** 0.0
73 H12272 0.130992749540119 0.301235859071742 0.571098231128057 H 0.0 **** 0.0
74 H12274 0.15075673555308 0.318605413694415 0.501682802982217 H 0.0 **** 0.0
75 H12276 0.207523189616807 0.374197119084464 0.469464398490429 H 0.0 **** 0.0
76 H12278 0.19207294358305 0.388968646237821 0.476421123902744 H 0.0 **** 0.0
77 H12280 0.223129280875998 0.393448689669599 0.484847198025545 H 0.0 **** 0.0
78 H12282 0.227483097691927 0.363910763042782 0.494692258963469 H 0.0 **** 0.0
79 H12284 0.204817956104947 0.374470173241755 0.524090888212827 H 0.0 **** 0.0
80 H12286 0.215350199691519 0.354689762237018 0.521499656210957 H 0.0 **** 0.0
81 H12288 0.125827618193129 0.309362990446547 0.422894865181746 H 0.0 **** 0.0
82 H12290 0.112309189486733 0.327116168103721 0.423055324198083 H 0.0 **** 0.0
83 H12292 0.119917233012517 0.31873991078983 0.393697202445866 H 0.0 **** 0.0
84 H12294 0.141683288223411 0.320590603585483 0.398132477446045 H 0.0 **** 0.0
85 H12296 0.125227724446032 0.329842370172977 0.365755452127867 H 0.0 **** 0.0
86 H12298 0.104904578853292 0.331116532379849 0.374791912563016 H 0.0 **** 0.0
87 H12300 0.0951930504905038 0.350781876443862 0.3548249950201 H 0.0 **** 0.0
88 H12302 0.108887640540812 0.338380110032285 0.342429266885261 H 0.0 **** 0.0
89 H12304 0.113186730531709 0.369172585929105 0.33719024069333 H 0.0 **** 0.0
90 H12306 0.131595558590882 0.361193674590005 0.34707622023932 H 0.0 **** 0.0
91 H12308 0.101547500099386 0.377576903913052 0.365598420687637 H 0.0 **** 0.0
92 H12310 0.13640439020212 0.392173949978768 0.356888838128737 H 0.0 **** 0.0
93 H12312 0.116637756652765 0.399523432117959 0.349946960313347 H 0.0 **** 0.0
94 H12314 0.130494180023607 0.400237970932263 0.419094032372581 H 0.0 **** 0.0
95 H12316 0.117859036817234 0.428556007740025 0.418898883037485 H 0.0 **** 0.0
96 H12318 0.109927364073905 0.242231332172946 0.510724332081826 H 0.0 **** 0.0
97 H12320 0.100277958676859 0.235427142278395 0.529108662682065 H 0.0 **** 0.0
98 H12322 0.12957268648105 0.226667330244408 0.540601011695349 H 0.0 **** 0.0
99 H12324 0.138353828132919 0.232935276030219 0.520892030839096 H 0.0 **** 0.0
100 H12326 0.12387844977411 0.215839119709519 0.521843317359398 H 0.0 **** 0.0
101 H12328 0.109101524905332 0.24470010061722 0.572631327713096 H 0.0 **** 0.0
102 H12330 0.10435295286038 0.233465381572201 0.554284784864522 H 0.0 **** 0.0
103 H12332 0.0900906135695852 0.249125615060013 0.561734476280459 H 0.0 **** 0.0
104 H12334 0.136390546215398 0.258594362215907 0.502591152200715 H 0.0 **** 0.0
105 H12336 0.130549176220298 0.279763853576447 0.498370629397989 H 0.0 **** 0.0
106 H12338 0.114951856408033 0.264254733974907 0.498562733344637 H 0.0 **** 0.0
107 H12340 0.105246369034853 0.290544448680723 0.577172764437958 H 0.0 **** 0.0
108 H12342 0.122541527758845 0.278020877513859 0.584079729889138 H 0.0 **** 0.0
109 H12344 0.10234389378933 0.268896990442829 0.580831868619836 H 0.0 **** 0.0
110 H12346 0.161400660673368 0.328961585702595 0.586889464471878 H 0.0 **** 0.0
111 H12348 0.15687312547325 0.307024055892464 0.585592117018627 H 0.0 **** 0.0
112 H12350 0.140689448588042 0.322525390197181 0.583051689570424 H 0.0 **** 0.0
113 H12352 0.197650150814367 0.332517711773587 0.56113321418999 H 0.0 **** 0.0
114 H12354 0.185788297086526 0.324756603943482 0.577929679166532 H 0.0 **** 0.0
115 H12356 0.182452436659384 0.345933839927468 0.571045585891785 H 0.0 **** 0.0
116 H12358 0.19440415552123 0.362601015413979 0.534513311326934 H 0.0 **** 0.0
117 H12360 0.246015381519728 0.387206594203643 0.505719293099939 H 0.0 **** 0.0
118 H12362 0.243374434904686 0.370583103302681 0.520672205910289 H 0.0 **** 0.0
119 H12364 0.232121764674398 0.389904021426048 0.52331137536321 H 0.0 **** 0.0
120 H12366 0.199663415918375 0.411029133048453 0.494880999019119 H 0.0 **** 0.0
121 H12368 0.213545632733286 0.407077252490941 0.51204166943726 H 0.0 **** 0.0
122 H12370 0.193953314448565 0.395903481190811 0.510465266056936 H 0.0 **** 0.0
123 H12372 0.17377792998831 0.378324628113812 0.445042632072053 H 0.0 **** 0.0
124 H12374 0.15121380295471 0.307705436666183 0.468482770100717 H 0.0 **** 0.0
125 H12376 0.0983719546309039 0.421726250887549 0.355276952769155 H 0.0 **** 0.0
126 H12378 0.119713622639394 0.427536117002018 0.350892824427665 H 0.0 **** 0.0
127 H12380 0.106417986360999 0.44146448089662 0.361950577300535 H 0.0 **** 0.0
128 H12382 0.114040649534762 0.455876930600356 0.388281735192048 H 0.0 **** 0.0
129 H12384 0.102610429277817 0.449534614823361 0.406390365532297 H 0.0 **** 0.0
130 H12386 0.0935095079406045 0.446826410751993 0.386212725500876 H 0.0 **** 0.0
@<TRIPOS>BOND
1 3 2 Aromatic
2 4 3 Aromatic
3 5 4 Aromatic
4 6 5 Aromatic
5 1 2 Aromatic
6 1 6 Aromatic
7 8 7 1
8 9 8 Aromatic
9 10 9 1
10 4 7 1
11 3 10 1
12 12 11 Aromatic
13 13 12 Aromatic
14 14 13 Aromatic
15 9 11 Aromatic
16 8 14 Aromatic
17 16 15 Aromatic
18 17 16 Aromatic
19 18 17 Aromatic
20 14 15 Aromatic
21 13 18 Aromatic
22 20 19 1
23 21 20 1
24 22 21 Aromatic
25 17 19 1
26 16 22 Aromatic
27 24 23 1
28 25 24 Aromatic
29 26 25 1
30 20 23 1
31 19 26 1
32 28 27 Aromatic
33 29 28 Aromatic
34 30 29 Aromatic
35 22 27 Aromatic
36 21 30 Aromatic
37 32 31 1
38 33 32 Aromatic
39 34 33 1
40 29 31 1
41 28 34 1
42 36 35 1
43 37 36 1
44 38 37 Aromatic
45 33 35 1
46 32 38 Aromatic
47 40 39 Aromatic
48 41 40 Aromatic
49 42 41 Aromatic
50 38 39 Aromatic
51 37 42 Aromatic
52 44 43 1
53 45 44 1
54 46 45 1
55 42 43 1
56 41 46 1
57 48 47 1
58 49 48 Aromatic
59 40 49 Aromatic
60 46 47 1
61 51 50 Aromatic
62 52 51 Aromatic
63 53 52 Aromatic
64 49 50 Aromatic
65 48 53 Aromatic
66 6 54 1
67 54 55 1
68 1 56 1
69 5 57 1
70 2 58 1
71 11 59 1
72 12 60 1
73 18 61 1
74 25 62 1
75 24 63 1
76 30 64 1
77 27 65 1
78 34 66 Double
79 31 67 Double
80 53 68 1
81 52 69 1
82 7 70 1
83 7 71 1
84 10 72 1
85 10 73 1
86 15 74 1
87 23 75 1
88 23 76 1
89 24 77 1
90 25 78 1
91 26 79 1
92 26 80 1
93 35 81 1
94 35 82 1
95 36 83 1
96 36 84 1
97 43 85 1
98 43 86 1
99 44 87 1
100 44 88 1
101 45 89 1
102 45 90 1
103 46 91 1
104 47 92 1
105 47 93 1
106 50 94 1
107 51 95 1
108 54 96 1
109 54 97 1
110 55 98 1
111 55 99 1
112 55 100 1
113 56 101 1
114 56 102 1
115 56 103 1
116 57 104 1
117 57 105 1
118 57 106 1
119 58 107 1
120 58 108 1
121 58 109 1
122 59 110 1
123 59 111 1
124 59 112 1
125 60 113 1
126 60 114 1
127 60 115 1
128 61 116 1
129 62 117 1
130 62 118 1
131 62 119 1
132 63 120 1
133 63 121 1
134 63 122 1
135 64 123 1
136 65 124 1
137 68 125 1
138 68 126 1
139 68 127 1
140 69 128 1
141 69 129 1
142 69 130 1
@<TRIPOS>MOLECULE
Sketch 4
130 142
SMALL
USER_CHARGES


@<TRIPOS>ATOM
1 C12388 0.922554461241769 0.0635227499441861 0.603752896076962 C.Trigonal 0.0 **** 0.0
2 C12389 0.920768322032805 0.0464391335258288 0.607136787861917 C 0.0 **** 0.0
3 C12390 0.905068562131656 0.0398473621695264 0.611331735977999 C.Trigonal 0.0 **** 0.0
4 C12391 0.891224004939611 0.0502802360166683 0.612305393806308 C.Trigonal 0.0 **** 0.0
5 C12392 0.892924006702687 0.0673600987647543 0.608789976711879 C 0.0 **** 0.0
6 C12393 0.908532255431092 0.0739460838770857 0.604271311702316 C 0.0 **** 0.0
7 C12400 0.873967091604165 0.0432865851316578 0.617147263105364 C 0.0 **** 0.0
8 C12401 0.872283006509517 0.02438774632168 0.620138445077044 C.Trigonal 0.0 **** 0.0
9 C12402 0.885976193150443 0.0139157164556313 0.618476213732324 C.Trigonal 0.0 **** 0.0
10 C12403 0.903539953203519 0.0210596914216067 0.615057206664187 C 0.0 **** 0.0
11 C12409 0.884105118265765 -0.00358635138724559 0.619353544039861 C 0.0 **** 0.0
12 C12410 0.868554181779828 -0.0109319505236675 0.622426271511651 C 0.0 **** 0.0
13 C12411 0.855114609777524 -0.00041526693442922 0.627062748156879 C.Trigonal 0.0 **** 0.0
14 C12412 0.856669586468441 0.017321612744288 0.624729270876221 C.Trigonal 0.0 **** 0.0
15 C12418 0.841992318539722 0.0273762797807302 0.625967234270117 C 0.0 **** 0.0
16 C12419 0.82606429791171 0.0200895802848884 0.627391940663763 C.Trigonal 0.0 **** 0.0
17 C12420 0.825685173916137 0.00374445845692378 0.634486206342698 C.Trigonal 0.0 **** 0.0
18 C12421 0.839605441206552 -0.00690043954020462 0.633441465190294 C 0.0 **** 0.0
19 C12427 0.808608383665136 -0.00387038663636894 0.637514578917351 C.Trigonal 0.0 **** 0.0
20 C12428 0.796580319827253 -0.000638448736658009 0.625884576096998 C.Trigonal 0.0 **** 0.0
21 C12429 0.800954666371903 0.0114289164796477 0.611925393554073 C.Trigonal 0.0 **** 0.0
22 C12430 0.812265737882842 0.0245237423014004 0.615851525745753 C.Trigonal 0.0 **** 0.0
23 C12436 0.778666085528671 -0.00738192841020409 0.626787770416588 C 0.0 **** 0.0
24 C12437 0.774643224230068 -0.0136942499997113 0.644803448740352 C 0.0 **** 0.0
25 C12438 0.789285700729299 -0.0245915424063801 0.652026018402826 C 0.0 **** 0.0
26 C12439 0.805327357241554 -0.0136195017439099 0.653730686304315 C 0.0 **** 0.0
27 C12445 0.814199745503923 0.0372135550174227 0.60350543071498 C 0.0 **** 0.0
28 C12446 0.810300835270531 0.0334382977142853 0.586785341736893 C.Trigonal 0.0 **** 0.0
29 C12447 0.803938572918519 0.0177370617848351 0.582519107087226 C.Trigonal 0.0 **** 0.0
30 C12448 0.798348944901386 0.00681389576327766 0.595071701576678 C 0.0 **** 0.0
31 C12454 0.802843577679039 0.0123403771332284 0.564326607447076 C 0.0 **** 0.0
32 C12455 0.807568437165067 0.0248780124628276 0.55135169483295 C.Trigonal 0.0 **** 0.0
33 C12456 0.81248287350095 0.0407288585711697 0.555547683904332 C.Trigonal 0.0 **** 0.0
34 C12457 0.813759225396963 0.0463049006512736 0.573277639709231 C 0.0 **** 0.0
35 C12463 0.817365247156585 0.0535711207438971 0.542212420002545 C 0.0 **** 0.0
36 C12464 0.808250909150477 0.050483684035763 0.525138641675364 C 0.0 **** 0.0
37 C12465 0.807109723425432 0.0319051953721649 0.520285698010525 C.Trigonal 0.0 **** 0.0
38 C12466 0.806785589148961 0.0194877510598764 0.533151733352223 C.Trigonal 0.0 **** 0.0
39 N12472 0.805583927230741 0.00301145678059822 0.529536189686512 N 0.0 **** 0.0
40 C12473 0.803673636728838 -0.00164573312083686 0.513410709899342 C.Trigonal 0.0 **** 0.0
41 C12474 0.804041232127557 0.0100749933779387 0.499904083355452 C.Trigonal 0.0 **** 0.0
42 C12475 0.805783893900588 0.026928546174277 0.503574148352364 C.Trigonal 0.0 **** 0.0
43 C12481 0.805580050794572 0.0402333786091192 0.489566131689084 C 0.0 **** 0.0
44 C12482 0.80788772063243 0.0327397316520166 0.471824494708314 C 0.0 **** 0.0
45 C12483 0.79729616008953 0.0167762091582565 0.469786955660257 C 0.0 **** 0.0
46 C12484 0.803663093791776 0.00325871109067105 0.482010200719843 C 0.0 **** 0.0
47 C12490 0.792867917318268 -0.0129913389058827 0.481110706669179 C 0.0 **** 0.0
48 C12491 0.798399102735429 -0.0253013431420856 0.494683895150426 C.Trigonal 0.0 **** 0.0
49 C12492 0.802480577644618 -0.0191959392926361 0.510825337043096 C.Trigonal 0.0 **** 0.0
50 C12497 0.806349414837699 -0.03079664500439 0.523842913806108 C 0.0 **** 0.0
51 C12498 0.806985010307817 -0.0477446040933294 0.520317962925269 C 0.0 **** 0.0
52 C12499 0.803553962537796 -0.0537722793294193 0.504233875946501 C 0.0 **** 0.0
53 C12500 0.799065834371501 -0.0424803770432827 0.491447719425021 C 0.0 **** 0.0
54 C12506 0.910156467580484 0.0925868610058586 0.599943255425888 C 0.0 **** 0.0
55 C12508 0.915146960556655 0.102930035094271 0.615559211380851 C 0.0 **** 0.0
56 C12510 0.939927202534784 0.0704075719507014 0.59940702596266 C 0.0 **** 0.0
57 C12512 0.877712852270596 0.0789811425737702 0.609781193251364 C 0.0 **** 0.0
58 C12514 0.936057895062573 0.0348757417920806 0.60662081462724 C 0.0 **** 0.0
59 C12516 0.899440817702526 -0.0147232598061173 0.616255153937643 C 0.0 **** 0.0
60 C12518 0.86695473573941 -0.0299682819613295 0.621216756294511 C 0.0 **** 0.0
61 O12520 0.838263592131905 -0.0236686121560387 0.637542080507705 O 0.0 **** 0.0
62 C12522 0.793057843149208 -0.0404345492968256 0.641279348680619 C 0.0 **** 0.0
63 C12524 0.757792364397335 -0.0234274785952634 0.644770914946815 C 0.0 **** 0.0
64 O12526 0.790663846030081 -0.00841915824055785 0.591678802702474 O 0.0 **** 0.0
65 O12528 0.821924107893073 0.0521881646700136 0.607950857625119 O 0.0 **** 0.0
66 O12530 0.817400278653766 0.0607268623798555 0.577319862870846 O 0.0 **** 0.0
67 O12532 0.798532342223693 -0.00215912633280568 0.56141801086192 O 0.0 **** 0.0
68 C12534 0.794934611723666 -0.0490298370915197 0.473933270836185 C 0.0 **** 0.0
69 C12536 0.804679107489905 -0.0726286133664484 0.501288320806522 C 0.0 **** 0.0
70 H12538 0.869614963202904 0.049816126830823 0.628669383702983 H 0.0 **** 0.0
71 H12540 0.865060489768198 0.046753049613673 0.606962029687421 H 0.0 **** 0.0
72 H12542 0.908879350790368 0.0141161608918338 0.604246782798224 H 0.0 **** 0.0
73 H12544 0.911650577401143 0.0181916075277866 0.626069390821544 H 0.0 **** 0.0
74 H12546 0.843248047664806 0.040555964416002 0.621971824070485 H 0.0 **** 0.0
75 H12548 0.76943132110456 0.00245406359196485 0.62324806794818 H 0.0 **** 0.0
76 H12550 0.777049273075335 -0.0178702378800459 0.617776064531691 H 0.0 **** 0.0
77 H12552 0.773105879454746 -0.00257962021604383 0.653062171549368 H 0.0 **** 0.0
78 H12554 0.785654570379393 -0.0288342285841318 0.664755874700453 H 0.0 **** 0.0
79 H12556 0.815963040752573 -0.0216486262711666 0.657720054944025 H 0.0 **** 0.0
80 H12558 0.803402308765075 -0.0044580106622989 0.664058368096804 H 0.0 **** 0.0
81 H12560 0.814626270267323 0.0666090088461503 0.546374197899599 H 0.0 **** 0.0
82 H12562 0.831141072698338 0.0529180320353698 0.540180133181104 H 0.0 **** 0.0
83 H12564 0.815041306646237 0.0578574706697366 0.515533872436651 H 0.0 **** 0.0
84 H12566 0.795483670924672 0.0559003307397332 0.52575690636234 H 0.0 **** 0.0
85 H12568 0.793380261752733 0.0470076179647694 0.490031579423767 H 0.0 **** 0.0
86 H12570 0.815500942852126 0.0497854209623285 0.49153957250992 H 0.0 **** 0.0
87 H12572 0.821317235983538 0.0295280056180593 0.469844899179356 H 0.0 **** 0.0
88 H12574 0.804653912489642 0.0422681751722963 0.462180640338803 H 0.0 **** 0.0
89 H12576 0.79784276277069 0.0119505764382405 0.456737237331355 H 0.0 **** 0.0
90 H12578 0.783927519829085 0.0195711966259837 0.472522280398093 H 0.0 **** 0.0
91 H12580 0.816774439388032 -5.41225299538539e-05 0.478484798461692 H 0.0 **** 0.0
92 H12582 0.779395972664054 -0.00977796031105407 0.482864438027372 H 0.0 **** 0.0
93 H12584 0.793994888963826 -0.0182991002953914 0.468325882544339 H 0.0 **** 0.0
94 H12586 0.809459437462264 -0.0262530743549996 0.536606245481419 H 0.0 **** 0.0
95 H12588 0.810321581332451 -0.0566896281873383 0.530411887277657 H 0.0 **** 0.0
96 H12590 0.898310459120177 0.0975873381467394 0.594651717033461 H 0.0 **** 0.0
97 H12592 0.919501916038767 0.0945592052670855 0.589816084696173 H 0.0 **** 0.0
98 H12594 0.927472437550553 0.0989113167080452 0.620546777995838 H 0.0 **** 0.0
99 H12596 0.905798817919284 0.101538966192553 0.625756124234434 H 0.0 **** 0.0
100 H12598 0.916111231671701 0.116480452584885 0.612543897649238 H 0.0 **** 0.0
101 H12600 0.949754950492362 0.0650519807914847 0.607662956065168 H 0.0 **** 0.0
102 H12602 0.941021070590855 0.0841512912001417 0.600812358755555 H 0.0 **** 0.0
103 H12604 0.943413128327106 0.0673959375609516 0.586292349705847 H 0.0 **** 0.0
104 H12606 0.880446359173889 0.0901295191670921 0.617616411548824 H 0.0 **** 0.0
105 H12608 0.866457647081716 0.0731501456677249 0.615365150807192 H 0.0 **** 0.0
106 H12610 0.874015621853859 0.0833858663296328 0.597110518743635 H 0.0 **** 0.0
107 H12612 0.933152565131599 0.0222966979482035 0.601530875148875 H 0.0 **** 0.0
108 H12614 0.94134947602481 0.033168355951266 0.619394461746063 H 0.0 **** 0.0
109 H12616 0.946149255821286 0.039817128487195 0.598517860613135 H 0.0 **** 0.0
110 H12618 0.898555945009216 -0.0267214357976347 0.62314881557171 H 0.0 **** 0.0
111 H12620 0.911293125987862 -0.0089275168340611 0.620568461602423 H 0.0 **** 0.0
112 H12622 0.900834801375264 -0.0177314750185327 0.602725179658882 H 0.0 **** 0.0
113 H12624 0.854967091083367 -0.033709488046173 0.615231127247158 H 0.0 **** 0.0
114 H12626 0.867520856730163 -0.0358560647376844 0.633793780584373 H 0.0 **** 0.0
115 H12628 0.876707228456882 -0.0358432107277454 0.613295774844116 H 0.0 **** 0.0
116 H12630 0.826623584286521 -0.0263174231010294 0.638663217701036 H 0.0 **** 0.0
117 H12632 0.782013138182853 -0.0488696528958266 0.640926898735363 H 0.0 **** 0.0
118 H12634 0.803629971449421 -0.0476052438935421 0.646772979944003 H 0.0 **** 0.0
119 H12636 0.796438193628642 -0.0370536442872272 0.628227591664718 H 0.0 **** 0.0
120 H12638 0.74743917558301 -0.0151311499550217 0.640584372610853 H 0.0 **** 0.0
121 H12640 0.754797686918384 -0.0280332542290538 0.657536962025127 H 0.0 **** 0.0
122 H12642 0.758323884879555 -0.0343162277724145 0.636142735142482 H 0.0 **** 0.0
123 H12644 0.791338498615577 -0.0104408165729323 0.579775545724278 H 0.0 **** 0.0
124 H12646 0.823277744289062 0.0587877458647688 0.597917406544946 H 0.0 **** 0.0
125 H12648 0.794269330772736 -0.0628591471311108 0.473277393724177 H 0.0 **** 0.0
126 H12650 0.804598289948782 -0.0450000111164578 0.464734580121387 H 0.0 **** 0.0
127 H12652 0.782594582556936 -0.0443112396397033 0.469549303033637 H 0.0 **** 0.0
128 H12654 0.792249966302624 -0.0780192523756715 0.498069261806732 H 0.0 **** 0.0
129 H12656 0.809230155063743 -0.0793213492554739 0.51257075111143 H 0.0 **** 0.0
130 H12658 0.813506554233781 -0.0756631310806665 0.490958881236032 H 0.0 **** 0.0
@<TRIPOS>BOND
1 3 2 Aromatic
2 4 3 Aromatic
3 5 4 Aromatic
4 6 5 Aromatic
5 1 2 Aromatic
6 1 6 Aromatic
7 8 7 1
8 9 8 Aromatic
9 10 9 1
10 4 7 1
11 3 10 1
12 12 11 Aromatic
13 13 12 Aromatic
14 14 13 Aromatic
15 9 11 Aromatic
16 8 14 Aromatic
17 16 15 Aromatic
18 17 16 Aromatic
19 18 17 Aromatic
20 14 15 Aromatic
21 13 18 Aromatic
22 20 19 1
23 21 20 1
24 22 21 Aromatic
25 17 19 1
26 16 22 Aromatic
27 24 23 1
28 25 24 Aromatic
29 26 25 1
30 20 23 1
31 19 26 1
32 28 27 Aromatic
33 29 28 Aromatic
34 30 29 Aromatic
35 22 27 Aromatic
36 21 30 Aromatic
37 32 31 1
38 33 32 Aromatic
39 34 33 1
40 29 31 1
41 28 34 1
42 36 35 1
43 37 36 1
44 38 37 Aromatic
45 33 35 1
46 32 38 Aromatic
47 40 39 Aromatic
48 41 40 Aromatic
49 42 41 Aromatic
50 38 39 Aromatic
51 37 42 Aromatic
52 44 43 1
53 45 44 1
54 46 45 1
55 42 43 1
56 41 46 1
57 48 47 1
58 49 48 Aromatic
59 40 49 Aromatic
60 46 47 1
61 51 50 Aromatic
62 52 51 Aromatic
63 53 52 Aromatic
64 49 50 Aromatic
65 48 53 Aromatic
66 6 54 1
67 54 55 1
68 1 56 1
69 5 57 1
70 2 58 1
71 11 59 1
72 12 60 1
73 18 61 1
74 25 62 1
75 24 63 1
76 30 64 1
77 27 65 1
78 34 66 Double
79 31 67 Double
80 53 68 1
81 52 69 1
82 7 70 1
83 7 71 1
84 10 72 1
85 10 73 1
86 15 74 1
87 23 75 1
88 23 76 1
89 24 77 1
90 25 78 1
91 26 79 1
92 26 80 1
93 35 81 1
94 35 82 1
95 36 83 1
96 36 84 1
97 43 85 1
98 43 86 1
99 44 87 1
100 44 88 1
101 45 89 1
102 45 90 1
103 46 91 1
104 47 92 1
105 47 93 1
106 50 94 1
107 51 95 1
108 54 96 1
109 54 97 1
110 55 98 1
111 55 99 1
112 55 100 1
113 56 101 1
114 56 102 1
115 56 103 1
116 57 104 1
117 57 105 1
118 57 106 1
119 58 107 1
120 58 108 1
121 58 109 1
122 59 110 1
123 59 111 1
124 59 112 1
125 60 113 1
126 60 114 1
127 60 115 1
128 61 116 1
129 62 117 1
130 62 118 1
131 62 119 1
132 63 120 1
133 63 121 1
134 63 122 1
135 64 123 1
136 65 124 1
137 68 125 1
138 68 126 1
139 68 127 1
140 69 128 1
141 69 129 1
142 69 130 1
@<TRIPOS>MOLECULE
Sketch 4
130 142
SMALL
USER_CHARGES


@<TRIPOS>ATOM
1 C12660 0.986294130672449 0.749082900575425 0.874196864004061 C.Trigonal 0.0 **** 0.0
2 C12661 0.998002614045397 0.742019646341137 0.88515129076722 C 0.0 **** 0.0
3 C12662 0.99283318669234 0.736746104927984 0.900994392508564 C.Trigonal 0.0 **** 0.0
4 C12663 0.976079747220758 0.73799854100397 0.905599967198806 C.Trigonal 0.0 **** 0.0
5 C12664 0.964153150149861 0.744079109695739 0.894348301457867 C 0.0 **** 0.0
6 C12665 0.969298985400152 0.749517133122698 0.878524812252483 C 0.0 **** 0.0
7 C12672 0.971561630880998 0.732014692271397 0.923267050849814 C 0.0 **** 0.0
8 C12673 0.984411060494178 0.738136075815803 0.936170524825513 C.Trigonal 0.0 **** 0.0
9 C12674 1.00110799617295 0.73623371029228 0.931751746451901 C.Trigonal 0.0 **** 0.0
10 C12675 1.00501676782778 0.729555500053748 0.914062606101874 C 0.0 **** 0.0
11 C12681 1.01396290986595 0.740432651847208 0.942926516271103 C 0.0 **** 0.0
12 C12682 1.01056588572161 0.748288001197609 0.958155045473787 C 0.0 **** 0.0
13 C12683 0.993658906437508 0.750018528380179 0.9632279314314 C.Trigonal 0.0 **** 0.0
14 C12684 0.980545377162658 0.745444655434474 0.951778636912802 C.Trigonal 0.0 **** 0.0
15 C12690 0.963970193989278 0.749443955845741 0.956200228729503 C 0.0 **** 0.0
16 C12691 0.960009947997279 0.758442662525735 0.970882882089366 C.Trigonal 0.0 **** 0.0
17 C12692 0.972431484598393 0.759248183123873 0.98376734398923 C.Trigonal 0.0 **** 0.0
18 C12693 0.989206383548444 0.755808422781342 0.97976466988222 C 0.0 **** 0.0
19 C12699 0.966514264255028 0.764678914524078 1.00131442777642 C.Trigonal 0.0 **** 0.0
20 C12700 0.949891385958807 0.768449235722534 1.00396636976948 C.Trigonal 0.0 **** 0.0
21 C12701 0.937311210477584 0.768364598031935 0.989442482490107 C.Trigonal 0.0 **** 0.0
22 C12702 0.94380804883634 0.766157200845671 0.973057289558269 C.Trigonal 0.0 **** 0.0
23 C12708 0.943164170638043 0.774133025986709 1.02106810216738 C 0.0 **** 0.0
24 C12709 0.957229914895665 0.779012172532324 1.0334636727585 C 0.0 **** 0.0
25 C12710 0.971256022059108 0.765503643067954 1.03344591604932 C 0.0 **** 0.0
26 C12711 0.979401433460329 0.764891975718378 1.01578554128168 C 0.0 **** 0.0
27 C12717 0.933216626910048 0.76964565590471 0.959014181475459 C 0.0 **** 0.0
28 C12718 0.91595456862814 0.770749996498102 0.961465436861047 C.Trigonal 0.0 **** 0.0
29 C12719 0.909262650541463 0.769551184539566 0.9775543400312 C.Trigonal 0.0 **** 0.0
30 C12720 0.919760165015435 0.768733828198661 0.99167769115842 C 0.0 **** 0.0
31 C12726 0.890365241060355 0.76937287493789 0.980051586286089 C 0.0 **** 0.0
32 C12727 0.879609731560672 0.770650052117521 0.964902345263831 C.Trigonal 0.0 **** 0.0
33 C12728 0.88618661953418 0.772719003453293 0.949251569582278 C.Trigonal 0.0 **** 0.0
34 C12729 0.904557111134268 0.773025602430058 0.94637542422174 C 0.0 **** 0.0
35 C12735 0.874759464375528 0.774623790605007 0.933908783782429 C 0.0 **** 0.0
36 C12736 0.857749129214397 0.782997109220815 0.938952055010663 C 0.0 **** 0.0
37 C12737 0.849865375532897 0.774161641801103 0.954111527383717 C.Trigonal 0.0 **** 0.0
38 C12738 0.860860540372704 0.768971263406915 0.967221681719457 C.Trigonal 0.0 **** 0.0
39 N12744 0.855097864027861 0.761785519517988 0.981352954352728 N 0.0 **** 0.0
40 C12745 0.838415668883893 0.759741778107291 0.983173994329236 C.Trigonal 0.0 **** 0.0
41 C12746 0.826735562067612 0.763856712129842 0.970295603729723 C.Trigonal 0.0 **** 0.0
42 C12747 0.83271116700332 0.771224548185259 0.955740679425485 C.Trigonal 0.0 **** 0.0
43 C12753 0.820661589400619 0.776451652115998 0.941624014086004 C 0.0 **** 0.0
44 C12754 0.803119291720773 0.768335230545455 0.94331156753839 C 0.0 **** 0.0
45 C12755 0.796814199533647 0.769472024903442 0.961504605351265 C 0.0 **** 0.0
46 C12756 0.808372896354156 0.758990162355399 0.972981499205354 C 0.0 **** 0.0
47 C12762 0.803468560515057 0.760645246737948 0.991903694517208 C 0.0 **** 0.0
48 C12763 0.816563847834897 0.752705679882406 1.0035196756002 C.Trigonal 0.0 **** 0.0
49 C12764 0.833658072340968 0.752691165681017 0.998766026376821 C.Trigonal 0.0 **** 0.0
50 C12769 0.846016705622059 0.746365060738716 1.01002907043443 C 0.0 **** 0.0
51 C12770 0.841303982715022 0.740804543818593 1.02569893891057 C 0.0 **** 0.0
52 C12771 0.824538102439959 0.741150923713326 1.03062842222975 C 0.0 **** 0.0
53 C12772 0.812145286283349 0.747097544943561 1.01952724303691 C 0.0 **** 0.0
54 C12778 0.95641823090692 0.755979415745324 0.865832009926847 C 0.0 **** 0.0
55 C12780 0.952158979504232 0.77453505540208 0.869365317671899 C 0.0 **** 0.0
56 C12782 0.992086403469159 0.756097228120645 0.857288321153176 C 0.0 **** 0.0
57 C12784 0.945819279401347 0.744752480442566 0.89990445310085 C 0.0 **** 0.0
58 C12786 1.01637318152759 0.7401763197181 0.880038574291994 C 0.0 **** 0.0
59 C12788 1.03201469195892 0.736476215057013 0.937951418168901 C 0.0 **** 0.0
60 C12790 1.02557323229827 0.754325483104194 0.968475611238988 C 0.0 **** 0.0
61 O12792 1.00192646612358 0.757995942298581 0.991309796842045 O 0.0 **** 0.0
62 C12794 0.964916431912355 0.747758111219604 1.03841269043797 C 0.0 **** 0.0
63 C12796 0.949485859246865 0.781472319995394 1.05113668437145 C 0.0 **** 0.0
64 O12798 0.913187989960662 0.768209320647892 1.00778853135264 O 0.0 **** 0.0
65 O12800 0.940431081260083 0.771137403000921 0.943283093464844 O 0.0 **** 0.0
66 O12802 0.910698958058347 0.774830383194 0.932388644979482 O 0.0 **** 0.0
67 O12804 0.884886067312466 0.768075753244726 0.99438634398586 O 0.0 **** 0.0
68 C12806 0.79405706899066 0.747936883154655 1.02578012803855 C 0.0 **** 0.0
69 C12808 0.820478280581491 0.735446568066048 1.04837958816814 C 0.0 **** 0.0
70 H12810 0.958696287259637 0.735685501014957 0.926532224764651 H 0.0 **** 0.0
71 H12812 0.971382399246764 0.718017215894845 0.923405148048786 H 0.0 **** 0.0
72 H12814 1.00450533504929 0.715587172034106 0.913957314908149 H 0.0 **** 0.0
73 H12816 1.01791909954716 0.733049666160208 0.91054371849589 H 0.0 **** 0.0
74 H12818 0.953737425378635 0.746568557887502 0.947368376646181 H 0.0 **** 0.0
75 H12820 0.934863654877392 0.785230715266811 1.01964347034239 H 0.0 **** 0.0
76 H12822 0.935630200039886 0.763869088754629 1.026718588942 H 0.0 **** 0.0
77 H12824 0.962797615965631 0.791126820071353 1.02941029319069 H 0.0 **** 0.0
78 H12826 0.981035700010718 0.769272074417762 1.04262317716118 H 0.0 **** 0.0
79 H12828 0.987434073091531 0.753525507668141 1.01556172809596 H 0.0 **** 0.0
80 H12830 0.987609469423833 0.776068230198867 1.01444601793496 H 0.0 **** 0.0
81 H12832 0.880720161675518 0.78235533104702 0.923918587378509 H 0.0 **** 0.0
82 H12834 0.872369017296905 0.76209802044709 0.92828515345162 H 0.0 **** 0.0
83 H12836 0.849449642908187 0.78306386511922 0.927828565063726 H 0.0 **** 0.0
84 H12838 0.86003960606955 0.796423994496104 0.942076073751836 H 0.0 **** 0.0
85 H12840 0.819258994093451 0.790343117747996 0.941775492119461 H 0.0 **** 0.0
86 H12842 0.825833040473757 0.773078543704485 0.929150774154855 H 0.0 **** 0.0
87 H12844 0.803812906368261 0.754904398930035 0.939597884774754 H 0.0 **** 0.0
88 H12846 0.794194266151949 0.774390616064728 0.934482508754786 H 0.0 **** 0.0
89 H12848 0.783681066026576 0.7649043100408 0.962519441787107 H 0.0 **** 0.0
90 H12850 0.796728115371401 0.782803808514365 0.965622739768207 H 0.0 **** 0.0
91 H12852 0.806894630413533 0.745538947231253 0.969399509015644 H 0.0 **** 0.0
92 H12854 0.802148734924964 0.774173306896482 0.99509570150197 H 0.0 **** 0.0
93 H12856 0.790917607013038 0.754919484030222 0.993437439002609 H 0.0 **** 0.0
94 H12858 0.859454065228028 0.746296270045033 1.00650043735412 H 0.0 **** 0.0
95 H12860 0.850944524614261 0.73618278244796 1.03456152046392 H 0.0 **** 0.0
96 H12862 0.944850408008198 0.748233874520686 0.866049391117773 H 0.0 **** 0.0
97 H12864 0.961032730968993 0.754651778186274 0.852788143091151 H 0.0 **** 0.0
98 H12866 0.963514628477785 0.782526977695067 0.868492334205198 H 0.0 **** 0.0
99 H12868 0.946858082910189 0.776096224315318 0.882123646513764 H 0.0 **** 0.0
100 H12870 0.942818558205814 0.779472106649332 0.860320436956129 H 0.0 **** 0.0
101 H12872 1.00515479520377 0.760776680880226 0.857705972749851 H 0.0 **** 0.0
102 H12874 0.98452216596444 0.767042630211408 0.853288053408822 H 0.0 **** 0.0
103 H12876 0.991281012591183 0.746494601485278 0.847238410577729 H 0.0 **** 0.0
104 H12878 0.944249253499376 0.753449374422907 0.910675381796417 H 0.0 **** 0.0
105 H12880 0.941354745610586 0.732170804083643 0.903869526679349 H 0.0 **** 0.0
106 H12882 0.93702499018455 0.749100104028599 0.890140957446109 H 0.0 **** 0.0
107 H12884 1.02174248429541 0.728255673386808 0.884727164410021 H 0.0 **** 0.0
108 H12886 1.02410489444433 0.750647036495926 0.885004929867227 H 0.0 **** 0.0
109 H12888 1.01813685335584 0.73975510228898 0.866284901206766 H 0.0 **** 0.0
110 H12890 1.04006803723522 0.733678254919573 0.948925531401264 H 0.0 **** 0.0
111 H12892 1.0377221660094 0.747047521127584 0.930898994783971 H 0.0 **** 0.0
112 H12894 1.03281147858142 0.725042189839092 0.930118541015126 H 0.0 **** 0.0
113 H12896 1.02333108549701 0.766880144203733 0.974016864109864 H 0.0 **** 0.0
114 H12898 1.0370605677831 0.756097660863427 0.960905363120089 H 0.0 **** 0.0
115 H12900 1.02862844289635 0.745427134432804 0.978727735818921 H 0.0 **** 0.0
116 H12902 0.998212701262454 0.765930158171869 0.999459848259663 H 0.0 **** 0.0
117 H12904 0.958982513694167 0.74792172098537 1.05097586853432 H 0.0 **** 0.0
118 H12906 0.975544372895963 0.738792170327019 1.0388632694862 H 0.0 **** 0.0
119 H12908 0.955712982776196 0.74302458582044 1.0291632555278 H 0.0 **** 0.0
120 H12910 0.940695468805604 0.792245503786798 1.05111648094674 H 0.0 **** 0.0
121 H12912 0.95939585760438 0.783957941087878 1.0604932192381 H 0.0 **** 0.0
122 H12914 0.942436299224407 0.770174381614199 1.0551395100352 H 0.0 **** 0.0
123 H12916 0.901176094117503 0.76728498359678 1.0069622653336 H 0.0 **** 0.0
124 H12918 0.931767891666062 0.773481278814517 0.935185354848199 H 0.0 **** 0.0
125 H12920 0.791338290799892 0.760393737702469 1.03139839729002 H 0.0 **** 0.0
126 H12922 0.791429215752818 0.73847506624474 1.03558447471763 H 0.0 **** 0.0
127 H12924 0.784681189848017 0.745534576431916 1.01585820360741 H 0.0 **** 0.0
128 H12926 0.815868585931628 0.746162145243243 1.05594368512287 H 0.0 **** 0.0
129 H12928 0.831626713584714 0.73035584296258 1.05490440807523 H 0.0 **** 0.0
130 H12930 0.810776184334447 0.725510180347293 1.04856096895381 H 0.0 **** 0.0
@<TRIPOS>BOND
1 3 2 Aromatic
2 4 3 Aromatic
3 5 4 Aromatic
4 6 5 Aromatic
5 1 2 Aromatic
6 1 6 Aromatic
7 8 7 1
8 9 8 Aromatic
9 10 9 1
10 4 7 1
11 3 10 1
12 12 11 Aromatic
13 13 12 Aromatic
14 14 13 Aromatic
15 9 11 Aromatic
16 8 14 Aromatic
17 16 15 Aromatic
18 17 16 Aromatic
19 18 17 Aromatic
20 14 15 Aromatic
21 13 18 Aromatic
22 20 19 1
23 21 20 1
24 22 21 Aromatic
25 17 19 1
26 16 22 Aromatic
27 24 23 1
28 25 24 Aromatic
29 26 25 1
30 20 23 1
31 19 26 1
32 28 27 Aromatic
33 29 28 Aromatic
34 30 29 Aromatic
35 22 27 Aromatic
36 21 30 Aromatic
37 32 31 1
38 33 32 Aromatic
39 34 33 1
40 29 31 1
41 28 34 1
42 36 35 1
43 37 36 1
44 38 37 Aromatic
45 33 35 1
46 32 38 Aromatic
47 40 39 Aromatic
48 41 40 Aromatic
49 42 41 Aromatic
50 38 39 Aromatic
51 37 42 Aromatic
52 44 43 1
53 45 44 1
54 46 45 1
55 42 43 1
56 41 46 1
57 48 47 1
58 49 48 Aromatic
59 40 49 Aromatic
60 46 47 1
61 51 50 Aromatic
62 52 51 Aromatic
63 53 52 Aromatic
64 49 50 Aromatic
65 48 53 Aromatic
66 6 54 1
67 54 55 1
68 1 56 1
69 5 57 1
70 2 58 1
71 11 59 1
72 12 60 1
73 18 61 1
74 25 62 1
75 24 63 1
76 30 64 1
77 27 65 1
78 34 66 Double
79 31 67 Double
80 53 68 1
81 52 69 1
82 7 70 1
83 7 71 1
84 10 72 1
85 10 73 1
86 15 74 1
87 23 75 1
88 23 76 1
89 24 77 1
90 25 78 1
91 26 79 1
92 26 80 1
93 35 81 1
94 35 82 1
95 36 83 1
96 36 84 1
97 43 85 1
98 43 86 1
99 44 87 1
100 44 88 1
101 45 89 1
102 45 90 1
103 46 91 1
104 47 92 1
105 47 93 1
106 50 94 1
107 51 95 1
108 54 96 1
109 54 97 1
110 55 98 1
111 55 99 1
112 55 100 1
113 56 101 1
114 56 102 1
115 56 103 1
116 57 104 1
117 57 105 1
118 57 106 1
119 58 107 1
120 58 108 1
121 58 109 1
122 59 110 1
123 59 111 1
124 59 112 1
125 60 113 1
126 60 114 1
127 60 115 1
128 61 116 1
129 62 117 1
130 62 118 1
131 62 119 1
132 63 120 1
133 63 121 1
134 63 122 1
135 64 123 1
136 65 124 1
137 68 125 1
138 68 126 1
139 68 127 1
140 69 128 1
141 69 129 1
142 69 130 1
@<TRIPOS>MOLECULE
Sketch 4
130 142
SMALL
USER_CHARGES


@<TRIPOS>ATOM
1 C12932 0.424024734403239 -0.0102714040180796 0.523302593030429 C.Trigonal 0.0 **** 0.0
2 C12933 0.422166437440596 -0.0243410643497618 0.513066143391589 C 0.0 **** 0.0
3 C12934 0.419308311204758 -0.0224088892594808 0.495889810026 C.Trigonal 0.0 **** 0.0
4 C12935 0.417826438275864 -0.00653209383135412 0.488989821186311 C.Trigonal 0.0 **** 0.0
5 C12936 0.419799641444079 0.00757927474548744 0.499220169528496 C 0.0 **** 0.0
6 C12937 0.423344868544957 0.00569394670908617 0.516283475490784 C 0.0 **** 0.0
7 C12944 0.414064688351496 -0.00430468009040952 0.470201579597743 C 0.0 **** 0.0
8 C12945 0.411773969056613 -0.0200839400214067 0.459375062244212 C.Trigonal 0.0 **** 0.0
9 C12946 0.413803387047659 -0.0358301112099804 0.466297405737782 C.Trigonal 0.0 **** 0.0
10 C12947 0.417620442728858 -0.0380654846148411 0.484995014639693 C 0.0 **** 0.0
11 C12953 0.412747112202831 -0.0502803334120145 0.456340127107085 C 0.0 **** 0.0
12 C12954 0.408870345077257 -0.0494242295648827 0.439333441913923 C 0.0 **** 0.0
13 C12955 0.404454535111673 -0.0337024013682464 0.432488179455511 C.Trigonal 0.0 **** 0.0
14 C12956 0.406945179026163 -0.0188957491572211 0.442319615654729 C.Trigonal 0.0 **** 0.0
15 C12962 0.403570711462728 -0.00324274664606979 0.434931549908409 C 0.0 **** 0.0
16 C12963 0.395003778428038 -0.00155598605512558 0.419476948678373 C.Trigonal 0.0 **** 0.0
17 C12964 0.392136284623198 -0.0165148932998617 0.410017134409894 C.Trigonal 0.0 **** 0.0
18 C12965 0.397099276295489 -0.0321613425386396 0.416085987007206 C 0.0 **** 0.0
19 C12971 0.384494932207251 -0.0145749205137946 0.392589295897531 C.Trigonal 0.0 **** 0.0
20 C12972 0.384835049155923 0.000672567424076339 0.384656385380602 C.Trigonal 0.0 **** 0.0
21 C12973 0.38877192336903 0.0164892265630581 0.394878630213671 C.Trigonal 0.0 **** 0.0
22 C12974 0.390459445050458 0.0145543657067273 0.412517493761101 C.Trigonal 0.0 **** 0.0
23 C12980 0.377398287844552 0.00331544210729025 0.367019545577499 C 0.0 **** 0.0
24 C12981 0.367072864653937 -0.0117150662103362 0.359981597301769 C 0.0 **** 0.0
25 C12982 0.360253512581273 -0.0229514624743847 0.374349813775283 C 0.0 **** 0.0
26 C12983 0.374905138666735 -0.0295336807406969 0.385192576574026 C 0.0 **** 0.0
27 C12989 0.389133407177319 0.0291940157864138 0.422762622940773 C 0.0 **** 0.0
28 C12990 0.389939738474858 0.0449998380146625 0.415333379680311 C.Trigonal 0.0 **** 0.0
29 C12991 0.391449924933185 0.0467064041763096 0.39801350480835 C.Trigonal 0.0 **** 0.0
30 C12992 0.390721171853819 0.0325163701267702 0.387616768222446 C 0.0 **** 0.0
31 C12998 0.393498827717302 0.0640895861286792 0.390181048765555 C 0.0 **** 0.0
32 C12999 0.393963820506817 0.0788853252400401 0.401620119133889 C.Trigonal 0.0 **** 0.0
33 C13000 0.391840093706782 0.0770333888409187 0.418522165906373 C.Trigonal 0.0 **** 0.0
34 C13001 0.389471286342413 0.0604034121021384 0.426456448735599 C 0.0 **** 0.0
35 C13007 0.392223281067865 0.0919988135554832 0.430519981287965 C 0.0 **** 0.0
36 C13008 0.386467055289622 0.108308592048607 0.421519335435234 C 0.0 **** 0.0
37 C13009 0.395542774630401 0.110588186986123 0.404775306051658 C.Trigonal 0.0 **** 0.0
38 C13010 0.397696972757664 0.0961690675070526 0.394347527753183 C.Trigonal 0.0 **** 0.0
39 N13016 0.404129574101751 0.0975637570534304 0.378739687987128 N 0.0 **** 0.0
40 C13017 0.409220056361122 0.112828263413404 0.373370160748019 C.Trigonal 0.0 **** 0.0
41 C13018 0.408894206333471 0.127375951091868 0.383785752227398 C.Trigonal 0.0 **** 0.0
42 C13019 0.401617653193235 0.126078707277178 0.399473046262491 C.Trigonal 0.0 **** 0.0
43 C13025 0.400135321495769 0.141427523621053 0.411041865567932 C 0.0 **** 0.0
44 C13026 0.411813804368022 0.155994495231088 0.405891018398551 C 0.0 **** 0.0
45 C13027 0.410874008741474 0.159038408818813 0.38691321761479 C 0.0 **** 0.0
46 C13028 0.417461476167599 0.143410126744844 0.377536097462847 C 0.0 **** 0.0
47 C13034 0.415941718541754 0.145267609100123 0.35805997850504 C 0.0 **** 0.0
48 C13035 0.418953361660163 0.128673523022036 0.348943629131648 C.Trigonal 0.0 **** 0.0
49 C13036 0.415493616834887 0.113120495807343 0.356739733262173 C.Trigonal 0.0 **** 0.0
50 C13041 0.418239614907535 0.0979941049102346 0.347613845389546 C 0.0 **** 0.0
51 C13042 0.424236124986898 0.0986671173532855 0.331379632063983 C 0.0 **** 0.0
52 C13043 0.427187946782015 0.114000995417229 0.323476191351204 C 0.0 **** 0.0
53 C13044 0.424227473722426 0.129007769165071 0.332248668814586 C 0.0 **** 0.0
54 C13050 0.426315689219137 0.0211345049249903 0.527247379179591 C 0.0 **** 0.0
55 C13052 0.409942689345784 0.0262863658387301 0.536184462514628 C 0.0 **** 0.0
56 C13054 0.426716200388509 -0.0130581548139877 0.54206998884344 C 0.0 **** 0.0
57 C13056 0.418310902775027 0.025219955322541 0.491871628878947 C 0.0 **** 0.0
58 C13058 0.423157482420413 -0.0417571289272102 0.521072050882918 C 0.0 **** 0.0
59 C13060 0.416207133462711 -0.0674668248569902 0.464193119386848 C 0.0 **** 0.0
60 C13062 0.408678133651747 -0.0658843237555825 0.429525536905772 C 0.0 **** 0.0
61 O13064 0.395035820248271 -0.046541280684724 0.406711007026734 O 0.0 **** 0.0
62 C13066 0.349536134906685 -0.0377013819132943 0.367588890183895 C 0.0 **** 0.0
63 C13068 0.377438758518242 -0.0215868870796251 0.346842622266387 C 0.0 **** 0.0
64 O13070 0.391699758381413 0.0338441628923837 0.370302555553336 O 0.0 **** 0.0
65 O13072 0.387444003644842 0.0272207520172706 0.439913930316288 O 0.0 **** 0.0
66 O13074 0.387436941492309 0.0588240653755036 0.441628396795493 O 0.0 **** 0.0
67 O13076 0.394813376295013 0.0650910986881973 0.374883571396036 O 0.0 **** 0.0
68 C13078 0.426912210564739 0.145755699168571 0.323348863627438 C 0.0 **** 0.0
69 C13080 0.433431594716346 0.113838221600638 0.305403805237138 C 0.0 **** 0.0
70 H13082 0.402368129581562 0.00322584442129904 0.469123627776849 H 0.0 **** 0.0
71 H13084 0.424321173311396 0.00334938942472636 0.464602549651996 H 0.0 **** 0.0
72 H13086 0.429449921852393 -0.0453449303467331 0.486016786622746 H 0.0 **** 0.0
73 H13088 0.407522446390688 -0.0459046239092651 0.49057050404154 H 0.0 **** 0.0
74 H13090 0.407039008033855 0.00805010567285477 0.442128841289972 H 0.0 **** 0.0
75 H13092 0.368887223635572 0.0143061898781671 0.367328877036162 H 0.0 **** 0.0
76 H13094 0.387530176882989 0.00648836639779468 0.357980932391416 H 0.0 **** 0.0
77 H13096 0.356167691094467 -0.00646988876221512 0.353263509553417 H 0.0 **** 0.0
78 H13098 0.352032456568655 -0.0151684647016513 0.382439417332645 H 0.0 **** 0.0
79 H13100 0.383215842305468 -0.0376483634959857 0.377551467075674 H 0.0 **** 0.0
80 H13102 0.369199637802284 -0.0373694959674163 0.395218212446392 H 0.0 **** 0.0
81 H13104 0.384000506779926 0.0899911019983682 0.44163431235174 H 0.0 **** 0.0
82 H13106 0.405152145298377 0.0936798988834465 0.435449890354484 H 0.0 **** 0.0
83 H13108 0.38827980400653 0.118921012318974 0.430243591946611 H 0.0 **** 0.0
84 H13110 0.372752465947655 0.107643912938038 0.419251238708886 H 0.0 **** 0.0
85 H13112 0.386937662276059 0.145975577389257 0.411023383950476 H 0.0 **** 0.0
86 H13114 0.403239053537862 0.138035125282145 0.424158027089311 H 0.0 **** 0.0
87 H13116 0.424973516961327 0.152940841500283 0.409370979298805 H 0.0 **** 0.0
88 H13118 0.408399520298652 0.167455385671256 0.413022307473359 H 0.0 **** 0.0
89 H13120 0.418366948372063 0.170208173881509 0.383325583470752 H 0.0 **** 0.0
90 H13122 0.397711566619755 0.161820824187506 0.383307680014046 H 0.0 **** 0.0
91 H13124 0.43109572110849 0.142252878127523 0.380503932816044 H 0.0 **** 0.0
92 H13126 0.403429547427229 0.150337688141197 0.354722878555753 H 0.0 **** 0.0
93 H13128 0.425096125480597 0.15488783973233 0.353969021902302 H 0.0 **** 0.0
94 H13130 0.415705912549236 0.08565819784281 0.35350780739115 H 0.0 **** 0.0
95 H13132 0.426611737787105 0.0868597778858337 0.324470943319518 H 0.0 **** 0.0
96 H13134 0.431067876461845 0.0318720521869257 0.51979667674999 H 0.0 **** 0.0
97 H13136 0.436362742544479 0.018753361842226 0.536588958799347 H 0.0 **** 0.0
98 H13138 0.405059847532038 0.0161162969775005 0.544329546386751 H 0.0 **** 0.0
99 H13140 0.39999065758974 0.0293840001266792 0.526969290035448 H 0.0 **** 0.0
100 H13142 0.411963817087114 0.0374728597950086 0.544190588570792 H 0.0 **** 0.0
101 H13144 0.416633498344903 -0.021144715406407 0.547258802614822 H 0.0 **** 0.0
102 H13146 0.426553971493394 -0.00148373755057712 0.549659536782179 H 0.0 **** 0.0
103 H13148 0.438888449406243 -0.0193384626286057 0.544546200662514 H 0.0 **** 0.0
104 H13150 0.412161370752056 0.0255494195955511 0.479459914389767 H 0.0 **** 0.0
105 H13152 0.430881946816833 0.0310487307528628 0.490447832124213 H 0.0 **** 0.0
106 H13154 0.41066730329173 0.0335152524742125 0.500012175973814 H 0.0 **** 0.0
107 H13156 0.425031204265299 -0.0519410541158169 0.511888686314574 H 0.0 **** 0.0
108 H13158 0.411523534660523 -0.0446966563299161 0.52815127800681 H 0.0 **** 0.0
109 H13160 0.433861679351497 -0.0427309825491134 0.529896882711405 H 0.0 **** 0.0
110 H13162 0.428509616001459 -0.072379365851304 0.459897287059978 H 0.0 **** 0.0
111 H13164 0.406419367798566 -0.0767246814302024 0.460724690655907 H 0.0 **** 0.0
112 H13166 0.416550768587308 -0.0675187344206388 0.478024022136943 H 0.0 **** 0.0
113 H13168 0.395642270828746 -0.070301261915205 0.427484963703487 H 0.0 **** 0.0
114 H13170 0.415481117203515 -0.0761973408493813 0.435776948580391 H 0.0 **** 0.0
115 H13172 0.415007854392529 -0.0646629950640173 0.417207751344915 H 0.0 **** 0.0
116 H13174 0.390671263821806 -0.0436754997967741 0.39596927775172 H 0.0 **** 0.0
117 H13176 0.339576429239848 -0.0330015040126843 0.359113553376392 H 0.0 **** 0.0
118 H13178 0.343385088209307 -0.044378787780835 0.378120761755177 H 0.0 **** 0.0
119 H13180 0.357376987412015 -0.0468199245943744 0.360615930161428 H 0.0 **** 0.0
120 H13182 0.381640573529554 -0.0130313089161676 0.336714056379965 H 0.0 **** 0.0
121 H13184 0.369792078171008 -0.0315651777706071 0.340923198212543 H 0.0 **** 0.0
122 H13186 0.388564990782345 -0.0273516904306131 0.352695098224532 H 0.0 **** 0.0
123 H13188 0.392811356632086 0.0455001974460782 0.36732559360195 H 0.0 **** 0.0
124 H13190 0.385917605595514 0.0380570223491682 0.445029754967806 H 0.0 **** 0.0
125 H13192 0.417021951307618 0.154991183730824 0.32658475023579 H 0.0 **** 0.0
126 H13194 0.426445261645597 0.144472720841048 0.309551902830928 H 0.0 **** 0.0
127 H13196 0.439246774713435 0.151341700578111 0.326633998419175 H 0.0 **** 0.0
128 H13198 0.423509170005286 0.118028278281105 0.296567065546627 H 0.0 **** 0.0
129 H13200 0.43739927538007 0.101135014863319 0.301451636745538 H 0.0 **** 0.0
130 H13202 0.444441420963384 0.122182779748041 0.303751924913771 H 0.0 **** 0.0
@<TRIPOS>BOND
1 3 2 Aromatic
2 4 3 Aromatic
3 5 4 Aromatic
4 6 5 Aromatic
5 1 2 Aromatic
6 1 6 Aromatic
7 8 7 1
8 9 8 Aromatic
9 10 9 1
10 4 7 1
11 3 10 1
12 12 11 Aromatic
13 13 12 Aromatic
14 14 13 Aromatic
15 9 11 Aromatic
16 8 14 Aromatic
17 16 15 Aromatic
18 17 16 Aromatic
19 18 17 Aromatic
20 14 15 Aromatic
21 13 18 Aromatic
22 20 19 1
23 21 20 1
24 22 21 Aromatic
25 17 19 1
26 16 22 Aromatic
27 24 23 1
28 25 24 Aromatic
29 26 25 1
30 20 23 1
31 19 26 1
32 28 27 Aromatic
33 29 28 Aromatic
34 30 29 Aromatic
35 22 27 Aromatic
36 21 30 Aromatic
37 32 31 1
38 33 32 Aromatic
39 34 33 1
40 29 31 1
41 28 34 1
42 36 35 1
43 37 36 1
44 38 37 Aromatic
45 33 35 1
46 32 38 Aromatic
47 40 39 Aromatic
48 41 40 Aromatic
49 42 41 Aromatic
50 38 39 Aromatic
51 37 42 Aromatic
52 44 43 1
53 45 44 1
54 46 45 1
55 42 43 1
56 41 46 1
57 48 47 1
58 49 48 Aromatic
59 40 49 Aromatic
60 46 47 1
61 51 50 Aromatic
62 52 51 Aromatic
63 53 52 Aromatic
64 49 50 Aromatic
65 48 53 Aromatic
66 6 54 1
67 54 55 1
68 1 56 1
69 5 57 1
70 2 58 1
71 11 59 1
72 12 60 1
73 18 61 1
74 25 62 1
75 24 63 1
76 30 64 1
77 27 65 1
78 34 66 Double
79 31 67 Double
80 53 68 1
81 52 69 1
82 7 70 1
83 7 71 1
84 10 72 1
85 10 73 1
86 15 74 1
87 23 75 1
88 23 76 1
89 24 77 1
90 25 78 1
91 26 79 1
92 26 80 1
93 35 81 1
94 35 82 1
95 36 83 1
96 36 84 1
97 43 85 1
98 43 86 1
99 44 87 1
100 44 88 1
101 45 89 1
102 45 90 1
103 46 91 1
104 47 92 1
105 47 93 1
106 50 94 1
107 51 95 1
108 54 96 1
109 54 97 1
110 55 98 1
111 55 99 1
112 55 100 1
113 56 101 1
114 56 102 1
115 56 103 1
116 57 104 1
117 57 105 1
118 57 106 1
119 58 107 1
120 58 108 1
121 58 109 1
122 59 110 1
123 59 111 1
124 59 112 1
125 60 113 1
126 60 114 1
127 60 115 1
128 61 116 1
129 62 117 1
130 62 118 1
131 62 119 1
132 63 120 1
133 63 121 1
134 63 122 1
135 64 123 1
136 65 124 1
137 68 125 1
138 68 126 1
139 68 127 1
140 69 128 1
141 69 129 1
142 69 130 1
@<TRIPOS>MOLECULE
Sketch 4
130 142
SMALL
USER_CHARGES


@<TRIPOS>ATOM
1 C13204 0.398651194542822 0.459636410848962 0.713756028930679 C.Trigonal 0.0 **** 0.0
2 C13205 0.385571034538507 0.458633866872383 0.702140594128594 C 0.0 **** 0.0
3 C13206 0.379995276224742 0.443077470393979 0.696369811993434 C.Trigonal 0.0 **** 0.0
4 C13207 0.387813849687972 0.42855679402309 0.701890532584901 C.Trigonal 0.0 **** 0.0
5 C13208 0.401270771691623 0.429522764164998 0.713121249560868 C 0.0 **** 0.0
6 C13209 0.40649394235377 0.445055421214488 0.719323792007248 C 0.0 **** 0.0
7 C13216 0.38197403362084 0.411337659939393 0.695644510360413 C 0.0 **** 0.0
8 C13217 0.367741455998495 0.410730822042211 0.682839649855851 C.Trigonal 0.0 **** 0.0
9 C13218 0.359948627406695 0.425153423245588 0.677200272781742 C.Trigonal 0.0 **** 0.0
10 C13219 0.365367714753886 0.442394534605219 0.683855659977062 C 0.0 **** 0.0
11 C13225 0.346685981232216 0.42419106746026 0.66561189422564 C 0.0 **** 0.0
12 C13226 0.342112881017777 0.408910395815976 0.658270816369315 C 0.0 **** 0.0
13 C13227 0.352130938245923 0.394794810019762 0.661639712709692 C.Trigonal 0.0 **** 0.0
14 C13228 0.362421720377173 0.395093603326913 0.67622098538533 C.Trigonal 0.0 **** 0.0
15 C13234 0.368180696637943 0.379607019774656 0.6825444651179 C 0.0 **** 0.0
16 C13235 0.36792069918753 0.365109895947341 0.672395427022043 C.Trigonal 0.0 **** 0.0
17 C13236 0.364844728300841 0.367794799293506 0.654976118122194 C.Trigonal 0.0 **** 0.0
18 C13237 0.354817997244799 0.38130049575668 0.649774021764803 C 0.0 **** 0.0
19 C13243 0.371392244744211 0.354442054168035 0.643093594607604 C.Trigonal 0.0 **** 0.0
20 C13244 0.375305790591833 0.338966035452313 0.64940479958379 C.Trigonal 0.0 **** 0.0
21 C13245 0.370202694485348 0.334628754505916 0.667299388424045 C.Trigonal 0.0 **** 0.0
22 C13246 0.36762089729286 0.348093826897023 0.67868798408171 C.Trigonal 0.0 **** 0.0
23 C13252 0.385886213002534 0.326125615761416 0.639731361254648 C 0.0 **** 0.0
24 C13253 0.396765945705095 0.334947678987013 0.626286116989908 C 0.0 **** 0.0
25 C13254 0.385487381414245 0.346426962474554 0.615279024959668 C 0.0 **** 0.0
26 C13255 0.378024934637269 0.360782130875441 0.626135348716536 C 0.0 **** 0.0
27 C13261 0.361323674930563 0.344276180228037 0.695145118993595 C 0.0 **** 0.0
28 C13262 0.357558544946788 0.327708831469181 0.69935585430275 C.Trigonal 0.0 **** 0.0
29 C13263 0.360101110154161 0.314764531813814 0.687906529797212 C.Trigonal 0.0 **** 0.0
30 C13264 0.366410148959376 0.318096983308885 0.671871018920357 C 0.0 **** 0.0
31 C13270 0.355044667198414 0.296880744530119 0.692147902382524 C 0.0 **** 0.0
32 C13271 0.346059234001023 0.294058181313098 0.708145681527673 C.Trigonal 0.0 **** 0.0
33 C13272 0.343952171753497 0.306516429838456 0.719654420703319 C.Trigonal 0.0 **** 0.0
34 C13273 0.349788392954266 0.323907815917208 0.716385247145054 C 0.0 **** 0.0
35 C13279 0.33534869733883 0.302958485023486 0.736455155186009 C 0.0 **** 0.0
36 C13280 0.338239403498396 0.284355111299455 0.742080075038475 C 0.0 **** 0.0
37 C13281 0.334886639539314 0.271822804541784 0.727894235172913 C.Trigonal 0.0 **** 0.0
38 C13282 0.338924971914795 0.276763010052033 0.711223868377271 C.Trigonal 0.0 **** 0.0
39 N13288 0.336252398889846 0.266546893654898 0.698013050660784 N 0.0 **** 0.0
40 C13289 0.330923736368814 0.25078365996266 0.700951944522376 C.Trigonal 0.0 **** 0.0
41 C13290 0.326927022635388 0.244854235502217 0.717351412887668 C.Trigonal 0.0 **** 0.0
42 C13291 0.328729688453054 0.255715070597565 0.730748536040755 C.Trigonal 0.0 **** 0.0
43 C13297 0.324797496797904 0.25004633538651 0.748738581634617 C 0.0 **** 0.0
44 C13298 0.314990882160219 0.233350979267254 0.749634735634389 C 0.0 **** 0.0
45 C13299 0.322175683519842 0.220521696011737 0.7371833055522 C 0.0 **** 0.0
46 C13300 0.319905454616349 0.227113039412859 0.719104091846839 C 0.0 **** 0.0
47 C13306 0.327931818598929 0.215133031788671 0.705819959703135 C 0.0 **** 0.0
48 C13307 0.328135729245654 0.223016723590604 0.688318076429226 C.Trigonal 0.0 **** 0.0
49 C13308 0.329809816162528 0.240561907646096 0.686445631264486 C.Trigonal 0.0 **** 0.0
50 C13313 0.331113021659514 0.247559270775396 0.670053434506163 C 0.0 **** 0.0
51 C13314 0.330749444400402 0.2371807270054 0.656195422225813 C 0.0 **** 0.0
52 C13315 0.329237272918132 0.219832641840016 0.657977497474968 C 0.0 **** 0.0
53 C13316 0.328160228827634 0.212778158729548 0.674113127350022 C 0.0 **** 0.0
54 C13322 0.420754086651546 0.445973727134834 0.732167773717214 C 0.0 **** 0.0
55 C13324 0.437301574555767 0.451034732100462 0.723475094314418 C 0.0 **** 0.0
56 C13326 0.404176355013786 0.477004594603218 0.719744427753503 C 0.0 **** 0.0
57 C13328 0.41023725380862 0.413608513500201 0.719021254601776 C 0.0 **** 0.0
58 C13330 0.377609676469041 0.474954244652207 0.696069536090146 C 0.0 **** 0.0
59 C13332 0.336991273808832 0.440001486588045 0.660667414407598 C 0.0 **** 0.0
60 C13334 0.327480566906142 0.40860477547872 0.645970524736804 C 0.0 **** 0.0
61 O13336 0.347907878449645 0.382447939182634 0.634011562402337 O 0.0 **** 0.0
62 C13338 0.371219385848278 0.336459582853217 0.606653100105883 C 0.0 **** 0.0
63 C13340 0.406297444812585 0.32179412153768 0.615547018064856 C 0.0 **** 0.0
64 O13342 0.36827546468457 0.305516228137672 0.659960501527396 O 0.0 **** 0.0
65 O13344 0.358023934091762 0.357335243541887 0.706059134765604 O 0.0 **** 0.0
66 O13346 0.348026531556781 0.335268727766089 0.726603114141179 O 0.0 **** 0.0
67 O13348 0.358448358345804 0.285670275735755 0.682156385662795 O 0.0 **** 0.0
68 C13350 0.327076733526828 0.193766918070513 0.676060564295284 C 0.0 **** 0.0
69 C13352 0.329091213153511 0.2091485022523 0.642123221395843 C 0.0 **** 0.0
70 H13354 0.392959523901308 0.405184643573623 0.68969449580362 H 0.0 **** 0.0
71 H13356 0.378422142020459 0.403469715598662 0.706545500250543 H 0.0 **** 0.0
72 H13358 0.354287920118448 0.448487862251944 0.689774858835669 H 0.0 **** 0.0
73 H13360 0.368937545721386 0.450171313556324 0.672817445217898 H 0.0 **** 0.0
74 H13362 0.373509483068761 0.379045737490564 0.695305356839918 H 0.0 **** 0.0
75 H13364 0.394371395967583 0.319151567553991 0.648294373645153 H 0.0 **** 0.0
76 H13366 0.377647945219022 0.316751577135875 0.633575964147999 H 0.0 **** 0.0
77 H13368 0.40622520063335 0.342867725287241 0.632714454879217 H 0.0 **** 0.0
78 H13370 0.393319537391097 0.352114497304289 0.605320707474396 H 0.0 **** 0.0
79 H13372 0.368339122275975 0.367286341341688 0.618625838706853 H 0.0 **** 0.0
80 H13374 0.388056901082169 0.37016773063154 0.628525222106579 H 0.0 **** 0.0
81 H13376 0.339956668554605 0.311420965049166 0.746567678268464 H 0.0 **** 0.0
82 H13378 0.321683298238125 0.305381257572511 0.735275794405842 H 0.0 **** 0.0
83 H13380 0.330237011536772 0.282000876327573 0.75314150746 H 0.0 **** 0.0
84 H13382 0.351346083957295 0.282809868202579 0.746492878561325 H 0.0 **** 0.0
85 H13384 0.336822989681082 0.248555527156946 0.755640992316559 H 0.0 **** 0.0
86 H13386 0.317423671260701 0.259744534449116 0.75543029125451 H 0.0 **** 0.0
87 H13388 0.301608171462693 0.235643730534271 0.746521930905547 H 0.0 **** 0.0
88 H13390 0.315138781436385 0.228398852476526 0.762662884812814 H 0.0 **** 0.0
89 H13392 0.315842255480016 0.208182348208404 0.738604596511831 H 0.0 **** 0.0
90 H13394 0.335681982014853 0.218369007965451 0.739889526309267 H 0.0 **** 0.0
91 H13396 0.306222312140712 0.22788665226619 0.716512685999379 H 0.0 **** 0.0
92 H13398 0.340997836470798 0.212049389087092 0.709628408815936 H 0.0 **** 0.0
93 H13400 0.32094524462055 0.203129682401435 0.705965943834484 H 0.0 **** 0.0
94 H13402 0.332589157161232 0.261270279073729 0.668347985905464 H 0.0 **** 0.0
95 H13404 0.33179178535278 0.242655683912346 0.64346427252522 H 0.0 **** 0.0
96 H13406 0.422598641806177 0.433887544263149 0.738778762788534 H 0.0 **** 0.0
97 H13408 0.417737510626663 0.45490932416747 0.742412052469408 H 0.0 **** 0.0
98 H13410 0.436277311915182 0.463541753924631 0.717512667171564 H 0.0 **** 0.0
99 H13412 0.440681873494178 0.441946367990542 0.713510693157737 H 0.0 **** 0.0
100 H13414 0.447884294632681 0.451519606992851 0.732495958634654 H 0.0 **** 0.0
101 H13416 0.393332905604689 0.485009293707728 0.723149406616123 H 0.0 **** 0.0
102 H13418 0.411267908985286 0.483610587540184 0.709723819400369 H 0.0 **** 0.0
103 H13420 0.412250124108131 0.476763080760246 0.730980331432 H 0.0 **** 0.0
104 H13422 0.407583069669965 0.402478231057334 0.711223844270979 H 0.0 **** 0.0
105 H13424 0.424050832032571 0.415180846936131 0.718677753100844 H 0.0 **** 0.0
106 H13426 0.406701694544768 0.410415169011795 0.732112173384645 H 0.0 **** 0.0
107 H13428 0.367788781721952 0.473276812635435 0.686458181134677 H 0.0 **** 0.0
108 H13430 0.387238617094388 0.483318491882384 0.6905356895221 H 0.0 **** 0.0
109 H13432 0.371737125373955 0.481843964893406 0.706606395951477 H 0.0 **** 0.0
110 H13434 0.334902274814865 0.440487420364035 0.64694054907907 H 0.0 **** 0.0
111 H13436 0.343447745769647 0.451822865285681 0.663908134292983 H 0.0 **** 0.0
112 H13438 0.324530007890776 0.440328064023695 0.666883125230816 H 0.0 **** 0.0
113 H13440 0.331044196455036 0.413774763409301 0.633599599876815 H 0.0 **** 0.0
114 H13442 0.316732005800213 0.416082445983669 0.650679789420569 H 0.0 **** 0.0
115 H13444 0.322514705738387 0.395787354056566 0.644021788979344 H 0.0 **** 0.0
116 H13446 0.348944439625662 0.371953501384624 0.628241658847601 H 0.0 **** 0.0
117 H13448 0.376318420608799 0.325262550673795 0.600278744399679 H 0.0 **** 0.0
118 H13450 0.36503394864221 0.344322490243301 0.597065429193777 H 0.0 **** 0.0
119 H13452 0.361586793841652 0.332371558273301 0.61580753134428 H 0.0 **** 0.0
120 H13454 0.414842992404541 0.314339395105012 0.623538900274321 H 0.0 **** 0.0
121 H13456 0.413912921544211 0.328077826112364 0.605760879320579 H 0.0 **** 0.0
122 H13458 0.397545577115612 0.31292618443665 0.609409910572314 H 0.0 **** 0.0
123 H13460 0.366241931859251 0.294858065330887 0.665268920969618 H 0.0 **** 0.0
124 H13462 0.353424552840986 0.352878922096374 0.716309276870284 H 0.0 **** 0.0
125 H13464 0.335683020413976 0.189153296699726 0.685971964758497 H 0.0 **** 0.0
126 H13466 0.330591647541094 0.186942870880115 0.664505954969281 H 0.0 **** 0.0
127 H13468 0.31413470071647 0.189837924895643 0.679379682523289 H 0.0 **** 0.0
128 H13470 0.340334838780975 0.200966256775041 0.641454605097778 H 0.0 **** 0.0
129 H13472 0.329066526805145 0.216959720905872 0.630639414017122 H 0.0 **** 0.0
130 H13474 0.317814029724975 0.201014053301713 0.641514335895935 H 0.0 **** 0.0
@<TRIPOS>BOND
1 3 2 Aromatic
2 4 3 Aromatic
3 5 4 Aromatic
4 6 5 Aromatic
5 1 2 Aromatic
6 1 6 Aromatic
7 8 7 1
8 9 8 Aromatic
9 10 9 1
10 4 7 1
11 3 10 1
12 12 11 Aromatic
13 13 12 Aromatic
14 14 13 Aromatic
15 9 11 Aromatic
16 8 14 Aromatic
17 16 15 Aromatic
18 17 16 Aromatic
19 18 17 Aromatic
20 14 15 Aromatic
21 13 18 Aromatic
22 20 19 1
23 21 20 1
24 22 21 Aromatic
25 17 19 1
26 16 22 Aromatic
27 24 23 1
28 25 24 Aromatic
29 26 25 1
30 20 23 1
31 19 26 1
32 28 27 Aromatic
33 29 28 Aromatic
34 30 29 Aromatic
35 22 27 Aromatic
36 21 30 Aromatic
37 32 31 1
38 33 32 Aromatic
39 34 33 1
40 29 31 1
41 28 34 1
42 36 35 1
43 37 36 1
44 38 37 Aromatic
45 33 35 1
46 32 38 Aromatic
47 40 39 Aromatic
48 41 40 Aromatic
49 42 41 Aromatic
50 38 39 Aromatic
51 37 42 Aromatic
52 44 43 1
53 45 44 1
54 46 45 1
55 42 43 1
56 41 46 1
57 48 47 1
58 49 48 Aromatic
59 40 49 Aromatic
60 46 47 1
61 51 50 Aromatic
62 52 51 Aromatic
63 53 52 Aromatic
64 49 50 Aromatic
65 48 53 Aromatic
66 6 54 1
67 54 55 1
68 1 56 1
69 5 57 1
70 2 58 1
71 11 59 1
72 12 60 1
73 18 61 1
74 25 62 1
75 24 63 1
76 30 64 1
77 27 65 1
78 34 66 Double
79 31 67 Double
80 53 68 1
81 52 69 1
82 7 70 1
83 7 71 1
84 10 72 1
85 10 73 1
86 15 74 1
87 23 75 1
88 23 76 1
89 24 77 1
90 25 78 1
91 26 79 1
92 26 80 1
93 35 81 1
94 35 82 1
95 36 83 1
96 36 84 1
97 43 85 1
98 43 86 1
99 44 87 1
100 44 88 1
101 45 89 1
102 45 90 1
103 46 91 1
104 47 92 1
105 47 93 1
106 50 94 1
107 51 95 1
108 54 96 1
109 54 97 1
110 55 98 1
111 55 99 1
112 55 100 1
113 56 101 1
114 56 102 1
115 56 103 1
116 57 104 1
117 57 105 1
118 57 106 1
119 58 107 1
120 58 108 1
121 58 109 1
122 59 110 1
123 59 111 1
124 59 112 1
125 60 113 1
126 60 114 1
127 60 115 1
128 61 116 1
129 62 117 1
130 62 118 1
131 62 119 1
132 63 120 1
133 63 121 1
134 63 122 1
135 64 123 1
136 65 124 1
137 68 125 1
138 68 126 1
139 68 127 1
140 69 128 1
141 69 129 1
142 69 130 1
@<TRIPOS>MOLECULE
Sketch 4
130 142
SMALL
USER_CHARGES


@<TRIPOS>ATOM
1 C13476 0.144955795277638 0.10158338789988 0.42482638863096 C.Trigonal 0.0 **** 0.0
2 C13477 0.16095114361145 0.0974896981814375 0.419026162503052 C 0.0 **** 0.0
3 C13478 0.174638194321262 0.107701987099703 0.422995366273541 C.Trigonal 0.0 **** 0.0
4 C13479 0.172391463284806 0.122050352545091 0.432483470880427 C.Trigonal 0.0 **** 0.0
5 C13480 0.156268223378833 0.126622469676352 0.437659638654061 C 0.0 **** 0.0
6 C13481 0.142657107600459 0.116080450333474 0.434335079229372 C 0.0 **** 0.0
7 C13488 0.187509534938204 0.132716155546563 0.43777867376637 C 0.0 **** 0.0
8 C13489 0.205172470763945 0.126444591745108 0.433305536885706 C.Trigonal 0.0 **** 0.0
9 C13490 0.207229190256502 0.112701212368732 0.422929799429625 C.Trigonal 0.0 **** 0.0
10 C13491 0.192017014011327 0.102755163193429 0.416552000388882 C 0.0 **** 0.0
11 C13497 0.223268601358491 0.107381982879822 0.418023418180073 C 0.0 **** 0.0
12 C13498 0.237692129323055 0.115545151496967 0.423564093406307 C 0.0 **** 0.0
13 C13499 0.235931743186337 0.129797961320522 0.43397819271167 C.Trigonal 0.0 **** 0.0
14 C13500 0.219633861724411 0.13458083612176 0.439664871561298 C.Trigonal 0.0 **** 0.0
15 C13506 0.218374502607637 0.14743224775808 0.451748101134997 C 0.0 **** 0.0
16 C13507 0.232225368361087 0.156533749871711 0.458009722087686 C.Trigonal 0.0 **** 0.0
17 C13508 0.248421477311773 0.150496156682354 0.453180614290608 C.Trigonal 0.0 **** 0.0
18 C13509 0.250153894722065 0.139110089093734 0.439898310336877 C 0.0 **** 0.0
19 C13515 0.263769356640278 0.15750683164832 0.46231559652392 C.Trigonal 0.0 **** 0.0
20 C13516 0.262107640902517 0.170279306976045 0.473722665225018 C.Trigonal 0.0 **** 0.0
21 C13517 0.244697247626212 0.177762208241199 0.477492979149615 C.Trigonal 0.0 **** 0.0
22 C13518 0.230641972585334 0.171477848881 0.468369963494166 C.Trigonal 0.0 **** 0.0
23 C13524 0.277420037907395 0.177191570004366 0.483417103115052 C 0.0 **** 0.0
24 C13525 0.294415785999221 0.169925245449138 0.477477580986723 C 0.0 **** 0.0
25 C13526 0.292782285492591 0.150783151745078 0.474737518554725 C 0.0 **** 0.0
26 C13527 0.280568886132992 0.148140303585608 0.459917886186257 C 0.0 **** 0.0
27 C13533 0.214939425317707 0.180153611423047 0.470166018262313 C 0.0 **** 0.0
28 C13534 0.212854358123876 0.19206942411418 0.482803623875804 C.Trigonal 0.0 **** 0.0
29 C13535 0.226214976788676 0.1966170422146 0.492992638569254 C.Trigonal 0.0 **** 0.0
30 C13536 0.242168742004084 0.18976037871435 0.490270468448452 C 0.0 **** 0.0
31 C13542 0.223782056590725 0.209462008555707 0.507038971127141 C 0.0 **** 0.0
32 C13543 0.206797247844355 0.216751115675715 0.509545423585147 C.Trigonal 0.0 **** 0.0
33 C13544 0.193709565609713 0.212345033165044 0.499440257545024 C.Trigonal 0.0 **** 0.0
34 C13545 0.195736695402032 0.200129426300449 0.485473825579902 C 0.0 **** 0.0
35 C13551 0.176220320558782 0.219834523458691 0.502125002386915 C 0.0 **** 0.0
36 C13552 0.177372604068381 0.238073097623397 0.509179605821922 C 0.0 **** 0.0
37 C13553 0.18950323591716 0.239326856015318 0.524072061922239 C.Trigonal 0.0 **** 0.0
38 C13554 0.204271874607992 0.229198250558258 0.523802683707112 C.Trigonal 0.0 **** 0.0
39 N13560 0.216138862652874 0.230614985112519 0.535789255111345 N 0.0 **** 0.0
40 C13561 0.214142605917196 0.242343038437426 0.547846047997571 C.Trigonal 0.0 **** 0.0
41 C13562 0.19926693786233 0.252162431600078 0.549428113202971 C.Trigonal 0.0 **** 0.0
42 C13563 0.186893826238744 0.250370807233792 0.537390142608218 C.Trigonal 0.0 **** 0.0
43 C13569 0.170724008433067 0.260874665891754 0.538180068417483 C 0.0 **** 0.0
44 C13570 0.168027266886877 0.269215111384848 0.555480292630461 C 0.0 **** 0.0
45 C13571 0.184321194889237 0.277406895883098 0.561643546641376 C 0.0 **** 0.0
46 C13572 0.197575537241406 0.263636413406846 0.564754509199066 C 0.0 **** 0.0
47 C13578 0.214963801375181 0.271214293418635 0.569598604123483 C 0.0 **** 0.0
48 C13579 0.228582753991035 0.257704390391036 0.570124037543313 C.Trigonal 0.0 **** 0.0
49 C13580 0.227879405334971 0.2438661580518 0.559043462014644 C.Trigonal 0.0 **** 0.0
50 C13585 0.241270904467695 0.232033151573173 0.558973839697359 C 0.0 **** 0.0
51 C13586 0.254776251039071 0.234262102845121 0.569576340044679 C 0.0 **** 0.0
52 C13587 0.255568067031635 0.247931306951966 0.580475804137919 C 0.0 **** 0.0
53 C13588 0.242450906171359 0.259717611476923 0.580631751677907 C 0.0 **** 0.0
54 C13594 0.125362314722798 0.120458042476384 0.441444344920881 C 0.0 **** 0.0
55 C13596 0.114786894189259 0.12986175002156 0.428275359599109 C 0.0 **** 0.0
56 C13598 0.130357887253963 0.0899443716160601 0.420475502559695 C 0.0 **** 0.0
57 C13600 0.153542126892931 0.142876305285846 0.447529447497288 C 0.0 **** 0.0
58 C13602 0.163999936166821 0.0816425150730891 0.408622396435278 C 0.0 **** 0.0
59 C13604 0.225096851817005 0.0922320109506838 0.406268945539557 C 0.0 **** 0.0
60 C13606 0.254683739817371 0.108385137542216 0.418184711365336 C 0.0 **** 0.0
61 O13608 0.26552526573822 0.136111828309106 0.432471197345697 O 0.0 **** 0.0
62 C13610 0.28668686824043 0.141065496820167 0.490547420263753 C 0.0 **** 0.0
63 C13612 0.308500348594298 0.174189446012297 0.490233927056358 C 0.0 **** 0.0
64 O13614 0.25562849688138 0.194683153360214 0.500134612676754 O 0.0 **** 0.0
65 O13616 0.201927777585143 0.176329037253726 0.459415006211018 O 0.0 **** 0.0
66 O13618 0.184101623214664 0.196312753382351 0.47617297982183 O 0.0 **** 0.0
67 O13620 0.235982589128094 0.213263413810817 0.515602705033187 O 0.0 **** 0.0
68 C13622 0.243457164622992 0.274898013859409 0.592274013627273 C 0.0 **** 0.0
69 C13624 0.270982873349771 0.249533519606498 0.591678694616481 C 0.0 **** 0.0
70 H13626 0.186093994440025 0.145519777617451 0.43240096371016 H 0.0 **** 0.0
71 H13628 0.186738078497763 0.134061884340367 0.451621425063624 H 0.0 **** 0.0
72 H13630 0.194071724468913 0.0893505824064335 0.419786679090846 H 0.0 **** 0.0
73 H13632 0.191748384987358 0.103547106004839 0.402632319652966 H 0.0 **** 0.0
74 H13634 0.205659804373844 0.150201637599901 0.456325844439621 H 0.0 **** 0.0
75 H13636 0.278205066352297 0.191035767191497 0.482076822561401 H 0.0 **** 0.0
76 H13638 0.276027602878293 0.174217420661058 0.496955395114238 H 0.0 **** 0.0
77 H13640 0.297748855017704 0.175840326196541 0.465307282679959 H 0.0 **** 0.0
78 H13642 0.305226313164684 0.14577681339954 0.47105964582691 H 0.0 **** 0.0
79 H13644 0.278640907526168 0.134387334614633 0.458706948022253 H 0.0 **** 0.0
80 H13646 0.286889725716215 0.152675184258683 0.44837346732776 H 0.0 **** 0.0
81 H13648 0.168815756858244 0.220200918290464 0.490302137820347 H 0.0 **** 0.0
82 H13650 0.169043688310755 0.211817575796024 0.510984941507301 H 0.0 **** 0.0
83 H13652 0.164542378576176 0.242291895913121 0.512378591335113 H 0.0 **** 0.0
84 H13654 0.181725264529516 0.246598034003584 0.499000146456695 H 0.0 **** 0.0
85 H13656 0.171262198605592 0.270842859595176 0.528416547169788 H 0.0 **** 0.0
86 H13658 0.15956279690362 0.253062671253186 0.535322508011445 H 0.0 **** 0.0
87 H13660 0.164032668196131 0.259665114447045 0.564797278539438 H 0.0 **** 0.0
88 H13662 0.157694989807204 0.278492920081143 0.554745782936599 H 0.0 **** 0.0
89 H13664 0.182131773467219 0.284660793300334 0.57334466677261 H 0.0 **** 0.0
90 H13666 0.188893579935884 0.286507402352941 0.552106487122308 H 0.0 **** 0.0
91 H13668 0.193221004216412 0.255898069598654 0.575557265475808 H 0.0 **** 0.0
92 H13670 0.218518101012096 0.280999337472723 0.560288547635699 H 0.0 **** 0.0
93 H13672 0.213591564519694 0.277675452123498 0.581835774815355 H 0.0 **** 0.0
94 H13674 0.240973164356993 0.221143025731679 0.550353591067695 H 0.0 **** 0.0
95 H13676 0.265152633212952 0.225044656229396 0.569549112619899 H 0.0 **** 0.0
96 H13678 0.126453469885417 0.128235897404101 0.452919711268836 H 0.0 **** 0.0
97 H13680 0.118692082488196 0.109058212389292 0.445798562275668 H 0.0 **** 0.0
98 H13682 0.113090388989663 0.122280132476028 0.416738765405279 H 0.0 **** 0.0
99 H13684 0.121047237453836 0.141737621173971 0.424729595847578 H 0.0 **** 0.0
100 H13686 0.102170348454374 0.133045071396572 0.433154553526247 H 0.0 **** 0.0
101 H13688 0.132643275591802 0.0770787378908515 0.42528402346571 H 0.0 **** 0.0
102 H13690 0.128627517985188 0.0891163800091537 0.406679985321248 H 0.0 **** 0.0
103 H13692 0.118144897464197 0.0939351392263395 0.425606392130435 H 0.0 **** 0.0
104 H13694 0.163970783924849 0.151919443266964 0.446196044460013 H 0.0 **** 0.0
105 H13696 0.151984042714014 0.140309036742806 0.461128073746853 H 0.0 **** 0.0
106 H13698 0.142209369310042 0.149664297405317 0.443176967257146 H 0.0 **** 0.0
107 H13700 0.171147361939279 0.0721831695871033 0.415938466209543 H 0.0 **** 0.0
108 H13702 0.171265078501481 0.0844678558169738 0.397090388842253 H 0.0 **** 0.0
109 H13704 0.152372418205787 0.075433469912527 0.404381693531589 H 0.0 **** 0.0
110 H13706 0.230627270493794 0.0813579798274724 0.412986284216901 H 0.0 **** 0.0
111 H13708 0.23338878721735 0.095242363099142 0.395500470755121 H 0.0 **** 0.0
112 H13710 0.213240919293983 0.0878414345523042 0.400624355898352 H 0.0 **** 0.0
113 H13712 0.260854369713249 0.116497110434378 0.40868977979301 H 0.0 **** 0.0
114 H13714 0.254024859090636 0.095672814637598 0.412724037204828 H 0.0 **** 0.0
115 H13716 0.263240348552615 0.106975212533861 0.429073629745707 H 0.0 **** 0.0
116 H13718 0.273263064897612 0.144181725544339 0.436688365174672 H 0.0 **** 0.0
117 H13720 0.295418148548079 0.142951344564862 0.501192928753952 H 0.0 **** 0.0
118 H13722 0.286083559031771 0.127426557472421 0.487874496665599 H 0.0 **** 0.0
119 H13724 0.274019936653483 0.145183539377888 0.494514804261175 H 0.0 **** 0.0
120 H13726 0.310021691551249 0.187972920614985 0.491308763588582 H 0.0 **** 0.0
121 H13728 0.320639953331897 0.168811993713535 0.486093619263387 H 0.0 **** 0.0
122 H13730 0.305528813830532 0.169182272963119 0.50285801281833 H 0.0 **** 0.0
123 H13732 0.251813708480343 0.202724779175114 0.508301000967001 H 0.0 **** 0.0
124 H13734 0.192230787750904 0.1830158981176 0.462090678568555 H 0.0 **** 0.0
125 H13736 0.240772274551315 0.286717267061612 0.585433051521042 H 0.0 **** 0.0
126 H13738 0.255978522947309 0.276527821581958 0.59799984663542 H 0.0 **** 0.0
127 H13740 0.234295447586326 0.273805193965673 0.602715487655879 H 0.0 **** 0.0
128 H13742 0.278621565966369 0.260657589615143 0.588230167797012 H 0.0 **** 0.0
129 H13744 0.279261298748206 0.238430537889506 0.590627348379151 H 0.0 **** 0.0
130 H13746 0.267459000011043 0.25069912903127 0.605089863256367 H 0.0 **** 0.0
@<TRIPOS>BOND
1 3 2 Aromatic
2 4 3 Aromatic
3 5 4 Aromatic
4 6 5 Aromatic
5 1 2 Aromatic
6 1 6 Aromatic
7 8 7 1
8 9 8 Aromatic
9 10 9 1
10 4 7 1
11 3 10 1
12 12 11 Aromatic
13 13 12 Aromatic
14 14 13 Aromatic
15 9 11 Aromatic
16 8 14 Aromatic
17 16 15 Aromatic
18 17 16 Aromatic
19 18 17 Aromatic
20 14 15 Aromatic
21 13 18 Aromatic
22 20 19 1
23 21 20 1
24 22 21 Aromatic
25 17 19 1
26 16 22 Aromatic
27 24 23 1
28 25 24 Aromatic
29 26 25 1
30 20 23 1
31 19 26 1
32 28 27 Aromatic
33 29 28 Aromatic
34 30 29 Aromatic
35 22 27 Aromatic
36 21 30 Aromatic
37 32 31 1
38 33 32 Aromatic
39 34 33 1
40 29 31 1
41 28 34 1
42 36 35 1
43 37 36 1
44 38 37 Aromatic
45 33 35 1
46 32 38 Aromatic
47 40 39 Aromatic
48 41 40 Aromatic
49 42 41 Aromatic
50 38 39 Aromatic
51 37 42 Aromatic
52 44 43 1
53 45 44 1
54 46 45 1
55 42 43 1
56 41 46 1
57 48 47 1
58 49 48 Aromatic
59 40 49 Aromatic
60 46 47 1
61 51 50 Aromatic
62 52 51 Aromatic
63 53 52 Aromatic
64 49 50 Aromatic
65 48 53 Aromatic
66 6 54 1
67 54 55 1
68 1 56 1
69 5 57 1
70 2 58 1
71 11 59 1
72 12 60 1
73 18 61 1
74 25 62 1
75 24 63 1
76 30 64 1
77 27 65 1
78 34 66 Double
79 31 67 Double
80 53 68 1
81 52 69 1
82 7 70 1
83 7 71 1
84 10 72 1
85 10 73 1
86 15 74 1
87 23 75 1
88 23 76 1
89 24 77 1
90 25 78 1
91 26 79 1
92 26 80 1
93 35 81 1
94 35 82 1
95 36 83 1
96 36 84 1
97 43 85 1
98 43 86 1
99 44 87 1
100 44 88 1
101 45 89 1
102 45 90 1
103 46 91 1
104 47 92 1
105 47 93 1
106 50 94 1
107 51 95 1
108 54 96 1
109 54 97 1
110 55 98 1
111 55 99 1
112 55 100 1
113 56 101 1
114 56 102 1
115 56 103 1
116 57 104 1
117 57 105 1
118 57 106 1
119 58 107 1
120 58 108 1
121 58 109 1
122 59 110 1
123 59 111 1
124 59 112 1
125 60 113 1
126 60 114 1
127 60 115 1
128 61 116 1
129 62 117 1
130 62 118 1
131 62 119 1
132 63 120 1
133 63 121 1
134 63 122 1
135 64 123 1
136 65 124 1
137 68 125 1
138 68 126 1
139 68 127 1
140 69 128 1
141 69 129 1
142 69 130 1
@<TRIPOS>MOLECULE
Sketch 4
130 142
SMALL
USER_CHARGES


@<TRIPOS>ATOM
1 C13748 0.647714982666143 0.68146247741611 0.52865803378908 C.Trigonal 0.0 **** 0.0
2 C13749 0.654523796244685 0.691697661542239 0.541113372856215 C 0.0 **** 0.0
3 C13750 0.652122586040694 0.68769652734907 0.558010270607997 C.Trigonal 0.0 **** 0.0
4 C13751 0.642679321294739 0.673798300084529 0.562427403088003 C.Trigonal 0.0 **** 0.0
5 C13752 0.636065425625482 0.663393033275668 0.549967324716269 C 0.0 **** 0.0
6 C13753 0.638898238692555 0.667019055294606 0.533089443214144 C 0.0 **** 0.0
7 C13760 0.639475077387495 0.669528649240723 0.580929777048824 C 0.0 **** 0.0
8 C13761 0.648258742526812 0.680078881780416 0.594419499613791 C.Trigonal 0.0 **** 0.0
9 C13762 0.657852463974622 0.693803191826999 0.589997866523609 C.Trigonal 0.0 **** 0.0
10 C13763 0.659855590919311 0.698934922696166 0.571524812992916 C 0.0 **** 0.0
11 C13769 0.666094472520555 0.703392148522708 0.60223786267863 C 0.0 **** 0.0
12 C13770 0.665207580687017 0.699298489421661 0.619222138467587 C 0.0 **** 0.0
13 C13771 0.65452663738231 0.686042399809256 0.624181778851939 C.Trigonal 0.0 **** 0.0
14 C13772 0.646366149730087 0.676163027539336 0.611628244229073 C.Trigonal 0.0 **** 0.0
15 C13778 0.636092729694606 0.662713570984872 0.616767346670872 C 0.0 **** 0.0
16 C13779 0.633425455999402 0.658480689711694 0.633719490881275 C.Trigonal 0.0 **** 0.0
17 C13780 0.638953431695486 0.670484781531012 0.645912207917409 C.Trigonal 0.0 **** 0.0
18 C13781 0.65039452997052 0.683049091545408 0.641461466939562 C 0.0 **** 0.0
19 C13787 0.631831472396147 0.669078344532738 0.66376489608172 C.Trigonal 0.0 **** 0.0
20 C13788 0.621707919992296 0.65574473316326 0.667581600835534 C.Trigonal 0.0 **** 0.0
21 C13789 0.620661784212626 0.640680345110383 0.65583711540412 C.Trigonal 0.0 **** 0.0
22 C13790 0.626405094552022 0.642591112593982 0.63905191401179 C.Trigonal 0.0 **** 0.0
23 C13796 0.60985324365756 0.655832186040696 0.682752266073507 C 0.0 **** 0.0
24 C13797 0.606050431714566 0.673947159980177 0.688425270324114 C 0.0 **** 0.0
25 C13798 0.622797528647521 0.683256942569164 0.691889358371654 C 0.0 **** 0.0
26 C13799 0.632946624229838 0.684693488104515 0.675299526531151 C 0.0 **** 0.0
27 C13805 0.626559671401374 0.627934656798245 0.628466340385257 C 0.0 **** 0.0
28 C13806 0.619577657815684 0.612940991950937 0.634198655554137 C.Trigonal 0.0 **** 0.0
29 C13807 0.613483264066022 0.611646472915709 0.650471689863826 C.Trigonal 0.0 **** 0.0
30 C13808 0.615158790102054 0.625035555118249 0.661689446212604 C 0.0 **** 0.0
31 C13814 0.605120558313429 0.595613207154012 0.656564279683791 C 0.0 **** 0.0
32 C13815 0.604174611302292 0.581208415664243 0.644798209987047 C.Trigonal 0.0 **** 0.0
33 C13816 0.610935210133483 0.58206805842855 0.629109171925213 C.Trigonal 0.0 **** 0.0
34 C13817 0.619018053408365 0.597664568344085 0.62273569764535 C 0.0 **** 0.0
35 C13823 0.610397719723569 0.566963423892981 0.617265962154794 C 0.0 **** 0.0
36 C13824 0.594482589810015 0.555843551553446 0.620180243439391 C 0.0 **** 0.0
37 C13825 0.590153393648601 0.553191266289648 0.63878200495942 C.Trigonal 0.0 **** 0.0
38 C13826 0.595010909981255 0.565599873653429 0.650705426984041 C.Trigonal 0.0 **** 0.0
39 N13832 0.590194595738794 0.564583480638498 0.666874985998755 N 0.0 **** 0.0
40 C13833 0.579594199470082 0.552280415684859 0.671502051012156 C.Trigonal 0.0 **** 0.0
41 C13834 0.574812183484226 0.539040305003656 0.660463930049272 C.Trigonal 0.0 **** 0.0
42 C13835 0.580564928239092 0.539526826144174 0.644100847454597 C.Trigonal 0.0 **** 0.0
43 C13841 0.575536659084747 0.525866237855492 0.631448985348084 C 0.0 **** 0.0
44 C13842 0.568170757084087 0.510103384017935 0.640012735703594 C 0.0 **** 0.0
45 C13843 0.555151346451741 0.515175375509236 0.653312138913813 C 0.0 **** 0.0
46 C13844 0.563992405606419 0.524859139194098 0.667563506091576 C 0.0 **** 0.0
47 C13850 0.551368570913232 0.532038934864401 0.680732243562583 C 0.0 **** 0.0
48 C13851 0.560398642829546 0.543124701034142 0.693544093185124 C.Trigonal 0.0 **** 0.0
49 C13852 0.573958559341678 0.553304434722355 0.688327620875536 C.Trigonal 0.0 **** 0.0
50 C13857 0.58170870686617 0.564352184077188 0.700041953046576 C 0.0 **** 0.0
51 C13858 0.576445808618762 0.564463830181161 0.716533066435443 C 0.0 **** 0.0
52 C13859 0.563161220359162 0.554348759592477 0.721779348012323 C 0.0 **** 0.0
53 C13860 0.554786643420601 0.544100725072492 0.710088604176366 C 0.0 **** 0.0
54 C13866 0.632361783953624 0.655308109785912 0.519344302746292 C 0.0 **** 0.0
55 C13868 0.614894840931843 0.660966045734493 0.513180590858148 C 0.0 **** 0.0
56 C13870 0.64972541570998 0.685873680754009 0.510112654995685 C 0.0 **** 0.0
57 C13872 0.625923266498683 0.6478896535388 0.554790048171295 C 0.0 **** 0.0
58 C13874 0.664548473618018 0.707233609268792 0.536036923177867 C 0.0 **** 0.0
59 C13876 0.676547421945472 0.718593646532514 0.596750135074978 C 0.0 **** 0.0
60 C13878 0.675303687739526 0.710037235554001 0.631544696965487 C 0.0 **** 0.0
61 O13880 0.657686493886502 0.693115784275561 0.653527887149225 O 0.0 **** 0.0
62 C13882 0.633674030788606 0.674709735440909 0.70567507373622 C 0.0 **** 0.0
63 C13884 0.594369975288543 0.673614669766966 0.703950809910058 C 0.0 **** 0.0
64 O13886 0.611809929347423 0.623001711408075 0.678727821681152 O 0.0 **** 0.0
65 O13888 0.633732355223933 0.628893906353865 0.612737227610755 O 0.0 **** 0.0
66 O13890 0.62513108732144 0.598548470862414 0.608652886081098 O 0.0 **** 0.0
67 O13892 0.598984838678912 0.595667330265077 0.670682482405545 O 0.0 **** 0.0
68 C13894 0.539571546085509 0.534055248341086 0.715940859458633 C 0.0 **** 0.0
69 C13896 0.558075518135232 0.554983468226166 0.740199192797203 C 0.0 **** 0.0
70 H13898 0.625704150065979 0.670352347523328 0.583181966702068 H 0.0 **** 0.0
71 H13900 0.643173332970632 0.656206672737035 0.582869303554025 H 0.0 **** 0.0
72 H13902 0.673522347324225 0.699886957682367 0.568853315994609 H 0.0 **** 0.0
73 H13904 0.65445133271614 0.711717917393209 0.569999568823305 H 0.0 **** 0.0
74 H13906 0.629984563829198 0.655239641856526 0.60685350517612 H 0.0 **** 0.0
75 H13908 0.597658506310552 0.649851320705027 0.679577521249406 H 0.0 **** 0.0
76 H13910 0.615340586957057 0.648737315273936 0.693387777391546 H 0.0 **** 0.0
77 H13912 0.599335154511666 0.680567711571374 0.67816079985312 H 0.0 **** 0.0
78 H13914 0.619870225483314 0.696137876005448 0.696273436931155 H 0.0 **** 0.0
79 H13916 0.646045815140459 0.68741304659422 0.679011634496426 H 0.0 **** 0.0
80 H13918 0.628200096470126 0.69579914727987 0.66830858987847 H 0.0 **** 0.0
81 H13920 0.610650926384065 0.570814496566664 0.603841850688653 H 0.0 **** 0.0
82 H13922 0.621786532650349 0.559212384916918 0.619188126976952 H 0.0 **** 0.0
83 H13924 0.59658161691742 0.543795723104947 0.613594309447575 H 0.0 **** 0.0
84 H13926 0.583584522692711 0.561865530644558 0.613850709056427 H 0.0 **** 0.0
85 H13928 0.566033446559736 0.531099165896982 0.622654837648156 H 0.0 **** 0.0
86 H13930 0.586463617032129 0.522038356935 0.623728780645799 H 0.0 **** 0.0
87 H13932 0.57839995963377 0.502977815888951 0.646245123551157 H 0.0 **** 0.0
88 H13934 0.56258046980171 0.501624245272513 0.630467890515394 H 0.0 **** 0.0
89 H13936 0.548698748445591 0.503974840768855 0.658535225637724 H 0.0 **** 0.0
90 H13938 0.545282208619587 0.523100945238517 0.647444611814351 H 0.0 **** 0.0
91 H13940 0.572297208648024 0.515806715231834 0.674234287967709 H 0.0 **** 0.0
92 H13942 0.541492831190343 0.539467342897619 0.674231829216917 H 0.0 **** 0.0
93 H13944 0.544930356167961 0.521319946915646 0.6867996304538 H 0.0 **** 0.0
94 H13946 0.592255055665855 0.572510030266456 0.696124384118322 H 0.0 **** 0.0
95 H13948 0.582772606117126 0.572766909061429 0.725699147080809 H 0.0 **** 0.0
96 H13950 0.631734151875962 0.642131982104212 0.523762761102699 H 0.0 **** 0.0
97 H13952 0.64117243228629 0.654855806211658 0.508583932919382 H 0.0 **** 0.0
98 H13954 0.614855091593902 0.674290972442458 0.509227610396064 H 0.0 **** 0.0
99 H13956 0.605348418126592 0.659531665864642 0.523181391621574 H 0.0 **** 0.0
100 H13958 0.61081248740879 0.653451015988321 0.502234887983466 H 0.0 **** 0.0
101 H13960 0.656507950416544 0.697723751101566 0.507963579060231 H 0.0 **** 0.0
102 H13962 0.637351638395337 0.68747659118803 0.503963013761864 H 0.0 **** 0.0
103 H13964 0.656641237167532 0.675981952156424 0.503202041454241 H 0.0 **** 0.0
104 H13966 0.615165037790984 0.645977010292217 0.546232743517013 H 0.0 **** 0.0
105 H13968 0.620409944276374 0.64862106317466 0.567492274870233 H 0.0 **** 0.0
106 H13970 0.633862649026881 0.636464457847205 0.554334761834152 H 0.0 **** 0.0
107 H13972 0.668402221549871 0.715214191952716 0.546684414778232 H 0.0 **** 0.0
108 H13974 0.657100215452134 0.715424679627474 0.527617469497932 H 0.0 **** 0.0
109 H13976 0.676173540906535 0.703707037517924 0.52926600493898 H 0.0 **** 0.0
110 H13978 0.690139429875323 0.715864515055584 0.597657524775308 H 0.0 **** 0.0
111 H13980 0.673852027452495 0.729703241842536 0.604686747464441 H 0.0 **** 0.0
112 H13982 0.674237411092165 0.72274551083914 0.583740770717825 H 0.0 **** 0.0
113 H13984 0.68251883652602 0.702114299284801 0.640438580862341 H 0.0 **** 0.0
114 H13986 0.667025618536391 0.718538927262812 0.638839815717063 H 0.0 **** 0.0
115 H13988 0.684841978160646 0.71809628153637 0.625553245420405 H 0.0 **** 0.0
116 H13990 0.657975791004963 0.686902065669207 0.663735642155162 H 0.0 **** 0.0
117 H13992 0.626577015190347 0.673607272254996 0.71756536941299 H 0.0 **** 0.0
118 H13994 0.645023210905543 0.682324726721889 0.70826166147636 H 0.0 **** 0.0
119 H13996 0.637834033918202 0.662036013043611 0.701755817656811 H 0.0 **** 0.0
120 H13998 0.582417875730845 0.667203504165819 0.700855456992124 H 0.0 **** 0.0
121 H14000 0.591338961240859 0.686517232932543 0.708029544222532 H 0.0 **** 0.0
122 H14002 0.600297447463977 0.666829962363704 0.714510056030512 H 0.0 **** 0.0
123 H14004 0.604659053041996 0.613302310557005 0.680094965596347 H 0.0 **** 0.0
124 H14006 0.633405787256582 0.617994296863555 0.60751226142637 H 0.0 **** 0.0
125 H14008 0.53002491175039 0.532605976906341 0.705956377913689 H 0.0 **** 0.0
126 H14010 0.532993846129301 0.540233170135238 0.726501493843473 H 0.0 **** 0.0
127 H14012 0.543283420796441 0.521359241583123 0.720244322378058 H 0.0 **** 0.0
128 H14014 0.545779423747397 0.561287324011812 0.741895521520719 H 0.0 **** 0.0
129 H14016 0.567364996790129 0.561920126605326 0.747844911930096 H 0.0 **** 0.0
130 H14018 0.557112302599874 0.542217384180927 0.745659044642333 H 0.0 **** 0.0
@<TRIPOS>BOND
1 3 2 Aromatic
2 4 3 Aromatic
3 5 4 Aromatic
4 6 5 Aromatic
5 1 2 Aromatic
6 1 6 Aromatic
7 8 7 1
8 9 8 Aromatic
9 10 9 1
10 4 7 1
11 3 10 1
12 12 11 Aromatic
13 13 12 Aromatic
14 14 13 Aromatic
15 9 11 Aromatic
16 8 14 Aromatic
17 16 15 Aromatic
18 17 16 Aromatic
19 18 17 Aromatic
20 14 15 Aromatic
21 13 18 Aromatic
22 20 19 1
23 21 20 1
24 22 21 Aromatic
25 17 19 1
26 16 22 Aromatic
27 24 23 1
28 25 24 Aromatic
29 26 25 1
30 20 23 1
31 19 26 1
32 28 27 Aromatic
33 29 28 Aromatic
34 30 29 Aromatic
35 22 27 Aromatic
36 21 30 Aromatic
37 32 31 1
38 33 32 Aromatic
39 34 33 1
40 29 31 1
41 28 34 1
42 36 35 1
43 37 36 1
44 38 37 Aromatic
45 33 35 1
46 32 38 Aromatic
47 40 39 Aromatic
48 41 40 Aromatic
49 42 41 Aromatic
50 38 39 Aromatic
51 37 42 Aromatic
52 44 43 1
53 45 44 1
54 46 45 1
55 42 43 1
56 41 46 1
57 48 47 1
58 49 48 Aromatic
59 40 49 Aromatic
60 46 47 1
61 51 50 Aromatic
62 52 51 Aromatic
63 53 52 Aromatic
64 49 50 Aromatic
65 48 53 Aromatic
66 6 54 1
67 54 55 1
68 1 56 1
69 5 57 1
70 2 58 1
71 11 59 1
72 12 60 1
73 18 61 1
74 25 62 1
75 24 63 1
76 30 64 1
77 27 65 1
78 34 66 Double
79 31 67 Double
80 53 68 1
81 52 69 1
82 7 70 1
83 7 71 1
84 10 72 1
85 10 73 1
86 15 74 1
87 23 75 1
88 23 76 1
89 24 77 1
90 25 78 1
91 26 79 1
92 26 80 1
93 35 81 1
94 35 82 1
95 36 83 1
96 36 84 1
97 43 85 1
98 43 86 1
99 44 87 1
100 44 88 1
101 45 89 1
102 45 90 1
103 46 91 1
104 47 92 1
105 47 93 1
106 50 94 1
107 51 95 1
108 54 96 1
109 54 97 1
110 55 98 1
111 55 99 1
112 55 100 1
113 56 101 1
114 56 102 1
115 56 103 1
116 57 104 1
117 57 105 1
118 57 106 1
119 58 107 1
120 58 108 1
121 58 109 1
122 59 110 1
123 59 111 1
124 59 112 1
125 60 113 1
126 60 114 1
127 60 115 1
128 61 116 1
129 62 117 1
130 62 118 1
131 62 119 1
132 63 120 1
133 63 121 1
134 63 122 1
135 64 123 1
136 65 124 1
137 68 125 1
138 68 126 1
139 68 127 1
140 69 128 1
141 69 129 1
142 69 130 1
@<TRIPOS>MOLECULE
Sketch 4
130 142
SMALL
USER_CHARGES


@<TRIPOS>ATOM
1 C14020 0.161501493897964 0.936977604863182 0.618874493101562 C.Trigonal 0.0 **** 0.0
2 C14021 0.165728812060155 0.920055677682422 0.62030401651773 C 0.0 **** 0.0
3 C14022 0.169363388584425 0.913267681797817 0.63602530097596 C.Trigonal 0.0 **** 0.0
4 C14023 0.170258446992078 0.92360740214416 0.649972456363465 C.Trigonal 0.0 **** 0.0
5 C14024 0.167364254671899 0.940815164574384 0.648376983627696 C 0.0 **** 0.0
6 C14025 0.162402908649003 0.947407728421761 0.632929919804718 C 0.0 **** 0.0
7 C14032 0.174845463357397 0.915925617086047 0.666994244274333 C 0.0 **** 0.0
8 C14033 0.16965005843358 0.897540064071261 0.669377556744702 C.Trigonal 0.0 **** 0.0
9 C14034 0.1683505687099 0.887273288116282 0.655452265297058 C.Trigonal 0.0 **** 0.0
10 C14035 0.172655178112392 0.89443095993743 0.638067846036871 C 0.0 **** 0.0
11 C14041 0.163185281164688 0.87052569137459 0.657026837602509 C 0.0 **** 0.0
12 C14042 0.157718137706526 0.864154011527363 0.672385755444044 C 0.0 **** 0.0
13 C14043 0.160327597716628 0.873896664395443 0.686980635448994 C.Trigonal 0.0 **** 0.0
14 C14044 0.167093706004212 0.890450062666983 0.685421428005038 C.Trigonal 0.0 **** 0.0
15 C14050 0.171047402348216 0.899547093196407 0.700102993977693 C 0.0 **** 0.0
16 C14051 0.166987054853192 0.894032636922344 0.716347437352061 C.Trigonal 0.0 **** 0.0
17 C14052 0.162258097367594 0.87683678655962 0.717616521009079 C.Trigonal 0.0 **** 0.0
18 C14053 0.157380007406807 0.86751803454523 0.703557124797583 C 0.0 **** 0.0
19 C14059 0.160085342318783 0.869663179475304 0.735101879512107 C.Trigonal 0.0 **** 0.0
20 C14060 0.155749589223302 0.880160819216276 0.747920488731296 C.Trigonal 0.0 **** 0.0
21 C14061 0.154484902108223 0.898925934517962 0.744509390473806 C.Trigonal 0.0 **** 0.0
22 C14062 0.16316525562245 0.905400947344346 0.730329524201836 C.Trigonal 0.0 **** 0.0
23 C14068 0.153652319570841 0.874067744875537 0.766104747780981 C 0.0 **** 0.0
24 C14069 0.162542704484858 0.857028507421632 0.768999966535624 C 0.0 **** 0.0
25 C14070 0.158180695206707 0.84445211682055 0.754736870580822 C 0.0 **** 0.0
26 C14071 0.165698859039297 0.851415118909559 0.73824634646128 C 0.0 **** 0.0
27 C14077 0.163563773289904 0.923228164509404 0.728545921328688 C 0.0 **** 0.0
28 C14078 0.152150733513078 0.933140315780833 0.737442583630331 C.Trigonal 0.0 **** 0.0
29 C14079 0.141924027691562 0.926136006876017 0.74970710056561 C.Trigonal 0.0 **** 0.0
30 C14080 0.143449338863265 0.909124311655777 0.75377601224032 C 0.0 **** 0.0
31 C14086 0.128859820052041 0.936793402175327 0.758722676815326 C 0.0 **** 0.0
32 C14087 0.126755029944943 0.954505113413887 0.753197649940034 C.Trigonal 0.0 **** 0.0
33 C14088 0.13712563676253 0.961440771995541 0.741477025788735 C.Trigonal 0.0 **** 0.0
34 C14089 0.150742010765241 0.951702481450356 0.733376060625497 C 0.0 **** 0.0
35 C14095 0.135276389113779 0.979814193891017 0.736177594044069 C 0.0 **** 0.0
36 C14096 0.116493358745377 0.985285605527031 0.736385219381399 C 0.0 **** 0.0
37 C14097 0.107431944872382 0.979743644068715 0.752435417408639 C.Trigonal 0.0 **** 0.0
38 C14098 0.112678925846854 0.964841860897375 0.760851601567685 C.Trigonal 0.0 **** 0.0
39 N14104 0.104945009811002 0.959499434973342 0.774949520181247 N 0.0 **** 0.0
40 C14105 0.0919893544409393 0.968555734752771 0.781015679019111 C.Trigonal 0.0 **** 0.0
41 C14106 0.0854803296913868 0.982992367256873 0.772638158827656 C.Trigonal 0.0 **** 0.0
42 C14107 0.0934474905705912 0.988438275241253 0.7582690205381 C.Trigonal 0.0 **** 0.0
43 C14113 0.0871771604916825 1.00392266331592 0.748664621434976 C 0.0 **** 0.0
44 C14114 0.0691134490094586 1.00899605487967 0.753524430865429 C 0.0 **** 0.0
45 C14115 0.0673333119990059 1.00905576971605 0.772723503950225 C 0.0 **** 0.0
46 C14116 0.0693600538531698 0.990975612038958 0.779348908120396 C 0.0 **** 0.0
47 C14122 0.0692681914882113 0.989826002387396 0.798833168918277 C 0.0 **** 0.0
48 C14123 0.0722280526948584 0.971658490478849 0.804185799383023 C.Trigonal 0.0 **** 0.0
49 C14124 0.0842228353248412 0.961842601646672 0.795523079030094 C.Trigonal 0.0 **** 0.0
50 C14129 0.0874107032661186 0.945113633793997 0.800924899132996 C 0.0 **** 0.0
51 C14130 0.0784703243333582 0.93855978928235 0.814230729068955 C 0.0 **** 0.0
52 C14131 0.0665744800443393 0.948182109155457 0.822760335397273 C 0.0 **** 0.0
53 C14132 0.063643202938671 0.964866059747714 0.817827626204013 C 0.0 **** 0.0
54 C14138 0.158173125605147 0.966082707762016 0.631372071633739 C 0.0 **** 0.0
55 C14140 0.17381171740809 0.976230464775791 0.626081530621621 C 0.0 **** 0.0
56 C14142 0.156119922164705 0.944160367496233 0.60191270535175 C 0.0 **** 0.0
57 C14144 0.169318738743943 0.952164441094939 0.663707900486802 C 0.0 **** 0.0
58 C14146 0.166151922902785 0.908852085233895 0.604793226165061 C 0.0 **** 0.0
59 C14148 0.162967729100572 0.859471705980361 0.64128362345338 C 0.0 **** 0.0
60 C14150 0.14985467612915 0.846655949599235 0.67255455405628 C 0.0 **** 0.0
61 O14152 0.1497588710577 0.852077989893828 0.705464321289926 O 0.0 **** 0.0
62 C14154 0.139013107842789 0.84141124616729 0.752591129683311 C 0.0 **** 0.0
63 C14156 0.158305971315334 0.849833338435189 0.786529602418953 C 0.0 **** 0.0
64 O14158 0.133896293692525 0.901792290734614 0.766349716734377 O 0.0 **** 0.0
65 O14160 0.174327875944635 0.930407481615702 0.717009042014601 O 0.0 **** 0.0
66 O14162 0.160603379966803 0.958183371352515 0.723494149064502 O 0.0 **** 0.0
67 O14164 0.120506868901827 0.93016024292311 0.769823178450547 O 0.0 **** 0.0
68 C14166 0.0509963303747443 0.975594716295377 0.82742234031543 C 0.0 **** 0.0
69 C14168 0.057276950072332 0.940036891623701 0.837346198868268 C 0.0 **** 0.0
70 H14170 0.18858117547317 0.917248100328556 0.669089662797149 H 0.0 **** 0.0
71 H14172 0.168500782490103 0.923421273157603 0.676805417255664 H 0.0 **** 0.0
72 H14174 0.164877602146765 0.887813965843958 0.628672236623332 H 0.0 **** 0.0
73 H14176 0.18599741651639 0.891589628249383 0.635008667576056 H 0.0 **** 0.0
74 H14178 0.176170513149749 0.912132296812288 0.697960672082301 H 0.0 **** 0.0
75 H14180 0.158859290203662 0.883328906649297 0.775132857262837 H 0.0 **** 0.0
76 H14182 0.140115722945661 0.872593394204331 0.769004384146138 H 0.0 **** 0.0
77 H14184 0.17622496838319 0.85927690096416 0.768689194511422 H 0.0 **** 0.0
78 H14186 0.16428821985773 0.832247671329388 0.757531058102417 H 0.0 **** 0.0
79 H14188 0.162836759188267 0.842424043631671 0.728105168406272 H 0.0 **** 0.0
80 H14190 0.179596642388466 0.85131146869947 0.739324044343131 H 0.0 **** 0.0
81 H14192 0.1425597725705 0.98795805060701 0.744807340755231 H 0.0 **** 0.0
82 H14194 0.140383303397362 0.982188312664751 0.723396398623443 H 0.0 **** 0.0
83 H14196 0.109989192418397 0.979945107748289 0.725247337884071 H 0.0 **** 0.0
84 H14198 0.116127730432732 0.999118453281951 0.734958628377106 H 0.0 **** 0.0
85 H14200 0.0956968520721215 1.01467646700175 0.751269821149548 H 0.0 **** 0.0
86 H14202 0.0876623767356959 1.00165118703013 0.734961157998354 H 0.0 **** 0.0
87 H14204 0.0600140213576963 0.999938771024384 0.7480841696623 H 0.0 **** 0.0
88 H14206 0.0660242654043854 1.02145104130554 0.748077823916649 H 0.0 **** 0.0
89 H14208 0.054990148325024 1.0142156756395 0.776627979526845 H 0.0 **** 0.0
90 H14210 0.077110681276185 1.01735476793083 0.778202597821651 H 0.0 **** 0.0
91 H14212 0.0584829311116856 0.983540742352376 0.774615360925921 H 0.0 **** 0.0
92 H14214 0.0792561906929712 0.998003091820675 0.80415387347353 H 0.0 **** 0.0
93 H14216 0.0571643026890008 0.994802350403529 0.8034889047983 H 0.0 **** 0.0
94 H14218 0.096616758988751 0.937182680992842 0.794184970542617 H 0.0 **** 0.0
95 H14220 0.080831001075272 0.925482103659582 0.818278953168388 H 0.0 **** 0.0
96 H14222 0.153142389435463 0.971110451426924 0.643334495961563 H 0.0 **** 0.0
97 H14224 0.147927835889567 0.968270714249924 0.622236160455896 H 0.0 **** 0.0
98 H14226 0.178923050457779 0.971731229394884 0.613951312518391 H 0.0 **** 0.0
99 H14228 0.183905350270516 0.975189939445562 0.635578027244416 H 0.0 **** 0.0
100 H14230 0.170834641821504 0.989742841264808 0.624622376938185 H 0.0 **** 0.0
101 H14232 0.15307867661235 0.934413991126175 0.592528955402956 H 0.0 **** 0.0
102 H14234 0.166052435169217 0.952219412970471 0.596418856610203 H 0.0 **** 0.0
103 H14236 0.144525945244739 0.951744016014386 0.603020578812097 H 0.0 **** 0.0
104 H14238 0.172976080426532 0.965130285521599 0.660376538887999 H 0.0 **** 0.0
105 H14240 0.179323325684346 0.947638050963325 0.672208141126894 H 0.0 **** 0.0
106 H14242 0.157479590364477 0.952832259835223 0.67102485685321 H 0.0 **** 0.0
107 H14244 0.153493257828102 0.903942949021117 0.601712671578555 H 0.0 **** 0.0
108 H14246 0.17464510046444 0.8980023003644 0.606469870998347 H 0.0 **** 0.0
109 H14248 0.171035934419881 0.91555326617293 0.593638641611562 H 0.0 **** 0.0
110 H14250 0.150596697011498 0.860013973890572 0.634907338297481 H 0.0 **** 0.0
111 H14252 0.165759929291615 0.846170026010826 0.644129148775721 H 0.0 **** 0.0
112 H14254 0.172728381121002 0.863131242014894 0.63209612283113 H 0.0 **** 0.0
113 H14256 0.158363921614307 0.837303779654218 0.678372285158944 H 0.0 **** 0.0
114 H14258 0.146483246801385 0.841891228911455 0.659989244014241 H 0.0 **** 0.0
115 H14260 0.137802068271711 0.846570865078093 0.679513091919263 H 0.0 **** 0.0
116 H14262 0.146374829861769 0.851060884730559 0.716917958311623 H 0.0 **** 0.0
117 H14264 0.133342023049856 0.836957460451719 0.764436353399826 H 0.0 **** 0.0
118 H14266 0.136713732346909 0.831753552451144 0.742848029097763 H 0.0 **** 0.0
119 H14268 0.132382978259982 0.853024940120528 0.748793783726904 H 0.0 **** 0.0
120 H14270 0.161393482053419 0.859111253062515 0.796414254201106 H 0.0 **** 0.0
121 H14272 0.165768430615257 0.838351045783073 0.788904028807076 H 0.0 **** 0.0
122 H14274 0.144825243925388 0.846689935373338 0.787503752725268 H 0.0 **** 0.0
123 H14276 0.126526197719787 0.910144316169597 0.77102800177995 H 0.0 **** 0.0
124 H14278 0.171748453498885 0.942155788325249 0.716094001177048 H 0.0 **** 0.0
125 H14280 0.0564994123619002 0.987859060144737 0.831059954353773 H 0.0 **** 0.0
126 H14282 0.0466592326906723 0.969688153094989 0.839191165958129 H 0.0 **** 0.0
127 H14284 0.0396819460578914 0.978122125461048 0.8197052603935 H 0.0 **** 0.0
128 H14286 0.0604047397952016 0.926558151121876 0.838536958691887 H 0.0 **** 0.0
129 H14288 0.0434802185440594 0.940852428914724 0.835703405358086 H 0.0 **** 0.0
130 H14290 0.0605522957812272 0.946077991369647 0.849460233788513 H 0.0 **** 0.0
@<TRIPOS>BOND
1 3 2 Aromatic
2 4 3 Aromatic
3 5 4 Aromatic
4 6 5 Aromatic
5 1 2 Aromatic
6 1 6 Aromatic
7 8 7 1
8 9 8 Aromatic
9 10 9 1
10 4 7 1
11 3 10 1
12 12 11 Aromatic
13 13 12 Aromatic
14 14 13 Aromatic
15 9 11 Aromatic
16 8 14 Aromatic
17 16 15 Aromatic
18 17 16 Aromatic
19 18 17 Aromatic
20 14 15 Aromatic
21 13 18 Aromatic
22 20 19 1
23 21 20 1
24 22 21 Aromatic
25 17 19 1
26 16 22 Aromatic
27 24 23 1
28 25 24 Aromatic
29 26 25 1
30 20 23 1
31 19 26 1
32 28 27 Aromatic
33 29 28 Aromatic
34 30 29 Aromatic
35 22 27 Aromatic
36 21 30 Aromatic
37 32 31 1
38 33 32 Aromatic
39 34 33 1
40 29 31 1
41 28 34 1
42 36 35 1
43 37 36 1
44 38 37 Aromatic
45 33 35 1
46 32 38 Aromatic
47 40 39 Aromatic
48 41 40 Aromatic
49 42 41 Aromatic
50 38 39 Aromatic
51 37 42 Aromatic
52 44 43 1
53 45 44 1
54 46 45 1
55 42 43 1
56 41 46 1
57 48 47 1
58 49 48 Aromatic
59 40 49 Aromatic
60 46 47 1
61 51 50 Aromatic
62 52 51 Aromatic
63 53 52 Aromatic
64 49 50 Aromatic
65 48 53 Aromatic
66 6 54 1
67 54 55 1
68 1 56 1
69 5 57 1
70 2 58 1
71 11 59 1
72 12 60 1
73 18 61 1
74 25 62 1
75 24 63 1
76 30 64 1
77 27 65 1
78 34 66 Double
79 31 67 Double
80 53 68 1
81 52 69 1
82 7 70 1
83 7 71 1
84 10 72 1
85 10 73 1
86 15 74 1
87 23 75 1
88 23 76 1
89 24 77 1
90 25 78 1
91 26 79 1
92 26 80 1
93 35 81 1
94 35 82 1
95 36 83 1
96 36 84 1
97 43 85 1
98 43 86 1
99 44 87 1
100 44 88 1
101 45 89 1
102 45 90 1
103 46 91 1
104 47 92 1
105 47 93 1
106 50 94 1
107 51 95 1
108 54 96 1
109 54 97 1
110 55 98 1
111 55 99 1
112 55 100 1
113 56 101 1
114 56 102 1
115 56 103 1
116 57 104 1
117 57 105 1
118 57 106 1
119 58 107 1
120 58 108 1
121 58 109 1
122 59 110 1
123 59 111 1
124 59 112 1
125 60 113 1
126 60 114 1
127 60 115 1
128 61 116 1
129 62 117 1
130 62 118 1
131 62 119 1
132 63 120 1
133 63 121 1
134 63 122 1
135 64 123 1
136 65 124 1
137 68 125 1
138 68 126 1
139 68 127 1
140 69 128 1
141 69 129 1
142 69 130 1
@<TRIPOS>MOLECULE
Sketch 4
130 142
SMALL
USER_CHARGES


@<TRIPOS>ATOM
1 C14292 0.675359230524076 0.241860569396584 0.472860237738574 C.Trigonal 0.0 **** 0.0
2 C14293 0.669549195882202 0.227757641052733 0.481476233863836 C 0.0 **** 0.0
3 C14294 0.661759623396756 0.229706994162193 0.497006918212848 C.Trigonal 0.0 **** 0.0
4 C14295 0.661404851764256 0.245305503890512 0.504690978284707 C.Trigonal 0.0 **** 0.0
5 C14296 0.668155333806621 0.259262590347459 0.496544307341295 C 0.0 **** 0.0
6 C14297 0.674250445180141 0.257692114546078 0.480200254770679 C 0.0 **** 0.0
7 C14304 0.653541503689577 0.246788541666636 0.522167252760842 C 0.0 **** 0.0
8 C14305 0.638889209240404 0.234705258744677 0.525253228738161 C.Trigonal 0.0 **** 0.0
9 C14306 0.638802382739338 0.219337057063439 0.517151173574287 C.Trigonal 0.0 **** 0.0
10 C14307 0.653715266474695 0.214702326416852 0.505860069914305 C 0.0 **** 0.0
11 C14313 0.625356805894539 0.208189979869918 0.51916793936183 C 0.0 **** 0.0
12 C14314 0.611353858456244 0.212590813247089 0.528740736875566 C 0.0 **** 0.0
13 C14315 0.612488528436904 0.226778133377876 0.539330558991287 C.Trigonal 0.0 **** 0.0
14 C14316 0.62637931743401 0.23801113389868 0.537362544128017 C.Trigonal 0.0 **** 0.0
15 C14322 0.628552278810225 0.250862821896963 0.549222279571711 C 0.0 **** 0.0
16 C14323 0.621014540283503 0.250260040869033 0.565256287632456 C.Trigonal 0.0 **** 0.0
17 C14324 0.607325735402142 0.238726874330111 0.567214452266007 C.Trigonal 0.0 **** 0.0
18 C14325 0.60195410515707 0.228760621706397 0.553820067423646 C 0.0 **** 0.0
19 C14331 0.59902199955745 0.237484045836176 0.584441110177874 C.Trigonal 0.0 **** 0.0
20 C14332 0.602702276240305 0.24929220158494 0.596314729198939 C.Trigonal 0.0 **** 0.0
21 C14333 0.614502420556689 0.263633255007492 0.592404210272227 C.Trigonal 0.0 **** 0.0
22 C14334 0.625721819458456 0.261465000595186 0.578874889293908 C.Trigonal 0.0 **** 0.0
23 C14340 0.600657711345668 0.245195772008532 0.614940673092865 C 0.0 **** 0.0
24 C14341 0.605410846844348 0.226399382743572 0.616841270223592 C 0.0 **** 0.0
25 C14342 0.592237437844643 0.215250636894053 0.607700929056002 C 0.0 **** 0.0
26 C14343 0.589979348954817 0.220906136427759 0.58907555445684 C 0.0 **** 0.0
27 C14349 0.639683010994979 0.272621635112145 0.578151666245498 C 0.0 **** 0.0
28 C14350 0.639499142295744 0.28727571253471 0.58780962871562 C.Trigonal 0.0 **** 0.0
29 C14351 0.626093975414555 0.291005325776305 0.598394006937016 C.Trigonal 0.0 **** 0.0
30 C14352 0.613484769916606 0.279038056331505 0.600968333420943 C 0.0 **** 0.0
31 C14358 0.625457769702626 0.307672546866323 0.607819420851182 C 0.0 **** 0.0
32 C14359 0.640309875309616 0.319007142881006 0.606459265720441 C.Trigonal 0.0 **** 0.0
33 C14360 0.653596379977096 0.314943513166652 0.596435022543316 C.Trigonal 0.0 **** 0.0
34 C14361 0.654111167859575 0.299323702623667 0.586473466624931 C 0.0 **** 0.0
35 C14367 0.668855762262309 0.326473912545288 0.594779493171619 C 0.0 **** 0.0
36 C14368 0.672069538025364 0.335558552548906 0.611641456997622 C 0.0 **** 0.0
37 C14369 0.656091107217792 0.344399454689274 0.61748479231559 C.Trigonal 0.0 **** 0.0
38 C14370 0.640541828837555 0.335540212425854 0.616032232688166 C.Trigonal 0.0 **** 0.0
39 N14376 0.626353863170239 0.341585471371015 0.622982659359519 N 0.0 **** 0.0
40 C14377 0.62707843226392 0.356562803830062 0.630928596024373 C.Trigonal 0.0 **** 0.0
41 C14378 0.64162788098027 0.366976706369444 0.630761762497245 C.Trigonal 0.0 **** 0.0
42 C14379 0.656291055447275 0.360490988990936 0.624211616392917 C.Trigonal 0.0 **** 0.0
43 C14385 0.672631164577448 0.370675822765761 0.624533248923852 C 0.0 **** 0.0
44 C14386 0.669437300855106 0.389668012548652 0.626632828550271 C 0.0 **** 0.0
45 C14387 0.657391854499124 0.392618507439175 0.641340273193768 C 0.0 **** 0.0
46 C14388 0.640064452671708 0.384904150130781 0.63744829298045 C 0.0 **** 0.0
47 C14394 0.628552882884388 0.385291723752814 0.653240170241229 C 0.0 **** 0.0
48 C14395 0.612659630797545 0.374832307753502 0.650909225985215 C.Trigonal 0.0 **** 0.0
49 C14396 0.612263542478332 0.361134501381399 0.639623627581141 C.Trigonal 0.0 **** 0.0
50 C14401 0.5974069504063 0.351327243735414 0.638259504762836 C 0.0 **** 0.0
51 C14402 0.583755966600267 0.35495862292453 0.648259334617992 C 0.0 **** 0.0
52 C14403 0.584390169355109 0.367957850302987 0.659958126851855 C 0.0 **** 0.0
53 C14404 0.598947486622306 0.377790065118331 0.661371798158312 C 0.0 **** 0.0
54 C14410 0.679726656667981 0.273299404551773 0.470466196127761 C 0.0 **** 0.0
55 C14412 0.69892375067255 0.275511400158596 0.471363369221795 C 0.0 **** 0.0
56 C14414 0.68272051848 0.239327344444768 0.455400675453815 C 0.0 **** 0.0
57 C14416 0.668307420708136 0.276219288348919 0.505448302700053 C 0.0 **** 0.0
58 C14418 0.670998718934684 0.210292816927789 0.473666989561775 C 0.0 **** 0.0
59 C14420 0.6259539497677 0.191184499337578 0.510221461196024 C 0.0 **** 0.0
60 C14422 0.596300459628291 0.200721867182625 0.528511966147545 C 0.0 **** 0.0
61 O14424 0.587320527829475 0.219500133842614 0.554901873110483 O 0.0 **** 0.0
62 C14426 0.574969822574647 0.21476899938682 0.616775218511716 C 0.0 **** 0.0
63 C14428 0.607772923874514 0.221190921062753 0.635338578876668 C 0.0 **** 0.0
64 O14430 0.600099162519103 0.281548851715719 0.61179672680424 O 0.0 **** 0.0
65 O14432 0.652878733335191 0.269011667169391 0.567489551413865 O 0.0 **** 0.0
66 O14434 0.666055749759571 0.295874001507341 0.577412708552525 O 0.0 **** 0.0
67 O14436 0.61280912129991 0.310849059535527 0.615975255054281 O 0.0 **** 0.0
68 C14438 0.599437009486173 0.391668217985769 0.674601910400628 C 0.0 **** 0.0
69 C14440 0.569267673560966 0.370679105785493 0.671255327963791 C 0.0 **** 0.0
70 H14442 0.663335569899811 0.244906032879942 0.531966451968604 H 0.0 **** 0.0
71 H14444 0.648794995938057 0.25973549049272 0.523660101523253 H 0.0 **** 0.0
72 H14446 0.649320402702404 0.20590644266388 0.496086633505468 H 0.0 **** 0.0
73 H14448 0.663352802918399 0.207895325612503 0.51335859214362 H 0.0 **** 0.0
74 H14450 0.638492317847623 0.26006916299414 0.5467135777044 H 0.0 **** 0.0
75 H14452 0.6092715919595 0.252686998638488 0.622927093311219 H 0.0 **** 0.0
76 H14454 0.587738645471036 0.247732314625298 0.619367328279095 H 0.0 **** 0.0
77 H14456 0.617713728068264 0.224480348512667 0.610632568521946 H 0.0 **** 0.0
78 H14458 0.5970931608564 0.202210037910601 0.6076493705133 H 0.0 **** 0.0
79 H14460 0.5764090192551 0.22208875774828 0.58620351390557 H 0.0 **** 0.0
80 H14462 0.594782078831617 0.210397459388397 0.581323272638789 H 0.0 **** 0.0
81 H14464 0.680423408697588 0.319574404017958 0.591151790637233 H 0.0 **** 0.0
82 H14466 0.666617596986169 0.335876661539963 0.584803471989817 H 0.0 **** 0.0
83 H14468 0.682900026753629 0.344080831408703 0.610163240687665 H 0.0 **** 0.0
84 H14470 0.675927082167749 0.326179100395922 0.621234235612305 H 0.0 **** 0.0
85 H14472 0.680679481291392 0.366229337314787 0.635030724678563 H 0.0 **** 0.0
86 H14474 0.679851736346739 0.368767656053224 0.612827816166504 H 0.0 **** 0.0
87 H14476 0.663792530773004 0.394829104584553 0.614984011254528 H 0.0 **** 0.0
88 H14478 0.681491023882218 0.396395536613532 0.628567208706941 H 0.0 **** 0.0
89 H14480 0.656061433046948 0.406202881785424 0.644167894435976 H 0.0 **** 0.0
90 H14482 0.662705545190488 0.386684499260408 0.652762068976703 H 0.0 **** 0.0
91 H14484 0.634024300798619 0.392675537380995 0.627513016417645 H 0.0 **** 0.0
92 H14486 0.63569631287613 0.380319224674788 0.664105561856226 H 0.0 **** 0.0
93 H14488 0.625571139051966 0.398584934682035 0.656079772146354 H 0.0 **** 0.0
94 H14490 0.596901725170735 0.340444637781695 0.629623219311818 H 0.0 **** 0.0
95 H14492 0.57227893432126 0.347210342710656 0.647186536111775 H 0.0 **** 0.0
96 H14494 0.673446043548592 0.284748401606376 0.475244850426941 H 0.0 **** 0.0
97 H14496 0.675611999181084 0.272559948259243 0.457183949755437 H 0.0 **** 0.0
98 H14498 0.705483497688999 0.264858754764062 0.46532714250603 H 0.0 **** 0.0
99 H14500 0.703284365108904 0.276212697963136 0.484551568655966 H 0.0 **** 0.0
100 H14502 0.703019858306886 0.28711048353124 0.464881640073343 H 0.0 **** 0.0
101 H14504 0.686642220898236 0.250943263633915 0.449000920985321 H 0.0 **** 0.0
102 H14506 0.673543851677737 0.233104606133859 0.447008698541709 H 0.0 **** 0.0
103 H14508 0.694014824618088 0.231277265521673 0.456102974547439 H 0.0 **** 0.0
104 H14510 0.670402327366721 0.27480089256551 0.519118334471232 H 0.0 **** 0.0
105 H14512 0.656276465093931 0.282985333488509 0.503555459514177 H 0.0 **** 0.0
106 H14514 0.6785772985446 0.284452667976145 0.501063624613453 H 0.0 **** 0.0
107 H14516 0.659512825575556 0.207067575854663 0.466482055695338 H 0.0 **** 0.0
108 H14518 0.672900030282189 0.200452818480002 0.483301366796603 H 0.0 **** 0.0
109 H14520 0.681849435560821 0.209139681438669 0.465098945833179 H 0.0 **** 0.0
110 H14522 0.620706486442764 0.192073193210086 0.49734175882425 H 0.0 **** 0.0
111 H14524 0.618931497343141 0.181344199431302 0.517067593825484 H 0.0 **** 0.0
112 H14526 0.63888450999071 0.186185046042929 0.509275973352609 H 0.0 **** 0.0
113 H14528 0.596460310650907 0.192068385171926 0.539419986474895 H 0.0 **** 0.0
114 H14530 0.595690233536363 0.193021711215441 0.516978544568422 H 0.0 **** 0.0
115 H14532 0.584253579283801 0.20767282532774 0.528534921783648 H 0.0 **** 0.0
116 H14534 0.581175042684959 0.223601832332426 0.564324819700343 H 0.0 **** 0.0
117 H14536 0.576168399472573 0.208879413631523 0.629311426309377 H 0.0 **** 0.0
118 H14538 0.565869991574836 0.207176629994835 0.609496763753725 H 0.0 **** 0.0
119 H14540 0.569737511767102 0.227514401377731 0.618382721083613 H 0.0 **** 0.0
120 H14542 0.617408591731757 0.22912635046786 0.641469751138463 H 0.0 **** 0.0
121 H14544 0.611851838661462 0.20793504476866 0.636210332046619 H 0.0 **** 0.0
122 H14546 0.595905312374712 0.222521962330432 0.642241636787126 H 0.0 **** 0.0
123 H14548 0.600837841180286 0.292761745725317 0.616288621622072 H 0.0 **** 0.0
124 H14550 0.661203543337458 0.277693601183917 0.568491067854131 H 0.0 **** 0.0
125 H14552 0.612294223811825 0.394453343223002 0.679005137798525 H 0.0 **** 0.0
126 H14554 0.592329045522196 0.388158496442761 0.686015203505603 H 0.0 **** 0.0
127 H14556 0.594002365009965 0.403514109628666 0.669666746812824 H 0.0 **** 0.0
128 H14558 0.57101687567744 0.364323429788947 0.683490840104275 H 0.0 **** 0.0
129 H14560 0.557684885624463 0.365538065715701 0.665592234056692 H 0.0 **** 0.0
130 H14562 0.567256546517947 0.384135582714745 0.673931136678544 H 0.0 **** 0.0
@<TRIPOS>BOND
1 3 2 Aromatic
2 4 3 Aromatic
3 5 4 Aromatic
4 6 5 Aromatic
5 1 2 Aromatic
6 1 6 Aromatic
7 8 7 1
8 9 8 Aromatic
9 10 9 1
10 4 7 1
11 3 10 1
12 12 11 Aromatic
13 13 12 Aromatic
14 14 13 Aromatic
15 9 11 Aromatic
16 8 14 Aromatic
17 16 15 Aromatic
18 17 16 Aromatic
19 18 17 Aromatic
20 14 15 Aromatic
21 13 18 Aromatic
22 20 19 1
23 21 20 1
24 22 21 Aromatic
25 17 19 1
26 16 22 Aromatic
27 24 23 1
28 25 24 Aromatic
29 26 25 1
30 20 23 1
31 19 26 1
32 28 27 Aromatic
33 29 28 Aromatic
34 30 29 Aromatic
35 22 27 Aromatic
36 21 30 Aromatic
37 32 31 1
38 33 32 Aromatic
39 34 33 1
40 29 31 1
41 28 34 1
42 36 35 1
43 37 36 1
44 38 37 Aromatic
45 33 35 1
46 32 38 Aromatic
47 40 39 Aromatic
48 41 40 Aromatic
49 42 41 Aromatic
50 38 39 Aromatic
51 37 42 Aromatic
52 44 43 1
53 45 44 1
54 46 45 1
55 42 43 1
56 41 46 1
57 48 47 1
58 49 48 Aromatic
59 40 49 Aromatic
60 46 47 1
61 51 50 Aromatic
62 52 51 Aromatic
63 53 52 Aromatic
64 49 50 Aromatic
65 48 53 Aromatic
66 6 54 1
67 54 55 1
68 1 56 1
69 5 57 1
70 2 58 1
71 11 59 1
72 12 60 1
73 18 61 1
74 25 62 1
75 24 63 1
76 30 64 1
77 27 65 1
78 34 66 Double
79 31 67 Double
80 53 68 1
81 52 69 1
82 7 70 1
83 7 71 1
84 10 72 1
85 10 73 1
86 15 74 1
87 23 75 1
88 23 76 1
89 24 77 1
90 25 78 1
91 26 79 1
92 26 80 1
93 35 81 1
94 35 82 1
95 36 83 1
96 36 84 1
97 43 85 1
98 43 86 1
99 44 87 1
100 44 88 1
101 45 89 1
102 45 90 1
103 46 91 1
104 47 92 1
105 47 93 1
106 50 94 1
107 51 95 1
108 54 96 1
109 54 97 1
110 55 98 1
111 55 99 1
112 55 100 1
113 56 101 1
114 56 102 1
115 56 103 1
116 57 104 1
117 57 105 1
118 57 106 1
119 58 107 1
120 58 108 1
121 58 109 1
122 59 110 1
123 59 111 1
124 59 112 1
125 60 113 1
126 60 114 1
127 60 115 1
128 61 116 1
129 62 117 1
130 62 118 1
131 62 119 1
132 63 120 1
133 63 121 1
134 63 122 1
135 64 123 1
136 65 124 1
137 68 125 1
138 68 126 1
139 68 127 1
140 69 128 1
141 69 129 1
142 69 130 1
@<TRIPOS>MOLECULE
Sketch 4
130 142
SMALL
USER_CHARGES


@<TRIPOS>ATOM
1 C14564 0.966816581097534 0.218052405912487 0.594296910356731 C.Trigonal 0.0 **** 0.0
2 C14565 0.949594604904579 0.220611652159065 0.596318973290429 C 0.0 **** 0.0
3 C14566 0.943394166026799 0.236661680815658 0.599675378073511 C.Trigonal 0.0 **** 0.0
4 C14567 0.954406903245181 0.250038130523741 0.600966272568588 C.Trigonal 0.0 **** 0.0
5 C14568 0.971596586859333 0.247646329396912 0.59847118663319 C 0.0 **** 0.0
6 C14569 0.977783799289766 0.231636572317355 0.595049962580209 C 0.0 **** 0.0
7 C14576 0.947971856820747 0.267627202197214 0.605059379165858 C 0.0 **** 0.0
8 C14577 0.929100702427228 0.270111160643653 0.607655539762411 C.Trigonal 0.0 **** 0.0
9 C14578 0.917951942334263 0.25697492359975 0.606150960930625 C.Trigonal 0.0 **** 0.0
10 C14579 0.924424713773837 0.239285785975007 0.601901872935212 C 0.0 **** 0.0
11 C14585 0.9006440539844 0.259672095307355 0.608174160208012 C 0.0 **** 0.0
12 C14586 0.894080069827312 0.275607391730217 0.611387354610342 C 0.0 **** 0.0
13 C14587 0.905283272070994 0.289177680741117 0.613467150923636 C.Trigonal 0.0 **** 0.0
14 C14588 0.922849999374571 0.286238196570149 0.611467983344357 C.Trigonal 0.0 **** 0.0
15 C14594 0.933807289786637 0.300017753781729 0.612263027710945 C 0.0 **** 0.0
16 C14595 0.927984732795288 0.316644917830291 0.610891376970199 C.Trigonal 0.0 **** 0.0
17 C14596 0.910663149092792 0.3196057258644 0.614471043432081 C.Trigonal 0.0 **** 0.0
18 C14597 0.899716755806353 0.305881584652508 0.616922063640864 C 0.0 **** 0.0
19 C14603 0.905281211326143 0.338006704892245 0.616121857270771 C.Trigonal 0.0 **** 0.0
20 C14604 0.917167876746017 0.350523254487021 0.616929014092551 C.Trigonal 0.0 **** 0.0
21 C14605 0.935384133669823 0.346803278422072 0.611679705552366 C.Trigonal 0.0 **** 0.0
22 C14606 0.939034376380479 0.330178815162495 0.606448299567229 C.Trigonal 0.0 **** 0.0
23 C14612 0.912349117218787 0.369043490497185 0.619572224566501 C 0.0 **** 0.0
24 C14613 0.893414086659409 0.371705860896343 0.623121890625157 C 0.0 **** 0.0
25 C14614 0.882497399831407 0.360338439643743 0.611725792786176 C 0.0 **** 0.0
26 C14615 0.886359022883526 0.341845672194855 0.616259280695216 C 0.0 **** 0.0
27 C14621 0.954142951889113 0.327122990042435 0.597202847788243 C 0.0 **** 0.0
28 C14622 0.966303239826857 0.339592192294448 0.59625719402573 C.Trigonal 0.0 **** 0.0
29 C14623 0.963897628750695 0.354923050505048 0.604233520012842 C.Trigonal 0.0 **** 0.0
30 C14624 0.948393826543623 0.358827606928544 0.611677663698068 C 0.0 **** 0.0
31 C14630 0.977923242599072 0.367945802208102 0.604289050585162 C 0.0 **** 0.0
32 C14631 0.99345513901423 0.364158018541715 0.594583633668252 C.Trigonal 0.0 **** 0.0
33 C14632 0.995278280245381 0.349410486736864 0.586063408840029 C.Trigonal 0.0 **** 0.0
34 C14633 0.982255472175526 0.336189189251382 0.5864297315526 C 0.0 **** 0.0
35 C14639 1.01087009637573 0.345728840594387 0.575470756287402 C 0.0 **** 0.0
36 C14640 1.02656624492943 0.354570981324787 0.58296852452148 C 0.0 **** 0.0
37 C14641 1.02301100961737 0.373085420255846 0.586705402347248 C.Trigonal 0.0 **** 0.0
38 C14642 1.00711407791317 0.377425198953077 0.593709214034887 C.Trigonal 0.0 **** 0.0
39 N14648 1.00379059123508 0.393189737038235 0.598867924491391 N 0.0 **** 0.0
40 C14649 1.01580426876029 0.405007188081171 0.597180646553909 C.Trigonal 0.0 **** 0.0
41 C14650 1.03133293275653 0.401860586576082 0.588848850001989 C.Trigonal 0.0 **** 0.0
42 C14651 1.03473791818793 0.385661978901463 0.58365561163053 C.Trigonal 0.0 **** 0.0
43 C14657 1.05126452247561 0.381178988618507 0.574832735437544 C 0.0 **** 0.0
44 C14658 1.061144758572 0.396735845809595 0.568857106596881 C 0.0 **** 0.0
45 C14659 1.06113517300845 0.410515034375715 0.582350515362429 C 0.0 **** 0.0
46 C14660 1.04300563325941 0.416694563138175 0.585346314835339 C 0.0 **** 0.0
47 C14666 1.04192856941044 0.429787521985075 0.599894354445978 C 0.0 **** 0.0
48 C14667 1.02371927170232 0.433696059996875 0.604577153736754 C.Trigonal 0.0 **** 0.0
49 C14668 1.01138871960178 0.420983345975792 0.603609781015759 C.Trigonal 0.0 **** 0.0
50 C14673 0.994794593386611 0.424441246842354 0.609265766425563 C 0.0 **** 0.0
51 C14674 0.990932342903299 0.440084812174951 0.615599688989718 C 0.0 **** 0.0
52 C14675 1.00297767429885 0.452763197683206 0.616345151533669 C 0.0 **** 0.0
53 C14676 1.01941521273446 0.449495248140879 0.610817772301825 C 0.0 **** 0.0
54 C14682 0.996568125385857 0.229116299624349 0.592170908265693 C 0.0 **** 0.0
55 C14684 1.0054448523872 0.225016271463865 0.608886384335785 C 0.0 **** 0.0
56 C14686 0.97334283035858 0.200329220496438 0.590876143356325 C 0.0 **** 0.0
57 C14688 0.983738816442898 0.262521609103906 0.599224735086761 C 0.0 **** 0.0
58 C14690 0.937776430752724 0.205579798867134 0.594942691007643 C 0.0 **** 0.0
59 C14692 0.88852582955213 0.244841767430466 0.606437869625963 C 0.0 **** 0.0
60 C14694 0.874970478947051 0.277503493201276 0.612233397325577 C 0.0 **** 0.0
61 O14696 0.883475771878377 0.308953671536336 0.622066826623959 O 0.0 **** 0.0
62 C14698 0.885292625546111 0.363506946919201 0.592664141846532 C 0.0 **** 0.0
63 C14700 0.888842938567431 0.390480488647099 0.620993038558337 C 0.0 **** 0.0
64 O14702 0.945489034976731 0.374466483167831 0.618674857378729 O 0.0 **** 0.0
65 O14704 0.956328536501639 0.311704503429417 0.589527841720466 O 0.0 **** 0.0
66 O14706 0.983917392237997 0.32280925889465 0.579001368216767 O 0.0 **** 0.0
67 O14708 0.975771199839218 0.380857070738602 0.612375308570775 O 0.0 **** 0.0
68 C14710 1.03266033287935 0.463291667012693 0.61178709626473 C 0.0 **** 0.0
69 C14712 0.997628234212483 0.469690463921518 0.623477028855013 C 0.0 **** 0.0
70 H14714 0.954380037055295 0.271838990058751 0.616731806921331 H 0.0 **** 0.0
71 H14716 0.95207485435018 0.276166616313784 0.59480060766681 H 0.0 **** 0.0
72 H14718 0.918169717620565 0.2352526263881 0.590101976750603 H 0.0 **** 0.0
73 H14720 0.920196296799457 0.230584764431373 0.61190647600213 H 0.0 **** 0.0
74 H14722 0.947425854505804 0.29765520163321 0.611616123756286 H 0.0 **** 0.0
75 H14724 0.919219290464308 0.374342971228816 0.630468042565806 H 0.0 **** 0.0
76 H14726 0.915902864904322 0.37644835036083 0.608312048573223 H 0.0 **** 0.0
77 H14728 0.890934769931602 0.368215705267986 0.636378612786398 H 0.0 **** 0.0
78 H14730 0.869087018375438 0.362776467497094 0.614578049558405 H 0.0 **** 0.0
79 H14732 0.879564409873468 0.333873998190151 0.607073056775398 H 0.0 **** 0.0
80 H14734 0.881062700586715 0.339136170887799 0.628840407131937 H 0.0 **** 0.0
81 H14736 1.01353790493785 0.332048597652991 0.574540558697332 H 0.0 **** 0.0
82 H14738 1.00873991539914 0.350170173261934 0.562428910898794 H 0.0 **** 0.0
83 H14740 1.03720729975825 0.352696430318459 0.574257787765555 H 0.0 **** 0.0
84 H14742 1.03020957720238 0.348108806607728 0.594811111416288 H 0.0 **** 0.0
85 H14744 1.05907976317631 0.373726818114008 0.583618263917791 H 0.0 **** 0.0
86 H14746 1.04888986523083 0.37307784153311 0.563751524359079 H 0.0 **** 0.0
87 H14748 1.05516285846583 0.401725148707305 0.557297890506616 H 0.0 **** 0.0
88 H14750 1.07413517535768 0.39312924764812 0.565316039378177 H 0.0 **** 0.0
89 H14752 1.06924773351535 0.421177178411306 0.57851461307256 H 0.0 **** 0.0
90 H14754 1.066533271437 0.405495206475576 0.594193055379711 H 0.0 **** 0.0
91 H14756 1.03863373589284 0.422988107768708 0.573634566686882 H 0.0 **** 0.0
92 H14758 1.04857684255403 0.424782720357187 0.611118602466255 H 0.0 **** 0.0
93 H14760 1.04883806655217 0.441186264676342 0.595997991799799 H 0.0 **** 0.0
94 H14762 0.984982897060393 0.414606871579165 0.608748300982358 H 0.0 **** 0.0
95 H14764 0.978045518989789 0.442607598388708 0.620144102294094 H 0.0 **** 0.0
96 H14766 1.00239453902915 0.240415293631146 0.586540115937013 H 0.0 **** 0.0
97 H14768 0.99889057729353 0.219009437143891 0.582903200522754 H 0.0 **** 0.0
98 H14770 1.00110455511422 0.212894155381996 0.614094491042439 H 0.0 **** 0.0
99 H14772 1.00305591734192 0.234843897447722 0.618436214545588 H 0.0 **** 0.0
100 H14774 1.01920165118439 0.224132142707392 0.607197080612388 H 0.0 **** 0.0
101 H14776 0.966026896919792 0.190682033312919 0.597709218929569 H 0.0 **** 0.0
102 H14778 0.986481949641837 0.198480181955156 0.594919724120658 H 0.0 **** 0.0
103 H14780 0.97269846055723 0.197316234929991 0.577286741948291 H 0.0 **** 0.0
104 H14782 0.987627261704455 0.266389564138744 0.586410082478098 H 0.0 **** 0.0
105 H14784 0.995258798962425 0.25943527039519 0.606373586909231 H 0.0 **** 0.0
106 H14786 0.978472039694861 0.273756653487773 0.605400259727559 H 0.0 **** 0.0
107 H14788 0.924460247529446 0.209108387820449 0.593499373050975 H 0.0 **** 0.0
108 H14790 0.938668612211016 0.197499374827382 0.606261480570273 H 0.0 **** 0.0
109 H14792 0.940823980029759 0.197720368359255 0.583870823197096 H 0.0 **** 0.0
110 H14794 0.881191674704207 0.245746078127421 0.594630685376337 H 0.0 **** 0.0
111 H14796 0.879522213132556 0.244431968569619 0.617040204297741 H 0.0 **** 0.0
112 H14798 0.894696214695325 0.23244905570705 0.606348082134514 H 0.0 **** 0.0
113 H14800 0.870452961738519 0.278566182903753 0.625373932247803 H 0.0 **** 0.0
114 H14802 0.868115700465616 0.266830556076301 0.606615470226927 H 0.0 **** 0.0
115 H14804 0.870540149545165 0.288496676994908 0.604928099202171 H 0.0 **** 0.0
116 H14806 0.878045485495909 0.298379630424879 0.623445239190731 H 0.0 **** 0.0
117 H14808 0.881858186146405 0.376540292491193 0.589281087843741 H 0.0 **** 0.0
118 H14810 0.877321615609776 0.354934701964875 0.585153925057459 H 0.0 **** 0.0
119 H14812 0.898535493322775 0.361352662313476 0.589032230312388 H 0.0 **** 0.0
120 H14814 0.896427182823437 0.39826795978606 0.629656323617859 H 0.0 **** 0.0
121 H14816 0.875410085631495 0.392592287063567 0.623848744639712 H 0.0 **** 0.0
122 H14818 0.891387908067987 0.394787785493462 0.608043551900123 H 0.0 **** 0.0
123 H14820 0.955778759540013 0.380788518375183 0.618761011894932 H 0.0 **** 0.0
124 H14822 0.966524028560984 0.312058948759779 0.583060291596892 H 0.0 **** 0.0
125 H14824 1.02829072520856 0.474532504434846 0.618599504855481 H 0.0 **** 0.0
126 H14826 1.03639254144208 0.467514282180247 0.599049264586062 H 0.0 **** 0.0
127 H14828 1.04410806516368 0.45890425221478 0.618378358928931 H 0.0 **** 0.0
128 H14830 1.00389755125898 0.472270781107761 0.635636499776441 H 0.0 **** 0.0
129 H14832 0.983932505106397 0.470182241434606 0.625751479432453 H 0.0 **** 0.0
130 H14834 1.00060088575002 0.480139365901086 0.614790490400674 H 0.0 **** 0.0
@<TRIPOS>BOND
1 3 2 Aromatic
2 4 3 Aromatic
3 5 4 Aromatic
4 6 5 Aromatic
5 1 2 Aromatic
6 1 6 Aromatic
7 8 7 1
8 9 8 Aromatic
9 10 9 1
10 4 7 1
11 3 10 1
12 12 11 Aromatic
13 13 12 Aromatic
14 14 13 Aromatic
15 9 11 Aromatic
16 8 14 Aromatic
17 16 15 Aromatic
18 17 16 Aromatic
19 18 17 Aromatic
20 14 15 Aromatic
21 13 18 Aromatic
22 20 19 1
23 21 20 1
24 22 21 Aromatic
25 17 19 1
26 16 22 Aromatic
27 24 23 1
28 25 24 Aromatic
29 26 25 1
30 20 23 1
31 19 26 1
32 28 27 Aromatic
33 29 28 Aromatic
34 30 29 Aromatic
35 22 27 Aromatic
36 21 30 Aromatic
37 32 31 1
38 33 32 Aromatic
39 34 33 1
40 29 31 1
41 28 34 1
42 36 35 1
43 37 36 1
44 38 37 Aromatic
45 33 35 1
46 32 38 Aromatic
47 40 39 Aromatic
48 41 40 Aromatic
49 42 41 Aromatic
50 38 39 Aromatic
51 37 42 Aromatic
52 44 43 1
53 45 44 1
54 46 45 1
55 42 43 1
56 41 46 1
57 48 47 1
58 49 48 Aromatic
59 40 49 Aromatic
60 46 47 1
61 51 50 Aromatic
62 52 51 Aromatic
63 53 52 Aromatic
64 49 50 Aromatic
65 48 53 Aromatic
66 6 54 1
67 54 55 1
68 1 56 1
69 5 57 1
70 2 58 1
71 11 59 1
72 12 60 1
73 18 61 1
74 25 62 1
75 24 63 1
76 30 64 1
77 27 65 1
78 34 66 Double
79 31 67 Double
80 53 68 1
81 52 69 1
82 7 70 1
83 7 71 1
84 10 72 1
85 10 73 1
86 15 74 1
87 23 75 1
88 23 76 1
89 24 77 1
90 25 78 1
91 26 79 1
92 26 80 1
93 35 81 1
94 35 82 1
95 36 83 1
96 36 84 1
97 43 85 1
98 43 86 1
99 44 87 1
100 44 88 1
101 45 89 1
102 45 90 1
103 46 91 1
104 47 92 1
105 47 93 1
106 50 94 1
107 51 95 1
108 54 96 1
109 54 97 1
110 55 98 1
111 55 99 1
112 55 100 1
113 56 101 1
114 56 102 1
115 56 103 1
116 57 104 1
117 57 105 1
118 57 106 1
119 58 107 1
120 58 108 1
121 58 109 1
122 59 110 1
123 59 111 1
124 59 112 1
125 60 113 1
126 60 114 1
127 60 115 1
128 61 116 1
129 62 117 1
130 62 118 1
131 62 119 1
132 63 120 1
133 63 121 1
134 63 122 1
135 64 123 1
136 65 124 1
137 68 125 1
138 68 126 1
139 68 127 1
140 69 128 1
141 69 129 1
142 69 130 1
@<TRIPOS>MOLECULE
Sketch 4
130 142
SMALL
USER_CHARGES


@<TRIPOS>ATOM
1 C14836 0.691755009905392 -0.018571285872198 0.520011310605505 C.Trigonal 0.0 **** 0.0
2 C14837 0.680723497424006 -0.0115344304373451 0.508409771515904 C 0.0 **** 0.0
3 C14838 0.6651701012463 -0.00543972996356532 0.513710662161709 C.Trigonal 0.0 **** 0.0
4 C14839 0.660831069759857 -0.00576411832964097 0.530544594414578 C.Trigonal 0.0 **** 0.0
5 C14840 0.672321469351525 -0.0118014676558755 0.542321897400329 C 0.0 **** 0.0
6 C14841 0.687647880741178 -0.0184469803391326 0.537007094039262 C 0.0 **** 0.0
7 C14848 0.643513750458774 0.000482868724565792 0.536313701280358 C 0.0 **** 0.0
8 C14849 0.6302167203722 0.00385969374149483 0.522798458490715 C.Trigonal 0.0 **** 0.0
9 C14850 0.634862666998084 0.00448236648577416 0.506089105262977 C.Trigonal 0.0 **** 0.0
10 C14851 0.653085785847852 0.00160454676306572 0.500623834429803 C 0.0 **** 0.0
11 C14857 0.623171441493329 0.00824818612438234 0.493467806476321 C 0.0 **** 0.0
12 C14858 0.606431879591326 0.0113921657431065 0.497409814800399 C 0.0 **** 0.0
13 C14859 0.600919241695961 0.00759109716732777 0.513721767290813 C.Trigonal 0.0 **** 0.0
14 C14860 0.612933432412785 0.00549327628748597 0.526907047415382 C.Trigonal 0.0 **** 0.0
15 C14866 0.606975802412643 0.0025449865289415 0.543328031427458 C 0.0 **** 0.0
16 C14867 0.590370455992793 -0.00299028705237642 0.546596629250491 C.Trigonal 0.0 **** 0.0
17 C14868 0.580508168465396 -0.00601644281254045 0.53202802775192 C.Trigonal 0.0 **** 0.0
18 C14869 0.584212574372463 0.00141363038427633 0.516642326094938 C 0.0 **** 0.0
19 C14875 0.565461742601905 -0.0173782621576238 0.53358520484111 C.Trigonal 0.0 **** 0.0
20 C14876 0.559041204278714 -0.0212700581951025 0.548959463747774 C.Trigonal 0.0 **** 0.0
21 C14877 0.566851143880959 -0.0132662574597641 0.564684797828597 C.Trigonal 0.0 **** 0.0
22 C14878 0.582697807719399 -0.00501264807782612 0.563022017557541 C.Trigonal 0.0 **** 0.0
23 C14884 0.545929026869486 -0.0353775305159692 0.551095433638125 C 0.0 **** 0.0
24 C14885 0.541896093737346 -0.0455043156659299 0.534838942453338 C 0.0 **** 0.0
25 C14886 0.557087429112329 -0.0457182519584838 0.522691654030173 C 0.0 **** 0.0
26 C14887 0.561523424127184 -0.02756406822897 0.517755443927006 C 0.0 **** 0.0
27 C14893 0.589821890821437 0.00254754279673591 0.577732822206831 C 0.0 **** 0.0
28 C14894 0.581469242210855 0.00158812300742228 0.593075312185827 C.Trigonal 0.0 **** 0.0
29 C14895 0.565897451333795 -0.00615212694758663 0.594362473519244 C.Trigonal 0.0 **** 0.0
30 C14896 0.558577544640356 -0.0136453445319077 0.580275831725541 C 0.0 **** 0.0
31 C14902 0.556456045899476 -0.00633126272716318 0.611075329479324 C 0.0 **** 0.0
32 C14903 0.564271969743298 0.00195880196641251 0.625745349017931 C.Trigonal 0.0 **** 0.0
33 C14904 0.57993380815228 0.00874815290566291 0.624616214120608 C.Trigonal 0.0 **** 0.0
34 C14905 0.589461889895829 0.00924580642247854 0.608624981763204 C 0.0 **** 0.0
35 C14911 0.58838718064878 0.0158471394583756 0.640334954541968 C 0.0 **** 0.0
36 C14912 0.583623077636968 0.00446648244942948 0.655519509735039 C 0.0 **** 0.0
37 C14913 0.564518697162519 0.00380376165248665 0.657304735225213 C.Trigonal 0.0 **** 0.0
38 C14914 0.554770090249988 0.00289189126635069 0.642332203331875 C.Trigonal 0.0 **** 0.0
39 N14920 0.537762896609457 0.00407800000903447 0.642777130776955 N 0.0 **** 0.0
40 C14921 0.530180279435059 0.00416244922208664 0.657972259089919 C.Trigonal 0.0 **** 0.0
41 C14922 0.539301845123331 0.00346457973784738 0.673430092670721 C.Trigonal 0.0 **** 0.0
42 C14923 0.556586035176767 0.00387706709512208 0.672837121260917 C.Trigonal 0.0 **** 0.0
43 C14929 0.567135525186093 0.00376301708072563 0.688933834809489 C 0.0 **** 0.0
44 C14930 0.556761940807361 0.00583129611120172 0.705176631423432 C 0.0 **** 0.0
45 C14931 0.540105574534936 -0.00379979656688535 0.704141268625469 C 0.0 **** 0.0
46 C14932 0.529617052236713 0.00423784754661308 0.690006282019911 C 0.0 **** 0.0
47 C14938 0.512071062957872 -0.00387345172618618 0.687605533045717 C 0.0 **** 0.0
48 C14939 0.503509593744168 0.00505732805458877 0.673033207032531 C.Trigonal 0.0 **** 0.0
49 C14940 0.512678391469141 0.00754111671792223 0.658009489300066 C.Trigonal 0.0 **** 0.0
50 C14945 0.504700674527577 0.0159956273372692 0.644421160256934 C 0.0 **** 0.0
51 C14946 0.488482592460367 0.0218067782663145 0.646065450579636 C 0.0 **** 0.0
52 C14947 0.479550271521803 0.0194979094683847 0.660928939409553 C 0.0 **** 0.0
53 C14948 0.487142945243423 0.0110606391067619 0.674429078674792 C 0.0 **** 0.0
54 C14954 0.699946971705155 -0.0256760484094992 0.549784264696247 C 0.0 **** 0.0
55 C14956 0.696777266356153 -0.044674343950032 0.551505171330091 C 0.0 **** 0.0
56 C14958 0.708367374324671 -0.0259464294213916 0.513863033781712 C 0.0 **** 0.0
57 C14960 0.668336342831246 -0.01143782108576 0.561076360302872 C 0.0 **** 0.0
58 C14962 0.685515493077342 -0.0108889642382578 0.48982377735042 C 0.0 **** 0.0
59 C14964 0.629316101538379 0.008539967132648 0.475243086980294 C 0.0 **** 0.0
60 C14966 0.594606851816051 0.0163772403069162 0.483280440449525 C 0.0 **** 0.0
61 O14968 0.572543352366196 0.00150697387833518 0.503797613848858 O 0.0 **** 0.0
62 C14970 0.55377550450894 -0.0562818494110111 0.506694996527685 C 0.0 **** 0.0
63 C14972 0.525649779323373 -0.0387705347747188 0.526481976724311 C 0.0 **** 0.0
64 O14974 0.543065581480065 -0.0214481295917137 0.581399555991202 O 0.0 **** 0.0
65 O14976 0.604780142996148 0.0111768332214348 0.576394602325657 O 0.0 **** 0.0
66 O14978 0.603447271542491 0.015595863591417 0.607702291874601 O 0.0 **** 0.0
67 O14980 0.542814798823761 -0.0133515423641458 0.611836579301343 O 0.0 **** 0.0
68 C14982 0.477436873213752 0.00869144674183327 0.690748004251343 C 0.0 **** 0.0
69 C14984 0.46177622059214 0.0264804650354826 0.661877463998562 C 0.0 **** 0.0
70 H14986 0.638357404214426 -0.00931991821396033 0.5447702952813 H 0.0 **** 0.0
71 H14988 0.645153478714314 0.0120301187524078 0.54401022030382 H 0.0 **** 0.0
72 H14990 0.658222952970858 0.0136464478607519 0.495796066524159 H 0.0 **** 0.0
73 H14992 0.652988883948933 -0.00729808893395799 0.489909755897083 H 0.0 **** 0.0
74 H14994 0.616364582482687 0.00241028043690168 0.553478384515947 H 0.0 **** 0.0
75 H14996 0.550618480654807 -0.0444244495196247 0.560620786809086 H 0.0 **** 0.0
76 H14998 0.533941354433311 -0.0302318570920186 0.555940814757407 H 0.0 **** 0.0
77 H15000 0.539387849579112 -0.0585736472861904 0.538652932944932 H 0.0 **** 0.0
78 H15002 0.567957291995877 -0.0513535298120354 0.529355677153977 H 0.0 **** 0.0
79 H15004 0.551142747963422 -0.0218356027221825 0.510493995635079 H 0.0 **** 0.0
80 H15006 0.572549541524723 -0.0283287213881519 0.509245439383416 H 0.0 **** 0.0
81 H15008 0.602283454519304 0.0163304969565878 0.639241387657207 H 0.0 **** 0.0
82 H15010 0.584153907585971 0.028925736930228 0.642594519246356 H 0.0 **** 0.0
83 H15012 0.589787744408711 0.00949855282094212 0.66687053173874 H 0.0 **** 0.0
84 H15014 0.58874155467786 -0.00837831005589224 0.653579757358328 H 0.0 **** 0.0
85 H15016 0.573943766548503 -0.00836856953024461 0.689451753774486 H 0.0 **** 0.0
86 H15018 0.576721655029599 0.0138424589383256 0.688569347802185 H 0.0 **** 0.0
87 H15020 0.553769469130688 0.0193096132589043 0.706925058064989 H 0.0 **** 0.0
88 H15022 0.564305002584573 0.0020503215367777 0.71626070703507 H 0.0 **** 0.0
89 H15024 0.533238498179711 -0.00309384823357577 0.716249249572814 H 0.0 **** 0.0
90 H15026 0.542429105092804 -0.0172883225971651 0.701561050511184 H 0.0 **** 0.0
91 H15028 0.527638208546698 0.0176706383391455 0.693416239704302 H 0.0 **** 0.0
92 H15030 0.513332386341528 -0.0175113914377254 0.684950264511127 H 0.0 **** 0.0
93 H15032 0.505010942548061 -0.00286082238857082 0.699509040740987 H 0.0 **** 0.0
94 H15034 0.511751537696555 0.0187896106052539 0.632860341162456 H 0.0 **** 0.0
95 H15036 0.482532152180927 0.0285154570997941 0.635455287189819 H 0.0 **** 0.0
96 H15038 0.698805194177085 -0.0196513963289284 0.562257690395385 H 0.0 **** 0.0
97 H15040 0.713136272098298 -0.0233210440424349 0.545998666907989 H 0.0 **** 0.0
98 H15042 0.697249742320591 -0.051114574295451 0.539187824888873 H 0.0 **** 0.0
99 H15044 0.684317937320934 -0.0472262398953546 0.557131822795256 H 0.0 **** 0.0
100 H15046 0.706384721463508 -0.0505209509706295 0.559591818169421 H 0.0 **** 0.0
101 H15048 0.706936273427288 -0.0323560780812939 0.501609764632614 H 0.0 **** 0.0
102 H15050 0.713648216177357 -0.0355122905756163 0.522396354089222 H 0.0 **** 0.0
103 H15052 0.718000913928065 -0.015998942923422 0.512332773710686 H 0.0 **** 0.0
104 H15054 0.668500487872898 -0.0242743919347126 0.566408743515076 H 0.0 **** 0.0
105 H15056 0.655972401911558 -0.00600726845304806 0.564150737348089 H 0.0 **** 0.0
106 H15058 0.677683183017965 -0.00379471383696592 0.568033809894596 H 0.0 **** 0.0
107 H15060 0.679660434124608 -0.000229720993832999 0.483130264867757 H 0.0 **** 0.0
108 H15062 0.681714264531948 -0.0225876471178302 0.483276113584575 H 0.0 **** 0.0
109 H15064 0.699206578911816 -0.0093074366083842 0.488007864522681 H 0.0 **** 0.0
110 H15066 0.619657412905231 0.0120490087586307 0.465990009490771 H 0.0 **** 0.0
111 H15068 0.633714803499146 -0.00409617016397309 0.471402325019653 H 0.0 **** 0.0
112 H15070 0.639942872180032 0.0172843177198098 0.473427798757758 H 0.0 **** 0.0
113 H15072 0.591023688489809 0.00538254921596802 0.475590072681728 H 0.0 **** 0.0
114 H15074 0.600308608485432 0.0258618748281833 0.474976406948488 H 0.0 **** 0.0
115 H15076 0.583050228646302 0.0224369460111164 0.487854082234432 H 0.0 **** 0.0
116 H15078 0.561901846001578 -0.00104934660544923 0.508702664907207 H 0.0 **** 0.0
117 H15080 0.550385799744731 -0.0692927179000247 0.510107128393826 H 0.0 **** 0.0
118 H15082 0.565209999344718 -0.0567670922345056 0.498789375989255 H 0.0 **** 0.0
119 H15084 0.54351434642299 -0.0508234190840001 0.499093516752258 H 0.0 **** 0.0
120 H15086 0.515391440808251 -0.0384809200449346 0.535837936952688 H 0.0 **** 0.0
121 H15088 0.521633165417938 -0.0470565824235227 0.516074690011239 H 0.0 **** 0.0
122 H15090 0.527368603069905 -0.0259106887234414 0.521555885096304 H 0.0 **** 0.0
123 H15092 0.538450495901741 -0.0195512032699212 0.592407479871518 H 0.0 **** 0.0
124 H15094 0.60777473762659 0.0155851217652117 0.58722701288588 H 0.0 **** 0.0
125 H15096 0.482547405800592 0.0168267520645973 0.700839984254794 H 0.0 **** 0.0
126 H15098 0.478102289549084 -0.0044825501625284 0.695103911750584 H 0.0 **** 0.0
127 H15100 0.463946776709424 0.0116643021968478 0.689560049374685 H 0.0 **** 0.0
128 H15102 0.452390158250249 0.0163050805049897 0.663400743692943 H 0.0 **** 0.0
129 H15104 0.458383248453266 0.0334593295194264 0.650365157267316 H 0.0 **** 0.0
130 H15106 0.460342518004563 0.0353134544580825 0.672541900650836 H 0.0 **** 0.0
@<TRIPOS>BOND
1 3 2 Aromatic
2 4 3 Aromatic
3 5 4 Aromatic
4 6 5 Aromatic
5 1 2 Aromatic
6 1 6 Aromatic
7 8 7 1
8 9 8 Aromatic
9 10 9 1
10 4 7 1
11 3 10 1
12 12 11 Aromatic
13 13 12 Aromatic
14 14 13 Aromatic
15 9 11 Aromatic
16 8 14 Aromatic
17 16 15 Aromatic
18 17 16 Aromatic
19 18 17 Aromatic
20 14 15 Aromatic
21 13 18 Aromatic
22 20 19 1
23 21 20 1
24 22 21 Aromatic
25 17 19 1
26 16 22 Aromatic
27 24 23 1
28 25 24 Aromatic
29 26 25 1
30 20 23 1
31 19 26 1
32 28 27 Aromatic
33 29 28 Aromatic
34 30 29 Aromatic
35 22 27 Aromatic
36 21 30 Aromatic
37 32 31 1
38 33 32 Aromatic
39 34 33 1
40 29 31 1
41 28 34 1
42 36 35 1
43 37 36 1
44 38 37 Aromatic
45 33 35 1
46 32 38 Aromatic
47 40 39 Aromatic
48 41 40 Aromatic
49 42 41 Aromatic
50 38 39 Aromatic
51 37 42 Aromatic
52 44 43 1
53 45 44 1
54 46 45 1
55 42 43 1
56 41 46 1
57 48 47 1
58 49 48 Aromatic
59 40 49 Aromatic
60 46 47 1
61 51 50 Aromatic
62 52 51 Aromatic
63 53 52 Aromatic
64 49 50 Aromatic
65 48 53 Aromatic
66 6 54 1
67 54 55 1
68 1 56 1
69 5 57 1
70 2 58 1
71 11 59 1
72 12 60 1
73 18 61 1
74 25 62 1
75 24 63 1
76 30 64 1
77 27 65 1
78 34 66 Double
79 31 67 Double
80 53 68 1
81 52 69 1
82 7 70 1
83 7 71 1
84 10 72 1
85 10 73 1
86 15 74 1
87 23 75 1
88 23 76 1
89 24 77 1
90 25 78 1
91 26 79 1
92 26 80 1
93 35 81 1
94 35 82 1
95 36 83 1
96 36 84 1
97 43 85 1
98 43 86 1
99 44 87 1
100 44 88 1
101 45 89 1
102 45 90 1
103 46 91 1
104 47 92 1
105 47 93 1
106 50 94 1
107 51 95 1
108 54 96 1
109 54 97 1
110 55 98 1
111 55 99 1
112 55 100 1
113 56 101 1
114 56 102 1
115 56 103 1
116 57 104 1
117 57 105 1
118 57 106 1
119 58 107 1
120 58 108 1
121 58 109 1
122 59 110 1
123 59 111 1
124 59 112 1
125 60 113 1
126 60 114 1
127 60 115 1
128 61 116 1
129 62 117 1
130 62 118 1
131 62 119 1
132 63 120 1
133 63 121 1
134 63 122 1
135 64 123 1
136 65 124 1
137 68 125 1
138 68 126 1
139 68 127 1
140 69 128 1
141 69 129 1
142 69 130 1
@<TRIPOS>MOLECULE
Sketch 4
130 142
SMALL
USER_CHARGES


@<TRIPOS>ATOM
1 C15108 0.221203412565752 1.01484972982975 0.935153367120374 C.Trigonal 0.0 **** 0.0
2 C15109 0.221635241148098 0.997518633266816 0.937629237084017 C 0.0 **** 0.0
3 C15110 0.235103717692941 0.988081359672244 0.931557969868678 C.Trigonal 0.0 **** 0.0
4 C15111 0.247794085676909 0.995826986122212 0.922542850988021 C.Trigonal 0.0 **** 0.0
5 C15112 0.247408097194109 1.01320032249848 0.920092299174775 C 0.0 **** 0.0
6 C15113 0.23436084164762 1.02278280929949 0.926832984303755 C 0.0 **** 0.0
7 C15120 0.262455902993071 0.985412267819343 0.915620437372554 C 0.0 **** 0.0
8 C15121 0.26114541754603 0.966247670476688 0.916259231757485 C.Trigonal 0.0 **** 0.0
9 C15122 0.248591808370582 0.958569214264305 0.925421034505655 C.Trigonal 0.0 **** 0.0
10 C15123 0.235653843963807 0.969152882000217 0.935007126844801 C 0.0 **** 0.0
11 C15129 0.247766071632526 0.941020342960774 0.926559282094497 C 0.0 **** 0.0
12 C15130 0.258689783169551 0.930729459485157 0.917542753586196 C 0.0 **** 0.0
13 C15131 0.270555357141124 0.938369651112886 0.906858662509085 C.Trigonal 0.0 **** 0.0
14 C15132 0.273051276884422 0.956017790410437 0.907937694707783 C.Trigonal 0.0 **** 0.0
15 C15138 0.287461790149122 0.962758862495624 0.900259129382836 C 0.0 **** 0.0
16 C15139 0.298864961025425 0.952914560231677 0.890900083311405 C.Trigonal 0.0 **** 0.0
17 C15140 0.293293526413925 0.936512839150689 0.886029114555404 C.Trigonal 0.0 **** 0.0
18 C15141 0.279437162265649 0.92922508065405 0.894113171332278 C 0.0 **** 0.0
19 C15147 0.302962452724667 0.927735958580732 0.871843520745754 C.Trigonal 0.0 **** 0.0
20 C15148 0.316383443673272 0.935694641387197 0.864533559811163 C.Trigonal 0.0 **** 0.0
21 C15149 0.324431967268597 0.951002625391689 0.873022040736879 C.Trigonal 0.0 **** 0.0
22 C15150 0.315427587412926 0.958748910006838 0.886365351294517 C.Trigonal 0.0 **** 0.0
23 C15156 0.324220812629195 0.929355604265523 0.848090039161757 C 0.0 **** 0.0
24 C15157 0.312777995291026 0.916760107769121 0.838829551457626 C 0.0 **** 0.0
25 C15158 0.30700050375655 0.902899359649179 0.851136799873847 C 0.0 **** 0.0
26 C15159 0.295861311543938 0.911109264689343 0.864810616478304 C 0.0 **** 0.0
27 C15165 0.323634475905498 0.971772107052145 0.895761144499166 C 0.0 **** 0.0
28 C15166 0.339407879283821 0.977484769140065 0.890876013030324 C.Trigonal 0.0 **** 0.0
29 C15167 0.347966331664919 0.969969172901841 0.877686415185715 C.Trigonal 0.0 **** 0.0
30 C15168 0.340651815757289 0.956687304485347 0.8688098778647 C 0.0 **** 0.0
31 C15174 0.365794055809139 0.97554547204072 0.873292093971098 C 0.0 **** 0.0
32 C15175 0.373548772703932 0.988997508418204 0.883563860134067 C.Trigonal 0.0 **** 0.0
33 C15176 0.364721858105479 0.996995355197781 0.895839218026025 C.Trigonal 0.0 **** 0.0
34 C15177 0.347455555626681 0.991911860713867 0.900377603912394 C 0.0 **** 0.0
35 C15183 0.372351343279881 1.01169945807597 0.90560029939849 C 0.0 **** 0.0
36 C15184 0.385207662686975 1.02114737576613 0.894283595656352 C 0.0 **** 0.0
37 C15185 0.398139684478916 1.00873620785331 0.887461781804141 C.Trigonal 0.0 **** 0.0
38 C15186 0.391922737530497 0.993281071742052 0.880877984947629 C.Trigonal 0.0 **** 0.0
39 N15192 0.402310073258507 0.98159376244938 0.874390975885733 N 0.0 **** 0.0
40 C15193 0.418972576197306 0.984747834247662 0.874260629298126 C.Trigonal 0.0 **** 0.0
41 C15194 0.426041181670984 0.999608123226186 0.881365869830723 C.Trigonal 0.0 **** 0.0
42 C15195 0.415341021802295 1.01165383480783 0.88781256761493 C.Trigonal 0.0 **** 0.0
43 C15201 0.422232869673284 1.02798100967336 0.895428038661668 C 0.0 **** 0.0
44 C15202 0.441133910479449 1.02704090023699 0.899681999913146 C 0.0 **** 0.0
45 C15203 0.450915514828704 1.01908013664104 0.885110156034378 C 0.0 **** 0.0
46 C15204 0.445144557115083 1.00070981010549 0.882996652071464 C 0.0 **** 0.0
47 C15210 0.453769459231302 0.991758176922967 0.867929606606688 C 0.0 **** 0.0
48 C15211 0.446277600886027 0.97440703795562 0.864869116099679 C.Trigonal 0.0 **** 0.0
49 C15212 0.429035563115912 0.971500745903971 0.867975768993693 C.Trigonal 0.0 **** 0.0
50 C15217 0.422207977459803 0.955257192355042 0.864924178490868 C 0.0 **** 0.0
51 C15218 0.432458108938045 0.942581280610492 0.859067864375619 C 0.0 **** 0.0
52 C15219 0.449324608123525 0.945619509376973 0.855385173878261 C 0.0 **** 0.0
53 C15220 0.456028487168982 0.961744708416913 0.857774969714767 C 0.0 **** 0.0
54 C15226 0.234737066779634 1.04198837674718 0.925349502421044 C 0.0 **** 0.0
55 C15228 0.22555236009679 1.0484120283627 0.909519659212818 C 0.0 **** 0.0
56 C15230 0.20642156511592 1.02490621070153 0.942068936018598 C 0.0 **** 0.0
57 C15232 0.261288958697362 1.02211796234577 0.910340371936625 C 0.0 **** 0.0
58 C15234 0.207227110769876 0.98899915035066 0.947003892140937 C 0.0 **** 0.0
59 C15236 0.234679886317583 0.932744351020483 0.937899692859099 C 0.0 **** 0.0
60 C15238 0.256700840308165 0.911717685404364 0.919172382960122 C 0.0 **** 0.0
61 O15240 0.273777152567259 0.913259293084134 0.89041516390324 O 0.0 **** 0.0
62 C15242 0.321778066262748 0.893125629685484 0.859334136526948 C 0.0 **** 0.0
63 C15244 0.322132255225165 0.909497250043332 0.82338413956187 C 0.0 **** 0.0
64 O15246 0.34943317732551 0.948754715262937 0.856051966437315 O 0.0 **** 0.0
65 O15248 0.31588017959412 0.978189297455862 0.909880744323261 O 0.0 **** 0.0
66 O15250 0.339669249039383 0.999037636845658 0.911553251326537 O 0.0 **** 0.0
67 O15252 0.373080866275057 0.968655228504045 0.861643043413639 O 0.0 **** 0.0
68 C15254 0.474145255400517 0.9647940268217 0.852402056263118 C 0.0 **** 0.0
69 C15256 0.459736528367282 0.931094776454783 0.848599159133519 C 0.0 **** 0.0
70 H15258 0.26422473027935 0.988882978153226 0.90224928566174 H 0.0 **** 0.0
71 H15260 0.274010610866898 0.98913322628176 0.922459101501232 H 0.0 **** 0.0
72 H15262 0.237721417463814 0.96724012826957 0.948691296678199 H 0.0 **** 0.0
73 H15264 0.223048349792519 0.964015370302355 0.932091908327448 H 0.0 **** 0.0
74 H15266 0.289764680426713 0.97629522163576 0.901950958273111 H 0.0 **** 0.0
75 H15268 0.326578392610694 0.939974189771568 0.839379021077423 H 0.0 **** 0.0
76 H15270 0.336416706066805 0.92317030175918 0.8506827077861 H 0.0 **** 0.0
77 H15272 0.301471420757835 0.92348109830455 0.834317083274646 H 0.0 **** 0.0
78 H15274 0.299217604046966 0.893727793686761 0.84413912642376 H 0.0 **** 0.0
79 H15276 0.294544920238299 0.90162093551483 0.874902651488269 H 0.0 **** 0.0
80 H15278 0.283305880235264 0.913500122266935 0.859247114156013 H 0.0 **** 0.0
81 H15280 0.362609940626866 1.02078151918233 0.909796990649222 H 0.0 **** 0.0
82 H15282 0.378615149118081 1.00698447431459 0.917110834067501 H 0.0 **** 0.0
83 H15284 0.390850192079715 1.03151454782023 0.901530215894222 H 0.0 **** 0.0
84 H15286 0.378472233870898 1.02724734513636 0.883687577767043 H 0.0 **** 0.0
85 H15288 0.420149517269714 1.03838977327439 0.886358636215706 H 0.0 **** 0.0
86 H15290 0.415424735431883 1.03132901699131 0.907082225793831 H 0.0 **** 0.0
87 H15292 0.442979447217452 1.01928323659068 0.911133407186126 H 0.0 **** 0.0
88 H15294 0.445989225122491 1.03974191326795 0.90274072696032 H 0.0 **** 0.0
89 H15296 0.464648817374467 1.01952506739315 0.88748548516302 H 0.0 **** 0.0
90 H15298 0.448634430277266 1.02630416565379 0.873400885583236 H 0.0 **** 0.0
91 H15300 0.448842765646634 0.993792839357432 0.894600158931338 H 0.0 **** 0.0
92 H15302 0.452201922119316 0.99937086649786 0.856417710251746 H 0.0 **** 0.0
93 H15304 0.467377903139904 0.991134475005971 0.870685640126048 H 0.0 **** 0.0
94 H15306 0.408781302435573 0.952692667060705 0.867439140932936 H 0.0 **** 0.0
95 H15308 0.427210636442315 0.929902855968354 0.856922736888227 H 0.0 **** 0.0
96 H15310 0.247829772964457 1.04668946137167 0.925201896988869 H 0.0 **** 0.0
97 H15312 0.22918385242998 1.04789605850789 0.936674806084827 H 0.0 **** 0.0
98 H15314 0.211939158745209 1.04570258257506 0.910063293613252 H 0.0 **** 0.0
99 H15316 0.230598621618665 1.04256169360049 0.897957245994427 H 0.0 **** 0.0
100 H15318 0.226920305745262 1.06219472628328 0.908151407137309 H 0.0 **** 0.0
101 H15320 0.19444969142695 1.01795822135309 0.940818701767633 H 0.0 **** 0.0
102 H15322 0.204432101499619 1.03693820425584 0.935474765042169 H 0.0 **** 0.0
103 H15324 0.208317092881882 1.02777492092062 0.955575334542065 H 0.0 **** 0.0
104 H15326 0.256058893434253 1.02964675778261 0.899869044093751 H 0.0 **** 0.0
105 H15328 0.270570520646371 1.0135812606523 0.90465359461853 H 0.0 **** 0.0
106 H15330 0.268401517713804 1.03074838021627 0.918618071320708 H 0.0 **** 0.0
107 H15332 0.210839492714303 0.976900917064521 0.952737400617921 H 0.0 **** 0.0
108 H15334 0.196530125845989 0.986479795326133 0.938436339926618 H 0.0 **** 0.0
109 H15336 0.202496863157145 0.996809215356803 0.957482627951435 H 0.0 **** 0.0
110 H15338 0.226950227726281 0.923547062834979 0.930867105878816 H 0.0 **** 0.0
111 H15340 0.225824761257513 0.941481788708481 0.943927105599703 H 0.0 **** 0.0
112 H15342 0.240968834744567 0.925981634191499 0.948310312239604 H 0.0 **** 0.0
113 H15344 0.248748133596142 0.906570697487146 0.908952328855805 H 0.0 **** 0.0
114 H15346 0.250964445151685 0.907768475656963 0.931162584855755 H 0.0 **** 0.0
115 H15348 0.268995650053186 0.905226438003604 0.918836545946477 H 0.0 **** 0.0
116 H15350 0.276458880114093 0.910924398853861 0.879003773458169 H 0.0 **** 0.0
117 H15352 0.329807488984848 0.887237147402312 0.849641146989265 H 0.0 **** 0.0
118 H15354 0.316894910197088 0.882973161046687 0.867497364013485 H 0.0 **** 0.0
119 H15356 0.329669644582217 0.901464977798216 0.867172537621057 H 0.0 **** 0.0
120 H15358 0.325138690788912 0.919664530754857 0.814379218306904 H 0.0 **** 0.0
121 H15360 0.314281590934934 0.900095896984713 0.816847231501515 H 0.0 **** 0.0
122 H15362 0.334058901737459 0.903437029875745 0.827162115812294 H 0.0 **** 0.0
123 H15364 0.36004334484596 0.95431864845692 0.854495552439635 H 0.0 **** 0.0
124 H15366 0.322844301211148 0.986803797952913 0.914682807359038 H 0.0 **** 0.0
125 H15368 0.477416587950226 0.978197223407916 0.851143217233693 H 0.0 **** 0.0
126 H15370 0.476593038008699 0.959233028495671 0.839873655104085 H 0.0 **** 0.0
127 H15372 0.483030014911764 0.95895722322056 0.861374365618626 H 0.0 **** 0.0
128 H15374 0.456364227179432 0.928210866237354 0.83539964367897 H 0.0 **** 0.0
129 H15376 0.4576878955524 0.919641442420888 0.856192268801316 H 0.0 **** 0.0
130 H15378 0.473400084564748 0.933435554374517 0.848967838905627 H 0.0 **** 0.0
@<TRIPOS>BOND
1 3 2 Aromatic
2 4 3 Aromatic
3 5 4 Aromatic
4 6 5 Aromatic
5 1 2 Aromatic
6 1 6 Aromatic
7 8 7 1
8 9 8 Aromatic
9 10 9 1
10 4 7 1
11 3 10 1
12 12 11 Aromatic
13 13 12 Aromatic
14 14 13 Aromatic
15 9 11 Aromatic
16 8 14 Aromatic
17 16 15 Aromatic
18 17 16 Aromatic
19 18 17 Aromatic
20 14 15 Aromatic
21 13 18 Aromatic
22 20 19 1
23 21 20 1
24 22 21 Aromatic
25 17 19 1
26 16 22 Aromatic
27 24 23 1
28 25 24 Aromatic
29 26 25 1
30 20 23 1
31 19 26 1
32 28 27 Aromatic
33 29 28 Aromatic
34 30 29 Aromatic
35 22 27 Aromatic
36 21 30 Aromatic
37 32 31 1
38 33 32 Aromatic
39 34 33 1
40 29 31 1
41 28 34 1
42 36 35 1
43 37 36 1
44 38 37 Aromatic
45 33 35 1
46 32 38 Aromatic
47 40 39 Aromatic
48 41 40 Aromatic
49 42 41 Aromatic
50 38 39 Aromatic
51 37 42 Aromatic
52 44 43 1
53 45 44 1
54 46 45 1
55 42 43 1
56 41 46 1
57 48 47 1
58 49 48 Aromatic
59 40 49 Aromatic
60 46 47 1
61 51 50 Aromatic
62 52 51 Aromatic
63 53 52 Aromatic
64 49 50 Aromatic
65 48 53 Aromatic
66 6 54 1
67 54 55 1
68 1 56 1
69 5 57 1
70 2 58 1
71 11 59 1
72 12 60 1
73 18 61 1
74 25 62 1
75 24 63 1
76 30 64 1
77 27 65 1
78 34 66 Double
79 31 67 Double
80 53 68 1
81 52 69 1
82 7 70 1
83 7 71 1
84 10 72 1
85 10 73 1
86 15 74 1
87 23 75 1
88 23 76 1
89 24 77 1
90 25 78 1
91 26 79 1
92 26 80 1
93 35 81 1
94 35 82 1
95 36 83 1
96 36 84 1
97 43 85 1
98 43 86 1
99 44 87 1
100 44 88 1
101 45 89 1
102 45 90 1
103 46 91 1
104 47 92 1
105 47 93 1
106 50 94 1
107 51 95 1
108 54 96 1
109 54 97 1
110 55 98 1
111 55 99 1
112 55 100 1
113 56 101 1
114 56 102 1
115 56 103 1
116 57 104 1
117 57 105 1
118 57 106 1
119 58 107 1
120 58 108 1
121 58 109 1
122 59 110 1
123 59 111 1
124 59 112 1
125 60 113 1
126 60 114 1
127 60 115 1
128 61 116 1
129 62 117 1
130 62 118 1
131 62 119 1
132 63 120 1
133 63 121 1
134 63 122 1
135 64 123 1
136 65 124 1
137 68 125 1
138 68 126 1
139 68 127 1
140 69 128 1
141 69 129 1
142 69 130 1
@<TRIPOS>MOLECULE
Sketch 4
130 142
SMALL
USER_CHARGES


@<TRIPOS>ATOM
1 C15380 0.603590743484374 0.236340850630235 0.796869901298562 C.Trigonal 0.0 **** 0.0
2 C15381 0.612991289748475 0.243606177532375 0.809736453617797 C 0.0 **** 0.0
3 C15382 0.60496949503092 0.252417393347983 0.822589081163826 C.Trigonal 0.0 **** 0.0
4 C15383 0.587734889108557 0.254599698477679 0.822250910534606 C.Trigonal 0.0 **** 0.0
5 C15384 0.578340265702784 0.247837466809623 0.809089551565141 C 0.0 **** 0.0
6 C15385 0.586196434359049 0.238271487106349 0.796673208285833 C 0.0 **** 0.0
7 C15392 0.579040800718613 0.264762698420725 0.836125410661934 C 0.0 **** 0.0
8 C15393 0.588699594419556 0.267074702490646 0.852620397768857 C.Trigonal 0.0 **** 0.0
9 C15394 0.605879347873132 0.264801847800244 0.852885252165126 C.Trigonal 0.0 **** 0.0
10 C15395 0.615390224492725 0.260105599473285 0.836779642775708 C 0.0 **** 0.0
11 C15401 0.61500958418582 0.266823050708788 0.867782695501151 C 0.0 **** 0.0
12 C15402 0.607039247493474 0.269893433829707 0.883031727735743 C 0.0 **** 0.0
13 C15403 0.58973265121478 0.273678119173368 0.882847694665296 C.Trigonal 0.0 **** 0.0
14 C15404 0.580592506202089 0.272588254756752 0.867418466534753 C.Trigonal 0.0 **** 0.0
15 C15410 0.563852949739317 0.278428583713234 0.866883226752573 C 0.0 **** 0.0
16 C15411 0.555446262734729 0.285308245254382 0.880846591200922 C.Trigonal 0.0 **** 0.0
17 C15412 0.564074170837107 0.283849000214581 0.896448386760213 C.Trigonal 0.0 **** 0.0
18 C15413 0.581064670183527 0.279790113907101 0.897377055407796 C 0.0 **** 0.0
19 C15419 0.555137883483385 0.289956366994685 0.912022031341812 C.Trigonal 0.0 **** 0.0
20 C15420 0.542772237607007 0.301606119613441 0.910679090596282 C.Trigonal 0.0 **** 0.0
21 C15421 0.537248691285377 0.307433226970674 0.893406399229167 C.Trigonal 0.0 **** 0.0
22 C15422 0.541111433495803 0.296804818043115 0.879611478060076 C.Trigonal 0.0 **** 0.0
23 C15428 0.533367384676689 0.306290876045859 0.92688068849539 C 0.0 **** 0.0
24 C15429 0.546930914876277 0.310184922513176 0.940315851455901 C 0.0 **** 0.0
25 C15430 0.558552346810111 0.294487255617488 0.943694678592287 C 0.0 **** 0.0
26 C15431 0.557741040195836 0.281365375456952 0.929152604155673 C 0.0 **** 0.0
27 C15437 0.532916370386539 0.30046626446684 0.864118849763554 C 0.0 **** 0.0
28 C15438 0.524886052932296 0.315908460899336 0.861937585596437 C.Trigonal 0.0 **** 0.0
29 C15439 0.524029560968668 0.327566977538311 0.874926043177347 C.Trigonal 0.0 **** 0.0
30 C15440 0.530145360740562 0.323376359009974 0.890843323644974 C 0.0 **** 0.0
31 C15446 0.516062283878851 0.344783005017344 0.872167709257728 C 0.0 **** 0.0
32 C15447 0.509098354037722 0.348558335921875 0.855276884867408 C.Trigonal 0.0 **** 0.0
33 C15448 0.50982564956383 0.336956634744396 0.842686096406841 C.Trigonal 0.0 **** 0.0
34 C15449 0.517280310961772 0.320080655214147 0.845017184360189 C 0.0 **** 0.0
35 C15455 0.502987857239794 0.340775532870435 0.825196569515799 C 0.0 **** 0.0
36 C15456 0.504955376218001 0.35972252411465 0.821131449703676 C 0.0 **** 0.0
37 C15457 0.497657283532634 0.370506925477502 0.835248913362311 C.Trigonal 0.0 **** 0.0
38 C15458 0.500730267080839 0.36547565143407 0.85218114026227 C.Trigonal 0.0 **** 0.0
39 N15464 0.496180398451297 0.375301615986387 0.865242303110034 N 0.0 **** 0.0
40 C15465 0.488639365958777 0.390135511521411 0.861899145385346 C.Trigonal 0.0 **** 0.0
41 C15466 0.483949658988755 0.395152342762556 0.845354820544546 C.Trigonal 0.0 **** 0.0
42 C15467 0.488615222658853 0.385088576273661 0.832049565310235 C.Trigonal 0.0 **** 0.0
43 C15473 0.484477383629421 0.390092260727387 0.813890977077857 C 0.0 **** 0.0
44 C15474 0.470605796146067 0.403585118966798 0.8128409120768 C 0.0 **** 0.0
45 C15475 0.474667011086741 0.417839025669443 0.825115100724226 C 0.0 **** 0.0
46 C15476 0.473663424480913 0.411225150745312 0.843244635866532 C 0.0 **** 0.0
47 C15482 0.479616991666573 0.424507910626662 0.856217479487674 C 0.0 **** 0.0
48 C15483 0.479516374463259 0.416896480734315 0.873791796943637 C.Trigonal 0.0 **** 0.0
49 C15484 0.485117863000296 0.400208516520937 0.876150452641991 C.Trigonal 0.0 **** 0.0
50 C15489 0.486517783467097 0.393765433691464 0.892749589791343 C 0.0 **** 0.0
51 C15490 0.481433739959948 0.403446690200882 0.906190053429522 C 0.0 **** 0.0
52 C15491 0.475287907221676 0.419684180176509 0.903833613695458 C 0.0 **** 0.0
53 C15492 0.474480746757776 0.426435051105057 0.887559980596349 C 0.0 **** 0.0
54 C15498 0.575579546559237 0.230122671792221 0.782890218808311 C 0.0 **** 0.0
55 C15500 0.575634584511066 0.241014714658692 0.766865944224969 C 0.0 **** 0.0
56 C15502 0.612862290661014 0.226676472111841 0.783130754742083 C 0.0 **** 0.0
57 C15504 0.559387480870567 0.250811590572427 0.808450453657555 C 0.0 **** 0.0
58 C15506 0.632118358133104 0.24194493337682 0.80999252877888 C 0.0 **** 0.0
59 C15508 0.634105067937056 0.264973052999261 0.86696886735661 C 0.0 **** 0.0
60 C15510 0.617842122149641 0.269592652261287 0.898872835757359 C 0.0 **** 0.0
61 O15512 0.589725400731907 0.282209782774949 0.912179816074846 O 0.0 **** 0.0
62 C15514 0.55447611885553 0.285254576417656 0.960376666520314 C 0.0 **** 0.0
63 C15516 0.538539376964573 0.317287049072734 0.95634016179751 C 0.0 **** 0.0
64 O15518 0.52945384335334 0.334475381119335 0.904236161875771 O 0.0 **** 0.0
65 O15520 0.533675322186994 0.28886496663732 0.851244679296559 O 0.0 **** 0.0
66 O15522 0.517484672620894 0.309621613808054 0.83372253114301 O 0.0 **** 0.0
67 O15524 0.516029799888155 0.354749648882622 0.883896680336551 O 0.0 **** 0.0
68 C15526 0.468181032560205 0.444325445801317 0.884907824779739 C 0.0 **** 0.0
69 C15528 0.469793053293687 0.429560345587675 0.919251641087768 C 0.0 **** 0.0
70 H15530 0.575692318667486 0.277345967537499 0.831044407178958 H 0.0 **** 0.0
71 H15532 0.567072919497219 0.258336724498725 0.839212620604082 H 0.0 **** 0.0
72 H15534 0.625284777073341 0.250915787001986 0.840141910065791 H 0.0 **** 0.0
73 H15536 0.62194420213543 0.271460867838533 0.831925429469664 H 0.0 **** 0.0
74 H15538 0.558263043228818 0.278969894988528 0.854288915511164 H 0.0 **** 0.0
75 H15540 0.524602400176657 0.316999846099347 0.925848260819919 H 0.0 **** 0.0
76 H15542 0.525678171445812 0.295481415312852 0.931044759037489 H 0.0 **** 0.0
77 H15544 0.554990689339012 0.320329097758745 0.935178963376073 H 0.0 **** 0.0
78 H15546 0.571627796588401 0.299116023418252 0.944591425867739 H 0.0 **** 0.0
79 H15548 0.546645540348334 0.273149563832252 0.931109979722241 H 0.0 **** 0.0
80 H15550 0.568644732236765 0.272756133798411 0.929941024975 H 0.0 **** 0.0
81 H15552 0.509435091340046 0.333410917672239 0.815242540244524 H 0.0 **** 0.0
82 H15554 0.489594726768414 0.337268211696309 0.824623038604498 H 0.0 **** 0.0
83 H15556 0.499122488778967 0.362185306643746 0.808791056879758 H 0.0 **** 0.0
84 H15558 0.518511953709075 0.362724758513415 0.819583670242157 H 0.0 **** 0.0
85 H15560 0.496007980597163 0.395063639408868 0.807795586146164 H 0.0 **** 0.0
86 H15562 0.480439213639709 0.379058241957954 0.80646275023847 H 0.0 **** 0.0
87 H15564 0.458240295531237 0.398049663667925 0.81614182173874 H 0.0 **** 0.0
88 H15566 0.469478952442227 0.408320970660296 0.799782033024912 H 0.0 **** 0.0
89 H15568 0.466012114407386 0.428640508775968 0.823448303722321 H 0.0 **** 0.0
90 H15570 0.487522352062312 0.422482245283979 0.822508192195903 H 0.0 **** 0.0
91 H15572 0.460271252916427 0.408331620534962 0.845906562077262 H 0.0 **** 0.0
92 H15574 0.49252844598268 0.428758261873275 0.853008115731663 H 0.0 **** 0.0
93 H15576 0.471445947744306 0.435681966958665 0.855125999639241 H 0.0 **** 0.0
94 H15578 0.491212839855651 0.380858146897102 0.894842068684716 H 0.0 **** 0.0
95 H15580 0.482226279666108 0.398264579441933 0.919054054717863 H 0.0 **** 0.0
96 H15582 0.56245576558955 0.228181254774352 0.787069620393537 H 0.0 **** 0.0
97 H15584 0.580022055084417 0.217259313815485 0.780037148939474 H 0.0 **** 0.0
98 H15586 0.588383342573596 0.241980332400963 0.761385990566628 H 0.0 **** 0.0
99 H15588 0.571185490125428 0.253912828403177 0.769597937453912 H 0.0 **** 0.0
100 H15590 0.567267855727092 0.235714085208441 0.757105438066394 H 0.0 **** 0.0
101 H15592 0.621879252938191 0.217587223148548 0.788590306543361 H 0.0 **** 0.0
102 H15594 0.62004512308343 0.235400106065265 0.774968103709388 H 0.0 **** 0.0
103 H15596 0.604636117224321 0.219361245674955 0.77476138026452 H 0.0 **** 0.0
104 H15598 0.55553884034805 0.262431974214891 0.815003169153679 H 0.0 **** 0.0
105 H15600 0.552414264498127 0.24023674392005 0.814265366534805 H 0.0 **** 0.0
106 H15602 0.5547427281323 0.252328613671048 0.795441754184036 H 0.0 **** 0.0
107 H15604 0.638227896912404 0.253600301328212 0.81446685045245 H 0.0 **** 0.0
108 H15606 0.637565674210879 0.239493572989373 0.797475304945521 H 0.0 **** 0.0
109 H15608 0.636180501632181 0.231586789710475 0.818378661776721 H 0.0 **** 0.0
110 H15610 0.637963469507489 0.251641939426674 0.86786636262492 H 0.0 **** 0.0
111 H15612 0.640543049519579 0.27197916598164 0.877056222660139 H 0.0 **** 0.0
112 H15614 0.639308653083373 0.270061226770318 0.855133032082146 H 0.0 **** 0.0
113 H15616 0.621674718537323 0.282413535757342 0.902728708704504 H 0.0 **** 0.0
114 H15618 0.629356794402733 0.261974374659069 0.897477514557367 H 0.0 **** 0.0
115 H15620 0.611233322871008 0.263588203571079 0.9094991425325 H 0.0 **** 0.0
116 H15622 0.582726154533896 0.288682285811209 0.919446154553843 H 0.0 **** 0.0
117 H15624 0.556433816619426 0.293634285971772 0.971291692001313 H 0.0 **** 0.0
118 H15626 0.562829582451925 0.274244327713196 0.961983104276598 H 0.0 **** 0.0
119 H15628 0.54131211095051 0.280782862727712 0.96048155661554 H 0.0 **** 0.0
120 H15630 0.531339434942178 0.328794488996852 0.953293217042418 H 0.0 **** 0.0
121 H15632 0.548200051345866 0.320699292767974 0.965725531452776 H 0.0 **** 0.0
122 H15634 0.529777715745443 0.308055563967569 0.961926341617642 H 0.0 **** 0.0
123 H15636 0.524307173315985 0.344728204619335 0.900414701519723 H 0.0 **** 0.0
124 H15638 0.526686973678126 0.292588780451633 0.842132477714644 H 0.0 **** 0.0
125 H15640 0.478140018087295 0.452401539680182 0.879471211696564 H 0.0 **** 0.0
126 H15642 0.464009628926168 0.450452883655699 0.896613934293916 H 0.0 **** 0.0
127 H15644 0.457262011767262 0.444657409933614 0.876282160506415 H 0.0 **** 0.0
128 H15646 0.456139166092929 0.43230040653603 0.918939799048126 H 0.0 **** 0.0
129 H15648 0.476562591001255 0.441678931341998 0.920242974150183 H 0.0 **** 0.0
130 H15650 0.47229372307627 0.422593512594288 0.930982428049894 H 0.0 **** 0.0
@<TRIPOS>BOND
1 3 2 Aromatic
2 4 3 Aromatic
3 5 4 Aromatic
4 6 5 Aromatic
5 1 2 Aromatic
6 1 6 Aromatic
7 8 7 1
8 9 8 Aromatic
9 10 9 1
10 4 7 1
11 3 10 1
12 12 11 Aromatic
13 13 12 Aromatic
14 14 13 Aromatic
15 9 11 Aromatic
16 8 14 Aromatic
17 16 15 Aromatic
18 17 16 Aromatic
19 18 17 Aromatic
20 14 15 Aromatic
21 13 18 Aromatic
22 20 19 1
23 21 20 1
24 22 21 Aromatic
25 17 19 1
26 16 22 Aromatic
27 24 23 1
28 25 24 Aromatic
29 26 25 1
30 20 23 1
31 19 26 1
32 28 27 Aromatic
33 29 28 Aromatic
34 30 29 Aromatic
35 22 27 Aromatic
36 21 30 Aromatic
37 32 31 1
38 33 32 Aromatic
39 34 33 1
40 29 31 1
41 28 34 1
42 36 35 1
43 37 36 1
44 38 37 Aromatic
45 33 35 1
46 32 38 Aromatic
47 40 39 Aromatic
48 41 40 Aromatic
49 42 41 Aromatic
50 38 39 Aromatic
51 37 42 Aromatic
52 44 43 1
53 45 44 1
54 46 45 1
55 42 43 1
56 41 46 1
57 48 47 1
58 49 48 Aromatic
59 40 49 Aromatic
60 46 47 1
61 51 50 Aromatic
62 52 51 Aromatic
63 53 52 Aromatic
64 49 50 Aromatic
65 48 53 Aromatic
66 6 54 1
67 54 55 1
68 1 56 1
69 5 57 1
70 2 58 1
71 11 59 1
72 12 60 1
73 18 61 1
74 25 62 1
75 24 63 1
76 30 64 1
77 27 65 1
78 34 66 Double
79 31 67 Double
80 53 68 1
81 52 69 1
82 7 70 1
83 7 71 1
84 10 72 1
85 10 73 1
86 15 74 1
87 23 75 1
88 23 76 1
89 24 77 1
90 25 78 1
91 26 79 1
92 26 80 1
93 35 81 1
94 35 82 1
95 36 83 1
96 36 84 1
97 43 85 1
98 43 86 1
99 44 87 1
100 44 88 1
101 45 89 1
102 45 90 1
103 46 91 1
104 47 92 1
105 47 93 1
106 50 94 1
107 51 95 1
108 54 96 1
109 54 97 1
110 55 98 1
111 55 99 1
112 55 100 1
113 56 101 1
114 56 102 1
115 56 103 1
116 57 104 1
117 57 105 1
118 57 106 1
119 58 107 1
120 58 108 1
121 58 109 1
122 59 110 1
123 59 111 1
124 59 112 1
125 60 113 1
126 60 114 1
127 60 115 1
128 61 116 1
129 62 117 1
130 62 118 1
131 62 119 1
132 63 120 1
133 63 121 1
134 63 122 1
135 64 123 1
136 65 124 1
137 68 125 1
138 68 126 1
139 68 127 1
140 69 128 1
141 69 129 1
142 69 130 1
@<TRIPOS>MOLECULE
Sketch 4
130 142
SMALL
USER_CHARGES


@<TRIPOS>ATOM
1 C15652 0.525683177186831 0.274598351911566 0.424604890092825 C.Trigonal 0.0 **** 0.0
2 C15653 0.521785674901208 0.272718487151544 0.407630831660006 C 0.0 **** 0.0
3 C15654 0.532990803740996 0.27855055721482 0.395540978580691 C.Trigonal 0.0 **** 0.0
4 C15655 0.547671884001307 0.286652092223808 0.400265868461775 C.Trigonal 0.0 **** 0.0
5 C15656 0.551876540267797 0.288115294635696 0.417167296923996 C 0.0 **** 0.0
6 C15657 0.540698568893024 0.282313996838835 0.429333867535114 C 0.0 **** 0.0
7 C15664 0.558772739440673 0.29389431577127 0.386309289371959 C 0.0 **** 0.0
8 C15665 0.548323862876299 0.301302729579068 0.371903388547059 C.Trigonal 0.0 **** 0.0
9 C15666 0.533968124449308 0.29266347998852 0.367206617646941 C.Trigonal 0.0 **** 0.0
10 C15667 0.529922962188188 0.276450911683035 0.37671442333304 C 0.0 **** 0.0
11 C15673 0.523549946295417 0.298590411835266 0.354388971714853 C 0.0 **** 0.0
12 C15674 0.526554874633134 0.314131604204345 0.346949379573328 C 0.0 **** 0.0
13 C15675 0.54191153640356 0.32231327883673 0.350295727001763 C.Trigonal 0.0 **** 0.0
14 C15676 0.552997769205475 0.315730636979012 0.362791369207098 C.Trigonal 0.0 **** 0.0
15 C15682 0.568940121700883 0.323161277068223 0.364898773952469 C 0.0 **** 0.0
16 C15683 0.574512697277083 0.33717882451109 0.355654636206507 C.Trigonal 0.0 **** 0.0
17 C15684 0.562141976873833 0.344969644941459 0.345382220156716 C.Trigonal 0.0 **** 0.0
18 C15685 0.547325568299399 0.33669690105625 0.340942799455748 C 0.0 **** 0.0
19 C15691 0.567072897687007 0.360649610940976 0.33590690309328 C.Trigonal 0.0 **** 0.0
20 C15692 0.583420545245254 0.362945836137809 0.331460377355077 C.Trigonal 0.0 **** 0.0
21 C15693 0.596669480192117 0.350900775557267 0.338405243806096 C.Trigonal 0.0 **** 0.0
22 C15694 0.592280432910842 0.340824007510049 0.352521003755908 C.Trigonal 0.0 **** 0.0
23 C15700 0.588956173981913 0.377744433395157 0.320304436530784 C 0.0 **** 0.0
24 C15701 0.575369294461714 0.391589033155574 0.31831176871769 C 0.0 **** 0.0
25 C15702 0.557481932725814 0.383981241960053 0.31650671997172 C 0.0 **** 0.0
26 C15703 0.553637264299547 0.374174975125268 0.332811629737157 C 0.0 **** 0.0
27 C15709 0.605455350512485 0.331515382772925 0.36036685767381 C 0.0 **** 0.0
28 C15710 0.620514481505334 0.328851499668966 0.351789110262646 C.Trigonal 0.0 **** 0.0
29 C15711 0.623966039495732 0.337468538251992 0.337034751593113 C.Trigonal 0.0 **** 0.0
30 C15712 0.612282703496194 0.348806002912324 0.330452884676973 C 0.0 **** 0.0
31 C15718 0.64062061324452 0.334955311241966 0.327985999437124 C 0.0 **** 0.0
32 C15719 0.652617899804032 0.322420606803411 0.334876790879444 C.Trigonal 0.0 **** 0.0
33 C15720 0.648799071316965 0.313330183616071 0.348864831452266 C.Trigonal 0.0 **** 0.0
34 C15721 0.633085980627758 0.316196572270377 0.358530336589874 C 0.0 **** 0.0
35 C15727 0.660175745436792 0.299258689730056 0.35517340358811 C 0.0 **** 0.0
36 C15728 0.678999946919503 0.301842446000403 0.350416437532657 C 0.0 **** 0.0
37 C15729 0.681906352902487 0.309692961546467 0.333093222233558 C.Trigonal 0.0 **** 0.0
38 C15730 0.669198516803251 0.319936639611127 0.325762862027128 C.Trigonal 0.0 **** 0.0
39 N15736 0.67197294183194 0.328280076277949 0.311286779014611 N 0.0 **** 0.0
40 C15737 0.687384681898421 0.327707518078175 0.30440476931578 C.Trigonal 0.0 **** 0.0
41 C15738 0.700408068354117 0.317130192815159 0.310612598906677 C.Trigonal 0.0 **** 0.0
42 C15739 0.697250570217356 0.307804862783296 0.324860317614024 C.Trigonal 0.0 **** 0.0
43 C15745 0.710754516193981 0.296191559031997 0.332215719839726 C 0.0 **** 0.0
44 C15746 0.725158851087615 0.292654527279865 0.319732649528279 C 0.0 **** 0.0
45 C15747 0.731061775100777 0.309030559396643 0.311474876538695 C 0.0 **** 0.0
46 C15748 0.716795210498175 0.316295168933977 0.300633405124294 C 0.0 **** 0.0
47 C15754 0.721118022878158 0.334098859160853 0.293775865720054 C 0.0 **** 0.0
48 C15755 0.706063176907339 0.34135540584386 0.284369372653032 C.Trigonal 0.0 **** 0.0
49 C15756 0.689601176227137 0.337940434098106 0.290038428302027 C.Trigonal 0.0 **** 0.0
50 C15761 0.675673458125854 0.34508331325344 0.281434427681083 C 0.0 **** 0.0
51 C15762 0.678391003180952 0.355419872621912 0.267809553102227 C 0.0 **** 0.0
52 C15763 0.6946363014114 0.359245874568219 0.262509750753439 C 0.0 **** 0.0
53 C15764 0.708477551078681 0.352416842136277 0.271034536795817 C 0.0 **** 0.0
54 C15770 0.544860563339861 0.284724112402315 0.447892887028196 C 0.0 **** 0.0
55 C15772 0.554287764146723 0.269281649777547 0.4548304929923 C 0.0 **** 0.0
56 C15774 0.513301125947993 0.268248458046742 0.437835638393397 C 0.0 **** 0.0
57 C15776 0.568491617369835 0.296322790505012 0.422101315946567 C 0.0 **** 0.0
58 C15778 0.505378424908726 0.264590760179017 0.40195041496208 C 0.0 **** 0.0
59 C15780 0.508370395593815 0.288054868985928 0.349078722178382 C 0.0 **** 0.0
60 C15782 0.51309637398152 0.321040187477969 0.335192062167004 C 0.0 **** 0.0
61 O15784 0.537982536679261 0.34201817441161 0.327335035772336 O 0.0 **** 0.0
62 C15786 0.555345741464562 0.372636525510261 0.300816616288946 C 0.0 **** 0.0
63 C15788 0.579632623538312 0.402866895329662 0.303060897273694 C 0.0 **** 0.0
64 O15790 0.615559297629553 0.357852933140159 0.315955873598598 O 0.0 **** 0.0
65 O15792 0.602694607910751 0.324389850641766 0.375950820140991 O 0.0 **** 0.0
66 O15794 0.629760240128495 0.308338625001018 0.371337213016349 O 0.0 **** 0.0
67 O15796 0.643241603034667 0.343377721100518 0.315376694763216 O 0.0 **** 0.0
68 C15798 0.726239273392235 0.357226312981706 0.265782659248758 C 0.0 **** 0.0
69 C15800 0.696667388875987 0.371090389699625 0.247683025357864 C 0.0 **** 0.0
70 H15802 0.566717234709868 0.303842068819125 0.391741305718193 H 0.0 **** 0.0
71 H15804 0.567422988942547 0.284075662416332 0.38140554292166 H 0.0 **** 0.0
72 H15806 0.53795962794051 0.26609270522037 0.371839497406292 H 0.0 **** 0.0
73 H15808 0.516938099677834 0.27241401712861 0.374387004271232 H 0.0 **** 0.0
74 H15810 0.577576627553495 0.316159985815655 0.373023724038917 H 0.0 **** 0.0
75 H15812 0.6005424555657 0.383693753963562 0.325270745680737 H 0.0 **** 0.0
76 H15814 0.59188832316348 0.372852459322112 0.307596454754647 H 0.0 **** 0.0
77 H15816 0.575532637218064 0.399563358912064 0.329738868410784 H 0.0 **** 0.0
78 H15818 0.548363807631411 0.394409826451704 0.315372227301423 H 0.0 **** 0.0
79 H15820 0.54047935910894 0.369740705825743 0.332471061733285 H 0.0 **** 0.0
80 H15822 0.554030111779648 0.383065276101361 0.343548206092917 H 0.0 **** 0.0
81 H15824 0.659326652712286 0.297714385835873 0.369018507024145 H 0.0 **** 0.0
82 H15826 0.655740207326262 0.287230766159312 0.349687583594929 H 0.0 **** 0.0
83 H15828 0.685372286684185 0.28956341770772 0.351782580292742 H 0.0 **** 0.0
84 H15830 0.684770883998433 0.31024080690553 0.359852734735181 H 0.0 **** 0.0
85 H15832 0.716007420687618 0.30213181824406 0.343647849484545 H 0.0 **** 0.0
86 H15834 0.705279401596241 0.28402412943423 0.336173626503527 H 0.0 **** 0.0
87 H15836 0.72065668294676 0.284005563982938 0.309777041127187 H 0.0 **** 0.0
88 H15838 0.735667702614468 0.286167830254039 0.326189581164774 H 0.0 **** 0.0
89 H15840 0.742444142057126 0.306944972827485 0.303711538689775 H 0.0 **** 0.0
90 H15842 0.734598502372493 0.318187627508487 0.32133401914967 H 0.0 **** 0.0
91 H15844 0.714912823874842 0.307753087844627 0.289710178610203 H 0.0 **** 0.0
92 H15846 0.724592838396113 0.342502832754498 0.304374112409147 H 0.0 **** 0.0
93 H15848 0.73234564294839 0.333082551834045 0.285647626195891 H 0.0 **** 0.0
94 H15850 0.662705287239988 0.342447276113136 0.285674729057175 H 0.0 **** 0.0
95 H15852 0.667538506390872 0.360981591123289 0.261142292573388 H 0.0 **** 0.0
96 H15854 0.533310626252342 0.286998937612635 0.455264968731345 H 0.0 **** 0.0
97 H15856 0.552439403030317 0.296211623382869 0.449895890129005 H 0.0 **** 0.0
98 H15858 0.56632169195521 0.267320941168963 0.4481354536354 H 0.0 **** 0.0
99 H15860 0.54672632319017 0.257690312461429 0.45340790722435 H 0.0 **** 0.0
100 H15862 0.557174952370079 0.270757013473754 0.4683497482071 H 0.0 **** 0.0
101 H15864 0.502703315359241 0.277157645075869 0.439431211809312 H 0.0 **** 0.0
102 H15866 0.51899708762785 0.266296612015287 0.450317212449796 H 0.0 **** 0.0
103 H15868 0.507978219940744 0.255883161731871 0.434397456236319 H 0.0 **** 0.0
104 H15870 0.578616977687015 0.29342538178073 0.413028177767269 H 0.0 **** 0.0
105 H15872 0.573282837168921 0.291918559492734 0.434351434129842 H 0.0 **** 0.0
106 H15874 0.567208331392756 0.310180350810218 0.422788301019362 H 0.0 **** 0.0
107 H15876 0.507742503518569 0.252490184967205 0.395469395601961 H 0.0 **** 0.0
108 H15878 0.498527697062962 0.272915432570819 0.393145766493631 H 0.0 **** 0.0
109 H15880 0.49646914955834 0.262042055030138 0.412245901566402 H 0.0 **** 0.0
110 H15882 0.497360162293709 0.290627844158532 0.35720913334839 H 0.0 **** 0.0
111 H15884 0.511053641403697 0.274425056401441 0.349566906762739 H 0.0 **** 0.0
112 H15886 0.50462722042349 0.290364215997913 0.335901355664746 H 0.0 **** 0.0
113 H15888 0.515964653972247 0.318242433069953 0.321855744556058 H 0.0 **** 0.0
114 H15890 0.511501414435575 0.334783857700684 0.336594951462633 H 0.0 **** 0.0
115 H15892 0.500517434103949 0.315938444805742 0.338048661655309 H 0.0 **** 0.0
116 H15894 0.544234515871762 0.350663203972106 0.321842711066349 H 0.0 **** 0.0
117 H15896 0.557262297273901 0.379996966776687 0.289185026142406 H 0.0 **** 0.0
118 H15898 0.542458817148612 0.367452606745617 0.300351570205231 H 0.0 **** 0.0
119 H15900 0.56439762815194 0.362094010858349 0.300864449166436 H 0.0 **** 0.0
120 H15902 0.591902153159076 0.409117117427458 0.304875517753998 H 0.0 **** 0.0
121 H15904 0.569921079216044 0.412656774912537 0.301487342627675 H 0.0 **** 0.0
122 H15906 0.58033761378409 0.39540191468965 0.291357946637222 H 0.0 **** 0.0
123 H15908 0.626305425637191 0.354505452428006 0.311566557844284 H 0.0 **** 0.0
124 H15910 0.612024468405309 0.317245725669838 0.37878090529151 H 0.0 **** 0.0
125 H15912 0.73374821710632 0.361339516967383 0.276751847758719 H 0.0 **** 0.0
126 H15914 0.726582457000027 0.367707060204269 0.256742780053969 H 0.0 **** 0.0
127 H15916 0.732822704743258 0.346539031827673 0.259796388248175 H 0.0 **** 0.0
128 H15918 0.702004361075817 0.383270239967529 0.251796437914993 H 0.0 **** 0.0
129 H15920 0.684505160328192 0.373759567376108 0.241541297099389 H 0.0 **** 0.0
130 H15922 0.70502522910019 0.365755270801306 0.237918331911987 H 0.0 **** 0.0
@<TRIPOS>BOND
1 3 2 Aromatic
2 4 3 Aromatic
3 5 4 Aromatic
4 6 5 Aromatic
5 1 2 Aromatic
6 1 6 Aromatic
7 8 7 1
8 9 8 Aromatic
9 10 9 1
10 4 7 1
11 3 10 1
12 12 11 Aromatic
13 13 12 Aromatic
14 14 13 Aromatic
15 9 11 Aromatic
16 8 14 Aromatic
17 16 15 Aromatic
18 17 16 Aromatic
19 18 17 Aromatic
20 14 15 Aromatic
21 13 18 Aromatic
22 20 19 1
23 21 20 1
24 22 21 Aromatic
25 17 19 1
26 16 22 Aromatic
27 24 23 1
28 25 24 Aromatic
29 26 25 1
30 20 23 1
31 19 26 1
32 28 27 Aromatic
33 29 28 Aromatic
34 30 29 Aromatic
35 22 27 Aromatic
36 21 30 Aromatic
37 32 31 1
38 33 32 Aromatic
39 34 33 1
40 29 31 1
41 28 34 1
42 36 35 1
43 37 36 1
44 38 37 Aromatic
45 33 35 1
46 32 38 Aromatic
47 40 39 Aromatic
48 41 40 Aromatic
49 42 41 Aromatic
50 38 39 Aromatic
51 37 42 Aromatic
52 44 43 1
53 45 44 1
54 46 45 1
55 42 43 1
56 41 46 1
57 48 47 1
58 49 48 Aromatic
59 40 49 Aromatic
60 46 47 1
61 51 50 Aromatic
62 52 51 Aromatic
63 53 52 Aromatic
64 49 50 Aromatic
65 48 53 Aromatic
66 6 54 1
67 54 55 1
68 1 56 1
69 5 57 1
70 2 58 1
71 11 59 1
72 12 60 1
73 18 61 1
74 25 62 1
75 24 63 1
76 30 64 1
77 27 65 1
78 34 66 Double
79 31 67 Double
80 53 68 1
81 52 69 1
82 7 70 1
83 7 71 1
84 10 72 1
85 10 73 1
86 15 74 1
87 23 75 1
88 23 76 1
89 24 77 1
90 25 78 1
91 26 79 1
92 26 80 1
93 35 81 1
94 35 82 1
95 36 83 1
96 36 84 1
97 43 85 1
98 43 86 1
99 44 87 1
100 44 88 1
101 45 89 1
102 45 90 1
103 46 91 1
104 47 92 1
105 47 93 1
106 50 94 1
107 51 95 1
108 54 96 1
109 54 97 1
110 55 98 1
111 55 99 1
112 55 100 1
113 56 101 1
114 56 102 1
115 56 103 1
116 57 104 1
117 57 105 1
118 57 106 1
119 58 107 1
120 58 108 1
121 58 109 1
122 59 110 1
123 59 111 1
124 59 112 1
125 60 113 1
126 60 114 1
127 60 115 1
128 61 116 1
129 62 117 1
130 62 118 1
131 62 119 1
132 63 120 1
133 63 121 1
134 63 122 1
135 64 123 1
136 65 124 1
137 68 125 1
138 68 126 1
139 68 127 1
140 69 128 1
141 69 129 1
142 69 130 1
@<TRIPOS>MOLECULE
Sketch 4
130 142
SMALL
USER_CHARGES


@<TRIPOS>ATOM
1 C15924 0.831252257001005 0.979149787254539 0.204697513956494 C.Trigonal 0.0 **** 0.0
2 C15925 0.82765936026749 0.994406841540401 0.196856153037987 C 0.0 **** 0.0
3 C15926 0.834071739111443 0.997613165019998 0.180945011274767 C.Trigonal 0.0 **** 0.0
4 C15927 0.842221931830199 0.984941562096771 0.172189609714746 C.Trigonal 0.0 **** 0.0
5 C15928 0.845928491237264 0.969697677094245 0.179881216625038 C 0.0 **** 0.0
6 C15929 0.840511883088272 0.966877934761014 0.196287340428692 C 0.0 **** 0.0
7 C15936 0.846336100639605 0.988787103772228 0.153927031646541 C 0.0 **** 0.0
8 C15937 0.854881968386153 1.00583064560949 0.152319121529812 C.Trigonal 0.0 **** 0.0
9 C15938 0.847816554459762 1.01890666849545 0.161350698601694 C.Trigonal 0.0 **** 0.0
10 C15939 0.832395879643481 1.01478801709389 0.172333258630393 C 0.0 **** 0.0
11 C15945 0.854648426932654 1.03508741164618 0.160626187163934 C 0.0 **** 0.0
12 C15946 0.869082719669926 1.03834923899103 0.151220110815736 C 0.0 **** 0.0
13 C15947 0.875144925409382 1.0257413449979 0.140330178641611 C.Trigonal 0.0 **** 0.0
14 C15948 0.868813646752562 1.00901919292582 0.141983586576517 C.Trigonal 0.0 **** 0.0
15 C15954 0.876642759388626 0.996123317236575 0.132821541422741 C 0.0 **** 0.0
16 C15955 0.889270586096529 0.999367890927121 0.120921563277082 C.Trigonal 0.0 **** 0.0
17 C15956 0.891389666779755 1.01631838953299 0.115782172490316 C.Trigonal 0.0 **** 0.0
18 C15957 0.886134485726096 1.0293619752273 0.126401484999306 C 0.0 **** 0.0
19 C15963 0.900759872936456 1.01916190615315 0.0992935871304456 C.Trigonal 0.0 **** 0.0
20 C15964 0.908166132433331 1.00592485165405 0.0909913463403619 C.Trigonal 0.0 **** 0.0
21 C15965 0.908644823015488 0.988406015938506 0.0991287877105852 C.Trigonal 0.0 **** 0.0
22 C15966 0.900431328844174 0.986567726515446 0.114854200994465 C.Trigonal 0.0 **** 0.0
23 C15972 0.917252270729197 1.00847784644729 0.0741278744496686 C 0.0 **** 0.0
24 C15973 0.919957091838699 1.02731840829955 0.0701444766493055 C 0.0 **** 0.0
25 C15974 0.903501395355361 1.03730470452875 0.0727776147739781 C 0.0 **** 0.0
26 C15975 0.899633947913568 1.03692320614961 0.0917839150600235 C 0.0 **** 0.0
27 C15981 0.903954985303936 0.972025364112306 0.124836457630963 C 0.0 **** 0.0
28 C15982 0.913306991545356 0.95900149906004 0.118005733859644 C.Trigonal 0.0 **** 0.0
29 C15983 0.918660106948985 0.959647736831045 0.101392123710751 C.Trigonal 0.0 **** 0.0
30 C15984 0.916264724863683 0.974221060035589 0.0917457539913493 C 0.0 **** 0.0
31 C15990 0.927811659886583 0.944670407212996 0.0937465906413999 C 0.0 **** 0.0
32 C15991 0.931619747629164 0.930183458388601 0.104870542389977 C.Trigonal 0.0 **** 0.0
33 C15992 0.927078200800159 0.930103677201955 0.12136685217166 C.Trigonal 0.0 **** 0.0
34 C15993 0.917512578308468 0.9440249976986 0.128965347350959 C 0.0 **** 0.0
35 C15999 0.931694179981488 0.915404009735164 0.132854946452993 C 0.0 **** 0.0
36 C16000 0.948947010960785 0.90809745997437 0.127350658611612 C 0.0 **** 0.0
37 C16001 0.948333594090665 0.903489793812688 0.108721038597438 C.Trigonal 0.0 **** 0.0
38 C16002 0.940299955902527 0.914931017464738 0.0975321436072542 C.Trigonal 0.0 **** 0.0
39 N16008 0.939127237550289 0.911812047854674 0.0809300394583752 N 0.0 **** 0.0
40 C16009 0.946429244233975 0.89775177312899 0.0749294518868482 C.Trigonal 0.0 **** 0.0
41 C16010 0.954682842351842 0.88577254584594 0.0854153348988907 C.Trigonal 0.0 **** 0.0
42 C16011 0.955208483048842 0.888727138993144 0.102478240084349 C.Trigonal 0.0 **** 0.0
43 C16017 0.963395885156663 0.876185780503508 0.114604545459477 C 0.0 **** 0.0
44 C16018 0.968160613549611 0.859360363636147 0.106214688912638 C 0.0 **** 0.0
45 C16019 0.975294638452189 0.862045723786014 0.0884829511361903 C 0.0 **** 0.0
46 C16020 0.961293680010983 0.869595192117528 0.07745343616179 C 0.0 **** 0.0
47 C16026 0.966928212291171 0.873221892387053 0.0591082864929371 C 0.0 **** 0.0
48 C16027 0.952520285729431 0.881622135888508 0.0496801262868342 C.Trigonal 0.0 **** 0.0
49 C16028 0.94345940742768 0.894598855351439 0.0577071616066777 C.Trigonal 0.0 **** 0.0
50 C16033 0.93024837210341 0.902832869392302 0.0489264362216365 C 0.0 **** 0.0
51 C16034 0.926195158772724 0.897784182513244 0.0328682923361673 C 0.0 **** 0.0
52 C16035 0.935097646308757 0.88496818693755 0.0249176439093358 C 0.0 **** 0.0
53 C16036 0.948346271561179 0.876923752725765 0.0333616810092532 C 0.0 **** 0.0
54 C16042 0.844354395465345 0.950204893286667 0.204943547008295 C 0.0 **** 0.0
55 C16044 0.861181961265631 0.951293404817538 0.214495330520314 C 0.0 **** 0.0
56 C16046 0.825046856483201 0.976237427435596 0.222618629036353 C 0.0 **** 0.0
57 C16048 0.855777105036732 0.956408906830069 0.170201535026028 C 0.0 **** 0.0
58 C16050 0.816781041081975 1.00738688100251 0.205719288700214 C 0.0 **** 0.0
59 C16052 0.846153491818972 1.04920194886761 0.170521023314428 C 0.0 **** 0.0
60 C16054 0.876788261685729 1.05587050434242 0.152422896682586 C 0.0 **** 0.0
61 O16056 0.891094061169852 1.04573575459053 0.123663550910775 O 0.0 **** 0.0
62 C16058 0.888448416392913 1.03048959053383 0.0624269304228214 C 0.0 **** 0.0
63 C16060 0.927113411412356 1.02959293354461 0.0522867900049626 C 0.0 **** 0.0
64 O16062 0.921772337425067 0.975111177125272 0.0752738855697675 O 0.0 **** 0.0
65 O16064 0.898093414564018 0.971474704633608 0.141140455990526 O 0.0 **** 0.0
66 O16066 0.913046593744858 0.943784554720799 0.143680758617318 O 0.0 **** 0.0
67 O16068 0.93162453854451 0.945209073843167 0.0788555736892656 O 0.0 **** 0.0
68 C16070 0.958151181316739 0.862960180135165 0.024654942266628 C 0.0 **** 0.0
69 C16072 0.929926396004471 0.88022211358684 0.00714737348939069 C 0.0 **** 0.0
70 H16074 0.85341263515607 0.978546785053057 0.148074942226276 H 0.0 **** 0.0
71 H16076 0.834369517230132 0.989193781303634 0.146666380052174 H 0.0 **** 0.0
72 H16078 0.820763692879139 1.01521207941916 0.164599571893037 H 0.0 **** 0.0
73 H16080 0.831014091659303 1.0244805558524 0.182119685311045 H 0.0 **** 0.0
74 H16082 0.873020362034049 0.982966470751563 0.134992351515067 H 0.0 **** 0.0
75 H16084 0.929859929093272 1.00258770242866 0.074219624431101 H 0.0 **** 0.0
76 H16086 0.909975692926667 1.00252473323402 0.0638448561951857 H 0.0 **** 0.0
77 H16088 0.929375819857325 1.03233595880795 0.0790233228766396 H 0.0 **** 0.0
78 H16090 0.905656239480042 1.05054969399431 0.0690527413806788 H 0.0 **** 0.0
79 H16092 0.886980368664705 1.04243167892842 0.0936498592562234 H 0.0 **** 0.0
80 H16094 0.908856996934427 1.04520078758883 0.0981188243623289 H 0.0 **** 0.0
81 H16096 0.93253899689637 0.919218723509011 0.146263033918427 H 0.0 **** 0.0
82 H16098 0.921876258454993 0.90554662666624 0.132131772436052 H 0.0 **** 0.0
83 H16100 0.952058418032492 0.897312904101069 0.13550972840005 H 0.0 **** 0.0
84 H16102 0.958935025971062 0.917605377981908 0.129594037482939 H 0.0 **** 0.0
85 H16104 0.974773895633381 0.88203423651856 0.120102525895908 H 0.0 **** 0.0
86 H16106 0.954834200370021 0.873435000396726 0.125245732874111 H 0.0 **** 0.0
87 H16108 0.956739853362182 0.85141084686111 0.105151859201878 H 0.0 **** 0.0
88 H16110 0.977001679208714 0.852333343764058 0.114348613390551 H 0.0 **** 0.0
89 H16112 0.979704809369951 0.849981060528169 0.0830630856846757 H 0.0 **** 0.0
90 H16114 0.986329826757651 0.870558951738795 0.0888536551970954 H 0.0 **** 0.0
91 H16116 0.950877019490418 0.86026947215202 0.0769815292402623 H 0.0 **** 0.0
92 H16118 0.978119440867586 0.881582085760619 0.0591609114475663 H 0.0 **** 0.0
93 H16120 0.97097335759137 0.861308651253825 0.0532397284220964 H 0.0 **** 0.0
94 H16122 0.92275056696323 0.912697809159557 0.0552159896292833 H 0.0 **** 0.0
95 H16124 0.915744337717262 0.904034842116741 0.0261811108103278 H 0.0 **** 0.0
96 H16126 0.844679177799835 0.939718366753627 0.195810475727064 H 0.0 **** 0.0
97 H16128 0.834170258898454 0.946723322062007 0.213697637226968 H 0.0 **** 0.0
98 H16130 0.860634061987878 0.960817039788276 0.224614217150392 H 0.0 **** 0.0
99 H16132 0.871555230530054 0.954841435295707 0.205940135227063 H 0.0 **** 0.0
100 H16134 0.864559713480871 0.939174763485721 0.220417622899714 H 0.0 **** 0.0
101 H16136 0.824964326121646 0.988022862261886 0.229979303829252 H 0.0 **** 0.0
102 H16138 0.833164068818849 0.967580068828449 0.229789873524827 H 0.0 **** 0.0
103 H16140 0.812123129659665 0.971023662898234 0.222733553749567 H 0.0 **** 0.0
104 H16142 0.847503724497933 0.949432826344101 0.161436986662377 H 0.0 **** 0.0
105 H16144 0.862009101786996 0.947112287688086 0.178384106809841 H 0.0 **** 0.0
106 H16146 0.86608582234916 0.962059394513946 0.162778952097357 H 0.0 **** 0.0
107 H16148 0.810890533332264 1.01633132618355 0.196899250843712 H 0.0 **** 0.0
108 H16150 0.824015709517765 1.01472914571098 0.215075009739776 H 0.0 **** 0.0
109 H16152 0.806181429023569 1.00127527017645 0.212311205254044 H 0.0 **** 0.0
110 H16154 0.832334078824456 1.04776154072764 0.170832450364425 H 0.0 **** 0.0
111 H16156 0.848214792469569 1.06170821618416 0.164833631737337 H 0.0 **** 0.0
112 H16158 0.850740548162969 1.04967500447629 0.183666423114905 H 0.0 **** 0.0
113 H16160 0.874412919366774 1.06188371790185 0.164713838692769 H 0.0 **** 0.0
114 H16162 0.871865010602882 1.06434416780565 0.142529721336865 H 0.0 **** 0.0
115 H16164 0.890650375026808 1.05551446533162 0.151418851041843 H 0.0 **** 0.0
116 H16166 0.901371135054961 1.04532216994532 0.117510942338463 H 0.0 **** 0.0
117 H16168 0.891256284877276 1.03097747708259 0.0488347568872076 H 0.0 **** 0.0
118 H16170 0.877127282891055 1.03823895036522 0.0647230781897755 H 0.0 **** 0.0
119 H16172 0.885427399763912 1.01736701486334 0.0658685098767169 H 0.0 **** 0.0
120 H16174 0.939305434420517 1.02301347033894 0.0510704105627004 H 0.0 **** 0.0
121 H16176 0.929121388764815 1.04305491486421 0.0494779866619676 H 0.0 **** 0.0
122 H16178 0.918379086410414 1.02433732103803 0.0429454023433678 H 0.0 **** 0.0
123 H16180 0.92647244131736 0.964438427653177 0.0721038971480357 H 0.0 **** 0.0
124 H16182 0.903110631716629 0.96208080054477 0.146869594340089 H 0.0 **** 0.0
125 H16184 0.971863853762379 0.865304343082216 0.0252438350888272 H 0.0 **** 0.0
126 H16186 0.955030226763401 0.861660178958455 0.0112112087692377 H 0.0 **** 0.0
127 H16188 0.955644301947385 0.850611325711584 0.0305948521825853 H 0.0 **** 0.0
128 H16190 0.940383893098392 0.881957470912667 -0.00187576747661108 H 0.0 **** 0.0
129 H16192 0.919371536367955 0.887997308373134 0.00260497975363454 H 0.0 **** 0.0
130 H16194 0.925793776577625 0.866964784254738 0.00651359124547007 H 0.0 **** 0.0
@<TRIPOS>BOND
1 3 2 Aromatic
2 4 3 Aromatic
3 5 4 Aromatic
4 6 5 Aromatic
5 1 2 Aromatic
6 1 6 Aromatic
7 8 7 1
8 9 8 Aromatic
9 10 9 1
10 4 7 1
11 3 10 1
12 12 11 Aromatic
13 13 12 Aromatic
14 14 13 Aromatic
15 9 11 Aromatic
16 8 14 Aromatic
17 16 15 Aromatic
18 17 16 Aromatic
19 18 17 Aromatic
20 14 15 Aromatic
21 13 18 Aromatic
22 20 19 1
23 21 20 1
24 22 21 Aromatic
25 17 19 1
26 16 22 Aromatic
27 24 23 1
28 25 24 Aromatic
29 26 25 1
30 20 23 1
31 19 26 1
32 28 27 Aromatic
33 29 28 Aromatic
34 30 29 Aromatic
35 22 27 Aromatic
36 21 30 Aromatic
37 32 31 1
38 33 32 Aromatic
39 34 33 1
40 29 31 1
41 28 34 1
42 36 35 1
43 37 36 1
44 38 37 Aromatic
45 33 35 1
46 32 38 Aromatic
47 40 39 Aromatic
48 41 40 Aromatic
49 42 41 Aromatic
50 38 39 Aromatic
51 37 42 Aromatic
52 44 43 1
53 45 44 1
54 46 45 1
55 42 43 1
56 41 46 1
57 48 47 1
58 49 48 Aromatic
59 40 49 Aromatic
60 46 47 1
61 51 50 Aromatic
62 52 51 Aromatic
63 53 52 Aromatic
64 49 50 Aromatic
65 48 53 Aromatic
66 6 54 1
67 54 55 1
68 1 56 1
69 5 57 1
70 2 58 1
71 11 59 1
72 12 60 1
73 18 61 1
74 25 62 1
75 24 63 1
76 30 64 1
77 27 65 1
78 34 66 Double
79 31 67 Double
80 53 68 1
81 52 69 1
82 7 70 1
83 7 71 1
84 10 72 1
85 10 73 1
86 15 74 1
87 23 75 1
88 23 76 1
89 24 77 1
90 25 78 1
91 26 79 1
92 26 80 1
93 35 81 1
94 35 82 1
95 36 83 1
96 36 84 1
97 43 85 1
98 43 86 1
99 44 87 1
100 44 88 1
101 45 89 1
102 45 90 1
103 46 91 1
104 47 92 1
105 47 93 1
106 50 94 1
107 51 95 1
108 54 96 1
109 54 97 1
110 55 98 1
111 55 99 1
112 55 100 1
113 56 101 1
114 56 102 1
115 56 103 1
116 57 104 1
117 57 105 1
118 57 106 1
119 58 107 1
120 58 108 1
121 58 109 1
122 59 110 1
123 59 111 1
124 59 112 1
125 60 113 1
126 60 114 1
127 60 115 1
128 61 116 1
129 62 117 1
130 62 118 1
131 62 119 1
132 63 120 1
133 63 121 1
134 63 122 1
135 64 123 1
136 65 124 1
137 68 125 1
138 68 126 1
139 68 127 1
140 69 128 1
141 69 129 1
142 69 130 1
@<TRIPOS>MOLECULE
Sketch 4
130 142
SMALL
USER_CHARGES


@<TRIPOS>ATOM
1 C16196 0.461148853204292 0.65742205918417 0.374587162287921 C.Trigonal 0.0 **** 0.0
2 C16197 0.466488587026513 0.66298307317567 0.358853537219597 C 0.0 **** 0.0
3 C16198 0.457322309008008 0.675312768884061 0.350482708751736 C.Trigonal 0.0 **** 0.0
4 C16199 0.443543588189679 0.682664675848975 0.358137510243938 C.Trigonal 0.0 **** 0.0
5 C16200 0.438876326207028 0.677981390450281 0.374352763953779 C 0.0 **** 0.0
6 C16201 0.447651934058344 0.665270532300209 0.382572366701723 C 0.0 **** 0.0
7 C16208 0.434048083771319 0.696401964255212 0.348589611230321 C 0.0 **** 0.0
8 C16209 0.433509832605033 0.693571471705333 0.329590362757005 C.Trigonal 0.0 **** 0.0
9 C16210 0.447254947742953 0.686200965199402 0.321889980730476 C.Trigonal 0.0 **** 0.0
10 C16211 0.462330828188949 0.681483302431722 0.332989571810659 C 0.0 **** 0.0
11 C16217 0.447780818249736 0.683859243264929 0.304437041884518 C 0.0 **** 0.0
12 C16218 0.434333284078391 0.68866805087733 0.294330788128404 C 0.0 **** 0.0
13 C16219 0.419626524145817 0.694645145738763 0.302164158085908 C.Trigonal 0.0 **** 0.0
14 C16220 0.419828270531958 0.69871972313545 0.319619498508787 C.Trigonal 0.0 **** 0.0
15 C16226 0.406470151746791 0.708434651606183 0.326242011074369 C 0.0 **** 0.0
16 C16227 0.392829310648846 0.713649021908333 0.316343302797778 C.Trigonal 0.0 **** 0.0
17 C16228 0.390537543937817 0.704401317495488 0.30128121720202 C.Trigonal 0.0 **** 0.0
18 C16229 0.4040953727796 0.696210602617785 0.293429351104634 C 0.0 **** 0.0
19 C16235 0.373467700919974 0.705332491440475 0.293062966135676 C.Trigonal 0.0 **** 0.0
20 C16236 0.362834021408743 0.718361608424853 0.296400409857004 C.Trigonal 0.0 **** 0.0
21 C16237 0.368291699273234 0.731852209710463 0.309141827035905 C.Trigonal 0.0 **** 0.0
22 C16238 0.382955653649845 0.728759261106809 0.319031283055064 C.Trigonal 0.0 **** 0.0
23 C16244 0.344957184764397 0.718901909088379 0.288806488981765 C 0.0 **** 0.0
24 C16245 0.340735934154706 0.703893424478961 0.27705497709649 C 0.0 **** 0.0
25 C16246 0.348738114838786 0.687685755529379 0.28423405111554 C 0.0 **** 0.0
26 C16247 0.368033456942225 0.689432164288741 0.283795567231582 C 0.0 **** 0.0
27 C16253 0.388553887795739 0.741725427546122 0.33024891776165 C 0.0 **** 0.0
28 C16254 0.37936257695891 0.756490820798224 0.331906335179943 C.Trigonal 0.0 **** 0.0
29 C16255 0.364964283105607 0.759130679890638 0.322444740451592 C.Trigonal 0.0 **** 0.0
30 C16256 0.359348249019939 0.746931645418532 0.311121354943679 C 0.0 **** 0.0
31 C16262 0.355244369348168 0.775539014447481 0.323998806373809 C 0.0 **** 0.0
32 C16263 0.361616788952067 0.788463300219334 0.335719778311223 C.Trigonal 0.0 **** 0.0
33 C16264 0.37555399955312 0.785783836853877 0.345227687309166 C.Trigonal 0.0 **** 0.0
34 C16265 0.385317494134492 0.769971398913557 0.344077204041823 C 0.0 **** 0.0
35 C16271 0.381523746071281 0.799153188218635 0.35766053519517 C 0.0 **** 0.0
36 C16272 0.366213347284743 0.80849968235316 0.365612202643715 C 0.0 **** 0.0
37 C16273 0.353673799936917 0.814356625371711 0.352234526392476 C.Trigonal 0.0 **** 0.0
38 C16274 0.351998361275184 0.804805760260359 0.337180622776126 C.Trigonal 0.0 **** 0.0
39 N16280 0.342192989276012 0.80999446085297 0.324381015329487 N 0.0 **** 0.0
40 C16281 0.332177829907799 0.823476003527026 0.326784361423953 C.Trigonal 0.0 **** 0.0
41 C16282 0.331975834553257 0.83256125998038 0.342133607502605 C.Trigonal 0.0 **** 0.0
42 C16283 0.343372923805823 0.828222472110493 0.354483488010368 C.Trigonal 0.0 **** 0.0
43 C16289 0.343736774535802 0.838970045733797 0.370296502914193 C 0.0 **** 0.0
44 C16290 0.325434184025995 0.8413536877356 0.376203711129536 C 0.0 **** 0.0
45 C16291 0.313869500766917 0.849089869412835 0.362465463861169 C 0.0 **** 0.0
46 C16292 0.320891022085322 0.848081813665915 0.344264126894509 C 0.0 **** 0.0
47 C16298 0.306023509666336 0.848250917564227 0.331253337282268 C 0.0 **** 0.0
48 C16299 0.310858506205856 0.841428695125781 0.313952274035408 C.Trigonal 0.0 **** 0.0
49 C16300 0.323233565097395 0.828804800061502 0.312386161653483 C.Trigonal 0.0 **** 0.0
50 C16305 0.326918476952792 0.822094138091224 0.296214001027285 C 0.0 **** 0.0
51 C16306 0.318288649647805 0.82777732698116 0.282326073949065 C 0.0 **** 0.0
52 C16307 0.305895094603913 0.840038192768495 0.28384812583239 C 0.0 **** 0.0
53 C16308 0.302119636260452 0.846752662006561 0.2997301491878 C 0.0 **** 0.0
54 C16314 0.442633089022037 0.660095680212292 0.400390020309477 C 0.0 **** 0.0
55 C16316 0.427154499714743 0.64846694458211 0.399943581203869 C 0.0 **** 0.0
56 C16318 0.470419820218401 0.643062156666365 0.383283461502507 C 0.0 **** 0.0
57 C16320 0.424065396047902 0.686999686976933 0.382493040069252 C 0.0 **** 0.0
58 C16322 0.482357460420636 0.655894338091993 0.350748490830762 C 0.0 **** 0.0
59 C16324 0.463582374771755 0.676162212321109 0.296647503547858 C 0.0 **** 0.0
60 C16326 0.43597165766697 0.686755491855008 0.275313173205677 C 0.0 **** 0.0
61 O16328 0.401893941496612 0.690234908136467 0.277334631370814 O 0.0 **** 0.0
62 C16330 0.34319453066301 0.6718248641897 0.274505615792902 C 0.0 **** 0.0
63 C16332 0.346472621663158 0.707830096468605 0.258798669092364 C 0.0 **** 0.0
64 O16334 0.345057275600556 0.749594197510635 0.301569078632847 O 0.0 **** 0.0
65 O16336 0.403387018478238 0.739611354790341 0.338952240706771 O 0.0 **** 0.0
66 O16338 0.397872502871052 0.76753866430057 0.352631147137042 O 0.0 **** 0.0
67 O16340 0.342356060836385 0.77727858928664 0.315805412250693 O 0.0 **** 0.0
68 C16342 0.288280501097903 0.859945550346052 0.301164974610462 C 0.0 **** 0.0
69 C16344 0.296693800145128 0.845497787676681 0.268002203798222 C 0.0 **** 0.0
70 H16346 0.421061824323105 0.696870154114342 0.353368184329564 H 0.0 **** 0.0
71 H16348 0.439719590504766 0.708879356105158 0.351353799060118 H 0.0 **** 0.0
72 H16350 0.470750766893013 0.692578444196468 0.334213000733521 H 0.0 **** 0.0
73 H16352 0.469908734453693 0.671698619326527 0.326886744021854 H 0.0 **** 0.0
74 H16354 0.407659546371587 0.712830772151429 0.339284876050218 H 0.0 **** 0.0
75 H16356 0.335620337173263 0.719091180839603 0.29915653007816 H 0.0 **** 0.0
76 H16358 0.343110143165632 0.730462473069853 0.281297473188536 H 0.0 **** 0.0
77 H16360 0.326921304845247 0.702255802110546 0.276880229829763 H 0.0 **** 0.0
78 H16362 0.344617939482177 0.686278575144669 0.29746464913184 H 0.0 **** 0.0
79 H16364 0.372445969897585 0.689627014266638 0.270609323485838 H 0.0 **** 0.0
80 H16366 0.373521647370226 0.678150665424542 0.289847735087654 H 0.0 **** 0.0
81 H16368 0.38927447471623 0.793764235172285 0.367939477096808 H 0.0 **** 0.0
82 H16370 0.389671040643686 0.808295762989776 0.351014221717498 H 0.0 **** 0.0
83 H16372 0.371209808670551 0.819200466458303 0.372952954621706 H 0.0 **** 0.0
84 H16374 0.359830176238453 0.800047932415282 0.374694912539949 H 0.0 **** 0.0
85 H16376 0.350997129967706 0.833154049930322 0.380560817937994 H 0.0 **** 0.0
86 H16378 0.349652648980408 0.851335444357684 0.367703574049458 H 0.0 **** 0.0
87 H16380 0.324985343413673 0.849086128430265 0.387750402765385 H 0.0 **** 0.0
88 H16382 0.320438422377447 0.828834481112405 0.37982813229792 H 0.0 **** 0.0
89 H16384 0.311134336008015 0.862409811213334 0.365484531678528 H 0.0 **** 0.0
90 H16386 0.301567338593561 0.842547823329082 0.363028579850895 H 0.0 **** 0.0
91 H16388 0.328885070886829 0.859290211167427 0.341876610553754 H 0.0 **** 0.0
92 H16390 0.295568053447041 0.84042735420051 0.336219383397035 H 0.0 **** 0.0
93 H16392 0.301187731047911 0.861266016171638 0.330533036059607 H 0.0 **** 0.0
94 H16394 0.336669778116242 0.81229160735729 0.294745466507437 H 0.0 **** 0.0
95 H16396 0.321181381798209 0.822448685050595 0.269823389320119 H 0.0 **** 0.0
96 H16398 0.440115486962576 0.671259526706132 0.408314469795972 H 0.0 **** 0.0
97 H16400 0.453005173138947 0.653646151371046 0.407015479153314 H 0.0 **** 0.0
98 H16402 0.429859011435725 0.637056940110411 0.392494789625859 H 0.0 **** 0.0
99 H16404 0.416150342135125 0.654729206594164 0.394184286416689 H 0.0 **** 0.0
100 H16406 0.423442766107756 0.644371357890718 0.412704569710665 H 0.0 **** 0.0
101 H16408 0.476494712096486 0.634416314761106 0.374280828472441 H 0.0 **** 0.0
102 H16410 0.461794843529476 0.635042192660261 0.390659455923141 H 0.0 **** 0.0
103 H16412 0.480249467167514 0.647863595073452 0.391908800783606 H 0.0 **** 0.0
104 H16414 0.42559661632595 0.700785608106184 0.381426891724762 H 0.0 **** 0.0
105 H16416 0.422408561140756 0.68436085726602 0.395974677747278 H 0.0 **** 0.0
106 H16418 0.412113833384543 0.683483555474565 0.376248372366024 H 0.0 **** 0.0
107 H16420 0.489529491817003 0.665808981568819 0.344131547071865 H 0.0 **** 0.0
108 H16422 0.479399292506198 0.645925069426333 0.341497494663709 H 0.0 **** 0.0
109 H16424 0.491237106347357 0.650628876051082 0.36002281648344 H 0.0 **** 0.0
110 H16426 0.474095366479635 0.685275334883977 0.296470119144165 H 0.0 **** 0.0
111 H16428 0.461816800505899 0.671556853904549 0.283696896561214 H 0.0 **** 0.0
112 H16430 0.467837628804588 0.664949508123295 0.30362193353129 H 0.0 **** 0.0
113 H16432 0.431858454074183 0.67417479054947 0.270999540189031 H 0.0 **** 0.0
114 H16434 0.449029347630782 0.688540822403784 0.270930022155962 H 0.0 **** 0.0
115 H16436 0.428933245708374 0.696529752387219 0.268369910432383 H 0.0 **** 0.0
116 H16438 0.41158000711671 0.68380940415897 0.2744577439427 H 0.0 **** 0.0
117 H16440 0.329335779688011 0.671168516884944 0.273780156255118 H 0.0 **** 0.0
118 H16442 0.347799782280454 0.660394294937623 0.280944470794591 H 0.0 **** 0.0
119 H16444 0.348353898930273 0.671874864203805 0.261614953896106 H 0.0 **** 0.0
120 H16446 0.339753447961579 0.718985875764738 0.253932349498239 H 0.0 **** 0.0
121 H16448 0.34367806193516 0.697196455067456 0.250311963554357 H 0.0 **** 0.0
122 H16450 0.360090514178001 0.710561113233826 0.258234980873625 H 0.0 **** 0.0
123 H16452 0.340416413839728 0.760416632781043 0.304285944128739 H 0.0 **** 0.0
124 H16454 0.405497340873014 0.749492915524529 0.345580754347622 H 0.0 **** 0.0
125 H16456 0.293599112945303 0.872823645860593 0.301050874531531 H 0.0 **** 0.0
126 H16458 0.280857020863216 0.858513155535597 0.312815862746218 H 0.0 **** 0.0
127 H16460 0.27909482674887 0.859121675648884 0.290785132211739 H 0.0 **** 0.0
128 H16462 0.303223058047252 0.841191156751438 0.256523200523057 H 0.0 **** 0.0
129 H16464 0.295748055362183 0.859333919319945 0.26714272757284 H 0.0 **** 0.0
130 H16466 0.283772398119944 0.840307249890908 0.26762260925189 H 0.0 **** 0.0
@<TRIPOS>BOND
1 3 2 Aromatic
2 4 3 Aromatic
3 5 4 Aromatic
4 6 5 Aromatic
5 1 2 Aromatic
6 1 6 Aromatic
7 8 7 1
8 9 8 Aromatic
9 10 9 1
10 4 7 1
11 3 10 1
12 12 11 Aromatic
13 13 12 Aromatic
14 14 13 Aromatic
15 9 11 Aromatic
16 8 14 Aromatic
17 16 15 Aromatic
18 17 16 Aromatic
19 18 17 Aromatic
20 14 15 Aromatic
21 13 18 Aromatic
22 20 19 1
23 21 20 1
24 22 21 Aromatic
25 17 19 1
26 16 22 Aromatic
27 24 23 1
28 25 24 Aromatic
29 26 25 1
30 20 23 1
31 19 26 1
32 28 27 Aromatic
33 29 28 Aromatic
34 30 29 Aromatic
35 22 27 Aromatic
36 21 30 Aromatic
37 32 31 1
38 33 32 Aromatic
39 34 33 1
40 29 31 1
41 28 34 1
42 36 35 1
43 37 36 1
44 38 37 Aromatic
45 33 35 1
46 32 38 Aromatic
47 40 39 Aromatic
48 41 40 Aromatic
49 42 41 Aromatic
50 38 39 Aromatic
51 37 42 Aromatic
52 44 43 1
53 45 44 1
54 46 45 1
55 42 43 1
56 41 46 1
57 48 47 1
58 49 48 Aromatic
59 40 49 Aromatic
60 46 47 1
61 51 50 Aromatic
62 52 51 Aromatic
63 53 52 Aromatic
64 49 50 Aromatic
65 48 53 Aromatic
66 6 54 1
67 54 55 1
68 1 56 1
69 5 57 1
70 2 58 1
71 11 59 1
72 12 60 1
73 18 61 1
74 25 62 1
75 24 63 1
76 30 64 1
77 27 65 1
78 34 66 Double
79 31 67 Double
80 53 68 1
81 52 69 1
82 7 70 1
83 7 71 1
84 10 72 1
85 10 73 1
86 15 74 1
87 23 75 1
88 23 76 1
89 24 77 1
90 25 78 1
91 26 79 1
92 26 80 1
93 35 81 1
94 35 82 1
95 36 83 1
96 36 84 1
97 43 85 1
98 43 86 1
99 44 87 1
100 44 88 1
101 45 89 1
102 45 90 1
103 46 91 1
104 47 92 1
105 47 93 1
106 50 94 1
107 51 95 1
108 54 96 1
109 54 97 1
110 55 98 1
111 55 99 1
112 55 100 1
113 56 101 1
114 56 102 1
115 56 103 1
116 57 104 1
117 57 105 1
118 57 106 1
119 58 107 1
120 58 108 1
121 58 109 1
122 59 110 1
123 59 111 1
124 59 112 1
125 60 113 1
126 60 114 1
127 60 115 1
128 61 116 1
129 62 117 1
130 62 118 1
131 62 119 1
132 63 120 1
133 63 121 1
134 63 122 1
135 64 123 1
136 65 124 1
137 68 125 1
138 68 126 1
139 68 127 1
140 69 128 1
141 69 129 1
142 69 130 1
@<TRIPOS>MOLECULE
Sketch 4
130 142
SMALL
USER_CHARGES


@<TRIPOS>ATOM
1 C16468 0.40881654228227 0.388625881129149 0.911075420491159 C.Trigonal 0.0 **** 0.0
2 C16469 0.422729561153043 0.388668131869946 0.921654266063636 C 0.0 **** 0.0
3 C16470 0.423262842446704 0.399502691571299 0.935410520599161 C.Trigonal 0.0 **** 0.0
4 C16471 0.409623544150112 0.409605863534716 0.939112322950512 C.Trigonal 0.0 **** 0.0
5 C16472 0.395322979451977 0.409053915860108 0.929011300920081 C 0.0 **** 0.0
6 C16473 0.395161891545565 0.398933405014799 0.914722647634111 C 0.0 **** 0.0
7 C16480 0.410169376464852 0.421219120634582 0.954366230017008 C 0.0 **** 0.0
8 C16481 0.427296589305562 0.424533569423923 0.962406807391876 C.Trigonal 0.0 **** 0.0
9 C16482 0.440912522928902 0.414420698682458 0.958846236188932 C.Trigonal 0.0 **** 0.0
10 C16483 0.439056890307519 0.399873459521405 0.946385393737976 C 0.0 **** 0.0
11 C16489 0.456378974836617 0.416950997294877 0.966879143058673 C 0.0 **** 0.0
12 C16490 0.458862599255977 0.430381290902742 0.977827235721424 C 0.0 **** 0.0
13 C16491 0.445392440925872 0.441503922589635 0.980868727726661 C.Trigonal 0.0 **** 0.0
14 C16492 0.429264399480895 0.43763613046239 0.974151289511513 C.Trigonal 0.0 **** 0.0
15 C16498 0.415376373125234 0.446958883496487 0.979804871204364 C 0.0 **** 0.0
16 C16499 0.416668974198753 0.459283371096204 0.992463430421766 C.Trigonal 0.0 **** 0.0
17 C16500 0.433127352978343 0.465029013366196 0.996727483721046 C.Trigonal 0.0 **** 0.0
18 C16501 0.447242996320014 0.456563936817753 0.99044098016281 C 0.0 **** 0.0
19 C16507 0.434285002000927 0.480948866306231 1.00746480791434 C.Trigonal 0.0 **** 0.0
20 C16508 0.420177211812905 0.490554602879201 1.01026128884936 C.Trigonal 0.0 **** 0.0
21 C16509 0.402652226834351 0.482896371952647 1.00718671184075 C.Trigonal 0.0 **** 0.0
22 C16510 0.402091237904736 0.466455722204523 1.00027099336608 C.Trigonal 0.0 **** 0.0
23 C16516 0.421468313840264 0.507800121521312 1.01898608274943 C 0.0 **** 0.0
24 C16517 0.439884777196963 0.514034963665068 1.0196388881222 C 0.0 **** 0.0
25 C16518 0.451145338992338 0.500201494172111 1.02731012754562 C 0.0 **** 0.0
26 C16519 0.451709848841067 0.485741666811258 1.01440256203769 C 0.0 **** 0.0
27 C16525 0.386715526536399 0.457169110625986 1.00125161277761 C 0.0 **** 0.0
28 C16526 0.372216115035373 0.465030810570515 1.00694264787988 C.Trigonal 0.0 **** 0.0
29 C16527 0.372398741342651 0.481798330092499 1.01171202416929 C.Trigonal 0.0 **** 0.0
30 C16528 0.387465251870204 0.490944850232354 1.01151307128159 C 0.0 **** 0.0
31 C16534 0.356379520794799 0.490014461201499 1.01844007861318 C 0.0 **** 0.0
32 C16535 0.341495641513189 0.479087402818822 1.0213600089395 C.Trigonal 0.0 **** 0.0
33 C16536 0.341472651832189 0.462731236282955 1.01635417928465 C.Trigonal 0.0 **** 0.0
34 C16537 0.356196976083241 0.454883467006113 1.00829913201128 C 0.0 **** 0.0
35 C16543 0.326139288900281 0.451462896029067 1.01879401238914 C 0.0 **** 0.0
36 C16544 0.30984522476651 0.462157087535387 1.01836847841149 C 0.0 **** 0.0
37 C16545 0.311271335171624 0.476389192643071 1.03107708348222 C.Trigonal 0.0 **** 0.0
38 C16546 0.326451505474044 0.48593460391418 1.03090408166815 C.Trigonal 0.0 **** 0.0
39 N16552 0.328305361634574 0.499635135181748 1.04059771533922 N 0.0 **** 0.0
40 C16553 0.315787047702515 0.50360948936094 1.05136323246609 C.Trigonal 0.0 **** 0.0
41 C16554 0.301209505080481 0.493490255382907 1.05353010016909 C.Trigonal 0.0 **** 0.0
42 C16555 0.298891245978361 0.480032744502816 1.0428233422402 C.Trigonal 0.0 **** 0.0
43 C16561 0.28306414094291 0.469095607342077 1.04395004360923 C 0.0 **** 0.0
44 C16562 0.273784925808113 0.471033342378229 1.06086514627795 C 0.0 **** 0.0
45 C16563 0.271917703594703 0.489666701619944 1.0654125470153 C 0.0 **** 0.0
46 C16564 0.289446967283007 0.497427816525311 1.06821508672819 C 0.0 **** 0.0
47 C16570 0.28848880857317 0.516713304970096 1.07162220407918 C 0.0 **** 0.0
48 C16571 0.305804449917335 0.525016544841424 1.07100094805881 C.Trigonal 0.0 **** 0.0
49 C16572 0.318651164208806 0.518411563966395 1.06070204749884 C.Trigonal 0.0 **** 0.0
50 C16577 0.334197191922117 0.527067682157786 1.05938195997044 C 0.0 **** 0.0
51 C16578 0.336594555384199 0.541746445771113 1.06814896242343 C 0.0 **** 0.0
52 C16579 0.324000937869663 0.548350029305093 1.07832968892538 C 0.0 **** 0.0
53 C16580 0.308560417975502 0.539953147300122 1.07976896959206 C 0.0 **** 0.0
54 C16586 0.380000092625401 0.399028184891221 0.903000430262417 C 0.0 **** 0.0
55 C16588 0.382479797053604 0.41219772460848 0.889019114817773 C 0.0 **** 0.0
56 C16590 0.408157337825522 0.377237547832203 0.89565880047109 C 0.0 **** 0.0
57 C16592 0.379766033591572 0.41943760854596 0.933278107881764 C 0.0 **** 0.0
58 C16594 0.437684321981505 0.377305516165301 0.918067167267732 C 0.0 **** 0.0
59 C16596 0.470935126051889 0.404757068686091 0.963678142502135 C 0.0 **** 0.0
60 C16598 0.476124699264836 0.432483278399982 0.985884874252252 C 0.0 **** 0.0
61 O16600 0.463421765212285 0.462434280617028 0.99358561465415 O 0.0 **** 0.0
62 C16602 0.445047426397399 0.49378636290811 1.04471687989008 C 0.0 **** 0.0
63 C16604 0.441456680672504 0.530952222675515 1.02904277624755 C 0.0 **** 0.0
64 O16606 0.38776864757829 0.507667926282142 1.01610742778891 O 0.0 **** 0.0
65 O16608 0.386845893518535 0.440335960986513 0.997005396861257 O 0.0 **** 0.0
66 O16610 0.355881714423253 0.440434892166758 1.00306886327763 O 0.0 **** 0.0
67 O16612 0.356603411818021 0.505084921048381 1.02144094031495 O 0.0 **** 0.0
68 C16614 0.29454574681638 0.547092324487655 1.09072324952755 C 0.0 **** 0.0
69 C16616 0.328277327909086 0.564598863019962 1.08730102745622 C 0.0 **** 0.0
70 H16618 0.405114143404859 0.433533097517303 0.950406829973893 H 0.0 **** 0.0
71 H16620 0.40146285405259 0.416298292209637 0.964083191665241 H 0.0 **** 0.0
72 H16622 0.439894587500014 0.387842927215119 0.953444733465502 H 0.0 **** 0.0
73 H16624 0.449932630220145 0.40038473658119 0.93769638222564 H 0.0 **** 0.0
74 H16626 0.402908490393685 0.443895484646866 0.974632684778346 H 0.0 **** 0.0
75 H16628 0.414246659202265 0.517513281897828 1.01216842749679 H 0.0 **** 0.0
76 H16630 0.41630363600455 0.507150718509376 1.03189402851531 H 0.0 **** 0.0
77 H16632 0.444200421904179 0.516267402492407 1.00660414056948 H 0.0 **** 0.0
78 H16634 0.464057986253514 0.505191845355963 1.02878723757591 H 0.0 **** 0.0
79 H16636 0.457816445867657 0.474786458951145 1.0204890478967 H 0.0 **** 0.0
80 H16638 0.459934188596709 0.489924402682003 1.00403355306238 H 0.0 **** 0.0
81 H16640 0.325409161612384 0.44174956652603 1.00885377105628 H 0.0 **** 0.0
82 H16642 0.327099386997415 0.44466804994244 1.03092494341968 H 0.0 **** 0.0
83 H16644 0.298868934688257 0.453971398891617 1.02047528409855 H 0.0 **** 0.0
84 H16646 0.308109557392687 0.467436620861666 1.00555069709436 H 0.0 **** 0.0
85 H16648 0.27438524018541 0.472546894688357 1.03357755420026 H 0.0 **** 0.0
86 H16650 0.286183137219108 0.45564295569119 1.0423075131318 H 0.0 **** 0.0
87 H16652 0.280992984533625 0.464589084880501 1.0709250782833 H 0.0 **** 0.0
88 H16654 0.261371308304114 0.464729848807749 1.0602739091898 H 0.0 **** 0.0
89 H16656 0.264144639654597 0.49122221512925 1.07688547425435 H 0.0 **** 0.0
90 H16658 0.26524760578373 0.496329579412241 1.05513680941193 H 0.0 **** 0.0
91 H16660 0.294895845117152 0.491456793951783 1.07965559429639 H 0.0 **** 0.0
92 H16662 0.280114750336998 0.522638738642339 1.06216047329218 H 0.0 **** 0.0
93 H16664 0.282361825614099 0.518549566372395 1.08397137574246 H 0.0 **** 0.0
94 H16666 0.344228259665597 0.522263399097489 1.05110552871467 H 0.0 **** 0.0
95 H16668 0.348648945995658 0.548530044000498 1.06703508024837 H 0.0 **** 0.0
96 H16670 0.368208799962936 0.401756148147524 0.909810682684929 H 0.0 **** 0.0
97 H16672 0.378014458982432 0.386496198411552 0.897295175230437 H 0.0 **** 0.0
98 H16674 0.394163823366325 0.409893033644031 0.881854437044741 H 0.0 **** 0.0
99 H16676 0.38319938795897 0.425072501541874 0.894232933632472 H 0.0 **** 0.0
100 H16678 0.371981082350769 0.41182969619084 0.879944789272245 H 0.0 **** 0.0
101 H16680 0.39955835021701 0.366488106846561 0.897804543683729 H 0.0 **** 0.0
102 H16682 0.420451233305899 0.371927878508611 0.89215670419317 H 0.0 **** 0.0
103 H16684 0.403689305547592 0.384005961566166 0.884371912390645 H 0.0 **** 0.0
104 H16686 0.377040414567465 0.428746060557144 0.923297880973792 H 0.0 **** 0.0
105 H16688 0.380741065288312 0.426424952121696 0.945193780381011 H 0.0 **** 0.0
106 H16690 0.368572852646353 0.411267493330203 0.934679888120052 H 0.0 **** 0.0
107 H16692 0.445130726346304 0.374446822707393 0.929394980600883 H 0.0 **** 0.0
108 H16694 0.446240560744539 0.3833391370745 0.908929419374712 H 0.0 **** 0.0
109 H16696 0.433825544574066 0.364964698615505 0.913026238352228 H 0.0 **** 0.0
110 H16698 0.474562957948778 0.398220283634022 0.975436422151728 H 0.0 **** 0.0
111 H16700 0.482128492930569 0.41148241772239 0.958834141696459 H 0.0 **** 0.0
112 H16702 0.468174945960804 0.394717905212795 0.954560038121408 H 0.0 **** 0.0
113 H16704 0.483333244695898 0.442719364572831 0.979767018484763 H 0.0 **** 0.0
114 H16706 0.484068125726847 0.421157460312171 0.985313107838507 H 0.0 **** 0.0
115 H16708 0.475019579384873 0.43540402906826 0.999451293530218 H 0.0 **** 0.0
116 H16710 0.464332196303824 0.473111056304288 0.987947714535724 H 0.0 **** 0.0
117 H16712 0.444444237630141 0.504193585488267 1.05390957008422 H 0.0 **** 0.0
118 H16714 0.453864446623729 0.484240767249959 1.04966844054927 H 0.0 **** 0.0
119 H16716 0.432492443875721 0.487887358088622 1.0438966645907 H 0.0 **** 0.0
120 H16718 0.432021784500107 0.54003935416377 1.02437736163826 H 0.0 **** 0.0
121 H16720 0.454052821458921 0.53646125305798 1.02696153633095 H 0.0 **** 0.0
122 H16722 0.439679188897027 0.529228190237207 1.04266307493512 H 0.0 **** 0.0
123 H16724 0.3765435170335 0.511266682210339 1.01875760742622 H 0.0 **** 0.0
124 H16726 0.375677633358404 0.435899970542817 0.998213980135362 H 0.0 **** 0.0
125 H16728 0.282706436529288 0.548427397157999 1.08351249999182 H 0.0 **** 0.0
126 H16730 0.297352590086774 0.559635774918172 1.09585922918561 H 0.0 **** 0.0
127 H16732 0.292002574509183 0.538815529947835 1.10164103799366 H 0.0 **** 0.0
128 H16734 0.338447057728463 0.571442469373753 1.08074750167617 H 0.0 **** 0.0
129 H16736 0.332806725506079 0.562007163572399 1.10016295579393 H 0.0 **** 0.0
130 H16738 0.31753967063652 0.573315111093792 1.08806404653446 H 0.0 **** 0.0
@<TRIPOS>BOND
1 3 2 Aromatic
2 4 3 Aromatic
3 5 4 Aromatic
4 6 5 Aromatic
5 1 2 Aromatic
6 1 6 Aromatic
7 8 7 1
8 9 8 Aromatic
9 10 9 1
10 4 7 1
11 3 10 1
12 12 11 Aromatic
13 13 12 Aromatic
14 14 13 Aromatic
15 9 11 Aromatic
16 8 14 Aromatic
17 16 15 Aromatic
18 17 16 Aromatic
19 18 17 Aromatic
20 14 15 Aromatic
21 13 18 Aromatic
22 20 19 1
23 21 20 1
24 22 21 Aromatic
25 17 19 1
26 16 22 Aromatic
27 24 23 1
28 25 24 Aromatic
29 26 25 1
30 20 23 1
31 19 26 1
32 28 27 Aromatic
33 29 28 Aromatic
34 30 29 Aromatic
35 22 27 Aromatic
36 21 30 Aromatic
37 32 31 1
38 33 32 Aromatic
39 34 33 1
40 29 31 1
41 28 34 1
42 36 35 1
43 37 36 1
44 38 37 Aromatic
45 33 35 1
46 32 38 Aromatic
47 40 39 Aromatic
48 41 40 Aromatic
49 42 41 Aromatic
50 38 39 Aromatic
51 37 42 Aromatic
52 44 43 1
53 45 44 1
54 46 45 1
55 42 43 1
56 41 46 1
57 48 47 1
58 49 48 Aromatic
59 40 49 Aromatic
60 46 47 1
61 51 50 Aromatic
62 52 51 Aromatic
63 53 52 Aromatic
64 49 50 Aromatic
65 48 53 Aromatic
66 6 54 1
67 54 55 1
68 1 56 1
69 5 57 1
70 2 58 1
71 11 59 1
72 12 60 1
73 18 61 1
74 25 62 1
75 24 63 1
76 30 64 1
77 27 65 1
78 34 66 Double
79 31 67 Double
80 53 68 1
81 52 69 1
82 7 70 1
83 7 71 1
84 10 72 1
85 10 73 1
86 15 74 1
87 23 75 1
88 23 76 1
89 24 77 1
90 25 78 1
91 26 79 1
92 26 80 1
93 35 81 1
94 35 82 1
95 36 83 1
96 36 84 1
97 43 85 1
98 43 86 1
99 44 87 1
100 44 88 1
101 45 89 1
102 45 90 1
103 46 91 1
104 47 92 1
105 47 93 1
106 50 94 1
107 51 95 1
108 54 96 1
109 54 97 1
110 55 98 1
111 55 99 1
112 55 100 1
113 56 101 1
114 56 102 1
115 56 103 1
116 57 104 1
117 57 105 1
118 57 106 1
119 58 107 1
120 58 108 1
121 58 109 1
122 59 110 1
123 59 111 1
124 59 112 1
125 60 113 1
126 60 114 1
127 60 115 1
128 61 116 1
129 62 117 1
130 62 118 1
131 62 119 1
132 63 120 1
133 63 121 1
134 63 122 1
135 64 123 1
136 65 124 1
137 68 125 1
138 68 126 1
139 68 127 1
140 69 128 1
141 69 129 1
142 69 130 1
@<TRIPOS>MOLECULE
Sketch 4
130 142
SMALL
USER_CHARGES


@<TRIPOS>ATOM
1 C16740 0.338230850352554 0.237536841132111 0.28284698019688 C.Trigonal 0.0 **** 0.0
2 C16741 0.325383056885056 0.248107847850354 0.277357964173671 C 0.0 **** 0.0
3 C16742 0.321561570832515 0.248911088417823 0.260314512801641 C.Trigonal 0.0 **** 0.0
4 C16743 0.329383063644645 0.238099946164501 0.249123235809696 C.Trigonal 0.0 **** 0.0
5 C16744 0.34189045206728 0.227141980559724 0.254595226550431 C 0.0 **** 0.0
6 C16745 0.346474728640337 0.227031523735649 0.271486151136473 C 0.0 **** 0.0
7 C16752 0.323611818897718 0.238526955374927 0.230815686012526 C 0.0 **** 0.0
8 C16753 0.320331883698773 0.256344202622001 0.224611221040165 C.Trigonal 0.0 **** 0.0
9 C16754 0.313205659767993 0.267701606953241 0.23566002210917 C.Trigonal 0.0 **** 0.0
10 C16755 0.308742452024218 0.261500610845597 0.253384699874976 C 0.0 **** 0.0
11 C16761 0.310262768629068 0.284326177958776 0.230759596020905 C 0.0 **** 0.0
12 C16762 0.316016164135583 0.290277762402373 0.215318313666727 C 0.0 **** 0.0
13 C16763 0.321810648811549 0.278538519516706 0.203336889551359 C.Trigonal 0.0 **** 0.0
14 C16764 0.323192034984595 0.261258338046531 0.207896880687382 C.Trigonal 0.0 **** 0.0
15 C16770 0.326833547714409 0.249311561754038 0.195410160691101 C 0.0 **** 0.0
16 C16771 0.332532064583149 0.253679976255428 0.179217785086084 C.Trigonal 0.0 **** 0.0
17 C16772 0.332600501542264 0.271196838843451 0.175446611741751 C.Trigonal 0.0 **** 0.0
18 C16773 0.325776609051668 0.283057334081174 0.186398835033604 C 0.0 **** 0.0
19 C16779 0.338827680260887 0.276567713293557 0.158276396122334 C.Trigonal 0.0 **** 0.0
20 C16780 0.339436728105563 0.265324041435867 0.1453665657965 C.Trigonal 0.0 **** 0.0
21 C16781 0.335984528956013 0.246789127007538 0.149005372858681 C.Trigonal 0.0 **** 0.0
22 C16782 0.335870146829525 0.241502772270687 0.166050079582411 C.Trigonal 0.0 **** 0.0
23 C16788 0.34759489762002 0.269587504359296 0.128296978505023 C 0.0 **** 0.0
24 C16789 0.355571413671063 0.287412689079907 0.12720236579121 C 0.0 **** 0.0
25 C16790 0.361979028662657 0.29312507888563 0.144723102598531 C 0.0 **** 0.0
26 C16791 0.347119200005041 0.293877182526751 0.157199382635736 C 0.0 **** 0.0
27 C16797 0.337066305751842 0.223866489505782 0.169248443217448 C 0.0 **** 0.0
28 C16798 0.335071100778203 0.212466546435136 0.156096977229371 C.Trigonal 0.0 **** 0.0
29 C16799 0.332122953622723 0.218032098625257 0.139822318807969 C.Trigonal 0.0 **** 0.0
30 C16800 0.3326285167155 0.235202407344436 0.136113243514574 C 0.0 **** 0.0
31 C16806 0.329184502021525 0.205526365781129 0.125652761201305 C 0.0 **** 0.0
32 C16807 0.33027119949498 0.187341722303081 0.129659611876133 C.Trigonal 0.0 **** 0.0
33 C16808 0.333549607091612 0.181911272242573 0.145545615903973 C.Trigonal 0.0 **** 0.0
34 C16809 0.336156611619948 0.193761118993443 0.159661715395441 C 0.0 **** 0.0
35 C16815 0.3347566957701 0.163181679502955 0.149550706183491 C 0.0 **** 0.0
36 C16816 0.341944983263165 0.153149196473612 0.134338713172157 C 0.0 **** 0.0
37 C16817 0.333608016687259 0.158012785804371 0.117676722326495 C.Trigonal 0.0 **** 0.0
38 C16818 0.327864870260507 0.174824581729418 0.115504077075146 C.Trigonal 0.0 **** 0.0
39 N16824 0.320925689246406 0.179978256969506 0.100979053929307 N 0.0 **** 0.0
40 C16825 0.320254578397442 0.16913958053744 0.0879876704287393 C.Trigonal 0.0 **** 0.0
41 C16826 0.325540719664532 0.152095645492392 0.0893356509426763 C.Trigonal 0.0 **** 0.0
42 C16827 0.332225345806255 0.146706579560916 0.104412000803581 C.Trigonal 0.0 **** 0.0
43 C16833 0.338870821597339 0.128697675489072 0.106501728257734 C 0.0 **** 0.0
44 C16834 0.3332290596591 0.116748182264028 0.0923106427689647 C 0.0 **** 0.0
45 C16835 0.334859299569426 0.125352793979664 0.0751442435138644 C 0.0 **** 0.0
46 C16836 0.322640282976037 0.14036495953304 0.0744045744148182 C 0.0 **** 0.0
47 C16842 0.324080763173112 0.150127004028882 0.0574830479402966 C 0.0 **** 0.0
48 C16843 0.314269262164203 0.166589282833244 0.0580206886991477 C.Trigonal 0.0 **** 0.0
49 C16844 0.313071114665205 0.175770416186993 0.0731515439920457 C.Trigonal 0.0 **** 0.0
50 C16849 0.304300310034117 0.191336541360514 0.0732652274503853 C 0.0 **** 0.0
51 C16850 0.296658711301844 0.197008397150988 0.0588033100577399 C 0.0 **** 0.0
52 C16851 0.298175701490064 0.188226355660791 0.0437456897886453 C 0.0 **** 0.0
53 C16852 0.307349236325464 0.173161725499522 0.0433461277999505 C 0.0 **** 0.0
54 C16858 0.360294068753823 0.215218800245126 0.277706081028899 C 0.0 **** 0.0
55 C16860 0.377730247313253 0.223046707880041 0.274518364291181 C 0.0 **** 0.0
56 C16862 0.343205345203853 0.237421417359137 0.301385332680782 C 0.0 **** 0.0
57 C16864 0.350261882010672 0.215654544337428 0.241718094809526 C 0.0 **** 0.0
58 C16866 0.315693577393406 0.25891801336525 0.289870076119901 C 0.0 **** 0.0
59 C16868 0.301187282239448 0.29610407805022 0.242925302125717 C 0.0 **** 0.0
60 C16870 0.315254602746326 0.30917930601576 0.212265475686344 C 0.0 **** 0.0
61 O16872 0.322781791444638 0.299273936942521 0.181034087167599 O 0.0 **** 0.0
62 C16874 0.371090457908673 0.310292424378575 0.14392746098543 C 0.0 **** 0.0
63 C16876 0.342801868209856 0.299882850973728 0.119332254825609 C 0.0 **** 0.0
64 O16878 0.33025385508421 0.241158563021657 0.119950820809366 O 0.0 **** 0.0
65 O16880 0.339890294169962 0.218388953994107 0.185462935442026 O 0.0 **** 0.0
66 O16882 0.33935886115767 0.188925616353132 0.17391199685232 O 0.0 **** 0.0
67 O16884 0.326409541356279 0.211077604294742 0.111581873270643 O 0.0 **** 0.0
68 C16886 0.309500669347077 0.163958164190398 0.0266993170237902 C 0.0 **** 0.0
69 C16888 0.289898141917157 0.195625937021214 0.0281745153643667 C 0.0 **** 0.0
70 H16890 0.333139397357141 0.23251528482781 0.222797309744472 H 0.0 **** 0.0
71 H16892 0.311988308292617 0.230964593042308 0.229372078379629 H 0.0 **** 0.0
72 H16894 0.295972442961672 0.255860827120468 0.253374938151826 H 0.0 **** 0.0
73 H16896 0.308249463163046 0.272369132546135 0.261958285313565 H 0.0 **** 0.0
74 H16898 0.325174280674049 0.236105879159924 0.199011121917166 H 0.0 **** 0.0
75 H16900 0.357622438646395 0.260259977199508 0.125664439585783 H 0.0 **** 0.0
76 H16902 0.338305542731386 0.268502383691375 0.117989706768525 H 0.0 **** 0.0
77 H16904 0.366494661124901 0.286680232172813 0.11858874305933 H 0.0 **** 0.0
78 H16906 0.371160050493794 0.28368352226732 0.149298836161778 H 0.0 **** 0.0
79 H16908 0.338002643431083 0.303569420687986 0.153175291749188 H 0.0 **** 0.0
80 H16910 0.352201931443299 0.297809419012222 0.169582508174714 H 0.0 **** 0.0
81 H16912 0.342811371890642 0.160637472936575 0.160672198218859 H 0.0 **** 0.0
82 H16914 0.322119741423849 0.158317447699771 0.152798881700859 H 0.0 **** 0.0
83 H16916 0.340523884514781 0.139635739038938 0.137218008892655 H 0.0 **** 0.0
84 H16918 0.355646857141148 0.155437371871472 0.133410115927054 H 0.0 **** 0.0
85 H16920 0.352830037239601 0.129118988071219 0.106741604730724 H 0.0 **** 0.0
86 H16922 0.334812807352699 0.123231413101501 0.118635450055027 H 0.0 **** 0.0
87 H16924 0.319900462613953 0.113133037860747 0.0942809956979603 H 0.0 **** 0.0
88 H16926 0.340604402457124 0.104932157191818 0.0927861265411579 H 0.0 **** 0.0
89 H16928 0.332083376008941 0.116420284424706 0.0648092776697062 H 0.0 **** 0.0
90 H16930 0.347984944094802 0.129695567513106 0.0732505627320424 H 0.0 **** 0.0
91 H16932 0.309606562644932 0.135350400887737 0.0752887142239785 H 0.0 **** 0.0
92 H16934 0.3374860301602 0.152772326911784 0.0548696440569084 H 0.0 **** 0.0
93 H16936 0.319643383501893 0.141782924488023 0.0472865680278206 H 0.0 **** 0.0
94 H16938 0.30312490807632 0.198656055644006 0.0850161355732608 H 0.0 **** 0.0
95 H16940 0.28928805015253 0.208777512664918 0.059144936407994 H 0.0 **** 0.0
96 H16942 0.359421970485881 0.20274097530014 0.271614658858054 H 0.0 **** 0.0
97 H16944 0.35887932825608 0.212375613783589 0.291235725161975 H 0.0 **** 0.0
98 H16946 0.379097100041993 0.235087158221719 0.28135957844129 H 0.0 **** 0.0
99 H16948 0.379746985210816 0.22561119997816 0.260992348440928 H 0.0 **** 0.0
100 H16950 0.387967240278749 0.214630165088931 0.278730878098126 H 0.0 **** 0.0
101 H16952 0.340006743217488 0.249277422844958 0.307857285248994 H 0.0 **** 0.0
102 H16954 0.356923972742449 0.235984303204188 0.303097491073358 H 0.0 **** 0.0
103 H16956 0.336918267242094 0.227026370955255 0.308213398600196 H 0.0 **** 0.0
104 H16958 0.356692963545357 0.223185172291447 0.231944751545871 H 0.0 **** 0.0
105 H16960 0.34087327778877 0.207552098158066 0.235378602026602 H 0.0 **** 0.0
106 H16962 0.359872074620079 0.207172476674488 0.246928002613521 H 0.0 **** 0.0
107 H16964 0.30277140251352 0.261634310185915 0.285557598505036 H 0.0 **** 0.0
108 H16966 0.3221062646586 0.271079131635102 0.292114374587789 H 0.0 **** 0.0
109 H16968 0.314134969352362 0.252553095881533 0.302127732770763 H 0.0 **** 0.0
110 H16970 0.293925168764886 0.305937830360785 0.236307140589533 H 0.0 **** 0.0
111 H16972 0.310139783595144 0.302416811516494 0.25153023958538 H 0.0 **** 0.0
112 H16974 0.291789998417506 0.289393360244115 0.250658034441392 H 0.0 **** 0.0
113 H16976 0.326827547093002 0.31384654769067 0.206137466512607 H 0.0 **** 0.0
114 H16978 0.314462026525806 0.316510840321695 0.22401200654738 H 0.0 **** 0.0
115 H16980 0.304366066122486 0.312738047029197 0.204392935433321 H 0.0 **** 0.0
116 H16982 0.321808835661178 0.298944213328309 0.169082465715378 H 0.0 **** 0.0
117 H16984 0.381487942576055 0.309799178466527 0.134710638206304 H 0.0 **** 0.0
118 H16986 0.376490803883432 0.313459438647703 0.156348726901363 H 0.0 **** 0.0
119 H16988 0.362354896904256 0.320462630278863 0.14028151325901 H 0.0 **** 0.0
120 H16990 0.339376546612639 0.295675291494174 0.106518667831033 H 0.0 **** 0.0
121 H16992 0.348255820710502 0.312608124071161 0.118181983851865 H 0.0 **** 0.0
122 H16994 0.331143515670455 0.300618499046505 0.126852592236173 H 0.0 **** 0.0
123 H16996 0.327621189241618 0.23191526128188 0.112618892232484 H 0.0 **** 0.0
124 H16998 0.341219690919926 0.206384357631244 0.185446583129341 H 0.0 **** 0.0
125 H17000 0.32226051084054 0.158605928248516 0.0253524061515116 H 0.0 **** 0.0
126 H17002 0.307786790225272 0.172353244671519 0.0157787113164869 H 0.0 **** 0.0
127 H17004 0.300324670596128 0.153554318208368 0.0255145530608492 H 0.0 **** 0.0
128 H17006 0.299402443828498 0.200527827873548 0.0192364930639468 H 0.0 **** 0.0
129 H17008 0.281493933345455 0.206209082693826 0.0313857042589691 H 0.0 **** 0.0
130 H17010 0.282145515945281 0.186210866340973 0.0214851055569776 H 0.0 **** 0.0
@<TRIPOS>BOND
1 3 2 Aromatic
2 4 3 Aromatic
3 5 4 Aromatic
4 6 5 Aromatic
5 1 2 Aromatic
6 1 6 Aromatic
7 8 7 1
8 9 8 Aromatic
9 10 9 1
10 4 7 1
11 3 10 1
12 12 11 Aromatic
13 13 12 Aromatic
14 14 13 Aromatic
15 9 11 Aromatic
16 8 14 Aromatic
17 16 15 Aromatic
18 17 16 Aromatic
19 18 17 Aromatic
20 14 15 Aromatic
21 13 18 Aromatic
22 20 19 1
23 21 20 1
24 22 21 Aromatic
25 17 19 1
26 16 22 Aromatic
27 24 23 1
28 25 24 Aromatic
29 26 25 1
30 20 23 1
31 19 26 1
32 28 27 Aromatic
33 29 28 Aromatic
34 30 29 Aromatic
35 22 27 Aromatic
36 21 30 Aromatic
37 32 31 1
38 33 32 Aromatic
39 34 33 1
40 29 31 1
41 28 34 1
42 36 35 1
43 37 36 1
44 38 37 Aromatic
45 33 35 1
46 32 38 Aromatic
47 40 39 Aromatic
48 41 40 Aromatic
49 42 41 Aromatic
50 38 39 Aromatic
51 37 42 Aromatic
52 44 43 1
53 45 44 1
54 46 45 1
55 42 43 1
56 41 46 1
57 48 47 1
58 49 48 Aromatic
59 40 49 Aromatic
60 46 47 1
61 51 50 Aromatic
62 52 51 Aromatic
63 53 52 Aromatic
64 49 50 Aromatic
65 48 53 Aromatic
66 6 54 1
67 54 55 1
68 1 56 1
69 5 57 1
70 2 58 1
71 11 59 1
72 12 60 1
73 18 61 1
74 25 62 1
75 24 63 1
76 30 64 1
77 27 65 1
78 34 66 Double
79 31 67 Double
80 53 68 1
81 52 69 1
82 7 70 1
83 7 71 1
84 10 72 1
85 10 73 1
86 15 74 1
87 23 75 1
88 23 76 1
89 24 77 1
90 25 78 1
91 26 79 1
92 26 80 1
93 35 81 1
94 35 82 1
95 36 83 1
96 36 84 1
97 43 85 1
98 43 86 1
99 44 87 1
100 44 88 1
101 45 89 1
102 45 90 1
103 46 91 1
104 47 92 1
105 47 93 1
106 50 94 1
107 51 95 1
108 54 96 1
109 54 97 1
110 55 98 1
111 55 99 1
112 55 100 1
113 56 101 1
114 56 102 1
115 56 103 1
116 57 104 1
117 57 105 1
118 57 106 1
119 58 107 1
120 58 108 1
121 58 109 1
122 59 110 1
123 59 111 1
124 59 112 1
125 60 113 1
126 60 114 1
127 60 115 1
128 61 116 1
129 62 117 1
130 62 118 1
131 62 119 1
132 63 120 1
133 63 121 1
134 63 122 1
135 64 123 1
136 65 124 1
137 68 125 1
138 68 126 1
139 68 127 1
140 69 128 1
141 69 129 1
142 69 130 1
@<TRIPOS>MOLECULE
Sketch 4
130 142
SMALL
USER_CHARGES


@<TRIPOS>ATOM
1 C17012 0.751084409920695 0.316892802309003 0.845485432892545 C.Trigonal 0.0 **** 0.0
2 C17013 0.742329938942718 0.310881575172717 0.831555290917855 C 0.0 **** 0.0
3 C17014 0.747659476466301 0.296156565507433 0.823894157688716 C.Trigonal 0.0 **** 0.0
4 C17015 0.761121529617655 0.287167863591829 0.830412616185034 C.Trigonal 0.0 **** 0.0
5 C17016 0.769447454429488 0.292716845839337 0.844742179286009 C 0.0 **** 0.0
6 C17017 0.764390497503052 0.307691382931723 0.852279403557463 C 0.0 **** 0.0
7 C17024 0.766323627714248 0.271438210214569 0.820670430798568 C 0.0 **** 0.0
8 C17025 0.767138783244745 0.275646723304456 0.801991664949318 C.Trigonal 0.0 **** 0.0
9 C17026 0.753975417118329 0.28493560449828 0.795533161057913 C.Trigonal 0.0 **** 0.0
10 C17027 0.739826175835617 0.289137185995177 0.807853544811552 C 0.0 **** 0.0
11 C17033 0.753920835026281 0.290198336189571 0.778822827054668 C 0.0 **** 0.0
12 C17034 0.767322778449362 0.286441884696815 0.768133039236596 C 0.0 **** 0.0
13 C17035 0.781649828254961 0.278359938436928 0.774906993933136 C.Trigonal 0.0 **** 0.0
14 C17036 0.78057766766419 0.271310918612882 0.791377980127306 C.Trigonal 0.0 **** 0.0
15 C17042 0.794185291182553 0.262059427151468 0.797443156776139 C 0.0 **** 0.0
16 C17043 0.810645131674805 0.265134302447529 0.791648067615156 C.Trigonal 0.0 **** 0.0
17 C17044 0.812280658469562 0.272911115437051 0.775510370569674 C.Trigonal 0.0 **** 0.0
18 C17045 0.797858834529015 0.278460424244374 0.766992124438971 C 0.0 **** 0.0
19 C17051 0.830235839869176 0.274600661405441 0.768466381959284 C.Trigonal 0.0 **** 0.0
20 C17052 0.84337276838591 0.267097201650829 0.776682102629673 C.Trigonal 0.0 **** 0.0
21 C17053 0.840530897254126 0.257320811384678 0.792791200734842 C.Trigonal 0.0 **** 0.0
22 C17054 0.825202252501514 0.259965102643861 0.80123313259303 C.Trigonal 0.0 **** 0.0
23 C17060 0.861751158914304 0.270771861942193 0.772393971521431 C 0.0 **** 0.0
24 C17061 0.863278124268067 0.288052959297276 0.763692364489705 C 0.0 **** 0.0
25 C17062 0.851803491738667 0.288443839598245 0.747959022964523 C 0.0 **** 0.0
26 C17063 0.833130092121295 0.286129234975628 0.75320835517625 C 0.0 **** 0.0
27 C17069 0.824061587119554 0.254549052241485 0.818235223104394 C 0.0 **** 0.0
28 C17070 0.835572156201443 0.242803102890983 0.824242188213852 C.Trigonal 0.0 **** 0.0
29 C17071 0.848854670644004 0.23743180129662 0.814229969358897 C.Trigonal 0.0 **** 0.0
30 C17072 0.851718950709623 0.244891237705486 0.798548680000662 C 0.0 **** 0.0
31 C17078 0.860715440352992 0.223833740741415 0.820452752670929 C 0.0 **** 0.0
32 C17079 0.857708155499672 0.216860411535992 0.837514054259056 C.Trigonal 0.0 **** 0.0
33 C17080 0.84510710498238 0.22270691101433 0.847515237148888 C.Trigonal 0.0 **** 0.0
34 C17081 0.833330959531183 0.235873435630409 0.841804273251545 C 0.0 **** 0.0
35 C17087 0.842353157928742 0.215915336390681 0.865247046223348 C 0.0 **** 0.0
36 C17088 0.859207388924126 0.209917114671112 0.873128957569951 C 0.0 **** 0.0
37 C17089 0.869215109773313 0.198804727046062 0.861042717591379 C.Trigonal 0.0 **** 0.0
38 C17090 0.868872427604216 0.202716222581914 0.843579259607705 C.Trigonal 0.0 **** 0.0
39 N17096 0.877800127473775 0.193792372413784 0.832310217756027 N 0.0 **** 0.0
40 C17097 0.888163991537449 0.181681353723435 0.837988064419874 C.Trigonal 0.0 **** 0.0
41 C17098 0.888961474377532 0.176994322762772 0.855246568072339 C.Trigonal 0.0 **** 0.0
42 C17099 0.878957463981302 0.185425535956407 0.86661327608115 C.Trigonal 0.0 **** 0.0
43 C17105 0.87901456745351 0.180698683272322 0.885305421215972 C 0.0 **** 0.0
44 C17106 0.887490269113716 0.16361660255977 0.888744394251229 C 0.0 **** 0.0
45 C17107 0.904023497934199 0.1622271704331 0.878946076771499 C 0.0 **** 0.0
46 C17108 0.899903381108684 0.16201277439847 0.860046442836717 C 0.0 **** 0.0
47 C17114 0.915664488915576 0.161185250388834 0.848573581628348 C 0.0 **** 0.0
48 C17115 0.910296641347269 0.16203407620765 0.830178727946987 C.Trigonal 0.0 **** 0.0
49 C17116 0.897210514605774 0.173015030512938 0.825378704901042 C.Trigonal 0.0 **** 0.0
50 C17121 0.892962231266831 0.174539303068398 0.808084273395731 C 0.0 **** 0.0
51 C17122 0.90141001755022 0.165063169735333 0.796291303785632 C 0.0 **** 0.0
52 C17123 0.91422948295232 0.154091683969725 0.800996334118989 C 0.0 **** 0.0
53 C17124 0.918654198069027 0.152657564823601 0.8180065903416 C 0.0 **** 0.0
54 C17130 0.773547457674009 0.314299154614672 0.86782956912697 C 0.0 **** 0.0
55 C17132 0.789650039623727 0.323740338006057 0.862592923502402 C 0.0 **** 0.0
56 C17134 0.746039091951664 0.333588837618803 0.85343778039269 C 0.0 **** 0.0
57 C17136 0.784366023853238 0.282684942884486 0.851367500933654 C 0.0 **** 0.0
58 C17138 0.727427741665955 0.320533230656018 0.82438679680499 C 0.0 **** 0.0
59 C17140 0.738784637218187 0.300553142545385 0.772997845258318 C 0.0 **** 0.0
60 C17142 0.765466422515055 0.292815984125034 0.750172111392449 C 0.0 **** 0.0
61 O17144 0.799577165383678 0.285099899607808 0.750982104058904 O 0.0 **** 0.0
62 C17146 0.856662591004086 0.275014617827343 0.734681868648728 C 0.0 **** 0.0
63 C17148 0.881874417585215 0.291833419760021 0.759351606630901 C 0.0 **** 0.0
64 O17150 0.865236652734141 0.240490849802107 0.788509846474571 O 0.0 **** 0.0
65 O17152 0.811069363885241 0.260477539115249 0.828083079861009 O 0.0 **** 0.0
66 O17154 0.821964966477531 0.241159050398854 0.850738983582926 O 0.0 **** 0.0
67 O17156 0.872091333189192 0.219250991126204 0.811144227428696 O 0.0 **** 0.0
68 C17158 0.932834935803715 0.140927588008575 0.823179961483177 C 0.0 **** 0.0
69 C17160 0.923154655577169 0.144171276510768 0.787277127293179 C 0.0 **** 0.0
70 H17162 0.778436463088832 0.266790233858423 0.825292061330913 H 0.0 **** 0.0
71 H17164 0.757257120987452 0.261064193037213 0.822807967336044 H 0.0 **** 0.0
72 H17166 0.732567160137725 0.277557834612877 0.8108082385853 H 0.0 **** 0.0
73 H17168 0.730647178143092 0.297819581741316 0.802357985945999 H 0.0 **** 0.0
74 H17170 0.792345533985791 0.254695527994519 0.808978188457794 H 0.0 **** 0.0
75 H17172 0.869629727275088 0.271144329775122 0.78388170421113 H 0.0 **** 0.0
76 H17174 0.866952413699662 0.260780850782276 0.764220311897319 H 0.0 **** 0.0
77 H17176 0.85887887889819 0.297908143333785 0.772503845022669 H 0.0 **** 0.0
78 H17178 0.853049637097247 0.300941873459637 0.741941218595652 H 0.0 **** 0.0
79 H17180 0.82641704939493 0.280982988809064 0.742224991190231 H 0.0 **** 0.0
80 H17182 0.827840230110033 0.29872912479226 0.755945280824406 H 0.0 **** 0.0
81 H17184 0.836758817656552 0.22552211894145 0.873709845224161 H 0.0 **** 0.0
82 H17186 0.83328430819461 0.205413625368883 0.86485648587402 H 0.0 **** 0.0
83 H17188 0.856359023819062 0.203589946820016 0.885156299885176 H 0.0 **** 0.0
84 H17190 0.866792837941487 0.221158228904531 0.876411903968734 H 0.0 **** 0.0
85 H17192 0.885803183647409 0.190592289875232 0.8923638395268 H 0.0 **** 0.0
86 H17194 0.866060922810276 0.180252326516434 0.89038702863461 H 0.0 **** 0.0
87 H17196 0.879002463314146 0.15334359480291 0.88469294083135 H 0.0 **** 0.0
88 H17198 0.889446614186629 0.161761667200434 0.902393960794525 H 0.0 **** 0.0
89 H17200 0.910836855764604 0.150589427182047 0.882393107761713 H 0.0 **** 0.0
90 H17202 0.912385001381227 0.172934437016567 0.882093606963978 H 0.0 **** 0.0
91 H17204 0.892482795923407 0.15049942706416 0.857577203590271 H 0.0 **** 0.0
92 H17206 0.92428922921408 0.171770583530559 0.851491581124681 H 0.0 **** 0.0
93 H17208 0.922604984499146 0.149509008367921 0.851507215381061 H 0.0 **** 0.0
94 H17210 0.882748485201509 0.183065361381705 0.80407321711149 H 0.0 **** 0.0
95 H17212 0.898010625976398 0.166216931511904 0.782866800731016 H 0.0 **** 0.0
96 H17214 0.776662428955793 0.304030044535583 0.876674387291696 H 0.0 **** 0.0
97 H17216 0.765453445349495 0.322724024373008 0.875368298026076 H 0.0 **** 0.0
98 H17218 0.786676487644998 0.334446735159355 0.854210678791544 H 0.0 **** 0.0
99 H17220 0.798441235916762 0.315384818099704 0.855772058444383 H 0.0 **** 0.0
100 H17222 0.796422123082612 0.328808301282269 0.873637596621287 H 0.0 **** 0.0
101 H17224 0.757051435067431 0.340774588892776 0.857936318742105 H 0.0 **** 0.0
102 H17226 0.737551044999489 0.331497045566809 0.8642746567517 H 0.0 **** 0.0
103 H17228 0.739650191620191 0.342097238536621 0.844532315808351 H 0.0 **** 0.0
104 H17230 0.795723582548645 0.285307942208529 0.843735718455815 H 0.0 **** 0.0
105 H17232 0.781986852755872 0.269007096617396 0.850922409850435 H 0.0 **** 0.0
106 H17234 0.787633206688305 0.285387776059584 0.864543419331521 H 0.0 **** 0.0
107 H17236 0.717854393544194 0.312122513457525 0.818879532153508 H 0.0 **** 0.0
108 H17238 0.731519766098946 0.329412343685522 0.81446008257806 H 0.0 **** 0.0
109 H17240 0.720667696639091 0.327801200842503 0.834063305007861 H 0.0 **** 0.0
110 H17242 0.739660128774573 0.305570079383377 0.760131309936517 H 0.0 **** 0.0
111 H17244 0.737150660109439 0.311770581767436 0.781100090480522 H 0.0 **** 0.0
112 H17246 0.727063449646411 0.293062668938325 0.773618830625711 H 0.0 **** 0.0
113 H17248 0.773599195723528 0.286666347568598 0.740944241707921 H 0.0 **** 0.0
114 H17250 0.767639532465994 0.306540233319319 0.749453337616521 H 0.0 **** 0.0
115 H17252 0.752688393777073 0.290246964231256 0.745265978022868 H 0.0 **** 0.0
116 H17254 0.793126574098296 0.278129322229265 0.743563442166716 H 0.0 **** 0.0
117 H17256 0.869943285777219 0.27635392743197 0.730841532613485 H 0.0 **** 0.0
118 H17258 0.848832463858125 0.27655456120046 0.72330069721007 H 0.0 **** 0.0
119 H17260 0.854687980218516 0.262158319162779 0.739580544241824 H 0.0 **** 0.0
120 H17262 0.889431458733375 0.29277987913836 0.7709899142228 H 0.0 **** 0.0
121 H17264 0.88292064318772 0.303906575135028 0.75253520519295 H 0.0 **** 0.0
122 H17266 0.887340137207107 0.281768133878192 0.751481725364256 H 0.0 **** 0.0
123 H17268 0.871135332516874 0.23136237195079 0.793785116749839 H 0.0 **** 0.0
124 H17270 0.811942438763664 0.255638950789761 0.839119198931422 H 0.0 **** 0.0
125 H17272 0.942287240357529 0.147732240110058 0.830772094478685 H 0.0 **** 0.0
126 H17274 0.93964937065707 0.135501459966936 0.81240344947195 H 0.0 **** 0.0
127 H17276 0.928086953959355 0.130249494687627 0.830757720775119 H 0.0 **** 0.0
128 H17278 0.936589182334622 0.147741605574861 0.786359021452707 H 0.0 **** 0.0
129 H17280 0.917500176946191 0.146407176421672 0.774795993694669 H 0.0 **** 0.0
130 H17282 0.922540254744825 0.130458961356414 0.789610812538651 H 0.0 **** 0.0
@<TRIPOS>BOND
1 3 2 Aromatic
2 4 3 Aromatic
3 5 4 Aromatic
4 6 5 Aromatic
5 1 2 Aromatic
6 1 6 Aromatic
7 8 7 1
8 9 8 Aromatic
9 10 9 1
10 4 7 1
11 3 10 1
12 12 11 Aromatic
13 13 12 Aromatic
14 14 13 Aromatic
15 9 11 Aromatic
16 8 14 Aromatic
17 16 15 Aromatic
18 17 16 Aromatic
19 18 17 Aromatic
20 14 15 Aromatic
21 13 18 Aromatic
22 20 19 1
23 21 20 1
24 22 21 Aromatic
25 17 19 1
26 16 22 Aromatic
27 24 23 1
28 25 24 Aromatic
29 26 25 1
30 20 23 1
31 19 26 1
32 28 27 Aromatic
33 29 28 Aromatic
34 30 29 Aromatic
35 22 27 Aromatic
36 21 30 Aromatic
37 32 31 1
38 33 32 Aromatic
39 34 33 1
40 29 31 1
41 28 34 1
42 36 35 1
43 37 36 1
44 38 37 Aromatic
45 33 35 1
46 32 38 Aromatic
47 40 39 Aromatic
48 41 40 Aromatic
49 42 41 Aromatic
50 38 39 Aromatic
51 37 42 Aromatic
52 44 43 1
53 45 44 1
54 46 45 1
55 42 43 1
56 41 46 1
57 48 47 1
58 49 48 Aromatic
59 40 49 Aromatic
60 46 47 1
61 51 50 Aromatic
62 52 51 Aromatic
63 53 52 Aromatic
64 49 50 Aromatic
65 48 53 Aromatic
66 6 54 1
67 54 55 1
68 1 56 1
69 5 57 1
70 2 58 1
71 11 59 1
72 12 60 1
73 18 61 1
74 25 62 1
75 24 63 1
76 30 64 1
77 27 65 1
78 34 66 Double
79 31 67 Double
80 53 68 1
81 52 69 1
82 7 70 1
83 7 71 1
84 10 72 1
85 10 73 1
86 15 74 1
87 23 75 1
88 23 76 1
89 24 77 1
90 25 78 1
91 26 79 1
92 26 80 1
93 35 81 1
94 35 82 1
95 36 83 1
96 36 84 1
97 43 85 1
98 43 86 1
99 44 87 1
100 44 88 1
101 45 89 1
102 45 90 1
103 46 91 1
104 47 92 1
105 47 93 1
106 50 94 1
107 51 95 1
108 54 96 1
109 54 97 1
110 55 98 1
111 55 99 1
112 55 100 1
113 56 101 1
114 56 102 1
115 56 103 1
116 57 104 1
117 57 105 1
118 57 106 1
119 58 107 1
120 58 108 1
121 58 109 1
122 59 110 1
123 59 111 1
124 59 112 1
125 60 113 1
126 60 114 1
127 60 115 1
128 61 116 1
129 62 117 1
130 62 118 1
131 62 119 1
132 63 120 1
133 63 121 1
134 63 122 1
135 64 123 1
136 65 124 1
137 68 125 1
138 68 126 1
139 68 127 1
140 69 128 1
141 69 129 1
142 69 130 1
@<TRIPOS>MOLECULE
Sketch 4
130 142
SMALL
USER_CHARGES


@<TRIPOS>ATOM
1 C17284 0.844031317546391 0.990197068073033 0.798096688335956 C.Trigonal 0.0 **** 0.0
2 C17285 0.836295913062859 0.982991839284018 0.812019414421261 C 0.0 **** 0.0
3 C17286 0.845664466751245 0.973131499452708 0.823084814725215 C.Trigonal 0.0 **** 0.0
4 C17287 0.862564606074578 0.970325173869217 0.820162829034195 C.Trigonal 0.0 **** 0.0
5 C17288 0.870403637465617 0.977761521608014 0.80633903785705 C 0.0 **** 0.0
6 C17289 0.861231563083075 0.988193642704114 0.795648109420389 C 0.0 **** 0.0
7 C17296 0.872813266724126 0.959298144742309 0.832193261600201 C 0.0 **** 0.0
8 C17297 0.863369337608036 0.949237850844009 0.84562860886392 C.Trigonal 0.0 **** 0.0
9 C17298 0.84653954653959 0.952157530447904 0.84848884377831 C.Trigonal 0.0 **** 0.0
10 C17299 0.83696043277625 0.965486736743376 0.838407596014856 C 0.0 **** 0.0
11 C17305 0.837678709352856 0.942916678472879 0.860569667895344 C 0.0 **** 0.0
12 C17306 0.845235277314625 0.929906912763057 0.869473297112611 C 0.0 **** 0.0
13 C17307 0.86275127340565 0.927877282480229 0.868091641685043 C.Trigonal 0.0 **** 0.0
14 C17308 0.871806044056678 0.937353936843194 0.855797787362382 C.Trigonal 0.0 **** 0.0
15 C17314 0.889481435242958 0.935614521631701 0.85497109280273 C 0.0 **** 0.0
16 C17315 0.898809567837513 0.927548017589787 0.867543431107313 C.Trigonal 0.0 **** 0.0
17 C17316 0.889522006786975 0.915858459355803 0.877334651674238 C.Trigonal 0.0 **** 0.0
18 C17317 0.872090628870464 0.917119916644893 0.879086238593451 C 0.0 **** 0.0
19 C17323 0.899348881266325 0.903965967844793 0.888393328437402 C.Trigonal 0.0 **** 0.0
20 C17324 0.914834715344666 0.908642536886016 0.893992454264882 C.Trigonal 0.0 **** 0.0
21 C17325 0.921982354031082 0.925634728590844 0.88860377380441 C.Trigonal 0.0 **** 0.0
22 C17326 0.9149943373125 0.9334352984415 0.874088064939726 C.Trigonal 0.0 **** 0.0
23 C17332 0.92610698730771 0.896642897732897 0.904112123145675 C 0.0 **** 0.0
24 C17333 0.920710014803124 0.878009556032679 0.902199833650192 C 0.0 **** 0.0
25 C17334 0.901391130723849 0.876095168707278 0.904242731023655 C 0.0 **** 0.0
26 C17335 0.892788257624788 0.885820518966601 0.889779193012085 C 0.0 **** 0.0
27 C17341 0.922764023989618 0.948639377644191 0.868391365455966 C 0.0 **** 0.0
28 C17342 0.935640518860905 0.956015431403469 0.877694089502418 C.Trigonal 0.0 **** 0.0
29 C17343 0.941277735327231 0.948889909517553 0.892571273438844 C.Trigonal 0.0 **** 0.0
30 C17344 0.934395718833995 0.93374429004047 0.898175745311824 C 0.0 **** 0.0
31 C17350 0.95510295104144 0.957389035715718 0.902833897294801 C 0.0 **** 0.0
32 C17351 0.96251998729451 0.973210111084166 0.896250255893043 C.Trigonal 0.0 **** 0.0
33 C17352 0.95715543313273 0.979965286142994 0.881478787736304 C.Trigonal 0.0 **** 0.0
34 C17353 0.943570510291376 0.972208692222753 0.871456193642002 C 0.0 **** 0.0
35 C17359 0.965105702597492 0.996005390715757 0.874495392328841 C 0.0 **** 0.0
36 C17360 0.984116192066871 0.996452174050075 0.878999278556008 C 0.0 **** 0.0
37 C17361 0.986615989035918 0.993955798658701 0.897901505433204 C.Trigonal 0.0 **** 0.0
38 C17362 0.97616364169812 0.982043138458284 0.906276143342943 C.Trigonal 0.0 **** 0.0
39 N17368 0.977891294134249 0.978864240746337 0.922829402896925 N 0.0 **** 0.0
40 C17369 0.990274839697982 0.986770518789819 0.931317005744151 C.Trigonal 0.0 **** 0.0
41 C17370 1.00088462410565 0.99909566779649 0.923787944012063 C.Trigonal 0.0 **** 0.0
42 C17371 0.998802301660296 1.00261002969702 0.906939170910041 C.Trigonal 0.0 **** 0.0
43 C17377 1.00999956043525 1.01551670166703 0.89796528999065 C 0.0 **** 0.0
44 C17378 1.02041590445089 1.02650780776151 0.910082967360595 C 0.0 **** 0.0
45 C17379 1.02781675690592 1.01586609341535 0.924330804837172 C 0.0 **** 0.0
46 C17380 1.01335943047296 1.00854950242238 0.934940094710705 C 0.0 **** 0.0
47 C17386 1.01985636007156 0.996843568807705 0.949187305805564 C 0.0 **** 0.0
48 C17387 1.00513785392265 0.988414929892644 0.958105086221954 C.Trigonal 0.0 **** 0.0
49 C17388 0.991179860858119 0.982833268549949 0.948640511997092 C.Trigonal 0.0 **** 0.0
50 C17393 0.977941087925768 0.974124141045408 0.956910656267026 C 0.0 **** 0.0
51 C17394 0.978615371498691 0.971735616921505 0.974053445011123 C 0.0 **** 0.0
52 C17395 0.992291992445051 0.977363931343496 0.983428009917471 C 0.0 **** 0.0
53 C17396 1.00566795232134 0.985557372125957 0.975364235946678 C 0.0 **** 0.0
54 C17402 0.869856608989056 0.997723374775115 0.78132690127858 C 0.0 **** 0.0
55 C17404 0.871005657353197 0.987278873068115 0.765048187297401 C 0.0 **** 0.0
56 C17406 0.833871923012437 1.00054073203827 0.785597426069027 C 0.0 **** 0.0
57 C17408 0.888921662207303 0.974336878617781 0.802754846284065 C 0.0 **** 0.0
58 C17410 0.817570549037299 0.985686006611376 0.815208820283014 C 0.0 **** 0.0
59 C17412 0.819126103041925 0.946945602667709 0.863561305682952 C 0.0 **** 0.0
60 C17414 0.834062226106446 0.919092665452533 0.88069589984867 C 0.0 **** 0.0
61 O17416 0.863875153342045 0.908598024049174 0.891733167323323 O 0.0 **** 0.0
62 C17418 0.894746054086131 0.882225115499229 0.921538792004654 C 0.0 **** 0.0
63 C17420 0.93031668820679 0.866836331585646 0.914913332660604 C 0.0 **** 0.0
64 O17422 0.939516262524693 0.926418208989857 0.913123515117618 O 0.0 **** 0.0
65 O17424 0.917114859530797 0.956212622962758 0.853876831410335 O 0.0 **** 0.0
66 O17426 0.938688610355451 0.978493580466857 0.858312812386625 O 0.0 **** 0.0
67 O17428 0.959633877601113 0.95067626374936 0.915905151302433 O 0.0 **** 0.0
68 C17430 1.02079412037064 0.991335790605706 0.985636816051631 C 0.0 **** 0.0
69 C17432 0.992178647340614 0.974219370391084 1.00226826654229 C 0.0 **** 0.0
70 H17434 0.879968525837156 0.950166597416574 0.824461684443117 H 0.0 **** 0.0
71 H17436 0.882181219744123 0.96743060958282 0.838635318871334 H 0.0 **** 0.0
72 H17438 0.833533120914204 0.97589790308874 0.847080924239661 H 0.0 **** 0.0
73 H17440 0.82502882306316 0.959728306080982 0.834053297739365 H 0.0 **** 0.0
74 H17442 0.895695307930748 0.943360422561637 0.845420653638667 H 0.0 **** 0.0
75 H17444 0.939406659359386 0.897707712168328 0.900066636835157 H 0.0 **** 0.0
76 H17446 0.925598215318216 0.900083184327488 0.917597942045885 H 0.0 **** 0.0
77 H17448 0.924131459819887 0.87375181083453 0.889378301376719 H 0.0 **** 0.0
78 H17450 0.898123801457837 0.862613540649118 0.90292877311381 H 0.0 **** 0.0
79 H17452 0.879051409859572 0.884595267997107 0.891324808059796 H 0.0 **** 0.0
80 H17454 0.895681937102924 0.879316872616409 0.877780204797867 H 0.0 **** 0.0
81 H17456 0.963821413990472 0.996989931307126 0.860628009165945 H 0.0 **** 0.0
82 H17458 0.958677440080716 1.00715290341681 0.879837330897304 H 0.0 **** 0.0
83 H17460 0.989435918727043 1.00841242696596 0.874400557138725 H 0.0 **** 0.0
84 H17462 0.99077777802298 0.986372408411137 0.871992421774758 H 0.0 **** 0.0
85 H17464 1.01869477744177 1.00877882894594 0.889375517092489 H 0.0 **** 0.0
86 H17466 1.00229463472148 1.02396090939544 0.890058628343008 H 0.0 **** 0.0
87 H17468 1.01225685818604 1.03637747131245 0.915616029017894 H 0.0 **** 0.0
88 H17470 1.03042823172594 1.03318533810187 0.90306212452431 H 0.0 **** 0.0
89 H17472 1.03624439816639 1.0235366445044 0.932364151504283 H 0.0 **** 0.0
90 H17474 1.03560958847541 1.00559736978061 0.919003087359968 H 0.0 **** 0.0
91 H17476 1.00664099406733 1.01925822322021 0.940951477627077 H 0.0 **** 0.0
92 H17478 1.02827020191245 0.987096936331652 0.943780591086661 H 0.0 **** 0.0
93 H17480 1.02764173485601 1.00442382922787 0.957847912584128 H 0.0 **** 0.0
94 H17482 0.966891377986215 0.969696234797914 0.94974043393009 H 0.0 **** 0.0
95 H17484 0.968164867324457 0.9652164041853 0.9804862866377 H 0.0 **** 0.0
96 H17486 0.882510238173498 1.00201232958417 0.785150604450517 H 0.0 **** 0.0
97 H17488 0.863148354440198 1.00959422592493 0.778572133722602 H 0.0 **** 0.0
98 H17490 0.858389894652482 0.983927270334301 0.760251589694983 H 0.0 **** 0.0
99 H17492 0.878086985955061 0.975476728716727 0.767019066724463 H 0.0 **** 0.0
100 H17494 0.877470408173651 0.994438923893064 0.755021243209922 H 0.0 **** 0.0
101 H17496 0.820474785243325 0.996931514683778 0.785285627208759 H 0.0 **** 0.0
102 H17498 0.838473950641594 0.99887298395691 0.772615381085594 H 0.0 **** 0.0
103 H17500 0.834660480851538 1.01409687210513 0.78850901670541 H 0.0 **** 0.0
104 H17502 0.890369728905164 0.965535282544658 0.792055332658538 H 0.0 **** 0.0
105 H17504 0.895702950314154 0.968742023623891 0.813467871605449 H 0.0 **** 0.0
106 H17506 0.895886642504729 0.985912705838876 0.799670972847715 H 0.0 **** 0.0
107 H17508 0.814403686887854 0.985660148847944 0.828734591048307 H 0.0 **** 0.0
108 H17510 0.810020834688084 0.97567068012673 0.809146238836761 H 0.0 **** 0.0
109 H17512 0.813018335438273 0.997894306009936 0.810433467883024 H 0.0 **** 0.0
110 H17514 0.815576556085943 0.94541217718056 0.876921345182837 H 0.0 **** 0.0
111 H17516 0.81099428021778 0.938653192051551 0.85591426355292 H 0.0 **** 0.0
112 H17518 0.815774209511709 0.960062693556883 0.860520199648069 H 0.0 **** 0.0
113 H17520 0.837404464383665 0.905625315239896 0.879738987141103 H 0.0 **** 0.0
114 H17522 0.820672580064072 0.919508949344767 0.877088526447009 H 0.0 **** 0.0
115 H17524 0.834926453401295 0.922931334883178 0.894056777104836 H 0.0 **** 0.0
116 H17526 0.872206166980444 0.904030899399557 0.899044567701354 H 0.0 **** 0.0
117 H17528 0.900143892641721 0.87461431483856 0.931848159835137 H 0.0 **** 0.0
118 H17530 0.88092145967381 0.880867746826073 0.922131261593732 H 0.0 **** 0.0
119 H17532 0.897883955276423 0.895573546312395 0.92379179047945 H 0.0 **** 0.0
120 H17534 0.944006350207159 0.867541838009004 0.912584880936548 H 0.0 **** 0.0
121 H17536 0.926386821732428 0.853561338661355 0.91362972637639 H 0.0 **** 0.0
122 H17538 0.927917894188032 0.870910506999332 0.927985582603834 H 0.0 **** 0.0
123 H17540 0.948109036647514 0.933289794139137 0.918131768579509 H 0.0 **** 0.0
124 H17542 0.923255794766589 0.96645996560514 0.852102173625886 H 0.0 **** 0.0
125 H17544 1.03276387352813 0.987499628471705 0.979668506265376 H 0.0 **** 0.0
126 H17546 1.02105087712183 0.985983098323668 0.998432874667118 H 0.0 **** 0.0
127 H17548 1.02092689282362 1.00520074267231 0.987036527381677 H 0.0 **** 0.0
128 H17550 1.00192665970075 0.964993550753493 1.00598543040844 H 0.0 **** 0.0
129 H17552 0.979956537031778 0.969245401190797 1.00658029773853 H 0.0 **** 0.0
130 H17554 0.9945050559002 0.98598769184935 1.00929098470968 H 0.0 **** 0.0
@<TRIPOS>BOND
1 3 2 Aromatic
2 4 3 Aromatic
3 5 4 Aromatic
4 6 5 Aromatic
5 1 2 Aromatic
6 1 6 Aromatic
7 8 7 1
8 9 8 Aromatic
9 10 9 1
10 4 7 1
11 3 10 1
12 12 11 Aromatic
13 13 12 Aromatic
14 14 13 Aromatic
15 9 11 Aromatic
16 8 14 Aromatic
17 16 15 Aromatic
18 17 16 Aromatic
19 18 17 Aromatic
20 14 15 Aromatic
21 13 18 Aromatic
22 20 19 1
23 21 20 1
24 22 21 Aromatic
25 17 19 1
26 16 22 Aromatic
27 24 23 1
28 25 24 Aromatic
29 26 25 1
30 20 23 1
31 19 26 1
32 28 27 Aromatic
33 29 28 Aromatic
34 30 29 Aromatic
35 22 27 Aromatic
36 21 30 Aromatic
37 32 31 1
38 33 32 Aromatic
39 34 33 1
40 29 31 1
41 28 34 1
42 36 35 1
43 37 36 1
44 38 37 Aromatic
45 33 35 1
46 32 38 Aromatic
47 40 39 Aromatic
48 41 40 Aromatic
49 42 41 Aromatic
50 38 39 Aromatic
51 37 42 Aromatic
52 44 43 1
53 45 44 1
54 46 45 1
55 42 43 1
56 41 46 1
57 48 47 1
58 49 48 Aromatic
59 40 49 Aromatic
60 46 47 1
61 51 50 Aromatic
62 52 51 Aromatic
63 53 52 Aromatic
64 49 50 Aromatic
65 48 53 Aromatic
66 6 54 1
67 54 55 1
68 1 56 1
69 5 57 1
70 2 58 1
71 11 59 1
72 12 60 1
73 18 61 1
74 25 62 1
75 24 63 1
76 30 64 1
77 27 65 1
78 34 66 Double
79 31 67 Double
80 53 68 1
81 52 69 1
82 7 70 1
83 7 71 1
84 10 72 1
85 10 73 1
86 15 74 1
87 23 75 1
88 23 76 1
89 24 77 1
90 25 78 1
91 26 79 1
92 26 80 1
93 35 81 1
94 35 82 1
95 36 83 1
96 36 84 1
97 43 85 1
98 43 86 1
99 44 87 1
100 44 88 1
101 45 89 1
102 45 90 1
103 46 91 1
104 47 92 1
105 47 93 1
106 50 94 1
107 51 95 1
108 54 96 1
109 54 97 1
110 55 98 1
111 55 99 1
112 55 100 1
113 56 101 1
114 56 102 1
115 56 103 1
116 57 104 1
117 57 105 1
118 57 106 1
119 58 107 1
120 58 108 1
121 58 109 1
122 59 110 1
123 59 111 1
124 59 112 1
125 60 113 1
126 60 114 1
127 60 115 1
128 61 116 1
129 62 117 1
130 62 118 1
131 62 119 1
132 63 120 1
133 63 121 1
134 63 122 1
135 64 123 1
136 65 124 1
137 68 125 1
138 68 126 1
139 68 127 1
140 69 128 1
141 69 129 1
142 69 130 1
@<TRIPOS>MOLECULE
Sketch 4
130 142
SMALL
USER_CHARGES


@<TRIPOS>ATOM
1 C17556 0.404420343036774 0.631828988826778 1.05800947450523 C.Trigonal 0.0 **** 0.0
2 C17557 0.393717079877769 0.627431305842904 1.04487280362082 C 0.0 **** 0.0
3 C17558 0.399633661227577 0.627631271441799 1.02837003373304 C.Trigonal 0.0 **** 0.0
4 C17559 0.415964179720491 0.632565585330094 1.02499182791062 C.Trigonal 0.0 **** 0.0
5 C17560 0.426513703107428 0.637560727432183 1.03804972865839 C 0.0 **** 0.0
6 C17561 0.420667572528111 0.63734019477289 1.0545293926249 C 0.0 **** 0.0
7 C17568 0.422575405882302 0.632889895601525 1.00693521525033 C 0.0 **** 0.0
8 C17569 0.412391742817439 0.62351209114233 0.993633208027717 C.Trigonal 0.0 **** 0.0
9 C17570 0.396217511021896 0.618319395648927 0.997075175071738 C.Trigonal 0.0 **** 0.0
10 C17571 0.387988438139373 0.622465031330672 1.01398825416902 C 0.0 **** 0.0
11 C17577 0.387031698697265 0.609000296174879 0.98530277490196 C 0.0 **** 0.0
12 C17578 0.394198641592619 0.603975109060113 0.970174398067252 C 0.0 **** 0.0
13 C17579 0.409804060886684 0.610824010737151 0.965520472896775 C.Trigonal 0.0 **** 0.0
14 C17580 0.419161871388172 0.620335223836956 0.977549754656452 C.Trigonal 0.0 **** 0.0
15 C17586 0.435530501159044 0.625818090242194 0.97316315863842 C 0.0 **** 0.0
16 C17587 0.443630688658062 0.619966791461007 0.958722057391141 C.Trigonal 0.0 **** 0.0
17 C17588 0.432725328230929 0.615012192117257 0.945525875466451 C.Trigonal 0.0 **** 0.0
18 C17589 0.416492880984364 0.609175669109685 0.948888015983594 C 0.0 **** 0.0
19 C17595 0.440300181989021 0.613253015883467 0.928227034224924 C.Trigonal 0.0 **** 0.0
20 C17596 0.456989161362112 0.609691708870056 0.926782027541357 C.Trigonal 0.0 **** 0.0
21 C17597 0.4675674423627 0.607707516369325 0.942711114865264 C.Trigonal 0.0 **** 0.0
22 C17598 0.461069068538513 0.614355393609832 0.958010477088388 C.Trigonal 0.0 **** 0.0
23 C17604 0.465807317054337 0.60904683199847 0.909606675794226 C 0.0 **** 0.0
24 C17605 0.455669518161451 0.618048171853433 0.895626778801812 C 0.0 **** 0.0
25 C17606 0.436848282493542 0.613027315891767 0.896324726973709 C 0.0 **** 0.0
26 C17607 0.429596072331295 0.619162415602095 0.913256604684323 C 0.0 **** 0.0
27 C17613 0.471254573054974 0.612959601568137 0.972804754735353 C 0.0 **** 0.0
28 C17614 0.486983515995057 0.605385637450087 0.971921612670055 C.Trigonal 0.0 **** 0.0
29 C17615 0.492814313546902 0.598501596664033 0.95698675991093 C.Trigonal 0.0 **** 0.0
30 C17616 0.483028938351529 0.599289496343988 0.942437453138195 C 0.0 **** 0.0
31 C17622 0.510134507631046 0.590450088837905 0.956100561211038 C 0.0 **** 0.0
32 C17623 0.521035825446362 0.591653767538359 0.97112934742355 C.Trigonal 0.0 **** 0.0
33 C17624 0.515250939181831 0.598122829376845 0.985869022008853 C.Trigonal 0.0 **** 0.0
34 C17625 0.497970111481495 0.604827372304722 0.987513897150885 C 0.0 **** 0.0
35 C17631 0.52648941810228 0.599098693352363 1.00143165978144 C 0.0 **** 0.0
36 C17632 0.540204752631021 0.585079583362084 1.00125104198526 C 0.0 **** 0.0
37 C17633 0.549019607892254 0.583971629078784 0.984276585213587 C.Trigonal 0.0 **** 0.0
38 C17634 0.539217524478867 0.586259937749524 0.969495961757381 C.Trigonal 0.0 **** 0.0
39 N17640 0.54629622070617 0.585833110799089 0.954142749285052 N 0.0 **** 0.0
40 C17641 0.563049391566424 0.583788413754058 0.953019087964436 C.Trigonal 0.0 **** 0.0
41 C17642 0.573386870154703 0.580320763096878 0.967206825602433 C.Trigonal 0.0 **** 0.0
42 C17643 0.566005940043829 0.580168409248683 0.982882743744408 C.Trigonal 0.0 **** 0.0
43 C17649 0.576345112148899 0.576617700966773 0.998759937262138 C 0.0 **** 0.0
44 C17650 0.593640256995512 0.568794887725605 0.994784427271419 C 0.0 **** 0.0
45 C17651 0.602112841120846 0.578538873499063 0.980467671639895 C 0.0 **** 0.0
46 C17652 0.591884581501909 0.576225276253086 0.964187242994089 C 0.0 **** 0.0
47 C17658 0.598783959391885 0.587158585402116 0.949491464167467 C 0.0 **** 0.0
48 C17659 0.587099419554672 0.586335491019974 0.934268625896545 C.Trigonal 0.0 **** 0.0
49 C17660 0.569571414737475 0.584875221691774 0.93653079217484 C.Trigonal 0.0 **** 0.0
50 C17665 0.558819326977126 0.584993473545091 0.922260037594826 C 0.0 **** 0.0
51 C17666 0.565604089555231 0.586546417890011 0.906401068288447 C 0.0 **** 0.0
52 C17667 0.582879760879616 0.588272763060977 0.90410477888801 C 0.0 **** 0.0
53 C17668 0.593563227581089 0.588399142094007 0.918136569522534 C 0.0 **** 0.0
54 C17674 0.432037540872534 0.64334468186768 1.06873824855536 C 0.0 **** 0.0
55 C17676 0.429868169465185 0.662413945149356 1.07130069150465 C 0.0 **** 0.0
56 C17678 0.398557212892237 0.630924769359024 1.07626375421937 C 0.0 **** 0.0
57 C17680 0.444528560820135 0.642971916954413 1.0342899982506 C 0.0 **** 0.0
58 C17682 0.375581466017104 0.622468224550394 1.04872167090015 C 0.0 **** 0.0
59 C17684 0.368926059677697 0.60385998842544 0.989324986091786 C 0.0 **** 0.0
60 C17686 0.384232172202061 0.591988181919004 0.959145400066528 C 0.0 **** 0.0
61 O17688 0.407118904534803 0.60142915163559 0.936567519048072 O 0.0 **** 0.0
62 C17690 0.433846405939952 0.593902620590713 0.894176431507515 C 0.0 **** 0.0
63 C17692 0.463458531035612 0.614223253531053 0.878224926212263 C 0.0 **** 0.0
64 O17694 0.488366943274639 0.592037211171504 0.927532661894593 O 0.0 **** 0.0
65 O17696 0.465283365527504 0.619060084455124 0.987862701365485 O 0.0 **** 0.0
66 O17698 0.492675517536208 0.610277792900026 1.00088193208736 O 0.0 **** 0.0
67 O17700 0.514480798400876 0.583504874044845 0.943082779853803 O 0.0 **** 0.0
68 C17702 0.612374254180523 0.59090527377421 0.915820920287574 C 0.0 **** 0.0
69 C17704 0.589432797066338 0.590224046876265 0.886249337209054 C 0.0 **** 0.0
70 H17706 0.424116744237882 0.646181972030342 1.00289988887474 H 0.0 **** 0.0
71 H17708 0.435308710719601 0.627230603485734 1.00716520765675 H 0.0 **** 0.0
72 H17710 0.381103098088087 0.611111500152503 1.01813185096047 H 0.0 **** 0.0
73 H17712 0.378482915116732 0.632529008554207 1.0120504463328 H 0.0 **** 0.0
74 H17714 0.442592973440977 0.632751377219778 0.982810767054845 H 0.0 **** 0.0
75 H17716 0.478400344584002 0.61498406930399 0.910218537637065 H 0.0 **** 0.0
76 H17718 0.467697906538197 0.595744526254265 0.905926976565517 H 0.0 **** 0.0
77 H17720 0.456508433615575 0.631780399763165 0.897712996792188 H 0.0 **** 0.0
78 H17722 0.430106422067229 0.619627451822254 0.886077026866739 H 0.0 **** 0.0
79 H17724 0.416211977174665 0.61555805966191 0.913757203012165 H 0.0 **** 0.0
80 H17726 0.429673174141219 0.633101268325909 0.913246351513074 H 0.0 **** 0.0
81 H17728 0.532743726967368 0.611521545546005 1.00201299175237 H 0.0 **** 0.0
82 H17730 0.519047417415941 0.598234702300508 1.0131918851775 H 0.0 **** 0.0
83 H17732 0.534447539781221 0.572720695528846 1.00392795854902 H 0.0 **** 0.0
84 H17734 0.549086972380284 0.587617005358767 1.01163890082792 H 0.0 **** 0.0
85 H17736 0.578384071139215 0.58860707295797 1.00562157874499 H 0.0 **** 0.0
86 H17738 0.56935176458645 0.568216752148899 1.00739566440398 H 0.0 **** 0.0
87 H17740 0.592108654013957 0.555509368741229 0.99086177415181 H 0.0 **** 0.0
88 H17742 0.601582539494605 0.568641759476765 1.00622613354114 H 0.0 **** 0.0
89 H17744 0.615183426463498 0.574206841529898 0.978465617084294 H 0.0 **** 0.0
90 H17746 0.602885801342691 0.592049434870604 0.983828604402902 H 0.0 **** 0.0
91 H17748 0.592878882359917 0.562788870043537 0.960383535110482 H 0.0 **** 0.0
92 H17750 0.600003159461127 0.600412979468447 0.953709766718932 H 0.0 **** 0.0
93 H17752 0.611628593159881 0.582768503735636 0.946477513981144 H 0.0 **** 0.0
94 H17754 0.545037976045689 0.583932983755392 0.923801621670931 H 0.0 **** 0.0
95 H17756 0.557174439669686 0.586597362801714 0.895351742928656 H 0.0 **** 0.0
96 H17758 0.445393268761313 0.64056202231199 1.06604641442254 H 0.0 **** 0.0
97 H17760 0.429264414598368 0.636763448529213 1.08064356869183 H 0.0 **** 0.0
98 H17762 0.417188775249019 0.665450003644743 1.07612902839037 H 0.0 **** 0.0
99 H17764 0.431519146257222 0.669290764964968 1.05934053899849 H 0.0 **** 0.0
100 H17766 0.439183984951272 0.667391244647877 1.08034038447281 H 0.0 **** 0.0
101 H17768 0.399257115509938 0.643394405722888 1.08240651743934 H 0.0 **** 0.0
102 H17770 0.406473838563855 0.622111813047326 1.08359115692835 H 0.0 **** 0.0
103 H17772 0.38553019428797 0.626478068942736 1.07778085434147 H 0.0 **** 0.0
104 H17774 0.446121296993447 0.647737319259563 1.02136750041592 H 0.0 **** 0.0
105 H17776 0.453380370166053 0.632325331557131 1.03590652505083 H 0.0 **** 0.0
106 H17778 0.448794169471962 0.653260682863235 1.04256732296133 H 0.0 **** 0.0
107 H17780 0.367401173381273 0.622142960314106 1.03753963282849 H 0.0 **** 0.0
108 H17782 0.369595294709697 0.631627680726976 1.05732275681546 H 0.0 **** 0.0
109 H17784 0.37495140126752 0.609906410220221 1.05470236440918 H 0.0 **** 0.0
110 H17786 0.368369928897733 0.590974820208378 0.994601787147066 H 0.0 **** 0.0
111 H17788 0.360864886553443 0.604176444831029 0.977987643936131 H 0.0 **** 0.0
112 H17790 0.362715500965888 0.61240310740347 0.998324923118907 H 0.0 **** 0.0
113 H17792 0.377496776720648 0.598838846958347 0.94908092898492 H 0.0 **** 0.0
114 H17794 0.37490139102242 0.584579090175911 0.966254597357516 H 0.0 **** 0.0
115 H17796 0.39247474620185 0.582440410417512 0.953310115297282 H 0.0 **** 0.0
116 H17798 0.41449710644508 0.598874970819698 0.927460754433878 H 0.0 **** 0.0
117 H17800 0.438194350458528 0.589602465471283 0.881692848036885 H 0.0 **** 0.0
118 H17802 0.420280289041489 0.59112362867481 0.895134984650303 H 0.0 **** 0.0
119 H17804 0.440486277392568 0.586555398059264 0.903918751240044 H 0.0 **** 0.0
120 H17806 0.476586298330326 0.618787263606818 0.877706824458528 H 0.0 **** 0.0
121 H17808 0.456250275920113 0.62053875206768 0.868154012834454 H 0.0 **** 0.0
122 H17810 0.463539679315111 0.600558572796676 0.875708566512181 H 0.0 **** 0.0
123 H17812 0.499615969598463 0.587901714128802 0.929047267916655 H 0.0 **** 0.0
124 H17814 0.473259636088483 0.616684995487447 0.996611796197113 H 0.0 **** 0.0
125 H17816 0.617031794514839 0.601647216015507 0.923351817732075 H 0.0 **** 0.0
126 H17818 0.615964405438192 0.593418076963449 0.9026869531938 H 0.0 **** 0.0
127 H17820 0.619314165541821 0.579559157893572 0.919833432426629 H 0.0 **** 0.0
128 H17822 0.595258686143246 0.602724152409981 0.884314325372371 H 0.0 **** 0.0
129 H17824 0.579254033536393 0.588979790850237 0.876886075155575 H 0.0 **** 0.0
130 H17826 0.598935581447128 0.580520425862255 0.88321550555447 H 0.0 **** 0.0
@<TRIPOS>BOND
1 3 2 Aromatic
2 4 3 Aromatic
3 5 4 Aromatic
4 6 5 Aromatic
5 1 2 Aromatic
6 1 6 Aromatic
7 8 7 1
8 9 8 Aromatic
9 10 9 1
10 4 7 1
11 3 10 1
12 12 11 Aromatic
13 13 12 Aromatic
14 14 13 Aromatic
15 9 11 Aromatic
16 8 14 Aromatic
17 16 15 Aromatic
18 17 16 Aromatic
19 18 17 Aromatic
20 14 15 Aromatic
21 13 18 Aromatic
22 20 19 1
23 21 20 1
24 22 21 Aromatic
25 17 19 1
26 16 22 Aromatic
27 24 23 1
28 25 24 Aromatic
29 26 25 1
30 20 23 1
31 19 26 1
32 28 27 Aromatic
33 29 28 Aromatic
34 30 29 Aromatic
35 22 27 Aromatic
36 21 30 Aromatic
37 32 31 1
38 33 32 Aromatic
39 34 33 1
40 29 31 1
41 28 34 1
42 36 35 1
43 37 36 1
44 38 37 Aromatic
45 33 35 1
46 32 38 Aromatic
47 40 39 Aromatic
48 41 40 Aromatic
49 42 41 Aromatic
50 38 39 Aromatic
51 37 42 Aromatic
52 44 43 1
53 45 44 1
54 46 45 1
55 42 43 1
56 41 46 1
57 48 47 1
58 49 48 Aromatic
59 40 49 Aromatic
60 46 47 1
61 51 50 Aromatic
62 52 51 Aromatic
63 53 52 Aromatic
64 49 50 Aromatic
65 48 53 Aromatic
66 6 54 1
67 54 55 1
68 1 56 1
69 5 57 1
70 2 58 1
71 11 59 1
72 12 60 1
73 18 61 1
74 25 62 1
75 24 63 1
76 30 64 1
77 27 65 1
78 34 66 Double
79 31 67 Double
80 53 68 1
81 52 69 1
82 7 70 1
83 7 71 1
84 10 72 1
85 10 73 1
86 15 74 1
87 23 75 1
88 23 76 1
89 24 77 1
90 25 78 1
91 26 79 1
92 26 80 1
93 35 81 1
94 35 82 1
95 36 83 1
96 36 84 1
97 43 85 1
98 43 86 1
99 44 87 1
100 44 88 1
101 45 89 1
102 45 90 1
103 46 91 1
104 47 92 1
105 47 93 1
106 50 94 1
107 51 95 1
108 54 96 1
109 54 97 1
110 55 98 1
111 55 99 1
112 55 100 1
113 56 101 1
114 56 102 1
115 56 103 1
116 57 104 1
117 57 105 1
118 57 106 1
119 58 107 1
120 58 108 1
121 58 109 1
122 59 110 1
123 59 111 1
124 59 112 1
125 60 113 1
126 60 114 1
127 60 115 1
128 61 116 1
129 62 117 1
130 62 118 1
131 62 119 1
132 63 120 1
133 63 121 1
134 63 122 1
135 64 123 1
136 65 124 1
137 68 125 1
138 68 126 1
139 68 127 1
140 69 128 1
141 69 129 1
142 69 130 1
@<TRIPOS>MOLECULE
Sketch 4
130 142
SMALL
USER_CHARGES


@<TRIPOS>ATOM
1 C17828 0.847484903031034 0.901686639868648 0.140484112599907 C.Trigonal 0.0 **** 0.0
2 C17829 0.83463292250953 0.891087135245131 0.135023140015769 C 0.0 **** 0.0
3 C17830 0.832028271205222 0.875647502335048 0.142894344156865 C.Trigonal 0.0 **** 0.0
4 C17831 0.842331658936693 0.870829622078057 0.156022222210116 C.Trigonal 0.0 **** 0.0
5 C17832 0.855536416647884 0.881187800574409 0.161192412164355 C 0.0 **** 0.0
6 C17833 0.857809397920618 0.896852052924247 0.153760315713912 C 0.0 **** 0.0
7 C17840 0.839406432758576 0.854246742716725 0.165342750355646 C 0.0 **** 0.0
8 C17841 0.823916174126578 0.843846396772267 0.16070522960449 C.Trigonal 0.0 **** 0.0
9 C17842 0.814113216254383 0.848157047377729 0.147075664632653 C.Trigonal 0.0 **** 0.0
10 C17843 0.817706482710973 0.864221080494194 0.137011646987633 C 0.0 **** 0.0
11 C17849 0.800865003582896 0.837735931583299 0.141908615804464 C 0.0 **** 0.0
12 C17850 0.796795557223176 0.82313466810744 0.15066236937526 C 0.0 **** 0.0
13 C17851 0.804736876174527 0.820162485540408 0.166188392163781 C.Trigonal 0.0 **** 0.0
14 C17852 0.819291877659904 0.82968267886142 0.17035724876825 C.Trigonal 0.0 **** 0.0
15 C17858 0.828383410985245 0.825021546962927 0.184719462472931 C 0.0 **** 0.0
16 C17859 0.823596627500482 0.811582517950603 0.195246941841606 C.Trigonal 0.0 **** 0.0
17 C17860 0.807338138212952 0.804421105258207 0.192682060043528 C.Trigonal 0.0 **** 0.0
18 C17861 0.797907179712678 0.808832029102752 0.178511337932207 C 0.0 **** 0.0
19 C17867 0.800702074803997 0.792569245820723 0.206327078600371 C.Trigonal 0.0 **** 0.0
20 C17868 0.808935993968394 0.79123341807239 0.221442904579852 C.Trigonal 0.0 **** 0.0
21 C17869 0.826924520235828 0.798126730034998 0.223194908639137 C.Trigonal 0.0 **** 0.0
22 C17870 0.834070587642866 0.806129535031839 0.208928196087853 C.Trigonal 0.0 **** 0.0
23 C17876 0.801930911201541 0.780531988600821 0.23599400137757 C 0.0 **** 0.0
24 C17877 0.784051646801312 0.773552758743928 0.23293239940587 C 0.0 **** 0.0
25 C17878 0.782864288074909 0.767276177762009 0.214582435153704 C 0.0 **** 0.0
26 C17879 0.784855147978807 0.782247042056768 0.202420824680683 C 0.0 **** 0.0
27 C17885 0.851755502986632 0.809372084790089 0.208786439755296 C 0.0 **** 0.0
28 C17886 0.860929038910755 0.807910275726297 0.223561115706933 C.Trigonal 0.0 **** 0.0
29 C17887 0.853412886064267 0.80181580328603 0.238069078993619 C.Trigonal 0.0 **** 0.0
30 C17888 0.836614108065781 0.796526365886622 0.237930366891531 C 0.0 **** 0.0
31 C17894 0.86364039337224 0.800134317335649 0.254165675838341 C 0.0 **** 0.0
32 C17895 0.881548482419286 0.805292133975024 0.253771002535819 C.Trigonal 0.0 **** 0.0
33 C17896 0.888831806935432 0.811209195273346 0.239471394481713 C.Trigonal 0.0 **** 0.0
34 C17897 0.879322922752825 0.812892684935962 0.22360134172432 C 0.0 **** 0.0
35 C17903 0.907338837468984 0.816384364480977 0.239214121057155 C 0.0 **** 0.0
36 C17904 0.917607140404668 0.805072386085082 0.251403763105858 C 0.0 **** 0.0
37 C17905 0.909567590979935 0.804726587047231 0.268853388277465 C.Trigonal 0.0 **** 0.0
38 C17906 0.891703726616474 0.804078730781896 0.269822076198488 C.Trigonal 0.0 **** 0.0
39 N17912 0.883691560104183 0.802783643539555 0.28464336135716 N 0.0 **** 0.0
40 C17913 0.892952093762627 0.8015998371458 0.298759809351882 C.Trigonal 0.0 **** 0.0
41 C17914 0.91080163093321 0.803060302283448 0.298783586142523 C.Trigonal 0.0 **** 0.0
42 C17915 0.918964643050334 0.804690489907128 0.283569798567538 C.Trigonal 0.0 **** 0.0
43 C17921 0.938174323219935 0.805971739481368 0.282650742369814 C 0.0 **** 0.0
44 C17922 0.946360346688527 0.809845356785066 0.299782003189626 C 0.0 **** 0.0
45 C17923 0.938562042058412 0.798936932562498 0.313632572523003 C 0.0 **** 0.0
46 C17924 0.919875462639188 0.803618573508512 0.315695705089728 C 0.0 **** 0.0
47 C17930 0.910691545021311 0.792093742614959 0.328561436403851 C 0.0 **** 0.0
48 C17931 0.891871957886113 0.795799364823993 0.328793925267682 C.Trigonal 0.0 **** 0.0
49 C17932 0.883493774306373 0.799778284222407 0.313684474352199 C.Trigonal 0.0 **** 0.0
50 C17937 0.865798087426144 0.802243903739294 0.313853228674147 C 0.0 **** 0.0
51 C17938 0.857092025551461 0.801179843916973 0.328787178125309 C 0.0 **** 0.0
52 C17939 0.865324095373641 0.797329529774418 0.343753214309816 C 0.0 **** 0.0
53 C17940 0.882719210529936 0.794405155550658 0.343636971534081 C 0.0 **** 0.0
54 C17946 0.871377175024777 0.908799769703246 0.160257178012704 C 0.0 **** 0.0
55 C17948 0.888344158264403 0.905479242199156 0.151509090145533 C 0.0 **** 0.0
56 C17950 0.849959117285957 0.918755282999623 0.132058950147333 C 0.0 **** 0.0
57 C17952 0.867010404930933 0.874989583060983 0.175265278858877 C 0.0 **** 0.0
58 C17954 0.823400463219553 0.896811494033559 0.120563823002547 C 0.0 **** 0.0
59 C17956 0.790937598217796 0.842278009643879 0.126083932849689 C 0.0 **** 0.0
60 C17958 0.783183962567114 0.811776121991626 0.143373004190318 C 0.0 **** 0.0
61 O17960 0.781916562328206 0.802831148682685 0.175714104652274 O 0.0 **** 0.0
62 C17962 0.766185446394919 0.757877521621767 0.211144357126586 C 0.0 **** 0.0
63 C17964 0.770734865538984 0.787080606807333 0.237431317692093 C 0.0 **** 0.0
64 O17966 0.829376765887173 0.789575518448221 0.252116355167915 O 0.0 **** 0.0
65 O17968 0.859262819785892 0.814116759623301 0.193868149899566 O 0.0 **** 0.0
66 O17970 0.885802375516896 0.818270265610352 0.210721660759593 O 0.0 **** 0.0
67 O17972 0.85673226582652 0.794384125872454 0.266640185901802 O 0.0 **** 0.0
68 C17974 0.891628379870156 0.789812568279273 0.359914317752184 C 0.0 **** 0.0
69 C17976 0.854908389222589 0.796210765170249 0.359744272242822 C 0.0 **** 0.0
70 H17978 0.850647561858836 0.846124287173637 0.163671514147905 H 0.0 **** 0.0
71 H17980 0.838613617102097 0.85729896475843 0.178928510905001 H 0.0 **** 0.0
72 H17982 0.806033556032454 0.871859951557924 0.137306012915755 H 0.0 **** 0.0
73 H17984 0.820026905845977 0.860704898618392 0.123701735284348 H 0.0 **** 0.0
74 H17986 0.839588290326499 0.832483413443444 0.187923604496834 H 0.0 **** 0.0
75 H17988 0.810409915585407 0.769705082255279 0.238238530824049 H 0.0 **** 0.0
76 H17990 0.801390939706386 0.787957784293892 0.247760816939131 H 0.0 **** 0.0
77 H17992 0.78216177377669 0.762699137045799 0.241444078096931 H 0.0 **** 0.0
78 H17994 0.793266220836838 0.758299091713246 0.212347963314666 H 0.0 **** 0.0
79 H17996 0.773493578256997 0.790239505754257 0.203297210002673 H 0.0 **** 0.0
80 H17998 0.785547639809173 0.776827490141791 0.189593770622973 H 0.0 **** 0.0
81 H18000 0.912938586160588 0.815370218462576 0.226463955850459 H 0.0 **** 0.0
82 H18002 0.908509870473731 0.829747196651257 0.242987423880811 H 0.0 **** 0.0
83 H18004 0.930748810564545 0.809508804316659 0.251565374037401 H 0.0 **** 0.0
84 H18006 0.91803038875751 0.792081171750881 0.246300111869089 H 0.0 **** 0.0
85 H18008 0.943281946777927 0.793930128756348 0.277809291857559 H 0.0 **** 0.0
86 H18010 0.942027048134151 0.815891071984945 0.27370460794325 H 0.0 **** 0.0
87 H18012 0.94441969655023 0.823281849030707 0.302990714978408 H 0.0 **** 0.0
88 H18014 0.960142955092731 0.807964017697687 0.298978687678488 H 0.0 **** 0.0
89 H18016 0.945292829428343 0.800693356866712 0.325715829584315 H 0.0 **** 0.0
90 H18018 0.93984010510749 0.785456635703009 0.310287815350665 H 0.0 **** 0.0
91 H18020 0.919276569785568 0.81673590929988 0.320551601760797 H 0.0 **** 0.0
92 H18022 0.912771349129849 0.778697790614223 0.325205217457017 H 0.0 **** 0.0
93 H18024 0.916540903637534 0.794014168451117 0.341004895087271 H 0.0 **** 0.0
94 H18026 0.859033286409756 0.805289772671471 0.302113455936797 H 0.0 **** 0.0
95 H18028 0.843363714487394 0.803330726738707 0.328886632595022 H 0.0 **** 0.0
96 H18030 0.872813245791535 0.907666872792749 0.174052808837405 H 0.0 **** 0.0
97 H18032 0.867733946578907 0.922090260974512 0.158348002537689 H 0.0 **** 0.0
98 H18034 0.887438509386487 0.907869589918728 0.137851528070651 H 0.0 **** 0.0
99 H18036 0.892528376387242 0.892328490388419 0.153252854262465 H 0.0 **** 0.0
100 H18038 0.898338254859485 0.913753849455709 0.156539486348146 H 0.0 **** 0.0
101 H18040 0.845459685739914 0.918987529181194 0.118933658607752 H 0.0 **** 0.0
102 H18042 0.863331707842336 0.922453859105235 0.131442924498344 H 0.0 **** 0.0
103 H18044 0.84311883298046 0.928739613798174 0.138964553838401 H 0.0 **** 0.0
104 H18046 0.871158180891908 0.861899888716816 0.173002622894012 H 0.0 **** 0.0
105 H18048 0.860481208172243 0.875256940134749 0.187546695233864 H 0.0 **** 0.0
106 H18050 0.87867623506926 0.882337062756794 0.176602461883586 H 0.0 **** 0.0
107 H18052 0.818100989574138 0.909442528083359 0.123078652932729 H 0.0 **** 0.0
108 H18054 0.812571475230822 0.888518610002387 0.118167904224067 H 0.0 **** 0.0
109 H18056 0.830544489837919 0.897488726799377 0.108641467078599 H 0.0 **** 0.0
110 H18058 0.777560675328998 0.838627578897455 0.127073237532793 H 0.0 **** 0.0
111 H18060 0.796272939965533 0.835992314742007 0.114841606205835 H 0.0 **** 0.0
112 H18062 0.790740177408044 0.855898248581959 0.123569527378117 H 0.0 **** 0.0
113 H18064 0.785358429069377 0.798407538654753 0.146513726374503 H 0.0 **** 0.0
114 H18066 0.78292101135665 0.812109273466668 0.1294896014696 H 0.0 **** 0.0
115 H18068 0.770529631404846 0.815356826217054 0.147961728497703 H 0.0 **** 0.0
116 H18070 0.778420022767196 0.796727933659006 0.185367757900401 H 0.0 **** 0.0
117 H18072 0.764783450110828 0.747168303605301 0.219902312342555 H 0.0 **** 0.0
118 H18074 0.766080464999797 0.752829724974501 0.198184730119088 H 0.0 **** 0.0
119 H18076 0.755230614757218 0.76629532860017 0.212620869353529 H 0.0 **** 0.0
120 H18078 0.771506231669502 0.790193273774742 0.250972391832391 H 0.0 **** 0.0
121 H18080 0.757890755290398 0.782453033397737 0.234909818444316 H 0.0 **** 0.0
122 H18082 0.772749380355939 0.798801174095137 0.230242031336321 H 0.0 **** 0.0
123 H18084 0.837347399839562 0.789714251205198 0.261204100768009 H 0.0 **** 0.0
124 H18086 0.87100428984509 0.816180318692724 0.195817678672642 H 0.0 **** 0.0
125 H18088 0.900770447450866 0.779508220402107 0.358098670319136 H 0.0 **** 0.0
126 H18090 0.882957204662076 0.785575833062962 0.36987731593586 H 0.0 **** 0.0
127 H18092 0.898586219945529 0.800783868085506 0.364811815575108 H 0.0 **** 0.0
128 H18094 0.854020641837803 0.783085121419288 0.36432318516623 H 0.0 **** 0.0
129 H18096 0.841939965817071 0.800765793795082 0.357775227429113 H 0.0 **** 0.0
130 H18098 0.860367883726625 0.803926915492697 0.369938158706131 H 0.0 **** 0.0
@<TRIPOS>BOND
1 3 2 Aromatic
2 4 3 Aromatic
3 5 4 Aromatic
4 6 5 Aromatic
5 1 2 Aromatic
6 1 6 Aromatic
7 8 7 1
8 9 8 Aromatic
9 10 9 1
10 4 7 1
11 3 10 1
12 12 11 Aromatic
13 13 12 Aromatic
14 14 13 Aromatic
15 9 11 Aromatic
16 8 14 Aromatic
17 16 15 Aromatic
18 17 16 Aromatic
19 18 17 Aromatic
20 14 15 Aromatic
21 13 18 Aromatic
22 20 19 1
23 21 20 1
24 22 21 Aromatic
25 17 19 1
26 16 22 Aromatic
27 24 23 1
28 25 24 Aromatic
29 26 25 1
30 20 23 1
31 19 26 1
32 28 27 Aromatic
33 29 28 Aromatic
34 30 29 Aromatic
35 22 27 Aromatic
36 21 30 Aromatic
37 32 31 1
38 33 32 Aromatic
39 34 33 1
40 29 31 1
41 28 34 1
42 36 35 1
43 37 36 1
44 38 37 Aromatic
45 33 35 1
46 32 38 Aromatic
47 40 39 Aromatic
48 41 40 Aromatic
49 42 41 Aromatic
50 38 39 Aromatic
51 37 42 Aromatic
52 44 43 1
53 45 44 1
54 46 45 1
55 42 43 1
56 41 46 1
57 48 47 1
58 49 48 Aromatic
59 40 49 Aromatic
60 46 47 1
61 51 50 Aromatic
62 52 51 Aromatic
63 53 52 Aromatic
64 49 50 Aromatic
65 48 53 Aromatic
66 6 54 1
67 54 55 1
68 1 56 1
69 5 57 1
70 2 58 1
71 11 59 1
72 12 60 1
73 18 61 1
74 25 62 1
75 24 63 1
76 30 64 1
77 27 65 1
78 34 66 Double
79 31 67 Double
80 53 68 1
81 52 69 1
82 7 70 1
83 7 71 1
84 10 72 1
85 10 73 1
86 15 74 1
87 23 75 1
88 23 76 1
89 24 77 1
90 25 78 1
91 26 79 1
92 26 80 1
93 35 81 1
94 35 82 1
95 36 83 1
96 36 84 1
97 43 85 1
98 43 86 1
99 44 87 1
100 44 88 1
101 45 89 1
102 45 90 1
103 46 91 1
104 47 92 1
105 47 93 1
106 50 94 1
107 51 95 1
108 54 96 1
109 54 97 1
110 55 98 1
111 55 99 1
112 55 100 1
113 56 101 1
114 56 102 1
115 56 103 1
116 57 104 1
117 57 105 1
118 57 106 1
119 58 107 1
120 58 108 1
121 58 109 1
122 59 110 1
123 59 111 1
124 59 112 1
125 60 113 1
126 60 114 1
127 60 115 1
128 61 116 1
129 62 117 1
130 62 118 1
131 62 119 1
132 63 120 1
133 63 121 1
134 63 122 1
135 64 123 1
136 65 124 1
137 68 125 1
138 68 126 1
139 68 127 1
140 69 128 1
141 69 129 1
142 69 130 1
@<TRIPOS>MOLECULE
Sketch 4
130 142
SMALL
USER_CHARGES


@<TRIPOS>ATOM
1 C18100 0.826983846526677 0.220425807589584 0.310259387332635 C.Trigonal 0.0 **** 0.0
2 C18101 0.83932680131672 0.211479941142953 0.318858337818456 C 0.0 **** 0.0
3 C18102 0.851946998131527 0.203227711800943 0.309920533580213 C.Trigonal 0.0 **** 0.0
4 C18103 0.851824489620043 0.203363332078257 0.292537004688444 C.Trigonal 0.0 **** 0.0
5 C18104 0.839474023014743 0.21228158149063 0.28387414995573 C 0.0 **** 0.0
6 C18105 0.827197404104792 0.220992009699158 0.29277237048866 C 0.0 **** 0.0
7 C18112 0.865019582887259 0.193663126988172 0.282496210225747 C 0.0 **** 0.0
8 C18113 0.879671801745232 0.18575636802522 0.292059548688227 C.Trigonal 0.0 **** 0.0
9 C18114 0.880246055064482 0.186264733424536 0.309365119496003 C.Trigonal 0.0 **** 0.0
10 C18115 0.865725491342033 0.193869027424953 0.319503231898387 C 0.0 **** 0.0
11 C18121 0.894239159753585 0.180076215133292 0.318084196503327 C 0.0 **** 0.0
12 C18122 0.907978673936958 0.173317430606467 0.309615759314036 C 0.0 **** 0.0
13 C18123 0.906593427546337 0.170491357535944 0.292207272007871 C.Trigonal 0.0 **** 0.0
14 C18124 0.892682902679234 0.177464094829458 0.283299653603001 C.Trigonal 0.0 **** 0.0
15 C18130 0.892189503278406 0.175879085494425 0.265647984196532 C 0.0 **** 0.0
16 C18131 0.90500379819824 0.168106005042438 0.256362435478693 C.Trigonal 0.0 **** 0.0
17 C18132 0.916210150757243 0.157818972450015 0.265853572987548 C.Trigonal 0.0 **** 0.0
18 C18133 0.917945091813504 0.159792915290029 0.28320809525549 C 0.0 **** 0.0
19 C18139 0.926609062958799 0.144988057212319 0.256280225196127 C.Trigonal 0.0 **** 0.0
20 C18140 0.92836144326148 0.146715428518919 0.239362964763668 C.Trigonal 0.0 **** 0.0
21 C18141 0.921337526126264 0.162093935343897 0.230498054604631 C.Trigonal 0.0 **** 0.0
22 C18142 0.908579937922721 0.171433936963118 0.238746678046206 C.Trigonal 0.0 **** 0.0
23 C18148 0.9341255478413 0.131953417710789 0.228505262831028 C 0.0 **** 0.0
24 C18149 0.927317065422172 0.115483697416482 0.236236076019417 C 0.0 **** 0.0
25 C18150 0.934054367522062 0.112927219271007 0.254404661535235 C 0.0 **** 0.0
26 C18151 0.931042846883894 0.128663264323243 0.265713961677678 C 0.0 **** 0.0
27 C18157 0.901126691967253 0.185076354704515 0.229624939157394 C 0.0 **** 0.0
28 C18158 0.906349982563324 0.188566529023119 0.213271641586213 C.Trigonal 0.0 **** 0.0
29 C18159 0.919793035023781 0.180079147558036 0.206082511480376 C.Trigonal 0.0 **** 0.0
30 C18160 0.927780366095879 0.167197038293113 0.214930457536863 C 0.0 **** 0.0
31 C18166 0.925462738434008 0.183982082703837 0.188209279275789 C 0.0 **** 0.0
32 C18167 0.914800989344509 0.195453067818366 0.178094550722707 C.Trigonal 0.0 **** 0.0
33 C18168 0.901702045230005 0.203843287625372 0.185191379675236 C.Trigonal 0.0 **** 0.0
34 C18169 0.897031626754509 0.20172663171965 0.203081762609301 C 0.0 **** 0.0
35 C18175 0.891097168309031 0.215942941731958 0.174790527746499 C 0.0 **** 0.0
36 C18176 0.888807154572413 0.209059667599271 0.156655563025348 C 0.0 **** 0.0
37 C18177 0.90568129309583 0.20409366909062 0.148850410383497 C.Trigonal 0.0 **** 0.0
38 C18178 0.918534355785684 0.197574124742878 0.15950789289442 C.Trigonal 0.0 **** 0.0
39 N18184 0.933422691081541 0.192460314190153 0.15327449999369 N 0.0 **** 0.0
40 C18185 0.935594911359401 0.19264108935502 0.136458164297991 C.Trigonal 0.0 **** 0.0
41 C18186 0.923423263533106 0.199275529699248 0.125135178732744 C.Trigonal 0.0 **** 0.0
42 C18187 0.908485251632788 0.205186069465805 0.131639264132916 C.Trigonal 0.0 **** 0.0
43 C18193 0.894662146977136 0.212155595184352 0.120113746534801 C 0.0 **** 0.0
44 C18194 0.900849238678589 0.215820219234541 0.102109057365029 C 0.0 **** 0.0
45 C18195 0.911858205986631 0.201382609193485 0.0956636603928183 C 0.0 **** 0.0
46 C18196 0.927877746507083 0.200506435058898 0.106498313482774 C 0.0 **** 0.0
47 C18202 0.939703319173305 0.185795209264947 0.101287523316049 C 0.0 **** 0.0
48 C18203 0.954241928150108 0.18401646994897 0.113670198128942 C.Trigonal 0.0 **** 0.0
49 C18204 0.95143863674312 0.18672018707359 0.130995083548712 C.Trigonal 0.0 **** 0.0
50 C18209 0.964807808083434 0.184097386177794 0.142566080980628 C 0.0 **** 0.0
51 C18210 0.980512820436037 0.179760119166932 0.136717739555416 C 0.0 **** 0.0
52 C18211 0.983410267144156 0.177359796025191 0.119620798475428 C 0.0 **** 0.0
53 C18212 0.97009670478121 0.179064219501053 0.108156535771961 C 0.0 **** 0.0
54 C18218 0.813881209705434 0.230955359815241 0.283269101976971 C 0.0 **** 0.0
55 C18220 0.798557256262321 0.219902149328994 0.279177807046544 C 0.0 **** 0.0
56 C18222 0.812974220139698 0.229424881380201 0.319744321081234 C 0.0 **** 0.0
57 C18224 0.839642256864021 0.212682560801857 0.264666847861331 C 0.0 **** 0.0
58 C18226 0.83879529899261 0.210771362554695 0.338020721657795 C 0.0 **** 0.0
59 C18228 0.894601182174033 0.181262632025355 0.337292261370353 C 0.0 **** 0.0
60 C18230 0.923329140506709 0.168489911563464 0.31999591745931 C 0.0 **** 0.0
61 O18232 0.93033799916648 0.151454099781156 0.291975344606176 O 0.0 **** 0.0
62 C18234 0.952925200005727 0.108083030775797 0.254596436061913 C 0.0 **** 0.0
63 C18236 0.931704326365063 0.100425339803831 0.224779963636902 C 0.0 **** 0.0
64 O18238 0.941689152505516 0.158847397929115 0.20856217510955 O 0.0 **** 0.0
65 O18240 0.888801392535282 0.194645228427409 0.237085824389537 O 0.0 **** 0.0
66 O18242 0.885717659672243 0.209835845993396 0.209628050034454 O 0.0 **** 0.0
67 O18244 0.938134620998923 0.176988508846128 0.182965399971151 O 0.0 **** 0.0
68 C18246 0.973305850120871 0.175483620439711 0.0896134565628602 C 0.0 **** 0.0
69 C18248 1.00112286751825 0.172706474191359 0.114110561113858 C 0.0 **** 0.0
70 H18250 0.858512500437841 0.183543560033995 0.275403192375888 H 0.0 **** 0.0
71 H18252 0.870383570410638 0.202417410001243 0.273042805838672 H 0.0 **** 0.0
72 H18254 0.871204574482111 0.202813692126804 0.328705333390133 H 0.0 **** 0.0
73 H18256 0.859727944223371 0.183584709072231 0.326819809676269 H 0.0 **** 0.0
74 H18258 0.881436892447896 0.181716383279153 0.259263856564359 H 0.0 **** 0.0
75 H18260 0.929133331047615 0.132773721368533 0.215526704183295 H 0.0 **** 0.0
76 H18262 0.947999120802645 0.131660489690349 0.227562932778849 H 0.0 **** 0.0
77 H18264 0.913438361007045 0.116403421739325 0.236820635531608 H 0.0 **** 0.0
78 H18266 0.927086126844455 0.102274473801792 0.260071613278492 H 0.0 **** 0.0
79 H18268 0.942348867718941 0.130616966622345 0.273589721025557 H 0.0 **** 0.0
80 H18270 0.920625018025805 0.12550446054162 0.274462613045669 H 0.0 **** 0.0
81 H18272 0.878467410634118 0.217874799354749 0.18034216810844 H 0.0 **** 0.0
82 H18274 0.897257656224473 0.228430274024403 0.174418831772934 H 0.0 **** 0.0
83 H18276 0.882143927068272 0.218717238144764 0.149228032852333 H 0.0 **** 0.0
84 H18278 0.880359611239447 0.197958063601577 0.156988137038432 H 0.0 **** 0.0
85 H18280 0.884237450425868 0.202888645873047 0.11950020560017 H 0.0 **** 0.0
86 H18282 0.889311937353577 0.223916980230722 0.125290238346783 H 0.0 **** 0.0
87 H18284 0.908388146253189 0.227561263263189 0.10205019131392 H 0.0 **** 0.0
88 H18286 0.889953800010698 0.218135283753792 0.0937526792699727 H 0.0 **** 0.0
89 H18288 0.915250348553596 0.203251727201094 0.0822764445429272 H 0.0 **** 0.0
90 H18290 0.904825036165159 0.189383871125022 0.0963722263269628 H 0.0 **** 0.0
91 H18292 0.934784995897635 0.212480925830101 0.104512637018238 H 0.0 **** 0.0
92 H18294 0.932432045005179 0.173907158672695 0.100831315236861 H 0.0 **** 0.0
93 H18296 0.94405787994688 0.188153304491237 0.0883057745789242 H 0.0 **** 0.0
94 H18298 0.96282119746101 0.18607217037828 0.156180324688899 H 0.0 **** 0.0
95 H18300 0.990937433701423 0.178045728542306 0.145740818464052 H 0.0 **** 0.0
96 H18302 0.819153714590098 0.235972943739744 0.27145147311723 H 0.0 **** 0.0
97 H18304 0.809753373756215 0.242144407631013 0.290393393459091 H 0.0 **** 0.0
98 H18306 0.792141263170705 0.21562979582363 0.290734053238922 H 0.0 **** 0.0
99 H18308 0.802305180994345 0.208586008902749 0.27202710868052 H 0.0 **** 0.0
100 H18310 0.78922338060966 0.226859362736966 0.271566947706048 H 0.0 **** 0.0
101 H18312 0.800567596599845 0.22387742835986 0.3167928546232 H 0.0 **** 0.0
102 H18314 0.812455561238406 0.24292153765426 0.316427601839905 H 0.0 **** 0.0
103 H18316 0.814312505621473 0.228899109948952 0.33351694389162 H 0.0 **** 0.0
104 H18318 0.845547144351852 0.201451706413987 0.259046475910434 H 0.0 **** 0.0
105 H18320 0.84661319536558 0.223827303908405 0.260016591113744 H 0.0 **** 0.0
106 H18322 0.826886325171722 0.213172851834324 0.259203841551674 H 0.0 **** 0.0
107 H18324 0.840954030794626 0.223367394242784 0.343546267684697 H 0.0 **** 0.0
108 H18326 0.848228774140671 0.202324543792142 0.343640348307499 H 0.0 **** 0.0
109 H18328 0.826437902597709 0.206173529011933 0.342501227780574 H 0.0 **** 0.0
110 H18330 0.901321850303843 0.192738963454892 0.341451764614496 H 0.0 **** 0.0
111 H18332 0.900886790715568 0.170274103347514 0.343049020167996 H 0.0 **** 0.0
112 H18334 0.881960577081591 0.181518001456689 0.343000326801801 H 0.0 **** 0.0
113 H18336 0.923134564377984 0.155015087865867 0.323517064045071 H 0.0 **** 0.0
114 H18338 0.924456198962296 0.175890802241223 0.331679753105817 H 0.0 **** 0.0
115 H18340 0.935113247437608 0.171053208770977 0.31311978887934 H 0.0 **** 0.0
116 H18342 0.93886871284958 0.148141760524279 0.284262277566187 H 0.0 **** 0.0
117 H18344 0.954880925059189 0.0956012625476315 0.248790169098837 H 0.0 **** 0.0
118 H18346 0.957650229456141 0.107337242354694 0.267659957158128 H 0.0 **** 0.0
119 H18348 0.96048674178123 0.117409435440364 0.247657900148671 H 0.0 **** 0.0
120 H18350 0.925946765989421 0.102100974389029 0.212284479266825 H 0.0 **** 0.0
121 H18352 0.926807215418185 0.0886397580238257 0.230236056608933 H 0.0 **** 0.0
122 H18354 0.945438906075091 0.099241930669123 0.22300181773107 H 0.0 **** 0.0
123 H18356 0.944801389244409 0.163908412097975 0.198030890103052 H 0.0 **** 0.0
124 H18358 0.884848870655758 0.202973683056696 0.229257526497531 H 0.0 **** 0.0
125 H18360 0.984254908188798 0.167176819627871 0.087693514211151 H 0.0 **** 0.0
126 H18362 0.975748489467201 0.187208351468474 0.0825126595054585 H 0.0 **** 0.0
127 H18364 0.962561228799162 0.168988691938719 0.0836497894226299 H 0.0 **** 0.0
128 H18366 1.00197110459658 0.159267245309693 0.110550248803779 H 0.0 **** 0.0
129 H18368 1.01035365057092 0.174877892187614 0.124257537005738 H 0.0 **** 0.0
130 H18370 1.00529545851839 0.180332930012371 0.103248236947836 H 0.0 **** 0.0
@<TRIPOS>BOND
1 3 2 Aromatic
2 4 3 Aromatic
3 5 4 Aromatic
4 6 5 Aromatic
5 1 2 Aromatic
6 1 6 Aromatic
7 8 7 1
8 9 8 Aromatic
9 10 9 1
10 4 7 1
11 3 10 1
12 12 11 Aromatic
13 13 12 Aromatic
14 14 13 Aromatic
15 9 11 Aromatic
16 8 14 Aromatic
17 16 15 Aromatic
18 17 16 Aromatic
19 18 17 Aromatic
20 14 15 Aromatic
21 13 18 Aromatic
22 20 19 1
23 21 20 1
24 22 21 Aromatic
25 17 19 1
26 16 22 Aromatic
27 24 23 1
28 25 24 Aromatic
29 26 25 1
30 20 23 1
31 19 26 1
32 28 27 Aromatic
33 29 28 Aromatic
34 30 29 Aromatic
35 22 27 Aromatic
36 21 30 Aromatic
37 32 31 1
38 33 32 Aromatic
39 34 33 1
40 29 31 1
41 28 34 1
42 36 35 1
43 37 36 1
44 38 37 Aromatic
45 33 35 1
46 32 38 Aromatic
47 40 39 Aromatic
48 41 40 Aromatic
49 42 41 Aromatic
50 38 39 Aromatic
51 37 42 Aromatic
52 44 43 1
53 45 44 1
54 46 45 1
55 42 43 1
56 41 46 1
57 48 47 1
58 49 48 Aromatic
59 40 49 Aromatic
60 46 47 1
61 51 50 Aromatic
62 52 51 Aromatic
63 53 52 Aromatic
64 49 50 Aromatic
65 48 53 Aromatic
66 6 54 1
67 54 55 1
68 1 56 1
69 5 57 1
70 2 58 1
71 11 59 1
72 12 60 1
73 18 61 1
74 25 62 1
75 24 63 1
76 30 64 1
77 27 65 1
78 34 66 Double
79 31 67 Double
80 53 68 1
81 52 69 1
82 7 70 1
83 7 71 1
84 10 72 1
85 10 73 1
86 15 74 1
87 23 75 1
88 23 76 1
89 24 77 1
90 25 78 1
91 26 79 1
92 26 80 1
93 35 81 1
94 35 82 1
95 36 83 1
96 36 84 1
97 43 85 1
98 43 86 1
99 44 87 1
100 44 88 1
101 45 89 1
102 45 90 1
103 46 91 1
104 47 92 1
105 47 93 1
106 50 94 1
107 51 95 1
108 54 96 1
109 54 97 1
110 55 98 1
111 55 99 1
112 55 100 1
113 56 101 1
114 56 102 1
115 56 103 1
116 57 104 1
117 57 105 1
118 57 106 1
119 58 107 1
120 58 108 1
121 58 109 1
122 59 110 1
123 59 111 1
124 59 112 1
125 60 113 1
126 60 114 1
127 60 115 1
128 61 116 1
129 62 117 1
130 62 118 1
131 62 119 1
132 63 120 1
133 63 121 1
134 63 122 1
135 64 123 1
136 65 124 1
137 68 125 1
138 68 126 1
139 68 127 1
140 69 128 1
141 69 129 1
142 69 130 1
@<TRIPOS>MOLECULE
Sketch 4
130 142
SMALL
USER_CHARGES


@<TRIPOS>ATOM
1 C18372 0.635370556864427 0.423876332139608 0.780139185649574 C.Trigonal 0.0 **** 0.0
2 C18373 0.623922601502945 0.434699191557451 0.787790774679418 C 0.0 **** 0.0
3 C18374 0.629573994061996 0.449556854882195 0.795132904282513 C.Trigonal 0.0 **** 0.0
4 C18375 0.646382150523138 0.453878410699371 0.794100176533607 C.Trigonal 0.0 **** 0.0
5 C18376 0.657675174681034 0.443623003169553 0.785473873253274 C 0.0 **** 0.0
6 C18377 0.652198482866288 0.428499959573645 0.778606772143355 C 0.0 **** 0.0
7 C18384 0.65241454749185 0.470372450697721 0.801911117197947 C 0.0 **** 0.0
8 C18385 0.641993917424916 0.476804280795739 0.816702898333675 C.Trigonal 0.0 **** 0.0
9 C18386 0.625177502731128 0.472595154802496 0.81776177486722 C.Trigonal 0.0 **** 0.0
10 C18387 0.61736032133108 0.461405452830228 0.804098444148676 C 0.0 **** 0.0
11 C18393 0.614984071578904 0.479067155618447 0.830616235975585 C 0.0 **** 0.0
12 C18394 0.621656949481853 0.489511235065384 0.842936013360699 C 0.0 **** 0.0
13 C18395 0.63918956691023 0.491887911480102 0.843405289675611 C.Trigonal 0.0 **** 0.0
14 C18396 0.648987848724632 0.487271854356927 0.829170563303944 C.Trigonal 0.0 **** 0.0
15 C18402 0.66537615967553 0.493935571839368 0.827693844429273 C 0.0 **** 0.0
16 C18403 0.672785169729638 0.503698665884075 0.840421443171293 C.Trigonal 0.0 **** 0.0
17 C18404 0.664597556437457 0.503200264690095 0.856295375090249 C.Trigonal 0.0 **** 0.0
18 C18405 0.647715881668048 0.498688903748576 0.857745658367498 C 0.0 **** 0.0
19 C18411 0.673686732027158 0.510957217737887 0.8710464260762 C.Trigonal 0.0 **** 0.0
20 C18412 0.684330667775169 0.523988547841517 0.868054516878343 C.Trigonal 0.0 **** 0.0
21 C18413 0.687501972186691 0.529328572240883 0.850067537510034 C.Trigonal 0.0 **** 0.0
22 C18414 0.684995403770085 0.517104121349162 0.83738449909406 C.Trigonal 0.0 **** 0.0
23 C18420 0.696103584520916 0.531174934738322 0.881413787555697 C 0.0 **** 0.0
24 C18421 0.699465943484263 0.517909531615973 0.89526074022482 C 0.0 **** 0.0
25 C18422 0.68263388724938 0.510591157650266 0.902033764969225 C 0.0 **** 0.0
26 C18423 0.67331198388638 0.501221282264219 0.887707097246075 C 0.0 **** 0.0
27 C18429 0.691267640144789 0.520972996775466 0.821104878115728 C 0.0 **** 0.0
28 C18430 0.695822324480838 0.537480265778465 0.817285573373915 C.Trigonal 0.0 **** 0.0
29 C18431 0.695284968267081 0.550088327429773 0.829381685691944 C.Trigonal 0.0 **** 0.0
30 C18432 0.691240994468058 0.546084635293411 0.845998361432038 C 0.0 **** 0.0
31 C18438 0.699613667026334 0.568179462196794 0.824783778285689 C 0.0 **** 0.0
32 C18439 0.704895752192706 0.571675271796621 0.807193511802442 C.Trigonal 0.0 **** 0.0
33 C18440 0.705904058437444 0.559136656669178 0.795599606147568 C.Trigonal 0.0 **** 0.0
34 C18441 0.701458032913168 0.541625395120925 0.799619461507298 C 0.0 **** 0.0
35 C18447 0.711865039473236 0.562598929531666 0.777664488509859 C 0.0 **** 0.0
36 C18448 0.725380818655679 0.576652256895942 0.777977877531805 C 0.0 **** 0.0
37 C18449 0.71837750882278 0.592135205349345 0.786901079574414 C.Trigonal 0.0 **** 0.0
38 C18450 0.708928563811702 0.589545788345976 0.801918808902845 C.Trigonal 0.0 **** 0.0
39 N18456 0.702866037286147 0.60252559217579 0.810895191436778 N 0.0 **** 0.0
40 C18457 0.706101539437215 0.61828305753205 0.805458598873007 C.Trigonal 0.0 **** 0.0
41 C18458 0.714744307501905 0.621701378407629 0.790154758721417 C.Trigonal 0.0 **** 0.0
42 C18459 0.72091128589709 0.608342082639408 0.78096697333884 C.Trigonal 0.0 **** 0.0
43 C18465 0.730729917362165 0.611089406241205 0.764566634011021 C 0.0 **** 0.0
44 C18466 0.729005468249989 0.629068133047191 0.757561414565309 C 0.0 **** 0.0
45 C18467 0.73060483962052 0.642043456966287 0.771707650602816 C 0.0 **** 0.0
46 C18468 0.715838322690132 0.639868320400452 0.784063603397639 C 0.0 **** 0.0
47 C18474 0.716836002420099 0.652246550616239 0.799212918724597 C 0.0 **** 0.0
48 C18475 0.703672479112393 0.648056346979455 0.812535108422904 C.Trigonal 0.0 **** 0.0
49 C18476 0.699227374554309 0.631135315384408 0.815613217886277 C.Trigonal 0.0 **** 0.0
50 C18481 0.68757684958264 0.627319673427344 0.828626070572927 C 0.0 **** 0.0
51 C18482 0.68048304821438 0.640140516133606 0.837818170912697 C 0.0 **** 0.0
52 C18483 0.684824635488705 0.656819058860458 0.834873810304372 C 0.0 **** 0.0
53 C18484 0.696653164548179 0.660721310170244 0.822365050997528 C 0.0 **** 0.0
54 C18490 0.664489840118992 0.416990448953408 0.769345660798812 C 0.0 **** 0.0
55 C18492 0.674918480336867 0.406684191282811 0.782011838949252 C 0.0 **** 0.0
56 C18494 0.629423461757566 0.407096788259288 0.773017697726805 C 0.0 **** 0.0
57 C18496 0.675903646186274 0.449356089933145 0.784080870541704 C 0.0 **** 0.0
58 C18498 0.605279928264526 0.430223962602722 0.788167711232971 C 0.0 **** 0.0
59 C18500 0.596307160287781 0.474501408983365 0.830539665338262 C 0.0 **** 0.0
60 C18502 0.610007778503018 0.49762940680915 0.855682266715386 C 0.0 **** 0.0
61 O18504 0.639057603025471 0.501075918508694 0.872555456183866 O 0.0 **** 0.0
62 C18506 0.670943274657084 0.52413034164363 0.909722954269955 C 0.0 **** 0.0
63 C18508 0.710240662459572 0.525643931366956 0.909495412352318 C 0.0 **** 0.0
64 O18510 0.690805108142701 0.558024587040582 0.858702771904912 O 0.0 **** 0.0
65 O18512 0.691969424485818 0.508415303223222 0.809161221259081 O 0.0 **** 0.0
66 O18514 0.702368375509242 0.530496754447755 0.789072692969062 O 0.0 **** 0.0
67 O18516 0.698685230334423 0.578876704781272 0.835802882159142 O 0.0 **** 0.0
68 C18518 0.701511914777331 0.679075192696388 0.819928552618711 C 0.0 **** 0.0
69 C18520 0.676594645028136 0.670261668563553 0.845689611077664 C 0.0 **** 0.0
70 H18522 0.665444235986418 0.468568181732478 0.806353596537515 H 0.0 **** 0.0
71 H18524 0.652923408181833 0.480092115360703 0.791923185664936 H 0.0 **** 0.0
72 H18526 0.610980036801766 0.469527281513288 0.794670718679889 H 0.0 **** 0.0
73 H18528 0.607490568984995 0.453599189293098 0.809897171667361 H 0.0 **** 0.0
74 H18530 0.671427215471916 0.492256067647761 0.815416779269897 H 0.0 **** 0.0
75 H18532 0.708344883588883 0.534898806092914 0.875862358967329 H 0.0 **** 0.0
76 H18534 0.690553949709557 0.542624280931669 0.887057996976166 H 0.0 **** 0.0
77 H18536 0.706764339221955 0.507445425486193 0.88965279018219 H 0.0 **** 0.0
78 H18538 0.685574543303074 0.501331453632888 0.912018537029281 H 0.0 **** 0.0
79 H18540 0.660537992705637 0.498038130882535 0.892141390731266 H 0.0 **** 0.0
80 H18542 0.679717039279653 0.489021643391255 0.885662833712339 H 0.0 **** 0.0
81 H18544 0.717381628309329 0.551296769699766 0.771599241496772 H 0.0 **** 0.0
82 H18546 0.701068197902605 0.566462932377711 0.769749488158227 H 0.0 **** 0.0
83 H18548 0.729514401611278 0.579191080129391 0.764983610813013 H 0.0 **** 0.0
84 H18550 0.736714006422194 0.572036054241995 0.784720752204775 H 0.0 **** 0.0
85 H18552 0.744237057546963 0.608424791433412 0.766893954827799 H 0.0 **** 0.0
86 H18554 0.726517170056303 0.602222796871916 0.754699236529998 H 0.0 **** 0.0
87 H18556 0.716521087047221 0.63055433485148 0.75152200047016 H 0.0 **** 0.0
88 H18558 0.738467610107564 0.631269920740245 0.747568771586674 H 0.0 **** 0.0
89 H18560 0.730572353270333 0.654922934929277 0.766454145200704 H 0.0 **** 0.0
90 H18562 0.742782131447651 0.64042705201985 0.778314088928089 H 0.0 **** 0.0
91 H18564 0.704060969397482 0.642757171485718 0.777099155329554 H 0.0 **** 0.0
92 H18566 0.729571704083787 0.651716064582888 0.804913340371357 H 0.0 **** 0.0
93 H18568 0.71520655930493 0.665103098238848 0.79419941969573 H 0.0 **** 0.0
94 H18570 0.683926253539992 0.614164049342646 0.831224298100255 H 0.0 **** 0.0
95 H18572 0.671254025490634 0.637178625126346 0.84772841664134 H 0.0 **** 0.0
96 H18574 0.67285134627307 0.424263794475033 0.76092214429855 H 0.0 **** 0.0
97 H18576 0.657925575710383 0.408278949922915 0.760731388584419 H 0.0 **** 0.0
98 H18578 0.666654324756324 0.398806283164749 0.789973264621663 H 0.0 **** 0.0
99 H18580 0.682323909131347 0.414904524508154 0.790446377426094 H 0.0 **** 0.0
100 H18582 0.68384700945537 0.398202547771118 0.775538306935407 H 0.0 **** 0.0
101 H18584 0.617522377974714 0.402714339150993 0.778639109307209 H 0.0 **** 0.0
102 H18586 0.638568844346084 0.396916575818349 0.775500822301989 H 0.0 **** 0.0
103 H18588 0.627593051641198 0.407946914117372 0.759244857501071 H 0.0 **** 0.0
104 H18590 0.676713563765689 0.462536218955396 0.779671167469951 H 0.0 **** 0.0
105 H18592 0.683480349431292 0.441902013919678 0.775233629214144 H 0.0 **** 0.0
106 H18594 0.682297071303086 0.448603460743608 0.796440552781269 H 0.0 **** 0.0
107 H18596 0.60226546411452 0.422003161738441 0.799003973204195 H 0.0 **** 0.0
108 H18598 0.601262183626719 0.423712708785592 0.77656398131766 H 0.0 **** 0.0
109 H18600 0.597167479697807 0.441451615571269 0.788995665426805 H 0.0 **** 0.0
110 H18602 0.589373246914852 0.478559660319337 0.841816986283497 H 0.0 **** 0.0
111 H18604 0.594473969362286 0.460711932667575 0.830220962244287 H 0.0 **** 0.0
112 H18606 0.589848468679266 0.480037938712343 0.819511026652209 H 0.0 **** 0.0
113 H18608 0.608793663940576 0.490002046742525 0.867222612036318 H 0.0 **** 0.0
114 H18610 0.597302600744673 0.499948450256891 0.850642129726855 H 0.0 **** 0.0
115 H18612 0.614626141321973 0.510230603916269 0.859268021034429 H 0.0 **** 0.0
116 H18614 0.645811304084465 0.507929711865544 0.879705057991216 H 0.0 **** 0.0
117 H18616 0.677262620008945 0.53081743000285 0.920139538879673 H 0.0 **** 0.0
118 H18618 0.659518188090627 0.518127703511772 0.914891674730675 H 0.0 **** 0.0
119 H18620 0.667032842746886 0.533427147852336 0.900171991597398 H 0.0 **** 0.0
120 H18622 0.722622381470176 0.529610795080174 0.90455720989575 H 0.0 **** 0.0
121 H18624 0.712407475191525 0.516310736098102 0.919574117506423 H 0.0 **** 0.0
122 H18626 0.704028511170208 0.536781399049794 0.915030174452781 H 0.0 **** 0.0
123 H18628 0.693353513260179 0.568813035784369 0.853811359517426 H 0.0 **** 0.0
124 H18630 0.696538067087692 0.512930385000229 0.798933969857915 H 0.0 **** 0.0
125 H18632 0.701343003813817 0.686017839327341 0.831959774274033 H 0.0 **** 0.0
126 H18634 0.692827385177909 0.68551478473006 0.811156889716739 H 0.0 **** 0.0
127 H18636 0.714390352600548 0.680586678483593 0.815067465794084 H 0.0 **** 0.0
128 H18638 0.685648217084181 0.675742237747394 0.854748353665414 H 0.0 **** 0.0
129 H18640 0.665989699201278 0.665161122634119 0.853070651599081 H 0.0 **** 0.0
130 H18642 0.671450993427898 0.680588204517933 0.837946712700935 H 0.0 **** 0.0
@<TRIPOS>BOND
1 3 2 Aromatic
2 4 3 Aromatic
3 5 4 Aromatic
4 6 5 Aromatic
5 1 2 Aromatic
6 1 6 Aromatic
7 8 7 1
8 9 8 Aromatic
9 10 9 1
10 4 7 1
11 3 10 1
12 12 11 Aromatic
13 13 12 Aromatic
14 14 13 Aromatic
15 9 11 Aromatic
16 8 14 Aromatic
17 16 15 Aromatic
18 17 16 Aromatic
19 18 17 Aromatic
20 14 15 Aromatic
21 13 18 Aromatic
22 20 19 1
23 21 20 1
24 22 21 Aromatic
25 17 19 1
26 16 22 Aromatic
27 24 23 1
28 25 24 Aromatic
29 26 25 1
30 20 23 1
31 19 26 1
32 28 27 Aromatic
33 29 28 Aromatic
34 30 29 Aromatic
35 22 27 Aromatic
36 21 30 Aromatic
37 32 31 1
38 33 32 Aromatic
39 34 33 1
40 29 31 1
41 28 34 1
42 36 35 1
43 37 36 1
44 38 37 Aromatic
45 33 35 1
46 32 38 Aromatic
47 40 39 Aromatic
48 41 40 Aromatic
49 42 41 Aromatic
50 38 39 Aromatic
51 37 42 Aromatic
52 44 43 1
53 45 44 1
54 46 45 1
55 42 43 1
56 41 46 1
57 48 47 1
58 49 48 Aromatic
59 40 49 Aromatic
60 46 47 1
61 51 50 Aromatic
62 52 51 Aromatic
63 53 52 Aromatic
64 49 50 Aromatic
65 48 53 Aromatic
66 6 54 1
67 54 55 1
68 1 56 1
69 5 57 1
70 2 58 1
71 11 59 1
72 12 60 1
73 18 61 1
74 25 62 1
75 24 63 1
76 30 64 1
77 27 65 1
78 34 66 Double
79 31 67 Double
80 53 68 1
81 52 69 1
82 7 70 1
83 7 71 1
84 10 72 1
85 10 73 1
86 15 74 1
87 23 75 1
88 23 76 1
89 24 77 1
90 25 78 1
91 26 79 1
92 26 80 1
93 35 81 1
94 35 82 1
95 36 83 1
96 36 84 1
97 43 85 1
98 43 86 1
99 44 87 1
100 44 88 1
101 45 89 1
102 45 90 1
103 46 91 1
104 47 92 1
105 47 93 1
106 50 94 1
107 51 95 1
108 54 96 1
109 54 97 1
110 55 98 1
111 55 99 1
112 55 100 1
113 56 101 1
114 56 102 1
115 56 103 1
116 57 104 1
117 57 105 1
118 57 106 1
119 58 107 1
120 58 108 1
121 58 109 1
122 59 110 1
123 59 111 1
124 59 112 1
125 60 113 1
126 60 114 1
127 60 115 1
128 61 116 1
129 62 117 1
130 62 118 1
131 62 119 1
132 63 120 1
133 63 121 1
134 63 122 1
135 64 123 1
136 65 124 1
137 68 125 1
138 68 126 1
139 68 127 1
140 69 128 1
141 69 129 1
142 69 130 1
@<TRIPOS>MOLECULE
Sketch 4
130 142
SMALL
USER_CHARGES


@<TRIPOS>ATOM
1 C18644 0.923471678902686 0.608813216325576 0.174193859659099 C.Trigonal 0.0 **** 0.0
2 C18645 0.917629348002641 0.62090411142555 0.162973617768293 C 0.0 **** 0.0
3 C18646 0.919399730436426 0.637891826340379 0.166853102410282 C.Trigonal 0.0 **** 0.0
4 C18647 0.927897846744679 0.642679989410838 0.181242359049351 C.Trigonal 0.0 **** 0.0
5 C18648 0.934823029977602 0.630632388000907 0.191896184233792 C 0.0 **** 0.0
6 C18649 0.932259371800913 0.613661164386722 0.188564745144024 C 0.0 **** 0.0
7 C18656 0.929775766630972 0.661344583895992 0.18526942010157 C 0.0 **** 0.0
8 C18657 0.915561172742118 0.672433073851626 0.178698326882084 C.Trigonal 0.0 **** 0.0
9 C18658 0.907436524333166 0.668050168722038 0.163998390235787 C.Trigonal 0.0 **** 0.0
10 C18659 0.912077540960503 0.651444570112627 0.155299678071522 C 0.0 **** 0.0
11 C18665 0.895492653204807 0.6787888244663 0.156784603036784 C 0.0 **** 0.0
12 C18666 0.890109649880036 0.693222586219982 0.165082177184681 C 0.0 **** 0.0
13 C18667 0.896976465280854 0.696971215421487 0.180972408555852 C.Trigonal 0.0 **** 0.0
14 C18668 0.910986991703401 0.687446417695971 0.186850238340846 C.Trigonal 0.0 **** 0.0
15 C18674 0.920557756314034 0.693917295257494 0.20037876214154 C 0.0 **** 0.0
16 C18675 0.916842221052949 0.709460992457272 0.207624567245321 C.Trigonal 0.0 **** 0.0
17 C18676 0.900015862124883 0.715058424874341 0.205591998121732 C.Trigonal 0.0 **** 0.0
18 C18677 0.890603191241086 0.710139784995758 0.191551231129805 C 0.0 **** 0.0
19 C18683 0.893979841012403 0.728422775874272 0.217734247805865 C.Trigonal 0.0 **** 0.0
20 C18684 0.905676419818067 0.738204794561088 0.22561729355349 C.Trigonal 0.0 **** 0.0
21 C18685 0.924071923920126 0.736909353045269 0.220345931724113 C.Trigonal 0.0 **** 0.0
22 C18686 0.929396538531259 0.72175348302266 0.212574623813724 C.Trigonal 0.0 **** 0.0
23 C18692 0.901333542159546 0.749318584642202 0.240721341666238 C 0.0 **** 0.0
24 C18693 0.885116475179731 0.743046875648889 0.24945802728032 C 0.0 **** 0.0
25 C18694 0.870743502724345 0.740893714757992 0.236390353085196 C 0.0 **** 0.0
26 C18695 0.875653339046846 0.726937760689595 0.223716316166785 C 0.0 **** 0.0
27 C18701 0.946413733460605 0.720735743571576 0.206716795977347 C 0.0 **** 0.0
28 C18702 0.957006206245423 0.734560370807685 0.20825079638944 C.Trigonal 0.0 **** 0.0
29 C18703 0.951518478884795 0.749282656016936 0.215849953197376 C.Trigonal 0.0 **** 0.0
30 C18704 0.935024227092693 0.750617228355432 0.221781190053479 C 0.0 **** 0.0
31 C18710 0.963249349730684 0.764331914539956 0.217410848947245 C 0.0 **** 0.0
32 C18711 0.980318358764303 0.762988532033776 0.209956509153731 C.Trigonal 0.0 **** 0.0
33 C18712 0.985516397795039 0.748629196994656 0.202246706334562 C.Trigonal 0.0 **** 0.0
34 C18713 0.974646167177834 0.733591881642487 0.201056920453891 C 0.0 **** 0.0
35 C18719 1.00293915552518 0.74734916869899 0.194261694575925 C 0.0 **** 0.0
36 C18720 1.01590139299771 0.758178509953729 0.204070499733303 C 0.0 **** 0.0
37 C18721 1.00930173803273 0.775972541992429 0.207098334303368 C.Trigonal 0.0 **** 0.0
38 C18722 0.991915529758545 0.778091691215085 0.210778354687873 C.Trigonal 0.0 **** 0.0
39 N18728 0.985764224357552 0.793087383471503 0.215472411583192 N 0.0 **** 0.0
40 C18729 0.996212765371075 0.806446843996071 0.216176584986556 C.Trigonal 0.0 **** 0.0
41 C18730 1.01327268426806 0.805529206558402 0.211038719072635 C.Trigonal 0.0 **** 0.0
42 C18731 1.01980598078946 0.789923933151825 0.206998645004474 C.Trigonal 0.0 **** 0.0
43 C18737 1.03855721200498 0.787506108065915 0.203004330477919 C 0.0 **** 0.0
44 C18738 1.04845632338629 0.804109102839024 0.201619097302754 C 0.0 **** 0.0
45 C18739 1.04228677654765 0.816739947152546 0.214801677762447 C 0.0 **** 0.0
46 C18740 1.02397549873771 0.821419221230874 0.210416040066081 C 0.0 **** 0.0
47 C18746 1.01692798402301 0.836698794671583 0.221205920261696 C 0.0 **** 0.0
48 C18747 0.999742369812375 0.834003227165151 0.229268891460722 C.Trigonal 0.0 **** 0.0
49 C18748 0.989292772402193 0.820424751456673 0.224781470639802 C.Trigonal 0.0 **** 0.0
50 C18753 0.973153964576475 0.819089358012782 0.232307123631427 C 0.0 **** 0.0
51 C18754 0.969062204059689 0.829218140859472 0.245742609317145 C 0.0 **** 0.0
52 C18755 0.980071532088569 0.841614723564273 0.251329469857867 C 0.0 **** 0.0
53 C18756 0.995096976590778 0.844487183913483 0.242579410736557 C 0.0 **** 0.0
54 C18762 0.938730391290277 0.600320273712761 0.200739396524892 C 0.0 **** 0.0
55 C18764 0.926212375932122 0.598545085201243 0.215428340819385 C 0.0 **** 0.0
56 C18766 0.92057742083476 0.590154418835299 0.170976619933911 C 0.0 **** 0.0
57 C18768 0.944534642131716 0.636534101963844 0.207330643276962 C 0.0 **** 0.0
58 C18770 0.908959179186093 0.615821686231047 0.146671137474898 C 0.0 **** 0.0
59 C18772 0.888124575937908 0.674494149321192 0.139563091726595 C 0.0 **** 0.0
60 C18774 0.876640280491467 0.704102370131377 0.156972352896942 C 0.0 **** 0.0
61 O18776 0.875790295737402 0.718041363938138 0.187459140262523 O 0.0 **** 0.0
62 C18778 0.866441906191623 0.757384711588778 0.226901784318787 C 0.0 **** 0.0
63 C18780 0.880112794475031 0.755184651738733 0.263806127623011 C 0.0 **** 0.0
64 O18782 0.928952071331203 0.765415595969507 0.228685068725883 O 0.0 **** 0.0
65 O18784 0.951751900864878 0.706305210841626 0.198769028498792 O 0.0 **** 0.0
66 O18786 0.979451190438352 0.72066330758786 0.194250097769965 O 0.0 **** 0.0
67 O18788 0.95805282714794 0.776804221403021 0.224776172413626 O 0.0 **** 0.0
68 C18790 1.00656412259854 0.858789711426712 0.248200729979692 C 0.0 **** 0.0
69 C18792 0.974748670456091 0.851308769739373 0.266870276205459 C 0.0 **** 0.0
70 H18794 0.930236891115601 0.662674018167073 0.199066571505242 H 0.0 **** 0.0
71 H18796 0.942007737048955 0.666025768659679 0.180381999032348 H 0.0 **** 0.0
72 H18798 0.920930445490181 0.65394263064222 0.14477980297866 H 0.0 **** 0.0
73 H18800 0.900468607326824 0.646219477449942 0.149738765978784 H 0.0 **** 0.0
74 H18802 0.93237996876466 0.687478415468764 0.203569754661639 H 0.0 **** 0.0
75 H18804 0.911634884983128 0.749211269046284 0.250120114138677 H 0.0 **** 0.0
76 H18806 0.899604068500596 0.76251510178963 0.236657706916168 H 0.0 **** 0.0
77 H18808 0.887693034583674 0.730592263965229 0.255157187897578 H 0.0 **** 0.0
78 H18810 0.859261051807033 0.736737038415359 0.243097522429423 H 0.0 **** 0.0
79 H18812 0.866334405963947 0.727120935343426 0.213424770105683 H 0.0 **** 0.0
80 H18814 0.874111006266458 0.714582078496033 0.230011430258573 H 0.0 **** 0.0
81 H18816 1.00761817258863 0.734197947781066 0.193845848750324 H 0.0 **** 0.0
82 H18818 1.00226058206149 0.75168626195727 0.181032223208063 H 0.0 **** 0.0
83 H18820 1.02787137578195 0.758022101325259 0.19703130429115 H 0.0 **** 0.0
84 H18822 1.01859132486598 0.752100166551656 0.216361028765667 H 0.0 **** 0.0
85 H18824 1.044244838273 0.779801247309649 0.213160139332667 H 0.0 **** 0.0
86 H18826 1.04018566615056 0.780350139535777 0.191162481812904 H 0.0 **** 0.0
87 H18828 1.04656698495505 0.809636212625353 0.188945657114249 H 0.0 **** 0.0
88 H18830 1.06212933742881 0.801706175289472 0.20275290037971 H 0.0 **** 0.0
89 H18832 1.05030367136591 0.828109499688716 0.214968914070956 H 0.0 **** 0.0
90 H18834 1.04311600265494 0.811181068799193 0.227541488035656 H 0.0 **** 0.0
91 H18836 1.02410319558076 0.825874053899534 0.19715576733522 H 0.0 **** 0.0
92 H18838 1.0263865337116 0.839866302697974 0.230910233023871 H 0.0 **** 0.0
93 H18840 1.01625789411275 0.847919065269425 0.212946729745567 H 0.0 **** 0.0
94 H18842 0.964639255638345 0.808602717189861 0.229065955964547 H 0.0 **** 0.0
95 H18844 0.956961060875986 0.8274128304045 0.252292972731414 H 0.0 **** 0.0
96 H18846 0.951441757517525 0.603331577118244 0.205494494495491 H 0.0 **** 0.0
97 H18848 0.940443205329731 0.588026998785378 0.19450416098984 H 0.0 **** 0.0
98 H18850 0.913683205441868 0.594596017546226 0.210837521122214 H 0.0 **** 0.0
99 H18852 0.924639488641516 0.610593730144518 0.22220441157203 H 0.0 **** 0.0
100 H18854 0.930439348435476 0.589127767127484 0.224730761492623 H 0.0 **** 0.0
101 H18856 0.91148945318636 0.587464945500601 0.160883994405545 H 0.0 **** 0.0
102 H18858 0.915557055027392 0.583782834354456 0.182280458770294 H 0.0 **** 0.0
103 H18860 0.932527876661911 0.58394695376983 0.167585741397852 H 0.0 **** 0.0
104 H18862 0.935788508455537 0.640697922622264 0.217343575293797 H 0.0 **** 0.0
105 H18864 0.952929365722299 0.647209616121117 0.204303367539437 H 0.0 **** 0.0
106 H18866 0.952750453408152 0.626862413071512 0.212833737970951 H 0.0 **** 0.0
107 H18868 0.911220477490168 0.625029003077568 0.136525201448654 H 0.0 **** 0.0
108 H18870 0.895194159033378 0.614613583318135 0.148366935889042 H 0.0 **** 0.0
109 H18872 0.913699728380427 0.603782019626692 0.14171602989969 H 0.0 **** 0.0
110 H18874 0.888852194537695 0.685354675265799 0.130890037435547 H 0.0 **** 0.0
111 H18876 0.874772716346263 0.670668131942976 0.140631553040004 H 0.0 **** 0.0
112 H18878 0.894861467385215 0.664327838320751 0.133013188895827 H 0.0 **** 0.0
113 H18880 0.864740825065929 0.702876395867825 0.164012792765285 H 0.0 **** 0.0
114 H18882 0.873737616625765 0.700973246859522 0.14381976667515 H 0.0 **** 0.0
115 H18884 0.880303012841823 0.717530461019489 0.156915910880753 H 0.0 **** 0.0
116 H18886 0.874520602177785 0.727623114387273 0.194520723441195 H 0.0 **** 0.0
117 H18888 0.862415243316813 0.767205870010668 0.235837014258843 H 0.0 **** 0.0
118 H18890 0.855961440586282 0.755226513865938 0.218017771576876 H 0.0 **** 0.0
119 H18892 0.877320668569102 0.762077384935277 0.219641413604556 H 0.0 **** 0.0
120 H18894 0.890015999033901 0.755495934535494 0.27356837030028 H 0.0 **** 0.0
121 H18896 0.868265838477978 0.751055311770343 0.269805615871516 H 0.0 **** 0.0
122 H18898 0.87838289180113 0.76809249588516 0.259027823136864 H 0.0 **** 0.0
123 H18900 0.937919681343941 0.773508562512723 0.228876288737307 H 0.0 **** 0.0
124 H18902 0.963166346307913 0.707701126142408 0.195091072360973 H 0.0 **** 0.0
125 H18904 1.01474442801032 0.854838863452063 0.258765061549663 H 0.0 **** 0.0
126 H18906 0.999305306274026 0.869867533438798 0.252340469608776 H 0.0 **** 0.0
127 H18908 1.01479000739939 0.863442975384739 0.238034712754234 H 0.0 **** 0.0
128 H18910 0.985108892381099 0.858385539936375 0.272752511286363 H 0.0 **** 0.0
129 H18912 0.969867650679025 0.842658646834125 0.276628303621177 H 0.0 **** 0.0
130 H18914 0.964547072892585 0.860232322661907 0.26379496641546 H 0.0 **** 0.0
@<TRIPOS>BOND
1 3 2 Aromatic
2 4 3 Aromatic
3 5 4 Aromatic
4 6 5 Aromatic
5 1 2 Aromatic
6 1 6 Aromatic
7 8 7 1
8 9 8 Aromatic
9 10 9 1
10 4 7 1
11 3 10 1
12 12 11 Aromatic
13 13 12 Aromatic
14 14 13 Aromatic
15 9 11 Aromatic
16 8 14 Aromatic
17 16 15 Aromatic
18 17 16 Aromatic
19 18 17 Aromatic
20 14 15 Aromatic
21 13 18 Aromatic
22 20 19 1
23 21 20 1
24 22 21 Aromatic
25 17 19 1
26 16 22 Aromatic
27 24 23 1
28 25 24 Aromatic
29 26 25 1
30 20 23 1
31 19 26 1
32 28 27 Aromatic
33 29 28 Aromatic
34 30 29 Aromatic
35 22 27 Aromatic
36 21 30 Aromatic
37 32 31 1
38 33 32 Aromatic
39 34 33 1
40 29 31 1
41 28 34 1
42 36 35 1
43 37 36 1
44 38 37 Aromatic
45 33 35 1
46 32 38 Aromatic
47 40 39 Aromatic
48 41 40 Aromatic
49 42 41 Aromatic
50 38 39 Aromatic
51 37 42 Aromatic
52 44 43 1
53 45 44 1
54 46 45 1
55 42 43 1
56 41 46 1
57 48 47 1
58 49 48 Aromatic
59 40 49 Aromatic
60 46 47 1
61 51 50 Aromatic
62 52 51 Aromatic
63 53 52 Aromatic
64 49 50 Aromatic
65 48 53 Aromatic
66 6 54 1
67 54 55 1
68 1 56 1
69 5 57 1
70 2 58 1
71 11 59 1
72 12 60 1
73 18 61 1
74 25 62 1
75 24 63 1
76 30 64 1
77 27 65 1
78 34 66 Double
79 31 67 Double
80 53 68 1
81 52 69 1
82 7 70 1
83 7 71 1
84 10 72 1
85 10 73 1
86 15 74 1
87 23 75 1
88 23 76 1
89 24 77 1
90 25 78 1
91 26 79 1
92 26 80 1
93 35 81 1
94 35 82 1
95 36 83 1
96 36 84 1
97 43 85 1
98 43 86 1
99 44 87 1
100 44 88 1
101 45 89 1
102 45 90 1
103 46 91 1
104 47 92 1
105 47 93 1
106 50 94 1
107 51 95 1
108 54 96 1
109 54 97 1
110 55 98 1
111 55 99 1
112 55 100 1
113 56 101 1
114 56 102 1
115 56 103 1
116 57 104 1
117 57 105 1
118 57 106 1
119 58 107 1
120 58 108 1
121 58 109 1
122 59 110 1
123 59 111 1
124 59 112 1
125 60 113 1
126 60 114 1
127 60 115 1
128 61 116 1
129 62 117 1
130 62 118 1
131 62 119 1
132 63 120 1
133 63 121 1
134 63 122 1
135 64 123 1
136 65 124 1
137 68 125 1
138 68 126 1
139 68 127 1
140 69 128 1
141 69 129 1
142 69 130 1
@<TRIPOS>MOLECULE
Sketch 4
130 142
SMALL
USER_CHARGES


@<TRIPOS>ATOM
1 C18916 0.726307307016687 0.580179221777412 0.627367211306985 C.Trigonal 0.0 **** 0.0
2 C18917 0.734673182235152 0.595344087048382 0.629879651129699 C 0.0 **** 0.0
3 C18918 0.74819398479611 0.596214011376719 0.640965211960433 C.Trigonal 0.0 **** 0.0
4 C18919 0.753789013918869 0.581846987426134 0.648992939606953 C.Trigonal 0.0 **** 0.0
5 C18920 0.745094901371707 0.566744080658321 0.646937356507941 C 0.0 **** 0.0
6 C18921 0.731114941010224 0.565995342333904 0.636366405976104 C 0.0 **** 0.0
7 C18928 0.769323343312107 0.582488058721841 0.660347603999988 C 0.0 **** 0.0
8 C18929 0.778429448460096 0.599322030502607 0.662401548481766 C.Trigonal 0.0 **** 0.0
9 C18930 0.772145436736916 0.613822066185302 0.655243555271028 C.Trigonal 0.0 **** 0.0
10 C18931 0.756486074745263 0.613254790613003 0.6440964327727 C 0.0 **** 0.0
11 C18937 0.779639205834857 0.629438630784063 0.658455138089707 C 0.0 **** 0.0
12 C18938 0.794390621615092 0.630665286929712 0.667845094712618 C 0.0 **** 0.0
13 C18939 0.802730813785891 0.615708145688033 0.672127948053282 C.Trigonal 0.0 **** 0.0
14 C18940 0.793805642464631 0.600227763020476 0.671314104951676 C.Trigonal 0.0 **** 0.0
15 C18946 0.80152297299089 0.585726554347097 0.677690114809941 C 0.0 **** 0.0
16 C18947 0.819118910523456 0.584497063812479 0.679860951858124 C.Trigonal 0.0 **** 0.0
17 C18948 0.828440313023582 0.599558798695098 0.676959503551378 C.Trigonal 0.0 **** 0.0
18 C18949 0.820442463249585 0.61510916966412 0.674819718739376 C 0.0 **** 0.0
19 C18955 0.847450860739377 0.598468149633284 0.677558015036198 C.Trigonal 0.0 **** 0.0
20 C18956 0.855020869280257 0.585643524317447 0.685987720935998 C.Trigonal 0.0 **** 0.0
21 C18957 0.844172925054347 0.571450507389536 0.692907932689179 C.Trigonal 0.0 **** 0.0
22 C18958 0.827558796564395 0.569762673021444 0.686629428408007 C.Trigonal 0.0 **** 0.0
23 C18964 0.87414467130074 0.582644649719426 0.685180958223393 C 0.0 **** 0.0
24 C18965 0.883769782930277 0.596131437414498 0.674882939881575 C 0.0 **** 0.0
25 C18966 0.873514251714316 0.602159385326531 0.659467970031015 C 0.0 **** 0.0
26 C18967 0.857293495989336 0.610511059806557 0.666179239050635 C 0.0 **** 0.0
27 C18973 0.819054295954283 0.554331369202046 0.689998359870583 C 0.0 **** 0.0
28 C18974 0.825315415339074 0.543445301552504 0.702236850964999 C.Trigonal 0.0 **** 0.0
29 C18975 0.84037229545 0.546870512607583 0.710370212844489 C.Trigonal 0.0 **** 0.0
30 C18976 0.849977201761567 0.560799970503482 0.705713138897473 C 0.0 **** 0.0
31 C18982 0.847081258437718 0.535106182421065 0.723840202073598 C 0.0 **** 0.0
32 C18983 0.837303451033728 0.519747830858248 0.727662161109195 C.Trigonal 0.0 **** 0.0
33 C18984 0.822538867393644 0.51634276784174 0.719750342739224 C.Trigonal 0.0 **** 0.0
34 C18985 0.815627103458597 0.527603108454075 0.706606686745346 C 0.0 **** 0.0
35 C18991 0.812608862341086 0.500472001991313 0.724028182588257 C 0.0 **** 0.0
36 C18992 0.814747694430125 0.4957374990598 0.742951973220474 C 0.0 **** 0.0
37 C18993 0.83324445503643 0.496001588225213 0.748401475152831 C.Trigonal 0.0 **** 0.0
38 C18994 0.844305854700914 0.507652036095197 0.740543171786257 C.Trigonal 0.0 **** 0.0
39 N19000 0.860788398562597 0.508201055013862 0.744370296542183 N 0.0 **** 0.0
40 C19001 0.866460158662182 0.498534476100957 0.757013214751404 C.Trigonal 0.0 **** 0.0
41 C19002 0.856020608837223 0.486953732923335 0.76581285630468 C.Trigonal 0.0 **** 0.0
42 C19003 0.83937402604364 0.485686257860937 0.7611293951006 C.Trigonal 0.0 **** 0.0
43 C19009 0.827371714130145 0.473659346606211 0.770197748858807 C 0.0 **** 0.0
44 C19010 0.836471225241099 0.460819361534512 0.781523837452353 C 0.0 **** 0.0
45 C19011 0.850865118332778 0.469032789623789 0.791398859210235 C 0.0 **** 0.0
46 C19012 0.86419869349785 0.47575255214379 0.779106363741545 C 0.0 **** 0.0
47 C19018 0.878372546241734 0.485607398636613 0.788355521975367 C 0.0 **** 0.0
48 C19019 0.890274642605475 0.493657515973762 0.775653137045534 C.Trigonal 0.0 **** 0.0
49 C19020 0.883855465144879 0.499999917458312 0.760370693128837 C.Trigonal 0.0 **** 0.0
50 C19025 0.894945758756732 0.507792748332852 0.74873284393299 C 0.0 **** 0.0
51 C19026 0.911749281248215 0.509312988924155 0.752616006551626 C 0.0 **** 0.0
52 C19027 0.918003381443285 0.503710929735459 0.767983675003265 C 0.0 **** 0.0
53 C19028 0.90715288487105 0.496066724089307 0.779611714562089 C 0.0 **** 0.0
54 C19034 0.721080720830894 0.549709947248332 0.634693792172057 C 0.0 **** 0.0
55 C19036 0.704831479593588 0.550881033734968 0.645194335088533 C 0.0 **** 0.0
56 C19038 0.711614787684071 0.579923085178964 0.615074274007578 C 0.0 **** 0.0
57 C19040 0.750647454853758 0.550918654504506 0.656269121009134 C 0.0 **** 0.0
58 C19042 0.728882092009315 0.610896690559831 0.620265626149587 C 0.0 **** 0.0
59 C19044 0.771772226805658 0.645592893592392 0.65162665279489 C 0.0 **** 0.0
60 C19046 0.801581000667048 0.648127765459045 0.671171826901004 C 0.0 **** 0.0
61 O19048 0.830189572434426 0.629422627034548 0.674559291601392 O 0.0 **** 0.0
62 C19050 0.869401915043965 0.5878636711853 0.646835175874608 C 0.0 **** 0.0
63 C19052 0.901297090971188 0.589435478773779 0.669702811049628 C 0.0 **** 0.0
64 O19054 0.865208860318277 0.564349773896945 0.713325153021761 O 0.0 **** 0.0
65 O19056 0.804476764621307 0.55055798545701 0.681350492341453 O 0.0 **** 0.0
66 O19058 0.802547247934791 0.524377714247242 0.699158345480288 O 0.0 **** 0.0
67 O19060 0.860200125459162 0.538853966630079 0.730973785659569 O 0.0 **** 0.0
68 C19062 0.913880180048092 0.490416183466647 0.796647425077487 C 0.0 **** 0.0
69 C19064 0.936569665324255 0.506409803283111 0.771561039960102 C 0.0 **** 0.0
70 H19066 0.765621760908918 0.578107346941437 0.673073609580323 H 0.0 **** 0.0
71 H19068 0.778502723638328 0.573199084403432 0.655422713977763 H 0.0 **** 0.0
72 H19070 0.759831954154386 0.618637416690576 0.631682118925172 H 0.0 **** 0.0
73 H19072 0.746866843813845 0.621655534559976 0.649743960212899 H 0.0 **** 0.0
74 H19074 0.793371999194709 0.574735610545985 0.679351347942301 H 0.0 **** 0.0
75 H19076 0.879809284271922 0.582693782660954 0.69786618294295 H 0.0 **** 0.0
76 H19078 0.876550518918042 0.570090123481804 0.679621564944612 H 0.0 **** 0.0
77 H19080 0.885777192264401 0.607171651170522 0.683144906311151 H 0.0 **** 0.0
78 H19082 0.880905664605698 0.611840147977616 0.652727318685541 H 0.0 **** 0.0
79 H19084 0.849723528394705 0.614596946394708 0.655228009001329 H 0.0 **** 0.0
80 H19086 0.860680619500718 0.621969283677408 0.673326607266868 H 0.0 **** 0.0
81 H19088 0.798987319069912 0.501878824913283 0.721306379536768 H 0.0 **** 0.0
82 H19090 0.817137870011368 0.489974402020705 0.71605479509144 H 0.0 **** 0.0
83 H19092 0.808971385374177 0.483238742246439 0.744766404084837 H 0.0 **** 0.0
84 H19094 0.807336143194881 0.504561369695734 0.750800223346786 H 0.0 **** 0.0
85 H19096 0.818542716832211 0.481154620633095 0.777972395352466 H 0.0 **** 0.0
86 H19098 0.819606527505174 0.466663822028936 0.761042616173021 H 0.0 **** 0.0
87 H19100 0.841770004447132 0.450608868222728 0.77362809681142 H 0.0 **** 0.0
88 H19102 0.827272996240765 0.454824092718658 0.79009120704167 H 0.0 **** 0.0
89 H19104 0.856649813096122 0.459904119886427 0.800207776419342 H 0.0 **** 0.0
90 H19106 0.846022947221116 0.479520256685313 0.799175243569565 H 0.0 **** 0.0
91 H19108 0.870061448906862 0.464805422410254 0.772651782325702 H 0.0 **** 0.0
92 H19110 0.872732642955556 0.495490033539997 0.796450956387184 H 0.0 **** 0.0
93 H19112 0.885010661198591 0.476815590058181 0.796831648331299 H 0.0 **** 0.0
94 H19114 0.890122113027216 0.512736356798002 0.73667511769631 H 0.0 **** 0.0
95 H19116 0.920344821190087 0.515394338497933 0.743551495683024 H 0.0 **** 0.0
96 H19118 0.728376052520129 0.538633293820497 0.638769054642102 H 0.0 **** 0.0
97 H19120 0.717891333407154 0.546980680549455 0.621447328650059 H 0.0 **** 0.0
98 H19122 0.696603144516951 0.561169675601965 0.640729143846111 H 0.0 **** 0.0
99 H19124 0.707740891423748 0.553317484614454 0.658578814394387 H 0.0 **** 0.0
100 H19126 0.697476238756124 0.539090536272311 0.644522768489002 H 0.0 **** 0.0
101 H19128 0.700701739090264 0.586655360405893 0.620485534704079 H 0.0 **** 0.0
102 H19130 0.707252136934317 0.567260147837925 0.611603488350001 H 0.0 **** 0.0
103 H19132 0.714948587310132 0.58617152585689 0.603088178430681 H 0.0 **** 0.0
104 H19134 0.740198355619727 0.54570204377952 0.66386246219176 H 0.0 **** 0.0
105 H19136 0.761143227641811 0.55292915985006 0.665081602553794 H 0.0 **** 0.0
106 H19138 0.754812078309361 0.541066643186351 0.647352147512351 H 0.0 **** 0.0
107 H19140 0.734207158126958 0.611022011173541 0.607403761910709 H 0.0 **** 0.0
108 H19142 0.732524655044486 0.622816557587593 0.626322409401823 H 0.0 **** 0.0
109 H19144 0.715052308975317 0.611316921171142 0.619013335171006 H 0.0 **** 0.0
110 H19146 0.766392964190253 0.653332197112926 0.66184153438125 H 0.0 **** 0.0
111 H19148 0.761549171095348 0.643535714373093 0.642508826016767 H 0.0 **** 0.0
112 H19150 0.781258001654858 0.65336875820656 0.645031456310616 H 0.0 **** 0.0
113 H19152 0.80993751705271 0.652315538054443 0.660835021611916 H 0.0 **** 0.0
114 H19154 0.808539588106271 0.648741037787191 0.683204295835599 H 0.0 **** 0.0
115 H19156 0.791631410348554 0.657748792529121 0.672473978673332 H 0.0 **** 0.0
116 H19158 0.823387501582326 0.638474997043417 0.670720536476487 H 0.0 **** 0.0
117 H19160 0.8810754801681 0.582311632511453 0.641731588300726 H 0.0 **** 0.0
118 H19162 0.862113862337315 0.592903223472047 0.636126331677924 H 0.0 **** 0.0
119 H19164 0.861959806218739 0.577751159253978 0.652792504084148 H 0.0 **** 0.0
120 H19166 0.908824790829653 0.586398263091557 0.680995618022669 H 0.0 **** 0.0
121 H19168 0.908187457601898 0.599012433591261 0.662341132024475 H 0.0 **** 0.0
122 H19170 0.900180446044401 0.577903982928155 0.662020498572575 H 0.0 **** 0.0
123 H19172 0.867258511291233 0.556096873176336 0.721911279536395 H 0.0 **** 0.0
124 H19174 0.800306699571973 0.539952765635733 0.685368718563829 H 0.0 **** 0.0
125 H19176 0.905414614651885 0.494309841961203 0.806984518508774 H 0.0 **** 0.0
126 H19178 0.926270732704336 0.495895369873376 0.79962730280606 H 0.0 **** 0.0
127 H19180 0.915255463675459 0.476563109443396 0.797190565291461 H 0.0 **** 0.0
128 H19182 0.938412896392056 0.51566736865447 0.781803471507857 H 0.0 **** 0.0
129 H19184 0.943309820390777 0.51127363407972 0.760437970692995 H 0.0 **** 0.0
130 H19186 0.942833789852453 0.494539638973207 0.775223182675103 H 0.0 **** 0.0
@<TRIPOS>BOND
1 3 2 Aromatic
2 4 3 Aromatic
3 5 4 Aromatic
4 6 5 Aromatic
5 1 2 Aromatic
6 1 6 Aromatic
7 8 7 1
8 9 8 Aromatic
9 10 9 1
10 4 7 1
11 3 10 1
12 12 11 Aromatic
13 13 12 Aromatic
14 14 13 Aromatic
15 9 11 Aromatic
16 8 14 Aromatic
17 16 15 Aromatic
18 17 16 Aromatic
19 18 17 Aromatic
20 14 15 Aromatic
21 13 18 Aromatic
22 20 19 1
23 21 20 1
24 22 21 Aromatic
25 17 19 1
26 16 22 Aromatic
27 24 23 1
28 25 24 Aromatic
29 26 25 1
30 20 23 1
31 19 26 1
32 28 27 Aromatic
33 29 28 Aromatic
34 30 29 Aromatic
35 22 27 Aromatic
36 21 30 Aromatic
37 32 31 1
38 33 32 Aromatic
39 34 33 1
40 29 31 1
41 28 34 1
42 36 35 1
43 37 36 1
44 38 37 Aromatic
45 33 35 1
46 32 38 Aromatic
47 40 39 Aromatic
48 41 40 Aromatic
49 42 41 Aromatic
50 38 39 Aromatic
51 37 42 Aromatic
52 44 43 1
53 45 44 1
54 46 45 1
55 42 43 1
56 41 46 1
57 48 47 1
58 49 48 Aromatic
59 40 49 Aromatic
60 46 47 1
61 51 50 Aromatic
62 52 51 Aromatic
63 53 52 Aromatic
64 49 50 Aromatic
65 48 53 Aromatic
66 6 54 1
67 54 55 1
68 1 56 1
69 5 57 1
70 2 58 1
71 11 59 1
72 12 60 1
73 18 61 1
74 25 62 1
75 24 63 1
76 30 64 1
77 27 65 1
78 34 66 Double
79 31 67 Double
80 53 68 1
81 52 69 1
82 7 70 1
83 7 71 1
84 10 72 1
85 10 73 1
86 15 74 1
87 23 75 1
88 23 76 1
89 24 77 1
90 25 78 1
91 26 79 1
92 26 80 1
93 35 81 1
94 35 82 1
95 36 83 1
96 36 84 1
97 43 85 1
98 43 86 1
99 44 87 1
100 44 88 1
101 45 89 1
102 45 90 1
103 46 91 1
104 47 92 1
105 47 93 1
106 50 94 1
107 51 95 1
108 54 96 1
109 54 97 1
110 55 98 1
111 55 99 1
112 55 100 1
113 56 101 1
114 56 102 1
115 56 103 1
116 57 104 1
117 57 105 1
118 57 106 1
119 58 107 1
120 58 108 1
121 58 109 1
122 59 110 1
123 59 111 1
124 59 112 1
125 60 113 1
126 60 114 1
127 60 115 1
128 61 116 1
129 62 117 1
130 62 118 1
131 62 119 1
132 63 120 1
133 63 121 1
134 63 122 1
135 64 123 1
136 65 124 1
137 68 125 1
138 68 126 1
139 68 127 1
140 69 128 1
141 69 129 1
142 69 130 1
@<TRIPOS>MOLECULE
Sketch 4
130 142
SMALL
USER_CHARGES


@<TRIPOS>ATOM
1 C19188 0.0808939389645709 0.232269063130945 0.202310140741178 C.Trigonal 0.0 **** 0.0
2 C19189 0.071063056189517 0.245096193201019 0.209074839291414 C 0.0 **** 0.0
3 C19190 0.0671210403403516 0.244612129289601 0.226043666446848 C.Trigonal 0.0 **** 0.0
4 C19191 0.073648020221567 0.232008554014226 0.236227325925954 C.Trigonal 0.0 **** 0.0
5 C19192 0.0839514946100753 0.219559226375393 0.229717324316196 C 0.0 **** 0.0
6 C19193 0.0874872028006865 0.219665385948388 0.212601335782703 C 0.0 **** 0.0
7 C19200 0.0680603055972011 0.232447085423507 0.254495136620833 C 0.0 **** 0.0
8 C19201 0.0490036813216745 0.23326929559065 0.254227309053715 C.Trigonal 0.0 **** 0.0
9 C19202 0.0422962225345114 0.246059143968779 0.244420471213729 C.Trigonal 0.0 **** 0.0
10 C19203 0.0549491889953851 0.256758048243537 0.234611187598668 C 0.0 **** 0.0
11 C19209 0.0250014479144367 0.248880623971595 0.243576695097941 C 0.0 **** 0.0
12 C19210 0.0139967178595228 0.237800509642781 0.251511801440151 C 0.0 **** 0.0
13 C19211 0.0206265855361696 0.222693621489157 0.257942245031166 C.Trigonal 0.0 **** 0.0
14 C19212 0.0381083698578805 0.221478242796048 0.261644821232193 C.Trigonal 0.0 **** 0.0
15 C19218 0.0439589212740457 0.207285873456509 0.270358989573455 C 0.0 **** 0.0
16 C19219 0.0342599740649609 0.192525300874865 0.271892014552721 C.Trigonal 0.0 **** 0.0
17 C19220 0.0186333293336109 0.192443479261338 0.263026441656471 C.Trigonal 0.0 **** 0.0
18 C19221 0.0110855346808982 0.207478159152556 0.257780811577339 C 0.0 **** 0.0
19 C19227 0.00957100192573318 0.175714283522112 0.261372102952911 C.Trigonal 0.0 **** 0.0
20 C19228 0.0127967048656317 0.163590001227202 0.272975018249315 C.Trigonal 0.0 **** 0.0
21 C19229 0.0249468617023778 0.167263787469506 0.287085991370612 C.Trigonal 0.0 **** 0.0
22 C19230 0.0377286544387966 0.179226792574686 0.284083260656028 C.Trigonal 0.0 **** 0.0
23 C19236 0.00691144100711753 0.145403115297301 0.271240107577381 C 0.0 **** 0.0
24 C19237 0.00299912649530691 0.141345885285772 0.252613821402735 C 0.0 **** 0.0
25 C19238 -0.00903890185887252 0.154787162618815 0.245152498682405 C 0.0 **** 0.0
26 C19239 -6.39456663548347e-05 0.172088340888218 0.244983605743728 C 0.0 **** 0.0
27 C19245 0.0510227689355965 0.179787027142657 0.296103870692744 C 0.0 **** 0.0
28 C19246 0.048684282244151 0.172396735445171 0.311888460983149 C.Trigonal 0.0 **** 0.0
29 C19247 0.0335356319692533 0.164694220278702 0.315957393571828 C.Trigonal 0.0 **** 0.0
30 C19248 0.0219031322822873 0.161175025570894 0.303346236289445 C 0.0 **** 0.0
31 C19254 0.0296769578600719 0.159465068252288 0.333837259107002 C 0.0 **** 0.0
32 C19255 0.0435673459476938 0.160419406900517 0.346063922219394 C.Trigonal 0.0 **** 0.0
33 C19256 0.059299640884098 0.165391693594049 0.341562467781146 C.Trigonal 0.0 **** 0.0
34 C19257 0.0628520395600174 0.172421317739035 0.324644718290532 C 0.0 **** 0.0
35 C19263 0.0738738295150272 0.163227694152765 0.353992801093665 C 0.0 **** 0.0
36 C19264 0.0703866734132305 0.14734393047038 0.365121239185237 C 0.0 **** 0.0
37 C19265 0.0534200846421844 0.149260848199418 0.373920556183821 C.Trigonal 0.0 **** 0.0
38 C19266 0.040022875630224 0.155790539602176 0.364073828110607 C.Trigonal 0.0 **** 0.0
39 N19272 0.0249033442662684 0.159376929177054 0.370715416949951 N 0.0 **** 0.0
40 C19273 0.0222268684426914 0.155481371434026 0.386974755299621 C.Trigonal 0.0 **** 0.0
41 C19274 0.0348195153689678 0.148070958793117 0.397390352840052 C.Trigonal 0.0 **** 0.0
42 C19275 0.0504797758453099 0.144972280981408 0.390581640687138 C.Trigonal 0.0 **** 0.0
43 C19281 0.0643614398170379 0.136556420400516 0.400988325939231 C 0.0 **** 0.0
44 C19282 0.0604453047365527 0.135611213279601 0.419965840509885 C 0.0 **** 0.0
45 C19283 0.041948989872073 0.131051088047084 0.423036651534023 C 0.0 **** 0.0
46 C19284 0.0309231678285771 0.145314732877529 0.416009394746244 C 0.0 **** 0.0
47 C19290 0.0118041680496852 0.142148440653637 0.418285269352896 C 0.0 **** 0.0
48 C19291 0.0020940282180487 0.156363647725033 0.40990397324711 C.Trigonal 0.0 **** 0.0
49 C19292 0.00682826217223598 0.161383927409028 0.393565696705132 C.Trigonal 0.0 **** 0.0
50 C19297 -0.00251865313405382 0.174149718784773 0.385255176900068 C 0.0 **** 0.0
51 C19298 -0.0151614595164967 0.182376833673624 0.393775399539846 C 0.0 **** 0.0
52 C19299 -0.0196446476703595 0.177697735324347 0.410047151700622 C 0.0 **** 0.0
53 C19300 -0.0111371498361873 0.164432868013627 0.41799514402778 C 0.0 **** 0.0
54 C19306 0.0983659977006548 0.205821319833862 0.205056820094096 C 0.0 **** 0.0
55 C19308 0.0875404896324011 0.190239762299312 0.201088812743257 C 0.0 **** 0.0
56 C19310 0.0842802362825437 0.231910850061004 0.183465168105274 C 0.0 **** 0.0
57 C19312 0.0903936865873288 0.205990690187665 0.241608673579792 C 0.0 **** 0.0
58 C19314 0.0641939655875783 0.259051684125864 0.197897377745989 C 0.0 **** 0.0
59 C19316 0.0186956849838928 0.26413070697893 0.233810848402452 C 0.0 **** 0.0
60 C19318 -0.00477344948470354 0.241536145302185 0.251152305601759 C 0.0 **** 0.0
61 O19320 -0.00523473600750312 0.207208756942974 0.252016698870261 O 0.0 **** 0.0
62 C19322 -0.0259735064060509 0.156098394794137 0.254757043139141 C 0.0 **** 0.0
63 C19324 -0.00440815445013373 0.123464334330371 0.251029904654267 C 0.0 **** 0.0
64 O19326 0.00760594182833501 0.151691459323724 0.306247986933646 O 0.0 **** 0.0
65 O19328 0.0656867857508399 0.188355417315635 0.29241033285892 O 0.0 **** 0.0
66 O19330 0.0767312051933762 0.177611530969022 0.320527149164448 O 0.0 **** 0.0
67 O19332 0.0154299962239756 0.154805640152912 0.33727576746919 O 0.0 **** 0.0
68 C19334 -0.0162434785158347 0.159011586522787 0.435621120232898 C 0.0 **** 0.0
69 C19336 -0.0338523879104806 0.187311492076141 0.418494590471768 C 0.0 **** 0.0
70 H19338 0.0729577362272668 0.221899376242861 0.261898212600269 H 0.0 **** 0.0
71 H19340 0.0732601254535445 0.243895886016589 0.260520179751436 H 0.0 **** 0.0
72 H19342 0.0618152453090682 0.265344593780178 0.243239272222478 H 0.0 **** 0.0
73 H19344 0.048637972316234 0.264946136206522 0.225476050305467 H 0.0 **** 0.0
74 H19346 0.0568551156878381 0.207713733207327 0.275224406279502 H 0.0 **** 0.0
75 H19348 0.0167003659731026 0.136558651445184 0.27573014921918 H 0.0 **** 0.0
76 H19350 -0.00443201964402531 0.143231465995264 0.27900930384957 H 0.0 **** 0.0
77 H19352 0.0148976200659776 0.141692205996659 0.245369041718825 H 0.0 **** 0.0
78 H19354 -0.0119098725420557 0.15132117108413 0.231971046432402 H 0.0 **** 0.0
79 H19356 -0.00967256632812009 0.181620394900631 0.241970756141006 H 0.0 **** 0.0
80 H19358 0.009032001543141 0.172247381096315 0.23442235955302 H 0.0 **** 0.0
81 H19360 0.0860832180285296 0.161494570187672 0.347440228938269 H 0.0 **** 0.0
82 H19362 0.0752881998476574 0.174485120272413 0.362038973444875 H 0.0 **** 0.0
83 H19364 0.080856748459875 0.14563266448477 0.374027037878925 H 0.0 **** 0.0
84 H19366 0.0703780526769967 0.135907960579004 0.357112863869644 H 0.0 **** 0.0
85 H19368 0.0663366368538365 0.12358327173496 0.396247827995272 H 0.0 **** 0.0
86 H19370 0.0764393675830286 0.143131813049092 0.399289364228627 H 0.0 **** 0.0
87 H19372 0.0630006862386342 0.147998503621252 0.425842914226945 H 0.0 **** 0.0
88 H19374 0.0690269622149725 0.126501659770589 0.426096309663471 H 0.0 **** 0.0
89 H19376 0.0394688635818305 0.12929094707901 0.436636349209861 H 0.0 **** 0.0
90 H19378 0.0388416052172683 0.118977054471286 0.416801900805862 H 0.0 **** 0.0
91 H19380 0.0341576472195345 0.156997628938842 0.423008337796576 H 0.0 **** 0.0
92 H19382 0.00838268945772557 0.129966869635576 0.412422162542573 H 0.0 **** 0.0
93 H19384 0.00901700758727704 0.140965532216732 0.431829927303222 H 0.0 **** 0.0
94 H19386 0.00109550683478663 0.178404983917581 0.37253119330737 H 0.0 **** 0.0
95 H19388 -0.021931660989347 0.192791920725479 0.387548270503173 H 0.0 **** 0.0
96 H19390 0.108600174786658 0.202331477641964 0.213769087704147 H 0.0 **** 0.0
97 H19392 0.10494310099383 0.210137840323171 0.193599444051109 H 0.0 **** 0.0
98 H19394 0.0775706263411675 0.19326021946659 0.191863435529598 H 0.0 **** 0.0
99 H19396 0.0813194618950684 0.185402475932094 0.21256125783743 H 0.0 **** 0.0
100 H19398 0.0952060503713626 0.179888100127057 0.195833610032703 H 0.0 **** 0.0
101 H19400 0.0743764399287903 0.23830436630374 0.17612860072223 H 0.0 **** 0.0
102 H19402 0.0845223101770455 0.218930762431803 0.178586990245218 H 0.0 **** 0.0
103 H19404 0.0964409390785503 0.237930944957418 0.180382350541126 H 0.0 **** 0.0
104 H19406 0.0980357084466098 0.211588866375365 0.251807423116626 H 0.0 **** 0.0
105 H19408 0.0982516669969256 0.196294591644969 0.235643646014791 H 0.0 **** 0.0
106 H19410 0.0797565906008748 0.199186037731461 0.247505120947769 H 0.0 **** 0.0
107 H19412 0.0623909652716552 0.27096101930867 0.204808871590116 H 0.0 **** 0.0
108 H19414 0.051933095289875 0.255477485489414 0.192329872797828 H 0.0 **** 0.0
109 H19416 0.0728458083502169 0.262227049254181 0.18750196815761 H 0.0 **** 0.0
110 H19418 0.0049719542360482 0.265917137136658 0.234220821702574 H 0.0 **** 0.0
111 H19420 0.0220159707929755 0.263096528150612 0.22031365694351 H 0.0 **** 0.0
112 H19422 0.0243860436997858 0.275869454356547 0.238705146275393 H 0.0 **** 0.0
113 H19424 -0.0104496212182855 0.23871955139442 0.238749433242033 H 0.0 **** 0.0
114 H19426 -0.0072684251419728 0.254934231035913 0.253975985494113 H 0.0 **** 0.0
115 H19428 -0.0117576290451211 0.234643542423945 0.260982360357298 H 0.0 **** 0.0
116 H19430 -0.0069052885367687 0.217101296250458 0.245453681228416 H 0.0 **** 0.0
117 H19432 -0.0326269783269707 0.14392234022977 0.254694377603525 H 0.0 **** 0.0
118 H19434 -0.0342481329191628 0.165483447832343 0.248676657859011 H 0.0 **** 0.0
119 H19436 -0.0240195512545379 0.159991261347642 0.267938139315009 H 0.0 **** 0.0
120 H19438 0.00531504634697411 0.113962261640883 0.253823887733957 H 0.0 **** 0.0
121 H19440 -0.00903727746322119 0.12119666252352 0.238117688806858 H 0.0 **** 0.0
122 H19442 -0.014883125959157 0.121682590397256 0.259966055372033 H 0.0 **** 0.0
123 H19444 0.00501062696038304 0.151722702220018 0.31808552255625 H 0.0 **** 0.0
124 H19446 0.0739203970380083 0.18556400915838 0.300827122522484 H 0.0 **** 0.0
125 H19448 -0.0281204969213311 0.164783500059283 0.439845607326057 H 0.0 **** 0.0
126 H19450 -0.00648025198777117 0.16248354029001 0.444934762803419 H 0.0 **** 0.0
127 H19452 -0.0181718375214517 0.145247501153586 0.436346432243169 H 0.0 **** 0.0
128 H19454 -0.0449484719892478 0.179171794312951 0.420626153215932 H 0.0 **** 0.0
129 H19456 -0.0380875895856386 0.198026974335681 0.410738820017069 H 0.0 **** 0.0
130 H19458 -0.0298958019242942 0.192541165887791 0.430770753916208 H 0.0 **** 0.0
@<TRIPOS>BOND
1 3 2 Aromatic
2 4 3 Aromatic
3 5 4 Aromatic
4 6 5 Aromatic
5 1 2 Aromatic
6 1 6 Aromatic
7 8 7 1
8 9 8 Aromatic
9 10 9 1
10 4 7 1
11 3 10 1
12 12 11 Aromatic
13 13 12 Aromatic
14 14 13 Aromatic
15 9 11 Aromatic
16 8 14 Aromatic
17 16 15 Aromatic
18 17 16 Aromatic
19 18 17 Aromatic
20 14 15 Aromatic
21 13 18 Aromatic
22 20 19 1
23 21 20 1
24 22 21 Aromatic
25 17 19 1
26 16 22 Aromatic
27 24 23 1
28 25 24 Aromatic
29 26 25 1
30 20 23 1
31 19 26 1
32 28 27 Aromatic
33 29 28 Aromatic
34 30 29 Aromatic
35 22 27 Aromatic
36 21 30 Aromatic
37 32 31 1
38 33 32 Aromatic
39 34 33 1
40 29 31 1
41 28 34 1
42 36 35 1
43 37 36 1
44 38 37 Aromatic
45 33 35 1
46 32 38 Aromatic
47 40 39 Aromatic
48 41 40 Aromatic
49 42 41 Aromatic
50 38 39 Aromatic
51 37 42 Aromatic
52 44 43 1
53 45 44 1
54 46 45 1
55 42 43 1
56 41 46 1
57 48 47 1
58 49 48 Aromatic
59 40 49 Aromatic
60 46 47 1
61 51 50 Aromatic
62 52 51 Aromatic
63 53 52 Aromatic
64 49 50 Aromatic
65 48 53 Aromatic
66 6 54 1
67 54 55 1
68 1 56 1
69 5 57 1
70 2 58 1
71 11 59 1
72 12 60 1
73 18 61 1
74 25 62 1
75 24 63 1
76 30 64 1
77 27 65 1
78 34 66 Double
79 31 67 Double
80 53 68 1
81 52 69 1
82 7 70 1
83 7 71 1
84 10 72 1
85 10 73 1
86 15 74 1
87 23 75 1
88 23 76 1
89 24 77 1
90 25 78 1
91 26 79 1
92 26 80 1
93 35 81 1
94 35 82 1
95 36 83 1
96 36 84 1
97 43 85 1
98 43 86 1
99 44 87 1
100 44 88 1
101 45 89 1
102 45 90 1
103 46 91 1
104 47 92 1
105 47 93 1
106 50 94 1
107 51 95 1
108 54 96 1
109 54 97 1
110 55 98 1
111 55 99 1
112 55 100 1
113 56 101 1
114 56 102 1
115 56 103 1
116 57 104 1
117 57 105 1
118 57 106 1
119 58 107 1
120 58 108 1
121 58 109 1
122 59 110 1
123 59 111 1
124 59 112 1
125 60 113 1
126 60 114 1
127 60 115 1
128 61 116 1
129 62 117 1
130 62 118 1
131 62 119 1
132 63 120 1
133 63 121 1
134 63 122 1
135 64 123 1
136 65 124 1
137 68 125 1
138 68 126 1
139 68 127 1
140 69 128 1
141 69 129 1
142 69 130 1
@<TRIPOS>MOLECULE
Sketch 4
130 142
SMALL
USER_CHARGES


@<TRIPOS>ATOM
1 C19460 0.14630672384636 0.419589989876854 0.680921646092866 C.Trigonal 0.0 **** 0.0
2 C19461 0.158890428379365 0.416270787716748 0.692633089511715 C 0.0 **** 0.0
3 C19462 0.163014878473951 0.399720670964382 0.696629932461953 C.Trigonal 0.0 **** 0.0
4 C19463 0.154700445659511 0.386540166896715 0.688945090191083 C.Trigonal 0.0 **** 0.0
5 C19464 0.14238562081868 0.389824636127187 0.676904826884077 C 0.0 **** 0.0
6 C19465 0.138370569480114 0.406356330680943 0.672709774907632 C 0.0 **** 0.0
7 C19472 0.159098973918565 0.368285215343289 0.693247720568694 C 0.0 **** 0.0
8 C19473 0.17210748820089 0.364975177200491 0.707029915074241 C.Trigonal 0.0 **** 0.0
9 C19474 0.18017905471814 0.378180810707649 0.714794621999936 C.Trigonal 0.0 **** 0.0
10 C19475 0.176880915405339 0.396399962398298 0.709454031422392 C 0.0 **** 0.0
11 C19481 0.191576092457923 0.37537435121618 0.727894767550911 C 0.0 **** 0.0
12 C19482 0.195375206453895 0.359284905522646 0.733504205410248 C 0.0 **** 0.0
13 C19483 0.188135172464611 0.345531733635822 0.725029505194381 C.Trigonal 0.0 **** 0.0
14 C19484 0.176020253015525 0.348401798873333 0.71206452976148 C.Trigonal 0.0 **** 0.0
15 C19490 0.168465005119722 0.334477942388799 0.704124344242159 C 0.0 **** 0.0
16 C19491 0.171910232113891 0.317695628324066 0.708606794943657 C.Trigonal 0.0 **** 0.0
17 C19492 0.183422702551983 0.315334586291659 0.722125827848417 C.Trigonal 0.0 **** 0.0
18 C19493 0.192505909101959 0.328580701956829 0.729010129817687 C 0.0 **** 0.0
19 C19499 0.187108095325536 0.297531628580848 0.727695374747662 C.Trigonal 0.0 **** 0.0
20 C19500 0.18479911275703 0.284657763395737 0.716675036164735 C.Trigonal 0.0 **** 0.0
21 C19501 0.176912020567268 0.288394079016284 0.699741763700325 C.Trigonal 0.0 **** 0.0
22 C19502 0.167347396363958 0.303320299942875 0.698207524142873 C.Trigonal 0.0 **** 0.0
23 C19508 0.18527306626434 0.26613743539389 0.722104286223785 C 0.0 **** 0.0
24 C19509 0.192683951037019 0.263762902934348 0.739911493595443 C 0.0 **** 0.0
25 C19510 0.184931536754567 0.277113491029715 0.75186468421022 C 0.0 **** 0.0
26 C19511 0.190742266963622 0.294830831470862 0.746420757941685 C 0.0 **** 0.0
27 C19517 0.156370893389143 0.304446495666717 0.684098631202471 C 0.0 **** 0.0
28 C19518 0.15839065593255 0.293308168040866 0.670675126113691 C.Trigonal 0.0 **** 0.0
29 C19519 0.171031913436696 0.281230983173573 0.670905977110249 C.Trigonal 0.0 **** 0.0
30 C19520 0.180317176628508 0.27848726436918 0.68554513195554 C 0.0 **** 0.0
31 C19526 0.174399986358281 0.270262122622754 0.655657263734076 C 0.0 **** 0.0
32 C19527 0.162701989580448 0.27167816295558 0.641262168670465 C.Trigonal 0.0 **** 0.0
33 C19528 0.149580034334035 0.282664998104756 0.641450368941698 C.Trigonal 0.0 **** 0.0
34 C19529 0.146657885836132 0.294359590271219 0.655693747509273 C 0.0 **** 0.0
35 C19535 0.137132165227571 0.282988711377967 0.626797972980191 C 0.0 **** 0.0
36 C19536 0.13444369307315 0.264726961939097 0.620200006241077 C 0.0 **** 0.0
37 C19537 0.151274580929194 0.256385737647769 0.615937487341894 C.Trigonal 0.0 **** 0.0
38 C19538 0.165350468844807 0.260184559050097 0.626301694835594 C.Trigonal 0.0 **** 0.0
39 N19544 0.180536142168603 0.253218061617997 0.623555632953317 N 0.0 **** 0.0
40 C19545 0.181960769983195 0.241549298195908 0.611350968999412 C.Trigonal 0.0 **** 0.0
41 C19546 0.168420398084269 0.237169848916668 0.600485588130831 C.Trigonal 0.0 **** 0.0
42 C19547 0.153066377638421 0.244853809678229 0.602932180497029 C.Trigonal 0.0 **** 0.0
43 C19553 0.13776258844223 0.240309767449228 0.592123494032045 C 0.0 **** 0.0
44 C19554 0.142068446259694 0.229730486017113 0.576445785922885 C 0.0 **** 0.0
45 C19555 0.155234466969997 0.21635545377958 0.58066034743259 C 0.0 **** 0.0
46 C19556 0.171729805867935 0.224834529413464 0.586148326423306 C 0.0 **** 0.0
47 C19562 0.185142415567825 0.211575159130368 0.591427502106285 C 0.0 **** 0.0
48 C19563 0.200293492364476 0.219852360316891 0.5997804320306 C.Trigonal 0.0 **** 0.0
49 C19564 0.198146134677961 0.234347289334217 0.609788104645161 C.Trigonal 0.0 **** 0.0
50 C19569 0.212262182782766 0.241266487783336 0.618283019655603 C 0.0 **** 0.0
51 C19570 0.227781528910551 0.233733078688613 0.616751330051517 C 0.0 **** 0.0
52 C19571 0.229897637429375 0.219268931556361 0.607108719057478 C 0.0 **** 0.0
53 C19572 0.216053235010159 0.212300397467468 0.598696309244176 C 0.0 **** 0.0
54 C19578 0.125474385844641 0.409940429635532 0.658938067323347 C 0.0 **** 0.0
55 C19580 0.107718506889634 0.411783544115624 0.666421449546883 C 0.0 **** 0.0
56 C19582 0.141832650565821 0.43782269272537 0.676960503224083 C 0.0 **** 0.0
57 C19584 0.133497673037304 0.375391476092548 0.667930956355128 C 0.0 **** 0.0
58 C19586 0.168042418196414 0.43100212315166 0.70084952587127 C 0.0 **** 0.0
59 C19588 0.199788896018876 0.390472538992561 0.736405290477019 C 0.0 **** 0.0
60 C19590 0.207363251574374 0.357512656174879 0.748421577529813 C 0.0 **** 0.0
61 O19592 0.205707715163011 0.325461763640006 0.73984731484783 O 0.0 **** 0.0
62 C19594 0.189552062114527 0.273882577716002 0.770482844783286 C 0.0 **** 0.0
63 C19596 0.21211838375249 0.264727797782279 0.738806777154936 C 0.0 **** 0.0
64 O19598 0.192563232058487 0.266195845751335 0.686644765155063 O 0.0 **** 0.0
65 O19600 0.144300155951784 0.316929825510662 0.683809821749747 O 0.0 **** 0.0
66 O19602 0.134989248636786 0.304392476872963 0.655888689253147 O 0.0 **** 0.0
67 O19604 0.18638910201679 0.260627422617841 0.656070980596998 O 0.0 **** 0.0
68 C19606 0.218284977262359 0.196264423294292 0.588446168499889 C 0.0 **** 0.0
69 C19608 0.247286147514311 0.211329852002147 0.606519516868554 C 0.0 **** 0.0
70 H19610 0.14731770217488 0.361920484076644 0.697200316240572 H 0.0 **** 0.0
71 H19612 0.163381270816581 0.362041932608481 0.681520309658259 H 0.0 **** 0.0
72 H19614 0.188764093277374 0.401578424707038 0.704240285819688 H 0.0 **** 0.0
73 H19616 0.1739029441714 0.403780092272435 0.720909620825341 H 0.0 **** 0.0
74 H19618 0.160269252253819 0.337156714400765 0.693329472780754 H 0.0 **** 0.0
75 H19620 0.172235763587206 0.261350438114335 0.722078300203223 H 0.0 **** 0.0
76 H19622 0.192499152784862 0.258007553913052 0.713483532906099 H 0.0 **** 0.0
77 H19624 0.189176620456738 0.251083998188151 0.744480145100171 H 0.0 **** 0.0
78 H19626 0.171055107855834 0.27642531006732 0.750765712303793 H 0.0 **** 0.0
79 H19628 0.204314114792756 0.296168747297594 0.749139683675427 H 0.0 **** 0.0
80 H19630 0.183999909606679 0.304230422234406 0.754227459938648 H 0.0 **** 0.0
81 H19632 0.124748395348206 0.288304224742363 0.630438982499991 H 0.0 **** 0.0
82 H19634 0.142057543398235 0.291088459819749 0.616587656345906 H 0.0 **** 0.0
83 H19636 0.125863442698701 0.265176340776249 0.609309523012643 H 0.0 **** 0.0
84 H19638 0.127832473366163 0.257227641075222 0.62995770021083 H 0.0 **** 0.0
85 H19640 0.128694176720567 0.233173277355138 0.599985175065526 H 0.0 **** 0.0
86 H19642 0.131222419215732 0.251821476671083 0.587946139599539 H 0.0 **** 0.0
87 H19644 0.146995778915653 0.237975761828896 0.566355744340167 H 0.0 **** 0.0
88 H19646 0.130515594602954 0.223832963757185 0.57135577643948 H 0.0 **** 0.0
89 H19648 0.157520031408073 0.208028373482065 0.569715883710309 H 0.0 **** 0.0
90 H19650 0.150410951551803 0.208300533321709 0.590953565725318 H 0.0 **** 0.0
91 H19652 0.176785733991784 0.231931710343332 0.575213967387063 H 0.0 **** 0.0
92 H19654 0.179400788275387 0.202471601923959 0.600327891314158 H 0.0 **** 0.0
93 H19656 0.188738007734535 0.204344767635967 0.58010793558508 H 0.0 **** 0.0
94 H19658 0.210833910001989 0.252582821206052 0.626220909324329 H 0.0 **** 0.0
95 H19660 0.238702892076373 0.239152967528847 0.623409871699345 H 0.0 **** 0.0
96 H19662 0.125439041713106 0.399894358393171 0.649324260772564 H 0.0 **** 0.0
97 H19664 0.128833152506657 0.421460769232476 0.651881064691239 H 0.0 **** 0.0
98 H19666 0.107258505197709 0.422021640862111 0.675820014637088 H 0.0 **** 0.0
99 H19668 0.103688699928841 0.400064203736214 0.672726286549727 H 0.0 **** 0.0
100 H19670 0.0983177986828175 0.414726512666962 0.656601511199898 H 0.0 **** 0.0
101 H19672 0.150411362092644 0.443092773430969 0.667329898107785 H 0.0 **** 0.0
102 H19674 0.142633157122827 0.445918142904415 0.688234057823564 H 0.0 **** 0.0
103 H19676 0.128856552006561 0.439347303629501 0.672302496393875 H 0.0 **** 0.0
104 H19678 0.134849500020853 0.363138407755288 0.674254677659614 H 0.0 **** 0.0
105 H19680 0.138476054200515 0.373856179120958 0.655020457466754 H 0.0 **** 0.0
106 H19682 0.119807389138204 0.377602751734226 0.667026222258658 H 0.0 **** 0.0
107 H19684 0.179653771149995 0.427373236914788 0.707476244845404 H 0.0 **** 0.0
108 H19686 0.159892739304007 0.437427051415873 0.710130954751078 H 0.0 **** 0.0
109 H19688 0.171883004539213 0.440436169067552 0.691363538094267 H 0.0 **** 0.0
110 H19690 0.213122631502862 0.387940761914393 0.739276413836227 H 0.0 **** 0.0
111 H19692 0.193340851782515 0.393701503313192 0.74832225044351 H 0.0 **** 0.0
112 H19694 0.19986653305839 0.40190758155978 0.728603572318183 H 0.0 **** 0.0
113 H19696 0.202768018098419 0.348158519123623 0.757628442872862 H 0.0 **** 0.0
114 H19698 0.208772617155992 0.369092528708663 0.755906722460686 H 0.0 **** 0.0
115 H19700 0.220119320395343 0.353722506215394 0.744293588611285 H 0.0 **** 0.0
116 H19702 0.209123119177021 0.314106959957989 0.738091182449214 H 0.0 **** 0.0
117 H19704 0.185547673351394 0.261137571472328 0.774323722579381 H 0.0 **** 0.0
118 H19706 0.183089864797894 0.283066838269751 0.778691696874117 H 0.0 **** 0.0
119 H19708 0.203236001655527 0.275099255378621 0.772534005210199 H 0.0 **** 0.0
120 H19710 0.217088090222661 0.253790673614494 0.731788996589143 H 0.0 **** 0.0
121 H19712 0.21772468777128 0.264664631870595 0.751444179061456 H 0.0 **** 0.0
122 H19714 0.216291198908849 0.27624401641801 0.732231401307043 H 0.0 **** 0.0
123 H19716 0.193599174541831 0.260703445864773 0.675929040572353 H 0.0 **** 0.0
124 H19718 0.137357834817457 0.315405384847536 0.674035756976604 H 0.0 **** 0.0
125 H19720 0.208168786500636 0.187080864372928 0.591071511678647 H 0.0 **** 0.0
126 H19722 0.230182635990971 0.18969848646568 0.59121209974874 H 0.0 **** 0.0
127 H19724 0.218171805593761 0.199013669093682 0.574783907517273 H 0.0 **** 0.0
128 H19726 0.247612705668807 0.199420444824858 0.613738079124289 H 0.0 **** 0.0
129 H19728 0.256923162471048 0.219700055098873 0.611980366389466 H 0.0 **** 0.0
130 H19730 0.251274639010457 0.208536733555279 0.593497208653455 H 0.0 **** 0.0
@<TRIPOS>BOND
1 3 2 Aromatic
2 4 3 Aromatic
3 5 4 Aromatic
4 6 5 Aromatic
5 1 2 Aromatic
6 1 6 Aromatic
7 8 7 1
8 9 8 Aromatic
9 10 9 1
10 4 7 1
11 3 10 1
12 12 11 Aromatic
13 13 12 Aromatic
14 14 13 Aromatic
15 9 11 Aromatic
16 8 14 Aromatic
17 16 15 Aromatic
18 17 16 Aromatic
19 18 17 Aromatic
20 14 15 Aromatic
21 13 18 Aromatic
22 20 19 1
23 21 20 1
24 22 21 Aromatic
25 17 19 1
26 16 22 Aromatic
27 24 23 1
28 25 24 Aromatic
29 26 25 1
30 20 23 1
31 19 26 1
32 28 27 Aromatic
33 29 28 Aromatic
34 30 29 Aromatic
35 22 27 Aromatic
36 21 30 Aromatic
37 32 31 1
38 33 32 Aromatic
39 34 33 1
40 29 31 1
41 28 34 1
42 36 35 1
43 37 36 1
44 38 37 Aromatic
45 33 35 1
46 32 38 Aromatic
47 40 39 Aromatic
48 41 40 Aromatic
49 42 41 Aromatic
50 38 39 Aromatic
51 37 42 Aromatic
52 44 43 1
53 45 44 1
54 46 45 1
55 42 43 1
56 41 46 1
57 48 47 1
58 49 48 Aromatic
59 40 49 Aromatic
60 46 47 1
61 51 50 Aromatic
62 52 51 Aromatic
63 53 52 Aromatic
64 49 50 Aromatic
65 48 53 Aromatic
66 6 54 1
67 54 55 1
68 1 56 1
69 5 57 1
70 2 58 1
71 11 59 1
72 12 60 1
73 18 61 1
74 25 62 1
75 24 63 1
76 30 64 1
77 27 65 1
78 34 66 Double
79 31 67 Double
80 53 68 1
81 52 69 1
82 7 70 1
83 7 71 1
84 10 72 1
85 10 73 1
86 15 74 1
87 23 75 1
88 23 76 1
89 24 77 1
90 25 78 1
91 26 79 1
92 26 80 1
93 35 81 1
94 35 82 1
95 36 83 1
96 36 84 1
97 43 85 1
98 43 86 1
99 44 87 1
100 44 88 1
101 45 89 1
102 45 90 1
103 46 91 1
104 47 92 1
105 47 93 1
106 50 94 1
107 51 95 1
108 54 96 1
109 54 97 1
110 55 98 1
111 55 99 1
112 55 100 1
113 56 101 1
114 56 102 1
115 56 103 1
116 57 104 1
117 57 105 1
118 57 106 1
119 58 107 1
120 58 108 1
121 58 109 1
122 59 110 1
123 59 111 1
124 59 112 1
125 60 113 1
126 60 114 1
127 60 115 1
128 61 116 1
129 62 117 1
130 62 118 1
131 62 119 1
132 63 120 1
133 63 121 1
134 63 122 1
135 64 123 1
136 65 124 1
137 68 125 1
138 68 126 1
139 68 127 1
140 69 128 1
141 69 129 1
142 69 130 1
@<TRIPOS>MOLECULE
Sketch 4
130 142
SMALL
USER_CHARGES


@<TRIPOS>ATOM
1 C19732 0.0634399391332299 0.0779599793829698 0.389399231487036 C.Trigonal 0.0 **** 0.0
2 C19733 0.057957284982181 0.0867823354988213 0.375311652647251 C 0.0 **** 0.0
3 C19734 0.0657779412490909 0.0840842433481287 0.359906763986672 C.Trigonal 0.0 **** 0.0
4 C19735 0.0781471220260956 0.0719510191658447 0.358368890850387 C.Trigonal 0.0 **** 0.0
5 C19736 0.0828169479076048 0.0622367062001545 0.372158805861398 C 0.0 **** 0.0
6 C19737 0.0754681476962782 0.0653071402811547 0.387749097354306 C 0.0 **** 0.0
7 C19744 0.0860315812746569 0.0694119949043013 0.34102809677851 C 0.0 **** 0.0
8 C19745 0.088470680154525 0.0859131324842674 0.331516131240018 C.Trigonal 0.0 **** 0.0
9 C19746 0.0760314624026905 0.0980380791704529 0.332782256570023 C.Trigonal 0.0 **** 0.0
10 C19747 0.06101419406867 0.094167422392355 0.344241101377333 C 0.0 **** 0.0
11 C19753 0.0769351117443961 0.112854988662059 0.32335367227075 C 0.0 **** 0.0
12 C19754 0.0912152267741346 0.116639898384246 0.313920882298412 C 0.0 **** 0.0
13 C19755 0.104968341521566 0.105521884897366 0.31466003466614 C.Trigonal 0.0 **** 0.0
14 C19756 0.102608278428459 0.0891342989160137 0.321347677218046 C.Trigonal 0.0 **** 0.0
15 C19762 0.114810653917924 0.0768051957670828 0.31794999283514 C 0.0 **** 0.0
16 C19763 0.130869643462088 0.0807104561367561 0.311489905025785 C.Trigonal 0.0 **** 0.0
17 C19764 0.134275888160977 0.0981587379249563 0.309312409266502 C.Trigonal 0.0 **** 0.0
18 C19765 0.121583628435817 0.110224467853753 0.309579053789515 C 0.0 **** 0.0
19 C19771 0.151967177543603 0.103229776006836 0.304719794321677 C.Trigonal 0.0 **** 0.0
20 C19772 0.162275691588734 0.0920383743883833 0.296844541938927 C.Trigonal 0.0 **** 0.0
21 C19773 0.156288768071142 0.0739232124908476 0.294651608308952 C.Trigonal 0.0 **** 0.0
22 C19774 0.142627177737566 0.0683671920471826 0.304739926543657 C.Trigonal 0.0 **** 0.0
23 C19780 0.180993689804581 0.0959152337120502 0.293687558784064 C 0.0 **** 0.0
24 C19781 0.185757772391084 0.114304939494824 0.2979440790517 C 0.0 **** 0.0
25 C19782 0.177249161483173 0.119375918264502 0.314704330417861 C 0.0 **** 0.0
26 C19783 0.158067281099793 0.119998778641727 0.311974120816165 C 0.0 **** 0.0
27 C19789 0.139398964630539 0.0507343941407296 0.305180166196679 C 0.0 **** 0.0
28 C19790 0.146659414443903 0.0402299515887349 0.293179286643978 C.Trigonal 0.0 **** 0.0
29 C19791 0.158397431907469 0.0463816210180315 0.281830326481687 C.Trigonal 0.0 **** 0.0
30 C19792 0.163350947233507 0.0632059342984656 0.28251935010491 C 0.0 **** 0.0
31 C19798 0.166339738897541 0.0348349584270029 0.268808707023189 C 0.0 **** 0.0
32 C19799 0.160809276066615 0.0170924416497143 0.268441736208706 C.Trigonal 0.0 **** 0.0
33 C19800 0.148970585958292 0.0111681852400927 0.279268745107258 C.Trigonal 0.0 **** 0.0
34 C19801 0.141439666598147 0.0219099171698871 0.292433739357179 C 0.0 **** 0.0
35 C19807 0.142965707260734 -0.00705434826970088 0.277992009787909 C 0.0 **** 0.0
36 C19808 0.142626013479672 -0.0124768904087962 0.259193439664978 C 0.0 **** 0.0
37 C19809 0.15981015695837 -0.00946468004450491 0.251175845227049 C.Trigonal 0.0 **** 0.0
38 C19810 0.168756053493163 0.00530717064242905 0.255808829165193 C.Trigonal 0.0 **** 0.0
39 N19816 0.18436172883614 0.00837969343073785 0.250078348063454 N 0.0 **** 0.0
40 C19817 0.191406566223555 -0.00286782518830555 0.239493335729748 C.Trigonal 0.0 **** 0.0
41 C19818 0.182571142087034 -0.0171165023868656 0.233225753880349 C.Trigonal 0.0 **** 0.0
42 C19819 0.166653508387837 -0.0202960386785372 0.23933873578263 C.Trigonal 0.0 **** 0.0
43 C19825 0.15659338288712 -0.0357481468921219 0.233713452501633 C 0.0 **** 0.0
44 C19826 0.163730613380176 -0.0440030245860814 0.217701279334303 C 0.0 **** 0.0
45 C19827 0.18291448549069 -0.0455147079309215 0.218963531210292 C 0.0 **** 0.0
46 C19828 0.190725587956943 -0.0277782189334919 0.219514902999561 C 0.0 **** 0.0
47 C19834 0.210196422734802 -0.0283905308700094 0.221721459566517 C 0.0 **** 0.0
48 C19835 0.21767740848177 -0.0112351887053604 0.226026551753729 C.Trigonal 0.0 **** 0.0
49 C19836 0.208164435729705 0.000835014074689313 0.23489414696793 C.Trigonal 0.0 **** 0.0
50 C19841 0.215797870540726 0.0163073164596987 0.239560259268229 C 0.0 **** 0.0
51 C19842 0.23238136870051 0.019290390012546 0.235588713231484 C 0.0 **** 0.0
52 C19843 0.241863703882724 0.00737782669673242 0.226954999438857 C 0.0 **** 0.0
53 C19844 0.234468375365251 -0.00794099486457461 0.222268036190597 C 0.0 **** 0.0
54 C19850 0.0804141425747592 0.0549525923484874 0.403162339905928 C 0.0 **** 0.0
55 C19852 0.0964098723028764 0.0622126592665025 0.411303154696275 C 0.0 **** 0.0
56 C19854 0.0561840722108004 0.081926647368854 0.40669535195383 C 0.0 **** 0.0
57 C19856 0.0962317503454226 0.0487926723316227 0.369710735354271 C 0.0 **** 0.0
58 C19858 0.0437094311447609 0.0995137664034108 0.376582499689276 C 0.0 **** 0.0
59 C19860 0.0625444123144904 0.125543459659079 0.32310292249711 C 0.0 **** 0.0
60 C19862 0.091625191973107 0.133115938818595 0.304082591460144 C 0.0 **** 0.0
61 O19864 0.124601787532522 0.126635527165568 0.304994551240772 O 0.0 **** 0.0
62 C19866 0.183703274086673 0.136446093701407 0.321328471888511 C 0.0 **** 0.0
63 C19868 0.180782661731121 0.125988296134129 0.283090943331035 C 0.0 **** 0.0
64 O19870 0.175004111946512 0.0696716398446708 0.271358937946386 O 0.0 **** 0.0
65 O19872 0.128569937433288 0.0443623594694353 0.317133843030513 O 0.0 **** 0.0
66 O19874 0.131072824718639 0.0165076079830532 0.302431203539285 O 0.0 **** 0.0
67 O19876 0.17670354200863 0.0406925879517904 0.259074235760065 O 0.0 **** 0.0
68 C19878 0.245063501078618 -0.0209333686012064 0.212979770395691 C 0.0 **** 0.0
69 C19880 0.260146547954319 0.0115262681557438 0.223149188003364 C 0.0 **** 0.0
70 H19882 0.0982566121626239 0.0631107148471616 0.342495068874159 H 0.0 **** 0.0
71 H19884 0.0780351212224692 0.0607954615362073 0.33348027762278 H 0.0 **** 0.0
72 H19886 0.0513790053915175 0.087141049781697 0.337019331762974 H 0.0 **** 0.0
73 H19888 0.055149012420038 0.10595221510141 0.348386478553546 H 0.0 **** 0.0
74 H19890 0.111076633897257 0.0638719123266821 0.32082554241096 H 0.0 **** 0.0
75 H19892 0.188796305374132 0.0873834846002478 0.301478426853067 H 0.0 **** 0.0
76 H19894 0.184743862060782 0.093864206326524 0.280488421366113 H 0.0 **** 0.0
77 H19896 0.199559806886108 0.114964098879085 0.299583811968026 H 0.0 **** 0.0
78 H19898 0.180203028124012 0.109703448631644 0.324259190281298 H 0.0 **** 0.0
79 H19900 0.155108989492418 0.130679519203324 0.303589570385895 H 0.0 **** 0.0
80 H19902 0.151999978993026 0.12267453210143 0.324233766845427 H 0.0 **** 0.0
81 H19904 0.15146464405764 -0.0154361479306802 0.285159018057487 H 0.0 **** 0.0
82 H19906 0.130284106347819 -0.00897301518412906 0.283419150681045 H 0.0 **** 0.0
83 H19908 0.132764853759515 -0.00533131883723946 0.252362775163424 H 0.0 **** 0.0
84 H19910 0.138952861372926 -0.0258360376119316 0.258625406265923 H 0.0 **** 0.0
85 H19912 0.156760574213765 -0.0451971002301308 0.243994799843195 H 0.0 **** 0.0
86 H19914 0.143250307213054 -0.0323828238247919 0.231562634916343 H 0.0 **** 0.0
87 H19916 0.160607306519311 -0.0362266217467102 0.20658356111359 H 0.0 **** 0.0
88 H19918 0.157773951671409 -0.0564333991285981 0.215641373335489 H 0.0 **** 0.0
89 H19920 0.188076097509914 -0.0526069096443464 0.20812575476767 H 0.0 **** 0.0
90 H19922 0.186355188421066 -0.0526810503646853 0.230427340685063 H 0.0 **** 0.0
91 H19924 0.188066788707336 -0.0217035552279532 0.207226026548929 H 0.0 **** 0.0
92 H19926 0.213290003400271 -0.0373965911142739 0.23188690808537 H 0.0 **** 0.0
93 H19928 0.215656511297784 -0.0335629569450148 0.210020103674276 H 0.0 **** 0.0
94 H19930 0.208572222173384 0.0259035078018416 0.246546957693954 H 0.0 **** 0.0
95 H19932 0.238267603623118 0.0312944164721627 0.239360024933138 H 0.0 **** 0.0
96 H19934 0.08231624556871 0.0415626810016213 0.399932618545093 H 0.0 **** 0.0
97 H19936 0.0701622621903009 0.0546070341177264 0.412564750105146 H 0.0 **** 0.0
98 H19938 0.0943061503077784 0.0752454874215493 0.415690498196636 H 0.0 **** 0.0
99 H19940 0.106959976832877 0.0624685129727644 0.402261949215789 H 0.0 **** 0.0
100 H19942 0.100432066907146 0.0546812895925617 0.422288387755372 H 0.0 **** 0.0
101 H19944 0.0463306169441922 0.0727841472769627 0.410226249655829 H 0.0 **** 0.0
102 H19946 0.050703559821325 0.0946271451421949 0.407473003419573 H 0.0 **** 0.0
103 H19948 0.0659443904837596 0.0815896980302582 0.41659034772397 H 0.0 **** 0.0
104 H19950 0.108802142697152 0.0546381583174428 0.36844233470567 H 0.0 **** 0.0
105 H19952 0.0938722610420631 0.0413005683325141 0.358230169666776 H 0.0 **** 0.0
106 H19954 0.0970402216843524 0.0396332936238243 0.380044406940494 H 0.0 **** 0.0
107 H19956 0.0485622028453122 0.112410783955062 0.378290097416294 H 0.0 **** 0.0
108 H19958 0.0349840408282646 0.0967984410428249 0.38701933382589 H 0.0 **** 0.0
109 H19960 0.0358217792460588 0.0995446562785208 0.365151938278916 H 0.0 **** 0.0
110 H19962 0.0674563560286801 0.138199136499917 0.32592822623788 H 0.0 **** 0.0
111 H19964 0.0523335757085705 0.123230530657585 0.332120321115503 H 0.0 **** 0.0
112 H19966 0.056583593297825 0.126026940417056 0.310513017674355 H 0.0 **** 0.0
113 H19968 0.0976820970822971 0.143276479435965 0.311454475051912 H 0.0 **** 0.0
114 H19970 0.0790558860409614 0.137625118191151 0.300331240550235 H 0.0 **** 0.0
115 H19972 0.0985158287986576 0.131736457712787 0.292080236255531 H 0.0 **** 0.0
116 H19974 0.13603690598313 0.127484709130673 0.30157282077738 H 0.0 **** 0.0
117 H19976 0.197549754115788 0.136291808474662 0.322552452503788 H 0.0 **** 0.0
118 H19978 0.178286551393398 0.139155677101839 0.333848562760507 H 0.0 **** 0.0
119 H19980 0.180087570314782 0.146711135509745 0.31273599492829 H 0.0 **** 0.0
120 H19982 0.187246662828387 0.122105533110104 0.271429146546223 H 0.0 **** 0.0
121 H19984 0.184378461431557 0.13909428818256 0.285823460817226 H 0.0 **** 0.0
122 H19986 0.167148459521239 0.125530878265259 0.280490992010108 H 0.0 **** 0.0
123 H19988 0.179233859614656 0.0607303090348392 0.264412618601583 H 0.0 **** 0.0
124 H19990 0.127653967342271 0.0324214746619161 0.315629059115755 H 0.0 **** 0.0
125 H19992 0.242056064237834 -0.0339165171876494 0.216891599666444 H 0.0 **** 0.0
126 H19994 0.25865027456229 -0.0193274012305546 0.215321878484209 H 0.0 **** 0.0
127 H19996 0.243074332517761 -0.0200876353318905 0.199218761997358 H 0.0 **** 0.0
128 H19998 0.268804177074609 0.00422359202953107 0.231244305435604 H 0.0 **** 0.0
129 H20000 0.262891706654042 0.0249659591715401 0.225311603972013 H 0.0 **** 0.0
130 H20002 0.263439977312384 0.00880734081489519 0.209921165092756 H 0.0 **** 0.0
@<TRIPOS>BOND
1 3 2 Aromatic
2 4 3 Aromatic
3 5 4 Aromatic
4 6 5 Aromatic
5 1 2 Aromatic
6 1 6 Aromatic
7 8 7 1
8 9 8 Aromatic
9 10 9 1
10 4 7 1
11 3 10 1
12 12 11 Aromatic
13 13 12 Aromatic
14 14 13 Aromatic
15 9 11 Aromatic
16 8 14 Aromatic
17 16 15 Aromatic
18 17 16 Aromatic
19 18 17 Aromatic
20 14 15 Aromatic
21 13 18 Aromatic
22 20 19 1
23 21 20 1
24 22 21 Aromatic
25 17 19 1
26 16 22 Aromatic
27 24 23 1
28 25 24 Aromatic
29 26 25 1
30 20 23 1
31 19 26 1
32 28 27 Aromatic
33 29 28 Aromatic
34 30 29 Aromatic
35 22 27 Aromatic
36 21 30 Aromatic
37 32 31 1
38 33 32 Aromatic
39 34 33 1
40 29 31 1
41 28 34 1
42 36 35 1
43 37 36 1
44 38 37 Aromatic
45 33 35 1
46 32 38 Aromatic
47 40 39 Aromatic
48 41 40 Aromatic
49 42 41 Aromatic
50 38 39 Aromatic
51 37 42 Aromatic
52 44 43 1
53 45 44 1
54 46 45 1
55 42 43 1
56 41 46 1
57 48 47 1
58 49 48 Aromatic
59 40 49 Aromatic
60 46 47 1
61 51 50 Aromatic
62 52 51 Aromatic
63 53 52 Aromatic
64 49 50 Aromatic
65 48 53 Aromatic
66 6 54 1
67 54 55 1
68 1 56 1
69 5 57 1
70 2 58 1
71 11 59 1
72 12 60 1
73 18 61 1
74 25 62 1
75 24 63 1
76 30 64 1
77 27 65 1
78 34 66 Double
79 31 67 Double
80 53 68 1
81 52 69 1
82 7 70 1
83 7 71 1
84 10 72 1
85 10 73 1
86 15 74 1
87 23 75 1
88 23 76 1
89 24 77 1
90 25 78 1
91 26 79 1
92 26 80 1
93 35 81 1
94 35 82 1
95 36 83 1
96 36 84 1
97 43 85 1
98 43 86 1
99 44 87 1
100 44 88 1
101 45 89 1
102 45 90 1
103 46 91 1
104 47 92 1
105 47 93 1
106 50 94 1
107 51 95 1
108 54 96 1
109 54 97 1
110 55 98 1
111 55 99 1
112 55 100 1
113 56 101 1
114 56 102 1
115 56 103 1
116 57 104 1
117 57 105 1
118 57 106 1
119 58 107 1
120 58 108 1
121 58 109 1
122 59 110 1
123 59 111 1
124 59 112 1
125 60 113 1
126 60 114 1
127 60 115 1
128 61 116 1
129 62 117 1
130 62 118 1
131 62 119 1
132 63 120 1
133 63 121 1
134 63 122 1
135 64 123 1
136 65 124 1
137 68 125 1
138 68 126 1
139 68 127 1
140 69 128 1
141 69 129 1
142 69 130 1
@<TRIPOS>MOLECULE
Sketch 4
130 142
SMALL
USER_CHARGES


@<TRIPOS>ATOM
1 C20004 0.448384814720596 0.479810979063227 0.413288630969322 C.Trigonal 0.0 **** 0.0
2 C20005 0.452787833488983 0.487335645535167 0.398116194508967 C 0.0 **** 0.0
3 C20006 0.440534553867613 0.489938817830775 0.385871549490322 C.Trigonal 0.0 **** 0.0
4 C20007 0.4242430132179 0.484506217486652 0.388565129909533 C.Trigonal 0.0 **** 0.0
5 C20008 0.419440320234278 0.478716997548974 0.404425328277806 C 0.0 **** 0.0
6 C20009 0.43154046189023 0.476550354017974 0.416873920977085 C 0.0 **** 0.0
7 C20016 0.411362506780326 0.485428611206293 0.374271725381039 C 0.0 **** 0.0
8 C20017 0.418509199239663 0.486991609538942 0.356432890071123 C.Trigonal 0.0 **** 0.0
9 C20018 0.434000478292972 0.49456165743937 0.354236129122343 C.Trigonal 0.0 **** 0.0
10 C20019 0.444880715487878 0.498935475751875 0.36947879152558 C 0.0 **** 0.0
11 C20025 0.439732869960109 0.49900457852656 0.338206566784807 C 0.0 **** 0.0
12 C20026 0.431265650274878 0.493701407358404 0.323848871876943 C 0.0 **** 0.0
13 C20027 0.417240703944497 0.483048253937491 0.325888610936313 C.Trigonal 0.0 **** 0.0
14 C20028 0.409699753908501 0.481446521355142 0.342035704560356 C.Trigonal 0.0 **** 0.0
15 C20034 0.393365249350466 0.474664468301494 0.34299682897325 C 0.0 **** 0.0
16 C20035 0.384780581408117 0.467810316962569 0.329055947376665 C.Trigonal 0.0 **** 0.0
17 C20036 0.394275534745957 0.466406685204349 0.313927542767896 C.Trigonal 0.0 **** 0.0
18 C20037 0.409874498738158 0.474222278642809 0.312210480959488 C 0.0 **** 0.0
19 C20043 0.38596201247124 0.458133377834085 0.29891015389926 C.Trigonal 0.0 **** 0.0
20 C20044 0.368886099614656 0.458012843291278 0.297604693937069 C.Trigonal 0.0 **** 0.0
21 C20045 0.358400639070701 0.463534416804312 0.312748509619707 C.Trigonal 0.0 **** 0.0
22 C20046 0.366675064868095 0.46505588112345 0.328539594705511 C.Trigonal 0.0 **** 0.0
23 C20052 0.359771629903997 0.449791874140906 0.282602296969655 C 0.0 **** 0.0
24 C20053 0.371585037591331 0.441856845746303 0.269240282995521 C 0.0 **** 0.0
25 C20054 0.387438883375055 0.434536213204345 0.277891649252921 C 0.0 **** 0.0
26 C20055 0.397323971159297 0.448856189835601 0.286472923307581 C 0.0 **** 0.0
27 C20061 0.356367676763356 0.466802204718278 0.343092961374104 C 0.0 **** 0.0
28 C20062 0.339532057249469 0.471266628615802 0.341322023742042 C.Trigonal 0.0 **** 0.0
29 C20063 0.332201823267143 0.472424782120186 0.325522234189027 C.Trigonal 0.0 **** 0.0
30 C20064 0.341350314369215 0.467938679426925 0.311231582932019 C 0.0 **** 0.0
31 C20070 0.314074486119575 0.47825719592934 0.323603327066773 C 0.0 **** 0.0
32 C20071 0.304659074505652 0.482449684903127 0.339026249527167 C.Trigonal 0.0 **** 0.0
33 C20072 0.311526475213357 0.480188956441694 0.354526274700499 C.Trigonal 0.0 **** 0.0
34 C20073 0.32913873591719 0.474770315429063 0.356871705168741 C 0.0 **** 0.0
35 C20079 0.300803672769851 0.482872576388863 0.370231573818582 C 0.0 **** 0.0
36 C20080 0.282581868708336 0.476837118797415 0.366337243284609 C 0.0 **** 0.0
37 C20081 0.275719689297332 0.486300019987389 0.351088414028874 C.Trigonal 0.0 **** 0.0
38 C20082 0.286947593477623 0.489311399710925 0.33749638674124 C.Trigonal 0.0 **** 0.0
39 N20088 0.282492975193392 0.498956176458438 0.324221369449523 N 0.0 **** 0.0
40 C20089 0.266464775519275 0.504503951214066 0.32341397493986 C.Trigonal 0.0 **** 0.0
41 C20090 0.254271933733931 0.500842329486451 0.336065561634279 C.Trigonal 0.0 **** 0.0
42 C20091 0.259188344971718 0.491742049110892 0.349984504897785 C.Trigonal 0.0 **** 0.0
43 C20097 0.246692482965587 0.487118545078422 0.363938250987481 C 0.0 **** 0.0
44 C20098 0.229685958014768 0.496239431924279 0.362317930333314 C 0.0 **** 0.0
45 C20099 0.223955040681713 0.497450071907926 0.344021321485195 C 0.0 **** 0.0
46 C20100 0.23671214087623 0.508491753138273 0.334570104076945 C 0.0 **** 0.0
47 C20106 0.232048322808985 0.511293620897167 0.315841730647498 C 0.0 **** 0.0
48 C20107 0.246166612376382 0.520857071584199 0.307258716214263 C.Trigonal 0.0 **** 0.0
49 C20108 0.262978781893495 0.515980400449092 0.310237212441934 C.Trigonal 0.0 **** 0.0
50 C20113 0.27606003651824 0.524532589348332 0.301597012615808 C 0.0 **** 0.0
51 C20114 0.272354411660533 0.538083043642906 0.291446719925934 C 0.0 **** 0.0
52 C20115 0.255796779421552 0.543202043710313 0.288972101574025 C 0.0 **** 0.0
53 C20116 0.242659334937293 0.534313406600149 0.296657635199329 C 0.0 **** 0.0
54 C20122 0.426702346411178 0.470554835590651 0.434467057672641 C 0.0 **** 0.0
55 C20124 0.426122249307833 0.451226051644326 0.43536578107778 C 0.0 **** 0.0
56 C20126 0.461788717074477 0.475777247336165 0.426383071063515 C 0.0 **** 0.0
57 C20128 0.400874143892465 0.475153522461453 0.407517172334861 C 0.0 **** 0.0
58 C20130 0.470899120149593 0.492506645473245 0.39457386656894 C 0.0 **** 0.0
59 C20132 0.455465594364579 0.509910192946258 0.336339937018274 C 0.0 **** 0.0
60 C20134 0.438028115816811 0.499022829865963 0.306714217138057 C 0.0 **** 0.0
61 O20136 0.418024349948839 0.473854888057324 0.296688816735477 O 0.0 **** 0.0
62 C20138 0.398826605147698 0.424865629145261 0.265431499770746 C 0.0 **** 0.0
63 C20140 0.375788643442109 0.45510674452216 0.255525070550689 C 0.0 **** 0.0
64 O20142 0.333888516074705 0.467832686102063 0.295521155389148 O 0.0 **** 0.0
65 O20144 0.363465739432131 0.464803497159873 0.35878927240171 O 0.0 **** 0.0
66 O20146 0.335365996308536 0.473174687228275 0.370835540458836 O 0.0 **** 0.0
67 O20148 0.30784734891526 0.479174438723925 0.309577743354588 O 0.0 **** 0.0
68 C20150 0.224509023259865 0.539589842011378 0.293493523431651 C 0.0 **** 0.0
69 C20152 0.252577917526749 0.558371478318174 0.277845802508864 C 0.0 **** 0.0
70 H20154 0.403780199470917 0.473796681559978 0.374792523887885 H 0.0 **** 0.0
71 H20156 0.402593451982228 0.496030278405707 0.376702197704005 H 0.0 **** 0.0
72 H20158 0.444500082541238 0.512736583468428 0.371641744347346 H 0.0 **** 0.0
73 H20160 0.457998985379372 0.495731553148549 0.366217362173335 H 0.0 **** 0.0
74 H20162 0.387250060026895 0.475932550265696 0.355282669450995 H 0.0 **** 0.0
75 H20164 0.351300778970139 0.439849850750952 0.287353456295931 H 0.0 **** 0.0
76 H20166 0.351840795540621 0.459069487676851 0.275945556781242 H 0.0 **** 0.0
77 H20168 0.364721991838415 0.431421757141615 0.263077656525364 H 0.0 **** 0.0
78 H20170 0.38328948776615 0.425557290769895 0.287667165602569 H 0.0 **** 0.0
79 H20172 0.402287873357637 0.457558093155227 0.276828313731858 H 0.0 **** 0.0
80 H20174 0.408233316597451 0.443187747917279 0.292983117900635 H 0.0 **** 0.0
81 H20176 0.305626057742223 0.47581172345718 0.381267536626536 H 0.0 **** 0.0
82 H20178 0.300825364783308 0.496325521937937 0.373836169225237 H 0.0 **** 0.0
83 H20180 0.274846582519476 0.478640275519584 0.377708861589056 H 0.0 **** 0.0
84 H20182 0.282697802632414 0.463141615097035 0.363740612319895 H 0.0 **** 0.0
85 H20184 0.244469180901295 0.473345534597398 0.363485137028934 H 0.0 **** 0.0
86 H20186 0.251978377733987 0.489894549397267 0.376511128141752 H 0.0 **** 0.0
87 H20188 0.230999594673917 0.5093034417697 0.366968500831584 H 0.0 **** 0.0
88 H20190 0.220082594737639 0.490089605080057 0.370312697365799 H 0.0 **** 0.0
89 H20192 0.211262635731115 0.503159562722679 0.34344248463583 H 0.0 **** 0.0
90 H20194 0.223125186702087 0.484798172150844 0.338256232455552 H 0.0 **** 0.0
91 H20196 0.236845125322151 0.521068287903791 0.340731419493118 H 0.0 **** 0.0
92 H20198 0.229974999590139 0.499082722315291 0.309450825497012 H 0.0 **** 0.0
93 H20200 0.219958807644183 0.51808869571501 0.315323209972422 H 0.0 **** 0.0
94 H20202 0.289260972422765 0.521153611442964 0.3039847171881 H 0.0 **** 0.0
95 H20204 0.282637619773131 0.545029305596904 0.285175664560364 H 0.0 **** 0.0
96 H20206 0.414438313111296 0.475848117988922 0.43834884864645 H 0.0 **** 0.0
97 H20208 0.435605540708628 0.475393568060104 0.444004301395353 H 0.0 **** 0.0
98 H20210 0.438427619667503 0.445574522276305 0.432218203942587 H 0.0 **** 0.0
99 H20212 0.416803202800418 0.446160507843825 0.426430230660965 H 0.0 **** 0.0
100 H20214 0.422564621244224 0.446850465949539 0.448080200136704 H 0.0 **** 0.0
101 H20216 0.474377994701217 0.47392028946236 0.420859537056741 H 0.0 **** 0.0
102 H20218 0.459056462495377 0.463996387745987 0.433205003070281 H 0.0 **** 0.0
103 H20220 0.462652405655615 0.485937049430367 0.435819452599697 H 0.0 **** 0.0
104 H20222 0.395858501094462 0.465932486548392 0.398403025803717 H 0.0 **** 0.0
105 H20224 0.393340485066765 0.486811718024164 0.406256505421914 H 0.0 **** 0.0
106 H20226 0.398102892767563 0.470015128577858 0.420052966202564 H 0.0 **** 0.0
107 H20228 0.477530887213431 0.482790694462637 0.387112453752727 H 0.0 **** 0.0
108 H20230 0.478256907279349 0.494632720104466 0.406105148858521 H 0.0 **** 0.0
109 H20232 0.471595784140211 0.504456104710842 0.387511932386515 H 0.0 **** 0.0
110 H20234 0.452463667958199 0.521933205580748 0.329976335289045 H 0.0 **** 0.0
111 H20236 0.465188882351674 0.503377213054816 0.32887379582633 H 0.0 **** 0.0
112 H20238 0.461478249973876 0.513521738636114 0.348279364464112 H 0.0 **** 0.0
113 H20240 0.44574563110039 0.489027997050326 0.300877250487512 H 0.0 **** 0.0
114 H20242 0.445890708320422 0.510430508244624 0.307173881515025 H 0.0 **** 0.0
115 H20244 0.427688895476211 0.502211933398372 0.297956051226547 H 0.0 **** 0.0
116 H20246 0.426695286272992 0.465456521366283 0.297611569825716 H 0.0 **** 0.0
117 H20248 0.391569929193338 0.414961333777459 0.258903951665738 H 0.0 **** 0.0
118 H20250 0.409295955473196 0.418753464821499 0.272248085867788 H 0.0 **** 0.0
119 H20252 0.404257407408359 0.433418686976691 0.255920166595226 H 0.0 **** 0.0
120 H20254 0.3641460245709 0.459243685392698 0.249127997756552 H 0.0 **** 0.0
121 H20256 0.384240231696635 0.449785624217832 0.245870285551636 H 0.0 **** 0.0
122 H20258 0.381801354526383 0.466361707347324 0.261042479014879 H 0.0 **** 0.0
123 H20260 0.323423198809936 0.473832888558481 0.296098750873343 H 0.0 **** 0.0
124 H20262 0.354958666414417 0.466171422731489 0.367260062815658 H 0.0 **** 0.0
125 H20264 0.216606756402915 0.528710940992348 0.289888578195481 H 0.0 **** 0.0
126 H20266 0.22322334087062 0.548801931639583 0.28320682625959 H 0.0 **** 0.0
127 H20268 0.218929370254227 0.545416058656756 0.304855310461467 H 0.0 **** 0.0
128 H20270 0.245505073941379 0.554773195921306 0.266422210244442 H 0.0 **** 0.0
129 H20272 0.264418963166303 0.564323761894305 0.273723926423763 H 0.0 **** 0.0
130 H20274 0.245238423287643 0.56814645811919 0.284503011147637 H 0.0 **** 0.0
@<TRIPOS>BOND
1 3 2 Aromatic
2 4 3 Aromatic
3 5 4 Aromatic
4 6 5 Aromatic
5 1 2 Aromatic
6 1 6 Aromatic
7 8 7 1
8 9 8 Aromatic
9 10 9 1
10 4 7 1
11 3 10 1
12 12 11 Aromatic
13 13 12 Aromatic
14 14 13 Aromatic
15 9 11 Aromatic
16 8 14 Aromatic
17 16 15 Aromatic
18 17 16 Aromatic
19 18 17 Aromatic
20 14 15 Aromatic
21 13 18 Aromatic
22 20 19 1
23 21 20 1
24 22 21 Aromatic
25 17 19 1
26 16 22 Aromatic
27 24 23 1
28 25 24 Aromatic
29 26 25 1
30 20 23 1
31 19 26 1
32 28 27 Aromatic
33 29 28 Aromatic
34 30 29 Aromatic
35 22 27 Aromatic
36 21 30 Aromatic
37 32 31 1
38 33 32 Aromatic
39 34 33 1
40 29 31 1
41 28 34 1
42 36 35 1
43 37 36 1
44 38 37 Aromatic
45 33 35 1
46 32 38 Aromatic
47 40 39 Aromatic
48 41 40 Aromatic
49 42 41 Aromatic
50 38 39 Aromatic
51 37 42 Aromatic
52 44 43 1
53 45 44 1
54 46 45 1
55 42 43 1
56 41 46 1
57 48 47 1
58 49 48 Aromatic
59 40 49 Aromatic
60 46 47 1
61 51 50 Aromatic
62 52 51 Aromatic
63 53 52 Aromatic
64 49 50 Aromatic
65 48 53 Aromatic
66 6 54 1
67 54 55 1
68 1 56 1
69 5 57 1
70 2 58 1
71 11 59 1
72 12 60 1
73 18 61 1
74 25 62 1
75 24 63 1
76 30 64 1
77 27 65 1
78 34 66 Double
79 31 67 Double
80 53 68 1
81 52 69 1
82 7 70 1
83 7 71 1
84 10 72 1
85 10 73 1
86 15 74 1
87 23 75 1
88 23 76 1
89 24 77 1
90 25 78 1
91 26 79 1
92 26 80 1
93 35 81 1
94 35 82 1
95 36 83 1
96 36 84 1
97 43 85 1
98 43 86 1
99 44 87 1
100 44 88 1
101 45 89 1
102 45 90 1
103 46 91 1
104 47 92 1
105 47 93 1
106 50 94 1
107 51 95 1
108 54 96 1
109 54 97 1
110 55 98 1
111 55 99 1
112 55 100 1
113 56 101 1
114 56 102 1
115 56 103 1
116 57 104 1
117 57 105 1
118 57 106 1
119 58 107 1
120 58 108 1
121 58 109 1
122 59 110 1
123 59 111 1
124 59 112 1
125 60 113 1
126 60 114 1
127 60 115 1
128 61 116 1
129 62 117 1
130 62 118 1
131 62 119 1
132 63 120 1
133 63 121 1
134 63 122 1
135 64 123 1
136 65 124 1
137 68 125 1
138 68 126 1
139 68 127 1
140 69 128 1
141 69 129 1
142 69 130 1
@<TRIPOS>MOLECULE
Sketch 4
130 142
SMALL
USER_CHARGES


@<TRIPOS>ATOM
1 C20276 0.0956117271826418 0.50740357826335 0.354354994260438 C.Trigonal 0.0 **** 0.0
2 C20277 0.0896720149668358 0.520649829514085 0.344577543869015 C 0.0 **** 0.0
3 C20278 0.0917232654850571 0.52031538284842 0.327177452421263 C.Trigonal 0.0 **** 0.0
4 C20279 0.100351506055559 0.507189142014532 0.319735639921564 C.Trigonal 0.0 **** 0.0
5 C20280 0.105323663932051 0.493376223136505 0.329354006760117 C 0.0 **** 0.0
6 C20281 0.102747415769889 0.493417225577057 0.346653393102166 C 0.0 **** 0.0
7 C20288 0.104646005536105 0.507643933599598 0.3009938963305 C 0.0 **** 0.0
8 C20289 0.0968319612634807 0.521515513414613 0.290241736801708 C.Trigonal 0.0 **** 0.0
9 C20290 0.0870558059666598 0.533882347652769 0.297463743670089 C.Trigonal 0.0 **** 0.0
10 C20291 0.0845097735534601 0.53460516547298 0.31655217112754 C 0.0 **** 0.0
11 C20297 0.0789040425051046 0.545914284208323 0.287482854732659 C 0.0 **** 0.0
12 C20298 0.0813510941849739 0.546491711842395 0.270157135584265 C 0.0 **** 0.0
13 C20299 0.0939452630761617 0.536234943901479 0.263258211370054 C.Trigonal 0.0 **** 0.0
14 C20300 0.100084559965499 0.522353219382237 0.272778775242789 C.Trigonal 0.0 **** 0.0
15 C20306 0.110516628306925 0.510493572367385 0.264758169025419 C 0.0 **** 0.0
16 C20307 0.117250397673515 0.513162378562632 0.248629283585814 C.Trigonal 0.0 **** 0.0
17 C20308 0.115003665047187 0.52967685578616 0.242029762780267 C.Trigonal 0.0 **** 0.0
18 C20309 0.102567203380434 0.540447563054394 0.247986973803666 C 0.0 **** 0.0
19 C20315 0.125229287488048 0.534470990306133 0.226818014507134 C.Trigonal 0.0 **** 0.0
20 C20316 0.131074459459899 0.522221318455367 0.216599350265144 C.Trigonal 0.0 **** 0.0
21 C20317 0.127293325054449 0.504111230107082 0.220636215488153 C.Trigonal 0.0 **** 0.0
22 C20318 0.123468724635444 0.499923083039533 0.237505188605177 C.Trigonal 0.0 **** 0.0
23 C20324 0.144708586317716 0.526440252689229 0.20375311127239 C 0.0 **** 0.0
24 C20325 0.158362941120713 0.536828663380492 0.212927903897548 C 0.0 **** 0.0
25 C20326 0.151122746526581 0.552987999601692 0.221810352655895 C 0.0 **** 0.0
26 C20327 0.131691817619912 0.55250288771973 0.224700351557192 C 0.0 **** 0.0
27 C20333 0.122684531971449 0.482420793745727 0.2414354446053 C 0.0 **** 0.0
28 C20334 0.122711806622966 0.470553890416255 0.22848884741047 C.Trigonal 0.0 **** 0.0
29 C20335 0.123607391125012 0.475471341003954 0.211745398015228 C.Trigonal 0.0 **** 0.0
30 C20336 0.125864226780629 0.492364342145711 0.207661680636163 C 0.0 **** 0.0
31 C20342 0.122740248196313 0.462654437579227 0.197652388917743 C 0.0 **** 0.0
32 C20343 0.1220143327135 0.444673605037952 0.202405747235381 C.Trigonal 0.0 **** 0.0
33 C20344 0.121836815778336 0.439690468982197 0.218761704979791 C.Trigonal 0.0 **** 0.0
34 C20345 0.121789707213186 0.451979180331684 0.232751154130907 C 0.0 **** 0.0
35 C20351 0.121576800401416 0.42103672706855 0.223363452557535 C 0.0 **** 0.0
36 C20352 0.130795987529209 0.410335730012657 0.209823668075802 C 0.0 **** 0.0
37 C20353 0.124611667805215 0.414656245534459 0.192168912032609 C.Trigonal 0.0 **** 0.0
38 C20354 0.121105234095279 0.431791112178836 0.188501412433445 C.Trigonal 0.0 **** 0.0
39 N20360 0.116802762212949 0.436790105624489 0.172993138462907 N 0.0 **** 0.0
40 C20361 0.116035348092454 0.425213984691555 0.160687274840977 C.Trigonal 0.0 **** 0.0
41 C20362 0.11851609734186 0.407750278700828 0.163589680627966 C.Trigonal 0.0 **** 0.0
42 C20363 0.122893065016938 0.402667145861664 0.179591770430114 C.Trigonal 0.0 **** 0.0
43 C20369 0.126350501020688 0.384185895278296 0.183775641458589 C 0.0 **** 0.0
44 C20370 0.121614124914675 0.372034231377156 0.169466706966082 C 0.0 **** 0.0
45 C20371 0.125565204577081 0.379146510738025 0.151992896070322 C 0.0 **** 0.0
46 C20372 0.115479751384654 0.395456902734694 0.149176670161851 C 0.0 **** 0.0
47 C20378 0.119614154620429 0.403627761848269 0.131801765008644 C 0.0 **** 0.0
48 C20379 0.113181360583489 0.421685747335373 0.130443047368655 C.Trigonal 0.0 **** 0.0
49 C20380 0.112081359133337 0.43197467243929 0.14478257073752 C.Trigonal 0.0 **** 0.0
50 C20385 0.10732828323083 0.449113469279485 0.142991089113464 C 0.0 **** 0.0
51 C20386 0.103634625445806 0.455509786437918 0.127344900492001 C 0.0 **** 0.0
52 C20387 0.104746650823997 0.445431717089591 0.113103657357877 C 0.0 **** 0.0
53 C20388 0.109642316998576 0.428570389176883 0.114744816943723 C 0.0 **** 0.0
54 C20394 0.107891435861154 0.47831203900744 0.357268457867426 C 0.0 **** 0.0
55 C20396 0.126418843022604 0.479808818361703 0.362689729760244 C 0.0 **** 0.0
56 C20398 0.093845048923646 0.508080280020831 0.373452242572159 C 0.0 **** 0.0
57 C20400 0.113278300842979 0.47824053725643 0.320659380737536 C 0.0 **** 0.0
58 C20402 0.0812868160146868 0.535590267896405 0.353161869623658 C 0.0 **** 0.0
59 C20404 0.0670017725200447 0.558502058985111 0.295775505389928 C 0.0 **** 0.0
60 C20406 0.071519772268417 0.55934160480094 0.259918344827347 C 0.0 **** 0.0
61 O20408 0.0986613946231729 0.555125142600741 0.239629282068557 O 0.0 **** 0.0
62 C20410 0.155433845704688 0.569490762709819 0.212430977656275 C 0.0 **** 0.0
63 C20412 0.17295017069889 0.540550668478339 0.200591886405663 C 0.0 **** 0.0
64 O20414 0.126911403677739 0.498046952885703 0.191199966144323 O 0.0 **** 0.0
65 O20416 0.121419768203689 0.477461938205751 0.257983269527937 O 0.0 **** 0.0
66 O20418 0.12129505760673 0.447586431598854 0.247482876534371 O 0.0 **** 0.0
67 O20420 0.122890379673091 0.467832925471569 0.183146001059751 O 0.0 **** 0.0
68 C20422 0.111418244759082 0.417736953428222 0.0991785029361991 C 0.0 **** 0.0
69 C20424 0.101021804794397 0.453417664617937 0.0961595698566059 C 0.0 **** 0.0
70 H20426 0.118537206863761 0.508730364350446 0.299856816677226 H 0.0 **** 0.0
71 H20428 0.101285402696842 0.495368886420305 0.295434388655011 H 0.0 **** 0.0
72 H20430 0.070767362247015 0.535080256824969 0.318969891433881 H 0.0 **** 0.0
73 H20432 0.0898969338132105 0.546622818644318 0.321198258318237 H 0.0 **** 0.0
74 H20434 0.113495565565544 0.499088649351101 0.271912025753411 H 0.0 **** 0.0
75 H20436 0.150767883343957 0.515134048926333 0.198331999080506 H 0.0 **** 0.0
76 H20438 0.139368126951603 0.533680870683446 0.193194656222426 H 0.0 **** 0.0
77 H20440 0.163549335322193 0.528694172760126 0.222989012948219 H 0.0 **** 0.0
78 H20442 0.157173038661042 0.553717349295115 0.234340938574243 H 0.0 **** 0.0
79 H20444 0.125182085860997 0.558186312797764 0.213797871988014 H 0.0 **** 0.0
80 H20446 0.128844389757056 0.560594649828232 0.235689034089595 H 0.0 **** 0.0
81 H20448 0.127376126856726 0.41859545185939 0.235807643881863 H 0.0 **** 0.0
82 H20450 0.108465885910084 0.416624705456036 0.224332874132036 H 0.0 **** 0.0
83 H20452 0.129093856389539 0.396925726628299 0.213007655043492 H 0.0 **** 0.0
84 H20454 0.144531052680261 0.412727703331493 0.210428089654613 H 0.0 **** 0.0
85 H20456 0.139821230772879 0.382692530100267 0.186927281224145 H 0.0 **** 0.0
86 H20458 0.119228146034316 0.380409249664354 0.195139326553937 H 0.0 **** 0.0
87 H20460 0.107928352393577 0.369872111079468 0.170070875671193 H 0.0 **** 0.0
88 H20462 0.127657876861047 0.359631917824322 0.171411779292468 H 0.0 **** 0.0
89 H20464 0.122338708470604 0.369816567771284 0.142139446345479 H 0.0 **** 0.0
90 H20466 0.139200402246204 0.381600240111619 0.150729627060557 H 0.0 **** 0.0
91 H20468 0.101918569666682 0.392138149752532 0.149141043881769 H 0.0 **** 0.0
92 H20470 0.133451058315875 0.40352946594878 0.13000261044916 H 0.0 **** 0.0
93 H20472 0.11430733858678 0.39547157488675 0.12186210958514 H 0.0 **** 0.0
94 H20474 0.10659164725136 0.457363376996332 0.154137181189909 H 0.0 **** 0.0
95 H20476 0.0999683518446682 0.468836819694857 0.126062981348618 H 0.0 **** 0.0
96 H20478 0.105865394781611 0.466450118653004 0.350299534253784 H 0.0 **** 0.0
97 H20480 0.09984886616366 0.477116317305207 0.368556917301036 H 0.0 **** 0.0
98 H20482 0.128767772790666 0.491707360942895 0.36949802348993 H 0.0 **** 0.0
99 H20484 0.13494705660548 0.479493170198941 0.35177141486981 H 0.0 **** 0.0
100 H20486 0.13014504685309 0.469364656003379 0.371058963557845 H 0.0 **** 0.0
101 H20488 0.0937782579753217 0.521082101260803 0.378326528182478 H 0.0 **** 0.0
102 H20490 0.104416775563006 0.501817795989538 0.379914936360051 H 0.0 **** 0.0
103 H20492 0.08209934060374 0.501924404410268 0.377689693532841 H 0.0 **** 0.0
104 H20494 0.121474559445969 0.481932146650243 0.310073646076366 H 0.0 **** 0.0
105 H20496 0.103449625602888 0.469744366002868 0.315624917967399 H 0.0 **** 0.0
106 H20498 0.121251498590405 0.470665354205008 0.329087575772302 H 0.0 **** 0.0
107 H20500 0.0737158564303249 0.543418976073723 0.344580478658437 H 0.0 **** 0.0
108 H20502 0.0908175515631735 0.543945153388752 0.358950203933801 H 0.0 **** 0.0
109 H20504 0.0725777273620298 0.53149751141838 0.363207474212182 H 0.0 **** 0.0
110 H20506 0.0539434970946336 0.553675922451033 0.295906597789272 H 0.0 **** 0.0
111 H20508 0.0669751088383143 0.570755231520638 0.289244842661636 H 0.0 **** 0.0
112 H20510 0.0704824977911462 0.561387538675156 0.308887696823212 H 0.0 **** 0.0
113 H20512 0.0780585819571525 0.571632164106562 0.259538653361671 H 0.0 **** 0.0
114 H20514 0.0587542969015679 0.561422664202016 0.264999147759506 H 0.0 **** 0.0
115 H20516 0.0695012833417283 0.555066504592297 0.24684487230374 H 0.0 **** 0.0
116 H20518 0.103926101161936 0.554691285840737 0.228871202639771 H 0.0 **** 0.0
117 H20520 0.169172948707419 0.571481687534508 0.211867902848947 H 0.0 **** 0.0
118 H20522 0.149952967783154 0.580366709283486 0.219105770213925 H 0.0 **** 0.0
119 H20524 0.150362468296877 0.569302203004157 0.199517496237562 H 0.0 **** 0.0
120 H20526 0.178040328918328 0.528696042188494 0.195388236409399 H 0.0 **** 0.0
121 H20528 0.183277443247036 0.547062491310261 0.207192638822682 H 0.0 **** 0.0
122 H20530 0.168650766954985 0.548419091763273 0.189977917849922 H 0.0 **** 0.0
123 H20532 0.125464339088319 0.488531555674232 0.183878071744865 H 0.0 **** 0.0
124 H20534 0.120425695432903 0.465428193355442 0.258414747632521 H 0.0 **** 0.0
125 H20536 0.12393673742098 0.411686502410956 0.0987400012552625 H 0.0 **** 0.0
126 H20538 0.110168853387573 0.424973601262875 0.0874314978327121 H 0.0 **** 0.0
127 H20540 0.101708282124951 0.407749774563234 0.098997997297085 H 0.0 **** 0.0
128 H20542 0.0911380363612986 0.446431877307053 0.0893050926680349 H 0.0 **** 0.0
129 H20544 0.112389825205939 0.453812644285407 0.0881181766078708 H 0.0 **** 0.0
130 H20546 0.0965948104103992 0.466498380115167 0.0975352256181172 H 0.0 **** 0.0
@<TRIPOS>BOND
1 3 2 Aromatic
2 4 3 Aromatic
3 5 4 Aromatic
4 6 5 Aromatic
5 1 2 Aromatic
6 1 6 Aromatic
7 8 7 1
8 9 8 Aromatic
9 10 9 1
10 4 7 1
11 3 10 1
12 12 11 Aromatic
13 13 12 Aromatic
14 14 13 Aromatic
15 9 11 Aromatic
16 8 14 Aromatic
17 16 15 Aromatic
18 17 16 Aromatic
19 18 17 Aromatic
20 14 15 Aromatic
21 13 18 Aromatic
22 20 19 1
23 21 20 1
24 22 21 Aromatic
25 17 19 1
26 16 22 Aromatic
27 24 23 1
28 25 24 Aromatic
29 26 25 1
30 20 23 1
31 19 26 1
32 28 27 Aromatic
33 29 28 Aromatic
34 30 29 Aromatic
35 22 27 Aromatic
36 21 30 Aromatic
37 32 31 1
38 33 32 Aromatic
39 34 33 1
40 29 31 1
41 28 34 1
42 36 35 1
43 37 36 1
44 38 37 Aromatic
45 33 35 1
46 32 38 Aromatic
47 40 39 Aromatic
48 41 40 Aromatic
49 42 41 Aromatic
50 38 39 Aromatic
51 37 42 Aromatic
52 44 43 1
53 45 44 1
54 46 45 1
55 42 43 1
56 41 46 1
57 48 47 1
58 49 48 Aromatic
59 40 49 Aromatic
60 46 47 1
61 51 50 Aromatic
62 52 51 Aromatic
63 53 52 Aromatic
64 49 50 Aromatic
65 48 53 Aromatic
66 6 54 1
67 54 55 1
68 1 56 1
69 5 57 1
70 2 58 1
71 11 59 1
72 12 60 1
73 18 61 1
74 25 62 1
75 24 63 1
76 30 64 1
77 27 65 1
78 34 66 Double
79 31 67 Double
80 53 68 1
81 52 69 1
82 7 70 1
83 7 71 1
84 10 72 1
85 10 73 1
86 15 74 1
87 23 75 1
88 23 76 1
89 24 77 1
90 25 78 1
91 26 79 1
92 26 80 1
93 35 81 1
94 35 82 1
95 36 83 1
96 36 84 1
97 43 85 1
98 43 86 1
99 44 87 1
100 44 88 1
101 45 89 1
102 45 90 1
103 46 91 1
104 47 92 1
105 47 93 1
106 50 94 1
107 51 95 1
108 54 96 1
109 54 97 1
110 55 98 1
111 55 99 1
112 55 100 1
113 56 101 1
114 56 102 1
115 56 103 1
116 57 104 1
117 57 105 1
118 57 106 1
119 58 107 1
120 58 108 1
121 58 109 1
122 59 110 1
123 59 111 1
124 59 112 1
125 60 113 1
126 60 114 1
127 60 115 1
128 61 116 1
129 62 117 1
130 62 118 1
131 62 119 1
132 63 120 1
133 63 121 1
134 63 122 1
135 64 123 1
136 65 124 1
137 68 125 1
138 68 126 1
139 68 127 1
140 69 128 1
141 69 129 1
142 69 130 1
@<TRIPOS>MOLECULE
Sketch 4
130 142
SMALL
USER_CHARGES


@<TRIPOS>ATOM
1 C20548 0.351576272932163 0.928868924333336 0.465452030121289 C.Trigonal 0.0 **** 0.0
2 C20549 0.358485113712615 0.933345116802398 0.48089664264502 C 0.0 **** 0.0
3 C20550 0.348706612772797 0.941903287867936 0.492513147248617 C.Trigonal 0.0 **** 0.0
4 C20551 0.331794575344237 0.944680023115695 0.48939617456055 C.Trigonal 0.0 **** 0.0
5 C20552 0.324490999089008 0.939233390691525 0.474466269272763 C 0.0 **** 0.0
6 C20553 0.3345072299445 0.931453781847023 0.46238030018687 C 0.0 **** 0.0
7 C20560 0.322056362421542 0.954027535614444 0.50306238030857 C 0.0 **** 0.0
8 C20561 0.33212395617523 0.969284521351092 0.508993299548888 C.Trigonal 0.0 **** 0.0
9 C20562 0.349155361153014 0.96686163629272 0.511660188980151 C.Trigonal 0.0 **** 0.0
10 C20563 0.355738944360558 0.948972838576928 0.508891496388624 C 0.0 **** 0.0
11 C20569 0.359558080018447 0.980006633692968 0.516865987625897 C 0.0 **** 0.0
12 C20570 0.352931002643759 0.995845152298576 0.520197558307011 C 0.0 **** 0.0
13 C20571 0.335881615599543 0.998935971508202 0.516260005918518 C.Trigonal 0.0 **** 0.0
14 C20572 0.325148122208934 0.985207275612951 0.51196724147381 C.Trigonal 0.0 **** 0.0
15 C20578 0.307642297716982 0.987772264477497 0.511735177552684 C 0.0 **** 0.0
16 C20579 0.300241038263547 1.00348772977435 0.515003563041449 C.Trigonal 0.0 **** 0.0
17 C20580 0.311332948986897 1.01745449299909 0.516045059036433 C.Trigonal 0.0 **** 0.0
18 C20581 0.328716047122104 1.01546365018182 0.516812027539974 C 0.0 **** 0.0
19 C20587 0.303565666693435 1.03443490981904 0.519431152517892 C.Trigonal 0.0 **** 0.0
20 C20588 0.289118777943804 1.03525976920081 0.528642993847077 C.Trigonal 0.0 **** 0.0
21 C20589 0.2792288079947 1.01907755274433 0.531648689656492 C.Trigonal 0.0 **** 0.0
22 C20590 0.283085874958738 1.00517109683512 0.521195830104117 C.Trigonal 0.0 **** 0.0
23 C20596 0.280386097880834 1.05195004104969 0.532736286658789 C 0.0 **** 0.0
24 C20597 0.289576527249713 1.06750889304087 0.525347253019112 C 0.0 **** 0.0
25 C20598 0.297255483093058 1.06293353206628 0.508019888571554 C 0.0 **** 0.0
26 C20599 0.311251241513252 1.04967688570943 0.510587064005064 C 0.0 **** 0.0
27 C20605 0.271611196282403 0.991484882076977 0.521108809360866 C 0.0 **** 0.0
28 C20606 0.260726165324729 0.989402087443409 0.534697840196903 C.Trigonal 0.0 **** 0.0
29 C20607 0.259829738165269 1.00154204067823 0.547219426902579 C.Trigonal 0.0 **** 0.0
30 C20608 0.268057250233942 1.01695917709509 0.545214987299176 C 0.0 **** 0.0
31 C20614 0.249982576534821 0.998158140239497 0.563242072456069 C 0.0 **** 0.0
32 C20615 0.241505128018003 0.981611169828649 0.56485956273282 C.Trigonal 0.0 **** 0.0
33 C20616 0.241002590704228 0.970502538271065 0.55180167241479 C.Trigonal 0.0 **** 0.0
34 C20617 0.250150267638377 0.97363084873304 0.535882492459029 C 0.0 **** 0.0
35 C20623 0.231223322899235 0.953988187443631 0.552980082769114 C 0.0 **** 0.0
36 C20624 0.216904452615876 0.955442608443703 0.566241557601733 C 0.0 **** 0.0
37 C20625 0.223697480719039 0.962319274171014 0.582785438569943 C.Trigonal 0.0 **** 0.0
38 C20626 0.234317073856196 0.976696856653075 0.581821990948991 C.Trigonal 0.0 **** 0.0
39 N20632 0.240003005741519 0.984430853155875 0.595756062927736 N 0.0 **** 0.0
40 C20633 0.235876008758078 0.977923582232109 0.610861828042092 C.Trigonal 0.0 **** 0.0
41 C20634 0.226634318700257 0.962670897952349 0.612622938282225 C.Trigonal 0.0 **** 0.0
42 C20635 0.220320302271409 0.955121593148019 0.598328746210523 C.Trigonal 0.0 **** 0.0
43 C20641 0.209905803388446 0.938937568189105 0.599478626095043 C 0.0 **** 0.0
44 C20642 0.212277163079606 0.929706460115676 0.61637356209021 C 0.0 **** 0.0
45 C20643 0.21071932960884 0.942145851608912 0.631019417121121 C 0.0 **** 0.0
46 C20644 0.225282878509892 0.954861823857407 0.630142833630752 C 0.0 **** 0.0
47 C20650 0.223967374246051 0.968928083981203 0.643646997147991 C 0.0 **** 0.0
48 C20651 0.238004161545076 0.981763316216769 0.641192871867423 C.Trigonal 0.0 **** 0.0
49 C20652 0.242897682957516 0.986443552565511 0.624783492547719 C.Trigonal 0.0 **** 0.0
50 C20657 0.255506563182305 0.998929120047444 0.622622218363615 C 0.0 **** 0.0
51 C20658 0.263222783616211 1.00585233479221 0.636496111847486 C 0.0 **** 0.0
52 C20659 0.258541789850269 1.00115546006249 0.652701127114311 C 0.0 **** 0.0
53 C20660 0.245680504095132 0.9892986821358 0.654994838848349 C 0.0 **** 0.0
54 C20666 0.3270066426916 0.925642687198513 0.445719369220373 C 0.0 **** 0.0
55 C20668 0.326750609157666 0.940257982921801 0.43301141195247 C 0.0 **** 0.0
56 C20670 0.362950013571391 0.921169273822834 0.452035351301815 C 0.0 **** 0.0
57 C20672 0.305799483844057 0.942460640614753 0.471750834846498 C 0.0 **** 0.0
58 C20674 0.376700027594891 0.929369956970491 0.484957804956442 C 0.0 **** 0.0
59 C20676 0.378334704867217 0.976556788995506 0.518957329928153 C 0.0 **** 0.0
60 C20678 0.364633326534212 1.00904231067497 0.52774106065789 C 0.0 **** 0.0
61 O20680 0.339249056489764 1.02904724759609 0.518740039964635 O 0.0 **** 0.0
62 C20682 0.303943552698469 1.07862583889399 0.498783365006497 C 0.0 **** 0.0
63 C20684 0.302946440317475 1.07406431297695 0.537982325529787 C 0.0 **** 0.0
64 O20686 0.265857040950326 1.03000981987177 0.556465962398519 O 0.0 **** 0.0
65 O20688 0.272625903671544 0.979744543041308 0.508309922955765 O 0.0 **** 0.0
66 O20690 0.249684794070184 0.963872243973251 0.523977584917014 O 0.0 **** 0.0
67 O20692 0.250019455143046 1.00894479892506 0.574213135902218 O 0.0 **** 0.0
68 C20694 0.240292413833154 0.984580261738031 0.67274723649743 C 0.0 **** 0.0
69 C20696 0.267610157740295 1.00933193294497 0.667416914086103 C 0.0 **** 0.0
70 H20698 0.309643848432819 0.957755059663763 0.498334714570539 H 0.0 **** 0.0
71 H20700 0.319615662953968 0.945509263969469 0.513861195147607 H 0.0 **** 0.0
72 H20702 0.35171884942393 0.941018464556534 0.519626708664675 H 0.0 **** 0.0
73 H20704 0.369515151391076 0.948468518134041 0.509048997253271 H 0.0 **** 0.0
74 H20706 0.299762991755211 0.97647105898448 0.51100830375291 H 0.0 **** 0.0
75 H20708 0.267472409559694 1.05161053380008 0.527628054301073 H 0.0 **** 0.0
76 H20710 0.279216897462552 1.05379328826159 0.546444379836854 H 0.0 **** 0.0
77 H20712 0.280197836305512 1.0775969652993 0.523500831628515 H 0.0 **** 0.0
78 H20714 0.287253285564738 1.05740094144744 0.500073409847212 H 0.0 **** 0.0
79 H20716 0.321656987742605 1.05530447797337 0.517882765837284 H 0.0 **** 0.0
80 H20718 0.316359981550536 1.04615863453365 0.498084228216259 H 0.0 **** 0.0
81 H20720 0.225565227520695 0.950498497859858 0.540699863449699 H 0.0 **** 0.0
82 H20722 0.239763552196329 0.943556664249664 0.556467279316455 H 0.0 **** 0.0
83 H20724 0.210763588294033 0.943104891234342 0.567657853574803 H 0.0 **** 0.0
84 H20726 0.207002310903097 0.96401262317338 0.561373045138341 H 0.0 **** 0.0
85 H20728 0.196390542748123 0.942019033454079 0.597834060712153 H 0.0 **** 0.0
86 H20730 0.213293631833858 0.930121772025486 0.589269811003377 H 0.0 **** 0.0
87 H20732 0.224884546865479 0.923762206977065 0.616688767961382 H 0.0 **** 0.0
88 H20734 0.203041623791819 0.919332931775963 0.617508254080031 H 0.0 **** 0.0
89 H20736 0.210806415339448 0.935539614027228 0.643293392463116 H 0.0 **** 0.0
90 H20738 0.198497285051969 0.948772901842264 0.630170943554859 H 0.0 **** 0.0
91 H20740 0.237125675409471 0.9478077032133 0.632602447312249 H 0.0 **** 0.0
92 H20742 0.211576192490889 0.975270728676571 0.64272679674823 H 0.0 **** 0.0
93 H20744 0.224432760871933 0.96295743705427 0.656183511873076 H 0.0 **** 0.0
94 H20746 0.259534139750888 1.00273387855665 0.609875529128937 H 0.0 **** 0.0
95 H20748 0.27322186579795 1.01534145105312 0.63475002325814 H 0.0 **** 0.0
96 H20750 0.314189918568222 0.920552310225956 0.44741762179769 H 0.0 **** 0.0
97 H20752 0.334173812327728 0.914948720300468 0.44045846761685 H 0.0 **** 0.0
98 H20754 0.339577136476272 0.945175939466495 0.430759827758977 H 0.0 **** 0.0
99 H20756 0.318944530126931 0.950805136374396 0.437639977354661 H 0.0 **** 0.0
100 H20758 0.321567190673671 0.936251860983376 0.420739947507581 H 0.0 **** 0.0
101 H20760 0.375904600721595 0.926147569876872 0.452809729115281 H 0.0 **** 0.0
102 H20762 0.35879946863634 0.924190047271505 0.439144876501479 H 0.0 **** 0.0
103 H20764 0.363648528717757 0.907314251526967 0.45315639156406 H 0.0 **** 0.0
104 H20766 0.30311090569188 0.956134055241609 0.471761737872716 H 0.0 **** 0.0
105 H20768 0.298226616304579 0.936606536104124 0.48186929128904 H 0.0 **** 0.0
106 H20770 0.300808687374065 0.937617925180042 0.459791763516065 H 0.0 **** 0.0
107 H20772 0.378349444070871 0.926142416229991 0.498367732830464 H 0.0 **** 0.0
108 H20774 0.384915386981979 0.940203443296491 0.4820272397609 H 0.0 **** 0.0
109 H20776 0.381392893727572 0.91837496592408 0.477923243938659 H 0.0 **** 0.0
110 H20778 0.380971414562197 0.969598256796529 0.530726095778695 H 0.0 **** 0.0
111 H20780 0.386072320432873 0.988062469200523 0.519009223914489 H 0.0 **** 0.0
112 H20782 0.383386306122646 0.969193888954613 0.50829896203575 H 0.0 **** 0.0
113 H20784 0.370379815450906 1.01707001518548 0.517917127783182 H 0.0 **** 0.0
114 H20786 0.374871793072159 1.00343985453313 0.535265020636936 H 0.0 **** 0.0
115 H20788 0.358090780499376 1.01725275714597 0.536847442447462 H 0.0 **** 0.0
116 H20790 0.332723467000876 1.03904932967954 0.519315107117112 H 0.0 **** 0.0
117 H20792 0.29374382245501 1.0879004595746 0.496966128863925 H 0.0 **** 0.0
118 H20794 0.308837334804011 1.07508630345062 0.486263812577399 H 0.0 **** 0.0
119 H20796 0.31412106410902 1.08465384269483 0.506012531948388 H 0.0 **** 0.0
120 H20798 0.29674058845024 1.07871292555007 0.549472702429334 H 0.0 **** 0.0
121 H20800 0.310183747415979 1.08464584443562 0.532629494519746 H 0.0 **** 0.0
122 H20802 0.31179661494344 1.06401951584911 0.541728038014265 H 0.0 **** 0.0
123 H20804 0.258206325596398 1.02643377106307 0.565132436266097 H 0.0 **** 0.0
124 H20806 0.263876352003254 0.971568151732053 0.509887416320034 H 0.0 **** 0.0
125 H20808 0.226449222701615 0.984036017285534 0.673932500642894 H 0.0 **** 0.0
126 H20810 0.244576298385283 0.993662955729919 0.682319355738517 H 0.0 **** 0.0
127 H20812 0.245445318540635 0.972142805448573 0.676273996096188 H 0.0 **** 0.0
128 H20814 0.259124280616082 1.01776765108146 0.674543090601204 H 0.0 **** 0.0
129 H20816 0.278396925453902 1.01699258867336 0.663194399955297 H 0.0 **** 0.0
130 H20818 0.272636573927386 0.999822624437263 0.676252062943768 H 0.0 **** 0.0
@<TRIPOS>BOND
1 3 2 Aromatic
2 4 3 Aromatic
3 5 4 Aromatic
4 6 5 Aromatic
5 1 2 Aromatic
6 1 6 Aromatic
7 8 7 1
8 9 8 Aromatic
9 10 9 1
10 4 7 1
11 3 10 1
12 12 11 Aromatic
13 13 12 Aromatic
14 14 13 Aromatic
15 9 11 Aromatic
16 8 14 Aromatic
17 16 15 Aromatic
18 17 16 Aromatic
19 18 17 Aromatic
20 14 15 Aromatic
21 13 18 Aromatic
22 20 19 1
23 21 20 1
24 22 21 Aromatic
25 17 19 1
26 16 22 Aromatic
27 24 23 1
28 25 24 Aromatic
29 26 25 1
30 20 23 1
31 19 26 1
32 28 27 Aromatic
33 29 28 Aromatic
34 30 29 Aromatic
35 22 27 Aromatic
36 21 30 Aromatic
37 32 31 1
38 33 32 Aromatic
39 34 33 1
40 29 31 1
41 28 34 1
42 36 35 1
43 37 36 1
44 38 37 Aromatic
45 33 35 1
46 32 38 Aromatic
47 40 39 Aromatic
48 41 40 Aromatic
49 42 41 Aromatic
50 38 39 Aromatic
51 37 42 Aromatic
52 44 43 1
53 45 44 1
54 46 45 1
55 42 43 1
56 41 46 1
57 48 47 1
58 49 48 Aromatic
59 40 49 Aromatic
60 46 47 1
61 51 50 Aromatic
62 52 51 Aromatic
63 53 52 Aromatic
64 49 50 Aromatic
65 48 53 Aromatic
66 6 54 1
67 54 55 1
68 1 56 1
69 5 57 1
70 2 58 1
71 11 59 1
72 12 60 1
73 18 61 1
74 25 62 1
75 24 63 1
76 30 64 1
77 27 65 1
78 34 66 Double
79 31 67 Double
80 53 68 1
81 52 69 1
82 7 70 1
83 7 71 1
84 10 72 1
85 10 73 1
86 15 74 1
87 23 75 1
88 23 76 1
89 24 77 1
90 25 78 1
91 26 79 1
92 26 80 1
93 35 81 1
94 35 82 1
95 36 83 1
96 36 84 1
97 43 85 1
98 43 86 1
99 44 87 1
100 44 88 1
101 45 89 1
102 45 90 1
103 46 91 1
104 47 92 1
105 47 93 1
106 50 94 1
107 51 95 1
108 54 96 1
109 54 97 1
110 55 98 1
111 55 99 1
112 55 100 1
113 56 101 1
114 56 102 1
115 56 103 1
116 57 104 1
117 57 105 1
118 57 106 1
119 58 107 1
120 58 108 1
121 58 109 1
122 59 110 1
123 59 111 1
124 59 112 1
125 60 113 1
126 60 114 1
127 60 115 1
128 61 116 1
129 62 117 1
130 62 118 1
131 62 119 1
132 63 120 1
133 63 121 1
134 63 122 1
135 64 123 1
136 65 124 1
137 68 125 1
138 68 126 1
139 68 127 1
140 69 128 1
141 69 129 1
142 69 130 1
@<TRIPOS>MOLECULE
Sketch 4
130 142
SMALL
USER_CHARGES


@<TRIPOS>ATOM
1 C20820 0.738145531121335 0.27641588547855 0.875208485358722 C.Trigonal 0.0 **** 0.0
2 C20821 0.74914224239494 0.279116571811402 0.888562061831201 C 0.0 **** 0.0
3 C20822 0.762125509383606 0.267777595067804 0.891417244658507 C.Trigonal 0.0 **** 0.0
4 C20823 0.76487501738438 0.254656172191334 0.880291604647764 C.Trigonal 0.0 **** 0.0
5 C20824 0.754352926440081 0.252313704003217 0.86649515272526 C 0.0 **** 0.0
6 C20825 0.740830796496187 0.263160893888069 0.864061418083769 C 0.0 **** 0.0
7 C20832 0.779935090165538 0.243219212201304 0.883734435942249 C 0.0 **** 0.0
8 C20833 0.781557931784023 0.239111694770952 0.902418720156287 C.Trigonal 0.0 **** 0.0
9 C20834 0.778573627139858 0.251929268186784 0.913761353332969 C.Trigonal 0.0 **** 0.0
10 C20835 0.773769915876509 0.269224514611116 0.906664878349204 C 0.0 **** 0.0
11 C20841 0.779882519335306 0.249141034130385 0.931064298732396 C 0.0 **** 0.0
12 C20842 0.782208937324689 0.232990644849524 0.937427010582886 C 0.0 **** 0.0
13 C20843 0.785928061859446 0.219833595032056 0.926091359956488 C.Trigonal 0.0 **** 0.0
14 C20844 0.78668134642934 0.22334235547674 0.908506631151284 C.Trigonal 0.0 **** 0.0
15 C20850 0.792696302432842 0.210912893423333 0.897549404091843 C 0.0 **** 0.0
16 C20851 0.794708691019724 0.193997226501075 0.902368575232476 C.Trigonal 0.0 **** 0.0
17 C20852 0.79185264175396 0.19027747072458 0.919668461208827 C.Trigonal 0.0 **** 0.0
18 C20853 0.789245019729414 0.20294753967809 0.93148679670898 C 0.0 **** 0.0
19 C20859 0.793395368893753 0.172072644579795 0.925207043311291 C.Trigonal 0.0 **** 0.0
20 C20860 0.802174823310422 0.160927105253494 0.915594188990518 C.Trigonal 0.0 **** 0.0
21 C20861 0.809041504388858 0.166724196988297 0.898676074996454 C.Trigonal 0.0 **** 0.0
22 C20862 0.801941359197044 0.181334178336603 0.891401783022743 C.Trigonal 0.0 **** 0.0
23 C20868 0.801557988657465 0.141792061941135 0.918668702470605 C 0.0 **** 0.0
24 C20869 0.791995398851004 0.136582304603915 0.934871656745417 C 0.0 **** 0.0
25 C20870 0.776561115289694 0.148185389128585 0.937593725270689 C 0.0 **** 0.0
26 C20871 0.782393630340819 0.166558616707225 0.940015589557058 C 0.0 **** 0.0
27 C20877 0.804949108115938 0.184180095790868 0.873957810103353 C 0.0 **** 0.0
28 C20878 0.817579316496395 0.175211507653345 0.86577729290581 C.Trigonal 0.0 **** 0.0
29 C20879 0.826916532873436 0.163216752287883 0.874353589915406 C.Trigonal 0.0 **** 0.0
30 C20880 0.822702906701244 0.158769584926948 0.890840301756455 C 0.0 **** 0.0
31 C20886 0.841066692282682 0.153844646912836 0.865614441231052 C 0.0 **** 0.0
32 C20887 0.84344619552874 0.156721503615036 0.847346834717361 C.Trigonal 0.0 **** 0.0
33 C20888 0.834337119695981 0.168534646580666 0.838967747756929 C.Trigonal 0.0 **** 0.0
34 C20889 0.821184934791218 0.178686809255195 0.847381561651531 C 0.0 **** 0.0
35 C20895 0.837436267124545 0.171912685595581 0.820333685592391 C 0.0 **** 0.0
36 C20896 0.841917481442476 0.155349082314266 0.810977708928806 C 0.0 **** 0.0
37 C20897 0.855406760560899 0.145172298999128 0.820198269739406 C.Trigonal 0.0 **** 0.0
38 C20898 0.856119611009384 0.14591655481789 0.838066464899009 C.Trigonal 0.0 **** 0.0
39 N20904 0.86679755687254 0.136134998104946 0.846861425823393 N 0.0 **** 0.0
40 C20905 0.876711925417918 0.125304494679472 0.838464320852085 C.Trigonal 0.0 **** 0.0
41 C20906 0.877128982634852 0.124437545380387 0.82055230997993 C.Trigonal 0.0 **** 0.0
42 C20907 0.86620282642758 0.134457977115508 0.811574834885088 C.Trigonal 0.0 **** 0.0
43 C20913 0.864972524897338 0.133250883510825 0.792328586539295 C 0.0 **** 0.0
44 C20914 0.879274412324903 0.122980365828747 0.784208495620936 C 0.0 **** 0.0
45 C20915 0.883378349482891 0.107298161744258 0.794609925238127 C 0.0 **** 0.0
46 C20916 0.889760677988155 0.112736708766497 0.812065638370436 C 0.0 **** 0.0
47 C20922 0.893328251297076 0.0974708780552755 0.823660344522864 C 0.0 **** 0.0
48 C20923 0.898049366744913 0.103653271556677 0.841093035025678 C.Trigonal 0.0 **** 0.0
49 C20924 0.88751537330551 0.115592414242567 0.848806969986691 C.Trigonal 0.0 **** 0.0
50 C20929 0.89010787997058 0.11949663964765 0.866001430792057 C 0.0 **** 0.0
51 C20930 0.904685298054467 0.114235113259421 0.873818389753104 C 0.0 **** 0.0
52 C20931 0.916347069634906 0.10420899086539 0.865408959514835 C 0.0 **** 0.0
53 C20932 0.912738072965704 0.0985469173474666 0.849110904096959 C 0.0 **** 0.0
54 C20938 0.728859746866456 0.260637066128786 0.849279181982364 C 0.0 **** 0.0
55 C20940 0.715641830300275 0.247281403548024 0.85384743365345 C 0.0 **** 0.0
56 C20942 0.723192267865312 0.288151734011114 0.872766712384673 C 0.0 **** 0.0
57 C20944 0.75793874367865 0.237660875291874 0.854659856850141 C 0.0 **** 0.0
58 C20946 0.746796722248662 0.294254273737584 0.900081057193879 C 0.0 **** 0.0
59 C20948 0.778005734023413 0.26411818099713 0.94296644923394 C 0.0 **** 0.0
60 C20950 0.780627176980145 0.230542943243711 0.956389661632648 C 0.0 **** 0.0
61 O20952 0.789733023396939 0.199396946160422 0.948437579927215 O 0.0 **** 0.0
62 C20954 0.765892493798954 0.142485078128644 0.952839140700586 C 0.0 **** 0.0
63 C20956 0.804176646622162 0.136413375496796 0.950104537996349 C 0.0 **** 0.0
64 O20958 0.831306810699308 0.146406542486873 0.899533945167885 O 0.0 **** 0.0
65 O20960 0.795547250063271 0.196143532433663 0.865599217336007 O 0.0 **** 0.0
66 O20962 0.81326640531044 0.189599178017476 0.839962659222223 O 0.0 **** 0.0
67 O20964 0.849503443608766 0.144113485463092 0.874046045496134 O 0.0 **** 0.0
68 C20966 0.924795931975925 0.0869592078435281 0.839932091372679 C 0.0 **** 0.0
69 C20968 0.932603759100996 0.0999612193370032 0.87451143859741 C 0.0 **** 0.0
70 H20970 0.778686076668118 0.231560516655696 0.876420974624732 H 0.0 **** 0.0
71 H20972 0.791659229211783 0.249360055144114 0.879222651083132 H 0.0 **** 0.0
72 H20974 0.785275946665722 0.276395197372468 0.903276045696036 H 0.0 **** 0.0
73 H20976 0.767277559577926 0.276519478376917 0.916465383550231 H 0.0 **** 0.0
74 H20978 0.795604871682622 0.214990356982296 0.884699588708731 H 0.0 **** 0.0
75 H20980 0.795157004078227 0.135830030549717 0.907815525768581 H 0.0 **** 0.0
76 H20982 0.814194871295502 0.13609916418311 0.919353943368527 H 0.0 **** 0.0
77 H20984 0.787364299536333 0.12357312108219 0.933075372832488 H 0.0 **** 0.0
78 H20986 0.768520431724991 0.147487446840321 0.92622419586373 H 0.0 **** 0.0
79 H20988 0.789316718885102 0.167657191459905 0.9520283409031 H 0.0 **** 0.0
80 H20990 0.770981323906377 0.174522847585467 0.941050042577459 H 0.0 **** 0.0
81 H20992 0.826414208383858 0.177714694071448 0.814020785340023 H 0.0 **** 0.0
82 H20994 0.847928846720037 0.180978477616278 0.818979362674547 H 0.0 **** 0.0
83 H20996 0.845871037649385 0.158753434957785 0.798103778994391 H 0.0 **** 0.0
84 H20998 0.830406914620728 0.147547665002829 0.809677115303764 H 0.0 **** 0.0
85 H21000 0.852787800407097 0.127274820286361 0.789089938395274 H 0.0 **** 0.0
86 H21002 0.864896452745437 0.145913882242522 0.786536361629469 H 0.0 **** 0.0
87 H21004 0.890731455170177 0.13086162472939 0.78339562207806 H 0.0 **** 0.0
88 H21006 0.875953679253407 0.119622293994676 0.77109974137116 H 0.0 **** 0.0
89 H21008 0.89308074107025 0.0996142858537577 0.788209808251038 H 0.0 **** 0.0
90 H21010 0.872064990829882 0.099249354576911 0.795833641872871 H 0.0 **** 0.0
91 H21012 0.901784020829648 0.119653415421357 0.81026928074123 H 0.0 **** 0.0
92 H21014 0.88194622865385 0.0894118763677584 0.824443081362719 H 0.0 **** 0.0
93 H21016 0.903144737860784 0.0896200068185254 0.81787760986588 H 0.0 **** 0.0
94 H21018 0.881626849806034 0.128299481405734 0.872569273745955 H 0.0 **** 0.0
95 H21020 0.907240400804054 0.118176444225306 0.886887013425747 H 0.0 **** 0.0
96 H21022 0.735630259408902 0.256814328469431 0.837783017888514 H 0.0 **** 0.0
97 H21024 0.722527154130555 0.272459851618221 0.845605744935093 H 0.0 **** 0.0
98 H21026 0.707581791015851 0.251620894492417 0.86431700847437 H 0.0 **** 0.0
99 H21028 0.721636049637269 0.235400345284044 0.857856923519957 H 0.0 **** 0.0
100 H21030 0.707457989493558 0.244391081724713 0.843001358911868 H 0.0 **** 0.0
101 H21032 0.711951749560307 0.28139258294525 0.868186868005672 H 0.0 **** 0.0
102 H21034 0.726180243869713 0.29821168320621 0.863628034982612 H 0.0 **** 0.0
103 H21036 0.719207496069269 0.294238698007983 0.884582783162629 H 0.0 **** 0.0
104 H21038 0.770866385074281 0.238434559472052 0.849536351609634 H 0.0 **** 0.0
105 H21040 0.749468368941933 0.236871517908567 0.84375533295088 H 0.0 **** 0.0
106 H21042 0.756726945197133 0.225518109074081 0.861386092115497 H 0.0 **** 0.0
107 H21044 0.758790976040042 0.298646716664416 0.905535495241324 H 0.0 **** 0.0
108 H21046 0.738116881847205 0.291347502328993 0.910586516209889 H 0.0 **** 0.0
109 H21048 0.741736612976134 0.30524101160589 0.89324396564429 H 0.0 **** 0.0
110 H21050 0.785827647547383 0.262762778988869 0.954376303921891 H 0.0 **** 0.0
111 H21052 0.764760366636138 0.265822668606658 0.946934279781746 H 0.0 **** 0.0
112 H21054 0.782336937168241 0.276001516814695 0.937223087872192 H 0.0 **** 0.0
113 H21056 0.772214350055193 0.219881086686689 0.959440944045587 H 0.0 **** 0.0
114 H21058 0.77486374970991 0.241306496555614 0.962945958747186 H 0.0 **** 0.0
115 H21060 0.79301916469762 0.228237037379178 0.962311678131426 H 0.0 **** 0.0
116 H21062 0.793726500419282 0.188189851174065 0.949732365080565 H 0.0 **** 0.0
117 H21064 0.762289977773659 0.129122179693693 0.951528037005634 H 0.0 **** 0.0
118 H21066 0.754256781820587 0.150053615178902 0.953686474844458 H 0.0 **** 0.0
119 H21068 0.772898885403761 0.144028765025753 0.964746602852801 H 0.0 **** 0.0
120 H21070 0.814577968658747 0.127504786755897 0.947767591513161 H 0.0 **** 0.0
121 H21072 0.797645711681699 0.132248191115259 0.961639121674423 H 0.0 **** 0.0
122 H21074 0.809671812368244 0.148967511117163 0.952347615082209 H 0.0 **** 0.0
123 H21076 0.840564845931886 0.142592831128121 0.892756303502318 H 0.0 **** 0.0
124 H21078 0.797526095538487 0.19511401794643 0.853736588995892 H 0.0 **** 0.0
125 H21080 0.918837232374217 0.0746935680192722 0.837320654986075 H 0.0 **** 0.0
126 H21082 0.936440922558226 0.0843278902293629 0.846932997042412 H 0.0 **** 0.0
127 H21084 0.928577020768913 0.0925316610781724 0.827760809697482 H 0.0 **** 0.0
128 H21086 0.931353911370349 0.101729282808964 0.888226806404672 H 0.0 **** 0.0
129 H21088 0.943024115951014 0.108123258100854 0.870191467082944 H 0.0 **** 0.0
130 H21090 0.936557894559752 0.0868176070781947 0.872605590316925 H 0.0 **** 0.0
@<TRIPOS>BOND
1 3 2 Aromatic
2 4 3 Aromatic
3 5 4 Aromatic
4 6 5 Aromatic
5 1 2 Aromatic
6 1 6 Aromatic
7 8 7 1
8 9 8 Aromatic
9 10 9 1
10 4 7 1
11 3 10 1
12 12 11 Aromatic
13 13 12 Aromatic
14 14 13 Aromatic
15 9 11 Aromatic
16 8 14 Aromatic
17 16 15 Aromatic
18 17 16 Aromatic
19 18 17 Aromatic
20 14 15 Aromatic
21 13 18 Aromatic
22 20 19 1
23 21 20 1
24 22 21 Aromatic
25 17 19 1
26 16 22 Aromatic
27 24 23 1
28 25 24 Aromatic
29 26 25 1
30 20 23 1
31 19 26 1
32 28 27 Aromatic
33 29 28 Aromatic
34 30 29 Aromatic
35 22 27 Aromatic
36 21 30 Aromatic
37 32 31 1
38 33 32 Aromatic
39 34 33 1
40 29 31 1
41 28 34 1
42 36 35 1
43 37 36 1
44 38 37 Aromatic
45 33 35 1
46 32 38 Aromatic
47 40 39 Aromatic
48 41 40 Aromatic
49 42 41 Aromatic
50 38 39 Aromatic
51 37 42 Aromatic
52 44 43 1
53 45 44 1
54 46 45 1
55 42 43 1
56 41 46 1
57 48 47 1
58 49 48 Aromatic
59 40 49 Aromatic
60 46 47 1
61 51 50 Aromatic
62 52 51 Aromatic
63 53 52 Aromatic
64 49 50 Aromatic
65 48 53 Aromatic
66 6 54 1
67 54 55 1
68 1 56 1
69 5 57 1
70 2 58 1
71 11 59 1
72 12 60 1
73 18 61 1
74 25 62 1
75 24 63 1
76 30 64 1
77 27 65 1
78 34 66 Double
79 31 67 Double
80 53 68 1
81 52 69 1
82 7 70 1
83 7 71 1
84 10 72 1
85 10 73 1
86 15 74 1
87 23 75 1
88 23 76 1
89 24 77 1
90 25 78 1
91 26 79 1
92 26 80 1
93 35 81 1
94 35 82 1
95 36 83 1
96 36 84 1
97 43 85 1
98 43 86 1
99 44 87 1
100 44 88 1
101 45 89 1
102 45 90 1
103 46 91 1
104 47 92 1
105 47 93 1
106 50 94 1
107 51 95 1
108 54 96 1
109 54 97 1
110 55 98 1
111 55 99 1
112 55 100 1
113 56 101 1
114 56 102 1
115 56 103 1
116 57 104 1
117 57 105 1
118 57 106 1
119 58 107 1
120 58 108 1
121 58 109 1
122 59 110 1
123 59 111 1
124 59 112 1
125 60 113 1
126 60 114 1
127 60 115 1
128 61 116 1
129 62 117 1
130 62 118 1
131 62 119 1
132 63 120 1
133 63 121 1
134 63 122 1
135 64 123 1
136 65 124 1
137 68 125 1
138 68 126 1
139 68 127 1
140 69 128 1
141 69 129 1
142 69 130 1
@<TRIPOS>MOLECULE
Sketch 4
130 142
SMALL
USER_CHARGES


@<TRIPOS>ATOM
1 C21092 0.531095034945781 0.912128934430391 0.546756606670805 C.Trigonal 0.0 **** 0.0
2 C21093 0.54206831089576 0.913030523333143 0.560350540458007 C 0.0 **** 0.0
3 C21094 0.557880863292823 0.905895830738639 0.558930677298763 C.Trigonal 0.0 **** 0.0
4 C21095 0.563115822777086 0.898933221452827 0.543805287364055 C.Trigonal 0.0 **** 0.0
5 C21096 0.552604850377651 0.898973762954975 0.529849207068997 C 0.0 **** 0.0
6 C21097 0.536512888997128 0.905707343303189 0.531340331803209 C 0.0 **** 0.0
7 C21104 0.580600100904056 0.891002941665487 0.543859974478898 C 0.0 **** 0.0
8 C21105 0.581610776534964 0.879569927354733 0.559187723598374 C.Trigonal 0.0 **** 0.0
9 C21106 0.576077546458756 0.886204865947101 0.574312382946167 C.Trigonal 0.0 **** 0.0
10 C21107 0.570084015995385 0.9044483321251 0.573623340060941 C 0.0 **** 0.0
11 C21113 0.576029727890468 0.876677616433184 0.589065328778932 C 0.0 **** 0.0
12 C21114 0.581236166297703 0.859964993515643 0.588805614582992 C 0.0 **** 0.0
13 C21115 0.585083024911281 0.852563388511132 0.573178724304891 C.Trigonal 0.0 **** 0.0
14 C21116 0.587544695258666 0.863000820946041 0.558808090703298 C.Trigonal 0.0 **** 0.0
15 C21122 0.596006592171496 0.856281011606403 0.544690623265689 C 0.0 **** 0.0
16 C21123 0.600718178741431 0.839343635687126 0.544227080498748 C.Trigonal 0.0 **** 0.0
17 C21124 0.591689336759722 0.828699474948766 0.555254510539369 C.Trigonal 0.0 **** 0.0
18 C21125 0.585506395934088 0.83470508806124 0.570589322014697 C 0.0 **** 0.0
19 C21131 0.591366914558887 0.810344625148177 0.550745849015681 C.Trigonal 0.0 **** 0.0
20 C21132 0.604039057167942 0.803862029820561 0.541151799672365 C.Trigonal 0.0 **** 0.0
21 C21133 0.618868882429325 0.815183351255082 0.536419059218146 C.Trigonal 0.0 **** 0.0
22 C21134 0.616134029484977 0.832836720838683 0.537009000160147 C.Trigonal 0.0 **** 0.0
23 C21140 0.602600724405039 0.786447771682151 0.533030341051991 C 0.0 **** 0.0
24 C21141 0.583897331575786 0.781170783031827 0.531205394139156 C 0.0 **** 0.0
25 C21142 0.574193516100315 0.783317217253467 0.548010118539976 C 0.0 **** 0.0
26 C21143 0.574112544180384 0.80206835250456 0.552937646810372 C 0.0 **** 0.0
27 C21149 0.629845594374548 0.843730922547609 0.533024555480731 C 0.0 **** 0.0
28 C21150 0.645316006634246 0.836957782584877 0.52856678308569 C.Trigonal 0.0 **** 0.0
29 C21151 0.647820373835565 0.819675569154435 0.527920150257246 C.Trigonal 0.0 **** 0.0
30 C21152 0.634736279453158 0.808710045838639 0.532211891034382 C 0.0 **** 0.0
31 C21158 0.664840771917021 0.812578339233655 0.522462137048864 C 0.0 **** 0.0
32 C21159 0.678205556124725 0.824672454764327 0.517500176510593 C.Trigonal 0.0 **** 0.0
33 C21160 0.675501195271829 0.84154828570143 0.518417648709741 C.Trigonal 0.0 **** 0.0
34 C21161 0.659533357675281 0.848832419365668 0.524282041135019 C 0.0 **** 0.0
35 C21167 0.689048528201688 0.853958865814771 0.512922297346887 C 0.0 **** 0.0
36 C21168 0.697557221471937 0.846783533634326 0.496980646844264 C 0.0 **** 0.0
37 C21169 0.704711829199501 0.829437965418098 0.500764493682078 C.Trigonal 0.0 **** 0.0
38 C21170 0.695164973613129 0.818393039022106 0.511189432619951 C.Trigonal 0.0 **** 0.0
39 N21176 0.701334036697387 0.80326845859336 0.515923333850858 N 0.0 **** 0.0
40 C21177 0.716242923356973 0.798355466317181 0.509401829879947 C.Trigonal 0.0 **** 0.0
41 C21178 0.725706232736905 0.808410138792415 0.497904155049634 C.Trigonal 0.0 **** 0.0
42 C21179 0.71986074272441 0.82419042284495 0.493959262288909 C.Trigonal 0.0 **** 0.0
43 C21185 0.72938375601043 0.835792224956148 0.481793306039465 C 0.0 **** 0.0
44 C21186 0.746606928220879 0.828968168233069 0.475998563892915 C 0.0 **** 0.0
45 C21187 0.746423065746332 0.80976138022082 0.474150933713912 C 0.0 **** 0.0
46 C21188 0.742749400085276 0.80223896719789 0.491607045685101 C 0.0 **** 0.0
47 C21194 0.74334408644245 0.782841471933074 0.4923699809637 C 0.0 **** 0.0
48 C21195 0.738688072225771 0.777693212248858 0.510136211681151 C.Trigonal 0.0 **** 0.0
49 C21196 0.723368176229981 0.783734818772032 0.516736651020495 C.Trigonal 0.0 **** 0.0
50 C21201 0.717948970388837 0.777813169614643 0.532657579942367 C 0.0 **** 0.0
51 C21202 0.728673176301068 0.7681708238411 0.542316471223139 C 0.0 **** 0.0
52 C21203 0.744576364203182 0.763691114986474 0.536466965128861 C 0.0 **** 0.0
53 C21204 0.749608632137822 0.768502576693423 0.520261141937029 C 0.0 **** 0.0
54 C21210 0.52468440172597 0.906125513254689 0.516217956563204 C 0.0 **** 0.0
55 C21212 0.515630452642679 0.889141974149092 0.514368038671897 C 0.0 **** 0.0
56 C21214 0.513177299862395 0.918491328347081 0.548869502636996 C 0.0 **** 0.0
57 C21216 0.558998215809673 0.891178065020782 0.513566592619659 C 0.0 **** 0.0
58 C21218 0.536782466021852 0.921232835153063 0.576796869410097 C 0.0 **** 0.0
59 C21220 0.569990613655234 0.885034654773917 0.605265436413643 C 0.0 **** 0.0
60 C21222 0.581817264446687 0.850215018419354 0.605241964478806 C 0.0 **** 0.0
61 O21224 0.5800961914893 0.823982260930514 0.583023195057042 O 0.0 **** 0.0
62 C21226 0.581375954496909 0.772679728001883 0.56267281105441 C 0.0 **** 0.0
63 C21228 0.582394368536895 0.762964619081353 0.524629770113045 C 0.0 **** 0.0
64 O21230 0.637002573716257 0.791451201097852 0.53257473015719 O 0.0 **** 0.0
65 O21232 0.627522924012589 0.860875265519032 0.534023606013582 O 0.0 **** 0.0
66 O21234 0.657583047187305 0.864037680219252 0.525666697765017 O 0.0 **** 0.0
67 O21236 0.66660634318671 0.79731218529451 0.521962478025709 O 0.0 **** 0.0
68 C21238 0.767045065908087 0.763907860178038 0.51378394273731 C 0.0 **** 0.0
69 C21240 0.755926464465061 0.753699064492691 0.548139213017982 C 0.0 **** 0.0
70 H21242 0.582957850266692 0.884025904868318 0.532181190583031 H 0.0 **** 0.0
71 H21244 0.590457685060085 0.900885431933419 0.544479106391636 H 0.0 **** 0.0
72 H21246 0.581000042736227 0.912948593888578 0.571633323073365 H 0.0 **** 0.0
73 H21248 0.564416017505606 0.908517356496503 0.585514112706975 H 0.0 **** 0.0
74 H21250 0.600078072173042 0.865041250756814 0.534787979336941 H 0.0 **** 0.0
75 H21252 0.608359265445542 0.786341490489435 0.520332633755375 H 0.0 **** 0.0
76 H21254 0.609410107738303 0.777046846312288 0.540663295235219 H 0.0 **** 0.0
77 H21256 0.577985398638739 0.789524377771303 0.521778239442531 H 0.0 **** 0.0
78 H21258 0.560993248471617 0.779404542718231 0.545949881102658 H 0.0 **** 0.0
79 H21260 0.568968183446795 0.803146570525803 0.565793556412266 H 0.0 **** 0.0
80 H21262 0.565058363106145 0.808694928936114 0.544637837695723 H 0.0 **** 0.0
81 H21264 0.683874304884227 0.866529999238887 0.50984102364561 H 0.0 **** 0.0
82 H21266 0.698345674012519 0.855828837298361 0.523116387744345 H 0.0 **** 0.0
83 H21268 0.707069800223876 0.85579374271067 0.492419601264328 H 0.0 **** 0.0
84 H21270 0.688050036122436 0.845631523878948 0.486930889175646 H 0.0 **** 0.0
85 H21272 0.721401255828852 0.837731291890613 0.470548547530397 H 0.0 **** 0.0
86 H21274 0.73135821737782 0.848353437052988 0.487485584458924 H 0.0 **** 0.0
87 H21276 0.756272021313059 0.832321838494024 0.485486719144541 H 0.0 **** 0.0
88 H21278 0.750489079020353 0.835253148073856 0.464178274101838 H 0.0 **** 0.0
89 H21280 0.758731766154213 0.805246214307162 0.469427047041317 H 0.0 **** 0.0
90 H21282 0.736783510841281 0.805790243551196 0.464896444020836 H 0.0 **** 0.0
91 H21284 0.752595625883288 0.806892498213145 0.500291063079886 H 0.0 **** 0.0
92 H21286 0.734355803681257 0.777358130233437 0.483211395795434 H 0.0 **** 0.0
93 H21288 0.755927031688558 0.778445289060402 0.488558554619785 H 0.0 **** 0.0
94 H21290 0.706075778792448 0.782491651055875 0.538057640545814 H 0.0 **** 0.0
95 H21292 0.724710965210046 0.764196970036587 0.555025163706371 H 0.0 **** 0.0
96 H21294 0.531504681641124 0.909197298637539 0.504485773627112 H 0.0 **** 0.0
97 H21296 0.515328735847993 0.916348208237596 0.517378847073129 H 0.0 **** 0.0
98 H21298 0.524684275733088 0.878846009338294 0.512021349609769 H 0.0 **** 0.0
99 H21300 0.506551559673026 0.889317150502013 0.503845267269881 H 0.0 **** 0.0
100 H21302 0.508615992152292 0.885979428795335 0.525942300347533 H 0.0 **** 0.0
101 H21304 0.508624675589035 0.917195205139313 0.56192471428595 H 0.0 **** 0.0
102 H21306 0.504269294569915 0.911162116023507 0.54119605166364 H 0.0 **** 0.0
103 H21308 0.511977116300668 0.931894146893538 0.545307224506463 H 0.0 **** 0.0
104 H21310 0.561345648228427 0.877540936819309 0.515220668832885 H 0.0 **** 0.0
105 H21312 0.570945117125038 0.897120694085021 0.509615303541261 H 0.0 **** 0.0
106 H21314 0.5503130438852 0.892324778232717 0.502852492644844 H 0.0 **** 0.0
107 H21316 0.547294897275745 0.928073917541575 0.582792974036335 H 0.0 **** 0.0
108 H21318 0.532178486125282 0.9116428114819 0.585752509336786 H 0.0 **** 0.0
109 H21320 0.526808307629759 0.930749303798623 0.575130464244224 H 0.0 **** 0.0
110 H21322 0.579078559535863 0.894644794318797 0.609638901904925 H 0.0 **** 0.0
111 H21324 0.567973055076631 0.876201152454773 0.615745772242764 H 0.0 **** 0.0
112 H21326 0.557665278434751 0.891232468289969 0.603426017226743 H 0.0 **** 0.0
113 H21328 0.569490694561376 0.844526519341057 0.608321864486779 H 0.0 **** 0.0
114 H21330 0.585716059863979 0.858244982219289 0.615879828862828 H 0.0 **** 0.0
115 H21332 0.59134743126895 0.840104899761182 0.604994068717236 H 0.0 **** 0.0
116 H21334 0.583496748263281 0.812889020982261 0.58001857478501 H 0.0 **** 0.0
117 H21336 0.580058723589124 0.759123093161002 0.559973436605416 H 0.0 **** 0.0
118 H21338 0.574334596984053 0.775246173272452 0.574392498752185 H 0.0 **** 0.0
119 H21340 0.594770953217938 0.77558276068103 0.564945715138097 H 0.0 **** 0.0
120 H21342 0.589969303853463 0.761362798515047 0.513110017500527 H 0.0 **** 0.0
121 H21344 0.569149815594499 0.75996203636049 0.521645680608548 H 0.0 **** 0.0
122 H21346 0.586911250314037 0.753870496892177 0.534066921399814 H 0.0 **** 0.0
123 H21348 0.64831426132405 0.788970121777992 0.529101485337324 H 0.0 **** 0.0
124 H21350 0.638065501359093 0.866385189477118 0.531923542940402 H 0.0 **** 0.0
125 H21352 0.766407358140989 0.75702674040662 0.501713039171484 H 0.0 **** 0.0
126 H21354 0.774201374520612 0.755844317389251 0.522494137952424 H 0.0 **** 0.0
127 H21356 0.774736105564738 0.775339521791228 0.511693985426793 H 0.0 **** 0.0
128 H21358 0.760584829638544 0.742116283634445 0.542035909657065 H 0.0 **** 0.0
129 H21360 0.749222248306737 0.74974876718946 0.559622355510102 H 0.0 **** 0.0
130 H21362 0.766976681113007 0.761178623744098 0.552119184479876 H 0.0 **** 0.0
@<TRIPOS>BOND
1 3 2 Aromatic
2 4 3 Aromatic
3 5 4 Aromatic
4 6 5 Aromatic
5 1 2 Aromatic
6 1 6 Aromatic
7 8 7 1
8 9 8 Aromatic
9 10 9 1
10 4 7 1
11 3 10 1
12 12 11 Aromatic
13 13 12 Aromatic
14 14 13 Aromatic
15 9 11 Aromatic
16 8 14 Aromatic
17 16 15 Aromatic
18 17 16 Aromatic
19 18 17 Aromatic
20 14 15 Aromatic
21 13 18 Aromatic
22 20 19 1
23 21 20 1
24 22 21 Aromatic
25 17 19 1
26 16 22 Aromatic
27 24 23 1
28 25 24 Aromatic
29 26 25 1
30 20 23 1
31 19 26 1
32 28 27 Aromatic
33 29 28 Aromatic
34 30 29 Aromatic
35 22 27 Aromatic
36 21 30 Aromatic
37 32 31 1
38 33 32 Aromatic
39 34 33 1
40 29 31 1
41 28 34 1
42 36 35 1
43 37 36 1
44 38 37 Aromatic
45 33 35 1
46 32 38 Aromatic
47 40 39 Aromatic
48 41 40 Aromatic
49 42 41 Aromatic
50 38 39 Aromatic
51 37 42 Aromatic
52 44 43 1
53 45 44 1
54 46 45 1
55 42 43 1
56 41 46 1
57 48 47 1
58 49 48 Aromatic
59 40 49 Aromatic
60 46 47 1
61 51 50 Aromatic
62 52 51 Aromatic
63 53 52 Aromatic
64 49 50 Aromatic
65 48 53 Aromatic
66 6 54 1
67 54 55 1
68 1 56 1
69 5 57 1
70 2 58 1
71 11 59 1
72 12 60 1
73 18 61 1
74 25 62 1
75 24 63 1
76 30 64 1
77 27 65 1
78 34 66 Double
79 31 67 Double
80 53 68 1
81 52 69 1
82 7 70 1
83 7 71 1
84 10 72 1
85 10 73 1
86 15 74 1
87 23 75 1
88 23 76 1
89 24 77 1
90 25 78 1
91 26 79 1
92 26 80 1
93 35 81 1
94 35 82 1
95 36 83 1
96 36 84 1
97 43 85 1
98 43 86 1
99 44 87 1
100 44 88 1
101 45 89 1
102 45 90 1
103 46 91 1
104 47 92 1
105 47 93 1
106 50 94 1
107 51 95 1
108 54 96 1
109 54 97 1
110 55 98 1
111 55 99 1
112 55 100 1
113 56 101 1
114 56 102 1
115 56 103 1
116 57 104 1
117 57 105 1
118 57 106 1
119 58 107 1
120 58 108 1
121 58 109 1
122 59 110 1
123 59 111 1
124 59 112 1
125 60 113 1
126 60 114 1
127 60 115 1
128 61 116 1
129 62 117 1
130 62 118 1
131 62 119 1
132 63 120 1
133 63 121 1
134 63 122 1
135 64 123 1
136 65 124 1
137 68 125 1
138 68 126 1
139 68 127 1
140 69 128 1
141 69 129 1
142 69 130 1
@<TRIPOS>MOLECULE
Sketch 4
130 142
SMALL
USER_CHARGES


@<TRIPOS>ATOM
1 C21364 0.0600890840484578 0.0424348804829667 0.692503568907264 C.Trigonal 0.0 **** 0.0
2 C21365 0.064662836187741 0.057629064213227 0.699918297705199 C 0.0 **** 0.0
3 C21366 0.0797753056157223 0.058990277480913 0.708713246925137 C.Trigonal 0.0 **** 0.0
4 C21367 0.0902642539538207 0.0452309496533249 0.710215607337986 C.Trigonal 0.0 **** 0.0
5 C21368 0.0857447416507391 0.0299966398535005 0.702792531531 C 0.0 **** 0.0
6 C21369 0.0706390974655345 0.0285658956528304 0.694004732049357 C 0.0 **** 0.0
7 C21376 0.106773164862881 0.0465703087280846 0.72007798494164 C 0.0 **** 0.0
8 C21377 0.112520456402899 0.0639908083817059 0.72595768170137 C.Trigonal 0.0 **** 0.0
9 C21378 0.102160090656055 0.0777544579751645 0.724060605724931 C.Trigonal 0.0 **** 0.0
10 C21379 0.0844348074409901 0.0758369917040977 0.716720007391528 C 0.0 **** 0.0
11 C21385 0.107615581550968 0.0938635660590238 0.728641225545344 C 0.0 **** 0.0
12 C21386 0.123802424742723 0.0966376759906243 0.73467576865315 C 0.0 **** 0.0
13 C21387 0.133782731783402 0.0825926637488191 0.73872494198778 C.Trigonal 0.0 **** 0.0
14 C21388 0.128296011534019 0.0662173277184653 0.733809923344762 C.Trigonal 0.0 **** 0.0
15 C21394 0.139025720039149 0.0524362616341837 0.736880390100071 C 0.0 **** 0.0
16 C21395 0.155323763956146 0.0542863323538687 0.743441912766582 C.Trigonal 0.0 **** 0.0
17 C21396 0.158635687927813 0.0697695760147302 0.751770785353996 C.Trigonal 0.0 **** 0.0
18 C21397 0.148798741932189 0.0839903395393181 0.748564380043884 C 0.0 **** 0.0
19 C21403 0.173929338949741 0.0705582927409763 0.763214358723055 C.Trigonal 0.0 **** 0.0
20 C21404 0.185868642447785 0.0581761146240702 0.76275028131675 C.Trigonal 0.0 **** 0.0
21 C21405 0.183832478773451 0.0432727388193561 0.750545648379383 C.Trigonal 0.0 **** 0.0
22 C21406 0.168780989995972 0.0422788620574198 0.740876470444826 C.Trigonal 0.0 **** 0.0
23 C21412 0.201179310861922 0.0584417423969774 0.774688523021275 C 0.0 **** 0.0
24 C21413 0.202331469882382 0.0741280432854766 0.786122481030248 C 0.0 **** 0.0
25 C21414 0.184454174832684 0.07890712569674 0.792054531091922 C 0.0 **** 0.0
26 C21415 0.173848832676036 0.0843046888548519 0.776768011917793 C 0.0 **** 0.0
27 C21421 0.167739419844958 0.0296618515556315 0.728017186494006 C 0.0 **** 0.0
28 C21422 0.180223213653565 0.0175167421946126 0.726593861126876 C.Trigonal 0.0 **** 0.0
29 C21423 0.19403949324542 0.0176951326635332 0.737200848936865 C.Trigonal 0.0 **** 0.0
30 C21424 0.195989281942917 0.0305049384520956 0.749078714629899 C 0.0 **** 0.0
31 C21430 0.207680256761374 0.00432157213869172 0.73557724614431 C 0.0 **** 0.0
32 C21431 0.206272611822691 -0.00807114335097855 0.721760077323735 C.Trigonal 0.0 **** 0.0
33 C21432 0.192690323108035 -0.00823865161443593 0.71134676333236 C.Trigonal 0.0 **** 0.0
34 C21433 0.178812095852237 0.00407849383459819 0.713082464813817 C 0.0 **** 0.0
35 C21439 0.191165831352364 -0.0212614528163589 0.697288346891953 C 0.0 **** 0.0
36 C21440 0.200141101311085 -0.0378585157034535 0.702449235333434 C 0.0 **** 0.0
37 C21441 0.218039965372474 -0.0345129611920834 0.708474111384943 C.Trigonal 0.0 **** 0.0
38 C21442 0.220642206866123 -0.0203217065242327 0.719054464260188 C.Trigonal 0.0 **** 0.0
39 N21448 0.2357898663623 -0.0170551974339137 0.725846497995689 N 0.0 **** 0.0
40 C21449 0.248649494331159 -0.0275419555402334 0.722417189866572 C.Trigonal 0.0 **** 0.0
41 C21450 0.247147050633426 -0.0413083729031671 0.711077155429939 C.Trigonal 0.0 **** 0.0
42 C21451 0.2315536468606 -0.0447431007050434 0.704281545226289 C.Trigonal 0.0 **** 0.0
43 C21457 0.228945430299248 -0.0596998820524322 0.692389196329398 C 0.0 **** 0.0
44 C21458 0.24558806995344 -0.066961031920998 0.685568315682588 C 0.0 **** 0.0
45 C21459 0.258583754462917 -0.0686157383503398 0.699691052596466 C 0.0 **** 0.0
46 C21460 0.263038108053633 -0.0509565770404945 0.706237687567265 C 0.0 **** 0.0
47 C21466 0.275543490838692 -0.0515158103067494 0.721256755318521 C 0.0 **** 0.0
48 C21467 0.277960812969287 -0.0340159217549167 0.728696248618287 C.Trigonal 0.0 **** 0.0
49 C21468 0.264054879722077 -0.0230786475654851 0.730077448948087 C.Trigonal 0.0 **** 0.0
50 C21473 0.266034197330735 -0.00742396796848758 0.738451503270014 C 0.0 **** 0.0
51 C21474 0.281641628022603 -0.00271432129042245 0.744272585724536 C 0.0 **** 0.0
52 C21475 0.295579472532752 -0.0131025245292206 0.742176503387206 C 0.0 **** 0.0
53 C21476 0.293636666215629 -0.0289097329764832 0.734581361153861 C 0.0 **** 0.0
54 C21482 0.0657906040314915 0.0117161059830862 0.686156914890914 C 0.0 **** 0.0
55 C21484 0.0536722305299538 0.00210698279248822 0.697845723649071 C 0.0 **** 0.0
56 C21486 0.0434034913354018 0.0415062011916554 0.683054750654693 C 0.0 **** 0.0
57 C21488 0.0974326071832366 0.0148305622270803 0.704042040799086 C 0.0 **** 0.0
58 C21490 0.0532741100890608 0.0730019253282354 0.69832612716308 C 0.0 **** 0.0
59 C21492 0.0956647518741462 0.108801938411777 0.726469941959655 C 0.0 **** 0.0
60 C21494 0.129301841132591 0.114829371575109 0.737292450640788 C 0.0 **** 0.0
61 O21496 0.153327543157424 0.0995678524754834 0.75473887733033 O 0.0 **** 0.0
62 C21498 0.184832478314436 0.0929002940071656 0.805490461891234 C 0.0 **** 0.0
63 C21500 0.211422954213764 0.0884847132422003 0.776586257374091 C 0.0 **** 0.0
64 O21502 0.210004965406619 0.0308877661093724 0.759360743765633 O 0.0 **** 0.0
65 O21504 0.154371327684407 0.0299159274747309 0.716986373754379 O 0.0 **** 0.0
66 O21506 0.166485144504728 0.0038169491740644 0.703882081463439 O 0.0 **** 0.0
67 O21508 0.219227732866561 0.00433118372864448 0.745728735258073 O 0.0 **** 0.0
68 C21510 0.308772757592954 -0.040530666436181 0.732852760444121 C 0.0 **** 0.0
69 C21512 0.3124472752858 -0.00671627491924082 0.748493015128666 C 0.0 **** 0.0
70 H21514 0.105845350299192 0.0382856692015806 0.731284481206437 H 0.0 **** 0.0
71 H21516 0.116902122139912 0.0413863236333166 0.712001868425485 H 0.0 **** 0.0
72 H21518 0.0827280985940361 0.0857078162335614 0.707019464161328 H 0.0 **** 0.0
73 H21520 0.0752392717568674 0.0784985074706439 0.726900294802147 H 0.0 **** 0.0
74 H21522 0.134622189715337 0.0399747287434263 0.732796635832057 H 0.0 **** 0.0
75 H21524 0.200717260688998 0.0472601419174028 0.782962875856301 H 0.0 **** 0.0
76 H21526 0.213062180774394 0.057840201716016 0.767453754175174 H 0.0 **** 0.0
77 H21528 0.210024267570837 0.0708626521307255 0.797272440085504 H 0.0 **** 0.0
78 H21530 0.178563627265325 0.0676989083374862 0.797796713916099 H 0.0 **** 0.0
79 H21532 0.178863247925325 0.0962858001697664 0.771797737259534 H 0.0 **** 0.0
80 H21534 0.160899726857467 0.086695770278107 0.781352072995773 H 0.0 **** 0.0
81 H21536 0.177841162094949 -0.0241856955935784 0.694305142362918 H 0.0 **** 0.0
82 H21538 0.196815521600048 -0.0162313542269277 0.685586367360021 H 0.0 **** 0.0
83 H21540 0.199560618818133 -0.0467861017256195 0.691856494608145 H 0.0 **** 0.0
84 H21542 0.193014231232457 -0.043810501783686 0.712847565593197 H 0.0 **** 0.0
85 H21544 0.222066901396301 -0.0697340243708715 0.699222206797816 H 0.0 **** 0.0
86 H21546 0.221010044086535 -0.0561322879192581 0.681526174498704 H 0.0 **** 0.0
87 H21548 0.250681616012787 -0.0585524775481767 0.675673299855325 H 0.0 **** 0.0
88 H21550 0.24330155006413 -0.0792463625699373 0.679444421412132 H 0.0 **** 0.0
89 H21552 0.27006756895506 -0.0750695723789005 0.695124817929568 H 0.0 **** 0.0
90 H21554 0.253396704002162 -0.076485019516396 0.709974756718703 H 0.0 **** 0.0
91 H21556 0.269297723908297 -0.0440351067415286 0.695798495061312 H 0.0 **** 0.0
92 H21558 0.270657868548783 -0.0601426985980258 0.731088866995104 H 0.0 **** 0.0
93 H21560 0.287466247306046 -0.05705022465233 0.716759253744151 H 0.0 **** 0.0
94 H21562 0.255265267168361 0.00124903402516182 0.739855823206082 H 0.0 **** 0.0
95 H21564 0.283109488886872 0.00955419357936498 0.750620561248934 H 0.0 **** 0.0
96 H21566 0.0769239437420642 0.00382153733180076 0.683526202817951 H 0.0 **** 0.0
97 H21568 0.0599875648557748 0.0134221646200294 0.673650566171558 H 0.0 **** 0.0
98 H21570 0.0420275373692235 0.00937222885396934 0.700128548049325 H 0.0 **** 0.0
99 H21572 0.0595884487878536 -0.000455403032259551 0.71017528887006 H 0.0 **** 0.0
100 H21574 0.0499328165661498 -0.0101096617350071 0.692325511166095 H 0.0 **** 0.0
101 H21576 0.0326709564356353 0.0418679744262835 0.691919984644834 H 0.0 **** 0.0
102 H21578 0.0417709946089238 0.0301101203411877 0.675371838100001 H 0.0 **** 0.0
103 H21580 0.0420129656322136 0.0521905541586489 0.674237918082338 H 0.0 **** 0.0
104 H21582 0.106954138532333 0.0160418811574966 0.714025585149047 H 0.0 **** 0.0
105 H21584 0.104299923290876 0.0128906910750837 0.692068418959844 H 0.0 **** 0.0
106 H21586 0.0904560447144671 0.00314158392012478 0.706859796569118 H 0.0 **** 0.0
107 H21588 0.0574413640035265 0.0812078244003141 0.687853205278471 H 0.0 **** 0.0
108 H21590 0.0531389000426058 0.0806654079217703 0.709915866258887 H 0.0 **** 0.0
109 H21592 0.0400349788334568 0.069673776782736 0.695933455461264 H 0.0 **** 0.0
110 H21594 0.0978979321204816 0.115318745744047 0.71435807596332 H 0.0 **** 0.0
111 H21596 0.0971640214141753 0.11810623319568 0.736710795625029 H 0.0 **** 0.0
112 H21598 0.0822724645328068 0.105209580679877 0.726898881378566 H 0.0 **** 0.0
113 H21600 0.127659498266979 0.118869389392497 0.750512318524744 H 0.0 **** 0.0
114 H21602 0.122319042636078 0.123797957168652 0.729319585569316 H 0.0 **** 0.0
115 H21604 0.142583640305208 0.116741697658624 0.73367114029466 H 0.0 **** 0.0
116 H21606 0.165188927918765 0.0994200043556109 0.756382711863042 H 0.0 **** 0.0
117 H21608 0.192193437033691 0.0887435692341248 0.816518267032461 H 0.0 **** 0.0
118 H21610 0.171929259546428 0.0959000610362055 0.809685669378427 H 0.0 **** 0.0
119 H21612 0.190610602485642 0.104457016209358 0.800457332573748 H 0.0 **** 0.0
120 H21614 0.224616515350787 0.0848820912068821 0.774003982353265 H 0.0 **** 0.0
121 H21616 0.211656064976045 0.100162119505622 0.784088453824108 H 0.0 **** 0.0
122 H21618 0.205255724501778 0.0910474950037703 0.76441505092367 H 0.0 **** 0.0
123 H21620 0.216992655819896 0.0213135845071733 0.757036018871527 H 0.0 **** 0.0
124 H21622 0.155742237786935 0.0211012313587883 0.708841551805822 H 0.0 **** 0.0
125 H21624 0.30586794119388 -0.0534003131115366 0.73727999463331 H 0.0 **** 0.0
126 H21626 0.319704430650519 -0.0363096806292826 0.740253981760085 H 0.0 **** 0.0
127 H21628 0.312920816998228 -0.041408332057342 0.719578156744741 H 0.0 **** 0.0
128 H21630 0.311784317662965 0.00667026628919011 0.752082760296378 H 0.0 **** 0.0
129 H21632 0.322305601255361 -0.00773741110713025 0.738726465497419 H 0.0 **** 0.0
130 H21634 0.316666246511649 -0.0137534502441416 0.759726061017579 H 0.0 **** 0.0
@<TRIPOS>BOND
1 3 2 Aromatic
2 4 3 Aromatic
3 5 4 Aromatic
4 6 5 Aromatic
5 1 2 Aromatic
6 1 6 Aromatic
7 8 7 1
8 9 8 Aromatic
9 10 9 1
10 4 7 1
11 3 10 1
12 12 11 Aromatic
13 13 12 Aromatic
14 14 13 Aromatic
15 9 11 Aromatic
16 8 14 Aromatic
17 16 15 Aromatic
18 17 16 Aromatic
19 18 17 Aromatic
20 14 15 Aromatic
21 13 18 Aromatic
22 20 19 1
23 21 20 1
24 22 21 Aromatic
25 17 19 1
26 16 22 Aromatic
27 24 23 1
28 25 24 Aromatic
29 26 25 1
30 20 23 1
31 19 26 1
32 28 27 Aromatic
33 29 28 Aromatic
34 30 29 Aromatic
35 22 27 Aromatic
36 21 30 Aromatic
37 32 31 1
38 33 32 Aromatic
39 34 33 1
40 29 31 1
41 28 34 1
42 36 35 1
43 37 36 1
44 38 37 Aromatic
45 33 35 1
46 32 38 Aromatic
47 40 39 Aromatic
48 41 40 Aromatic
49 42 41 Aromatic
50 38 39 Aromatic
51 37 42 Aromatic
52 44 43 1
53 45 44 1
54 46 45 1
55 42 43 1
56 41 46 1
57 48 47 1
58 49 48 Aromatic
59 40 49 Aromatic
60 46 47 1
61 51 50 Aromatic
62 52 51 Aromatic
63 53 52 Aromatic
64 49 50 Aromatic
65 48 53 Aromatic
66 6 54 1
67 54 55 1
68 1 56 1
69 5 57 1
70 2 58 1
71 11 59 1
72 12 60 1
73 18 61 1
74 25 62 1
75 24 63 1
76 30 64 1
77 27 65 1
78 34 66 Double
79 31 67 Double
80 53 68 1
81 52 69 1
82 7 70 1
83 7 71 1
84 10 72 1
85 10 73 1
86 15 74 1
87 23 75 1
88 23 76 1
89 24 77 1
90 25 78 1
91 26 79 1
92 26 80 1
93 35 81 1
94 35 82 1
95 36 83 1
96 36 84 1
97 43 85 1
98 43 86 1
99 44 87 1
100 44 88 1
101 45 89 1
102 45 90 1
103 46 91 1
104 47 92 1
105 47 93 1
106 50 94 1
107 51 95 1
108 54 96 1
109 54 97 1
110 55 98 1
111 55 99 1
112 55 100 1
113 56 101 1
114 56 102 1
115 56 103 1
116 57 104 1
117 57 105 1
118 57 106 1
119 58 107 1
120 58 108 1
121 58 109 1
122 59 110 1
123 59 111 1
124 59 112 1
125 60 113 1
126 60 114 1
127 60 115 1
128 61 116 1
129 62 117 1
130 62 118 1
131 62 119 1
132 63 120 1
133 63 121 1
134 63 122 1
135 64 123 1
136 65 124 1
137 68 125 1
138 68 126 1
139 68 127 1
140 69 128 1
141 69 129 1
142 69 130 1
@<TRIPOS>MOLECULE
Sketch 4
130 142
SMALL
USER_CHARGES


@<TRIPOS>ATOM
1 C21636 0.964016269041864 0.703343924147844 0.483177538017511 C.Trigonal 0.0 **** 0.0
2 C21637 0.965010106166689 0.716047839296672 0.471182107191901 C 0.0 **** 0.0
3 C21638 0.951066867661576 0.726182686567641 0.46844011065739 C.Trigonal 0.0 **** 0.0
4 C21639 0.936870688328398 0.724466467822719 0.478426697671219 C.Trigonal 0.0 **** 0.0
5 C21640 0.936108573806658 0.712341788127999 0.490980755204545 C 0.0 **** 0.0
6 C21641 0.949802400424962 0.701727737575509 0.493343793332569 C 0.0 **** 0.0
7 C21648 0.922551253270576 0.736658079366009 0.474890069745991 C 0.0 **** 0.0
8 C21649 0.919150204565134 0.737669803619316 0.456062545084277 C.Trigonal 0.0 **** 0.0
9 C21650 0.933133774184844 0.739612873902898 0.445872394537961 C.Trigonal 0.0 **** 0.0
10 C21651 0.950408307697464 0.739454341944566 0.454531074690149 C 0.0 **** 0.0
11 C21657 0.93146422839873 0.74209284232097 0.428557026187593 C 0.0 **** 0.0
12 C21658 0.915619525606504 0.743321100839569 0.421221321443944 C 0.0 **** 0.0
13 C21659 0.901401054201814 0.739216114089882 0.43097137445669 C.Trigonal 0.0 **** 0.0
14 C21660 0.903234726101999 0.73628528530105 0.448573407475582 C.Trigonal 0.0 **** 0.0
15 C21666 0.889015141625862 0.731500320247233 0.457825693655836 C 0.0 **** 0.0
16 C21667 0.872439272151581 0.732981743436259 0.451703385903104 C.Trigonal 0.0 **** 0.0
17 C21668 0.870907835169564 0.736326458780444 0.434158782403724 C.Trigonal 0.0 **** 0.0
18 C21669 0.885115379169243 0.737279297158456 0.423789597392933 C 0.0 **** 0.0
19 C21675 0.853399352670788 0.735930540749935 0.426758325909274 C.Trigonal 0.0 **** 0.0
20 C21676 0.840370829024283 0.728581452220885 0.435148764891493 C.Trigonal 0.0 **** 0.0
21 C21677 0.842123709338731 0.725065963670391 0.454085804433481 C.Trigonal 0.0 **** 0.0
22 C21678 0.857780416945457 0.729210375864372 0.461804330189718 C.Trigonal 0.0 **** 0.0
23 C21684 0.823837012969076 0.726964437950253 0.424991504183159 C 0.0 **** 0.0
24 C21685 0.827940159670364 0.721332671558243 0.406665299868503 C 0.0 **** 0.0
25 C21686 0.840751818070983 0.733329232427903 0.397597039490623 C 0.0 **** 0.0
26 C21687 0.849236250110217 0.745279783252707 0.410364239799047 C 0.0 **** 0.0
27 C21693 0.858768969853602 0.728725704568221 0.479742397686267 C 0.0 **** 0.0
28 C21694 0.845389519517468 0.722682712916652 0.489168018405523 C.Trigonal 0.0 **** 0.0
29 C21695 0.830480725870707 0.717998323505885 0.481487493283245 C.Trigonal 0.0 **** 0.0
30 C21696 0.828843474877444 0.7188889076242 0.463993129041958 C 0.0 **** 0.0
31 C21702 0.815461845931921 0.712664327417774 0.492152765046588 C 0.0 **** 0.0
32 C21703 0.817304458919641 0.713101342824038 0.510684792222748 C.Trigonal 0.0 **** 0.0
33 C21704 0.832247727225908 0.716986789563567 0.518061529851528 C.Trigonal 0.0 **** 0.0
34 C21705 0.847182042079299 0.721677426918265 0.508133820606593 C 0.0 **** 0.0
35 C21711 0.834238421505782 0.716475714785879 0.537153181101045 C 0.0 **** 0.0
36 C21712 0.82299183572869 0.702248278882953 0.544405830197445 C 0.0 **** 0.0
37 C21713 0.804856315775204 0.704905995528057 0.538689127812251 C.Trigonal 0.0 **** 0.0
38 C21714 0.802109940814053 0.709483106040177 0.521597502121629 C.Trigonal 0.0 **** 0.0
39 N21720 0.786506578655383 0.712028464615653 0.515456473239041 N 0.0 **** 0.0
40 C21721 0.773306565494639 0.709773853391929 0.525857143383365 C.Trigonal 0.0 **** 0.0
41 C21722 0.775241498741336 0.70555799836154 0.54317897355342 C.Trigonal 0.0 **** 0.0
42 C21723 0.791232591183545 0.703122606413219 0.549426998976125 C.Trigonal 0.0 **** 0.0
43 C21729 0.794234630185925 0.698245406055285 0.567871513296758 C 0.0 **** 0.0
44 C21730 0.778326642774545 0.699416457896744 0.578893746667108 C 0.0 **** 0.0
45 C21731 0.762893674762248 0.693095209029783 0.569228955461681 C 0.0 **** 0.0
46 C21732 0.759656951304704 0.704963003881093 0.554353701230732 C 0.0 **** 0.0
47 C21738 0.744060337550505 0.699749601360564 0.543852981744353 C 0.0 **** 0.0
48 C21739 0.742813442463962 0.711133343691048 0.528554934671867 C.Trigonal 0.0 **** 0.0
49 C21740 0.757435930174488 0.713902363384611 0.518883852791298 C.Trigonal 0.0 **** 0.0
50 C21745 0.75614158483601 0.72322764667701 0.503734075178918 C 0.0 **** 0.0
51 C21746 0.741213883162747 0.731130263495655 0.49979905806405 C 0.0 **** 0.0
52 C21747 0.727134779052943 0.72960091981324 0.510104434388043 C 0.0 **** 0.0
53 C21748 0.727861955615067 0.719203789288701 0.524340158993784 C 0.0 **** 0.0
54 C21754 0.94954841847909 0.688143158930965 0.506909959368846 C 0.0 **** 0.0
55 C21756 0.941171237709182 0.672148940111889 0.499937581646075 C 0.0 **** 0.0
56 C21758 0.978513483266154 0.691080939998472 0.485545397910428 C 0.0 **** 0.0
57 C21760 0.92010756038397 0.710932802205814 0.501418172255131 C 0.0 **** 0.0
58 C21762 0.981023179052614 0.71866277927481 0.460998321305295 C 0.0 **** 0.0
59 C21764 0.947421004162079 0.744109941067159 0.418036504900857 C 0.0 **** 0.0
60 C21766 0.914773227415718 0.748634644568639 0.402827619843588 C 0.0 **** 0.0
61 O21768 0.8829710361166 0.736361261866324 0.406554321139459 O 0.0 **** 0.0
62 C21770 0.832876796314135 0.744183984752349 0.383460390646143 C 0.0 **** 0.0
63 C21772 0.811329954173606 0.718813630316265 0.396800098383877 C 0.0 **** 0.0
64 O21774 0.814064933430309 0.714036098480219 0.456294330788336 O 0.0 **** 0.0
65 O21776 0.872967015722751 0.734760238046514 0.487715303670358 O 0.0 **** 0.0
66 O21778 0.860802447352844 0.724702804385039 0.514648653232067 O 0.0 **** 0.0
67 O21780 0.802514630334967 0.708369462419027 0.485064215764939 O 0.0 **** 0.0
68 C21782 0.712326570077849 0.71692718178135 0.535302260680549 C 0.0 **** 0.0
69 C21784 0.711500167212121 0.739513263727062 0.505265840851853 C 0.0 **** 0.0
70 H21786 0.911280916589538 0.733706391319545 0.48224073061876 H 0.0 **** 0.0
71 H21788 0.926269870506189 0.749370502362668 0.479400623159138 H 0.0 **** 0.0
72 H21790 0.953085882330396 0.752077487288904 0.459861486977231 H 0.0 **** 0.0
73 H21792 0.960420057195124 0.737124945016363 0.445325375176347 H 0.0 **** 0.0
74 H21794 0.891353635972339 0.726644972558178 0.47048205249413 H 0.0 **** 0.0
75 H21796 0.814869093932191 0.717597791135836 0.429761228223768 H 0.0 **** 0.0
76 H21798 0.817230226489127 0.739205875207637 0.424900012891389 H 0.0 **** 0.0
77 H21800 0.834025019669913 0.708846065360844 0.407573195013242 H 0.0 **** 0.0
78 H21802 0.850670770654699 0.725446501326829 0.391838767271222 H 0.0 **** 0.0
79 H21804 0.840183817459177 0.755301271822824 0.413756105470797 H 0.0 **** 0.0
80 H21806 0.859759136127999 0.752106124061211 0.404381189832863 H 0.0 **** 0.0
81 H21808 0.847424349866125 0.714186071054969 0.541066232140516 H 0.0 **** 0.0
82 H21810 0.83062232942817 0.728773707489894 0.542628236530786 H 0.0 **** 0.0
83 H21812 0.824412182411504 0.702011774941567 0.558205537657315 H 0.0 **** 0.0
84 H21814 0.827671795478198 0.689872630782369 0.539918109178781 H 0.0 **** 0.0
85 H21816 0.799037596295017 0.685150435299008 0.568277887779825 H 0.0 **** 0.0
86 H21818 0.804095052776402 0.706281156815756 0.573543500521086 H 0.0 **** 0.0
87 H21820 0.776156018317623 0.712712043037646 0.582519483559593 H 0.0 **** 0.0
88 H21822 0.780200404409009 0.692406418758213 0.590791122964788 H 0.0 **** 0.0
89 H21824 0.751693623092174 0.69258127098522 0.577459882481203 H 0.0 **** 0.0
90 H21826 0.765096087422965 0.680163527059612 0.564524877265625 H 0.0 **** 0.0
91 H21828 0.757320533313394 0.717759264717998 0.559488717572474 H 0.0 **** 0.0
92 H21830 0.745350261161727 0.686448984147818 0.53979591238798 H 0.0 **** 0.0
93 H21832 0.732798649325729 0.700244379111305 0.551947021542341 H 0.0 **** 0.0
94 H21834 0.767456977446903 0.725568378325093 0.496024113603408 H 0.0 **** 0.0
95 H21836 0.740478064494627 0.739137724123739 0.488473510393856 H 0.0 **** 0.0
96 H21838 0.943049302109728 0.692447880332677 0.518429764412652 H 0.0 **** 0.0
97 H21840 0.962387486065168 0.685089482476318 0.511318206287478 H 0.0 **** 0.0
98 H21842 0.947492150712447 0.667814709152017 0.488316648333323 H 0.0 **** 0.0
99 H21844 0.927845201582086 0.674493023587972 0.496829827898592 H 0.0 **** 0.0
100 H21846 0.941739538241109 0.661691430619198 0.509078952397945 H 0.0 **** 0.0
101 H21848 0.987758977298295 0.691271958079454 0.475229086426959 H 0.0 **** 0.0
102 H21850 0.974079594215976 0.677915438457531 0.48623059836357 H 0.0 **** 0.0
103 H21852 0.985202035186365 0.69388787638243 0.497379609873631 H 0.0 **** 0.0
104 H21854 0.909212461738318 0.707785244309176 0.49332664146969 H 0.0 **** 0.0
105 H21856 0.917274416135824 0.722927764087176 0.507895720147986 H 0.0 **** 0.0
106 H21858 0.920581164630508 0.701196175894666 0.511223527840224 H 0.0 **** 0.0
107 H21860 0.98111275504313 0.710792484927839 0.449506382954921 H 0.0 **** 0.0
108 H21862 0.992424659253079 0.715662810674292 0.468337499560289 H 0.0 **** 0.0
109 H21864 0.982719302868353 0.73189137348461 0.457127751364821 H 0.0 **** 0.0
110 H21866 0.953716564746222 0.756237154545096 0.420737319031513 H 0.0 **** 0.0
111 H21868 0.945249956169398 0.743468054887449 0.404363136179006 H 0.0 **** 0.0
112 H21870 0.956475574622948 0.733845790156827 0.420565139724496 H 0.0 **** 0.0
113 H21872 0.916214189307026 0.737757096836068 0.394288736421426 H 0.0 **** 0.0
114 H21874 0.924718687895055 0.757844142019938 0.39971141664549 H 0.0 **** 0.0
115 H21876 0.903056164295221 0.755345277190874 0.399623065737783 H 0.0 **** 0.0
116 H21878 0.892854227013777 0.731276310575981 0.402026359895483 H 0.0 **** 0.0
117 H21880 0.827899553684573 0.736194375318542 0.373239937738137 H 0.0 **** 0.0
118 H21882 0.842514462596672 0.752550826559927 0.377915299847345 H 0.0 **** 0.0
119 H21884 0.822611642756979 0.752128477008652 0.388445727206569 H 0.0 **** 0.0
120 H21886 0.803359609582574 0.709341543071095 0.403143459533398 H 0.0 **** 0.0
121 H21888 0.813897834359764 0.714312892040487 0.383916017603018 H 0.0 **** 0.0
122 H21890 0.804141736737554 0.730694097057472 0.396080877291737 H 0.0 **** 0.0
123 H21892 0.805978020064754 0.71104323684387 0.464759756946618 H 0.0 **** 0.0
124 H21894 0.872954630756433 0.730769405139161 0.499133808608038 H 0.0 **** 0.0
125 H21896 0.700971047478985 0.722737386787485 0.529872462031377 H 0.0 **** 0.0
126 H21898 0.714179998460719 0.722656841329028 0.547864444430975 H 0.0 **** 0.0
127 H21900 0.70932575531443 0.703456688074967 0.537116757344842 H 0.0 **** 0.0
128 H21902 0.701373426314149 0.731306263568823 0.500423510433255 H 0.0 **** 0.0
129 H21904 0.714273682684417 0.748841623620764 0.495354133722897 H 0.0 **** 0.0
130 H21906 0.706416596961591 0.746642791399809 0.516076964290685 H 0.0 **** 0.0
@<TRIPOS>BOND
1 3 2 Aromatic
2 4 3 Aromatic
3 5 4 Aromatic
4 6 5 Aromatic
5 1 2 Aromatic
6 1 6 Aromatic
7 8 7 1
8 9 8 Aromatic
9 10 9 1
10 4 7 1
11 3 10 1
12 12 11 Aromatic
13 13 12 Aromatic
14 14 13 Aromatic
15 9 11 Aromatic
16 8 14 Aromatic
17 16 15 Aromatic
18 17 16 Aromatic
19 18 17 Aromatic
20 14 15 Aromatic
21 13 18 Aromatic
22 20 19 1
23 21 20 1
24 22 21 Aromatic
25 17 19 1
26 16 22 Aromatic
27 24 23 1
28 25 24 Aromatic
29 26 25 1
30 20 23 1
31 19 26 1
32 28 27 Aromatic
33 29 28 Aromatic
34 30 29 Aromatic
35 22 27 Aromatic
36 21 30 Aromatic
37 32 31 1
38 33 32 Aromatic
39 34 33 1
40 29 31 1
41 28 34 1
42 36 35 1
43 37 36 1
44 38 37 Aromatic
45 33 35 1
46 32 38 Aromatic
47 40 39 Aromatic
48 41 40 Aromatic
49 42 41 Aromatic
50 38 39 Aromatic
51 37 42 Aromatic
52 44 43 1
53 45 44 1
54 46 45 1
55 42 43 1
56 41 46 1
57 48 47 1
58 49 48 Aromatic
59 40 49 Aromatic
60 46 47 1
61 51 50 Aromatic
62 52 51 Aromatic
63 53 52 Aromatic
64 49 50 Aromatic
65 48 53 Aromatic
66 6 54 1
67 54 55 1
68 1 56 1
69 5 57 1
70 2 58 1
71 11 59 1
72 12 60 1
73 18 61 1
74 25 62 1
75 24 63 1
76 30 64 1
77 27 65 1
78 34 66 Double
79 31 67 Double
80 53 68 1
81 52 69 1
82 7 70 1
83 7 71 1
84 10 72 1
85 10 73 1
86 15 74 1
87 23 75 1
88 23 76 1
89 24 77 1
90 25 78 1
91 26 79 1
92 26 80 1
93 35 81 1
94 35 82 1
95 36 83 1
96 36 84 1
97 43 85 1
98 43 86 1
99 44 87 1
100 44 88 1
101 45 89 1
102 45 90 1
103 46 91 1
104 47 92 1
105 47 93 1
106 50 94 1
107 51 95 1
108 54 96 1
109 54 97 1
110 55 98 1
111 55 99 1
112 55 100 1
113 56 101 1
114 56 102 1
115 56 103 1
116 57 104 1
117 57 105 1
118 57 106 1
119 58 107 1
120 58 108 1
121 58 109 1
122 59 110 1
123 59 111 1
124 59 112 1
125 60 113 1
126 60 114 1
127 60 115 1
128 61 116 1
129 62 117 1
130 62 118 1
131 62 119 1
132 63 120 1
133 63 121 1
134 63 122 1
135 64 123 1
136 65 124 1
137 68 125 1
138 68 126 1
139 68 127 1
140 69 128 1
141 69 129 1
142 69 130 1
@<TRIPOS>MOLECULE
Sketch 4
130 142
SMALL
USER_CHARGES


@<TRIPOS>ATOM
1 C21908 0.85461965467483 0.639856621384097 0.790808450626442 C.Trigonal 0.0 **** 0.0
2 C21909 0.871369550388468 0.636990715504207 0.786548922707741 C 0.0 **** 0.0
3 C21910 0.882321840234316 0.650486377783776 0.784433795771679 C.Trigonal 0.0 **** 0.0
4 C21911 0.876323627166999 0.66676461093493 0.785440407084785 C.Trigonal 0.0 **** 0.0
5 C21912 0.859336491304032 0.669689810915705 0.788685023420239 C 0.0 **** 0.0
6 C21913 0.848583330821167 0.656243465807821 0.791925967626532 C 0.0 **** 0.0
7 C21920 0.88819242993925 0.681662235005143 0.782773378043222 C 0.0 **** 0.0
8 C21921 0.907081387176029 0.678148905904241 0.783545065368516 C.Trigonal 0.0 **** 0.0
9 C21922 0.913018333805099 0.661889589214409 0.782822866248571 C.Trigonal 0.0 **** 0.0
10 C21923 0.900868571704008 0.64709697835805 0.780772077864521 C 0.0 **** 0.0
11 C21929 0.930254412040396 0.658586069562671 0.783951707344415 C 0.0 **** 0.0
12 C21930 0.941881920379733 0.67143755621546 0.786461057828316 C 0.0 **** 0.0
13 C21931 0.93637756723027 0.68817855601215 0.784997799798862 C.Trigonal 0.0 **** 0.0
14 C21932 0.918807309497662 0.691448984187207 0.784117188082141 C.Trigonal 0.0 **** 0.0
15 C21938 0.913521360439273 0.708226826943709 0.782914333771686 C 0.0 **** 0.0
16 C21939 0.924521128556202 0.721968201438282 0.78455165435633 C.Trigonal 0.0 **** 0.0
17 C21940 0.942088670771172 0.718564342665799 0.782666987294091 C.Trigonal 0.0 **** 0.0
18 C21941 0.947827657470933 0.701781792055867 0.782522269498181 C 0.0 **** 0.0
19 C21947 0.953655858279233 0.73376223970181 0.779673961642691 C.Trigonal 0.0 **** 0.0
20 C21948 0.946895924875674 0.749605966432315 0.778615465629744 C.Trigonal 0.0 **** 0.0
21 C21949 0.928687028231701 0.75292712333409 0.784005273641056 C.Trigonal 0.0 **** 0.0
22 C21950 0.918396252885496 0.738767573318287 0.787497255281054 C.Trigonal 0.0 **** 0.0
23 C21956 0.956986717738598 0.764493322140752 0.771552239913083 C 0.0 **** 0.0
24 C21957 0.972792943979542 0.758748071182234 0.761883076269043 C 0.0 **** 0.0
25 C21958 0.982978970289896 0.746358525395547 0.772859365223159 C 0.0 **** 0.0
26 C21959 0.972273096665516 0.730335250148977 0.775479645068302 C 0.0 **** 0.0
27 C21965 0.90189462731681 0.741652882616513 0.794142429111242 C 0.0 **** 0.0
28 C21966 0.895269985408289 0.757814420445939 0.794253423355957 C.Trigonal 0.0 **** 0.0
29 C21967 0.905079946524924 0.771493286498461 0.789804263519688 C.Trigonal 0.0 **** 0.0
30 C21968 0.922067446518406 0.769244359898772 0.785821276485887 C 0.0 **** 0.0
31 C21974 0.897522138043399 0.789142971295822 0.789457889107653 C 0.0 **** 0.0
32 C21975 0.879413099430818 0.791106128152338 0.793684234118788 C.Trigonal 0.0 **** 0.0
33 C21976 0.870161061989979 0.777627826609873 0.798731302531985 C.Trigonal 0.0 **** 0.0
34 C21977 0.877212382909073 0.760439791379212 0.799617898368956 C 0.0 **** 0.0
35 C21983 0.851837258672499 0.779341396357991 0.803930373426389 C 0.0 **** 0.0
36 C21984 0.842860876674077 0.793797039180077 0.79441407210415 C 0.0 **** 0.0
37 C21985 0.853467913121619 0.809813522982403 0.793719698480066 C.Trigonal 0.0 **** 0.0
38 C21986 0.871309868589865 0.808413701554847 0.792454026500192 C.Trigonal 0.0 **** 0.0
39 N21992 0.880864933299309 0.822019192848775 0.789240409898474 N 0.0 **** 0.0
40 C21993 0.873303540063414 0.83712610851167 0.787612202398169 C.Trigonal 0.0 **** 0.0
41 C21994 0.855845036675559 0.839572392659248 0.790658844984218 C.Trigonal 0.0 **** 0.0
42 C21995 0.845990471533561 0.825611612829142 0.793526531737476 C.Trigonal 0.0 **** 0.0
43 C22001 0.826906475467672 0.827188453230241 0.795864940419992 C 0.0 **** 0.0
44 C22002 0.821214512159899 0.845245221171469 0.799955726576005 C 0.0 **** 0.0
45 C22003 0.82984306226813 0.857829799203625 0.78823042581617 C 0.0 **** 0.0
46 C22004 0.848993520727239 0.857496658929032 0.791011954524068 C 0.0 **** 0.0
47 C22010 0.858228601592844 0.868745013468707 0.777943454397272 C 0.0 **** 0.0
48 C22011 0.877217058032907 0.866159136518467 0.778359481266305 C.Trigonal 0.0 **** 0.0
49 C22012 0.884108120779752 0.850406423505205 0.7827760482738 C.Trigonal 0.0 **** 0.0
50 C22017 0.901798796576703 0.848082450682449 0.781872584608862 C 0.0 **** 0.0
51 C22018 0.912004653753966 0.861204421156678 0.777015426037346 C 0.0 **** 0.0
52 C22019 0.905255376803391 0.876763330423267 0.772689570833853 C 0.0 **** 0.0
53 C22020 0.887787195632711 0.879134657241953 0.773207489803968 C 0.0 **** 0.0
54 C22026 0.830219805756127 0.659524201545077 0.79645602088697 C 0.0 **** 0.0
55 C22028 0.818999459430443 0.657052292382497 0.780857076640833 C 0.0 **** 0.0
56 C22030 0.843302054042574 0.624655335713342 0.79380324213407 C 0.0 **** 0.0
57 C22032 0.85273395080889 0.687714586707021 0.788995967410473 C 0.0 **** 0.0
58 C22034 0.877739713627935 0.618987958410936 0.784584975332668 C 0.0 **** 0.0
59 C22036 0.936363219608913 0.640417525763672 0.78269486102563 C 0.0 **** 0.0
60 C22038 0.96007468024975 0.666261711543824 0.789494134364157 C 0.0 **** 0.0
61 O22040 0.964622915010607 0.698482062604324 0.779858810134693 O 0.0 **** 0.0
62 C22042 0.98835689461174 0.753814081280899 0.790072243863147 C 0.0 **** 0.0
63 C22044 0.983368756706165 0.774153529864759 0.756416339049193 C 0.0 **** 0.0
64 O22046 0.932498150921912 0.783007917681039 0.783660281283012 O 0.0 **** 0.0
65 O22048 0.89265180985242 0.728244728104135 0.80010472316532 O 0.0 **** 0.0
66 O22050 0.868814657541317 0.748448649476453 0.80436756171796 O 0.0 **** 0.0
67 O22052 0.906623007322106 0.800831427698427 0.785318436068059 O 0.0 **** 0.0
68 C22054 0.880506421908771 0.896118046893991 0.768097846611886 C 0.0 **** 0.0
69 C22056 0.917254455676819 0.890624804207395 0.767256723695882 C 0.0 **** 0.0
70 H22058 0.885273512929122 0.687561102049487 0.770447528744469 H 0.0 **** 0.0
71 H22060 0.885296893229464 0.691124164208843 0.792594725147633 H 0.0 **** 0.0
72 H22062 0.905023918710809 0.636943306076703 0.78935515100735 H 0.0 **** 0.0
73 H22064 0.902038994340802 0.64214136763816 0.767755950531261 H 0.0 **** 0.0
74 H22066 0.899979406423622 0.710440331641822 0.781238053431086 H 0.0 **** 0.0
75 H22068 0.949264791427599 0.771808827563248 0.762555036162476 H 0.0 **** 0.0
76 H22070 0.96078492749328 0.773054104072918 0.781850679281756 H 0.0 **** 0.0
77 H22072 0.968740927736939 0.752068721616334 0.750340208909143 H 0.0 **** 0.0
78 H22074 0.994527437846167 0.74277353682616 0.765950941392506 H 0.0 **** 0.0
79 H22076 0.978327712626148 0.722990648916727 0.785623468352843 H 0.0 **** 0.0
80 H22078 0.972943617368285 0.722811813419814 0.763769861217442 H 0.0 **** 0.0
81 H22080 0.844702945368396 0.76763778135597 0.801510287162447 H 0.0 **** 0.0
82 H22082 0.851188421492288 0.781502257208404 0.817644935680713 H 0.0 **** 0.0
83 H22084 0.830507409967732 0.79572894982893 0.800439877033206 H 0.0 **** 0.0
84 H22086 0.840113825260211 0.789616536199869 0.781373607129621 H 0.0 **** 0.0
85 H22088 0.820534581187222 0.822921452113025 0.784213169267261 H 0.0 **** 0.0
86 H22090 0.82250328803019 0.818928079768286 0.806145163112745 H 0.0 **** 0.0
87 H22092 0.824568478557137 0.848275107780184 0.813115717749256 H 0.0 **** 0.0
88 H22094 0.807342611469877 0.846203687155074 0.799088785298227 H 0.0 **** 0.0
89 H22096 0.824979038152333 0.87073745581209 0.790233261305558 H 0.0 **** 0.0
90 H22098 0.827000773646621 0.854491939738926 0.775032701776055 H 0.0 **** 0.0
91 H22100 0.851534951917452 0.862808889126858 0.803649731863926 H 0.0 **** 0.0
92 H22102 0.853532992727577 0.865699966264168 0.765186103415305 H 0.0 **** 0.0
93 H22104 0.854733361199362 0.881966923033402 0.780468041599144 H 0.0 **** 0.0
94 H22106 0.907420179049798 0.835806691541026 0.78515392649951 H 0.0 **** 0.0
95 H22108 0.925748567216029 0.85932215296327 0.776449311284917 H 0.0 **** 0.0
96 H22110 0.828332410657053 0.672337571359209 0.801507163681695 H 0.0 **** 0.0
97 H22112 0.826014641220513 0.651248406126662 0.806823757309544 H 0.0 **** 0.0
98 H22114 0.82015373939248 0.644187320743372 0.775692494968677 H 0.0 **** 0.0
99 H22116 0.822514479502516 0.665969570810933 0.770764880853229 H 0.0 **** 0.0
100 H22118 0.80557466175401 0.659130034806697 0.783840026012467 H 0.0 **** 0.0
101 H22120 0.84970566064035 0.615060949749982 0.801588316561598 H 0.0 **** 0.0
102 H22122 0.839790456960988 0.618656376963526 0.781720134719907 H 0.0 **** 0.0
103 H22124 0.831497118830488 0.627572791358571 0.800419188633453 H 0.0 **** 0.0
104 H22126 0.860140847691444 0.696242824834658 0.780919718285359 H 0.0 **** 0.0
105 H22128 0.852936016515745 0.692965554503745 0.801885176240885 H 0.0 **** 0.0
106 H22130 0.839726344061456 0.688608384579459 0.78421363448433 H 0.0 **** 0.0
107 H22132 0.888781952751973 0.618081895911806 0.776218512250981 H 0.0 **** 0.0
108 H22134 0.868151530795614 0.610664714468497 0.778926726145334 H 0.0 **** 0.0
109 H22136 0.881341547074936 0.613546795755351 0.796879705229885 H 0.0 **** 0.0
110 H22138 0.937573286600917 0.634554117189661 0.795237824588949 H 0.0 **** 0.0
111 H22140 0.948731858627271 0.639652518295264 0.776479483741109 H 0.0 **** 0.0
112 H22142 0.928018160752275 0.632383483900512 0.775046257722698 H 0.0 **** 0.0
113 H22144 0.960943096907512 0.654201886294073 0.79637828516109 H 0.0 **** 0.0
114 H22146 0.966998078458637 0.67519987182168 0.797526375629349 H 0.0 **** 0.0
115 H22148 0.967003090623485 0.664737058120769 0.777552142375822 H 0.0 **** 0.0
116 H22150 0.965819201804874 0.686580182689246 0.778925801320774 H 0.0 **** 0.0
117 H22152 0.995681549149008 0.7654913833332 0.788346751427228 H 0.0 **** 0.0
118 H22154 0.9964010279394 0.744751908550391 0.796882506362681 H 0.0 **** 0.0
119 H22156 0.977325753143614 0.756597789264556 0.798060430421615 H 0.0 **** 0.0
120 H22158 0.975991699288371 0.78222325692621 0.747803757312094 H 0.0 **** 0.0
121 H22160 0.994846559767885 0.770057078837432 0.749729290040598 H 0.0 **** 0.0
122 H22162 0.98708437024916 0.78183360543843 0.767383636029884 H 0.0 **** 0.0
123 H22164 0.925731196713719 0.793009278727071 0.783445322805759 H 0.0 **** 0.0
124 H22166 0.882159840074114 0.732296817056359 0.804490801111247 H 0.0 **** 0.0
125 H22168 0.868665634063519 0.894737445639362 0.76097199223899 H 0.0 **** 0.0
126 H22170 0.889037940583324 0.903318400146808 0.759854869506071 H 0.0 **** 0.0
127 H22172 0.877840726753256 0.903983456014667 0.779281634455281 H 0.0 **** 0.0
128 H22174 0.915803141639851 0.893505113077627 0.753702987685359 H 0.0 **** 0.0
129 H22176 0.930511220575653 0.887029279214941 0.769284366612633 H 0.0 **** 0.0
130 H22178 0.91509553845376 0.902360109698281 0.774413849636015 H 0.0 **** 0.0
@<TRIPOS>BOND
1 3 2 Aromatic
2 4 3 Aromatic
3 5 4 Aromatic
4 6 5 Aromatic
5 1 2 Aromatic
6 1 6 Aromatic
7 8 7 1
8 9 8 Aromatic
9 10 9 1
10 4 7 1
11 3 10 1
12 12 11 Aromatic
13 13 12 Aromatic
14 14 13 Aromatic
15 9 11 Aromatic
16 8 14 Aromatic
17 16 15 Aromatic
18 17 16 Aromatic
19 18 17 Aromatic
20 14 15 Aromatic
21 13 18 Aromatic
22 20 19 1
23 21 20 1
24 22 21 Aromatic
25 17 19 1
26 16 22 Aromatic
27 24 23 1
28 25 24 Aromatic
29 26 25 1
30 20 23 1
31 19 26 1
32 28 27 Aromatic
33 29 28 Aromatic
34 30 29 Aromatic
35 22 27 Aromatic
36 21 30 Aromatic
37 32 31 1
38 33 32 Aromatic
39 34 33 1
40 29 31 1
41 28 34 1
42 36 35 1
43 37 36 1
44 38 37 Aromatic
45 33 35 1
46 32 38 Aromatic
47 40 39 Aromatic
48 41 40 Aromatic
49 42 41 Aromatic
50 38 39 Aromatic
51 37 42 Aromatic
52 44 43 1
53 45 44 1
54 46 45 1
55 42 43 1
56 41 46 1
57 48 47 1
58 49 48 Aromatic
59 40 49 Aromatic
60 46 47 1
61 51 50 Aromatic
62 52 51 Aromatic
63 53 52 Aromatic
64 49 50 Aromatic
65 48 53 Aromatic
66 6 54 1
67 54 55 1
68 1 56 1
69 5 57 1
70 2 58 1
71 11 59 1
72 12 60 1
73 18 61 1
74 25 62 1
75 24 63 1
76 30 64 1
77 27 65 1
78 34 66 Double
79 31 67 Double
80 53 68 1
81 52 69 1
82 7 70 1
83 7 71 1
84 10 72 1
85 10 73 1
86 15 74 1
87 23 75 1
88 23 76 1
89 24 77 1
90 25 78 1
91 26 79 1
92 26 80 1
93 35 81 1
94 35 82 1
95 36 83 1
96 36 84 1
97 43 85 1
98 43 86 1
99 44 87 1
100 44 88 1
101 45 89 1
102 45 90 1
103 46 91 1
104 47 92 1
105 47 93 1
106 50 94 1
107 51 95 1
108 54 96 1
109 54 97 1
110 55 98 1
111 55 99 1
112 55 100 1
113 56 101 1
114 56 102 1
115 56 103 1
116 57 104 1
117 57 105 1
118 57 106 1
119 58 107 1
120 58 108 1
121 58 109 1
122 59 110 1
123 59 111 1
124 59 112 1
125 60 113 1
126 60 114 1
127 60 115 1
128 61 116 1
129 62 117 1
130 62 118 1
131 62 119 1
132 63 120 1
133 63 121 1
134 63 122 1
135 64 123 1
136 65 124 1
137 68 125 1
138 68 126 1
139 68 127 1
140 69 128 1
141 69 129 1
142 69 130 1
@<TRIPOS>MOLECULE
Sketch 4
130 142
SMALL
USER_CHARGES


@<TRIPOS>ATOM
1 C22180 0.0293699292753521 0.345818959415988 0.162381351293102 C.Trigonal 0.0 **** 0.0
2 C22181 0.0278705635735951 0.361845314941549 0.169292212450578 C 0.0 **** 0.0
3 C22182 0.0270306894193925 0.363898566120249 0.186670779211958 C.Trigonal 0.0 **** 0.0
4 C22183 0.0271163544593711 0.349941511032875 0.197023835112059 C.Trigonal 0.0 **** 0.0
5 C22184 0.0289049104245917 0.333880714231349 0.19017417121169 C 0.0 **** 0.0
6 C22185 0.0303635926455708 0.331847397414772 0.172845899704057 C 0.0 **** 0.0
7 C22192 0.0249007711442946 0.351852708617623 0.216034574525344 C 0.0 **** 0.0
8 C22193 0.0258146129258821 0.369544291908468 0.22346716338005 C.Trigonal 0.0 **** 0.0
9 C22194 0.0266245782140813 0.383444905976007 0.213170538653239 C.Trigonal 0.0 **** 0.0
10 C22195 0.0256015763112347 0.381608011734855 0.194027598837619 C 0.0 **** 0.0
11 C22201 0.0286305478775585 0.399545136288392 0.220009923185688 C 0.0 **** 0.0
12 C22202 0.0302614666685182 0.401972198103529 0.237282240277254 C 0.0 **** 0.0
13 C22203 0.0264140858684908 0.388433276065108 0.248023143435854 C.Trigonal 0.0 **** 0.0
14 C22204 0.0248543466657415 0.372026414550164 0.241000630155148 C.Trigonal 0.0 **** 0.0
15 C22210 0.0214767960748358 0.358500580822806 0.251847305031474 C 0.0 **** 0.0
16 C22211 0.0197126603436594 0.360368648196371 0.269325916215825 C.Trigonal 0.0 **** 0.0
17 C22212 0.0173775277047468 0.377094159153011 0.275385361962922 C.Trigonal 0.0 **** 0.0
18 C22213 0.0218310659153291 0.39083950059146 0.26533276845767 C 0.0 **** 0.0
19 C22219 0.00952797403508132 0.379057902577604 0.292873284492216 C.Trigonal 0.0 **** 0.0
20 C22220 0.00686055942674369 0.365011014145016 0.302488705751977 C.Trigonal 0.0 **** 0.0
21 C22221 0.0145070366972314 0.348092177840352 0.297547639661154 C.Trigonal 0.0 **** 0.0
22 C22222 0.0206647288069133 0.346415099536404 0.280891359377121 C.Trigonal 0.0 **** 0.0
23 C22228 -0.00573692571320321 0.364894932733035 0.317067173936071 C 0.0 **** 0.0
24 C22229 -0.0187523553164851 0.379184369411225 0.315297171395528 C 0.0 **** 0.0
25 C22230 -0.00956546687286364 0.396190944615686 0.313229062645338 C 0.0 **** 0.0
26 C22231 0.00086704889496097 0.396006252753601 0.29676915191006 C 0.0 **** 0.0
27 C22237 0.0281429045668041 0.33074434171915 0.276168287313587 C 0.0 **** 0.0
28 C22238 0.0269887005118464 0.317016483097752 0.286937052691593 C.Trigonal 0.0 **** 0.0
29 C22239 0.0210340698512534 0.318820770256772 0.303229215540213 C.Trigonal 0.0 **** 0.0
30 C22240 0.0155846449187433 0.334553813700551 0.308880718561289 C 0.0 **** 0.0
31 C22246 0.0201837869674042 0.303667313598615 0.315009860398462 C 0.0 **** 0.0
32 C22247 0.024104733234521 0.286850334526218 0.30791196894684 C.Trigonal 0.0 **** 0.0
33 C22248 0.0293814985407338 0.285255749682682 0.291699186829918 C.Trigonal 0.0 **** 0.0
34 C22249 0.032106156433348 0.299860756132879 0.28055491473442 C 0.0 **** 0.0
35 C22255 0.0325033595423862 0.268093179006188 0.28382657634526 C 0.0 **** 0.0
36 C22256 0.0203116708098805 0.254940742509017 0.291459263751673 C 0.0 **** 0.0
37 C22257 0.0209051434882142 0.255333637648065 0.310635297205777 C.Trigonal 0.0 **** 0.0
38 C22258 0.0222417584917672 0.271222170233587 0.318822132441622 C.Trigonal 0.0 **** 0.0
39 N22264 0.0217954270617132 0.272416292449435 0.335757598001238 N 0.0 **** 0.0
40 C22265 0.019357918810474 0.258210370932707 0.344744005792479 C.Trigonal 0.0 **** 0.0
41 C22266 0.0184348541730885 0.241929068088883 0.33729833877913 C.Trigonal 0.0 **** 0.0
42 C22267 0.0196028131845317 0.24070788205613 0.320076035568623 C.Trigonal 0.0 **** 0.0
43 C22273 0.0187580151054942 0.223629565812039 0.311123014669292 C 0.0 **** 0.0
44 C22274 0.0200303914422881 0.208488842484138 0.323157445456808 C 0.0 **** 0.0
45 C22275 0.00958399023654673 0.211486471653418 0.339054578703825 C 0.0 **** 0.0
46 C22276 0.0170515092889921 0.226530684070202 0.34869719316029 C 0.0 **** 0.0
47 C22282 0.00670741054013634 0.230906823445222 0.364649407869898 C 0.0 **** 0.0
48 C22283 0.0134173637967197 0.246957639658802 0.372674713434355 C.Trigonal 0.0 **** 0.0
49 C22284 0.0188332042300892 0.260395130361051 0.362386392215773 C.Trigonal 0.0 **** 0.0
50 C22289 0.0241590136602802 0.275622244243664 0.370038727648485 C 0.0 **** 0.0
51 C22290 0.0238281990471723 0.277148811737444 0.387286038725378 C 0.0 **** 0.0
52 C22291 0.0183652373376101 0.263975926306828 0.397455626954722 C 0.0 **** 0.0
53 C22292 0.0133290721059177 0.248777310727256 0.390077773108305 C 0.0 **** 0.0
54 C22298 0.0327719979825356 0.314333955724319 0.1653549737269 C 0.0 **** 0.0
55 C22300 0.0156070334026017 0.306252915258855 0.161319051132872 C 0.0 **** 0.0
56 C22302 0.0301101624170468 0.344018889012064 0.14330299210733 C 0.0 **** 0.0
57 C22304 0.0294022486722497 0.318658121013674 0.201875238529217 C 0.0 **** 0.0
58 C22306 0.0266750075825595 0.377041074448851 0.157653194219955 C 0.0 **** 0.0
59 C22308 0.0291665436894214 0.414656453915599 0.208134709917455 C 0.0 **** 0.0
60 C22310 0.0344752576907766 0.419669810621869 0.243296522928447 C 0.0 **** 0.0
61 O22312 0.0215481886515185 0.407032349673903 0.271434250039259 O 0.0 **** 0.0
62 C22314 0.00184336566867056 0.400575289978673 0.328425650281333 C 0.0 **** 0.0
63 C22316 -0.0308201638536252 0.379241746669415 0.330570856529222 C 0.0 **** 0.0
64 O22318 0.0108377611461126 0.337020689847154 0.325447293651344 O 0.0 **** 0.0
65 O22320 0.0360016582227345 0.329328283661824 0.26078020501626 O 0.0 **** 0.0
66 O22322 0.0376129314239281 0.298312386639804 0.266260634723541 O 0.0 **** 0.0
67 O22324 0.015770143608821 0.30595611031488 0.329562686902517 O 0.0 **** 0.0
68 C22326 0.0076040308607528 0.234241919720723 0.401181411418511 C 0.0 **** 0.0
69 C22328 0.0178658056487758 0.266760064389078 0.416368174213814 C 0.0 **** 0.0
70 H22330 0.012527507941644 0.346338039229 0.219460825557818 H 0.0 **** 0.0
71 H22332 0.034669391010298 0.344126871599996 0.222316017020093 H 0.0 **** 0.0
72 H22334 0.0358781654124447 0.389303252968785 0.188633523930306 H 0.0 **** 0.0
73 H22336 0.0135813589335836 0.38720363496107 0.189626225611628 H 0.0 **** 0.0
74 H22338 0.0202954603481395 0.345943752131101 0.246167012906294 H 0.0 **** 0.0
75 H22340 -0.0129039020898825 0.352959812707605 0.317230272217032 H 0.0 **** 0.0
76 H22342 0.000874800915724789 0.365963520920631 0.329268595002198 H 0.0 **** 0.0
77 H22344 -0.0263649520007405 0.376900549997618 0.303846462976176 H 0.0 **** 0.0
78 H22346 -0.0191300521570008 0.406245086823818 0.312134233106788 H 0.0 **** 0.0
79 H22348 0.00999590964715508 0.4063907631014 0.297846500006859 H 0.0 **** 0.0
80 H22350 -0.00770993729266843 0.399157563907588 0.28622085673105 H 0.0 **** 0.0
81 H22352 0.0305675667417972 0.268378280879393 0.270034578400406 H 0.0 **** 0.0
82 H22354 0.0456278221192551 0.264108657565678 0.285776755516347 H 0.0 **** 0.0
83 H22356 0.0235737401304543 0.242493160567302 0.286341251527194 H 0.0 **** 0.0
84 H22358 0.00730841360336375 0.257632567342387 0.287133181116023 H 0.0 **** 0.0
85 H22360 0.00673074851665925 0.222851544494289 0.304127332717095 H 0.0 **** 0.0
86 H22362 0.0289589006308124 0.222540968613287 0.30170408371805 H 0.0 **** 0.0
87 H22364 0.0333345483652171 0.206602723208376 0.326852902977055 H 0.0 **** 0.0
88 H22366 0.0160420622940403 0.196874077458159 0.316610652818088 H 0.0 **** 0.0
89 H22368 0.00951360279414289 0.200145556245646 0.347166244433311 H 0.0 **** 0.0
90 H22370 -0.00369460304704045 0.214021683515051 0.335620682895058 H 0.0 **** 0.0
91 H22372 0.0298732265180422 0.222949814342714 0.352878874308345 H 0.0 **** 0.0
92 H22374 -0.00671244756634218 0.232631392944523 0.361215389458586 H 0.0 **** 0.0
93 H22376 0.00721498354515451 0.220034116782826 0.373284685796097 H 0.0 **** 0.0
94 H22378 0.0285812784797033 0.286215614609566 0.362203326772692 H 0.0 **** 0.0
95 H22380 0.0279069145001092 0.289076457261071 0.393117372427349 H 0.0 **** 0.0
96 H22382 0.0399679601084839 0.306116375684437 0.173977763900234 H 0.0 **** 0.0
97 H22384 0.0405736672719762 0.314829434202463 0.153837810298412 H 0.0 **** 0.0
98 H22386 0.00847917629874272 0.31385672290262 0.152097204966354 H 0.0 **** 0.0
99 H22388 0.00774257973777212 0.305091755062401 0.172738220631044 H 0.0 **** 0.0
100 H22390 0.0171118673635318 0.293505934125543 0.155954047113525 H 0.0 **** 0.0
101 H22392 0.0428555155995958 0.347049269377859 0.138561984063004 H 0.0 **** 0.0
102 H22394 0.0210997435891546 0.35251936359055 0.136981631109764 H 0.0 **** 0.0
103 H22396 0.0269293985573782 0.331317054494955 0.138763593069211 H 0.0 **** 0.0
104 H22398 0.0215018545173468 0.320394042954225 0.213168166650126 H 0.0 **** 0.0
105 H22400 0.0424131837023436 0.316114979023978 0.206177701215901 H 0.0 **** 0.0
106 H22402 0.0246283328716044 0.307094965129616 0.195872432165679 H 0.0 **** 0.0
107 H22404 0.0312512344165578 0.388803502046485 0.163386594844604 H 0.0 **** 0.0
108 H22406 0.0134741363005304 0.379198437688581 0.153744412734659 H 0.0 **** 0.0
109 H22408 0.0342391356589248 0.375352882441109 0.146129296395106 H 0.0 **** 0.0
110 H22410 0.0420968771439223 0.417456503812586 0.203917236204998 H 0.0 **** 0.0
111 H22412 0.0241121814166837 0.42614765234834 0.214071910306759 H 0.0 **** 0.0
112 H22414 0.0213383988967571 0.41274200981695 0.196833765711215 H 0.0 **** 0.0
113 H22416 0.0229694654923282 0.427039624276126 0.246007321350246 H 0.0 **** 0.0
114 H22418 0.0419358379863947 0.426787584358602 0.233989050326767 H 0.0 **** 0.0
115 H22420 0.042411243537682 0.419552012286782 0.254683674255932 H 0.0 **** 0.0
116 H22422 0.0226317123972929 0.40650381207817 0.28334211775869 H 0.0 **** 0.0
117 H22424 -0.00553941738546377 0.400961626509764 0.340190171739833 H 0.0 **** 0.0
118 H22426 0.00756536812679905 0.413126417980937 0.326655323000178 H 0.0 **** 0.0
119 H22428 0.0120875463077212 0.391305091981884 0.329911694695395 H 0.0 **** 0.0
120 H22430 -0.0381425400902282 0.367423986446083 0.330960407117835 H 0.0 **** 0.0
121 H22432 -0.0397579788762601 0.389853182629545 0.329688027767126 H 0.0 **** 0.0
122 H22434 -0.0238008008761158 0.380332848618208 0.342519555590839 H 0.0 **** 0.0
123 H22436 0.0113544598751497 0.326463641719305 0.331301528076311 H 0.0 **** 0.0
124 H22438 0.0399637755086227 0.317994261473093 0.259469808314225 H 0.0 **** 0.0
125 H22440 -0.00481909538271142 0.229388300100807 0.397244131484304 H 0.0 **** 0.0
126 H22442 0.0063534684972366 0.237711664213852 0.414542562154059 H 0.0 **** 0.0
127 H22444 0.0166841636615035 0.22368312535779 0.400624070726571 H 0.0 **** 0.0
128 H22446 0.00490465234221029 0.265537697648994 0.42130806209876 H 0.0 **** 0.0
129 H22448 0.0223030361326873 0.279443968244842 0.419843044639417 H 0.0 **** 0.0
130 H22450 0.0258998874251737 0.257609457913656 0.423106718615052 H 0.0 **** 0.0
@<TRIPOS>BOND
1 3 2 Aromatic
2 4 3 Aromatic
3 5 4 Aromatic
4 6 5 Aromatic
5 1 2 Aromatic
6 1 6 Aromatic
7 8 7 1
8 9 8 Aromatic
9 10 9 1
10 4 7 1
11 3 10 1
12 12 11 Aromatic
13 13 12 Aromatic
14 14 13 Aromatic
15 9 11 Aromatic
16 8 14 Aromatic
17 16 15 Aromatic
18 17 16 Aromatic
19 18 17 Aromatic
20 14 15 Aromatic
21 13 18 Aromatic
22 20 19 1
23 21 20 1
24 22 21 Aromatic
25 17 19 1
26 16 22 Aromatic
27 24 23 1
28 25 24 Aromatic
29 26 25 1
30 20 23 1
31 19 26 1
32 28 27 Aromatic
33 29 28 Aromatic
34 30 29 Aromatic
35 22 27 Aromatic
36 21 30 Aromatic
37 32 31 1
38 33 32 Aromatic
39 34 33 1
40 29 31 1
41 28 34 1
42 36 35 1
43 37 36 1
44 38 37 Aromatic
45 33 35 1
46 32 38 Aromatic
47 40 39 Aromatic
48 41 40 Aromatic
49 42 41 Aromatic
50 38 39 Aromatic
51 37 42 Aromatic
52 44 43 1
53 45 44 1
54 46 45 1
55 42 43 1
56 41 46 1
57 48 47 1
58 49 48 Aromatic
59 40 49 Aromatic
60 46 47 1
61 51 50 Aromatic
62 52 51 Aromatic
63 53 52 Aromatic
64 49 50 Aromatic
65 48 53 Aromatic
66 6 54 1
67 54 55 1
68 1 56 1
69 5 57 1
70 2 58 1
71 11 59 1
72 12 60 1
73 18 61 1
74 25 62 1
75 24 63 1
76 30 64 1
77 27 65 1
78 34 66 Double
79 31 67 Double
80 53 68 1
81 52 69 1
82 7 70 1
83 7 71 1
84 10 72 1
85 10 73 1
86 15 74 1
87 23 75 1
88 23 76 1
89 24 77 1
90 25 78 1
91 26 79 1
92 26 80 1
93 35 81 1
94 35 82 1
95 36 83 1
96 36 84 1
97 43 85 1
98 43 86 1
99 44 87 1
100 44 88 1
101 45 89 1
102 45 90 1
103 46 91 1
104 47 92 1
105 47 93 1
106 50 94 1
107 51 95 1
108 54 96 1
109 54 97 1
110 55 98 1
111 55 99 1
112 55 100 1
113 56 101 1
114 56 102 1
115 56 103 1
116 57 104 1
117 57 105 1
118 57 106 1
119 58 107 1
120 58 108 1
121 58 109 1
122 59 110 1
123 59 111 1
124 59 112 1
125 60 113 1
126 60 114 1
127 60 115 1
128 61 116 1
129 62 117 1
130 62 118 1
131 62 119 1
132 63 120 1
133 63 121 1
134 63 122 1
135 64 123 1
136 65 124 1
137 68 125 1
138 68 126 1
139 68 127 1
140 69 128 1
141 69 129 1
142 69 130 1
@<TRIPOS>MOLECULE
Sketch 4
130 142
SMALL
USER_CHARGES


@<TRIPOS>ATOM
1 C22452 0.503261395848446 0.63856648710341 0.603391818397599 C.Trigonal 0.0 **** 0.0
2 C22453 0.491240165848706 0.649989127443626 0.597745739728077 C 0.0 **** 0.0
3 C22454 0.486607593255475 0.650113563474726 0.580861414381108 C.Trigonal 0.0 **** 0.0
4 C22455 0.493232497655847 0.638294587174263 0.569960661331619 C.Trigonal 0.0 **** 0.0
5 C22456 0.503577161691348 0.625520127488435 0.576041456614034 C 0.0 **** 0.0
6 C22457 0.508936305744091 0.625904794884105 0.592721760163531 C 0.0 **** 0.0
7 C22464 0.489008592741145 0.639226266937494 0.551234568498506 C 0.0 **** 0.0
8 C22465 0.483534273417536 0.656474148146444 0.544692780805402 C.Trigonal 0.0 **** 0.0
9 C22466 0.476280567287993 0.667815958877852 0.555625327390902 C.Trigonal 0.0 **** 0.0
10 C22467 0.474191563025257 0.663193526028748 0.57421365133041 C 0.0 **** 0.0
11 C22473 0.470826328149984 0.683578124077586 0.550027083527634 C 0.0 **** 0.0
12 C22474 0.473763435289843 0.688914817333184 0.533639847807445 C 0.0 **** 0.0
13 C22475 0.480296282116115 0.677298488133628 0.521971726935991 C.Trigonal 0.0 **** 0.0
14 C22476 0.485445083479292 0.661087350749646 0.527690886285462 C.Trigonal 0.0 **** 0.0
15 C22482 0.492822019686731 0.650163469753219 0.5159462413479 C 0.0 **** 0.0
16 C22483 0.498535998833425 0.655733865443582 0.500139197676031 C.Trigonal 0.0 **** 0.0
17 C22484 0.491463731242151 0.67100749032471 0.493870661111122 C.Trigonal 0.0 **** 0.0
18 C22485 0.481474387557274 0.680985938720849 0.504366665024551 C 0.0 **** 0.0
19 C22491 0.49450514543249 0.675212078550917 0.475335198303443 C.Trigonal 0.0 **** 0.0
20 C22492 0.50217692710678 0.663755835234401 0.465003531993626 C.Trigonal 0.0 **** 0.0
21 C22493 0.511388752364202 0.648592893171749 0.472663716294409 C.Trigonal 0.0 **** 0.0
22 C22494 0.510495787051857 0.646333619935506 0.49036444065072 C.Trigonal 0.0 **** 0.0
23 C22500 0.504062671833958 0.666838903458718 0.445965039383761 C 0.0 **** 0.0
24 C22501 0.494446877865653 0.682323657939931 0.439301369609255 C 0.0 **** 0.0
25 C22502 0.497020881147612 0.696950071451959 0.451807060664897 C 0.0 **** 0.0
26 C22503 0.488833610123163 0.692498033347874 0.468844786223923 C 0.0 **** 0.0
27 C22509 0.521606581870279 0.634470809706264 0.498164014037705 C 0.0 **** 0.0
28 C22510 0.53103532038214 0.623613135847508 0.488270753595315 C.Trigonal 0.0 **** 0.0
29 C22511 0.530458100929492 0.624802143800282 0.470889211697341 C.Trigonal 0.0 **** 0.0
30 C22512 0.520965857174264 0.637328024756774 0.462995120299235 C 0.0 **** 0.0
31 C22518 0.540558926702169 0.612733886985393 0.460105451915888 C 0.0 **** 0.0
32 C22519 0.550709923576891 0.599759803228876 0.468695855256334 C.Trigonal 0.0 **** 0.0
33 C22520 0.55157403739137 0.598726154421004 0.485714749173235 C.Trigonal 0.0 **** 0.0
34 C22521 0.542038793507438 0.610416291343083 0.496631728652582 C 0.0 **** 0.0
35 C22527 0.562466096795247 0.585309445967158 0.494130018355298 C 0.0 **** 0.0
36 C22528 0.578308693333011 0.581235474927847 0.483237946465245 C 0.0 **** 0.0
37 C22529 0.574345193189888 0.578942516826614 0.464559915554314 C.Trigonal 0.0 **** 0.0
38 C22530 0.560288914440041 0.587599700321345 0.457780655079511 C.Trigonal 0.0 **** 0.0
39 N22536 0.555392532298081 0.585399787514358 0.4417649478078 N 0.0 **** 0.0
40 C22537 0.565479529791618 0.576735414352829 0.431402104594429 C.Trigonal 0.0 **** 0.0
41 C22538 0.580314776449594 0.568467163061168 0.437029662727171 C.Trigonal 0.0 **** 0.0
42 C22539 0.584282806319615 0.569250548259821 0.453904494193206 C.Trigonal 0.0 **** 0.0
43 C22545 0.599838564385955 0.560348026760883 0.460938955922069 C 0.0 **** 0.0
44 C22546 0.607965322740264 0.548078424895591 0.44832404054487 C 0.0 **** 0.0
45 C22547 0.608288445889415 0.555477541415478 0.430511501202555 C 0.0 **** 0.0
46 C22548 0.590171368734264 0.558184559837124 0.424206554513092 C 0.0 **** 0.0
47 C22554 0.589574232133872 0.567009476137069 0.406653786684228 C 0.0 **** 0.0
48 C22555 0.571693216877553 0.572222844154066 0.401786099757739 C.Trigonal 0.0 **** 0.0
49 C22556 0.559957380985195 0.576083181958057 0.414505190097938 C.Trigonal 0.0 **** 0.0
50 C22561 0.543297460832964 0.58078845772746 0.410094464165687 C 0.0 **** 0.0
51 C22562 0.53899740907933 0.582597086788229 0.393428761085966 C 0.0 **** 0.0
52 C22563 0.550965913180425 0.580465373722998 0.380857132629309 C 0.0 **** 0.0
53 C22564 0.567432926210488 0.575648047884741 0.385112791374778 C 0.0 **** 0.0
54 C22570 0.521208315611218 0.612654684475534 0.59920146636762 C 0.0 **** 0.0
55 C22572 0.539427024262628 0.618101075520631 0.5954702439492 C 0.0 **** 0.0
56 C22574 0.509785643926197 0.640007576921843 0.62137391029903 C 0.0 **** 0.0
57 C22576 0.509466016393381 0.611533346793786 0.564279756237866 C 0.0 **** 0.0
58 C22578 0.483538936512262 0.662659686783209 0.609900172202244 C 0.0 **** 0.0
59 C22580 0.461838618129117 0.695181536882882 0.562471471510329 C 0.0 **** 0.0
60 C22582 0.469326274060155 0.707041251110799 0.529300086365217 C 0.0 **** 0.0
61 O22584 0.472806654516978 0.69475677077554 0.49838019274053 O 0.0 **** 0.0
62 C22586 0.489775635152919 0.713585979244423 0.444813755397708 C 0.0 **** 0.0
63 C22588 0.475710991760149 0.677893929319898 0.436176554696855 C 0.0 **** 0.0
64 O22590 0.52102613778534 0.638882140953259 0.445674934213628 O 0.0 **** 0.0
65 O22592 0.522736513549438 0.634062550268051 0.515475589628872 O 0.0 **** 0.0
66 O22594 0.542635773334229 0.609592444765149 0.511982093378764 O 0.0 **** 0.0
67 O22596 0.53997717758951 0.614270954650115 0.444811030638213 O 0.0 **** 0.0
68 C22598 0.580452336087798 0.575032940007791 0.371126245747488 C 0.0 **** 0.0
69 C22600 0.545693837633714 0.583952741874288 0.362798878516787 C 0.0 **** 0.0
70 H22602 0.500551557915438 0.635590016626235 0.544426784990427 H 0.0 **** 0.0
71 H22604 0.47925272583004 0.629761043063916 0.548059986796429 H 0.0 **** 0.0
72 H22606 0.461112063274749 0.658841964281004 0.576467539521117 H 0.0 **** 0.0
73 H22608 0.47584777425764 0.674769737751516 0.581702566085974 H 0.0 **** 0.0
74 H22610 0.495796892376242 0.63728828307739 0.520005486709625 H 0.0 **** 0.0
75 H22612 0.517555261030291 0.668647763107638 0.442980341497841 H 0.0 **** 0.0
76 H22614 0.499498106789296 0.655854421375729 0.438725547194215 H 0.0 **** 0.0
77 H22616 0.500047182999631 0.685915328178427 0.427062244348591 H 0.0 **** 0.0
78 H22618 0.510714019444515 0.698712456552525 0.453729056298056 H 0.0 **** 0.0
79 H22620 0.47500960328282 0.692865141973818 0.467340850432623 H 0.0 **** 0.0
80 H22622 0.492621248227062 0.7024337409235 0.477821755935936 H 0.0 **** 0.0
81 H22624 0.566790863904858 0.589281807723987 0.50680448828588 H 0.0 **** 0.0
82 H22626 0.554936191001604 0.573762860711448 0.496040941118126 H 0.0 **** 0.0
83 H22628 0.584580140709836 0.5700916783503 0.488684690492212 H 0.0 **** 0.0
84 H22630 0.587224564171001 0.59174955803687 0.484536233341242 H 0.0 **** 0.0
85 H22632 0.6092667987124 0.569975276824508 0.464486404082546 H 0.0 **** 0.0
86 H22634 0.596714560030558 0.553343190770136 0.472553372872724 H 0.0 **** 0.0
87 H22636 0.600779355913548 0.536153897209315 0.448142340652157 H 0.0 **** 0.0
88 H22638 0.620819388886344 0.544888915555765 0.452598381557819 H 0.0 **** 0.0
89 H22640 0.615211415304393 0.547078786233366 0.421798582616372 H 0.0 **** 0.0
90 H22642 0.615169830020866 0.567603939515751 0.430691708990941 H 0.0 **** 0.0
91 H22644 0.584071996509886 0.545667177779366 0.422928600704194 H 0.0 **** 0.0
92 H22646 0.597734308134483 0.578283032511452 0.407017147443984 H 0.0 **** 0.0
93 H22648 0.595118463003021 0.558283579702386 0.397364334503057 H 0.0 **** 0.0
94 H22650 0.533971427686409 0.583699942265089 0.419970424146995 H 0.0 **** 0.0
95 H22652 0.526069452021225 0.586375034896292 0.390024535847079 H 0.0 **** 0.0
96 H22654 0.518873303025213 0.600200911002364 0.593505311570966 H 0.0 **** 0.0
97 H22656 0.519527849461231 0.610484312892158 0.612837089977696 H 0.0 **** 0.0
98 H22658 0.542477540926291 0.630159710533489 0.601706366269172 H 0.0 **** 0.0
99 H22660 0.541463244539483 0.619780526808481 0.581812506626969 H 0.0 **** 0.0
100 H22662 0.548581144358283 0.608615242069092 0.599892811094264 H 0.0 **** 0.0
101 H22664 0.501472678379089 0.633488706878877 0.630408195520613 H 0.0 **** 0.0
102 H22666 0.510718725573851 0.65328656714267 0.62539900985976 H 0.0 **** 0.0
103 H22668 0.522564992473761 0.634840027199582 0.622934598757809 H 0.0 **** 0.0
104 H22670 0.508696053515241 0.599010093513566 0.570251688161758 H 0.0 **** 0.0
105 H22672 0.522620919958115 0.613537767114634 0.560184091603598 H 0.0 **** 0.0
106 H22674 0.501684695026545 0.61046476775248 0.552841375683911 H 0.0 **** 0.0
107 H22676 0.470282509843729 0.665453758085558 0.606776573102004 H 0.0 **** 0.0
108 H22678 0.490585149613511 0.674674954083882 0.60981497858561 H 0.0 **** 0.0
109 H22680 0.483299600652978 0.657962028706022 0.622972176160246 H 0.0 **** 0.0
110 H22682 0.470892076419494 0.703328182972454 0.569234349449006 H 0.0 **** 0.0
111 H22684 0.454529300268139 0.688100640220148 0.571935172340247 H 0.0 **** 0.0
112 H22686 0.452511646703087 0.703389161515968 0.556248956488496 H 0.0 **** 0.0
113 H22688 0.478594062119206 0.712728649646575 0.520637318151277 H 0.0 **** 0.0
114 H22690 0.469486487622483 0.715347799740683 0.540405065245014 H 0.0 **** 0.0
115 H22692 0.45669899923521 0.707991480798551 0.523518884741376 H 0.0 **** 0.0
116 H22694 0.471429597283438 0.693294109182316 0.486600211288274 H 0.0 **** 0.0
117 H22696 0.494681117081953 0.716035262355988 0.432030014538299 H 0.0 **** 0.0
118 H22698 0.493484433631126 0.724264878211202 0.452893348298125 H 0.0 **** 0.0
119 H22700 0.475896769325021 0.713127573865631 0.444216025856501 H 0.0 **** 0.0
120 H22702 0.47471102790755 0.667772600120859 0.426682795902442 H 0.0 **** 0.0
121 H22704 0.468800321417498 0.688918833853877 0.431302946857396 H 0.0 **** 0.0
122 H22706 0.469523283550978 0.673449104156739 0.447796590336114 H 0.0 **** 0.0
123 H22708 0.528448467794109 0.630591053950882 0.44096996297682 H 0.0 **** 0.0
124 H22710 0.530783133611955 0.625630528314297 0.518660276379004 H 0.0 **** 0.0
125 H22712 0.586126928909854 0.587608522814611 0.369165538739317 H 0.0 **** 0.0
126 H22714 0.574883463483098 0.571215715622128 0.359012029414715 H 0.0 **** 0.0
127 H22716 0.590787086250454 0.566219506210482 0.373660174291543 H 0.0 **** 0.0
128 H22718 0.553494760215479 0.593951761382181 0.357065022259115 H 0.0 **** 0.0
129 H22720 0.532477239849424 0.588142740848432 0.3620293121643 H 0.0 **** 0.0
130 H22722 0.546773202030339 0.57259239743628 0.354838098712547 H 0.0 **** 0.0
@<TRIPOS>BOND
1 3 2 Aromatic
2 4 3 Aromatic
3 5 4 Aromatic
4 6 5 Aromatic
5 1 2 Aromatic
6 1 6 Aromatic
7 8 7 1
8 9 8 Aromatic
9 10 9 1
10 4 7 1
11 3 10 1
12 12 11 Aromatic
13 13 12 Aromatic
14 14 13 Aromatic
15 9 11 Aromatic
16 8 14 Aromatic
17 16 15 Aromatic
18 17 16 Aromatic
19 18 17 Aromatic
20 14 15 Aromatic
21 13 18 Aromatic
22 20 19 1
23 21 20 1
24 22 21 Aromatic
25 17 19 1
26 16 22 Aromatic
27 24 23 1
28 25 24 Aromatic
29 26 25 1
30 20 23 1
31 19 26 1
32 28 27 Aromatic
33 29 28 Aromatic
34 30 29 Aromatic
35 22 27 Aromatic
36 21 30 Aromatic
37 32 31 1
38 33 32 Aromatic
39 34 33 1
40 29 31 1
41 28 34 1
42 36 35 1
43 37 36 1
44 38 37 Aromatic
45 33 35 1
46 32 38 Aromatic
47 40 39 Aromatic
48 41 40 Aromatic
49 42 41 Aromatic
50 38 39 Aromatic
51 37 42 Aromatic
52 44 43 1
53 45 44 1
54 46 45 1
55 42 43 1
56 41 46 1
57 48 47 1
58 49 48 Aromatic
59 40 49 Aromatic
60 46 47 1
61 51 50 Aromatic
62 52 51 Aromatic
63 53 52 Aromatic
64 49 50 Aromatic
65 48 53 Aromatic
66 6 54 1
67 54 55 1
68 1 56 1
69 5 57 1
70 2 58 1
71 11 59 1
72 12 60 1
73 18 61 1
74 25 62 1
75 24 63 1
76 30 64 1
77 27 65 1
78 34 66 Double
79 31 67 Double
80 53 68 1
81 52 69 1
82 7 70 1
83 7 71 1
84 10 72 1
85 10 73 1
86 15 74 1
87 23 75 1
88 23 76 1
89 24 77 1
90 25 78 1
91 26 79 1
92 26 80 1
93 35 81 1
94 35 82 1
95 36 83 1
96 36 84 1
97 43 85 1
98 43 86 1
99 44 87 1
100 44 88 1
101 45 89 1
102 45 90 1
103 46 91 1
104 47 92 1
105 47 93 1
106 50 94 1
107 51 95 1
108 54 96 1
109 54 97 1
110 55 98 1
111 55 99 1
112 55 100 1
113 56 101 1
114 56 102 1
115 56 103 1
116 57 104 1
117 57 105 1
118 57 106 1
119 58 107 1
120 58 108 1
121 58 109 1
122 59 110 1
123 59 111 1
124 59 112 1
125 60 113 1
126 60 114 1
127 60 115 1
128 61 116 1
129 62 117 1
130 62 118 1
131 62 119 1
132 63 120 1
133 63 121 1
134 63 122 1
135 64 123 1
136 65 124 1
137 68 125 1
138 68 126 1
139 68 127 1
140 69 128 1
141 69 129 1
142 69 130 1
@<TRIPOS>MOLECULE
Sketch 4
130 142
SMALL
USER_CHARGES


@<TRIPOS>ATOM
1 C22724 -0.0272916302601277 0.637165408170159 0.416091479228496 C.Trigonal 0.0 **** 0.0
2 C22725 -0.0209157658115024 0.626844876231464 0.40345158230145 C 0.0 **** 0.0
3 C22726 -0.00383585706885901 0.623202363710729 0.403184804953199 C.Trigonal 0.0 **** 0.0
4 C22727 0.00662248370946401 0.628924763658443 0.415885104869761 C.Trigonal 0.0 **** 0.0
5 C22728 0.000176201275894116 0.638629429718449 0.428909025152774 C 0.0 **** 0.0
6 C22729 -0.0168467185980651 0.642730216119646 0.429034360179524 C 0.0 **** 0.0
7 C22736 0.025128391295857 0.623698718132755 0.414831204783189 C 0.0 **** 0.0
8 C22737 0.0318886042826534 0.625878912330099 0.396988229598954 C.Trigonal 0.0 **** 0.0
9 C22738 0.021279201575716 0.620674813490169 0.384183119084652 C.Trigonal 0.0 **** 0.0
10 C22739 0.00433651131953888 0.61296616445097 0.389182040808406 C 0.0 **** 0.0
11 C22745 0.0255812192387427 0.622950710400985 0.367342518737112 C 0.0 **** 0.0
12 C22746 0.0406376783344836 0.63067767234818 0.362984667693722 C 0.0 **** 0.0
13 C22747 0.0527715271408368 0.63332717010063 0.37560408659978 C.Trigonal 0.0 **** 0.0
14 C22748 0.0478305572308221 0.632356136315414 0.392817089459786 C.Trigonal 0.0 **** 0.0
15 C22754 0.0593267766550257 0.638057064081461 0.404942207635537 C 0.0 **** 0.0
16 C22755 0.0756818688822091 0.643533246839674 0.400770532499107 C.Trigonal 0.0 **** 0.0
17 C22756 0.0817345238868717 0.639649504131965 0.384339316747588 C.Trigonal 0.0 **** 0.0
18 C22757 0.0702650247037863 0.635689062637975 0.371625820546397 C 0.0 **** 0.0
19 C22763 0.100725900436743 0.641096148365242 0.381303801549422 C.Trigonal 0.0 **** 0.0
20 C22764 0.111164250660981 0.646330381096725 0.39398447145984 C.Trigonal 0.0 **** 0.0
21 C22765 0.103971343652637 0.651604817733377 0.411000281994674 C.Trigonal 0.0 **** 0.0
22 C22766 0.0862495259049063 0.652330404083713 0.412571953344527 C.Trigonal 0.0 **** 0.0
23 C22772 0.13016352421828 0.648556644225602 0.391392902011696 C 0.0 **** 0.0
24 C22773 0.13513594371593 0.648274891773712 0.37265768490157 C 0.0 **** 0.0
25 C22774 0.1268753914517 0.633090834372954 0.363778882517714 C 0.0 **** 0.0
26 C22775 0.107620942598823 0.635714870102062 0.364042237660837 C 0.0 **** 0.0
27 C22781 0.079322341071206 0.660693464564218 0.426867073377488 C 0.0 **** 0.0
28 C22782 0.0896678267108545 0.664552190412915 0.440415428532712 C.Trigonal 0.0 **** 0.0
29 C22783 0.106683097040171 0.660723149278632 0.439966571905601 C.Trigonal 0.0 **** 0.0
30 C22784 0.114032925727101 0.654368352669208 0.425297953905023 C 0.0 **** 0.0
31 C22790 0.117626001077635 0.663793819843143 0.455322032143458 C 0.0 **** 0.0
32 C22791 0.109642129488694 0.671320572673825 0.470378476055574 C.Trigonal 0.0 **** 0.0
33 C22792 0.0931558117136505 0.675843720910869 0.470447219931469 C.Trigonal 0.0 **** 0.0
34 C22793 0.0821366004140921 0.672794241712527 0.455821247957033 C 0.0 **** 0.0
35 C22799 0.0853866927350459 0.684422284056453 0.485788583679606 C 0.0 **** 0.0
36 C22800 0.0987958827611464 0.695666285245247 0.494570810964393 C 0.0 **** 0.0
37 C22801 0.114705235475494 0.685531571589798 0.498316621278584 C.Trigonal 0.0 **** 0.0
38 C22802 0.120164640456417 0.673748608189876 0.486017815702917 C.Trigonal 0.0 **** 0.0
39 N22808 0.134128508861285 0.664466425995638 0.488183165925431 N 0.0 **** 0.0
40 C22809 0.143436982280161 0.666997052806647 0.502119617874776 C.Trigonal 0.0 **** 0.0
41 C22810 0.138542324355044 0.678303169721029 0.515098676713415 C.Trigonal 0.0 **** 0.0
42 C22811 0.124087358195549 0.687651383868616 0.51288326175669 C.Trigonal 0.0 **** 0.0
43 C22817 0.118448095889929 0.700645388505647 0.525940473015106 C 0.0 **** 0.0
44 C22818 0.12782937848147 0.699115091623655 0.54280859278201 C 0.0 **** 0.0
45 C22819 0.14662840405464 0.695936715207453 0.540121523917244 C 0.0 **** 0.0
46 C22820 0.148871286480616 0.678855939786931 0.531281408652104 C 0.0 **** 0.0
47 C22826 0.167693611124354 0.674819387784249 0.527731487428985 C 0.0 **** 0.0
48 C22827 0.169522348386651 0.659495428317862 0.516366510086614 C.Trigonal 0.0 **** 0.0
49 C22828 0.157920352304187 0.656770823594639 0.50322899040914 C.Trigonal 0.0 **** 0.0
50 C22833 0.160603185646899 0.64326229039979 0.491840579513508 C 0.0 **** 0.0
51 C22834 0.173813100383405 0.632365942936578 0.494400924797175 C 0.0 **** 0.0
52 C22835 0.184881188879515 0.634603039577662 0.507778389056455 C 0.0 **** 0.0
53 C22836 0.182901735127538 0.648423162656231 0.518557120063516 C 0.0 **** 0.0
54 C22842 -0.0242199079957192 0.653170441798683 0.443389209855805 C 0.0 **** 0.0
55 C22844 -0.0221336535308462 0.672111716090776 0.439838456141025 C 0.0 **** 0.0
56 C22846 -0.0458359453483902 0.642103300890057 0.415746361449148 C 0.0 **** 0.0
57 C22848 0.0121035246337173 0.644561260003789 0.442606791733278 C 0.0 **** 0.0
58 C22850 -0.0324325230576588 0.619696751585948 0.389893126636617 C 0.0 **** 0.0
59 C22852 0.013366374976608 0.617270338741562 0.353695357995842 C 0.0 **** 0.0
60 C22854 0.0435210055805401 0.634705631916695 0.344532440810965 C 0.0 **** 0.0
61 O22856 0.0749996734258325 0.633818102596901 0.355108182966055 O 0.0 **** 0.0
62 C22858 0.131580414596433 0.615911862006973 0.371746986978924 C 0.0 **** 0.0
63 C22860 0.154501196453354 0.648100845466245 0.370804365097192 C 0.0 **** 0.0
64 O22862 0.131059620599863 0.650859034609268 0.424547406533721 O 0.0 **** 0.0
65 O22864 0.0623352649315342 0.664161493051981 0.427058911889511 O 0.0 **** 0.0
66 O22866 0.0673019947335334 0.676817424469136 0.455765181811835 O 0.0 **** 0.0
67 O22868 0.132527765208166 0.660034653261623 0.454532346589228 O 0.0 **** 0.0
68 C22870 0.195424347386287 0.651352465056031 0.53275824107399 C 0.0 **** 0.0
69 C22872 0.198807399159575 0.621740909692909 0.510061678811124 C 0.0 **** 0.0
70 H22874 0.0327477159770249 0.630573648635349 0.424024422056035 H 0.0 **** 0.0
71 H22876 0.0262584416783036 0.610250956949853 0.418530149678419 H 0.0 **** 0.0
72 H22878 0.00614502297191637 0.599736206179294 0.393320718996375 H 0.0 **** 0.0
73 H22880 -0.00416023220546262 0.612417841776287 0.378317676780211 H 0.0 **** 0.0
74 H22882 0.0553494423438747 0.638410894634595 0.418178019251654 H 0.0 **** 0.0
75 H22884 0.134463830130965 0.660747183573492 0.396606679543548 H 0.0 **** 0.0
76 H22886 0.137070820967302 0.638446144252092 0.39802814692053 H 0.0 **** 0.0
77 H22888 0.130325161529703 0.659901951938414 0.366728096315049 H 0.0 **** 0.0
78 H22890 0.131047271983765 0.632934806746562 0.350485712914754 H 0.0 **** 0.0
79 H22892 0.101874297440434 0.623749021501406 0.359871919808319 H 0.0 **** 0.0
80 H22894 0.104609400047037 0.645603677379909 0.354708358581877 H 0.0 **** 0.0
81 H22896 0.0744239382493679 0.692392162544842 0.482416779728393 H 0.0 **** 0.0
82 H22898 0.0806724535568699 0.674796732835581 0.494693335551627 H 0.0 **** 0.0
83 H22900 0.0930796362745245 0.701196505615126 0.505947397287312 H 0.0 **** 0.0
84 H22902 0.101958726179795 0.706432699807279 0.486272910985627 H 0.0 **** 0.0
85 H22904 0.120475226888581 0.713437739095362 0.520745410365745 H 0.0 **** 0.0
86 H22906 0.104814299811307 0.699447428242888 0.528425025661782 H 0.0 **** 0.0
87 H22908 0.122613021560903 0.68833768197474 0.549910229839539 H 0.0 **** 0.0
88 H22910 0.125613480571996 0.710471785112588 0.550568687522271 H 0.0 **** 0.0
89 H22912 0.153444283425172 0.695948828538753 0.552280907018903 H 0.0 **** 0.0
90 H22914 0.152149934609798 0.706160285012892 0.532445492327654 H 0.0 **** 0.0
91 H22916 0.144006948009844 0.668923839794859 0.539863524423554 H 0.0 **** 0.0
92 H22918 0.173733676831501 0.685810436262609 0.521681070564413 H 0.0 **** 0.0
93 H22920 0.174133378193936 0.673158059765073 0.539925977453306 H 0.0 **** 0.0
94 H22922 0.15184201767861 0.641073444362055 0.481283883172415 H 0.0 **** 0.0
95 H22924 0.175671314971025 0.621684484822958 0.485707143784974 H 0.0 **** 0.0
96 H22926 -0.0183310684875775 0.649893755294501 0.455569224131245 H 0.0 **** 0.0
97 H22928 -0.037681730721166 0.650254395686818 0.445349286355102 H 0.0 **** 0.0
98 H22930 -0.0280812567441324 0.675643326966934 0.427764842761234 H 0.0 **** 0.0
99 H22932 -0.00871011201944817 0.67570692375502 0.439152320487452 H 0.0 **** 0.0
100 H22934 -0.0280374117824967 0.679807582776207 0.449806520668719 H 0.0 **** 0.0
101 H22936 -0.050703351097439 0.643185655541606 0.402775326953675 H 0.0 **** 0.0
102 H22938 -0.0481795492516478 0.654531202531667 0.42147777664159 H 0.0 **** 0.0
103 H22940 -0.053671536383033 0.632757796824813 0.422484464518983 H 0.0 **** 0.0
104 H22942 0.023191343075076 0.650818441811597 0.437007995809565 H 0.0 **** 0.0
105 H22944 0.00651637334470364 0.653811677208007 0.451244720355369 H 0.0 **** 0.0
106 H22946 0.0166072166039258 0.633870374019772 0.450313588221818 H 0.0 **** 0.0
107 H22948 -0.0285841194150069 0.606899438718978 0.386047364200423 H 0.0 **** 0.0
108 H22950 -0.0325052733984486 0.627761088600381 0.378536264497018 H 0.0 **** 0.0
109 H22952 -0.0455527699798347 0.618330956907954 0.394236709227436 H 0.0 **** 0.0
110 H22954 0.0196536845268479 0.614866337828523 0.341562187514736 H 0.0 **** 0.0
111 H22956 0.00337252843751589 0.626720189434878 0.351532710440025 H 0.0 **** 0.0
112 H22958 0.00732050732182438 0.605202667605917 0.356956306553721 H 0.0 **** 0.0
113 H22960 0.0514264776567878 0.645995980927887 0.342805774711408 H 0.0 **** 0.0
114 H22962 0.0317118029641238 0.637697842325199 0.337866890023108 H 0.0 **** 0.0
115 H22964 0.0495564068651868 0.624006854390994 0.338040817083173 H 0.0 **** 0.0
116 H22966 0.0861474277255658 0.637882875721605 0.353816126376111 H 0.0 **** 0.0
117 H22968 0.145337195567544 0.613956873864833 0.371492923022935 H 0.0 **** 0.0
118 H22970 0.125699215512119 0.605532102896101 0.364594037306724 H 0.0 **** 0.0
119 H22972 0.127218346914532 0.615046916092233 0.384916543327281 H 0.0 **** 0.0
120 H22974 0.159944992201903 0.659723658575102 0.376163522624003 H 0.0 **** 0.0
121 H22976 0.158105239049701 0.64742110824793 0.357393914769373 H 0.0 **** 0.0
122 H22978 0.160025051179164 0.637225904957439 0.377443044217677 H 0.0 **** 0.0
123 H22980 0.135826482835266 0.652396225950934 0.435549464200926 H 0.0 **** 0.0
124 H22982 0.0597361753125126 0.670756982870171 0.436855961536624 H 0.0 **** 0.0
125 H22984 0.201024156655086 0.664079425321427 0.531938789000774 H 0.0 **** 0.0
126 H22986 0.205996787588486 0.642401314751758 0.532674334821675 H 0.0 **** 0.0
127 H22988 0.189284179608712 0.650127788216467 0.545198460028423 H 0.0 **** 0.0
128 H22990 0.211285281949002 0.627796762667731 0.510546388480163 H 0.0 **** 0.0
129 H22992 0.199134770472238 0.612607826487519 0.499607040102635 H 0.0 **** 0.0
130 H22994 0.197127332317557 0.614481170948568 0.521823504858972 H 0.0 **** 0.0
@<TRIPOS>BOND
1 3 2 Aromatic
2 4 3 Aromatic
3 5 4 Aromatic
4 6 5 Aromatic
5 1 2 Aromatic
6 1 6 Aromatic
7 8 7 1
8 9 8 Aromatic
9 10 9 1
10 4 7 1
11 3 10 1
12 12 11 Aromatic
13 13 12 Aromatic
14 14 13 Aromatic
15 9 11 Aromatic
16 8 14 Aromatic
17 16 15 Aromatic
18 17 16 Aromatic
19 18 17 Aromatic
20 14 15 Aromatic
21 13 18 Aromatic
22 20 19 1
23 21 20 1
24 22 21 Aromatic
25 17 19 1
26 16 22 Aromatic
27 24 23 1
28 25 24 Aromatic
29 26 25 1
30 20 23 1
31 19 26 1
32 28 27 Aromatic
33 29 28 Aromatic
34 30 29 Aromatic
35 22 27 Aromatic
36 21 30 Aromatic
37 32 31 1
38 33 32 Aromatic
39 34 33 1
40 29 31 1
41 28 34 1
42 36 35 1
43 37 36 1
44 38 37 Aromatic
45 33 35 1
46 32 38 Aromatic
47 40 39 Aromatic
48 41 40 Aromatic
49 42 41 Aromatic
50 38 39 Aromatic
51 37 42 Aromatic
52 44 43 1
53 45 44 1
54 46 45 1
55 42 43 1
56 41 46 1
57 48 47 1
58 49 48 Aromatic
59 40 49 Aromatic
60 46 47 1
61 51 50 Aromatic
62 52 51 Aromatic
63 53 52 Aromatic
64 49 50 Aromatic
65 48 53 Aromatic
66 6 54 1
67 54 55 1
68 1 56 1
69 5 57 1
70 2 58 1
71 11 59 1
72 12 60 1
73 18 61 1
74 25 62 1
75 24 63 1
76 30 64 1
77 27 65 1
78 34 66 Double
79 31 67 Double
80 53 68 1
81 52 69 1
82 7 70 1
83 7 71 1
84 10 72 1
85 10 73 1
86 15 74 1
87 23 75 1
88 23 76 1
89 24 77 1
90 25 78 1
91 26 79 1
92 26 80 1
93 35 81 1
94 35 82 1
95 36 83 1
96 36 84 1
97 43 85 1
98 43 86 1
99 44 87 1
100 44 88 1
101 45 89 1
102 45 90 1
103 46 91 1
104 47 92 1
105 47 93 1
106 50 94 1
107 51 95 1
108 54 96 1
109 54 97 1
110 55 98 1
111 55 99 1
112 55 100 1
113 56 101 1
114 56 102 1
115 56 103 1
116 57 104 1
117 57 105 1
118 57 106 1
119 58 107 1
120 58 108 1
121 58 109 1
122 59 110 1
123 59 111 1
124 59 112 1
125 60 113 1
126 60 114 1
127 60 115 1
128 61 116 1
129 62 117 1
130 62 118 1
131 62 119 1
132 63 120 1
133 63 121 1
134 63 122 1
135 64 123 1
136 65 124 1
137 68 125 1
138 68 126 1
139 68 127 1
140 69 128 1
141 69 129 1
142 69 130 1
@<TRIPOS>MOLECULE
Sketch 4
130 142
SMALL
USER_CHARGES


@<TRIPOS>ATOM
1 C22996 0.833494037780321 0.637199680224247 0.0769526330109109 C.Trigonal 0.0 **** 0.0
2 C22997 0.843914646221034 0.64268994648299 0.0640036958474158 C 0.0 **** 0.0
3 C22998 0.852273621708618 0.630920957308589 0.0541663572967479 C.Trigonal 0.0 **** 0.0
4 C22999 0.851402023016113 0.613870378759441 0.0578547514348024 C.Trigonal 0.0 **** 0.0
5 C23000 0.840984169929594 0.608361091044307 0.0707718624367838 C 0.0 **** 0.0
6 C23001 0.831724553098922 0.62004704260337 0.0800385132568659 C 0.0 **** 0.0
7 C23008 0.862467668798706 0.602286563657451 0.0470195146165919 C 0.0 **** 0.0
8 C23009 0.879863527599731 0.610035934176871 0.043934270913797 C.Trigonal 0.0 **** 0.0
9 C23010 0.880184416084583 0.627028214376048 0.0401107138411178 C.Trigonal 0.0 **** 0.0
10 C23011 0.863187057566208 0.635856452568505 0.0392344794957458 C 0.0 **** 0.0
11 C23017 0.895126852218981 0.635424097825737 0.0363660772553267 C 0.0 **** 0.0
12 C23018 0.910400735513664 0.626973697458235 0.0370234032643886 C 0.0 **** 0.0
13 C23019 0.910561872113531 0.61036141129895 0.0432095555266243 C.Trigonal 0.0 **** 0.0
14 C23020 0.89520057107456 0.601192505191222 0.0443671485244666 C.Trigonal 0.0 **** 0.0
15 C23026 0.896247780679402 0.583589732459162 0.0460669104049594 C 0.0 **** 0.0
16 C23027 0.911761776766021 0.575214905968485 0.0478686722100754 C.Trigonal 0.0 **** 0.0
17 C23028 0.925878771239965 0.585338384702691 0.0525300698700007 C.Trigonal 0.0 **** 0.0
18 C23029 0.925577292369909 0.602683648044997 0.0496481420837891 C 0.0 **** 0.0
19 C23035 0.941003613947115 0.576318088293647 0.0602555314980723 C.Trigonal 0.0 **** 0.0
20 C23036 0.941143676263588 0.55915828655767 0.060589610624422 C.Trigonal 0.0 **** 0.0
21 C23037 0.928976293452551 0.549310702930863 0.0496152041524468 C.Trigonal 0.0 **** 0.0
22 C23038 0.914309328545157 0.557676570471984 0.0438804350522954 C.Trigonal 0.0 **** 0.0
23 C23044 0.952579455420255 0.549285401527766 0.0725024238069785 C 0.0 **** 0.0
24 C23045 0.957402940511767 0.560318331145547 0.0877086529498428 C 0.0 **** 0.0
25 C23046 0.966001002696956 0.576611024992089 0.0813711157925953 C 0.0 **** 0.0
26 C23047 0.953426964202398 0.586919115911879 0.0705987758769355 C 0.0 **** 0.0
27 C23053 0.903686296684921 0.548994633167895 0.0321750845044236 C 0.0 **** 0.0
28 C23054 0.907733549857055 0.532736399315702 0.0270885652949974 C.Trigonal 0.0 **** 0.0
29 C23055 0.922100632949651 0.524766558618644 0.0329691108627544 C.Trigonal 0.0 **** 0.0
30 C23056 0.932901426435394 0.533064964912966 0.0440308865094536 C 0.0 **** 0.0
31 C23062 0.926665649500547 0.507132539434638 0.0270215546792147 C 0.0 **** 0.0
32 C23063 0.915642379886634 0.499005389318519 0.014428780152803 C.Trigonal 0.0 **** 0.0
33 C23064 0.901441553123966 0.506748983149277 0.00883586778171236 C.Trigonal 0.0 **** 0.0
34 C23065 0.896427252002774 0.523726360999536 0.0146524362431171 C 0.0 **** 0.0
35 C23071 0.889809643210745 0.498111977370438 -0.00372060237436002 C 0.0 **** 0.0
36 C23072 0.890197209974606 0.4787463284155 -0.00119283146066945 C 0.0 **** 0.0
37 C23073 0.90825994906621 0.472219497087605 -0.00112628590415655 C.Trigonal 0.0 **** 0.0
38 C23074 0.920554837484083 0.481859834580685 0.00762340071243266 C.Trigonal 0.0 **** 0.0
39 N23080 0.936446734162912 0.476329069049384 0.00943548407577633 N 0.0 **** 0.0
40 C23081 0.940655530338747 0.461374828275352 0.00261092825186212 C.Trigonal 0.0 **** 0.0
41 C23082 0.929387078490789 0.451879676995039 -0.00753754639729695 C.Trigonal 0.0 **** 0.0
42 C23083 0.913002458993671 0.457407743346113 -0.0090601984976663 C.Trigonal 0.0 **** 0.0
43 C23089 0.900013667043217 0.447393895371983 -0.0191712238534796 C 0.0 **** 0.0
44 C23090 0.908209864791979 0.43463086383816 -0.031176699801632 C 0.0 **** 0.0
45 C23091 0.921963590047267 0.424625130436229 -0.0221816137849769 C 0.0 **** 0.0
46 C23092 0.936265193869824 0.436584995123105 -0.0169347371364062 C 0.0 **** 0.0
47 C23098 0.949987872729085 0.427333651833722 -0.00641985650221967 C 0.0 **** 0.0
48 C23099 0.962265180748131 0.439547100639194 0.00183951996892381 C.Trigonal 0.0 **** 0.0
49 C23100 0.95728665225819 0.456059504606205 0.00602333057716981 C.Trigonal 0.0 **** 0.0
50 C23105 0.968905637428748 0.466814554656464 0.0143150625211283 C 0.0 **** 0.0
51 C23106 0.984701483329771 0.460997082321786 0.0183962460280451 C 0.0 **** 0.0
52 C23107 0.989517834278581 0.444588059806618 0.0146561369469288 C 0.0 **** 0.0
53 C23108 0.978148148920558 0.433822433030911 0.00654284931348944 C 0.0 **** 0.0
54 C23114 0.819961363306104 0.613886285673689 0.0939604216087267 C 0.0 **** 0.0
55 C23116 0.828671232980337 0.614668331583611 0.11125812751121 C 0.0 **** 0.0
56 C23118 0.824592006171545 0.650185772616143 0.0878891807691242 C 0.0 **** 0.0
57 C23120 0.839242676018383 0.58981089754622 0.0751235101205089 C 0.0 **** 0.0
58 C23122 0.846606972200028 0.661355628617329 0.060591612724985 C 0.0 **** 0.0
59 C23124 0.894180750075595 0.653959561647318 0.0314842789209175 C 0.0 **** 0.0
60 C23126 0.926256460504773 0.636343328155225 0.0318046152568327 C 0.0 **** 0.0
61 O23128 0.939244822273563 0.612886125438304 0.0526232848580162 O 0.0 **** 0.0
62 C23130 0.982265124872586 0.573283259668003 0.0711106356703431 C 0.0 **** 0.0
63 C23132 0.9686848503224 0.550511852112261 0.100135854718279 C 0.0 **** 0.0
64 O23134 0.947809241735029 0.525771327891471 0.0493111635309002 O 0.0 **** 0.0
65 O23136 0.889969003944141 0.557268303854721 0.0255570575353644 O 0.0 **** 0.0
66 O23138 0.883571854788179 0.530606385319412 0.00974253388652224 O 0.0 **** 0.0
67 O23140 0.939137158635367 0.500397014346155 0.0329759828267304 O 0.0 **** 0.0
68 C23142 0.983293633991332 0.415709642926446 0.00296461849800973 C 0.0 **** 0.0
69 C23144 1.00705524504824 0.438946239812058 0.0198086955197871 C 0.0 **** 0.0
70 H23146 0.86394723324819 0.589903430317632 0.0528723050590331 H 0.0 **** 0.0
71 H23148 0.85615672210061 0.599954428770086 0.0347591644005222 H 0.0 **** 0.0
72 H23150 0.856907280811884 0.631689251340418 0.0275165515993095 H 0.0 **** 0.0
73 H23152 0.864263258147324 0.649532583185403 0.0378893336875745 H 0.0 **** 0.0
74 H23154 0.884522682063108 0.576279780574707 0.0452521406477203 H 0.0 **** 0.0
75 H23156 0.946065649984784 0.537970594721726 0.0773361847027267 H 0.0 **** 0.0
76 H23158 0.964080379930042 0.544989241181311 0.0659662631660395 H 0.0 **** 0.0
77 H23160 0.945755594997768 0.563830024767253 0.0944814236977944 H 0.0 **** 0.0
78 H23162 0.969578144664585 0.584272774509222 0.0924328626206652 H 0.0 **** 0.0
79 H23164 0.961003865927627 0.595165834705675 0.0623557448982638 H 0.0 **** 0.0
80 H23166 0.94602124155996 0.594892855714629 0.0792159810826129 H 0.0 **** 0.0
81 H23168 0.876618688494416 0.502394755067466 -0.00231810713992913 H 0.0 **** 0.0
82 H23170 0.893725721276142 0.501287365708095 -0.016696464141972 H 0.0 **** 0.0
83 H23172 0.882303498362532 0.472897669649265 -0.0109803799558357 H 0.0 **** 0.0
84 H23174 0.884068661591895 0.475602375581829 0.0109560858737684 H 0.0 **** 0.0
85 H23176 0.891511980242852 0.440669157973682 -0.0103867200126482 H 0.0 **** 0.0
86 H23178 0.892070002350029 0.45585793029662 -0.0268165174993707 H 0.0 **** 0.0
87 H23180 0.913977416276323 0.441444259690476 -0.0418779824443324 H 0.0 **** 0.0
88 H23182 0.898536254857506 0.426212621863971 -0.0366091037361042 H 0.0 **** 0.0
89 H23184 0.926970121183536 0.414631777878927 -0.0305147548119714 H 0.0 **** 0.0
90 H23186 0.91660866009029 0.418264457814936 -0.0109900384257008 H 0.0 **** 0.0
91 H23188 0.942394927610549 0.441211166985824 -0.0286419009447704 H 0.0 **** 0.0
92 H23190 0.943841117268209 0.41965808484301 0.00343377969874347 H 0.0 **** 0.0
93 H23192 0.956556091646435 0.418409524855023 -0.0148481180928617 H 0.0 **** 0.0
94 H23194 0.965233586911774 0.479758938104785 0.0177983288727405 H 0.0 **** 0.0
95 H23196 0.993619175583172 0.469431018937683 0.0249088344027091 H 0.0 **** 0.0
96 H23198 0.815550948450767 0.600909756006753 0.0915969472370396 H 0.0 **** 0.0
97 H23200 0.808176912942969 0.621252767008756 0.094270471216245 H 0.0 **** 0.0
98 H23202 0.832488172288839 0.627658657530551 0.114439234954233 H 0.0 **** 0.0
99 H23204 0.840060949845636 0.606682441272698 0.111562334133122 H 0.0 **** 0.0
100 H23206 0.820190495368431 0.6102310176902 0.121355711561223 H 0.0 **** 0.0
101 H23208 0.833341858791458 0.655356588894584 0.0974005191605774 H 0.0 **** 0.0
102 H23210 0.813626126185156 0.645310033378128 0.0947839494170612 H 0.0 **** 0.0
103 H23212 0.819767363861525 0.660792283385408 0.0803596604742974 H 0.0 **** 0.0
104 H23214 0.839045577408302 0.58771756167113 0.088876425604726 H 0.0 **** 0.0
105 H23216 0.849608660165455 0.581941396167091 0.0705354610111543 H 0.0 **** 0.0
106 H23218 0.827388750608888 0.584661010497035 0.0699332043198806 H 0.0 **** 0.0
107 H23220 0.860134090054185 0.664346375803678 0.0593783598007316 H 0.0 **** 0.0
108 H23222 0.841936348825537 0.669620581298325 0.070675633090794 H 0.0 **** 0.0
109 H23224 0.840364171235743 0.665310117760379 0.048830004519872 H 0.0 **** 0.0
110 H23226 0.906486236528892 0.660271782620864 0.0307630209623125 H 0.0 **** 0.0
111 H23228 0.886975259288917 0.661236891194783 0.0408997046014953 H 0.0 **** 0.0
112 H23230 0.887991040024505 0.655557440532426 0.0191090894352561 H 0.0 **** 0.0
113 H23232 0.931382890774492 0.64400449720531 0.04223045054962 H 0.0 **** 0.0
114 H23234 0.924018035058234 0.644710736695456 0.0209310927009171 H 0.0 **** 0.0
115 H23236 0.936190801591544 0.627701535302444 0.0274356053965719 H 0.0 **** 0.0
116 H23238 0.94689257467389 0.606834946849727 0.0595232328669007 H 0.0 **** 0.0
117 H23240 0.991366337370697 0.565824677805589 0.07849368706697 H 0.0 **** 0.0
118 H23242 0.988415110755295 0.585332788699788 0.0678803067557867 H 0.0 **** 0.0
119 H23244 0.979521251832196 0.566564998055687 0.0592588776421732 H 0.0 **** 0.0
120 H23246 0.961889653197277 0.539512106643954 0.105218894845274 H 0.0 **** 0.0
121 H23248 0.972176681487139 0.558653257052343 0.110840179025729 H 0.0 **** 0.0
122 H23250 0.980268847599696 0.545988289173937 0.0939449324507167 H 0.0 **** 0.0
123 H23252 0.948470621563263 0.514503491556351 0.0449803514382833 H 0.0 **** 0.0
124 H23254 0.884261203613119 0.549939567587368 0.0178358204440262 H 0.0 **** 0.0
125 H23256 0.972820787545257 0.406890733006755 0.00531570021469388 H 0.0 **** 0.0
126 H23258 0.993721461390745 0.411409493769581 0.0110418975974731 H 0.0 **** 0.0
127 H23260 0.987310763509848 0.414075515461812 -0.0102691538786469 H 0.0 **** 0.0
128 H23262 1.00658520230877 0.430412488525272 0.0308088596811992 H 0.0 **** 0.0
129 H23264 1.01506723253548 0.449741577307089 0.0233074496068684 H 0.0 **** 0.0
130 H23266 1.01357159806599 0.432299635918201 0.00947897235065383 H 0.0 **** 0.0
@<TRIPOS>BOND
1 3 2 Aromatic
2 4 3 Aromatic
3 5 4 Aromatic
4 6 5 Aromatic
5 1 2 Aromatic
6 1 6 Aromatic
7 8 7 1
8 9 8 Aromatic
9 10 9 1
10 4 7 1
11 3 10 1
12 12 11 Aromatic
13 13 12 Aromatic
14 14 13 Aromatic
15 9 11 Aromatic
16 8 14 Aromatic
17 16 15 Aromatic
18 17 16 Aromatic
19 18 17 Aromatic
20 14 15 Aromatic
21 13 18 Aromatic
22 20 19 1
23 21 20 1
24 22 21 Aromatic
25 17 19 1
26 16 22 Aromatic
27 24 23 1
28 25 24 Aromatic
29 26 25 1
30 20 23 1
31 19 26 1
32 28 27 Aromatic
33 29 28 Aromatic
34 30 29 Aromatic
35 22 27 Aromatic
36 21 30 Aromatic
37 32 31 1
38 33 32 Aromatic
39 34 33 1
40 29 31 1
41 28 34 1
42 36 35 1
43 37 36 1
44 38 37 Aromatic
45 33 35 1
46 32 38 Aromatic
47 40 39 Aromatic
48 41 40 Aromatic
49 42 41 Aromatic
50 38 39 Aromatic
51 37 42 Aromatic
52 44 43 1
53 45 44 1
54 46 45 1
55 42 43 1
56 41 46 1
57 48 47 1
58 49 48 Aromatic
59 40 49 Aromatic
60 46 47 1
61 51 50 Aromatic
62 52 51 Aromatic
63 53 52 Aromatic
64 49 50 Aromatic
65 48 53 Aromatic
66 6 54 1
67 54 55 1
68 1 56 1
69 5 57 1
70 2 58 1
71 11 59 1
72 12 60 1
73 18 61 1
74 25 62 1
75 24 63 1
76 30 64 1
77 27 65 1
78 34 66 Double
79 31 67 Double
80 53 68 1
81 52 69 1
82 7 70 1
83 7 71 1
84 10 72 1
85 10 73 1
86 15 74 1
87 23 75 1
88 23 76 1
89 24 77 1
90 25 78 1
91 26 79 1
92 26 80 1
93 35 81 1
94 35 82 1
95 36 83 1
96 36 84 1
97 43 85 1
98 43 86 1
99 44 87 1
100 44 88 1
101 45 89 1
102 45 90 1
103 46 91 1
104 47 92 1
105 47 93 1
106 50 94 1
107 51 95 1
108 54 96 1
109 54 97 1
110 55 98 1
111 55 99 1
112 55 100 1
113 56 101 1
114 56 102 1
115 56 103 1
116 57 104 1
117 57 105 1
118 57 106 1
119 58 107 1
120 58 108 1
121 58 109 1
122 59 110 1
123 59 111 1
124 59 112 1
125 60 113 1
126 60 114 1
127 60 115 1
128 61 116 1
129 62 117 1
130 62 118 1
131 62 119 1
132 63 120 1
133 63 121 1
134 63 122 1
135 64 123 1
136 65 124 1
137 68 125 1
138 68 126 1
139 68 127 1
140 69 128 1
141 69 129 1
142 69 130 1
@<TRIPOS>MOLECULE
Sketch 4
130 142
SMALL
USER_CHARGES


@<TRIPOS>ATOM
1 C23268 0.192245388493301 0.215540310001122 0.989225768067053 C.Trigonal 0.0 **** 0.0
2 C23269 0.204544468092619 0.223339136515022 0.998957714912252 C 0.0 **** 0.0
3 C23270 0.218629208670268 0.230428492199709 0.991308794851985 C.Trigonal 0.0 **** 0.0
4 C23271 0.220212573700417 0.229909919387126 0.974012230057151 C.Trigonal 0.0 **** 0.0
5 C23272 0.20772392427515 0.222468275640633 0.964173361742248 C 0.0 **** 0.0
6 C23273 0.19355916472057 0.215570487785327 0.971775950814913 C 0.0 **** 0.0
7 C23280 0.235410043712088 0.238008513083945 0.965466035235353 C 0.0 **** 0.0
8 C23281 0.250771439661268 0.241199240686231 0.976500868268709 C.Trigonal 0.0 **** 0.0
9 C23282 0.249323626108044 0.241897379411934 0.993777234121432 C.Trigonal 0.0 **** 0.0
10 C23283 0.232152088639432 0.238956772430798 1.00207853771489 C 0.0 **** 0.0
11 C23289 0.263322176843678 0.245708522427664 1.00379419298991 C 0.0 **** 0.0
12 C23290 0.279407399638218 0.246823594945449 0.996855117982278 C 0.0 **** 0.0
13 C23291 0.281333153904637 0.243469378121755 0.979623681326454 C.Trigonal 0.0 **** 0.0
14 C23292 0.266818241502309 0.243425481982386 0.969158203733256 C.Trigonal 0.0 **** 0.0
15 C23298 0.268996125977037 0.243327612812847 0.951627971675357 C 0.0 **** 0.0
16 C23299 0.28435705594885 0.238507185244629 0.944201567723517 C.Trigonal 0.0 **** 0.0
17 C23300 0.296803879921512 0.232530473696534 0.95562000232887 C.Trigonal 0.0 **** 0.0
18 C23301 0.296648978599903 0.236982400349726 0.972576608773923 C 0.0 **** 0.0
19 C23307 0.310430620586009 0.221484885263034 0.948490829601875 C.Trigonal 0.0 **** 0.0
20 C23308 0.313012532191812 0.221005151048498 0.931634018468696 C.Trigonal 0.0 **** 0.0
21 C23309 0.303512553498697 0.232960534593553 0.920268939966673 C.Trigonal 0.0 **** 0.0
22 C23310 0.288473146344632 0.240217855686195 0.926523660360525 C.Trigonal 0.0 **** 0.0
23 C23316 0.323195379704533 0.206391711581264 0.924130055564648 C 0.0 **** 0.0
24 C23317 0.318367456628127 0.18903256939882 0.931855201239597 C 0.0 **** 0.0
25 C23318 0.31089429889614 0.190355482328595 0.950059749655282 C 0.0 **** 0.0
26 C23319 0.316501241417381 0.206631481210521 0.959071505497782 C 0.0 **** 0.0
27 C23325 0.279170693445673 0.250893976076236 0.915404134306831 C 0.0 **** 0.0
28 C23326 0.284897967392967 0.253578307286327 0.899064817414631 C.Trigonal 0.0 **** 0.0
29 C23327 0.300210229073988 0.24713517511477 0.893683801020334 C.Trigonal 0.0 **** 0.0
30 C23328 0.309963382332387 0.237412074081637 0.904543443897549 C 0.0 **** 0.0
31 C23334 0.306528972861397 0.250382775612872 0.875924712685509 C 0.0 **** 0.0
32 C23335 0.295746219350694 0.260354772824811 0.864446352278011 C.Trigonal 0.0 **** 0.0
33 C23336 0.280789827350419 0.266783022079855 0.869779965504964 C.Trigonal 0.0 **** 0.0
34 C23337 0.274400921722692 0.264021745151799 0.887061563128852 C 0.0 **** 0.0
35 C23343 0.269818501361428 0.277493808194527 0.858220162385578 C 0.0 **** 0.0
36 C23344 0.271860264330774 0.271946523134275 0.839617549607395 C 0.0 **** 0.0
37 C23345 0.290325860919157 0.270162160743102 0.834624700255486 C.Trigonal 0.0 **** 0.0
38 C23346 0.301870157849623 0.263600483205695 0.846640862400456 C.Trigonal 0.0 **** 0.0
39 N23352 0.318021964360913 0.2604459570403 0.84248989881442 N 0.0 **** 0.0
40 C23353 0.322937281841152 0.263145775600911 0.826519228645679 C.Trigonal 0.0 **** 0.0
41 C23354 0.312307835047312 0.270680788624446 0.814229825615905 C.Trigonal 0.0 **** 0.0
42 C23355 0.295964572732784 0.27434471754227 0.818625821598166 C.Trigonal 0.0 **** 0.0
43 C23361 0.283943076992595 0.282478105475079 0.805972777858728 C 0.0 **** 0.0
44 C23362 0.293332502089667 0.290544401851906 0.791098586349086 C 0.0 **** 0.0
45 C23363 0.30615983076799 0.278140635515953 0.783956138045412 C 0.0 **** 0.0
46 C23364 0.319958102875639 0.275060357575058 0.797163570197601 C 0.0 **** 0.0
47 C23370 0.332504326239172 0.261059468849351 0.791861367537877 C 0.0 **** 0.0
48 C23371 0.345089427004258 0.257897852514799 0.805964418389602 C.Trigonal 0.0 **** 0.0
49 C23372 0.339829640432519 0.258892493050351 0.822895131550165 C.Trigonal 0.0 **** 0.0
50 C23377 0.351663670003279 0.255786351232146 0.835888694314089 C 0.0 **** 0.0
51 C23378 0.367995231344412 0.251649091724219 0.831848409446035 C 0.0 **** 0.0
52 C23379 0.37305766242568 0.250009915355993 0.815165410287777 C 0.0 **** 0.0
53 C23380 0.361470128853121 0.252986266939609 0.802210029954079 C 0.0 **** 0.0
54 C23386 0.179423797287509 0.208254200131568 0.961041940846381 C 0.0 **** 0.0
55 C23388 0.183410577675926 0.190025961871467 0.9558933148541 C 0.0 **** 0.0
56 C23390 0.177302033275962 0.207297362727126 0.997974716608879 C 0.0 **** 0.0
57 C23392 0.210111791414361 0.222233134132238 0.945123354179108 C 0.0 **** 0.0
58 C23394 0.202636622690187 0.224270305796551 1.01801262917207 C 0.0 **** 0.0
59 C23396 0.261173868955063 0.248259362046748 1.02272711911449 C 0.0 **** 0.0
60 C23398 0.294306759153079 0.249808728559607 1.00851690463772 C 0.0 **** 0.0
61 O23400 0.310450615737895 0.234306347720297 0.982792122620608 O 0.0 **** 0.0
62 C23402 0.314986819295557 0.174979788923683 0.961226149703459 C 0.0 **** 0.0
63 C23404 0.333943408488327 0.177388835175882 0.930667103061345 C 0.0 **** 0.0
64 O23406 0.325884227639336 0.231827931140483 0.900281680176988 O 0.0 **** 0.0
65 O23408 0.264786727720811 0.258642018032969 0.921136008445396 O 0.0 **** 0.0
66 O23410 0.261006682256084 0.269944494643084 0.891801588081892 O 0.0 **** 0.0
67 O23412 0.32010388431638 0.24439997192908 0.871834736318065 O 0.0 **** 0.0
68 C23414 0.366831654500057 0.250834080794708 0.783936269426351 C 0.0 **** 0.0
69 C23416 0.391148225741103 0.24485093481973 0.811744279936411 C 0.0 **** 0.0
70 H23418 0.23937510423275 0.229636255055662 0.955098269924616 H 0.0 **** 0.0
71 H23420 0.231520094420783 0.250035062970167 0.959539061605204 H 0.0 **** 0.0
72 H23422 0.227203969483755 0.251153809321371 1.00678076427161 H 0.0 **** 0.0
73 H23424 0.23422466077585 0.230859690053147 1.01321326510704 H 0.0 **** 0.0
74 H23426 0.257761915316312 0.245139602581779 0.943770191825443 H 0.0 **** 0.0
75 H23428 0.32178477789855 0.205166309659291 0.910361359780208 H 0.0 **** 0.0
76 H23430 0.336647627079556 0.209036353110094 0.926452181346312 H 0.0 **** 0.0
77 H23432 0.308436203001006 0.18348948124225 0.92383469228824 H 0.0 **** 0.0
78 H23434 0.297034572842856 0.190887774701085 0.948780556516909 H 0.0 **** 0.0
79 H23436 0.330268944934194 0.206837872819308 0.960032351575697 H 0.0 **** 0.0
80 H23438 0.311421403749902 0.206457638944944 0.972025791348767 H 0.0 **** 0.0
81 H23440 0.256283163061919 0.276719504489856 0.861570054612966 H 0.0 **** 0.0
82 H23442 0.273381115693919 0.290904366309771 0.859487609063084 H 0.0 **** 0.0
83 H23444 0.265115086399294 0.281098705712149 0.831688657108301 H 0.0 **** 0.0
84 H23446 0.265392991287225 0.259704376392126 0.837752411237762 H 0.0 **** 0.0
85 H23448 0.275077848894063 0.272842609043815 0.80113024527857 H 0.0 **** 0.0
86 H23450 0.276319834395997 0.292360176009058 0.812073756815283 H 0.0 **** 0.0
87 H23452 0.299982543120432 0.302043165408618 0.795333469573483 H 0.0 **** 0.0
88 H23454 0.284364444483275 0.294643961206329 0.781317933297712 H 0.0 **** 0.0
89 H23456 0.311723193554179 0.283167334642439 0.772245854776219 H 0.0 **** 0.0
90 H23458 0.299773048426626 0.266198237263577 0.780607046045507 H 0.0 **** 0.0
91 H23460 0.327169426812274 0.286981467373322 0.798556693293855 H 0.0 **** 0.0
92 H23462 0.325559274749715 0.249307584700546 0.788931753858107 H 0.0 **** 0.0
93 H23464 0.33878828224782 0.265077131169281 0.780143886583603 H 0.0 **** 0.0
94 H23466 0.347794572363046 0.256847650672896 0.849184003579152 H 0.0 **** 0.0
95 H23468 0.377219151115302 0.249421438360304 0.842000738225495 H 0.0 **** 0.0
96 H23470 0.177157905653429 0.216130130008339 0.949809828496776 H 0.0 **** 0.0
97 H23472 0.167261018847357 0.208554044407032 0.967747486605682 H 0.0 **** 0.0
98 H23474 0.184423017075022 0.181950461335251 0.967152124094001 H 0.0 **** 0.0
99 H23476 0.195432285023444 0.189126574770224 0.948949449228102 H 0.0 **** 0.0
100 H23478 0.173447019298651 0.184677885077769 0.947790224663616 H 0.0 **** 0.0
101 H23480 0.167380609102152 0.21659418339958 1.00095950717612 H 0.0 **** 0.0
102 H23482 0.181168380524041 0.201234715183318 1.00986188370921 H 0.0 **** 0.0
103 H23484 0.171518110132524 0.197121137496269 0.990523649391829 H 0.0 **** 0.0
104 H23486 0.221232870116506 0.214589872238941 0.941645372060528 H 0.0 **** 0.0
105 H23488 0.212032729097757 0.235087339751981 0.940126152378521 H 0.0 **** 0.0
106 H23490 0.199493730587009 0.216835405308536 0.938091754667717 H 0.0 **** 0.0
107 H23492 0.207555379005555 0.236241745335879 1.02307087079265 H 0.0 **** 0.0
108 H23494 0.209348842226913 0.213806343816536 1.02429865740393 H 0.0 **** 0.0
109 H23496 0.189381601099054 0.223797577774411 1.0221114179912 H 0.0 **** 0.0
110 H23498 0.266513556183111 0.260445771762316 1.02683497425992 H 0.0 **** 0.0
111 H23500 0.267499952571781 0.238137902060606 1.0299076514167 H 0.0 **** 0.0
112 H23502 0.247967905962584 0.248583679790381 1.02687914268813 H 0.0 **** 0.0
113 H23504 0.299386782838043 0.237742349123495 1.01328905223598 H 0.0 **** 0.0
114 H23506 0.291161093334793 0.257667030844641 1.01950409311295 H 0.0 **** 0.0
115 H23508 0.304596622677121 0.256604045455125 1.00209624138891 H 0.0 **** 0.0
116 H23510 0.320531409721453 0.23666811856898 0.976627999571292 H 0.0 **** 0.0
117 H23512 0.310766625020612 0.163255114966381 0.955080097125415 H 0.0 **** 0.0
118 H23514 0.308423191130986 0.176086409124574 0.973433330068969 H 0.0 **** 0.0
119 H23516 0.328626676852628 0.174106762409083 0.963751086545459 H 0.0 **** 0.0
120 H23518 0.338931621210165 0.177326746190589 0.917679207066722 H 0.0 **** 0.0
121 H23520 0.330642612713945 0.164298118830691 0.933967750708222 H 0.0 **** 0.0
122 H23522 0.343996779592418 0.181764823416488 0.939185049799331 H 0.0 **** 0.0
123 H23524 0.328409534750987 0.235374439026768 0.889020350388832 H 0.0 **** 0.0
124 H23526 0.2597307536044 0.264828966749132 0.912082301045202 H 0.0 **** 0.0
125 H23528 0.367534276024547 0.263121026783252 0.777438851612445 H 0.0 **** 0.0
126 H23530 0.357842599253367 0.242794697056391 0.776988303508172 H 0.0 **** 0.0
127 H23532 0.379239048044399 0.244789989976122 0.782581616781615 H 0.0 **** 0.0
128 H23534 0.391788163248869 0.23227990906954 0.805775278187899 H 0.0 **** 0.0
129 H23536 0.398580035659864 0.244153744116153 0.823456168051673 H 0.0 **** 0.0
130 H23538 0.39757591787352 0.253947780152277 0.803402141625126 H 0.0 **** 0.0
@<TRIPOS>BOND
1 3 2 Aromatic
2 4 3 Aromatic
3 5 4 Aromatic
4 6 5 Aromatic
5 1 2 Aromatic
6 1 6 Aromatic
7 8 7 1
8 9 8 Aromatic
9 10 9 1
10 4 7 1
11 3 10 1
12 12 11 Aromatic
13 13 12 Aromatic
14 14 13 Aromatic
15 9 11 Aromatic
16 8 14 Aromatic
17 16 15 Aromatic
18 17 16 Aromatic
19 18 17 Aromatic
20 14 15 Aromatic
21 13 18 Aromatic
22 20 19 1
23 21 20 1
24 22 21 Aromatic
25 17 19 1
26 16 22 Aromatic
27 24 23 1
28 25 24 Aromatic
29 26 25 1
30 20 23 1
31 19 26 1
32 28 27 Aromatic
33 29 28 Aromatic
34 30 29 Aromatic
35 22 27 Aromatic
36 21 30 Aromatic
37 32 31 1
38 33 32 Aromatic
39 34 33 1
40 29 31 1
41 28 34 1
42 36 35 1
43 37 36 1
44 38 37 Aromatic
45 33 35 1
46 32 38 Aromatic
47 40 39 Aromatic
48 41 40 Aromatic
49 42 41 Aromatic
50 38 39 Aromatic
51 37 42 Aromatic
52 44 43 1
53 45 44 1
54 46 45 1
55 42 43 1
56 41 46 1
57 48 47 1
58 49 48 Aromatic
59 40 49 Aromatic
60 46 47 1
61 51 50 Aromatic
62 52 51 Aromatic
63 53 52 Aromatic
64 49 50 Aromatic
65 48 53 Aromatic
66 6 54 1
67 54 55 1
68 1 56 1
69 5 57 1
70 2 58 1
71 11 59 1
72 12 60 1
73 18 61 1
74 25 62 1
75 24 63 1
76 30 64 1
77 27 65 1
78 34 66 Double
79 31 67 Double
80 53 68 1
81 52 69 1
82 7 70 1
83 7 71 1
84 10 72 1
85 10 73 1
86 15 74 1
87 23 75 1
88 23 76 1
89 24 77 1
90 25 78 1
91 26 79 1
92 26 80 1
93 35 81 1
94 35 82 1
95 36 83 1
96 36 84 1
97 43 85 1
98 43 86 1
99 44 87 1
100 44 88 1
101 45 89 1
102 45 90 1
103 46 91 1
104 47 92 1
105 47 93 1
106 50 94 1
107 51 95 1
108 54 96 1
109 54 97 1
110 55 98 1
111 55 99 1
112 55 100 1
113 56 101 1
114 56 102 1
115 56 103 1
116 57 104 1
117 57 105 1
118 57 106 1
119 58 107 1
120 58 108 1
121 58 109 1
122 59 110 1
123 59 111 1
124 59 112 1
125 60 113 1
126 60 114 1
127 60 115 1
128 61 116 1
129 62 117 1
130 62 118 1
131 62 119 1
132 63 120 1
133 63 121 1
134 63 122 1
135 64 123 1
136 65 124 1
137 68 125 1
138 68 126 1
139 68 127 1
140 69 128 1
141 69 129 1
142 69 130 1
@<TRIPOS>MOLECULE
Sketch 4
130 142
SMALL
USER_CHARGES


@<TRIPOS>ATOM
1 C23540 0.482721562271069 0.871789397294717 0.821745706670746 C.Trigonal 0.0 **** 0.0
2 C23541 0.469736970305522 0.861144855552041 0.816801976122002 C 0.0 **** 0.0
3 C23542 0.471888463569326 0.843855331190922 0.8180121388487 C.Trigonal 0.0 **** 0.0
4 C23543 0.486757666792244 0.837182166373897 0.824199324208264 C.Trigonal 0.0 **** 0.0
5 C23544 0.499829804776489 0.847738363286721 0.829084162921659 C 0.0 **** 0.0
6 C23545 0.497614767694407 0.865093510552386 0.828157446091426 C 0.0 **** 0.0
7 C23552 0.487847743317173 0.817999667317748 0.824995809262215 C 0.0 **** 0.0
8 C23553 0.481039372111127 0.810283395386229 0.808782334987476 C.Trigonal 0.0 **** 0.0
9 C23554 0.466312856984551 0.816965170511922 0.802381083306159 C.Trigonal 0.0 **** 0.0
10 C23555 0.458377851053331 0.831444129388423 0.81227822698932 C 0.0 **** 0.0
11 C23561 0.459207649297522 0.810732473140627 0.787578118882697 C 0.0 **** 0.0
12 C23562 0.467809059138565 0.799040011408578 0.777778647597692 C 0.0 **** 0.0
13 C23563 0.482439690116679 0.791427553325971 0.78448370868984 C.Trigonal 0.0 **** 0.0
14 C23564 0.488108494248587 0.796239692675542 0.800825435459337 C.Trigonal 0.0 **** 0.0
15 C23570 0.500121371116294 0.786188230404856 0.808981079573136 C 0.0 **** 0.0
16 C23571 0.50730530835886 0.772029578416679 0.801252495251488 C.Trigonal 0.0 **** 0.0
17 C23572 0.504990053337433 0.7702300677081 0.783555499826649 C.Trigonal 0.0 **** 0.0
18 C23573 0.491778651806109 0.778750158281502 0.775580950422251 C 0.0 **** 0.0
19 C23579 0.51624138202294 0.757420321075121 0.774546458705079 C.Trigonal 0.0 **** 0.0
20 C23580 0.52724026394607 0.747633222759411 0.783543812411915 C.Trigonal 0.0 **** 0.0
21 C23581 0.527306218493027 0.748284818397385 0.802758997172603 C.Trigonal 0.0 **** 0.0
22 C23582 0.515568984218808 0.759081632899951 0.810705989733774 C.Trigonal 0.0 **** 0.0
23 C23588 0.537823089601481 0.733760742727682 0.775190780040824 C 0.0 **** 0.0
24 C23589 0.532312157108899 0.729672919870513 0.757019372823275 C 0.0 **** 0.0
25 C23590 0.529841141320239 0.746428580909523 0.747485713216762 C 0.0 **** 0.0
26 C23591 0.515134938427539 0.756405808743885 0.755280903061728 C 0.0 **** 0.0
27 C23597 0.51115912836256 0.755627507684398 0.827863431191822 C 0.0 **** 0.0
28 C23598 0.519626779079008 0.74295240176039 0.836408668053788 C.Trigonal 0.0 **** 0.0
29 C23599 0.533710670298502 0.735365558438815 0.829430507732318 C.Trigonal 0.0 **** 0.0
30 C23600 0.53817773830949 0.738535525289037 0.812691769187715 C 0.0 **** 0.0
31 C23606 0.543262022616653 0.721886681246093 0.839033359201874 C 0.0 **** 0.0
32 C23607 0.535091343251984 0.714846373201097 0.854291828647606 C.Trigonal 0.0 **** 0.0
33 C23608 0.520691468806716 0.721663808683273 0.86056892510395 C.Trigonal 0.0 **** 0.0
34 C23609 0.512819217061072 0.736791591183337 0.853057636482702 C 0.0 **** 0.0
35 C23615 0.511204780150478 0.713808251641587 0.875238771037758 C 0.0 **** 0.0
36 C23616 0.522462032783543 0.702633811223657 0.886709232103562 C 0.0 **** 0.0
37 C23617 0.535491196417512 0.692333411057549 0.876988658021724 C.Trigonal 0.0 **** 0.0
38 C23618 0.542634057855919 0.699160959475071 0.862050811051879 C.Trigonal 0.0 **** 0.0
39 N23624 0.555321940516745 0.691342934055839 0.854064561709631 N 0.0 **** 0.0
40 C23625 0.560840215427229 0.676474088142406 0.859950103463301 C.Trigonal 0.0 **** 0.0
41 C23626 0.553232768008734 0.668230224631692 0.873865238384062 C.Trigonal 0.0 **** 0.0
42 C23627 0.540754480811392 0.676606868142078 0.882552336556268 C.Trigonal 0.0 **** 0.0
43 C23633 0.532749867619134 0.668837308615645 0.898280811513361 C 0.0 **** 0.0
44 C23634 0.535970112745094 0.649799677998701 0.899678804743149 C 0.0 **** 0.0
45 C23635 0.554474161920306 0.64572431685349 0.896275188527068 C 0.0 **** 0.0
46 C23636 0.558626294803474 0.650232113764139 0.877910574816713 C 0.0 **** 0.0
47 C23642 0.57755626567941 0.647337418599535 0.873764324208327 C 0.0 **** 0.0
48 C23643 0.582508184831539 0.654966412569344 0.856868410144953 C.Trigonal 0.0 **** 0.0
49 C23644 0.574360228704996 0.669484471976607 0.850777961242308 C.Trigonal 0.0 **** 0.0
50 C23649 0.580066474891075 0.676992761493647 0.835606825559646 C 0.0 **** 0.0
51 C23650 0.59332272908735 0.669987698795375 0.826958484084817 C 0.0 **** 0.0
52 C23651 0.601402331979636 0.655644575605705 0.832899474432172 C 0.0 **** 0.0
53 C23652 0.596006940832218 0.648223899076553 0.847964167856888 C 0.0 **** 0.0
54 C23658 0.511617386925935 0.876963314878198 0.833692152907011 C 0.0 **** 0.0
55 C23660 0.523360492537429 0.880337518178641 0.818657402192659 C 0.0 **** 0.0
56 C23662 0.48052216182508 0.890790875097656 0.819992182235646 C 0.0 **** 0.0
57 C23664 0.516344901210696 0.839995458782886 0.835026351011349 C 0.0 **** 0.0
58 C23666 0.453267857272005 0.867974708931892 0.809782632187466 C 0.0 **** 0.0
59 C23668 0.442156862359854 0.817641014208029 0.781983970405619 C 0.0 **** 0.0
60 C23670 0.460744518161911 0.795055764283088 0.760373050883599 C 0.0 **** 0.0
61 O23672 0.487121943594994 0.77510875356981 0.75934165434107 O 0.0 **** 0.0
62 C23674 0.526577835924158 0.743442811485001 0.728534379237491 C 0.0 **** 0.0
63 C23676 0.516412820209813 0.718341456111126 0.757123670306905 C 0.0 **** 0.0
64 O23678 0.552186554928415 0.73119984045704 0.805446858075388 O 0.0 **** 0.0
65 O23680 0.497797852549609 0.764082991539607 0.834955316137831 O 0.0 **** 0.0
66 O23682 0.50051112898915 0.743667065997046 0.859259824743003 O 0.0 **** 0.0
67 O23684 0.556708249361079 0.717089921240627 0.833264944011612 O 0.0 **** 0.0
68 C23686 0.605090059758705 0.632777637230393 0.854748750017975 C 0.0 **** 0.0
69 C23688 0.616103250815686 0.648785894654604 0.822784724857932 C 0.0 **** 0.0
70 H23690 0.500865924160679 0.81398131340708 0.827204342648454 H 0.0 **** 0.0
71 H23692 0.480496087969763 0.813236074216891 0.835884884100209 H 0.0 **** 0.0
72 H23694 0.451460865817916 0.82643130627903 0.823347642235125 H 0.0 **** 0.0
73 H23696 0.449006575088168 0.837996429532434 0.80454890348303 H 0.0 **** 0.0
74 H23698 0.503189931174032 0.788925255831489 0.822209471816874 H 0.0 **** 0.0
75 H23700 0.551171318063763 0.737687549989834 0.774977432239215 H 0.0 **** 0.0
76 H23702 0.537144627537874 0.72186751379563 0.782397669388762 H 0.0 **** 0.0
77 H23704 0.5426041625595 0.722590170965325 0.750882251015935 H 0.0 **** 0.0
78 H23706 0.541508994601094 0.753934964493961 0.748740029104565 H 0.0 **** 0.0
79 H23708 0.50329510447662 0.750070819149791 0.751591886385666 H 0.0 **** 0.0
80 H23710 0.515340145446283 0.769145659286155 0.749621442606651 H 0.0 **** 0.0
81 H23712 0.504835064076758 0.723408094277162 0.883112193433138 H 0.0 **** 0.0
82 H23714 0.501009785306504 0.705844822379773 0.870005147642887 H 0.0 **** 0.0
83 H23716 0.513863680872294 0.694725031726358 0.894205312572972 H 0.0 **** 0.0
84 H23718 0.529060754120809 0.710651417572207 0.895948002002588 H 0.0 **** 0.0
85 H23720 0.537835815091086 0.675182013088035 0.909628397920776 H 0.0 **** 0.0
86 H23722 0.51897518700537 0.670747737659076 0.898427213557794 H 0.0 **** 0.0
87 H23724 0.528052184241113 0.643004919703101 0.890413120294411 H 0.0 **** 0.0
88 H23726 0.531990629090294 0.645326381379664 0.912212618412214 H 0.0 **** 0.0
89 H23728 0.557095520694019 0.632223502639095 0.898587982281226 H 0.0 **** 0.0
90 H23730 0.562600587680013 0.652941921359963 0.905012433484678 H 0.0 **** 0.0
91 H23732 0.551220389002294 0.641659462511565 0.869682093129547 H 0.0 **** 0.0
92 H23734 0.585390603076596 0.65301351949655 0.883784826819465 H 0.0 **** 0.0
93 H23736 0.579991423228879 0.633650295381384 0.874163735427073 H 0.0 **** 0.0
94 H23738 0.574027722707031 0.688537557356063 0.830791887767823 H 0.0 **** 0.0
95 H23740 0.597703748397735 0.675955534370083 0.815230705341307 H 0.0 **** 0.0
96 H23742 0.518813123750569 0.871875878998855 0.84444794625833 H 0.0 **** 0.0
97 H23744 0.506527808853778 0.88897055739764 0.838546043142136 H 0.0 **** 0.0
98 H23746 0.516262513595 0.884972156625082 0.807622155993072 H 0.0 **** 0.0
99 H23748 0.530093348841728 0.86879269964646 0.814795820352146 H 0.0 **** 0.0
100 H23750 0.532898425228449 0.889945518792482 0.821687762078472 H 0.0 **** 0.0
101 H23752 0.473911603498418 0.896145120514917 0.831026290058396 H 0.0 **** 0.0
102 H23754 0.473341864785932 0.894162403184383 0.808584737102974 H 0.0 **** 0.0
103 H23756 0.492539843973243 0.897593521468665 0.818662898743562 H 0.0 **** 0.0
104 H23758 0.521185965832917 0.830893316621704 0.825667371793339 H 0.0 **** 0.0
105 H23760 0.514848309262725 0.833314588589366 0.847136353537118 H 0.0 **** 0.0
106 H23762 0.526585937320822 0.849150119784841 0.836762062023844 H 0.0 **** 0.0
107 H23764 0.452616816694212 0.86617854113951 0.795979699837247 H 0.0 **** 0.0
108 H23766 0.451301295507807 0.881463893554471 0.812237926250153 H 0.0 **** 0.0
109 H23768 0.442335587418555 0.861502178608541 0.815460146929113 H 0.0 **** 0.0
110 H23770 0.434532866863745 0.808156521481895 0.775293786618137 H 0.0 **** 0.0
111 H23772 0.44364043807812 0.828717621336718 0.773672155320843 H 0.0 **** 0.0
112 H23774 0.434191828214533 0.821338048439555 0.79274835072151 H 0.0 **** 0.0
113 H23776 0.470319038377015 0.797118714591417 0.750470660708357 H 0.0 **** 0.0
114 H23778 0.450189361092637 0.803137645088471 0.756511990698278 H 0.0 **** 0.0
115 H23780 0.456293905503264 0.781894404892518 0.759541301473639 H 0.0 **** 0.0
116 H23782 0.494253107507085 0.76645409482368 0.755268651808693 H 0.0 **** 0.0
117 H23784 0.536573012488739 0.735485273314092 0.723060616660849 H 0.0 **** 0.0
118 H23786 0.526431612942043 0.755549834019541 0.721693094235534 H 0.0 **** 0.0
119 H23788 0.514359548843035 0.737141833019066 0.726468286075715 H 0.0 **** 0.0
120 H23790 0.51925713592186 0.706218287640032 0.763309227257622 H 0.0 **** 0.0
121 H23792 0.512204248055587 0.715571129507642 0.744177856274187 H 0.0 **** 0.0
122 H23794 0.505941472326696 0.724320173037746 0.764026393954369 H 0.0 **** 0.0
123 H23796 0.55827029999443 0.725341751041862 0.814116061132829 H 0.0 **** 0.0
124 H23798 0.495521471013786 0.759360396606953 0.845844586682673 H 0.0 **** 0.0
125 H23800 0.608182096161548 0.634303991999277 0.868227515153251 H 0.0 **** 0.0
126 H23802 0.61710319485057 0.630278035195443 0.848297516095041 H 0.0 **** 0.0
127 H23804 0.597255673793222 0.621338864363264 0.853400004585503 H 0.0 **** 0.0
128 H23806 0.627997274332147 0.649561215703289 0.82999358105467 H 0.0 **** 0.0
129 H23808 0.61803198366765 0.655942286918262 0.811054602103316 H 0.0 **** 0.0
130 H23810 0.614086534744944 0.635494996410371 0.819186898929804 H 0.0 **** 0.0
@<TRIPOS>BOND
1 3 2 Aromatic
2 4 3 Aromatic
3 5 4 Aromatic
4 6 5 Aromatic
5 1 2 Aromatic
6 1 6 Aromatic
7 8 7 1
8 9 8 Aromatic
9 10 9 1
10 4 7 1
11 3 10 1
12 12 11 Aromatic
13 13 12 Aromatic
14 14 13 Aromatic
15 9 11 Aromatic
16 8 14 Aromatic
17 16 15 Aromatic
18 17 16 Aromatic
19 18 17 Aromatic
20 14 15 Aromatic
21 13 18 Aromatic
22 20 19 1
23 21 20 1
24 22 21 Aromatic
25 17 19 1
26 16 22 Aromatic
27 24 23 1
28 25 24 Aromatic
29 26 25 1
30 20 23 1
31 19 26 1
32 28 27 Aromatic
33 29 28 Aromatic
34 30 29 Aromatic
35 22 27 Aromatic
36 21 30 Aromatic
37 32 31 1
38 33 32 Aromatic
39 34 33 1
40 29 31 1
41 28 34 1
42 36 35 1
43 37 36 1
44 38 37 Aromatic
45 33 35 1
46 32 38 Aromatic
47 40 39 Aromatic
48 41 40 Aromatic
49 42 41 Aromatic
50 38 39 Aromatic
51 37 42 Aromatic
52 44 43 1
53 45 44 1
54 46 45 1
55 42 43 1
56 41 46 1
57 48 47 1
58 49 48 Aromatic
59 40 49 Aromatic
60 46 47 1
61 51 50 Aromatic
62 52 51 Aromatic
63 53 52 Aromatic
64 49 50 Aromatic
65 48 53 Aromatic
66 6 54 1
67 54 55 1
68 1 56 1
69 5 57 1
70 2 58 1
71 11 59 1
72 12 60 1
73 18 61 1
74 25 62 1
75 24 63 1
76 30 64 1
77 27 65 1
78 34 66 Double
79 31 67 Double
80 53 68 1
81 52 69 1
82 7 70 1
83 7 71 1
84 10 72 1
85 10 73 1
86 15 74 1
87 23 75 1
88 23 76 1
89 24 77 1
90 25 78 1
91 26 79 1
92 26 80 1
93 35 81 1
94 35 82 1
95 36 83 1
96 36 84 1
97 43 85 1
98 43 86 1
99 44 87 1
100 44 88 1
101 45 89 1
102 45 90 1
103 46 91 1
104 47 92 1
105 47 93 1
106 50 94 1
107 51 95 1
108 54 96 1
109 54 97 1
110 55 98 1
111 55 99 1
112 55 100 1
113 56 101 1
114 56 102 1
115 56 103 1
116 57 104 1
117 57 105 1
118 57 106 1
119 58 107 1
120 58 108 1
121 58 109 1
122 59 110 1
123 59 111 1
124 59 112 1
125 60 113 1
126 60 114 1
127 60 115 1
128 61 116 1
129 62 117 1
130 62 118 1
131 62 119 1
132 63 120 1
133 63 121 1
134 63 122 1
135 64 123 1
136 65 124 1
137 68 125 1
138 68 126 1
139 68 127 1
140 69 128 1
141 69 129 1
142 69 130 1
@<TRIPOS>MOLECULE
Sketch 4
130 142
SMALL
USER_CHARGES


@<TRIPOS>ATOM
1 C23812 0.123339632272608 0.411115429808297 0.728670218774829 C.Trigonal 0.0 **** 0.0
2 C23813 0.10860732519162 0.408063647327504 0.719745071938767 C 0.0 **** 0.0
3 C23814 0.0992372262004983 0.421503048722407 0.713518198680744 C.Trigonal 0.0 **** 0.0
4 C23815 0.104283135802756 0.437870280012945 0.716568134322361 C.Trigonal 0.0 **** 0.0
5 C23816 0.118604293911625 0.440964853029917 0.726211700200378 C 0.0 **** 0.0
6 C23817 0.128229950919622 0.427578176910921 0.732080767947786 C 0.0 **** 0.0
7 C23824 0.0941185371991543 0.452706405468416 0.709621907923992 C 0.0 **** 0.0
8 C23825 0.0806292392841179 0.448923149006942 0.696436656271186 C.Trigonal 0.0 **** 0.0
9 C23826 0.0756514558471244 0.43259719953287 0.693498593166414 C.Trigonal 0.0 **** 0.0
10 C23827 0.0833026239885371 0.417986305636111 0.703391912684739 C 0.0 **** 0.0
11 C23833 0.0637050184285778 0.428894310298979 0.681118383947029 C 0.0 **** 0.0
12 C23834 0.0576647168949555 0.441285424543777 0.670358965523581 C 0.0 **** 0.0
13 C23835 0.0609466786781444 0.458226818038594 0.674403577248185 C.Trigonal 0.0 **** 0.0
14 C23836 0.0724421134562215 0.46197811872132 0.687644847873875 C.Trigonal 0.0 **** 0.0
15 C23842 0.0748898125682196 0.478856335802946 0.692171139134161 C 0.0 **** 0.0
16 C23843 0.0676864743149981 0.49247428170001 0.683382419684935 C.Trigonal 0.0 **** 0.0
17 C23844 0.0560573876149517 0.488497039413692 0.670322162564877 C.Trigonal 0.0 **** 0.0
18 C23845 0.052142038852477 0.471829685660043 0.666484977160219 C 0.0 **** 0.0
19 C23851 0.0469619236599122 0.503099164708507 0.661821738511415 C.Trigonal 0.0 **** 0.0
20 C23852 0.0465255609048924 0.518602833753285 0.669309483620093 C.Trigonal 0.0 **** 0.0
21 C23853 0.0580088546354334 0.522165258534666 0.684388605263911 C.Trigonal 0.0 **** 0.0
22 C23854 0.0700976047385203 0.509720210054849 0.688583205293624 C.Trigonal 0.0 **** 0.0
23 C23860 0.0375060984018527 0.53359873272284 0.660981324944324 C 0.0 **** 0.0
24 C23861 0.0272074715967904 0.528528889905757 0.645259097407049 C 0.0 **** 0.0
25 C23862 0.0372047504108222 0.516169246669778 0.634095895578198 C 0.0 **** 0.0
26 C23863 0.0392539278340873 0.499866973020576 0.644379086945452 C 0.0 **** 0.0
27 C23869 0.0836049977781406 0.514436118330344 0.699408831978 C 0.0 **** 0.0
28 C23870 0.0825426440748364 0.529272019903107 0.70860739939266 C.Trigonal 0.0 **** 0.0
29 C23871 0.0689697703349075 0.540038271722701 0.706625424036493 C.Trigonal 0.0 **** 0.0
30 C23872 0.05691032403136 0.536875788599306 0.69420174231657 C 0.0 **** 0.0
31 C23878 0.0677004720791577 0.55603272931504 0.717138242083926 C 0.0 **** 0.0
32 C23879 0.0820471518019309 0.560404174918451 0.728266664854544 C.Trigonal 0.0 **** 0.0
33 C23880 0.095436950842225 0.549842511830569 0.729926642424699 C.Trigonal 0.0 **** 0.0
34 C23881 0.0965685422907281 0.533790131782312 0.720621821562271 C 0.0 **** 0.0
35 C23887 0.110300406643714 0.553934459296201 0.741353108315547 C 0.0 **** 0.0
36 C23888 0.104860931443461 0.56590501876888 0.755695595583331 C 0.0 **** 0.0
37 C23889 0.0949378008527379 0.580818058262727 0.749030311673912 C.Trigonal 0.0 **** 0.0
38 C23890 0.0821652503060609 0.577437541428316 0.73693337420538 C.Trigonal 0.0 **** 0.0
39 N23896 0.0718191359127461 0.589673168612187 0.731481827950345 N 0.0 **** 0.0
40 C23897 0.0743928800465375 0.605503387082876 0.737017338473542 C.Trigonal 0.0 **** 0.0
41 C23898 0.0879793361403434 0.609924536862823 0.747811392008986 C.Trigonal 0.0 **** 0.0
42 C23899 0.0979798438021482 0.597229319633438 0.75409195079605 C.Trigonal 0.0 **** 0.0
43 C23905 0.112454285376768 0.600972057071243 0.76627821925437 C 0.0 **** 0.0
44 C23906 0.117289549785748 0.619726830475012 0.766967879529183 C 0.0 **** 0.0
45 C23907 0.10151750973082 0.630773309100058 0.76755381763504 C 0.0 **** 0.0
46 C23908 0.0914978229366885 0.628509271291924 0.751134949984775 C 0.0 **** 0.0
47 C23914 0.0748406308039499 0.638734087806576 0.751222888900685 C 0.0 **** 0.0
48 C23915 0.0638874712698391 0.634296056486523 0.736122797618262 C.Trigonal 0.0 **** 0.0
49 C23916 0.0633314130152428 0.617594330916516 0.730153723847667 C.Trigonal 0.0 **** 0.0
50 C23921 0.0520065972063203 0.613399252066213 0.716979778773529 C 0.0 **** 0.0
51 C23922 0.0420214294207952 0.625666742178946 0.709943788859648 C 0.0 **** 0.0
52 C23923 0.0427056184682396 0.642210356305823 0.715624889451473 C 0.0 **** 0.0
53 C23924 0.0536945198848339 0.646476537011987 0.728753286355984 C 0.0 **** 0.0
54 C23930 0.144165106496004 0.430762358319575 0.742313269982811 C 0.0 **** 0.0
55 C23932 0.140028076752082 0.430856261440584 0.761249651529891 C 0.0 **** 0.0
56 C23934 0.134322640042517 0.396603024655282 0.734755844458452 C 0.0 **** 0.0
57 C23936 0.123906365782222 0.459006370841959 0.73003148945945 C 0.0 **** 0.0
58 C23938 0.10301976714621 0.38996289639703 0.716689652897623 C 0.0 **** 0.0
59 C23940 0.0579497127440307 0.41066001047015 0.679068060219127 C 0.0 **** 0.0
60 C23942 0.0472770128460125 0.435532707394558 0.655294730839762 C 0.0 **** 0.0
61 O23944 0.0395111440509809 0.467854650971096 0.655303669769336 O 0.0 **** 0.0
62 C23946 0.0544829299273209 0.523076307558954 0.628186223521567 C 0.0 **** 0.0
63 C23948 0.0216462204841507 0.544261457005967 0.635357335806432 C 0.0 **** 0.0
64 O23950 0.0440674018560049 0.548181190326983 0.691152979653152 O 0.0 **** 0.0
65 O23952 0.0973665820132652 0.503919337134475 0.700668528158214 O 0.0 **** 0.0
66 O23954 0.108622011799574 0.524349733274773 0.722105927415619 O 0.0 **** 0.0
67 O23956 0.0549381575146733 0.564536013958884 0.71590770754588 O 0.0 **** 0.0
68 C23958 0.0542924232214583 0.664507122322389 0.735150184540579 C 0.0 **** 0.0
69 C23960 0.0311782667644393 0.65501492743293 0.707339823940361 C 0.0 **** 0.0
70 H23962 0.0881499782050078 0.459405574635872 0.720277550526292 H 0.0 **** 0.0
71 H23964 0.103136336409494 0.461675624915305 0.703891177925937 H 0.0 **** 0.0
72 H23966 0.0862550597796578 0.407916405965246 0.694253227789633 H 0.0 **** 0.0
73 H23968 0.073629196968189 0.412775595520796 0.711940037663256 H 0.0 **** 0.0
74 H23970 0.0825601074505615 0.481180706402016 0.703441353026671 H 0.0 **** 0.0
75 H23972 0.0284638037376869 0.539565114111003 0.669657070680525 H 0.0 **** 0.0
76 H23974 0.0468656027374707 0.543308688513452 0.657454357538968 H 0.0 **** 0.0
77 H23976 0.0156446934656144 0.522048930400732 0.649575135312021 H 0.0 **** 0.0
78 H23978 0.0296181782357648 0.513247339190644 0.622780857072073 H 0.0 **** 0.0
79 H23980 0.0471274968457187 0.491147617959272 0.636867334110945 H 0.0 **** 0.0
80 H23982 0.0265880945162123 0.494267842509613 0.645827536160425 H 0.0 **** 0.0
81 H23984 0.115559898486711 0.542403687017703 0.747200229913646 H 0.0 **** 0.0
82 H23986 0.120536210152583 0.559774705327195 0.734003008416705 H 0.0 **** 0.0
83 H23988 0.115940070465854 0.569433887005715 0.763238868846101 H 0.0 **** 0.0
84 H23990 0.096635605953491 0.558742317004333 0.764226461929112 H 0.0 **** 0.0
85 H23992 0.108863563358961 0.596791542712243 0.779076428103059 H 0.0 **** 0.0
86 H23994 0.123816140356179 0.593771937420242 0.762779297770238 H 0.0 **** 0.0
87 H23996 0.124724928762034 0.623059383921921 0.755649137422513 H 0.0 **** 0.0
88 H23998 0.125549450962093 0.622104791462757 0.777944295484714 H 0.0 **** 0.0
89 H24000 0.104900439079642 0.644185770923074 0.769293716741609 H 0.0 **** 0.0
90 H24002 0.0936956754913723 0.627192581368794 0.778515319010954 H 0.0 **** 0.0
91 H24004 0.0993870700293936 0.633359558593868 0.740638844967519 H 0.0 **** 0.0
92 H24006 0.0678740030024711 0.635961176800787 0.762961521771957 H 0.0 **** 0.0
93 H24008 0.0780193212331033 0.652248975458257 0.751705999848886 H 0.0 **** 0.0
94 H24010 0.0512472326188352 0.600385912411019 0.712175173533931 H 0.0 **** 0.0
95 H24012 0.0333539307198736 0.622270463976831 0.699624557963091 H 0.0 **** 0.0
96 H24014 0.15026362012761 0.442756312504534 0.738775185003942 H 0.0 **** 0.0
97 H24016 0.153810769271277 0.421077011559913 0.739714962222432 H 0.0 **** 0.0
98 H24018 0.133099569906652 0.419411431323576 0.765046535430854 H 0.0 **** 0.0
99 H24020 0.132230613103301 0.441847807415588 0.764665363163834 H 0.0 **** 0.0
100 H24022 0.151597209069143 0.43136263243037 0.768906382200685 H 0.0 **** 0.0
101 H24024 0.12884588058616 0.384065426188421 0.732635816887683 H 0.0 **** 0.0
102 H24026 0.13693333782997 0.397502581898496 0.748377127422938 H 0.0 **** 0.0
103 H24028 0.146562873439249 0.396596137980276 0.728155747804933 H 0.0 **** 0.0
104 H24030 0.113276248059223 0.467925767064321 0.729712221903141 H 0.0 **** 0.0
105 H24032 0.133405047487 0.463465284457351 0.720861780509691 H 0.0 **** 0.0
106 H24034 0.129362637177324 0.460271492287619 0.74274031516038 H 0.0 **** 0.0
107 H24036 0.111419976119168 0.383624350155207 0.707557930924012 H 0.0 **** 0.0
108 H24038 0.0900901052675048 0.38882742719598 0.711834550821883 H 0.0 **** 0.0
109 H24040 0.103125123487757 0.382586329547849 0.728485691159555 H 0.0 **** 0.0
110 H24042 0.0662854991387187 0.403691582577451 0.670386216606232 H 0.0 **** 0.0
111 H24044 0.0449312783386992 0.409754708921755 0.674286365587038 H 0.0 **** 0.0
112 H24046 0.0577482314109266 0.403793414968499 0.691145929539746 H 0.0 **** 0.0
113 H24048 0.0336165992827611 0.43625899440951 0.657798845998567 H 0.0 **** 0.0
114 H24050 0.0501436624058614 0.422482532525007 0.651527927068069 H 0.0 **** 0.0
115 H24052 0.0500958142429776 0.44302874668583 0.643931007008419 H 0.0 **** 0.0
116 H24054 0.0355104442889754 0.478063303046848 0.650597484903878 H 0.0 **** 0.0
117 H24056 0.0528180674834912 0.534551165558907 0.620527908177396 H 0.0 **** 0.0
118 H24058 0.0610035631015819 0.513639763895907 0.620311389536119 H 0.0 **** 0.0
119 H24060 0.0627335974005728 0.526128772330715 0.638947094979416 H 0.0 **** 0.0
120 H24062 0.0137611781978111 0.552379462948681 0.643394925425799 H 0.0 **** 0.0
121 H24064 0.0142178563200086 0.540654376070717 0.624168050038213 H 0.0 **** 0.0
122 H24066 0.0326282961976634 0.551621273596178 0.631206526922412 H 0.0 **** 0.0
123 H24068 0.0447982581331383 0.557203564393701 0.699169349898718 H 0.0 **** 0.0
124 H24070 0.105346419192934 0.508782931847107 0.708314318057736 H 0.0 **** 0.0
125 H24072 0.0509709575396694 0.665197461813102 0.748650668894542 H 0.0 **** 0.0
126 H24074 0.0455729945810605 0.672881917364453 0.728403261874118 H 0.0 **** 0.0
127 H24076 0.0669904471203435 0.670008866599178 0.733561392325506 H 0.0 **** 0.0
128 H24078 0.0227612071778105 0.661049363101442 0.716636655852104 H 0.0 **** 0.0
129 H24080 0.023019510473098 0.649159780261649 0.697760511413575 H 0.0 **** 0.0
130 H24082 0.0384653272362578 0.665017751062219 0.70096735392704 H 0.0 **** 0.0
@<TRIPOS>BOND
1 3 2 Aromatic
2 4 3 Aromatic
3 5 4 Aromatic
4 6 5 Aromatic
5 1 2 Aromatic
6 1 6 Aromatic
7 8 7 1
8 9 8 Aromatic
9 10 9 1
10 4 7 1
11 3 10 1
12 12 11 Aromatic
13 13 12 Aromatic
14 14 13 Aromatic
15 9 11 Aromatic
16 8 14 Aromatic
17 16 15 Aromatic
18 17 16 Aromatic
19 18 17 Aromatic
20 14 15 Aromatic
21 13 18 Aromatic
22 20 19 1
23 21 20 1
24 22 21 Aromatic
25 17 19 1
26 16 22 Aromatic
27 24 23 1
28 25 24 Aromatic
29 26 25 1
30 20 23 1
31 19 26 1
32 28 27 Aromatic
33 29 28 Aromatic
34 30 29 Aromatic
35 22 27 Aromatic
36 21 30 Aromatic
37 32 31 1
38 33 32 Aromatic
39 34 33 1
40 29 31 1
41 28 34 1
42 36 35 1
43 37 36 1
44 38 37 Aromatic
45 33 35 1
46 32 38 Aromatic
47 40 39 Aromatic
48 41 40 Aromatic
49 42 41 Aromatic
50 38 39 Aromatic
51 37 42 Aromatic
52 44 43 1
53 45 44 1
54 46 45 1
55 42 43 1
56 41 46 1
57 48 47 1
58 49 48 Aromatic
59 40 49 Aromatic
60 46 47 1
61 51 50 Aromatic
62 52 51 Aromatic
63 53 52 Aromatic
64 49 50 Aromatic
65 48 53 Aromatic
66 6 54 1
67 54 55 1
68 1 56 1
69 5 57 1
70 2 58 1
71 11 59 1
72 12 60 1
73 18 61 1
74 25 62 1
75 24 63 1
76 30 64 1
77 27 65 1
78 34 66 Double
79 31 67 Double
80 53 68 1
81 52 69 1
82 7 70 1
83 7 71 1
84 10 72 1
85 10 73 1
86 15 74 1
87 23 75 1
88 23 76 1
89 24 77 1
90 25 78 1
91 26 79 1
92 26 80 1
93 35 81 1
94 35 82 1
95 36 83 1
96 36 84 1
97 43 85 1
98 43 86 1
99 44 87 1
100 44 88 1
101 45 89 1
102 45 90 1
103 46 91 1
104 47 92 1
105 47 93 1
106 50 94 1
107 51 95 1
108 54 96 1
109 54 97 1
110 55 98 1
111 55 99 1
112 55 100 1
113 56 101 1
114 56 102 1
115 56 103 1
116 57 104 1
117 57 105 1
118 57 106 1
119 58 107 1
120 58 108 1
121 58 109 1
122 59 110 1
123 59 111 1
124 59 112 1
125 60 113 1
126 60 114 1
127 60 115 1
128 61 116 1
129 62 117 1
130 62 118 1
131 62 119 1
132 63 120 1
133 63 121 1
134 63 122 1
135 64 123 1
136 65 124 1
137 68 125 1
138 68 126 1
139 68 127 1
140 69 128 1
141 69 129 1
142 69 130 1
@<TRIPOS>MOLECULE
Sketch 4
130 142
SMALL
USER_CHARGES


@<TRIPOS>ATOM
1 C24084 -0.0368599029913068 0.753495279943905 0.618960583795455 C.Trigonal 0.0 **** 0.0
2 C24085 -0.0257626184465124 0.740198443519825 0.62153828771596 C 0.0 **** 0.0
3 C24086 -0.0134910168154303 0.741297146981689 0.634002504522785 C.Trigonal 0.0 **** 0.0
4 C24087 -0.0113161277240516 0.756116279077007 0.642811455338411 C.Trigonal 0.0 **** 0.0
5 C24088 -0.0218705077929582 0.769721038668078 0.639684037543222 C 0.0 **** 0.0
6 C24089 -0.0349954769397496 0.768255033318548 0.628174768218554 C 0.0 **** 0.0
7 C24096 0.00283996834570724 0.757941755059347 0.655703980229826 C 0.0 **** 0.0
8 C24097 0.0122495823062661 0.742080256644951 0.660945849194067 C.Trigonal 0.0 **** 0.0
9 C24098 0.00931190499248772 0.727011103660749 0.652868210988594 C.Trigonal 0.0 **** 0.0
10 C24099 -0.00230844580315602 0.726126974045075 0.637553284744618 C 0.0 **** 0.0
11 C24105 0.0165508957134327 0.71212377749856 0.658824601288675 C 0.0 **** 0.0
12 C24106 0.0273006468452194 0.712203716930148 0.672658991185236 C 0.0 **** 0.0
13 C24107 0.0332568574883034 0.727772246294538 0.678511304088151 C.Trigonal 0.0 **** 0.0
14 C24108 0.0244970360655509 0.742643358700695 0.67379250425465 C.Trigonal 0.0 **** 0.0
15 C24114 0.0291677622143947 0.757843508963314 0.68151771456322 C 0.0 **** 0.0
16 C24115 0.0428306100248912 0.758959980151555 0.69273253692824 C.Trigonal 0.0 **** 0.0
17 C24116 0.0542116880291657 0.745066528343806 0.693169117474308 C.Trigonal 0.0 **** 0.0
18 C24117 0.0490811470068072 0.729381434727379 0.687065056071952 C 0.0 **** 0.0
19 C24123 0.0717015038369331 0.748310032057529 0.700561945031168 C.Trigonal 0.0 **** 0.0
20 C24124 0.0752749778396308 0.763825849149642 0.707153488457875 C.Trigonal 0.0 **** 0.0
21 C24125 0.0610092690674052 0.775961557169649 0.711478949690989 C.Trigonal 0.0 **** 0.0
22 C24126 0.045048442818577 0.772795337173085 0.704173001039698 C.Trigonal 0.0 **** 0.0
23 C24132 0.0933943084032396 0.769687687215374 0.710129548660046 C 0.0 **** 0.0
24 C24133 0.105929474435861 0.759152655504103 0.699706059687606 C 0.0 **** 0.0
25 C24134 0.103164877655723 0.740265364955877 0.703417782403366 C 0.0 **** 0.0
26 C24135 0.0854578668166724 0.735072871475757 0.697214889837081 C 0.0 **** 0.0
27 C24141 0.0309352277297616 0.782414146274386 0.709942241504703 C 0.0 **** 0.0
28 C24142 0.0333359316526196 0.795414122768848 0.721376722519835 C.Trigonal 0.0 **** 0.0
29 C24143 0.0492596537803468 0.799247795264061 0.727378389643873 C.Trigonal 0.0 **** 0.0
30 C24144 0.0630398698837006 0.789263002909552 0.722928189852418 C 0.0 **** 0.0
31 C24150 0.0518316121973444 0.814078945020524 0.739296564628378 C 0.0 **** 0.0
32 C24151 0.0367308867341964 0.823416946524772 0.745139831808697 C.Trigonal 0.0 **** 0.0
33 C24152 0.0210564368520682 0.818822762096368 0.740030271598143 C.Trigonal 0.0 **** 0.0
34 C24153 0.0182351175267082 0.805134101295012 0.727737461368779 C 0.0 **** 0.0
35 C24159 0.00537283134839271 0.827478784909147 0.746843543586153 C 0.0 **** 0.0
36 C24160 0.00853321554978317 0.846379503934606 0.75057048351518 C 0.0 **** 0.0
37 C24161 0.0254583559783726 0.849802406466974 0.759066470294647 C.Trigonal 0.0 **** 0.0
38 C24162 0.0390956091899826 0.838414743698409 0.756765645619122 C.Trigonal 0.0 **** 0.0
39 N24168 0.0542212384880845 0.841246478143711 0.763970302909798 N 0.0 **** 0.0
40 C24169 0.0566652486701881 0.855951347597159 0.772020862242232 C.Trigonal 0.0 **** 0.0
41 C24170 0.0436775177734182 0.868081740976583 0.77437249029328 C.Trigonal 0.0 **** 0.0
42 C24171 0.0279054099849775 0.864506752161899 0.768219790981814 C.Trigonal 0.0 **** 0.0
43 C24177 0.0132813000092607 0.876941448536421 0.770365952495036 C 0.0 **** 0.0
44 C24178 0.017142973398259 0.891465032291282 0.782621634310761 C 0.0 **** 0.0
45 C24179 0.0350640753739578 0.898034119761084 0.779954147433143 C 0.0 **** 0.0
46 C24180 0.0475953295565779 0.883963404281028 0.784421224706305 C 0.0 **** 0.0
47 C24186 0.0661049274858626 0.889240173585523 0.781203300780055 C 0.0 **** 0.0
48 C24187 0.0776776508555197 0.874360807670997 0.784559040675002 C.Trigonal 0.0 **** 0.0
49 C24188 0.0728614126692242 0.858168217339767 0.779060641030527 C.Trigonal 0.0 **** 0.0
50 C24193 0.0839279810080173 0.844381458254815 0.781703473830706 C 0.0 **** 0.0
51 C24194 0.0987430526140866 0.846844754467758 0.790345815373165 C 0.0 **** 0.0
52 C24195 0.103467278407329 0.862786299717237 0.795858998976019 C 0.0 **** 0.0
53 C24196 0.093096658054092 0.876644272366633 0.792468984324598 C 0.0 **** 0.0
54 C24202 -0.0469591613226132 0.783033419092253 0.625453660480538 C 0.0 **** 0.0
55 C24204 -0.0412736751190159 0.793730869295356 0.610343817019456 C 0.0 **** 0.0
56 C24206 -0.0507015845120335 0.751995466690338 0.605755769224618 C 0.0 **** 0.0
57 C24208 -0.0191349810685887 0.786347786859858 0.648748800349743 C 0.0 **** 0.0
58 C24210 -0.0271866626520283 0.724556694484533 0.610537465225146 C 0.0 **** 0.0
59 C24212 0.0123672661719601 0.695367348856718 0.650411764887698 C 0.0 **** 0.0
60 C24214 0.0331290107994822 0.695340343898006 0.67959426686022 C 0.0 **** 0.0
61 O24216 0.0588583972999085 0.715167604149892 0.688608260756146 O 0.0 **** 0.0
62 C24218 0.105265210733108 0.735729648556076 0.722292438997083 C 0.0 **** 0.0
63 C24220 0.124206022158657 0.764653466229792 0.70340604308756 C 0.0 **** 0.0
64 O24222 0.0787125510650585 0.792011547223752 0.730007631974967 O 0.0 **** 0.0
65 O24224 0.0150705158192657 0.778138954418878 0.704405238304712 O 0.0 **** 0.0
66 O24226 0.0041447814991923 0.801362002424934 0.722837834285443 O 0.0 **** 0.0
67 O24228 0.0662378633172083 0.817837215799804 0.743268129835828 O 0.0 **** 0.0
68 C24230 0.0986711965475968 0.894171808188706 0.797827572913603 C 0.0 **** 0.0
69 C24232 0.119866061184329 0.86454056186379 0.80551495065566 C 0.0 **** 0.0
70 H24234 0.0120623547657772 0.767197217509983 0.650854017471824 H 0.0 **** 0.0
71 H24236 -0.00261617824998448 0.763523986992029 0.667248698541366 H 0.0 **** 0.0
72 H24238 -0.0107292064549573 0.715146430252642 0.639097436586766 H 0.0 **** 0.0
73 H24240 0.00551547327099674 0.723647500386937 0.626286672065631 H 0.0 **** 0.0
74 H24242 0.021836383994522 0.769243012370727 0.678607374716776 H 0.0 **** 0.0
75 H24244 0.0949888710020753 0.78299162018549 0.706323452034561 H 0.0 **** 0.0
76 H24246 0.0966867243568629 0.768772714695663 0.723621663987133 H 0.0 **** 0.0
77 H24248 0.103499737434016 0.761369297738853 0.686169251858004 H 0.0 **** 0.0
78 H24250 0.112588889915429 0.732954190654421 0.696249707307388 H 0.0 **** 0.0
79 H24252 0.0824095920048322 0.72309613103668 0.703612699709484 H 0.0 **** 0.0
80 H24254 0.0862740334129473 0.732655282639785 0.683510018267255 H 0.0 **** 0.0
81 H24256 -0.00546935301941522 0.826516365908326 0.738097671491654 H 0.0 **** 0.0
82 H24258 0.00146154885790316 0.821038914065665 0.758572678627398 H 0.0 **** 0.0
83 H24260 -0.00214773367997646 0.85095414478688 0.758207106836863 H 0.0 **** 0.0
84 H24262 0.00802202390330272 0.853417722520103 0.738624371970752 H 0.0 **** 0.0
85 H24264 0.0102282048489853 0.882378981046609 0.757912068437635 H 0.0 **** 0.0
86 H24266 0.00180567611172586 0.870411108885391 0.774781298254689 H 0.0 **** 0.0
87 H24268 0.0159512896931082 0.886936408164464 0.795762142256612 H 0.0 **** 0.0
88 H24270 0.00770948554715662 0.901615502707414 0.781098675892047 H 0.0 **** 0.0
89 H24272 0.0374692747606313 0.909276085288648 0.787839070994997 H 0.0 **** 0.0
90 H24274 0.0367563406285171 0.902006171585626 0.766692255576508 H 0.0 **** 0.0
91 H24276 0.046216750179616 0.881155402772029 0.798049317103685 H 0.0 **** 0.0
92 H24278 0.0674793866242572 0.893493441833152 0.76799895953014 H 0.0 **** 0.0
93 H24280 0.0690214441308723 0.900188080528766 0.789237588203033 H 0.0 **** 0.0
94 H24282 0.0802857895544274 0.831583265508458 0.777709274717827 H 0.0 **** 0.0
95 H24284 0.107009953863633 0.836013436914141 0.793015069086949 H 0.0 **** 0.0
96 H24286 -0.047690088835119 0.791091733838283 0.636765956551214 H 0.0 **** 0.0
97 H24288 -0.0600422737758525 0.778723920004255 0.623536411722651 H 0.0 **** 0.0
98 H24290 -0.028321228333693 0.798487191076713 0.612144661906805 H 0.0 **** 0.0
99 H24292 -0.0496104893129932 0.804718900400432 0.608558755810757 H 0.0 **** 0.0
100 H24294 -0.0414422162279175 0.786396862071359 0.598533183587789 H 0.0 **** 0.0
101 H24296 -0.0533833807529472 0.738865449360067 0.602179302847525 H 0.0 **** 0.0
102 H24298 -0.0472464426014164 0.758766833287761 0.594088074017223 H 0.0 **** 0.0
103 H24300 -0.0628174654071041 0.75709134100641 0.6102452456038 H 0.0 **** 0.0
104 H24302 -0.00713129491401731 0.787167619180107 0.655611815119415 H 0.0 **** 0.0
105 H24304 -0.0292401648365649 0.78884010184058 0.657955352815824 H 0.0 **** 0.0
106 H24306 -0.0188993757431242 0.796781098233317 0.639608459863263 H 0.0 **** 0.0
107 H24308 -0.0389341327448369 0.717585428602008 0.613078792716481 H 0.0 **** 0.0
108 H24310 -0.0167611484428631 0.715575997995658 0.612133189101417 H 0.0 **** 0.0
109 H24312 -0.0271884098651574 0.728049433694861 0.597059322108196 H 0.0 **** 0.0
110 H24314 0.00258528035190202 0.688444296808169 0.657506602977427 H 0.0 **** 0.0
111 H24316 0.0236441415354139 0.687307955445716 0.649609367450689 H 0.0 **** 0.0
112 H24318 0.00790582459873181 0.696637640606886 0.637341532682906 H 0.0 **** 0.0
113 H24320 0.044264914920631 0.69054011484176 0.672790555216508 H 0.0 **** 0.0
114 H24322 0.0231649440334832 0.685685853210695 0.678773219710708 H 0.0 **** 0.0
115 H24324 0.0362715348518684 0.696103081285801 0.693113191910964 H 0.0 **** 0.0
116 H24326 0.0702933550422201 0.718613631288813 0.689145732500574 H 0.0 **** 0.0
117 H24328 0.117834691523729 0.739435089716691 0.726908076093729 H 0.0 **** 0.0
118 H24330 0.104006202481648 0.721995916527526 0.724114889578275 H 0.0 **** 0.0
119 H24332 0.0956295500886173 0.741963971428458 0.730138509049524 H 0.0 **** 0.0
120 H24334 0.126120818950179 0.777888257198978 0.699583833535069 H 0.0 **** 0.0
121 H24336 0.133178456613254 0.756749410434954 0.696310722169758 H 0.0 **** 0.0
122 H24338 0.127130862132942 0.763600554676478 0.716945982405482 H 0.0 **** 0.0
123 H24340 0.0783944328472793 0.802300027571238 0.736284171736942 H 0.0 **** 0.0
124 H24342 0.00704560454172537 0.785526595332003 0.709571524579727 H 0.0 **** 0.0
125 H24344 0.0963667514602995 0.903556097655515 0.787814016633778 H 0.0 **** 0.0
126 H24346 0.112244442228628 0.894885210119289 0.800614143982491 H 0.0 **** 0.0
127 H24348 0.0918799067785283 0.898287313030212 0.809267696727804 H 0.0 **** 0.0
128 H24350 0.129391171789861 0.871542442435829 0.798159311314637 H 0.0 **** 0.0
129 H24352 0.125296845102048 0.85216054069328 0.808665582477083 H 0.0 **** 0.0
130 H24354 0.117979454156015 0.871261664874566 0.817556739940761 H 0.0 **** 0.0
@<TRIPOS>BOND
1 3 2 Aromatic
2 4 3 Aromatic
3 5 4 Aromatic
4 6 5 Aromatic
5 1 2 Aromatic
6 1 6 Aromatic
7 8 7 1
8 9 8 Aromatic
9 10 9 1
10 4 7 1
11 3 10 1
12 12 11 Aromatic
13 13 12 Aromatic
14 14 13 Aromatic
15 9 11 Aromatic
16 8 14 Aromatic
17 16 15 Aromatic
18 17 16 Aromatic
19 18 17 Aromatic
20 14 15 Aromatic
21 13 18 Aromatic
22 20 19 1
23 21 20 1
24 22 21 Aromatic
25 17 19 1
26 16 22 Aromatic
27 24 23 1
28 25 24 Aromatic
29 26 25 1
30 20 23 1
31 19 26 1
32 28 27 Aromatic
33 29 28 Aromatic
34 30 29 Aromatic
35 22 27 Aromatic
36 21 30 Aromatic
37 32 31 1
38 33 32 Aromatic
39 34 33 1
40 29 31 1
41 28 34 1
42 36 35 1
43 37 36 1
44 38 37 Aromatic
45 33 35 1
46 32 38 Aromatic
47 40 39 Aromatic
48 41 40 Aromatic
49 42 41 Aromatic
50 38 39 Aromatic
51 37 42 Aromatic
52 44 43 1
53 45 44 1
54 46 45 1
55 42 43 1
56 41 46 1
57 48 47 1
58 49 48 Aromatic
59 40 49 Aromatic
60 46 47 1
61 51 50 Aromatic
62 52 51 Aromatic
63 53 52 Aromatic
64 49 50 Aromatic
65 48 53 Aromatic
66 6 54 1
67 54 55 1
68 1 56 1
69 5 57 1
70 2 58 1
71 11 59 1
72 12 60 1
73 18 61 1
74 25 62 1
75 24 63 1
76 30 64 1
77 27 65 1
78 34 66 Double
79 31 67 Double
80 53 68 1
81 52 69 1
82 7 70 1
83 7 71 1
84 10 72 1
85 10 73 1
86 15 74 1
87 23 75 1
88 23 76 1
89 24 77 1
90 25 78 1
91 26 79 1
92 26 80 1
93 35 81 1
94 35 82 1
95 36 83 1
96 36 84 1
97 43 85 1
98 43 86 1
99 44 87 1
100 44 88 1
101 45 89 1
102 45 90 1
103 46 91 1
104 47 92 1
105 47 93 1
106 50 94 1
107 51 95 1
108 54 96 1
109 54 97 1
110 55 98 1
111 55 99 1
112 55 100 1
113 56 101 1
114 56 102 1
115 56 103 1
116 57 104 1
117 57 105 1
118 57 106 1
119 58 107 1
120 58 108 1
121 58 109 1
122 59 110 1
123 59 111 1
124 59 112 1
125 60 113 1
126 60 114 1
127 60 115 1
128 61 116 1
129 62 117 1
130 62 118 1
131 62 119 1
132 63 120 1
133 63 121 1
134 63 122 1
135 64 123 1
136 65 124 1
137 68 125 1
138 68 126 1
139 68 127 1
140 69 128 1
141 69 129 1
142 69 130 1
@<TRIPOS>MOLECULE
Sketch 4
130 142
SMALL
USER_CHARGES


@<TRIPOS>ATOM
1 C24356 0.39824897558157 0.771926071991925 0.764072199906893 C.Trigonal 0.0 **** 0.0
2 C24357 0.382209350123676 0.768665732707942 0.757889763700051 C 0.0 **** 0.0
3 C24358 0.371882279070341 0.756992932148713 0.765952088581184 C.Trigonal 0.0 **** 0.0
4 C24359 0.37765469273123 0.748270199928828 0.779809368803903 C.Trigonal 0.0 **** 0.0
5 C24360 0.393484819371722 0.75192586251832 0.786397156604485 C 0.0 **** 0.0
6 C24361 0.40366251716112 0.763934414636533 0.778672236676268 C 0.0 **** 0.0
7 C24368 0.366693838526563 0.734800562532485 0.788101911018398 C 0.0 **** 0.0
8 C24369 0.34989049432235 0.730304835764719 0.779833266925197 C.Trigonal 0.0 **** 0.0
9 C24370 0.343832159902431 0.739618269618696 0.766539564786642 C.Trigonal 0.0 **** 0.0
10 C24371 0.354090060240337 0.754196055601773 0.759245825941098 C 0.0 **** 0.0
11 C24377 0.328034712202877 0.73619701626234 0.759589418287492 C 0.0 **** 0.0
12 C24378 0.318300483024567 0.722771828254535 0.765158826796358 C 0.0 **** 0.0
13 C24379 0.325017611033244 0.711991323088418 0.777517156603313 C.Trigonal 0.0 **** 0.0
14 C24380 0.340366533270664 0.71649503792235 0.785643632475122 C.Trigonal 0.0 **** 0.0
15 C24386 0.345827881880449 0.706929131018821 0.79947492160317 C 0.0 **** 0.0
16 C24387 0.338250496380362 0.691634351049383 0.804263470044417 C.Trigonal 0.0 **** 0.0
17 C24388 0.324098982298007 0.686401431612946 0.794640637585755 C.Trigonal 0.0 **** 0.0
18 C24389 0.31701053028172 0.696594430001797 0.782312427655622 C 0.0 **** 0.0
19 C24395 0.315639031729291 0.670062154785484 0.79953698150289 C.Trigonal 0.0 **** 0.0
20 C24396 0.317198448394938 0.664069930953734 0.815497047618609 C.Trigonal 0.0 **** 0.0
21 C24397 0.3306021999928 0.671665182782578 0.826913297163415 C.Trigonal 0.0 **** 0.0
22 C24398 0.342570020290139 0.682623325043135 0.819477396556573 C.Trigonal 0.0 **** 0.0
23 C24404 0.309467430309228 0.647250841169056 0.821061618904572 C 0.0 **** 0.0
24 C24405 0.301382773670832 0.636711454781236 0.806746761310919 C 0.0 **** 0.0
25 C24406 0.310167844432516 0.640624376178715 0.789809600989168 C 0.0 **** 0.0
26 C24407 0.308065435241954 0.659470376031517 0.785415074982964 C 0.0 **** 0.0
27 C24413 0.357836819686727 0.685571768822303 0.828435194096735 C 0.0 **** 0.0
28 C24414 0.359155510943474 0.680572884312942 0.84516232739761 C.Trigonal 0.0 **** 0.0
29 C24415 0.345839172413338 0.672590285572016 0.853195548681402 C.Trigonal 0.0 **** 0.0
30 C24416 0.331516887355418 0.66794553788202 0.844131992134064 C 0.0 **** 0.0
31 C24422 0.347134544155401 0.667624047631759 0.871615103546402 C 0.0 **** 0.0
32 C24423 0.363302848556724 0.670752428642045 0.880278847172993 C.Trigonal 0.0 **** 0.0
33 C24424 0.376578069159394 0.677921663252759 0.872231806158798 C.Trigonal 0.0 **** 0.0
34 C24425 0.375489652218142 0.683545668018475 0.854533593161507 C 0.0 **** 0.0
35 C24431 0.393351615729066 0.680236102676746 0.881321718128661 C 0.0 **** 0.0
36 C24432 0.396336454398525 0.665335711783737 0.893701327323886 C 0.0 **** 0.0
37 C24433 0.38122368661329 0.663140062099532 0.905414657155478 C.Trigonal 0.0 **** 0.0
38 C24434 0.364891639420077 0.665666050122784 0.898520327053603 C.Trigonal 0.0 **** 0.0
39 N24440 0.350917433916488 0.664023761668004 0.907887690742269 N 0.0 **** 0.0
40 C24441 0.352585988452141 0.659524146229969 0.924118198532463 C.Trigonal 0.0 **** 0.0
41 C24442 0.368499607281721 0.656939235732229 0.931887533841519 C.Trigonal 0.0 **** 0.0
42 C24443 0.382791928022338 0.65854300057355 0.922191838263099 C.Trigonal 0.0 **** 0.0
43 C24449 0.400172338732833 0.654862965886473 0.92963336908824 C 0.0 **** 0.0
44 C24450 0.400300147007537 0.654576951154886 0.949014883584594 C 0.0 **** 0.0
45 C24451 0.385283134288063 0.644497861137414 0.955626122146402 C 0.0 **** 0.0
46 C24452 0.368992340975374 0.653669003907772 0.950809768465345 C 0.0 **** 0.0
47 C24458 0.35298803341687 0.643949415008426 0.956307907725326 C 0.0 **** 0.0
48 C24459 0.337541265652919 0.653312416290409 0.949999315140179 C.Trigonal 0.0 **** 0.0
49 C24460 0.337394533557456 0.659322522641018 0.933309980262218 C.Trigonal 0.0 **** 0.0
50 C24465 0.32266301717175 0.667088135169737 0.92685662357286 C 0.0 **** 0.0
51 C24466 0.309273351962403 0.670027633682449 0.937427223783815 C 0.0 **** 0.0
52 C24467 0.309737115717376 0.66493506004246 0.954168672867867 C 0.0 **** 0.0
53 C24468 0.323784843144527 0.656247680368771 0.960378779664145 C 0.0 **** 0.0
54 C24474 0.4207258799327 0.768318732605594 0.786374651302823 C 0.0 **** 0.0
55 C24476 0.434852620616692 0.75741565023275 0.778819071054975 C 0.0 **** 0.0
56 C24478 0.409502376699682 0.784609524334903 0.755118106430511 C 0.0 **** 0.0
57 C24480 0.399752986015679 0.743039235816334 0.802212673715717 C 0.0 **** 0.0
58 C24482 0.375359875648642 0.777687084476245 0.742405032175374 C 0.0 **** 0.0
59 C24484 0.321200529413792 0.747389549844182 0.745511047237676 C 0.0 **** 0.0
60 C24486 0.301081328615749 0.720201606883587 0.757135647681627 C 0.0 **** 0.0
61 O24488 0.302158718369339 0.691965531329456 0.774649061388269 O 0.0 **** 0.0
62 C24490 0.303324422891744 0.629422653820995 0.775540579944576 C 0.0 **** 0.0
63 C24492 0.282093317433564 0.639529079842557 0.805976427661235 C 0.0 **** 0.0
64 O24494 0.318432639176222 0.659228434557616 0.851580246232291 O 0.0 **** 0.0
65 O24496 0.371010620424539 0.693319825905297 0.820223043377256 O 0.0 **** 0.0
66 O24498 0.387328235196821 0.690188418702469 0.847288581434236 O 0.0 **** 0.0
67 O24500 0.334953014173718 0.660986994321521 0.878309291375178 O 0.0 **** 0.0
68 C24502 0.324046326977646 0.650245630039605 0.978561818387209 C 0.0 **** 0.0
69 C24504 0.29464431473798 0.669092211461067 0.96504179586923 C 0.0 **** 0.0
70 H24506 0.374236581753616 0.723069537645502 0.788635611660083 H 0.0 **** 0.0
71 H24508 0.364209754654664 0.73868068026838 0.801287055813 H 0.0 **** 0.0
72 H24510 0.346851505652907 0.765997345797553 0.761136309132636 H 0.0 **** 0.0
73 H24512 0.355025570427372 0.752183837207987 0.745501170047818 H 0.0 **** 0.0
74 H24514 0.356443603785733 0.711984032074817 0.80672374083821 H 0.0 **** 0.0
75 H24516 0.319375432780699 0.639378400596109 0.826919514650511 H 0.0 **** 0.0
76 H24518 0.299804964907963 0.649607957908184 0.830760529934272 H 0.0 **** 0.0
77 H24520 0.303483782750063 0.623270055049959 0.809745994202848 H 0.0 **** 0.0
78 H24522 0.323756471401492 0.637841274271396 0.791211817116625 H 0.0 **** 0.0
79 H24524 0.294656262176812 0.662439380321347 0.783299712500197 H 0.0 **** 0.0
80 H24526 0.314779265822896 0.661810912635108 0.773429107400797 H 0.0 **** 0.0
81 H24528 0.404125829892096 0.680863588637646 0.872465516475033 H 0.0 **** 0.0
82 H24530 0.393280035860572 0.69229039452953 0.888308767637222 H 0.0 **** 0.0
83 H24532 0.408148960973463 0.667774339211172 0.900555342113723 H 0.0 **** 0.0
84 H24534 0.398497815093444 0.65362242469598 0.886416660468098 H 0.0 **** 0.0
85 H24536 0.40437464958023 0.642371748089142 0.925055553816632 H 0.0 **** 0.0
86 H24538 0.409557565028452 0.664088295185414 0.925243626298448 H 0.0 **** 0.0
87 H24540 0.399529819964247 0.66758383584358 0.953974107582473 H 0.0 **** 0.0
88 H24542 0.412338191691447 0.64929616313945 0.953633367155532 H 0.0 **** 0.0
89 H24544 0.386005591244107 0.642974489188883 0.96945579498822 H 0.0 **** 0.0
90 H24546 0.385369767875805 0.631704885859463 0.950088049203088 H 0.0 **** 0.0
91 H24548 0.368956648113295 0.666006973837186 0.957425803236034 H 0.0 **** 0.0
92 H24550 0.35328310938454 0.631013398507281 0.951059367626396 H 0.0 **** 0.0
93 H24552 0.353190888185914 0.642526413226669 0.970115438594397 H 0.0 **** 0.0
94 H24554 0.322371813793787 0.671932031825114 0.913836450347415 H 0.0 **** 0.0
95 H24556 0.298047474956654 0.676634262343236 0.932602175333915 H 0.0 **** 0.0
96 H24558 0.42058818101765 0.766704654314825 0.800194900018481 H 0.0 **** 0.0
97 H24560 0.423670971916891 0.781801470484997 0.784590801185261 H 0.0 **** 0.0
98 H24562 0.435695927832298 0.758993707619273 0.765033130829161 H 0.0 **** 0.0
99 H24564 0.432690627466751 0.743935630806281 0.781408397832797 H 0.0 **** 0.0
100 H24566 0.447253957691578 0.760770561841977 0.784173507416732 H 0.0 **** 0.0
101 H24568 0.408817965506288 0.783338243220166 0.7412988236437 H 0.0 **** 0.0
102 H24570 0.422939228764309 0.783121951908476 0.758174170287076 H 0.0 **** 0.0
103 H24572 0.405921858977205 0.79764793729119 0.758433833707392 H 0.0 **** 0.0
104 H24574 0.392135649146106 0.73206363933315 0.805881030889378 H 0.0 **** 0.0
105 H24576 0.399735717736606 0.751729751189991 0.813108660456213 H 0.0 **** 0.0
106 H24578 0.412716191508876 0.73827218733549 0.800600015256097 H 0.0 **** 0.0
107 H24580 0.372768779857951 0.768774082938909 0.732047675930007 H 0.0 **** 0.0
108 H24582 0.383882684846395 0.787277459656291 0.737252141734614 H 0.0 **** 0.0
109 H24584 0.36344557736675 0.784289544696783 0.745334323510276 H 0.0 **** 0.0
110 H24586 0.309916964361477 0.754396806692937 0.749718445858715 H 0.0 **** 0.0
111 H24588 0.317653589227317 0.739633578846991 0.734534288860636 H 0.0 **** 0.0
112 H24590 0.330053152605179 0.756881127870923 0.740719344866696 H 0.0 **** 0.0
113 H24592 0.301043247593422 0.709405238721848 0.748358279783325 H 0.0 **** 0.0
114 H24594 0.296424346707945 0.731106084453088 0.749977284898605 H 0.0 **** 0.0
115 H24596 0.291402533787519 0.717982991965559 0.766842195092781 H 0.0 **** 0.0
116 H24598 0.29659956848815 0.684170285772462 0.781835716064653 H 0.0 **** 0.0
117 H24600 0.303439488206504 0.616068672639044 0.7793822020215 H 0.0 **** 0.0
118 H24602 0.311339012879521 0.630737277568111 0.764264562219032 H 0.0 **** 0.0
119 H24604 0.290314044745342 0.63298866115169 0.772228105727145 H 0.0 **** 0.0
120 H24606 0.27634803593274 0.637119001720814 0.81839901833009 H 0.0 **** 0.0
121 H24608 0.276234635968526 0.630829741063429 0.796854854292859 H 0.0 **** 0.0
122 H24610 0.279009394137995 0.652523133615016 0.802234686798987 H 0.0 **** 0.0
123 H24612 0.320912348887549 0.657934891080551 0.86333220207097 H 0.0 **** 0.0
124 H24614 0.380417027210639 0.694151032123972 0.827759345873732 H 0.0 **** 0.0
125 H24616 0.328073361907805 0.636955050777457 0.979483009777564 H 0.0 **** 0.0
126 H24618 0.311617634726133 0.650899734779541 0.984660439285422 H 0.0 **** 0.0
127 H24620 0.332797262495474 0.657907770576583 0.986226918867857 H 0.0 **** 0.0
128 H24622 0.285910990245581 0.67778529031608 0.958644268154138 H 0.0 **** 0.0
129 H24624 0.298504287776271 0.675248347860135 0.97690069357178 H 0.0 **** 0.0
130 H24626 0.287453299151549 0.657622626806903 0.96818134516844 H 0.0 **** 0.0
@<TRIPOS>BOND
1 3 2 Aromatic
2 4 3 Aromatic
3 5 4 Aromatic
4 6 5 Aromatic
5 1 2 Aromatic
6 1 6 Aromatic
7 8 7 1
8 9 8 Aromatic
9 10 9 1
10 4 7 1
11 3 10 1
12 12 11 Aromatic
13 13 12 Aromatic
14 14 13 Aromatic
15 9 11 Aromatic
16 8 14 Aromatic
17 16 15 Aromatic
18 17 16 Aromatic
19 18 17 Aromatic
20 14 15 Aromatic
21 13 18 Aromatic
22 20 19 1
23 21 20 1
24 22 21 Aromatic
25 17 19 1
26 16 22 Aromatic
27 24 23 1
28 25 24 Aromatic
29 26 25 1
30 20 23 1
31 19 26 1
32 28 27 Aromatic
33 29 28 Aromatic
34 30 29 Aromatic
35 22 27 Aromatic
36 21 30 Aromatic
37 32 31 1
38 33 32 Aromatic
39 34 33 1
40 29 31 1
41 28 34 1
42 36 35 1
43 37 36 1
44 38 37 Aromatic
45 33 35 1
46 32 38 Aromatic
47 40 39 Aromatic
48 41 40 Aromatic
49 42 41 Aromatic
50 38 39 Aromatic
51 37 42 Aromatic
52 44 43 1
53 45 44 1
54 46 45 1
55 42 43 1
56 41 46 1
57 48 47 1
58 49 48 Aromatic
59 40 49 Aromatic
60 46 47 1
61 51 50 Aromatic
62 52 51 Aromatic
63 53 52 Aromatic
64 49 50 Aromatic
65 48 53 Aromatic
66 6 54 1
67 54 55 1
68 1 56 1
69 5 57 1
70 2 58 1
71 11 59 1
72 12 60 1
73 18 61 1
74 25 62 1
75 24 63 1
76 30 64 1
77 27 65 1
78 34 66 Double
79 31 67 Double
80 53 68 1
81 52 69 1
82 7 70 1
83 7 71 1
84 10 72 1
85 10 73 1
86 15 74 1
87 23 75 1
88 23 76 1
89 24 77 1
90 25 78 1
91 26 79 1
92 26 80 1
93 35 81 1
94 35 82 1
95 36 83 1
96 36 84 1
97 43 85 1
98 43 86 1
99 44 87 1
100 44 88 1
101 45 89 1
102 45 90 1
103 46 91 1
104 47 92 1
105 47 93 1
106 50 94 1
107 51 95 1
108 54 96 1
109 54 97 1
110 55 98 1
111 55 99 1
112 55 100 1
113 56 101 1
114 56 102 1
115 56 103 1
116 57 104 1
117 57 105 1
118 57 106 1
119 58 107 1
120 58 108 1
121 58 109 1
122 59 110 1
123 59 111 1
124 59 112 1
125 60 113 1
126 60 114 1
127 60 115 1
128 61 116 1
129 62 117 1
130 62 118 1
131 62 119 1
132 63 120 1
133 63 121 1
134 63 122 1
135 64 123 1
136 65 124 1
137 68 125 1
138 68 126 1
139 68 127 1
140 69 128 1
141 69 129 1
142 69 130 1
@<TRIPOS>MOLECULE
Sketch 4
130 142
SMALL
USER_CHARGES


@<TRIPOS>ATOM
1 C24628 0.950013216647244 1.03113437282985 0.156295856272271 C.Trigonal 0.0 **** 0.0
2 C24629 0.937190092700865 1.01985244863104 0.160193383896963 C 0.0 **** 0.0
3 C24630 0.94106721910145 1.00352508384902 0.165215079974933 C.Trigonal 0.0 **** 0.0
4 C24631 0.957637625609609 0.998401937660248 0.165802228357915 C.Trigonal 0.0 **** 0.0
5 C24632 0.970549778088428 1.00979285098582 0.162351355870232 C 0.0 **** 0.0
6 C24633 0.966729306896951 1.02633622642177 0.158132500438897 C 0.0 **** 0.0
7 C24640 0.962204125065581 0.980283110175532 0.170320866667545 C 0.0 **** 0.0
8 C24641 0.948024004963139 0.968252357364951 0.175246231970022 C.Trigonal 0.0 **** 0.0
9 C24642 0.931532805645419 0.973562254619557 0.175357543446573 C.Trigonal 0.0 **** 0.0
10 C24643 0.92687125256059 0.991398515765815 0.169711540928313 C 0.0 **** 0.0
11 C24649 0.918710312931351 0.962909366451279 0.181034190656672 C 0.0 **** 0.0
12 C24650 0.922049586133281 0.946532485026993 0.186249804965032 C 0.0 **** 0.0
13 C24651 0.938438731763668 0.94018205946598 0.184094379525107 C.Trigonal 0.0 **** 0.0
14 C24652 0.95163693075663 0.951454966446525 0.179733836480166 C.Trigonal 0.0 **** 0.0
15 C24658 0.968329729437538 0.945642586616486 0.180335749518098 C 0.0 **** 0.0
16 C24659 0.972716341793792 0.928778219263681 0.183410245179928 C.Trigonal 0.0 **** 0.0
17 C24660 0.959052726584258 0.917283085402824 0.18471512376795 C.Trigonal 0.0 **** 0.0
18 C24661 0.942436352741551 0.92272360796078 0.185961551730595 C 0.0 **** 0.0
19 C24667 0.96320818155978 0.898784789821424 0.186552868665873 C.Trigonal 0.0 **** 0.0
20 C24668 0.978415698445582 0.894015310915736 0.192823119748924 C.Trigonal 0.0 **** 0.0
21 C24669 0.991838743764352 0.907419099971077 0.195747199497722 C.Trigonal 0.0 **** 0.0
22 C24670 0.989604771528989 0.923293404062586 0.187893279865233 C.Trigonal 0.0 **** 0.0
23 C24676 0.984109723761434 0.875493326466215 0.19330977774722 C 0.0 **** 0.0
24 C24677 0.971060308299226 0.862783979059107 0.186258230310991 C 0.0 **** 0.0
25 C24678 0.960697541540982 0.870939068736692 0.17185910460612 C 0.0 **** 0.0
26 C24679 0.950913590564321 0.886264840797554 0.178669883764782 C 0.0 **** 0.0
27 C24685 1.00381938500263 0.934226677104084 0.187307546982354 C 0.0 **** 0.0
28 C24686 1.01780587830552 0.930919901335306 0.19732781292398 C.Trigonal 0.0 **** 0.0
29 C24687 1.01870436691103 0.916402465643479 0.206945011230252 C.Trigonal 0.0 **** 0.0
30 C24688 1.00577106540714 0.904536901065193 0.206203457793729 C 0.0 **** 0.0
31 C24694 1.03410479530231 0.912795066700737 0.217764562593082 C 0.0 **** 0.0
32 C24695 1.04808343018266 0.925183651786995 0.217590721480689 C.Trigonal 0.0 **** 0.0
33 C24696 1.04704690672403 0.939490563640691 0.20821311359129 C.Trigonal 0.0 **** 0.0
34 C24697 1.03222654076008 0.94335005167822 0.19762505471244 C 0.0 **** 0.0
35 C24703 1.06083355660488 0.952807701250582 0.20818322019126 C 0.0 **** 0.0
36 C24704 1.07825849246822 0.945431187338631 0.212959014096214 C 0.0 **** 0.0
37 C24705 1.07741743810158 0.932860186407376 0.227479034369198 C.Trigonal 0.0 **** 0.0
38 C24706 1.06331471134662 0.921882443490133 0.228633358906215 C.Trigonal 0.0 **** 0.0
39 N24712 1.06324820856591 0.908840903876318 0.239463818036793 N 0.0 **** 0.0
40 C24713 1.07681968125272 0.906385730221592 0.249306391506068 C.Trigonal 0.0 **** 0.0
41 C24714 1.09040464056442 0.918029690022032 0.250083009172048 C.Trigonal 0.0 **** 0.0
42 C24715 1.09036320214917 0.931470579041444 0.239146093005739 C.Trigonal 0.0 **** 0.0
43 C24721 1.1045238423922 0.944572631572366 0.239300925616562 C 0.0 **** 0.0
44 C24722 1.11585514066807 0.943202988316014 0.254960147946195 C 0.0 **** 0.0
45 C24723 1.12021809650557 0.924805345957508 0.258615167398709 C 0.0 **** 0.0
46 C24724 1.1040499500343 0.915268756853532 0.263278352010567 C 0.0 **** 0.0
47 C24730 1.10719169697955 0.896162099201237 0.265701062162071 C 0.0 **** 0.0
48 C24731 1.09060502100288 0.887052871591688 0.268706661155441 C.Trigonal 0.0 **** 0.0
49 C24732 1.07616857787347 0.891848578665965 0.259549601066815 C.Trigonal 0.0 **** 0.0
50 C24737 1.06117891296418 0.882288413273265 0.261285052640431 C 0.0 **** 0.0
51 C24738 1.06071503850019 0.868969070630112 0.272358222741159 C 0.0 **** 0.0
52 C24739 1.07477172818631 0.864597028853776 0.281864144942862 C 0.0 **** 0.0
53 C24740 1.08976227015504 0.873678405338371 0.279961321784303 C 0.0 **** 0.0
54 C24746 0.980770346440532 1.03917063056603 0.155686487325204 C 0.0 **** 0.0
55 C24748 0.988419758615579 1.03833767434795 0.137948537802472 C 0.0 **** 0.0
56 C24750 0.945384212866412 1.0487442679295 0.150259538214407 C 0.0 **** 0.0
57 C24752 0.988656497757237 1.00350482419691 0.163341490739709 C 0.0 **** 0.0
58 C24754 0.918933513651128 1.02548546415529 0.158612110595267 C 0.0 **** 0.0
59 C24756 0.900639424012986 0.969463394608992 0.181821244961007 C 0.0 **** 0.0
60 C24758 0.907523889823737 0.936212598827327 0.193346693446147 C 0.0 **** 0.0
61 O24760 0.929650330258213 0.911466241805249 0.189124436666415 O 0.0 **** 0.0
62 C24762 0.948421178166305 0.858279114199083 0.163654638058652 C 0.0 **** 0.0
63 C24764 0.959941971185287 0.856029161092184 0.200810025712852 C 0.0 **** 0.0
64 O24766 1.00645556324828 0.889782350089977 0.215380354989666 O 0.0 **** 0.0
65 O24768 1.00336888076368 0.948167547878075 0.176999010027082 O 0.0 **** 0.0
66 O24770 1.03130082003165 0.956277324316891 0.189322684495117 O 0.0 **** 0.0
67 O24772 1.03421407161074 0.899817374410297 0.226033754437755 O 0.0 **** 0.0
68 C24774 1.10527473780208 0.868797677006342 0.290101387186152 C 0.0 **** 0.0
69 C24776 1.07319689041882 0.849905106686611 0.293983795728332 C 0.0 **** 0.0
70 H24778 0.969041264802172 0.97469528592442 0.159503111411508 H 0.0 **** 0.0
71 H24780 0.971222881075058 0.98079493482582 0.180943298882783 H 0.0 **** 0.0
72 H24782 0.919446442760017 0.997220508838339 0.179972837368006 H 0.0 **** 0.0
73 H24784 0.918439502013667 0.990478080051716 0.15863219113674 H 0.0 **** 0.0
74 H24786 0.9779834210768 0.955361601041507 0.17894709153948 H 0.0 **** 0.0
75 H24788 0.99584845261964 0.874207391188198 0.185894670835544 H 0.0 **** 0.0
76 H24790 0.987114606793622 0.871496009850823 0.206284515635859 H 0.0 **** 0.0
77 H24792 0.978072028761278 0.851954268196071 0.181014433020418 H 0.0 **** 0.0
78 H24794 0.969551657566937 0.875284691258082 0.162006424427732 H 0.0 **** 0.0
79 H24796 0.941456460204216 0.881961937677986 0.187905665659041 H 0.0 **** 0.0
80 H24798 0.944026955939414 0.892015943583184 0.167980340517891 H 0.0 **** 0.0
81 H24800 1.0620202071213 0.958982138687835 0.195708249470031 H 0.0 **** 0.0
82 H24802 1.05753647227943 0.962888720652169 0.217142057176305 H 0.0 **** 0.0
83 H24804 1.08687797512133 0.956016615585712 0.215492632158709 H 0.0 **** 0.0
84 H24806 1.08342868004643 0.938896966152117 0.201746145667063 H 0.0 **** 0.0
85 H24808 1.11241536260432 0.943127695058774 0.2279168901258 H 0.0 **** 0.0
86 H24810 1.09919361318933 0.957439766146678 0.238835502188368 H 0.0 **** 0.0
87 H24812 1.10929064923934 0.948589534556475 0.266020553259636 H 0.0 **** 0.0
88 H24814 1.12738297816523 0.950743696855817 0.253147711437015 H 0.0 **** 0.0
89 H24816 1.12945497802197 0.923856252752485 0.269017334282917 H 0.0 **** 0.0
90 H24818 1.12619713381676 0.919044808665506 0.24740650764895 H 0.0 **** 0.0
91 H24820 1.09950267710237 0.920373527043999 0.275437818431194 H 0.0 **** 0.0
92 H24822 1.11340502077213 0.890934003054732 0.25433722533784 H 0.0 **** 0.0
93 H24824 1.11617874030293 0.894498684253127 0.276155069378777 H 0.0 **** 0.0
94 H24826 1.04976399355119 0.885775739513035 0.254167353773646 H 0.0 **** 0.0
95 H24828 1.04894973651093 0.861723061805148 0.273818955494488 H 0.0 **** 0.0
96 H24830 0.990754398251164 1.03713948093931 0.165142516522101 H 0.0 **** 0.0
97 H24832 0.976346926879108 1.05210009886044 0.158252543960244 H 0.0 **** 0.0
98 H24834 0.979222619824817 1.04221029842503 0.128319085162577 H 0.0 **** 0.0
99 H24836 0.992826900728188 1.02552322496442 0.134904455850816 H 0.0 **** 0.0
100 H24838 0.999387225406178 1.04678148855556 0.136899830304764 H 0.0 **** 0.0
101 H24840 0.934163608646545 1.04854779489366 0.142043058230888 H 0.0 **** 0.0
102 H24842 0.955364787818752 1.05472228390924 0.14271745324301 H 0.0 **** 0.0
103 H24844 0.942556937118403 1.05716819450439 0.160936195579463 H 0.0 **** 0.0
104 H24846 0.990655823343973 0.992751277019582 0.154720905925653 H 0.0 **** 0.0
105 H24848 0.991813589478305 0.999235173715525 0.176200197360312 H 0.0 **** 0.0
106 H24850 0.998161377439832 1.01295445278184 0.159911206325123 H 0.0 **** 0.0
107 H24852 0.910083072464799 1.01789055564933 0.166109198548423 H 0.0 **** 0.0
108 H24854 0.914778839673104 1.02475382436256 0.14534782527852 H 0.0 **** 0.0
109 H24856 0.917158978710351 1.03859119120677 0.162894591618896 H 0.0 **** 0.0
110 H24858 0.891652932645145 0.959978155993383 0.177076174569841 H 0.0 **** 0.0
111 H24860 0.898357785811061 0.980796075516251 0.174171740874974 H 0.0 **** 0.0
112 H24862 0.897066459418927 0.972636569745022 0.194901273961292 H 0.0 **** 0.0
113 H24864 0.902241911151211 0.927592613660091 0.183771187954138 H 0.0 **** 0.0
114 H24866 0.897103331612732 0.944007939594144 0.198106485609864 H 0.0 **** 0.0
115 H24868 0.911471000772801 0.928702123291809 0.204368129542073 H 0.0 **** 0.0
116 H24870 0.934656041373743 0.9007964182488 0.191161696354516 H 0.0 **** 0.0
117 H24872 0.955285169970991 0.847013567427596 0.159299537828124 H 0.0 **** 0.0
118 H24874 0.942162798242394 0.864052853293142 0.152656985276149 H 0.0 **** 0.0
119 H24876 0.93857089358669 0.8542862244675 0.172610633171679 H 0.0 **** 0.0
120 H24878 0.967886852069739 0.849863777813625 0.210418567696078 H 0.0 **** 0.0
121 H24880 0.950890367584216 0.846558084833539 0.196184412714356 H 0.0 **** 0.0
122 H24882 0.952952030603643 0.866278496755086 0.207042754347309 H 0.0 **** 0.0
123 H24884 1.01643449999917 0.889930866531133 0.222208422702182 H 0.0 **** 0.0
124 H24886 1.01330960346842 0.954788915017348 0.178841373826315 H 0.0 **** 0.0
125 H24888 1.11571990509054 0.86494017261692 0.281730690821075 H 0.0 **** 0.0
126 H24890 1.10308713955221 0.85826551886316 0.298835187863979 H 0.0 **** 0.0
127 H24892 1.1097197375723 0.879420783164058 0.297929460435986 H 0.0 **** 0.0
128 H24894 1.08371516178543 0.840914292696974 0.292692349746041 H 0.0 **** 0.0
129 H24896 1.0615701322525 0.842692245277891 0.291748830098468 H 0.0 **** 0.0
130 H24898 1.07293996763445 0.854240193459111 0.307215180492864 H 0.0 **** 0.0
@<TRIPOS>BOND
1 3 2 Aromatic
2 4 3 Aromatic
3 5 4 Aromatic
4 6 5 Aromatic
5 1 2 Aromatic
6 1 6 Aromatic
7 8 7 1
8 9 8 Aromatic
9 10 9 1
10 4 7 1
11 3 10 1
12 12 11 Aromatic
13 13 12 Aromatic
14 14 13 Aromatic
15 9 11 Aromatic
16 8 14 Aromatic
17 16 15 Aromatic
18 17 16 Aromatic
19 18 17 Aromatic
20 14 15 Aromatic
21 13 18 Aromatic
22 20 19 1
23 21 20 1
24 22 21 Aromatic
25 17 19 1
26 16 22 Aromatic
27 24 23 1
28 25 24 Aromatic
29 26 25 1
30 20 23 1
31 19 26 1
32 28 27 Aromatic
33 29 28 Aromatic
34 30 29 Aromatic
35 22 27 Aromatic
36 21 30 Aromatic
37 32 31 1
38 33 32 Aromatic
39 34 33 1
40 29 31 1
41 28 34 1
42 36 35 1
43 37 36 1
44 38 37 Aromatic
45 33 35 1
46 32 38 Aromatic
47 40 39 Aromatic
48 41 40 Aromatic
49 42 41 Aromatic
50 38 39 Aromatic
51 37 42 Aromatic
52 44 43 1
53 45 44 1
54 46 45 1
55 42 43 1
56 41 46 1
57 48 47 1
58 49 48 Aromatic
59 40 49 Aromatic
60 46 47 1
61 51 50 Aromatic
62 52 51 Aromatic
63 53 52 Aromatic
64 49 50 Aromatic
65 48 53 Aromatic
66 6 54 1
67 54 55 1
68 1 56 1
69 5 57 1
70 2 58 1
71 11 59 1
72 12 60 1
73 18 61 1
74 25 62 1
75 24 63 1
76 30 64 1
77 27 65 1
78 34 66 Double
79 31 67 Double
80 53 68 1
81 52 69 1
82 7 70 1
83 7 71 1
84 10 72 1
85 10 73 1
86 15 74 1
87 23 75 1
88 23 76 1
89 24 77 1
90 25 78 1
91 26 79 1
92 26 80 1
93 35 81 1
94 35 82 1
95 36 83 1
96 36 84 1
97 43 85 1
98 43 86 1
99 44 87 1
100 44 88 1
101 45 89 1
102 45 90 1
103 46 91 1
104 47 92 1
105 47 93 1
106 50 94 1
107 51 95 1
108 54 96 1
109 54 97 1
110 55 98 1
111 55 99 1
112 55 100 1
113 56 101 1
114 56 102 1
115 56 103 1
116 57 104 1
117 57 105 1
118 57 106 1
119 58 107 1
120 58 108 1
121 58 109 1
122 59 110 1
123 59 111 1
124 59 112 1
125 60 113 1
126 60 114 1
127 60 115 1
128 61 116 1
129 62 117 1
130 62 118 1
131 62 119 1
132 63 120 1
133 63 121 1
134 63 122 1
135 64 123 1
136 65 124 1
137 68 125 1
138 68 126 1
139 68 127 1
140 69 128 1
141 69 129 1
142 69 130 1
@<TRIPOS>MOLECULE
Sketch 4
130 142
SMALL
USER_CHARGES


@<TRIPOS>ATOM
1 C24900 0.226331283028033 0.195035371283274 0.674544253748618 C.Trigonal 0.0 **** 0.0
2 C24901 0.211900325164651 0.202084607832397 0.667516315325727 C 0.0 **** 0.0
3 C24902 0.199290296336871 0.208456968859934 0.67788114505389 C.Trigonal 0.0 **** 0.0
4 C24903 0.201008722528412 0.207396741745542 0.695139539278716 C.Trigonal 0.0 **** 0.0
5 C24904 0.215519138049947 0.200559115029453 0.70224365368128 C 0.0 **** 0.0
6 C24905 0.228376087754936 0.194754314134039 0.691913108529207 C 0.0 **** 0.0
7 C24912 0.187165387372698 0.213733231571107 0.706786681665303 C 0.0 **** 0.0
8 C24913 0.17250495062873 0.223293328698445 0.698941856716837 C.Trigonal 0.0 **** 0.0
9 C24914 0.170588545112748 0.224465495984637 0.681789913618144 C.Trigonal 0.0 **** 0.0
10 C24915 0.183730209963099 0.216650670516141 0.670005428626227 C 0.0 **** 0.0
11 C24921 0.156376530321453 0.232314719650178 0.674853703650614 C 0.0 **** 0.0
12 C24922 0.144394459190736 0.24018277924675 0.684931398731145 C 0.0 **** 0.0
13 C24923 0.147197698780853 0.240762289392957 0.702435120106057 C.Trigonal 0.0 **** 0.0
14 C24924 0.160274865056694 0.230728307475221 0.709340329694879 C.Trigonal 0.0 **** 0.0
15 C24930 0.160891746149414 0.228556097910165 0.726809884153378 C 0.0 **** 0.0
16 C24931 0.150053493459599 0.237142213702404 0.73782219601261 C.Trigonal 0.0 **** 0.0
17 C24932 0.140437056483495 0.250656664119085 0.730994762933655 C.Trigonal 0.0 **** 0.0
18 C24933 0.138067456311962 0.251772282065728 0.713550132610627 C 0.0 **** 0.0
19 C24939 0.13259246599322 0.262948087005092 0.743613038821077 C.Trigonal 0.0 **** 0.0
20 C24940 0.134726760388395 0.260546209569265 0.760588090226421 C.Trigonal 0.0 **** 0.0
21 C24941 0.144375707759461 0.245286591362966 0.767277860403819 C.Trigonal 0.0 **** 0.0
22 C24942 0.149357776712715 0.233015551983909 0.755418035104938 C.Trigonal 0.0 **** 0.0
23 C24948 0.12659987462548 0.272132408502789 0.773688215621693 C 0.0 **** 0.0
24 C24949 0.113087423215404 0.283714544785303 0.765936035032878 C 0.0 **** 0.0
25 C24950 0.120043075051044 0.29219481617574 0.749858773486929 C 0.0 **** 0.0
26 C24951 0.123311718836422 0.278402271089139 0.73657006615753 C 0.0 **** 0.0
27 C24957 0.155089871878185 0.217095051987706 0.761420405794373 C 0.0 **** 0.0
28 C24958 0.159303177992998 0.215298836361065 0.778270056316797 C.Trigonal 0.0 **** 0.0
29 C24959 0.157417999361286 0.228665512266218 0.789337894490061 C.Trigonal 0.0 **** 0.0
30 C24960 0.149701182136164 0.243615054942477 0.784104930582769 C 0.0 **** 0.0
31 C24966 0.16343853823183 0.227013584652636 0.80742693998637 C 0.0 **** 0.0
32 C24967 0.170664320011509 0.210651173343433 0.81277488637723 C.Trigonal 0.0 **** 0.0
33 C24968 0.172024666393058 0.197498589834005 0.801976378185465 C.Trigonal 0.0 **** 0.0
34 C24969 0.166453414701894 0.198731284417507 0.784322052154566 C 0.0 **** 0.0
35 C24975 0.179645109066119 0.180862058820634 0.807839884325507 C 0.0 **** 0.0
36 C24976 0.194261175619763 0.184009080352728 0.820455442773685 C 0.0 **** 0.0
37 C24977 0.188823047129238 0.196042095420762 0.834370100583092 C.Trigonal 0.0 **** 0.0
38 C24978 0.176714439631704 0.208700909880919 0.830670735922612 C.Trigonal 0.0 **** 0.0
39 N24984 0.170442141471119 0.218694707486224 0.842734941935262 N 0.0 **** 0.0
40 C24985 0.176585705872349 0.21707800611983 0.858447865945833 C.Trigonal 0.0 **** 0.0
41 C24986 0.190330323060192 0.206335903621855 0.862451270319221 C.Trigonal 0.0 **** 0.0
42 C24987 0.196162113521176 0.195572192741091 0.850192701435028 C.Trigonal 0.0 **** 0.0
43 C24993 0.210498566211744 0.18322125715419 0.853711511995864 C 0.0 **** 0.0
44 C24994 0.22100142726451 0.188517886019592 0.869106961094657 C 0.0 **** 0.0
45 C24995 0.209326123322765 0.192456472686483 0.883954006829116 C 0.0 **** 0.0
46 C24996 0.198279968562793 0.207845891123457 0.879850252847342 C 0.0 **** 0.0
47 C25002 0.184348982665057 0.210835190073375 0.893245620146053 C 0.0 **** 0.0
48 C25003 0.172239066046199 0.224701203863807 0.887746564461898 C.Trigonal 0.0 **** 0.0
49 C25004 0.168563829875211 0.227231007198742 0.870580220402678 C.Trigonal 0.0 **** 0.0
50 C25009 0.156342678911288 0.239376479217895 0.86584218416686 C 0.0 **** 0.0
51 C25010 0.147835901925833 0.24820014578229 0.878061105998831 C 0.0 **** 0.0
52 C25011 0.151377551410658 0.245690042626115 0.895009476107988 C 0.0 **** 0.0
53 C25012 0.163698216145967 0.234039427578531 0.899825972624801 C 0.0 **** 0.0
54 C25018 0.244666408921349 0.188243288896584 0.699681620393164 C 0.0 **** 0.0
55 C25020 0.243424345270155 0.169287666087462 0.703413931071454 C 0.0 **** 0.0
56 C25022 0.239997481204187 0.188094700136235 0.663001682276258 C 0.0 **** 0.0
57 C25024 0.217274357521486 0.199961783638247 0.721372854784088 C 0.0 **** 0.0
58 C25026 0.21017625547657 0.202693478406815 0.648416772336217 C 0.0 **** 0.0
59 C25028 0.154206863806737 0.231548111008464 0.655758281803619 C 0.0 **** 0.0
60 C25030 0.129201114836086 0.248356005915987 0.676540814877398 C 0.0 **** 0.0
61 O25032 0.127257225447418 0.26322825000336 0.70640795627577 O 0.0 **** 0.0
62 C25034 0.136237391806149 0.302615502336193 0.752954225005969 C 0.0 **** 0.0
63 C25036 0.107160403907767 0.29681280212893 0.77905241828404 C 0.0 **** 0.0
64 O25038 0.147201525300578 0.256799447920452 0.795168310070711 O 0.0 **** 0.0
65 O25040 0.156874055990159 0.204110183061551 0.750071443095617 O 0.0 **** 0.0
66 O25042 0.167672170987694 0.186888240728746 0.774616073898227 O 0.0 **** 0.0
67 O25044 0.162414818072029 0.239298507603331 0.816619981164477 O 0.0 **** 0.0
68 C25046 0.16750598045011 0.231219880363524 0.918377385222599 C 0.0 **** 0.0
69 C25048 0.141147511469597 0.255347867458944 0.907825807952991 C 0.0 **** 0.0
70 H25050 0.18193593045495 0.202713870777413 0.713614824428577 H 0.0 **** 0.0
71 H25052 0.193075265760461 0.222027824180587 0.71631966569953 H 0.0 **** 0.0
72 H25054 0.188365987068747 0.226841550084795 0.661674777330066 H 0.0 **** 0.0
73 H25056 0.177395965475101 0.207285110360266 0.661838034911611 H 0.0 **** 0.0
74 H25058 0.170597287980046 0.220165608301781 0.732020866838885 H 0.0 **** 0.0
75 H25060 0.120438856167257 0.264664208140472 0.783715518279653 H 0.0 **** 0.0
76 H25062 0.136365368291001 0.280030644501766 0.779707631892182 H 0.0 **** 0.0
77 H25064 0.102080756125196 0.27594125047052 0.762380754175351 H 0.0 **** 0.0
78 H25066 0.110327150053306 0.300825129743821 0.744842873183548 H 0.0 **** 0.0
79 H25068 0.130608918218152 0.284379313311275 0.726315474372163 H 0.0 **** 0.0
80 H25070 0.110958237974163 0.27442933759496 0.731496975372439 H 0.0 **** 0.0
81 H25072 0.169708317854541 0.173480057094857 0.81416073257315 H 0.0 **** 0.0
82 H25074 0.184360598078334 0.173072186142848 0.797263915373021 H 0.0 **** 0.0
83 H25076 0.205372410993392 0.18920400655732 0.813929481400912 H 0.0 **** 0.0
84 H25078 0.198251144213899 0.171738402398529 0.825608613123537 H 0.0 **** 0.0
85 H25080 0.205233512210619 0.170528666367431 0.856088493006568 H 0.0 **** 0.0
86 H25082 0.218869702885194 0.182060204015522 0.842649202086433 H 0.0 **** 0.0
87 H25084 0.228550214957106 0.199829321837859 0.866031954394095 H 0.0 **** 0.0
88 H25086 0.230040831680745 0.178436260548811 0.872406557516392 H 0.0 **** 0.0
89 H25088 0.216611619381331 0.194818146332776 0.895605492368267 H 0.0 **** 0.0
90 H25090 0.201317410134567 0.181341812736511 0.88651126048771 H 0.0 **** 0.0
91 H25092 0.206596554585986 0.21910579085752 0.879787216355528 H 0.0 **** 0.0
92 H25094 0.177165245733929 0.199022842433179 0.895214623172644 H 0.0 **** 0.0
93 H25096 0.190508142047665 0.21376782044174 0.905359224762166 H 0.0 **** 0.0
94 H25098 0.153285198262604 0.241513846691687 0.852453323381488 H 0.0 **** 0.0
95 H25100 0.1381082446989 0.257423072946354 0.87436244125691 H 0.0 **** 0.0
96 H25102 0.247631519130649 0.19517966746839 0.711359196719974 H 0.0 **** 0.0
97 H25104 0.255548287711229 0.190693716321621 0.691362654490709 H 0.0 **** 0.0
98 H25106 0.241129457763223 0.162134799440433 0.691734945595884 H 0.0 **** 0.0
99 H25108 0.233006399741726 0.166470103981376 0.712190519612939 H 0.0 **** 0.0
100 H25110 0.255127974924599 0.164385332976158 0.709104881507737 H 0.0 **** 0.0
101 H25112 0.234741569273851 0.182639826979998 0.651353150808711 H 0.0 **** 0.0
102 H25114 0.247283719087891 0.177849267724078 0.668876833496429 H 0.0 **** 0.0
103 H25116 0.248972406625327 0.198097491711066 0.659319462161416 H 0.0 **** 0.0
104 H25118 0.205137311459286 0.1976310457547 0.727717795644574 H 0.0 **** 0.0
105 H25120 0.22238986774142 0.211965455471974 0.726270829962301 H 0.0 **** 0.0
106 H25122 0.225634752899618 0.18978791265593 0.725739434895889 H 0.0 **** 0.0
107 H25124 0.200347179415618 0.211377300070865 0.643939838786475 H 0.0 **** 0.0
108 H25126 0.207115799043219 0.190110481503366 0.643273374624874 H 0.0 **** 0.0
109 H25128 0.221985487274216 0.206971595880747 0.642438536682681 H 0.0 **** 0.0
110 H25130 0.146752920500563 0.242042155680629 0.65067162874586 H 0.0 **** 0.0
111 H25132 0.148000194021143 0.219661884131709 0.651998686440227 H 0.0 **** 0.0
112 H25134 0.16630387842302 0.232114987656571 0.648972232926549 H 0.0 **** 0.0
113 H25136 0.11766792774427 0.246592121776391 0.684122417858401 H 0.0 **** 0.0
114 H25138 0.125976226856124 0.24288343309292 0.664226376503627 H 0.0 **** 0.0
115 H25140 0.131178254735152 0.262005977614429 0.674643901839376 H 0.0 **** 0.0
116 H25142 0.121170209364494 0.268568680016111 0.715208192018352 H 0.0 **** 0.0
117 H25144 0.133884103432121 0.312601022877378 0.762312454517387 H 0.0 **** 0.0
118 H25146 0.140366558806354 0.308741569049055 0.741160777360232 H 0.0 **** 0.0
119 H25148 0.146665965951422 0.29463449737296 0.757499713764944 H 0.0 **** 0.0
120 H25150 0.101344005025045 0.290418558602071 0.789949640847681 H 0.0 **** 0.0
121 H25152 0.0977062259666102 0.305348734049208 0.773475736178042 H 0.0 **** 0.0
122 H25154 0.11781983412652 0.30442705333163 0.78370377843146 H 0.0 **** 0.0
123 H25156 0.15152562871405 0.253730745709964 0.806029451383799 H 0.0 **** 0.0
124 H25158 0.160033644359609 0.193985767349778 0.755883843422715 H 0.0 **** 0.0
125 H25160 0.165395866414919 0.217926003493974 0.921946682289813 H 0.0 **** 0.0
126 H25162 0.15967805063913 0.238888934429586 0.926835370768345 H 0.0 **** 0.0
127 H25164 0.18072901570148 0.23444116705721 0.921336193122986 H 0.0 **** 0.0
128 H25166 0.134388517185881 0.24643097308296 0.916025666790793 H 0.0 **** 0.0
129 H25168 0.131587760933066 0.263470769188679 0.90186970340406 H 0.0 **** 0.0
130 H25170 0.149075827538624 0.263403565926302 0.915911929213499 H 0.0 **** 0.0
@<TRIPOS>BOND
1 3 2 Aromatic
2 4 3 Aromatic
3 5 4 Aromatic
4 6 5 Aromatic
5 1 2 Aromatic
6 1 6 Aromatic
7 8 7 1
8 9 8 Aromatic
9 10 9 1
10 4 7 1
11 3 10 1
12 12 11 Aromatic
13 13 12 Aromatic
14 14 13 Aromatic
15 9 11 Aromatic
16 8 14 Aromatic
17 16 15 Aromatic
18 17 16 Aromatic
19 18 17 Aromatic
20 14 15 Aromatic
21 13 18 Aromatic
22 20 19 1
23 21 20 1
24 22 21 Aromatic
25 17 19 1
26 16 22 Aromatic
27 24 23 1
28 25 24 Aromatic
29 26 25 1
30 20 23 1
31 19 26 1
32 28 27 Aromatic
33 29 28 Aromatic
34 30 29 Aromatic
35 22 27 Aromatic
36 21 30 Aromatic
37 32 31 1
38 33 32 Aromatic
39 34 33 1
40 29 31 1
41 28 34 1
42 36 35 1
43 37 36 1
44 38 37 Aromatic
45 33 35 1
46 32 38 Aromatic
47 40 39 Aromatic
48 41 40 Aromatic
49 42 41 Aromatic
50 38 39 Aromatic
51 37 42 Aromatic
52 44 43 1
53 45 44 1
54 46 45 1
55 42 43 1
56 41 46 1
57 48 47 1
58 49 48 Aromatic
59 40 49 Aromatic
60 46 47 1
61 51 50 Aromatic
62 52 51 Aromatic
63 53 52 Aromatic
64 49 50 Aromatic
65 48 53 Aromatic
66 6 54 1
67 54 55 1
68 1 56 1
69 5 57 1
70 2 58 1
71 11 59 1
72 12 60 1
73 18 61 1
74 25 62 1
75 24 63 1
76 30 64 1
77 27 65 1
78 34 66 Double
79 31 67 Double
80 53 68 1
81 52 69 1
82 7 70 1
83 7 71 1
84 10 72 1
85 10 73 1
86 15 74 1
87 23 75 1
88 23 76 1
89 24 77 1
90 25 78 1
91 26 79 1
92 26 80 1
93 35 81 1
94 35 82 1
95 36 83 1
96 36 84 1
97 43 85 1
98 43 86 1
99 44 87 1
100 44 88 1
101 45 89 1
102 45 90 1
103 46 91 1
104 47 92 1
105 47 93 1
106 50 94 1
107 51 95 1
108 54 96 1
109 54 97 1
110 55 98 1
111 55 99 1
112 55 100 1
113 56 101 1
114 56 102 1
115 56 103 1
116 57 104 1
117 57 105 1
118 57 106 1
119 58 107 1
120 58 108 1
121 58 109 1
122 59 110 1
123 59 111 1
124 59 112 1
125 60 113 1
126 60 114 1
127 60 115 1
128 61 116 1
129 62 117 1
130 62 118 1
131 62 119 1
132 63 120 1
133 63 121 1
134 63 122 1
135 64 123 1
136 65 124 1
137 68 125 1
138 68 126 1
139 68 127 1
140 69 128 1
141 69 129 1
142 69 130 1
@<TRIPOS>MOLECULE
Sketch 4
130 142
SMALL
USER_CHARGES


@<TRIPOS>ATOM
1 C25172 0.24045592198644 0.120059323337398 0.706562608912849 C.Trigonal 0.0 **** 0.0
2 C25173 0.229639321402505 0.128283428342523 0.695510241843171 C 0.0 **** 0.0
3 C25174 0.214055324358898 0.133998029700981 0.701144898874484 C.Trigonal 0.0 **** 0.0
4 C25175 0.209158035934223 0.130951843932355 0.717542950877452 C.Trigonal 0.0 **** 0.0
5 C25176 0.220143926345563 0.123159223810391 0.728773497187662 C 0.0 **** 0.0
6 C25177 0.235841516550279 0.117794370162658 0.723294809048881 C 0.0 **** 0.0
7 C25184 0.191605049899325 0.13582805125131 0.723627351825167 C 0.0 **** 0.0
8 C25185 0.181496691036616 0.147814494923869 0.712617773201597 C.Trigonal 0.0 **** 0.0
9 C25186 0.186531161990795 0.151622615751646 0.696470988840151 C.Trigonal 0.0 **** 0.0
10 C25187 0.202539395148504 0.143718278113128 0.689170669084475 C 0.0 **** 0.0
11 C25193 0.176830712680017 0.162315110060018 0.686365240914935 C 0.0 **** 0.0
12 C25194 0.162543700082642 0.170276687777713 0.692636257721016 C 0.0 **** 0.0
13 C25195 0.158423308297068 0.168037261047063 0.709744243440258 C.Trigonal 0.0 **** 0.0
14 C25196 0.166473471819056 0.154961656462356 0.718782021814266 C.Trigonal 0.0 **** 0.0
15 C25202 0.159384023246374 0.149819329343506 0.734091944984299 C 0.0 **** 0.0
16 C25203 0.147854309112317 0.159787121606301 0.743100410999927 C.Trigonal 0.0 **** 0.0
17 C25204 0.140288494275688 0.173512977827794 0.734204754962565 C.Trigonal 0.0 **** 0.0
18 C25205 0.146258374419437 0.178133275947307 0.718278159353125 C 0.0 **** 0.0
19 C25211 0.125383866452565 0.182356626770789 0.742636504709798 C.Trigonal 0.0 **** 0.0
20 C25212 0.119534993409567 0.176518554341229 0.757740461728863 C.Trigonal 0.0 **** 0.0
21 C25213 0.130457614899477 0.164901811577501 0.768528046307025 C.Trigonal 0.0 **** 0.0
22 C25214 0.144730958521493 0.15743408811876 0.760818087502487 C.Trigonal 0.0 **** 0.0
23 C25220 0.102423942131875 0.181956204961648 0.76473060909981 C 0.0 **** 0.0
24 C25221 0.0911416451651638 0.189821000796274 0.751090995196955 C 0.0 **** 0.0
25 C25222 0.100819575890485 0.203850820635864 0.741800093085598 C 0.0 **** 0.0
26 C25223 0.115936159557412 0.195905730864244 0.732512492477496 C 0.0 **** 0.0
27 C25229 0.156769709461175 0.149200175960171 0.771460163814116 C 0.0 **** 0.0
28 C25230 0.153621927149958 0.147477278251343 0.788550554273723 C.Trigonal 0.0 **** 0.0
29 C25231 0.139136536774623 0.153970077767066 0.795707809332072 C.Trigonal 0.0 **** 0.0
30 C25232 0.127580656093496 0.16278389116502 0.785843546404684 C 0.0 **** 0.0
31 C25238 0.136303665203171 0.152838755802426 0.814634443123273 C 0.0 **** 0.0
32 C25239 0.150134167777834 0.146089405417397 0.825134107812554 C.Trigonal 0.0 **** 0.0
33 C25240 0.16407965504276 0.139275814918126 0.817967358862985 C.Trigonal 0.0 **** 0.0
34 C25241 0.166683771855223 0.139092544404366 0.799577006320095 C 0.0 **** 0.0
35 C25247 0.17789635386435 0.131534714651575 0.828740411586818 C 0.0 **** 0.0
36 C25248 0.180419150726194 0.141840117494266 0.845125020793323 C 0.0 **** 0.0
37 C25249 0.163735417959319 0.145810874332595 0.85384458408727 C.Trigonal 0.0 **** 0.0
38 C25250 0.14877326931445 0.147357005204961 0.844123504646714 C.Trigonal 0.0 **** 0.0
39 N25256 0.13396973906518 0.151236386716414 0.851358166362935 N 0.0 **** 0.0
40 C25257 0.133495978666081 0.153728357587847 0.868115159385339 C.Trigonal 0.0 **** 0.0
41 C25258 0.148141656143954 0.153000291643893 0.878437339155912 C.Trigonal 0.0 **** 0.0
42 C25259 0.163241857932208 0.148974332077277 0.871005946032928 C.Trigonal 0.0 **** 0.0
43 C25265 0.179485983636256 0.147809709331136 0.881323594000645 C 0.0 **** 0.0
44 C25266 0.177827547116995 0.155219693689315 0.899160843309012 C 0.0 **** 0.0
45 C25267 0.161071158265881 0.149984582195474 0.9071398507498 C 0.0 **** 0.0
46 C25268 0.146749570890056 0.158012533373217 0.896927723001567 C 0.0 **** 0.0
47 C25274 0.128996028732039 0.153417789734135 0.903480940672059 C 0.0 **** 0.0
48 C25275 0.1161953999665 0.161716908484274 0.891967820039269 C.Trigonal 0.0 **** 0.0
49 C25276 0.117965415254354 0.159665629545112 0.874423000613879 C.Trigonal 0.0 **** 0.0
50 C25281 0.105701470638107 0.166706057377578 0.863532471211008 C 0.0 **** 0.0
51 C25282 0.0935586062972877 0.177202649766932 0.870068526637887 C 0.0 **** 0.0
52 C25283 0.0923998384139273 0.180044415575493 0.887306815209206 C 0.0 **** 0.0
53 C25284 0.103527343927572 0.17194970693244 0.89832854507617 C 0.0 **** 0.0
54 C25290 0.247943514947157 0.109305742039328 0.735491240715293 C 0.0 **** 0.0
55 C25292 0.244097697062609 0.0903520958458281 0.736817024144508 C 0.0 **** 0.0
56 C25294 0.257570932726846 0.113819633351598 0.700519885164203 C 0.0 **** 0.0
57 C25296 0.214568732967238 0.120927507766161 0.746991448109652 C 0.0 **** 0.0
58 C25298 0.235091716814315 0.130837558948857 0.677289601817415 C 0.0 **** 0.0
59 C25300 0.181842582658044 0.165213923106344 0.668025841372973 C 0.0 **** 0.0
60 C25302 0.152197130222254 0.181220946463379 0.68081629160432 C 0.0 **** 0.0
61 O25304 0.14061933251504 0.192416556255008 0.710134270587256 O 0.0 **** 0.0
62 C25306 0.106879242575175 0.218178118742437 0.753590371532854 C 0.0 **** 0.0
63 C25308 0.0747997354379036 0.196449084009763 0.759204185637579 C 0.0 **** 0.0
64 O25310 0.113624631716213 0.170210905513749 0.793106008376179 O 0.0 **** 0.0
65 O25312 0.171859936397873 0.143898839651696 0.76476925865526 O 0.0 **** 0.0
66 O25314 0.179248605720119 0.132887956539603 0.793238336165071 O 0.0 **** 0.0
67 O25316 0.123002445546005 0.157953449955944 0.820367297697728 O 0.0 **** 0.0
68 C25318 0.102002478743062 0.174704608411546 0.917222504314569 C 0.0 **** 0.0
69 C25320 0.0790783508253635 0.192264447415304 0.893347125199848 C 0.0 **** 0.0
70 H25322 0.184202132947599 0.124109802224757 0.725430527266114 H 0.0 **** 0.0
71 H25324 0.192814039011885 0.141777148747579 0.736169187710752 H 0.0 **** 0.0
72 H25326 0.21020332978076 0.154138530088211 0.683951529022253 H 0.0 **** 0.0
73 H25328 0.19898802618045 0.135412285230676 0.678526173728443 H 0.0 **** 0.0
74 H25330 0.16449354889009 0.138277439670201 0.739719297463285 H 0.0 **** 0.0
75 H25332 0.0955509605509032 0.170980342451691 0.769881387795317 H 0.0 **** 0.0
76 H25334 0.10411627239922 0.191184034204789 0.775010126454197 H 0.0 **** 0.0
77 H25336 0.087718342290974 0.179968128235596 0.741851954718639 H 0.0 **** 0.0
78 H25338 0.0923801353264119 0.209459594516446 0.732240549865545 H 0.0 **** 0.0
79 H25340 0.124346796385169 0.206428569531086 0.729124368526402 H 0.0 **** 0.0
80 H25342 0.111222404919453 0.190192948729172 0.720724156646616 H 0.0 **** 0.0
81 H25344 0.174382893039433 0.118424446354474 0.831780167459451 H 0.0 **** 0.0
82 H25346 0.190086601637355 0.130735087129622 0.822055617028257 H 0.0 **** 0.0
83 H25348 0.186911821941561 0.153767375844733 0.842081868652026 H 0.0 **** 0.0
84 H25350 0.188967966016764 0.134712029848648 0.853483320306161 H 0.0 **** 0.0
85 H25352 0.183028480576817 0.134386214864753 0.882431992982019 H 0.0 **** 0.0
86 H25354 0.189999445390068 0.154109093913692 0.874737699231979 H 0.0 **** 0.0
87 H25356 0.178213757170162 0.169137381743587 0.898555146301192 H 0.0 **** 0.0
88 H25358 0.188691143247973 0.151369085055894 0.906983326119469 H 0.0 **** 0.0
89 H25360 0.160399307989932 0.154056490069335 0.920455528556315 H 0.0 **** 0.0
90 H25362 0.15981737184615 0.136112692296873 0.90709498063098 H 0.0 **** 0.0
91 H25364 0.148169344336381 0.171911936355676 0.897886112134258 H 0.0 **** 0.0
92 H25366 0.127359643348268 0.139575095569372 0.903509920662254 H 0.0 **** 0.0
93 H25368 0.127859765799516 0.157432872241579 0.916713508936795 H 0.0 **** 0.0
94 H25370 0.106855618422795 0.165394476953242 0.849747884956429 H 0.0 **** 0.0
95 H25372 0.0845699894610827 0.183420558943121 0.861483433651633 H 0.0 **** 0.0
96 H25374 0.247277828372383 0.115194779898402 0.748068457250659 H 0.0 **** 0.0
97 H25376 0.261150782922598 0.111087695655227 0.731565819873194 H 0.0 **** 0.0
98 H25378 0.245528190984371 0.0840741250831386 0.7244880142985 H 0.0 **** 0.0
99 H25380 0.231102377840388 0.0880656502100228 0.741216207806913 H 0.0 **** 0.0
100 H25382 0.25270004061001 0.0840528131644176 0.745761286855689 H 0.0 **** 0.0
101 H25384 0.258556903570274 0.112899029107905 0.686722080682369 H 0.0 **** 0.0
102 H25386 0.260320675280937 0.101058381557587 0.705293262101078 H 0.0 **** 0.0
103 H25388 0.267756580735602 0.122299073976878 0.704831708290022 H 0.0 **** 0.0
104 H25390 0.201664741584482 0.115797478290932 0.747771128439786 H 0.0 **** 0.0
105 H25392 0.214734807653867 0.133120730569603 0.753741327380284 H 0.0 **** 0.0
106 H25394 0.222556524636504 0.112251375667705 0.754227114055032 H 0.0 **** 0.0
107 H25396 0.226509866146836 0.138798986346276 0.669884002464897 H 0.0 **** 0.0
108 H25398 0.235896293869086 0.118635803519829 0.670608499079996 H 0.0 **** 0.0
109 H25400 0.247595107577965 0.136922516014105 0.67658623709171 H 0.0 **** 0.0
110 H25402 0.180880321310031 0.178635892547301 0.664557449067482 H 0.0 **** 0.0
111 H25404 0.173579975603903 0.157960165305876 0.659468280610704 H 0.0 **** 0.0
112 H25406 0.194862447515016 0.161585606972948 0.665017711408596 H 0.0 **** 0.0
113 H25408 0.138582478346461 0.179491077178313 0.683066649089779 H 0.0 **** 0.0
114 H25410 0.154023502373222 0.178110316234353 0.667445979524836 H 0.0 **** 0.0
115 H25412 0.155167453153628 0.194700944611407 0.682382900461814 H 0.0 **** 0.0
116 H25414 0.140009732224386 0.201167965301763 0.718327121864958 H 0.0 **** 0.0
117 H25416 0.0961814705185244 0.223950644618969 0.760315866528244 H 0.0 **** 0.0
118 H25418 0.113027449551248 0.228179086564287 0.746149498906396 H 0.0 **** 0.0
119 H25420 0.1160282959805 0.213509517631242 0.762947888641018 H 0.0 **** 0.0
120 H25422 0.0678088196973598 0.185846388110589 0.764806361589607 H 0.0 **** 0.0
121 H25424 0.0668160255853595 0.202632868366109 0.749663862240687 H 0.0 **** 0.0
122 H25426 0.0775642185465164 0.205587106786393 0.769309620930414 H 0.0 **** 0.0
123 H25428 0.112361374461795 0.166344211909428 0.804490027576524 H 0.0 **** 0.0
124 H25430 0.178436758771242 0.138650247828102 0.77340030906371 H 0.0 **** 0.0
125 H25432 0.101898155722665 0.162608855476037 0.924108089558179 H 0.0 **** 0.0
126 H25434 0.0903534359742847 0.181266280472497 0.920864811550716 H 0.0 **** 0.0
127 H25436 0.112631698071894 0.182307895845454 0.922042838103413 H 0.0 **** 0.0
128 H25438 0.071025238273883 0.186868075000038 0.90329115634134 H 0.0 **** 0.0
129 H25440 0.0706736358457705 0.196072984307852 0.882982480663899 H 0.0 **** 0.0
130 H25442 0.085006314057137 0.20377311611896 0.898405241366909 H 0.0 **** 0.0
@<TRIPOS>BOND
1 3 2 Aromatic
2 4 3 Aromatic
3 5 4 Aromatic
4 6 5 Aromatic
5 1 2 Aromatic
6 1 6 Aromatic
7 8 7 1
8 9 8 Aromatic
9 10 9 1
10 4 7 1
11 3 10 1
12 12 11 Aromatic
13 13 12 Aromatic
14 14 13 Aromatic
15 9 11 Aromatic
16 8 14 Aromatic
17 16 15 Aromatic
18 17 16 Aromatic
19 18 17 Aromatic
20 14 15 Aromatic
21 13 18 Aromatic
22 20 19 1
23 21 20 1
24 22 21 Aromatic
25 17 19 1
26 16 22 Aromatic
27 24 23 1
28 25 24 Aromatic
29 26 25 1
30 20 23 1
31 19 26 1
32 28 27 Aromatic
33 29 28 Aromatic
34 30 29 Aromatic
35 22 27 Aromatic
36 21 30 Aromatic
37 32 31 1
38 33 32 Aromatic
39 34 33 1
40 29 31 1
41 28 34 1
42 36 35 1
43 37 36 1
44 38 37 Aromatic
45 33 35 1
46 32 38 Aromatic
47 40 39 Aromatic
48 41 40 Aromatic
49 42 41 Aromatic
50 38 39 Aromatic
51 37 42 Aromatic
52 44 43 1
53 45 44 1
54 46 45 1
55 42 43 1
56 41 46 1
57 48 47 1
58 49 48 Aromatic
59 40 49 Aromatic
60 46 47 1
61 51 50 Aromatic
62 52 51 Aromatic
63 53 52 Aromatic
64 49 50 Aromatic
65 48 53 Aromatic
66 6 54 1
67 54 55 1
68 1 56 1
69 5 57 1
70 2 58 1
71 11 59 1
72 12 60 1
73 18 61 1
74 25 62 1
75 24 63 1
76 30 64 1
77 27 65 1
78 34 66 Double
79 31 67 Double
80 53 68 1
81 52 69 1
82 7 70 1
83 7 71 1
84 10 72 1
85 10 73 1
86 15 74 1
87 23 75 1
88 23 76 1
89 24 77 1
90 25 78 1
91 26 79 1
92 26 80 1
93 35 81 1
94 35 82 1
95 36 83 1
96 36 84 1
97 43 85 1
98 43 86 1
99 44 87 1
100 44 88 1
101 45 89 1
102 45 90 1
103 46 91 1
104 47 92 1
105 47 93 1
106 50 94 1
107 51 95 1
108 54 96 1
109 54 97 1
110 55 98 1
111 55 99 1
112 55 100 1
113 56 101 1
114 56 102 1
115 56 103 1
116 57 104 1
117 57 105 1
118 57 106 1
119 58 107 1
120 58 108 1
121 58 109 1
122 59 110 1
123 59 111 1
124 59 112 1
125 60 113 1
126 60 114 1
127 60 115 1
128 61 116 1
129 62 117 1
130 62 118 1
131 62 119 1
132 63 120 1
133 63 121 1
134 63 122 1
135 64 123 1
136 65 124 1
137 68 125 1
138 68 126 1
139 68 127 1
140 69 128 1
141 69 129 1
142 69 130 1
@<TRIPOS>MOLECULE
Sketch 4
130 142
SMALL
USER_CHARGES


@<TRIPOS>ATOM
1 C25444 0.725804226255502 0.377846140560768 0.413760655148243 C.Trigonal 0.0 **** 0.0
2 C25445 0.737997216418786 0.380228052482321 0.401431791647485 C 0.0 **** 0.0
3 C25446 0.75495900367172 0.378728874598646 0.405511865675401 C.Trigonal 0.0 **** 0.0
4 C25447 0.759677132712987 0.374162820976275 0.42162069000661 C.Trigonal 0.0 **** 0.0
5 C25448 0.747525072651602 0.371703665650259 0.434030375491764 C 0.0 **** 0.0
6 C25449 0.730563521464212 0.373341686877366 0.430013736024534 C 0.0 **** 0.0
7 C25456 0.778361397448168 0.371386408869298 0.425187248217736 C 0.0 **** 0.0
8 C25457 0.790125451640153 0.382665242860447 0.415030122236911 C.Trigonal 0.0 **** 0.0
9 C25458 0.785635396845761 0.38762380719683 0.399016432922931 C.Trigonal 0.0 **** 0.0
10 C25459 0.768499907119665 0.38198092896291 0.39215212142747 C 0.0 **** 0.0
11 C25465 0.796667653781295 0.397185418057398 0.389137374471856 C 0.0 **** 0.0
12 C25466 0.811542277901139 0.403653022714281 0.395806539246634 C 0.0 **** 0.0
13 C25467 0.815873210713217 0.399473756406831 0.412498634095756 C.Trigonal 0.0 **** 0.0
14 C25468 0.806043977569261 0.387231399716522 0.421148388777286 C.Trigonal 0.0 **** 0.0
15 C25474 0.813021713323449 0.379213505077455 0.435342829930111 C 0.0 **** 0.0
16 C25475 0.828732967771806 0.383965990403243 0.44170311865432 C.Trigonal 0.0 **** 0.0
17 C25476 0.834862996830953 0.399978789937329 0.436671948139728 C.Trigonal 0.0 **** 0.0
18 C25477 0.829794263662682 0.406889093824256 0.421260388920296 C 0.0 **** 0.0
19 C25483 0.847885035451705 0.408014093352757 0.448151363475231 C.Trigonal 0.0 **** 0.0
20 C25484 0.855488130829375 0.39835037978361 0.460220645937156 C.Trigonal 0.0 **** 0.0
21 C25485 0.853602904350413 0.379220407176218 0.459707451371002 C.Trigonal 0.0 **** 0.0
22 C25486 0.83990133640517 0.372675420077373 0.450352300455003 C.Trigonal 0.0 **** 0.0
23 C25492 0.864654213856424 0.40615369413653 0.475237910642255 C 0.0 **** 0.0
24 C25493 0.858456478046806 0.424322854339258 0.478425621471298 C 0.0 **** 0.0
25 C25494 0.859615973197993 0.434903786321235 0.462061678634576 C 0.0 **** 0.0
26 C25495 0.847884095073047 0.427327667267734 0.448483368758924 C 0.0 **** 0.0
27 C25501 0.838898060721835 0.354879769090551 0.447786206294556 C 0.0 **** 0.0
28 C25502 0.850315038171149 0.34436967499043 0.455772310958637 C.Trigonal 0.0 **** 0.0
29 C25503 0.862746785774686 0.350838662570654 0.466145224433145 C.Trigonal 0.0 **** 0.0
30 C25504 0.864905504835385 0.3682485500699 0.467654828365028 C 0.0 **** 0.0
31 C25510 0.873840997118473 0.33895494399735 0.47631352582337 C 0.0 **** 0.0
32 C25511 0.870113739987381 0.320637344966957 0.475370703342633 C.Trigonal 0.0 **** 0.0
33 C25512 0.859019028025484 0.314483484872512 0.463959422903101 C.Trigonal 0.0 **** 0.0
34 C25513 0.848966041553213 0.325604628886677 0.453117098963484 C 0.0 **** 0.0
35 C25519 0.856445703189744 0.295553683753218 0.462202506467999 C 0.0 **** 0.0
36 C25520 0.855263728016429 0.287488387859654 0.479910398398875 C 0.0 **** 0.0
37 C25521 0.869830063773315 0.293167850947415 0.491188116306268 C.Trigonal 0.0 **** 0.0
38 C25522 0.87811705387387 0.308747002490552 0.487928732279284 C.Trigonal 0.0 **** 0.0
39 N25528 0.890956343642225 0.314071473568091 0.497599452036074 N 0.0 **** 0.0
40 C25529 0.894120111422355 0.305623091765641 0.511919826645451 C.Trigonal 0.0 **** 0.0
41 C25530 0.885739541952829 0.290447810103552 0.516442336612319 C.Trigonal 0.0 **** 0.0
42 C25531 0.874142974688416 0.283912249773709 0.505382864066379 C.Trigonal 0.0 **** 0.0
43 C25537 0.864744746921567 0.267497152892051 0.50924871402775 C 0.0 **** 0.0
44 C25538 0.872233901864477 0.257715896886239 0.524228131644656 C 0.0 **** 0.0
45 C25539 0.876611951235616 0.269743515804181 0.538666147180487 C 0.0 **** 0.0
46 C25540 0.890653084419129 0.281745033503165 0.53282372535038 C 0.0 **** 0.0
47 C25546 0.895366759821133 0.295099444387654 0.546318754131708 C 0.0 **** 0.0
48 C25547 0.907865681466069 0.307790255456258 0.539155167794323 C.Trigonal 0.0 **** 0.0
49 C25548 0.906831987746959 0.312665059494155 0.522123509186959 C.Trigonal 0.0 **** 0.0
50 C25553 0.918273461054405 0.324775543686925 0.51568006989163 C 0.0 **** 0.0
51 C25554 0.929962640631816 0.331933371503045 0.5262410489772 C 0.0 **** 0.0
52 C25555 0.930418358387828 0.327877145678624 0.543261886012843 C 0.0 **** 0.0
53 C25556 0.91922551787012 0.315858915646673 0.549710192960475 C 0.0 **** 0.0
54 C25562 0.717077975798563 0.369913933133671 0.443281789421675 C 0.0 **** 0.0
55 C25564 0.713646348877647 0.385768014774427 0.453891175872425 C 0.0 **** 0.0
56 C25566 0.707217574278052 0.379892518715714 0.409429951639842 C 0.0 **** 0.0
57 C25568 0.753211359856918 0.367127288534805 0.451771573037191 C 0.0 **** 0.0
58 C25570 0.733189864321732 0.384462577652612 0.383383534136804 C 0.0 **** 0.0
59 C25572 0.792071828295885 0.400956685974555 0.370835610552525 C 0.0 **** 0.0
60 C25574 0.822325357918848 0.415186855913906 0.384917467046694 C 0.0 **** 0.0
61 O25576 0.838025511196919 0.420472480872276 0.414294183191052 O 0.0 **** 0.0
62 C25578 0.877738921007193 0.436276375756131 0.455032143893886 C 0.0 **** 0.0
63 C25580 0.868430588660537 0.432470994727859 0.493021098823341 C 0.0 **** 0.0
64 O25582 0.878111971024448 0.374944840220561 0.476795840952831 O 0.0 **** 0.0
65 O25584 0.826761274161409 0.348596796593485 0.437146792203761 O 0.0 **** 0.0
66 O25586 0.839437791945827 0.32014019287711 0.442391748254887 O 0.0 **** 0.0
67 O25588 0.88474989737191 0.345110008737452 0.485264368540479 O 0.0 **** 0.0
68 C25590 0.919539543334288 0.311798836124287 0.568393220816505 C 0.0 **** 0.0
69 C25592 0.943066353436811 0.336980153248668 0.554303379933359 C 0.0 **** 0.0
70 H25594 0.780824795190491 0.373538003448605 0.438648538114294 H 0.0 **** 0.0
71 H25596 0.781575017189592 0.357998096653373 0.422732789568303 H 0.0 **** 0.0
72 H25598 0.770146850100444 0.370575992368992 0.384241408533002 H 0.0 **** 0.0
73 H25600 0.763722526982677 0.392035394125577 0.383852524794913 H 0.0 **** 0.0
74 H25602 0.806554786493014 0.368130500124147 0.440579598097484 H 0.0 **** 0.0
75 H25604 0.862274523148393 0.398829989929 0.486859950953402 H 0.0 **** 0.0
76 H25606 0.878383599413314 0.406127838377071 0.473061650863242 H 0.0 **** 0.0
77 H25608 0.845071399708945 0.423765409248135 0.482270254209576 H 0.0 **** 0.0
78 H25610 0.855176929206148 0.447811298361763 0.464836112780134 H 0.0 **** 0.0
79 H25612 0.8516257886811 0.43280570675776 0.436281586002685 H 0.0 **** 0.0
80 H25614 0.834881581447046 0.431721005727363 0.450977581429232 H 0.0 **** 0.0
81 H25616 0.845022360728629 0.292244852523552 0.45494888537905 H 0.0 **** 0.0
82 H25618 0.86719805621341 0.290134386238182 0.455190014804647 H 0.0 **** 0.0
83 H25620 0.85501297919279 0.273670702000762 0.478363274460059 H 0.0 **** 0.0
84 H25622 0.843116925638821 0.291085950357085 0.485783014636358 H 0.0 **** 0.0
85 H25624 0.851473097900103 0.270616363129214 0.512199188018854 H 0.0 **** 0.0
86 H25626 0.864549359067791 0.259156058171838 0.49810059557931 H 0.0 **** 0.0
87 H25628 0.88384275184476 0.251137336568227 0.520200171248992 H 0.0 **** 0.0
88 H25630 0.863356361184582 0.247804728526022 0.528377908489721 H 0.0 **** 0.0
89 H25632 0.880780534335054 0.262685893382386 0.549944700075388 H 0.0 **** 0.0
90 H25634 0.865289171377746 0.276969367395378 0.542425768656947 H 0.0 **** 0.0
91 H25636 0.902013385690958 0.274034249044567 0.530560725701128 H 0.0 **** 0.0
92 H25638 0.883883399711293 0.30175730597831 0.550640283519232 H 0.0 **** 0.0
93 H25640 0.900557738561036 0.288433452726274 0.557368454365539 H 0.0 **** 0.0
94 H25642 0.917730247721074 0.328493977092746 0.502306250422599 H 0.0 **** 0.0
95 H25644 0.938926062588282 0.341268215930011 0.521229237123914 H 0.0 **** 0.0
96 H25646 0.720750877823515 0.359321680461304 0.451517338548893 H 0.0 **** 0.0
97 H25648 0.705220324169441 0.365554723859304 0.437457302742452 H 0.0 **** 0.0
98 H25650 0.704016108462602 0.383358497801215 0.46362506271858 H 0.0 **** 0.0
99 H25652 0.709038456195372 0.396218339137306 0.445945959089567 H 0.0 **** 0.0
100 H25654 0.725142676549021 0.390158303527675 0.460385445446129 H 0.0 **** 0.0
101 H25656 0.705084348629045 0.388916670523228 0.399128336862162 H 0.0 **** 0.0
102 H25658 0.699818250040031 0.384864225624314 0.420079200722787 H 0.0 **** 0.0
103 H25660 0.701590464882567 0.36772659421714 0.405617641153219 H 0.0 **** 0.0
104 H25662 0.762269663722524 0.376488417671392 0.456684032486273 H 0.0 **** 0.0
105 H25664 0.759360206396254 0.354654058985812 0.451954229376641 H 0.0 **** 0.0
106 H25666 0.743013488373791 0.366729435578134 0.461121926068011 H 0.0 **** 0.0
107 H25668 0.74138180471329 0.377879099312473 0.374274132004641 H 0.0 **** 0.0
108 H25670 0.734319654829359 0.398126920339497 0.380974353047474 H 0.0 **** 0.0
109 H25672 0.720282613441049 0.380606896078597 0.380161518146962 H 0.0 **** 0.0
110 H25674 0.781523763750668 0.393373534674694 0.366021318919993 H 0.0 **** 0.0
111 H25676 0.802648023388297 0.398017745490876 0.362271631997174 H 0.0 **** 0.0
112 H25678 0.788692751514773 0.414364965211622 0.369125312160637 H 0.0 **** 0.0
113 H25680 0.821573792499873 0.428379210842252 0.389347935646381 H 0.0 **** 0.0
114 H25682 0.818759788384405 0.415426435121898 0.371553230391246 H 0.0 **** 0.0
115 H25684 0.835676984020504 0.411258238487503 0.385098099812254 H 0.0 **** 0.0
116 H25686 0.84979462378046 0.419517187725177 0.416700297117866 H 0.0 **** 0.0
117 H25688 0.886158571496259 0.442356468728699 0.464250187214876 H 0.0 **** 0.0
118 H25690 0.877850626869767 0.44407096340527 0.443507843749972 H 0.0 **** 0.0
119 H25692 0.882804373708528 0.423758866706768 0.451787210836629 H 0.0 **** 0.0
120 H25694 0.86688529666686 0.425047584477436 0.504670908343618 H 0.0 **** 0.0
121 H25696 0.86381974056637 0.445361802584038 0.495459611372971 H 0.0 **** 0.0
122 H25698 0.881990208566104 0.433107508895219 0.49013552434045 H 0.0 **** 0.0
123 H25700 0.883515340842398 0.365900559695206 0.482740290266949 H 0.0 **** 0.0
124 H25702 0.829071995800495 0.336904338567032 0.435039029753951 H 0.0 **** 0.0
125 H25704 0.906798571861754 0.309686216442791 0.573531574987538 H 0.0 **** 0.0
126 H25706 0.924836368304068 0.322224731427598 0.5758218503326 H 0.0 **** 0.0
127 H25708 0.927166604687088 0.300436625245506 0.570999571948018 H 0.0 **** 0.0
128 H25710 0.936761296528307 0.34543843381095 0.563389883993095 H 0.0 **** 0.0
129 H25712 0.951743490491861 0.34475388369727 0.546789311467154 H 0.0 **** 0.0
130 H25714 0.950891695973173 0.328002974327555 0.561433196100828 H 0.0 **** 0.0
@<TRIPOS>BOND
1 3 2 Aromatic
2 4 3 Aromatic
3 5 4 Aromatic
4 6 5 Aromatic
5 1 2 Aromatic
6 1 6 Aromatic
7 8 7 1
8 9 8 Aromatic
9 10 9 1
10 4 7 1
11 3 10 1
12 12 11 Aromatic
13 13 12 Aromatic
14 14 13 Aromatic
15 9 11 Aromatic
16 8 14 Aromatic
17 16 15 Aromatic
18 17 16 Aromatic
19 18 17 Aromatic
20 14 15 Aromatic
21 13 18 Aromatic
22 20 19 1
23 21 20 1
24 22 21 Aromatic
25 17 19 1
26 16 22 Aromatic
27 24 23 1
28 25 24 Aromatic
29 26 25 1
30 20 23 1
31 19 26 1
32 28 27 Aromatic
33 29 28 Aromatic
34 30 29 Aromatic
35 22 27 Aromatic
36 21 30 Aromatic
37 32 31 1
38 33 32 Aromatic
39 34 33 1
40 29 31 1
41 28 34 1
42 36 35 1
43 37 36 1
44 38 37 Aromatic
45 33 35 1
46 32 38 Aromatic
47 40 39 Aromatic
48 41 40 Aromatic
49 42 41 Aromatic
50 38 39 Aromatic
51 37 42 Aromatic
52 44 43 1
53 45 44 1
54 46 45 1
55 42 43 1
56 41 46 1
57 48 47 1
58 49 48 Aromatic
59 40 49 Aromatic
60 46 47 1
61 51 50 Aromatic
62 52 51 Aromatic
63 53 52 Aromatic
64 49 50 Aromatic
65 48 53 Aromatic
66 6 54 1
67 54 55 1
68 1 56 1
69 5 57 1
70 2 58 1
71 11 59 1
72 12 60 1
73 18 61 1
74 25 62 1
75 24 63 1
76 30 64 1
77 27 65 1
78 34 66 Double
79 31 67 Double
80 53 68 1
81 52 69 1
82 7 70 1
83 7 71 1
84 10 72 1
85 10 73 1
86 15 74 1
87 23 75 1
88 23 76 1
89 24 77 1
90 25 78 1
91 26 79 1
92 26 80 1
93 35 81 1
94 35 82 1
95 36 83 1
96 36 84 1
97 43 85 1
98 43 86 1
99 44 87 1
100 44 88 1
101 45 89 1
102 45 90 1
103 46 91 1
104 47 92 1
105 47 93 1
106 50 94 1
107 51 95 1
108 54 96 1
109 54 97 1
110 55 98 1
111 55 99 1
112 55 100 1
113 56 101 1
114 56 102 1
115 56 103 1
116 57 104 1
117 57 105 1
118 57 106 1
119 58 107 1
120 58 108 1
121 58 109 1
122 59 110 1
123 59 111 1
124 59 112 1
125 60 113 1
126 60 114 1
127 60 115 1
128 61 116 1
129 62 117 1
130 62 118 1
131 62 119 1
132 63 120 1
133 63 121 1
134 63 122 1
135 64 123 1
136 65 124 1
137 68 125 1
138 68 126 1
139 68 127 1
140 69 128 1
141 69 129 1
142 69 130 1
@<TRIPOS>MOLECULE
Sketch 4
130 142
SMALL
USER_CHARGES


@<TRIPOS>ATOM
1 C25716 0.263135760185488 0.114667250425535 0.334034577934754 C.Trigonal 0.0 **** 0.0
2 C25717 0.250196700621839 0.113343693750372 0.322301733674796 C 0.0 **** 0.0
3 C25718 0.253263785473233 0.105318733103988 0.307098773604419 C.Trigonal 0.0 **** 0.0
4 C25719 0.2690923577465 0.0989084592357861 0.303526511672723 C.Trigonal 0.0 **** 0.0
5 C25720 0.281897867034344 0.0997486274177248 0.315383853835543 C 0.0 **** 0.0
6 C25721 0.278684528372484 0.107132470694169 0.330924356495115 C 0.0 **** 0.0
7 C25728 0.271498780536003 0.0909606726945091 0.286188155374935 C 0.0 **** 0.0
8 C25729 0.263338990508471 0.102130387603183 0.272982511469426 C.Trigonal 0.0 **** 0.0
9 C25730 0.247401582861864 0.108186476862793 0.276441523984244 C.Trigonal 0.0 **** 0.0
10 C25731 0.239884423500409 0.103352207748557 0.29345214368225 C 0.0 **** 0.0
11 C25737 0.238588060000222 0.117931326193003 0.264758636038238 C 0.0 **** 0.0
12 C25738 0.246435265200876 0.123558994115156 0.250167309738912 C 0.0 **** 0.0
13 C25739 0.263574054275367 0.119898320836475 0.248064309365348 C.Trigonal 0.0 **** 0.0
14 C25740 0.270970209545776 0.106789359571856 0.257752082290678 C.Trigonal 0.0 **** 0.0
15 C25746 0.286358743646803 0.100009251082552 0.252239038031127 C 0.0 **** 0.0
16 C25747 0.295304170586846 0.10764888672688 0.239101032484004 C.Trigonal 0.0 **** 0.0
17 C25748 0.29092275295784 0.124559432856635 0.235371875733744 C.Trigonal 0.0 **** 0.0
18 C25749 0.274623944844435 0.130369360214914 0.238287501315666 C 0.0 **** 0.0
19 C25755 0.304157974360529 0.135175617227203 0.226869668768328 C.Trigonal 0.0 **** 0.0
20 C25756 0.316904983661226 0.127272366015597 0.21857390581269 C.Trigonal 0.0 **** 0.0
21 C25757 0.316292326474184 0.108266349785047 0.216273023984091 C.Trigonal 0.0 **** 0.0
22 C25758 0.306168595431745 0.0988610398746631 0.227553753124679 C.Trigonal 0.0 **** 0.0
23 C25764 0.333507709972111 0.136208238156594 0.214741376531645 C 0.0 **** 0.0
24 C25765 0.336517142160934 0.150260421874813 0.227861812974809 C 0.0 **** 0.0
25 C25766 0.321441341510976 0.162642489475778 0.228032875468052 C 0.0 **** 0.0
26 C25767 0.305074322724074 0.153371098120627 0.233197463326982 C 0.0 **** 0.0
27 C25773 0.30559144540137 0.0809691415584229 0.225786130726879 C 0.0 **** 0.0
28 C25774 0.315626694606061 0.0731879511800852 0.213795370842436 C.Trigonal 0.0 **** 0.0
29 C25775 0.325629431325528 0.0826243343414452 0.203003585113172 C.Trigonal 0.0 **** 0.0
30 C25776 0.325578705747173 0.100189821922316 0.203741507837767 C 0.0 **** 0.0
31 C25782 0.336749170011346 0.0739937730018305 0.190147867433549 C 0.0 **** 0.0
32 C25783 0.336127546480655 0.0553923416231375 0.189231153132932 C.Trigonal 0.0 **** 0.0
33 C25784 0.326196545103023 0.0461525651113918 0.199627917499363 C.Trigonal 0.0 **** 0.0
34 C25785 0.315401028220279 0.0541581632923955 0.212454177122159 C 0.0 **** 0.0
35 C25791 0.325854418070138 0.0269699841073169 0.198430830382768 C 0.0 **** 0.0
36 C25792 0.343427308806976 0.0201616532030882 0.193108046109901 C 0.0 **** 0.0
37 C25793 0.350105052137754 0.0292801593168318 0.177548838434451 C.Trigonal 0.0 **** 0.0
38 C25794 0.346760392703366 0.0467930515793147 0.176095795750573 C.Trigonal 0.0 **** 0.0
39 N25800 0.352549464627174 0.0559317252323284 0.163171002597507 N 0.0 **** 0.0
40 C25801 0.362241015584687 0.0483299829672083 0.151601484035726 C.Trigonal 0.0 **** 0.0
41 C25802 0.365654508223035 0.0307719108537186 0.151903866619965 C.Trigonal 0.0 **** 0.0
42 C25803 0.359508499244619 0.0213540165506906 0.165137863285488 C.Trigonal 0.0 **** 0.0
43 C25809 0.363346614025787 0.00249841710567313 0.166515792011069 C 0.0 **** 0.0
44 C25810 0.369829096243045 -0.00510181109419764 0.14990411704672 C 0.0 **** 0.0
45 C25811 0.383147872833975 0.00635260420803872 0.141978416676587 C 0.0 **** 0.0
46 C25812 0.375054004458442 0.0231918970925179 0.136995179535071 C 0.0 **** 0.0
47 C25818 0.388039049667899 0.0360222901591423 0.129890871336301 C 0.0 **** 0.0
48 C25819 0.379693358047024 0.0530484993278242 0.126939124240433 C.Trigonal 0.0 **** 0.0
49 C25820 0.367695938774508 0.059019718660285 0.138529790998412 C.Trigonal 0.0 **** 0.0
50 C25825 0.360682743879034 0.0753227329671252 0.136377436834447 C 0.0 **** 0.0
51 C25826 0.364979449705328 0.0847537666630863 0.122515120239438 C 0.0 **** 0.0
52 C25827 0.376502214940456 0.0787459384694824 0.110797989105302 C 0.0 **** 0.0
53 C25828 0.384140905283785 0.0630236492431597 0.113274970959708 C 0.0 **** 0.0
54 C25834 0.29208883250396 0.106869181279495 0.34469261853602 C 0.0 **** 0.0
55 C25836 0.304671072084591 0.121416559763098 0.342619593651316 C 0.0 **** 0.0
56 C25838 0.26016796642125 0.123968053177764 0.350544611128536 C 0.0 **** 0.0
57 C25840 0.299084470128578 0.0926401762597246 0.310806827712626 C 0.0 **** 0.0
58 C25842 0.232718661313399 0.12039891495013 0.325750642524039 C 0.0 **** 0.0
59 C25844 0.220411962634723 0.122248979808203 0.268726968749744 C 0.0 **** 0.0
60 C25846 0.23681141761754 0.134368370516506 0.237727813160671 C 0.0 **** 0.0
61 O25848 0.268886431773571 0.145506866020753 0.23229380171302 O 0.0 **** 0.0
62 C25850 0.318759718999613 0.17157497624847 0.21095803582877 C 0.0 **** 0.0
63 C25852 0.353325064181792 0.159405605044236 0.22437941933172 C 0.0 **** 0.0
64 O25854 0.334487224778475 0.110012486785104 0.192439131030339 O 0.0 **** 0.0
65 O25856 0.294934428156911 0.0718363097728187 0.235924930823905 O 0.0 **** 0.0
66 O25858 0.3064189504751 0.0459296244331918 0.221842778866249 O 0.0 **** 0.0
67 O25860 0.345922590101892 0.082772918749668 0.181450598400198 O 0.0 **** 0.0
68 C25862 0.397302165738491 0.0568193718424958 0.100884260303586 C 0.0 **** 0.0
69 C25864 0.380368696013802 0.089752644374409 0.0956810616756839 C 0.0 **** 0.0
70 H25866 0.284911219310215 0.0891721975349002 0.283416671803724 H 0.0 **** 0.0
71 H25868 0.265775484370308 0.0782100591815209 0.285934790231121 H 0.0 **** 0.0
72 H25870 0.235371948420435 0.0901242522165208 0.293073664268815 H 0.0 **** 0.0
73 H25872 0.22876892864879 0.110995566302272 0.296338697330147 H 0.0 **** 0.0
74 H25874 0.290995374957517 0.0883999704323244 0.25817830731084 H 0.0 **** 0.0
75 H25876 0.344310557748072 0.127442912748823 0.215431666861035 H 0.0 **** 0.0
76 H25878 0.333380125392728 0.141476718152109 0.201861700542091 H 0.0 **** 0.0
77 H25880 0.337450415358952 0.144406723466946 0.240481300369716 H 0.0 **** 0.0
78 H25882 0.324009562686789 0.172454277332817 0.237569485848276 H 0.0 **** 0.0
79 H25884 0.294243533515504 0.160958607881299 0.228931121128271 H 0.0 **** 0.0
80 H25886 0.304498567411 0.153159718403679 0.247140470031889 H 0.0 **** 0.0
81 H25888 0.322286729499641 0.0209799921492936 0.21053382882051 H 0.0 **** 0.0
82 H25890 0.316242225901598 0.0230586607121025 0.189130726495137 H 0.0 **** 0.0
83 H25892 0.342421751141053 0.00643772012138177 0.19129704857842 H 0.0 **** 0.0
84 H25894 0.352303607360002 0.0219949830306803 0.2036842913049 H 0.0 **** 0.0
85 H25896 0.373037089532778 0.000599387784502258 0.176383605228474 H 0.0 **** 0.0
86 H25898 0.352096718506032 -0.0046539262512421 0.170486301191672 H 0.0 **** 0.0
87 H25900 0.359233990115539 -0.00654959992996997 0.14094353368594 H 0.0 **** 0.0
88 H25902 0.374856341932585 -0.017911002214507 0.152126280769436 H 0.0 **** 0.0
89 H25904 0.388578592394526 0.000376252879261926 0.130676639333114 H 0.0 **** 0.0
90 H25906 0.393610436489295 0.00843184399591516 0.15096300171513 H 0.0 **** 0.0
91 H25908 0.365766466605715 0.0205554926502474 0.126855131901425 H 0.0 **** 0.0
92 H25910 0.398645378685734 0.0374521834771119 0.138863568281942 H 0.0 **** 0.0
93 H25912 0.3934268695119 0.0307277899340363 0.118228963108586 H 0.0 **** 0.0
94 H25914 0.351337046342288 0.0802287992160763 0.145412138819001 H 0.0 **** 0.0
95 H25916 0.359248105185441 0.0972752949369707 0.120695254504314 H 0.0 **** 0.0
96 H25918 0.298830338729201 0.0946881063471047 0.344829193809173 H 0.0 **** 0.0
97 H25920 0.286327553421739 0.107554932822472 0.357338762660442 H 0.0 **** 0.0
98 H25922 0.298195051956298 0.133675915839354 0.343439479832926 H 0.0 **** 0.0
99 H25924 0.31122068855844 0.120842481730277 0.33036310468038 H 0.0 **** 0.0
100 H25926 0.314312599309798 0.12110979829046 0.352628412481792 H 0.0 **** 0.0
101 H25928 0.251116026906378 0.134409114929217 0.349181260876352 H 0.0 **** 0.0
102 H25930 0.27173038207277 0.129942322368016 0.355393137665681 H 0.0 **** 0.0
103 H25932 0.255392133678404 0.115346089442275 0.360370561554783 H 0.0 **** 0.0
104 H25934 0.307969954980319 0.0918406325142931 0.321385523870082 H 0.0 **** 0.0
105 H25936 0.305213645603862 0.100541690306851 0.301096218429351 H 0.0 **** 0.0
106 H25938 0.297933397165626 0.0797863509181276 0.305650432123877 H 0.0 **** 0.0
107 H25940 0.222809262877697 0.111263974542602 0.322283563907091 H 0.0 **** 0.0
108 H25942 0.230465709756733 0.132010048152382 0.318426018959289 H 0.0 **** 0.0
109 H25944 0.230421960231152 0.123385899822206 0.339082823301639 H 0.0 **** 0.0
110 H25946 0.219501450970695 0.129843342813743 0.280354517301512 H 0.0 **** 0.0
111 H25948 0.213022667066997 0.110602421842269 0.270640881009227 H 0.0 **** 0.0
112 H25950 0.213942653272785 0.129473582185945 0.258866804990752 H 0.0 **** 0.0
113 H25952 0.242604681661289 0.134367295662442 0.225113054024109 H 0.0 **** 0.0
114 H25954 0.235786101371854 0.147564274462849 0.242009176416134 H 0.0 **** 0.0
115 H25956 0.224070967296609 0.129369514650715 0.235660904391313 H 0.0 **** 0.0
116 H25958 0.27648096508175 0.149604469776516 0.223941519473475 H 0.0 **** 0.0
117 H25960 0.33018102650466 0.178482824672671 0.20711518817839 H 0.0 **** 0.0
118 H25962 0.308421990042744 0.180782375188969 0.212091394703077 H 0.0 **** 0.0
119 H25964 0.315391141406624 0.162527716365724 0.200954549228365 H 0.0 **** 0.0
120 H25966 0.363967935731803 0.150643585669666 0.226142492843615 H 0.0 **** 0.0
121 H25968 0.355004884144894 0.170025152664227 0.233202642539668 H 0.0 **** 0.0
122 H25970 0.353778344185631 0.164292542519045 0.211376394030294 H 0.0 **** 0.0
123 H25972 0.341316882853932 0.102829385764574 0.185517303972147 H 0.0 **** 0.0
124 H25974 0.295926531887133 0.0600914090098193 0.233270705709753 H 0.0 **** 0.0
125 H25976 0.408545402178361 0.0519853107520122 0.107493616334195 H 0.0 **** 0.0
126 H25978 0.401832908713027 0.0667945213117218 0.0924324725372128 H 0.0 **** 0.0
127 H25980 0.392199909986314 0.0466105002919708 0.0929055731587048 H 0.0 **** 0.0
128 H25982 0.393871066572845 0.0929400880354469 0.0951088743924898 H 0.0 **** 0.0
129 H25984 0.373404308937391 0.101760033656518 0.0960805105642176 H 0.0 **** 0.0
130 H25986 0.376919691745071 0.0834037702538741 0.0837801098348962 H 0.0 **** 0.0
@<TRIPOS>BOND
1 3 2 Aromatic
2 4 3 Aromatic
3 5 4 Aromatic
4 6 5 Aromatic
5 1 2 Aromatic
6 1 6 Aromatic
7 8 7 1
8 9 8 Aromatic
9 10 9 1
10 4 7 1
11 3 10 1
12 12 11 Aromatic
13 13 12 Aromatic
14 14 13 Aromatic
15 9 11 Aromatic
16 8 14 Aromatic
17 16 15 Aromatic
18 17 16 Aromatic
19 18 17 Aromatic
20 14 15 Aromatic
21 13 18 Aromatic
22 20 19 1
23 21 20 1
24 22 21 Aromatic
25 17 19 1
26 16 22 Aromatic
27 24 23 1
28 25 24 Aromatic
29 26 25 1
30 20 23 1
31 19 26 1
32 28 27 Aromatic
33 29 28 Aromatic
34 30 29 Aromatic
35 22 27 Aromatic
36 21 30 Aromatic
37 32 31 1
38 33 32 Aromatic
39 34 33 1
40 29 31 1
41 28 34 1
42 36 35 1
43 37 36 1
44 38 37 Aromatic
45 33 35 1
46 32 38 Aromatic
47 40 39 Aromatic
48 41 40 Aromatic
49 42 41 Aromatic
50 38 39 Aromatic
51 37 42 Aromatic
52 44 43 1
53 45 44 1
54 46 45 1
55 42 43 1
56 41 46 1
57 48 47 1
58 49 48 Aromatic
59 40 49 Aromatic
60 46 47 1
61 51 50 Aromatic
62 52 51 Aromatic
63 53 52 Aromatic
64 49 50 Aromatic
65 48 53 Aromatic
66 6 54 1
67 54 55 1
68 1 56 1
69 5 57 1
70 2 58 1
71 11 59 1
72 12 60 1
73 18 61 1
74 25 62 1
75 24 63 1
76 30 64 1
77 27 65 1
78 34 66 Double
79 31 67 Double
80 53 68 1
81 52 69 1
82 7 70 1
83 7 71 1
84 10 72 1
85 10 73 1
86 15 74 1
87 23 75 1
88 23 76 1
89 24 77 1
90 25 78 1
91 26 79 1
92 26 80 1
93 35 81 1
94 35 82 1
95 36 83 1
96 36 84 1
97 43 85 1
98 43 86 1
99 44 87 1
100 44 88 1
101 45 89 1
102 45 90 1
103 46 91 1
104 47 92 1
105 47 93 1
106 50 94 1
107 51 95 1
108 54 96 1
109 54 97 1
110 55 98 1
111 55 99 1
112 55 100 1
113 56 101 1
114 56 102 1
115 56 103 1
116 57 104 1
117 57 105 1
118 57 106 1
119 58 107 1
120 58 108 1
121 58 109 1
122 59 110 1
123 59 111 1
124 59 112 1
125 60 113 1
126 60 114 1
127 60 115 1
128 61 116 1
129 62 117 1
130 62 118 1
131 62 119 1
132 63 120 1
133 63 121 1
134 63 122 1
135 64 123 1
136 65 124 1
137 68 125 1
138 68 126 1
139 68 127 1
140 69 128 1
141 69 129 1
142 69 130 1
@<TRIPOS>MOLECULE
Sketch 4
130 142
SMALL
USER_CHARGES


@<TRIPOS>ATOM
1 C25988 0.704345902777097 0.450483725094842 0.366876165023402 C.Trigonal 0.0 **** 0.0
2 C25989 0.701297603870355 0.467133732617646 0.371273482083767 C 0.0 **** 0.0
3 C25990 0.693687222750391 0.470887342671766 0.386606490810057 C.Trigonal 0.0 **** 0.0
4 C25991 0.68866522523327 0.458129284107609 0.397300833670675 C.Trigonal 0.0 **** 0.0
5 C25992 0.69213817740919 0.441458843889007 0.393146356611822 C 0.0 **** 0.0
6 C25993 0.700447839287648 0.437730364709183 0.378165413883931 C 0.0 **** 0.0
7 C26000 0.680023892464142 0.462232538639385 0.414024869360907 C 0.0 **** 0.0
8 C26001 0.675092260771183 0.480509005223647 0.417373278912718 C.Trigonal 0.0 **** 0.0
9 C26002 0.680769980878714 0.493177890734252 0.407055695806851 C.Trigonal 0.0 **** 0.0
10 C26003 0.691562097236915 0.489268410942704 0.391616166734765 C 0.0 **** 0.0
11 C26009 0.676924523609809 0.510030100773972 0.410431587264254 C 0.0 **** 0.0
12 C26010 0.665490866800981 0.514445819996565 0.422895308112857 C 0.0 **** 0.0
13 C26011 0.659698493033566 0.501743858705977 0.433881466574567 C.Trigonal 0.0 **** 0.0
14 C26012 0.665486001912379 0.48492122804507 0.431592599314295 C.Trigonal 0.0 **** 0.0
15 C26018 0.662153958205748 0.473062675407758 0.444234534716069 C 0.0 **** 0.0
16 C26019 0.654160939315855 0.477347282204173 0.459407887980408 C.Trigonal 0.0 **** 0.0
17 C26020 0.645358263268186 0.492996965152394 0.459902436062385 C.Trigonal 0.0 **** 0.0
18 C26021 0.648662138238326 0.50523810306758 0.447716267187852 C 0.0 **** 0.0
19 C26027 0.633785238158279 0.496232410158223 0.47501795648447 C.Trigonal 0.0 **** 0.0
20 C26028 0.632756864810447 0.484558142958422 0.487536083272407 C.Trigonal 0.0 **** 0.0
21 C26029 0.641641273985997 0.4677422368035 0.486109238728389 C.Trigonal 0.0 **** 0.0
22 C26030 0.654405742290411 0.466316975217034 0.473888029240759 C.Trigonal 0.0 **** 0.0
23 C26036 0.623968286515355 0.48936241437685 0.503920409080928 C 0.0 **** 0.0
24 C26037 0.606573028037167 0.496252034157415 0.499176321401268 C 0.0 **** 0.0
25 C26038 0.608525989684942 0.512911208339306 0.489037066814613 C 0.0 **** 0.0
26 C26039 0.623151323909456 0.512483708055048 0.475838030334122 C 0.0 **** 0.0
27 C26045 0.665321236091099 0.45217717293556 0.474942794328934 C 0.0 **** 0.0
28 C26046 0.660479088681528 0.438383454849569 0.484593140712251 C.Trigonal 0.0 **** 0.0
29 C26047 0.64523625049075 0.438377455592596 0.493131273816539 C.Trigonal 0.0 **** 0.0
30 C26048 0.635644242018742 0.453093353112394 0.494056459142883 C 0.0 **** 0.0
31 C26054 0.638883815961932 0.422425227767971 0.501565909560776 C 0.0 **** 0.0
32 C26055 0.649741846803082 0.407282618334049 0.500956481149259 C.Trigonal 0.0 **** 0.0
33 C26056 0.665325870033532 0.407982612998081 0.493927568007121 C.Trigonal 0.0 **** 0.0
34 C26057 0.671737463422722 0.423118415446877 0.485256567162156 C 0.0 **** 0.0
35 C26063 0.676900832737407 0.392756004389581 0.494581753291778 C 0.0 **** 0.0
36 C26064 0.666793067899016 0.376509247500306 0.490987172770598 C 0.0 **** 0.0
37 C26065 0.65070522158532 0.375581915827449 0.501475832133935 C.Trigonal 0.0 **** 0.0
38 C26066 0.642988592639111 0.390619391271074 0.507532425439188 C.Trigonal 0.0 **** 0.0
39 N26072 0.629227175726946 0.390093827997606 0.517520653503732 N 0.0 **** 0.0
40 C26073 0.621470727591116 0.375129287720957 0.519755275744422 C.Trigonal 0.0 **** 0.0
41 C26074 0.627669793962987 0.359988739477975 0.512618327486379 C.Trigonal 0.0 **** 0.0
42 C26075 0.642915238712654 0.360284514241642 0.504413674312553 C.Trigonal 0.0 **** 0.0
43 C26081 0.650396693150348 0.343488869758083 0.498837538489754 C 0.0 **** 0.0
44 C26082 0.637161201432713 0.332023387481215 0.490397238826924 C 0.0 **** 0.0
45 C26083 0.619403070756467 0.333317197240554 0.498394476185247 C 0.0 **** 0.0
46 C26084 0.618571015620924 0.343361828404151 0.515039665597813 C 0.0 **** 0.0
47 C26090 0.599688129167626 0.345886009335223 0.519954897906918 C 0.0 **** 0.0
48 C26091 0.596821877672316 0.36096916718865 0.531414500042289 C.Trigonal 0.0 **** 0.0
49 C26092 0.607311018931175 0.37528884400177 0.530541335761555 C.Trigonal 0.0 **** 0.0
50 C26097 0.603444222938043 0.389458605309254 0.540721552148001 C 0.0 **** 0.0
51 C26098 0.589689962241965 0.38899090572763 0.551252465480099 C 0.0 **** 0.0
52 C26099 0.579204358534032 0.375002714587279 0.55193604350308 C 0.0 **** 0.0
53 C26100 0.582699837349427 0.361066795069378 0.541770086271453 C 0.0 **** 0.0
54 C26106 0.705707343297317 0.419693393767889 0.374361163887713 C 0.0 **** 0.0
55 C26108 0.692027652048536 0.410208047881918 0.364549931451013 C 0.0 **** 0.0
56 C26110 0.712664301025088 0.446615213914511 0.350027733910383 C 0.0 **** 0.0
57 C26112 0.687428099565337 0.427181027665865 0.405078651541936 C 0.0 **** 0.0
58 C26114 0.706757911453411 0.48116669618923 0.35936866357181 C 0.0 **** 0.0
59 C26116 0.685353020024269 0.523308758863606 0.399353797515964 C 0.0 **** 0.0
60 C26118 0.660039799187056 0.532787330424047 0.424090768169283 C 0.0 **** 0.0
61 O26120 0.642023404225626 0.521160845701563 0.449032687732695 O 0.0 **** 0.0
62 C26122 0.61092195441718 0.528337793125308 0.500725121786194 C 0.0 **** 0.0
63 C26124 0.595696320182892 0.498437126192652 0.515121589609864 C 0.0 **** 0.0
64 O26126 0.620425322395268 0.453649058703269 0.502420344862147 O 0.0 **** 0.0
65 O26128 0.679985370474934 0.452169184212984 0.465630171923679 O 0.0 **** 0.0
66 O26130 0.685602499749436 0.423567986912555 0.478609767882165 O 0.0 **** 0.0
67 O26132 0.624941320552135 0.42264768805565 0.508020037348777 O 0.0 **** 0.0
68 C26134 0.570869947017697 0.345983030139995 0.541921108287717 C 0.0 **** 0.0
69 C26136 0.564031571478252 0.375716641580065 0.563529025023903 C 0.0 **** 0.0
70 H26138 0.668362477394756 0.45463827098855 0.414798798375397 H 0.0 **** 0.0
71 H26140 0.688297476372712 0.4579498311552 0.424427517461637 H 0.0 **** 0.0
72 H26142 0.704341991623702 0.494471135231745 0.393712154886979 H 0.0 **** 0.0
73 H26144 0.686086653723935 0.496110221176482 0.380775525352363 H 0.0 **** 0.0
74 H26146 0.667062408280206 0.460249315654819 0.442472802476666 H 0.0 **** 0.0
75 H26148 0.622686117202066 0.479242820554455 0.513303358665802 H 0.0 **** 0.0
76 H26150 0.631361423762555 0.499270418580271 0.51026587391423 H 0.0 **** 0.0
77 H26152 0.60033949751798 0.486870376687607 0.491058280261718 H 0.0 **** 0.0
78 H26154 0.596637036351364 0.514949423406902 0.482088014748757 H 0.0 **** 0.0
79 H26156 0.631562478438552 0.523254184255737 0.478375249581397 H 0.0 **** 0.0
80 H26158 0.61716791821438 0.514607733613953 0.463438297343102 H 0.0 **** 0.0
81 H26160 0.687603342045292 0.393571680035736 0.485674835701406 H 0.0 **** 0.0
82 H26162 0.682493022585182 0.392090440654154 0.507315507111473 H 0.0 **** 0.0
83 H26164 0.675093823855587 0.365715535141773 0.493632602304242 H 0.0 **** 0.0
84 H26166 0.663694925595212 0.375877963283982 0.477419834241553 H 0.0 **** 0.0
85 H26168 0.661101443270081 0.344848849768513 0.490133305259168 H 0.0 **** 0.0
86 H26170 0.655403042001277 0.337010749524769 0.510121711557884 H 0.0 **** 0.0
87 H26172 0.641638342564529 0.318835260043409 0.49071387960925 H 0.0 **** 0.0
88 H26174 0.636196297170099 0.335285086335266 0.476884854505741 H 0.0 **** 0.0
89 H26176 0.613971302723401 0.320635757976147 0.500213968278502 H 0.0 **** 0.0
90 H26178 0.611022078658088 0.339629233946936 0.489202948418411 H 0.0 **** 0.0
91 H26180 0.624935545096519 0.336414690771749 0.525247018094017 H 0.0 **** 0.0
92 H26182 0.592160195246543 0.347739907638014 0.508337055856307 H 0.0 **** 0.0
93 H26184 0.595166960462511 0.334054262639138 0.525692997349318 H 0.0 **** 0.0
94 H26186 0.611499570533514 0.400756538670318 0.540310184087924 H 0.0 **** 0.0
95 H26188 0.586684222870562 0.399860081769842 0.559314935827892 H 0.0 **** 0.0
96 H26190 0.70860825110153 0.41287141311423 0.386106420582674 H 0.0 **** 0.0
97 H26192 0.717642850250458 0.419436494619573 0.367198541987879 H 0.0 **** 0.0
98 H26194 0.68969347909575 0.416159268004339 0.352218416658039 H 0.0 **** 0.0
99 H26196 0.680039688977064 0.409951470970674 0.371571818832004 H 0.0 **** 0.0
100 H26198 0.695826410958131 0.397071778450847 0.362204780320891 H 0.0 **** 0.0
101 H26200 0.70813902570805 0.455125152348131 0.339998708823731 H 0.0 **** 0.0
102 H26202 0.709982944967545 0.433811279628776 0.345433521059126 H 0.0 **** 0.0
103 H26204 0.726505459475504 0.447967780451196 0.350853648413618 H 0.0 **** 0.0
104 H26206 0.679786458388887 0.431178425372103 0.415915803672843 H 0.0 **** 0.0
105 H26208 0.698774983121028 0.421100660145636 0.410354696228041 H 0.0 **** 0.0
106 H26210 0.680016279439489 0.417380509694313 0.398557514132272 H 0.0 **** 0.0
107 H26212 0.709130557105519 0.493195681283596 0.365852056612615 H 0.0 **** 0.0
108 H26214 0.697104989057967 0.483513995669876 0.349613273370503 H 0.0 **** 0.0
109 H26216 0.718662743235761 0.478105685597223 0.352874782832106 H 0.0 **** 0.0
110 H26218 0.68729731352363 0.535420895023132 0.405835024723661 H 0.0 **** 0.0
111 H26220 0.678014575195128 0.525479152063538 0.387753804073139 H 0.0 **** 0.0
112 H26222 0.698149911083984 0.519581827197936 0.395463051435348 H 0.0 **** 0.0
113 H26224 0.646198834427159 0.533986875745617 0.423068804982181 H 0.0 **** 0.0
114 H26226 0.664927290077544 0.540868657203855 0.414032205750445 H 0.0 **** 0.0
115 H26228 0.664132796686808 0.538583641622959 0.436040306590829 H 0.0 **** 0.0
116 H26230 0.638936066074547 0.522748199361202 0.460486626932322 H 0.0 **** 0.0
117 H26232 0.599478019725949 0.530649195704803 0.508267665241517 H 0.0 **** 0.0
118 H26234 0.613378209122895 0.539816941157714 0.493274992050936 H 0.0 **** 0.0
119 H26236 0.621572618208201 0.526342927808848 0.509393300986858 H 0.0 **** 0.0
120 H26238 0.593335197251101 0.486097707518915 0.521073693614315 H 0.0 **** 0.0
121 H26240 0.583467895407243 0.504183613535938 0.511925223090968 H 0.0 **** 0.0
122 H26242 0.602122795726177 0.506535476672835 0.524372109991258 H 0.0 **** 0.0
123 H26244 0.617499390895077 0.442466470638673 0.505911804530816 H 0.0 **** 0.0
124 H26246 0.686905197916966 0.44289513377315 0.469110754204071 H 0.0 **** 0.0
125 H26248 0.567551654435655 0.341991397099053 0.529008136370232 H 0.0 **** 0.0
126 H26250 0.558831134399102 0.34858159157539 0.548297562102639 H 0.0 **** 0.0
127 H26252 0.576676565992835 0.335107057569924 0.548408021948718 H 0.0 **** 0.0
128 H26254 0.552277053911071 0.377703465730964 0.556328209022947 H 0.0 **** 0.0
129 H26256 0.565080964104992 0.386057805593049 0.57273744894359 H 0.0 **** 0.0
130 H26258 0.562526437155275 0.364015801488959 0.570865489045606 H 0.0 **** 0.0
@<TRIPOS>BOND
1 3 2 Aromatic
2 4 3 Aromatic
3 5 4 Aromatic
4 6 5 Aromatic
5 1 2 Aromatic
6 1 6 Aromatic
7 8 7 1
8 9 8 Aromatic
9 10 9 1
10 4 7 1
11 3 10 1
12 12 11 Aromatic
13 13 12 Aromatic
14 14 13 Aromatic
15 9 11 Aromatic
16 8 14 Aromatic
17 16 15 Aromatic
18 17 16 Aromatic
19 18 17 Aromatic
20 14 15 Aromatic
21 13 18 Aromatic
22 20 19 1
23 21 20 1
24 22 21 Aromatic
25 17 19 1
26 16 22 Aromatic
27 24 23 1
28 25 24 Aromatic
29 26 25 1
30 20 23 1
31 19 26 1
32 28 27 Aromatic
33 29 28 Aromatic
34 30 29 Aromatic
35 22 27 Aromatic
36 21 30 Aromatic
37 32 31 1
38 33 32 Aromatic
39 34 33 1
40 29 31 1
41 28 34 1
42 36 35 1
43 37 36 1
44 38 37 Aromatic
45 33 35 1
46 32 38 Aromatic
47 40 39 Aromatic
48 41 40 Aromatic
49 42 41 Aromatic
50 38 39 Aromatic
51 37 42 Aromatic
52 44 43 1
53 45 44 1
54 46 45 1
55 42 43 1
56 41 46 1
57 48 47 1
58 49 48 Aromatic
59 40 49 Aromatic
60 46 47 1
61 51 50 Aromatic
62 52 51 Aromatic
63 53 52 Aromatic
64 49 50 Aromatic
65 48 53 Aromatic
66 6 54 1
67 54 55 1
68 1 56 1
69 5 57 1
70 2 58 1
71 11 59 1
72 12 60 1
73 18 61 1
74 25 62 1
75 24 63 1
76 30 64 1
77 27 65 1
78 34 66 Double
79 31 67 Double
80 53 68 1
81 52 69 1
82 7 70 1
83 7 71 1
84 10 72 1
85 10 73 1
86 15 74 1
87 23 75 1
88 23 76 1
89 24 77 1
90 25 78 1
91 26 79 1
92 26 80 1
93 35 81 1
94 35 82 1
95 36 83 1
96 36 84 1
97 43 85 1
98 43 86 1
99 44 87 1
100 44 88 1
101 45 89 1
102 45 90 1
103 46 91 1
104 47 92 1
105 47 93 1
106 50 94 1
107 51 95 1
108 54 96 1
109 54 97 1
110 55 98 1
111 55 99 1
112 55 100 1
113 56 101 1
114 56 102 1
115 56 103 1
116 57 104 1
117 57 105 1
118 57 106 1
119 58 107 1
120 58 108 1
121 58 109 1
122 59 110 1
123 59 111 1
124 59 112 1
125 60 113 1
126 60 114 1
127 60 115 1
128 61 116 1
129 62 117 1
130 62 118 1
131 62 119 1
132 63 120 1
133 63 121 1
134 63 122 1
135 64 123 1
136 65 124 1
137 68 125 1
138 68 126 1
139 68 127 1
140 69 128 1
141 69 129 1
142 69 130 1
@<TRIPOS>MOLECULE
Sketch 4
130 142
SMALL
USER_CHARGES


@<TRIPOS>ATOM
1 C26260 0.291050929842885 0.210442062394099 0.287782616808348 C.Trigonal 0.0 **** 0.0
2 C26261 0.280708340739192 0.224590758837079 0.287264204727897 C 0.0 **** 0.0
3 C26262 0.274355457614509 0.230207181536487 0.271940227397648 C.Trigonal 0.0 **** 0.0
4 C26263 0.279237745428378 0.222442895183442 0.257179618622482 C.Trigonal 0.0 **** 0.0
5 C26264 0.290414869184155 0.208995291533645 0.25752345267179 C 0.0 **** 0.0
6 C26265 0.295524131383145 0.202385360840337 0.272914579297015 C 0.0 **** 0.0
7 C26272 0.272107066744703 0.228530337150038 0.240487617364516 C 0.0 **** 0.0
8 C26273 0.254819564999954 0.23681225094712 0.241528012313581 C.Trigonal 0.0 **** 0.0
9 C26274 0.250076560125173 0.244890591735054 0.256098700830547 C.Trigonal 0.0 **** 0.0
10 C26275 0.26222477498497 0.245136121506046 0.271101157738025 C 0.0 **** 0.0
11 C26281 0.234449588211659 0.252902893739614 0.257270003320371 C 0.0 **** 0.0
12 C26282 0.222481910750944 0.251523494428844 0.244582552379896 C 0.0 **** 0.0
13 C26283 0.227142938234532 0.243690344107659 0.229395956695373 C.Trigonal 0.0 **** 0.0
14 C26284 0.243640771984545 0.236680183241386 0.227809587248978 C.Trigonal 0.0 **** 0.0
15 C26290 0.248133746060105 0.228776197139093 0.2125585852242 C 0.0 **** 0.0
16 C26291 0.236025857021753 0.224033875593413 0.200806593770207 C.Trigonal 0.0 **** 0.0
17 C26292 0.22117867713429 0.233935875804155 0.200801064215639 C.Trigonal 0.0 **** 0.0
18 C26293 0.21620385258509 0.242888274515585 0.21509983024494 C 0.0 **** 0.0
19 C26299 0.210597094544617 0.233294815304633 0.184989564912552 C.Trigonal 0.0 **** 0.0
20 C26300 0.212349775881611 0.219857834323685 0.174438312337808 C.Trigonal 0.0 **** 0.0
21 C26301 0.22365854543203 0.205178395850808 0.179341726573283 C.Trigonal 0.0 **** 0.0
22 C26302 0.236078620913356 0.208173033174218 0.191764687743971 C.Trigonal 0.0 **** 0.0
23 C26308 0.20589597795666 0.220273450005978 0.156371934760951 C 0.0 **** 0.0
24 C26309 0.205553216689162 0.238588480448147 0.150043429616631 C 0.0 **** 0.0
25 C26310 0.194805955738217 0.249873523222217 0.161817179115059 C 0.0 **** 0.0
26 C26311 0.202767859866078 0.250167913840848 0.17959344656879 C 0.0 **** 0.0
27 C26317 0.246840207203537 0.194502201638621 0.196426010536135 C 0.0 **** 0.0
28 C26318 0.245210270253355 0.178999266635532 0.18850948452389 C.Trigonal 0.0 **** 0.0
29 C26319 0.232761293973872 0.17624894010966 0.176584667659562 C.Trigonal 0.0 **** 0.0
30 C26320 0.221684428759635 0.189186363289475 0.172218581313952 C 0.0 **** 0.0
31 C26326 0.230919917816873 0.159083746447653 0.16826275785724 C 0.0 **** 0.0
32 C26327 0.242691495467111 0.145501467831231 0.173347681810781 C.Trigonal 0.0 **** 0.0
33 C26328 0.255241281330434 0.148531739117033 0.184594859033728 C.Trigonal 0.0 **** 0.0
34 C26329 0.25723588970805 0.164928100306703 0.193111935415296 C 0.0 **** 0.0
35 C26335 0.268196573640651 0.135026368012396 0.188826093997863 C 0.0 **** 0.0
36 C26336 0.259898553295828 0.117432791391503 0.18921385966189 C 0.0 **** 0.0
37 C26337 0.249401486081758 0.11435774445854 0.173392733286504 C.Trigonal 0.0 **** 0.0
38 C26338 0.240688674436452 0.128049022761936 0.165778122404568 C.Trigonal 0.0 **** 0.0
39 N26344 0.230488762921824 0.125575418023351 0.152444293020426 N 0.0 **** 0.0
40 C26345 0.229078506407756 0.109956261342923 0.146027963858659 C.Trigonal 0.0 **** 0.0
41 C26346 0.237497048565201 0.0957807659261247 0.153055745088052 C.Trigonal 0.0 **** 0.0
42 C26347 0.247608412747145 0.0982582114989046 0.166888124422239 C.Trigonal 0.0 **** 0.0
43 C26353 0.257176435343316 0.0836575139720686 0.175083620973025 C 0.0 **** 0.0
44 C26354 0.251248215838145 0.06628328902833 0.168940623470704 C 0.0 **** 0.0
45 C26355 0.248419172597938 0.0662626971264208 0.149863424064851 C 0.0 **** 0.0
46 C26356 0.233820318119998 0.0783421759922321 0.145891713643642 C 0.0 **** 0.0
47 C26362 0.22990498378047 0.0797473439975512 0.126821874701468 C 0.0 **** 0.0
48 C26363 0.216099072213144 0.0927537716486036 0.124236396673237 C.Trigonal 0.0 **** 0.0
49 C26364 0.217016189935128 0.108123183755617 0.133079508716155 C.Trigonal 0.0 **** 0.0
50 C26369 0.204526976731371 0.120548432274135 0.130231273736568 C 0.0 **** 0.0
51 C26370 0.191093084398405 0.117027874953448 0.119868333597143 C 0.0 **** 0.0
52 C26371 0.190100616103876 0.101842784740578 0.11121554196225 C 0.0 **** 0.0
53 C26372 0.202839525585991 0.0898048236757608 0.113210199301488 C 0.0 **** 0.0
54 C26378 0.305754029266082 0.186165920268442 0.273040720381983 C 0.0 **** 0.0
55 C26380 0.324670904740453 0.189967137524848 0.273212687557017 C 0.0 **** 0.0
56 C26382 0.297197675673917 0.204112501076037 0.304790456784439 C 0.0 **** 0.0
57 C26384 0.296692074302293 0.201184114120529 0.241138939679998 C 0.0 **** 0.0
58 C26386 0.275707455313088 0.233660987452597 0.303402716792232 C 0.0 **** 0.0
59 C26388 0.23051445734952 0.262961240022536 0.273148076188441 C 0.0 **** 0.0
60 C26390 0.205074138680191 0.258887599337252 0.247905169727137 C 0.0 **** 0.0
61 O26392 0.200728805989326 0.25061251580146 0.21569316925477 O 0.0 **** 0.0
62 C26394 0.176126572391133 0.244472705600977 0.163175017582384 C 0.0 **** 0.0
63 C26396 0.199875664082089 0.239264044408155 0.1314333947106 C 0.0 **** 0.0
64 O26398 0.208627568688303 0.186774266265086 0.160959860036301 O 0.0 **** 0.0
65 O26400 0.258585863776906 0.196832151905389 0.208919639431657 O 0.0 **** 0.0
66 O26402 0.268221067665678 0.167346713044574 0.203640688274777 O 0.0 **** 0.0
67 O26404 0.219906472910604 0.15736298124227 0.157682324899139 O 0.0 **** 0.0
68 C26406 0.202001178054096 0.0734162950759776 0.103330297917582 C 0.0 **** 0.0
69 C26408 0.175139221728615 0.0991371652362623 0.0996292672000097 C 0.0 **** 0.0
70 H26410 0.28113434273214 0.237095805711112 0.234147687313627 H 0.0 **** 0.0
71 H26412 0.270877996264312 0.217242775675196 0.232546571791689 H 0.0 **** 0.0
72 H26414 0.254686932549028 0.245112153386751 0.282759556254306 H 0.0 **** 0.0
73 H26416 0.269499484377153 0.257071458766222 0.271041870054273 H 0.0 **** 0.0
74 H26418 0.260945388281651 0.223769580577814 0.211394081915788 H 0.0 **** 0.0
75 H26420 0.214288579251644 0.213125085421156 0.147834205115248 H 0.0 **** 0.0
76 H26422 0.193286352649886 0.214509508053562 0.155577805963854 H 0.0 **** 0.0
77 H26424 0.218607945566001 0.243325371415013 0.150606427485898 H 0.0 **** 0.0
78 H26426 0.195078620909517 0.262874423868781 0.156832874711726 H 0.0 **** 0.0
79 H26428 0.193069112280264 0.254762861355283 0.188386979713734 H 0.0 **** 0.0
80 H26430 0.21287641369311 0.259794411090078 0.179596257090442 H 0.0 **** 0.0
81 H26432 0.278240356334689 0.135246829290095 0.179156397550865 H 0.0 **** 0.0
82 H26434 0.27459085216663 0.137202717181923 0.201002265368222 H 0.0 **** 0.0
83 H26436 0.251774987858261 0.1163544242777 0.200523965736093 H 0.0 **** 0.0
84 H26438 0.270001178045581 0.107998474088568 0.190722387800151 H 0.0 **** 0.0
85 H26440 0.270759940586645 0.0850088089673654 0.172151565791042 H 0.0 **** 0.0
86 H26442 0.256001460139047 0.0841667435782653 0.188959477548431 H 0.0 **** 0.0
87 H26444 0.239165015290485 0.0630972748149404 0.175107824780519 H 0.0 **** 0.0
88 H26446 0.260392567906806 0.056507387180292 0.172801968655507 H 0.0 **** 0.0
89 H26448 0.245372780019405 0.0534330306337799 0.145338043248276 H 0.0 **** 0.0
90 H26450 0.260032946308677 0.0702274269406363 0.143240579971998 H 0.0 **** 0.0
91 H26452 0.222368514490134 0.0733148890521537 0.152195214108837 H 0.0 **** 0.0
92 H26454 0.2413977993859 0.0835146855762853 0.119846966725162 H 0.0 **** 0.0
93 H26456 0.22636179334625 0.0671814667149777 0.122097399722193 H 0.0 **** 0.0
94 H26458 0.205076362119159 0.132588526206008 0.137112496689014 H 0.0 **** 0.0
95 H26460 0.18098334074199 0.126419173941629 0.11824254692982 H 0.0 **** 0.0
96 H26462 0.302763156562315 0.178386986684204 0.261912707989816 H 0.0 **** 0.0
97 H26464 0.302250563414382 0.178065464173229 0.283775152402762 H 0.0 **** 0.0
98 H26466 0.328519758667085 0.196226176622869 0.285014641624033 H 0.0 **** 0.0
99 H26468 0.32805314040752 0.198275125763517 0.262643681880397 H 0.0 **** 0.0
100 H26470 0.332180956424808 0.17839507256742 0.271757519112405 H 0.0 **** 0.0
101 H26472 0.305510031442002 0.193097648805366 0.303971064280554 H 0.0 **** 0.0
102 H26474 0.286512569696851 0.200519609050543 0.312967161444249 H 0.0 **** 0.0
103 H26476 0.304598708293038 0.21388886982634 0.311393501179535 H 0.0 **** 0.0
104 H26478 0.295452377801534 0.209628668114943 0.230217411494633 H 0.0 **** 0.0
105 H26480 0.289894671894731 0.189488560046525 0.23800680710213 H 0.0 **** 0.0
106 H26482 0.310220810518134 0.198123133129362 0.241833335323553 H 0.0 **** 0.0
107 H26484 0.263136099898809 0.229505360217967 0.30775005777189 H 0.0 **** 0.0
108 H26486 0.275256885371528 0.24744537450591 0.301601697934938 H 0.0 **** 0.0
109 H26488 0.284593284939904 0.231565797471352 0.313840804968395 H 0.0 **** 0.0
110 H26490 0.222731260981651 0.274155235114699 0.270493161621335 H 0.0 **** 0.0
111 H26492 0.241959639387017 0.268061416250498 0.279134527138083 H 0.0 **** 0.0
112 H26494 0.223820604186575 0.255131896797341 0.282519778830546 H 0.0 **** 0.0
113 H26496 0.203216779899632 0.270883831130441 0.241085227631399 H 0.0 **** 0.0
114 H26498 0.20252895112162 0.261296885787357 0.26131660293035 H 0.0 **** 0.0
115 H26500 0.194991665760823 0.250096958323324 0.244157009402504 H 0.0 **** 0.0
116 H26502 0.194165236612561 0.246009979444941 0.206807424941829 H 0.0 **** 0.0
117 H26504 0.169874085466516 0.245280954675231 0.150804066005135 H 0.0 **** 0.0
118 H26506 0.169273827592417 0.252971836466397 0.171798959472895 H 0.0 **** 0.0
119 H26508 0.174954107738887 0.231527355065886 0.168088947220371 H 0.0 **** 0.0
120 H26510 0.2075754000352 0.230649394600984 0.123680752151049 H 0.0 **** 0.0
121 H26512 0.201443111522191 0.252041634993572 0.126312198002821 H 0.0 **** 0.0
122 H26514 0.186578791036524 0.23577103808842 0.129961610607264 H 0.0 **** 0.0
123 H26516 0.207818357667328 0.174999828609092 0.158133680605313 H 0.0 **** 0.0
124 H26518 0.264126853591525 0.186347164027043 0.21115002507042 H 0.0 **** 0.0
125 H26520 0.214204538049214 0.070490976594307 0.0973184780896691 H 0.0 **** 0.0
126 H26522 0.192686381356913 0.0737803295810877 0.0930611203336256 H 0.0 **** 0.0
127 H26524 0.198581489313474 0.062723293393987 0.111575695045059 H 0.0 **** 0.0
128 H26526 0.179006986682114 0.0993149335489797 0.086250520403133 H 0.0 **** 0.0
129 H26528 0.165557500164041 0.109058161050996 0.101240831566149 H 0.0 **** 0.0
130 H26530 0.168851215531522 0.0869871939999632 0.1021216516441 H 0.0 **** 0.0
@<TRIPOS>BOND
1 3 2 Aromatic
2 4 3 Aromatic
3 5 4 Aromatic
4 6 5 Aromatic
5 1 2 Aromatic
6 1 6 Aromatic
7 8 7 1
8 9 8 Aromatic
9 10 9 1
10 4 7 1
11 3 10 1
12 12 11 Aromatic
13 13 12 Aromatic
14 14 13 Aromatic
15 9 11 Aromatic
16 8 14 Aromatic
17 16 15 Aromatic
18 17 16 Aromatic
19 18 17 Aromatic
20 14 15 Aromatic
21 13 18 Aromatic
22 20 19 1
23 21 20 1
24 22 21 Aromatic
25 17 19 1
26 16 22 Aromatic
27 24 23 1
28 25 24 Aromatic
29 26 25 1
30 20 23 1
31 19 26 1
32 28 27 Aromatic
33 29 28 Aromatic
34 30 29 Aromatic
35 22 27 Aromatic
36 21 30 Aromatic
37 32 31 1
38 33 32 Aromatic
39 34 33 1
40 29 31 1
41 28 34 1
42 36 35 1
43 37 36 1
44 38 37 Aromatic
45 33 35 1
46 32 38 Aromatic
47 40 39 Aromatic
48 41 40 Aromatic
49 42 41 Aromatic
50 38 39 Aromatic
51 37 42 Aromatic
52 44 43 1
53 45 44 1
54 46 45 1
55 42 43 1
56 41 46 1
57 48 47 1
58 49 48 Aromatic
59 40 49 Aromatic
60 46 47 1
61 51 50 Aromatic
62 52 51 Aromatic
63 53 52 Aromatic
64 49 50 Aromatic
65 48 53 Aromatic
66 6 54 1
67 54 55 1
68 1 56 1
69 5 57 1
70 2 58 1
71 11 59 1
72 12 60 1
73 18 61 1
74 25 62 1
75 24 63 1
76 30 64 1
77 27 65 1
78 34 66 Double
79 31 67 Double
80 53 68 1
81 52 69 1
82 7 70 1
83 7 71 1
84 10 72 1
85 10 73 1
86 15 74 1
87 23 75 1
88 23 76 1
89 24 77 1
90 25 78 1
91 26 79 1
92 26 80 1
93 35 81 1
94 35 82 1
95 36 83 1
96 36 84 1
97 43 85 1
98 43 86 1
99 44 87 1
100 44 88 1
101 45 89 1
102 45 90 1
103 46 91 1
104 47 92 1
105 47 93 1
106 50 94 1
107 51 95 1
108 54 96 1
109 54 97 1
110 55 98 1
111 55 99 1
112 55 100 1
113 56 101 1
114 56 102 1
115 56 103 1
116 57 104 1
117 57 105 1
118 57 106 1
119 58 107 1
120 58 108 1
121 58 109 1
122 59 110 1
123 59 111 1
124 59 112 1
125 60 113 1
126 60 114 1
127 60 115 1
128 61 116 1
129 62 117 1
130 62 118 1
131 62 119 1
132 63 120 1
133 63 121 1
134 63 122 1
135 64 123 1
136 65 124 1
137 68 125 1
138 68 126 1
139 68 127 1
140 69 128 1
141 69 129 1
142 69 130 1
@<TRIPOS>MOLECULE
Sketch 4
130 142
SMALL
USER_CHARGES


@<TRIPOS>ATOM
1 C26532 0.730513851444923 0.201600295730668 0.666847492041136 C.Trigonal 0.0 **** 0.0
2 C26533 0.72668406801738 0.208371771983752 0.651161322479978 C 0.0 **** 0.0
3 C26534 0.733251693488518 0.223905897740737 0.646452458708268 C.Trigonal 0.0 **** 0.0
4 C26535 0.742641782402551 0.233154039997181 0.657779828472252 C.Trigonal 0.0 **** 0.0
5 C26536 0.745967407262146 0.226719161809939 0.67374534342253 C 0.0 **** 0.0
6 C26537 0.740404681974695 0.21067543546527 0.678070938375997 C 0.0 **** 0.0
7 C26544 0.749073728171472 0.250597256825164 0.652878273019702 C 0.0 **** 0.0
8 C26545 0.75019940540316 0.254401277263 0.634067628804194 C.Trigonal 0.0 **** 0.0
9 C26546 0.741060064380643 0.245060772966159 0.622697174971136 C.Trigonal 0.0 **** 0.0
10 C26547 0.729701861657958 0.230758784657773 0.628846197608493 C 0.0 **** 0.0
11 C26553 0.741920239493207 0.248565225962412 0.605475815715446 C 0.0 **** 0.0
12 C26554 0.753129543037425 0.260363653849156 0.59906205499748 C 0.0 **** 0.0
13 C26555 0.762109874848444 0.270509910763199 0.610473967400314 C.Trigonal 0.0 **** 0.0
14 C26556 0.759640082683428 0.26815189378803 0.628081919320648 C.Trigonal 0.0 **** 0.0
15 C26562 0.765964962523005 0.280298234158381 0.639359346118308 C 0.0 **** 0.0
16 C26563 0.7740797610607 0.295013584325984 0.634062402160164 C.Trigonal 0.0 **** 0.0
17 C26564 0.780009158982542 0.29458458333111 0.617212560679337 C.Trigonal 0.0 **** 0.0
18 C26565 0.773331745414093 0.283482715874898 0.605322155297043 C 0.0 **** 0.0
19 C26571 0.792610011022036 0.307812255980166 0.612093088578468 C.Trigonal 0.0 **** 0.0
20 C26572 0.793583141442729 0.322554329512993 0.620750327344893 C.Trigonal 0.0 **** 0.0
21 C26573 0.781941560736107 0.325306611228896 0.635833573447351 C.Trigonal 0.0 **** 0.0
22 C26574 0.77413930850703 0.310953112393584 0.643151475024676 C.Trigonal 0.0 **** 0.0
23 C26580 0.808129491287822 0.335048450896102 0.617902456801554 C 0.0 **** 0.0
24 C26581 0.820508588684751 0.329653018850141 0.603787451759229 C 0.0 **** 0.0
25 C26582 0.823111229777445 0.310350489415 0.60325904106822 C 0.0 **** 0.0
26 C26583 0.805884080176522 0.302252846014794 0.599323302748558 C 0.0 **** 0.0
27 C26589 0.764551102073681 0.313512640399194 0.65817993871415 C 0.0 **** 0.0
28 C26590 0.762319299577816 0.329632397847537 0.664598431126987 C.Trigonal 0.0 **** 0.0
29 C26591 0.76834496639966 0.343602148721054 0.656107056203029 C.Trigonal 0.0 **** 0.0
30 C26592 0.778106632574486 0.341536638763894 0.641657444489098 C 0.0 **** 0.0
31 C26598 0.764547788134064 0.361283879235358 0.662530450557918 C 0.0 **** 0.0
32 C26599 0.755334214024894 0.362976769408132 0.678679644457363 C.Trigonal 0.0 **** 0.0
33 C26600 0.750007908987707 0.349174314903201 0.687276519876105 C.Trigonal 0.0 **** 0.0
34 C26601 0.75289247028063 0.331908660889451 0.681031749475955 C 0.0 **** 0.0
35 C26607 0.740582620757148 0.350924053024731 0.703917515009226 C 0.0 **** 0.0
36 C26608 0.729362353899766 0.366892570377659 0.703534715702088 C 0.0 **** 0.0
37 C26609 0.739622105584824 0.382345432935262 0.698497809493732 C.Trigonal 0.0 **** 0.0
38 C26610 0.752070057437085 0.380408925441799 0.685751912216997 C.Trigonal 0.0 **** 0.0
39 N26616 0.76110945686971 0.393569961470604 0.680146491644722 N 0.0 **** 0.0
40 C26617 0.757934858536568 0.40892997681082 0.686676918151058 C.Trigonal 0.0 **** 0.0
41 C26618 0.746171513955837 0.411590302228335 0.69990557406581 C.Trigonal 0.0 **** 0.0
42 C26619 0.736962687584611 0.398053749895962 0.705637891717786 C.Trigonal 0.0 **** 0.0
43 C26625 0.723567635967003 0.400169248875959 0.719388158124916 C 0.0 **** 0.0
44 C26626 0.724777041123112 0.417075053614534 0.728801509985436 C 0.0 **** 0.0
45 C26627 0.727744328320976 0.431502919863731 0.716395592662423 C 0.0 **** 0.0
46 C26628 0.74495308630219 0.429028631479789 0.707856925753607 C 0.0 **** 0.0
47 C26634 0.748586403488685 0.443048819098272 0.69469062316316 C 0.0 **** 0.0
48 C26635 0.763907557870323 0.438923087860531 0.683926038986386 C.Trigonal 0.0 **** 0.0
49 C26636 0.767736664170807 0.422083643773167 0.679815868767592 C.Trigonal 0.0 **** 0.0
50 C26641 0.781535471475347 0.418679277692804 0.668970212211506 C 0.0 **** 0.0
51 C26642 0.791137158703998 0.431728026254276 0.662848132685226 C 0.0 **** 0.0
52 C26643 0.787407686824631 0.448349247484532 0.666891195721849 C 0.0 **** 0.0
53 C26644 0.773603617481957 0.451905492085847 0.677283800963506 C 0.0 **** 0.0
54 C26650 0.744864584558034 0.203369197987732 0.695247942382024 C 0.0 **** 0.0
55 C26652 0.730241594390376 0.206210242185698 0.707613470665965 C 0.0 **** 0.0
56 C26654 0.723294815623765 0.184418368867557 0.671350808321089 C 0.0 **** 0.0
57 C26656 0.755901638413165 0.237222829266966 0.686376797541538 C 0.0 **** 0.0
58 C26658 0.715449322946214 0.198715819772171 0.638981648841484 C 0.0 **** 0.0
59 C26660 0.730594205968118 0.238723193550601 0.593526542316362 C 0.0 **** 0.0
60 C26662 0.754635266282433 0.261699649539195 0.580013880184517 C 0.0 **** 0.0
61 O26664 0.77737930969422 0.285363180408529 0.588430719093572 O 0.0 **** 0.0
62 C26666 0.830744086082489 0.303120283554899 0.619711559271558 C 0.0 **** 0.0
63 C26668 0.837415749912608 0.339121744640518 0.605661225175026 C 0.0 **** 0.0
64 O26670 0.784255636472296 0.355264347238335 0.63292650729437 O 0.0 **** 0.0
65 O26672 0.757130757376624 0.300007827501696 0.666050647201256 O 0.0 **** 0.0
66 O26674 0.748146871182172 0.319574122219504 0.688900423019227 O 0.0 **** 0.0
67 O26676 0.768984042512436 0.37326418804957 0.653968167103522 O 0.0 **** 0.0
68 C26678 0.769261353295121 0.47014662894106 0.681269523502804 C 0.0 **** 0.0
69 C26680 0.798510177981093 0.462099856683621 0.659571220503353 C 0.0 **** 0.0
70 H26682 0.741043418327948 0.260249142891864 0.659020498490593 H 0.0 **** 0.0
71 H26684 0.761884265565666 0.25200866735132 0.658154390573706 H 0.0 **** 0.0
72 H26686 0.731102145858197 0.220115796782744 0.619963218960713 H 0.0 **** 0.0
73 H26688 0.716376950604574 0.234870021856033 0.628138929157411 H 0.0 **** 0.0
74 H26690 0.762805339329195 0.278152223867849 0.652595277103215 H 0.0 **** 0.0
75 H26692 0.803434500375381 0.347593261433734 0.614241743017187 H 0.0 **** 0.0
76 H26694 0.815181497424669 0.336594053809937 0.629831202314237 H 0.0 **** 0.0
77 H26696 0.814938570059576 0.333437551046278 0.591586590015417 H 0.0 **** 0.0
78 H26698 0.831793834894459 0.307338033133196 0.592794340667991 H 0.0 **** 0.0
79 H26700 0.807499633250266 0.288398248820778 0.599256846009466 H 0.0 **** 0.0
80 H26702 0.801925051040045 0.305946894866669 0.586497191566461 H 0.0 **** 0.0
81 H26704 0.732454460065112 0.339901443798427 0.706640105062748 H 0.0 **** 0.0
82 H26706 0.749688608807601 0.351762545397534 0.714430203013288 H 0.0 **** 0.0
83 H26708 0.723267110724961 0.368235270020061 0.715924822699308 H 0.0 **** 0.0
84 H26710 0.719008303142685 0.36495658997849 0.694399302402898 H 0.0 **** 0.0
85 H26712 0.71093664015445 0.39917805874366 0.713516527952571 H 0.0 **** 0.0
86 H26714 0.724446499123999 0.389964055416517 0.728806412634398 H 0.0 **** 0.0
87 H26716 0.735412017290574 0.416636611967745 0.737822130966932 H 0.0 **** 0.0
88 H26718 0.713272411012631 0.419158208806853 0.736388520549766 H 0.0 **** 0.0
89 H26720 0.727377704586519 0.443827478191575 0.722897616654358 H 0.0 **** 0.0
90 H26722 0.717583691428889 0.431717470304724 0.706838132061129 H 0.0 **** 0.0
91 H26724 0.754765658887541 0.429878311454436 0.717777294817474 H 0.0 **** 0.0
92 H26726 0.737445617955675 0.444581234214049 0.686477568065086 H 0.0 **** 0.0
93 H26728 0.75011667074595 0.45506297230237 0.701512937427948 H 0.0 **** 0.0
94 H26730 0.784792501137277 0.405581181947772 0.665675985920539 H 0.0 **** 0.0
95 H26732 0.801977584050272 0.428948266736773 0.654619054375556 H 0.0 **** 0.0
96 H26734 0.756483387595392 0.209031587696947 0.700389274112449 H 0.0 **** 0.0
97 H26736 0.74794135454949 0.189828168287351 0.694431970046422 H 0.0 **** 0.0
98 H26738 0.718580473657583 0.200105151936376 0.703121962859672 H 0.0 **** 0.0
99 H26740 0.727597152966937 0.219788303502856 0.70916015116169 H 0.0 **** 0.0
100 H26742 0.733125753040619 0.201027084130901 0.720183716079503 H 0.0 **** 0.0
101 H26744 0.724056664122612 0.175661457783061 0.660576051904776 H 0.0 **** 0.0
102 H26746 0.709868703495997 0.185512762450194 0.674940227060671 H 0.0 **** 0.0
103 H26748 0.729776569279878 0.178105464038899 0.681828359537406 H 0.0 **** 0.0
104 H26750 0.75457809316326 0.250864458639297 0.684186977074076 H 0.0 **** 0.0
105 H26752 0.769478117888881 0.234116267945615 0.685906524856506 H 0.0 **** 0.0
106 H26754 0.751527542748868 0.235246960341307 0.699419612820324 H 0.0 **** 0.0
107 H26756 0.705989131105689 0.190906849410662 0.645496109762612 H 0.0 **** 0.0
108 H26758 0.722934318140943 0.190351340104642 0.630730766398181 H 0.0 **** 0.0
109 H26760 0.708125285141633 0.207221230988757 0.630816417361391 H 0.0 **** 0.0
110 H26762 0.737375340845551 0.228194492360237 0.587475308748335 H 0.0 **** 0.0
111 H26764 0.725435380780695 0.246867336114555 0.583532753406729 H 0.0 **** 0.0
112 H26766 0.719568770100058 0.233347097630207 0.599903551786391 H 0.0 **** 0.0
113 H26768 0.748591637693976 0.273222669005104 0.57536715136934 H 0.0 **** 0.0
114 H26770 0.748899167109824 0.251109516527758 0.573155300566241 H 0.0 **** 0.0
115 H26772 0.767846069800972 0.261780898074318 0.575751710022564 H 0.0 **** 0.0
116 H26774 0.774347198260998 0.296548027194603 0.585054151561195 H 0.0 **** 0.0
117 H26776 0.8433505349128 0.308488581901692 0.622041380385122 H 0.0 **** 0.0
118 H26778 0.832128935311979 0.289320658676691 0.61871121034106 H 0.0 **** 0.0
119 H26780 0.822704986659429 0.305876505628616 0.630710347657056 H 0.0 **** 0.0
120 H26782 0.835389499601053 0.352850584019121 0.604737051169068 H 0.0 **** 0.0
121 H26784 0.846259735520665 0.335370002103887 0.595606916287444 H 0.0 **** 0.0
122 H26786 0.843328254246038 0.336449793262282 0.617957958396341 H 0.0 **** 0.0
123 H26788 0.78031762974795 0.36539930116785 0.6381898620322 H 0.0 **** 0.0
124 H26790 0.752139137865252 0.303608766211089 0.67644365832223 H 0.0 **** 0.0
125 H26792 0.755564611709813 0.472440697659839 0.680448312380819 H 0.0 **** 0.0
126 H26794 0.775112210005507 0.479113803144114 0.672450783031307 H 0.0 **** 0.0
127 H26796 0.773428767987937 0.473617804803456 0.694100587143258 H 0.0 **** 0.0
128 H26798 0.791639222351591 0.469641661895746 0.650086755006212 H 0.0 **** 0.0
129 H26800 0.809713547429011 0.456828507473391 0.653289706609294 H 0.0 **** 0.0
130 H26802 0.803123104642258 0.470749160178526 0.669447889522728 H 0.0 **** 0.0
@<TRIPOS>BOND
1 3 2 Aromatic
2 4 3 Aromatic
3 5 4 Aromatic
4 6 5 Aromatic
5 1 2 Aromatic
6 1 6 Aromatic
7 8 7 1
8 9 8 Aromatic
9 10 9 1
10 4 7 1
11 3 10 1
12 12 11 Aromatic
13 13 12 Aromatic
14 14 13 Aromatic
15 9 11 Aromatic
16 8 14 Aromatic
17 16 15 Aromatic
18 17 16 Aromatic
19 18 17 Aromatic
20 14 15 Aromatic
21 13 18 Aromatic
22 20 19 1
23 21 20 1
24 22 21 Aromatic
25 17 19 1
26 16 22 Aromatic
27 24 23 1
28 25 24 Aromatic
29 26 25 1
30 20 23 1
31 19 26 1
32 28 27 Aromatic
33 29 28 Aromatic
34 30 29 Aromatic
35 22 27 Aromatic
36 21 30 Aromatic
37 32 31 1
38 33 32 Aromatic
39 34 33 1
40 29 31 1
41 28 34 1
42 36 35 1
43 37 36 1
44 38 37 Aromatic
45 33 35 1
46 32 38 Aromatic
47 40 39 Aromatic
48 41 40 Aromatic
49 42 41 Aromatic
50 38 39 Aromatic
51 37 42 Aromatic
52 44 43 1
53 45 44 1
54 46 45 1
55 42 43 1
56 41 46 1
57 48 47 1
58 49 48 Aromatic
59 40 49 Aromatic
60 46 47 1
61 51 50 Aromatic
62 52 51 Aromatic
63 53 52 Aromatic
64 49 50 Aromatic
65 48 53 Aromatic
66 6 54 1
67 54 55 1
68 1 56 1
69 5 57 1
70 2 58 1
71 11 59 1
72 12 60 1
73 18 61 1
74 25 62 1
75 24 63 1
76 30 64 1
77 27 65 1
78 34 66 Double
79 31 67 Double
80 53 68 1
81 52 69 1
82 7 70 1
83 7 71 1
84 10 72 1
85 10 73 1
86 15 74 1
87 23 75 1
88 23 76 1
89 24 77 1
90 25 78 1
91 26 79 1
92 26 80 1
93 35 81 1
94 35 82 1
95 36 83 1
96 36 84 1
97 43 85 1
98 43 86 1
99 44 87 1
100 44 88 1
101 45 89 1
102 45 90 1
103 46 91 1
104 47 92 1
105 47 93 1
106 50 94 1
107 51 95 1
108 54 96 1
109 54 97 1
110 55 98 1
111 55 99 1
112 55 100 1
113 56 101 1
114 56 102 1
115 56 103 1
116 57 104 1
117 57 105 1
118 57 106 1
119 58 107 1
120 58 108 1
121 58 109 1
122 59 110 1
123 59 111 1
124 59 112 1
125 60 113 1
126 60 114 1
127 60 115 1
128 61 116 1
129 62 117 1
130 62 118 1
131 62 119 1
132 63 120 1
133 63 121 1
134 63 122 1
135 64 123 1
136 65 124 1
137 68 125 1
138 68 126 1
139 68 127 1
140 69 128 1
141 69 129 1
142 69 130 1
@<TRIPOS>MOLECULE
Sketch 4
130 142
SMALL
USER_CHARGES


@<TRIPOS>ATOM
1 C26804 0.615533487821865 -0.0267583422332937 0.671989741405358 C.Trigonal 0.0 **** 0.0
2 C26805 0.622617542751706 -0.0110255537532083 0.668995110366154 C 0.0 **** 0.0
3 C26806 0.620757572489281 0.00177318147830638 0.680803933229709 C.Trigonal 0.0 **** 0.0
4 C26807 0.611365052869676 -0.000986728399629789 0.695217399583908 C.Trigonal 0.0 **** 0.0
5 C26808 0.605178688386328 -0.0169933122112004 0.698750328969732 C 0.0 **** 0.0
6 C26809 0.607287196279608 -0.029890144892399 0.687088124133818 C 0.0 **** 0.0
7 C26816 0.608226624765972 0.0136713212347702 0.707278178934455 C 0.0 **** 0.0
8 C26817 0.608928394601306 0.0311430964544829 0.699316096314919 C.Trigonal 0.0 **** 0.0
9 C26818 0.619635541212506 0.0337892332631511 0.68588309580829 C.Trigonal 0.0 **** 0.0
10 C26819 0.629157124598984 0.0189173036623611 0.678264660298632 C 0.0 **** 0.0
11 C26825 0.622410679909384 0.0499923311103258 0.67954334971846 C 0.0 **** 0.0
12 C26826 0.612450709826868 0.0634249938132324 0.684874804041763 C 0.0 **** 0.0
13 C26827 0.598368678951694 0.0596617008837504 0.694779544050653 C.Trigonal 0.0 **** 0.0
14 C26828 0.59849848147095 0.0446620217533621 0.704581265066889 C.Trigonal 0.0 **** 0.0
15 C26834 0.585394251213821 0.0423625307116419 0.716066672353244 C 0.0 **** 0.0
16 C26835 0.569402418258914 0.0497960911958771 0.713221969462914 C.Trigonal 0.0 **** 0.0
17 C26836 0.567940116303283 0.0597141634752276 0.698387170442798 C.Trigonal 0.0 **** 0.0
18 C26837 0.582087384659277 0.0669374111342805 0.691029304059748 C 0.0 **** 0.0
19 C26843 0.550536231202421 0.0622582892205072 0.691181979612178 C.Trigonal 0.0 **** 0.0
20 C26844 0.536792716310785 0.0574672405675621 0.700187771814823 C.Trigonal 0.0 **** 0.0
21 C26845 0.538782674794867 0.0523737228121 0.718543666762284 C.Trigonal 0.0 **** 0.0
22 C26846 0.555143443434571 0.0481119309748185 0.724291467569695 C.Trigonal 0.0 **** 0.0
23 C26852 0.519538971605296 0.0554435919060959 0.691654680231138 C 0.0 **** 0.0
24 C26853 0.52018915211438 0.050355221063187 0.672717697823458 C 0.0 **** 0.0
25 C26854 0.538322441615356 0.0500789157809469 0.66528140602711 C 0.0 **** 0.0
26 C26855 0.549019726310891 0.0646540905171591 0.672176429364217 C 0.0 **** 0.0
27 C26861 0.557287712672844 0.0441274791071916 0.741708853455809 C 0.0 **** 0.0
28 C26862 0.543345669813847 0.0434175272167298 0.752230712191246 C.Trigonal 0.0 **** 0.0
29 C26863 0.527393278908056 0.0472664388797513 0.746285446052382 C.Trigonal 0.0 **** 0.0
30 C26864 0.525152674921134 0.0525665001512027 0.729687529703441 C 0.0 **** 0.0
31 C26870 0.512151277899728 0.0460556869288677 0.757807517120561 C 0.0 **** 0.0
32 C26871 0.514931071039216 0.0410468887992631 0.775564673900563 C.Trigonal 0.0 **** 0.0
33 C26872 0.530704137841126 0.0380811299853502 0.781503445939711 C.Trigonal 0.0 **** 0.0
34 C26873 0.545713966845182 0.0388689000545213 0.77055431811584 C 0.0 **** 0.0
35 C26879 0.533708340945816 0.033747727641508 0.799959925632754 C 0.0 **** 0.0
36 C26880 0.518984960161101 0.0230251398811828 0.806936170313839 C 0.0 **** 0.0
37 C26881 0.501916921394191 0.0309098024063491 0.802842685004652 C.Trigonal 0.0 **** 0.0
38 C26882 0.499834210435812 0.0392806550865899 0.787124204437639 C.Trigonal 0.0 **** 0.0
39 N26888 0.484696569166727 0.0450881728671681 0.782175409254335 N 0.0 **** 0.0
40 C26889 0.471339093588111 0.0424016553012198 0.792248247934675 C.Trigonal 0.0 **** 0.0
41 C26890 0.472781817886151 0.0351315894610107 0.808554482795363 C.Trigonal 0.0 **** 0.0
42 C26891 0.488328150761485 0.0295090611688147 0.813735875779004 C.Trigonal 0.0 **** 0.0
43 C26897 0.490623165863865 0.0210747101132535 0.830933051215983 C 0.0 **** 0.0
44 C26898 0.475688327311649 0.0241289873536846 0.84289496234907 C 0.0 **** 0.0
45 C26899 0.459032454480182 0.0212785545694429 0.83362044379514 C 0.0 **** 0.0
46 C26900 0.457131986038309 0.0344701292379308 0.819650465602462 C 0.0 **** 0.0
47 C26906 0.44135797032432 0.031444429637631 0.808647318808052 C 0.0 **** 0.0
48 C26907 0.440872652497054 0.0445647939978229 0.794739555010464 C.Trigonal 0.0 **** 0.0
49 C26908 0.455802821077347 0.0483221861375051 0.785901343532577 C.Trigonal 0.0 **** 0.0
50 C26913 0.454990524314602 0.0589825675580487 0.771613428970456 C 0.0 **** 0.0
51 C26914 0.44007283153628 0.0668693139415095 0.767690013635378 C 0.0 **** 0.0
52 C26915 0.425673920064027 0.0643483318066484 0.777329579824401 C 0.0 **** 0.0
53 C26916 0.426008508342435 0.052831254702269 0.790671610332034 C 0.0 **** 0.0
54 C26922 0.600339510428246 -0.0474025867154866 0.690692229556949 C 0.0 **** 0.0
55 C26924 0.58252125005703 -0.0491402395074334 0.683355501416242 C 0.0 **** 0.0
56 C26926 0.617359934500148 -0.0404890414160492 0.658722946678265 C 0.0 **** 0.0
57 C26928 0.596040945908401 -0.0206135144192869 0.715237241090635 C 0.0 **** 0.0
58 C26930 0.632279007549806 -0.00786217194359734 0.652731912310432 C 0.0 **** 0.0
59 C26932 0.636132576488483 0.052599394092982 0.666390221168114 C 0.0 **** 0.0
60 C26934 0.615228605268417 0.0808519948475776 0.6774726597761 C 0.0 **** 0.0
61 O26936 0.580954231992426 0.0796294769556535 0.67932566662289 O 0.0 **** 0.0
62 C26938 0.538568255524797 0.0505495751791978 0.6458469900384 C 0.0 **** 0.0
63 C26940 0.508150194784122 0.0617357450930692 0.66257661411855 C 0.0 **** 0.0
64 O26942 0.509704159790221 0.0582603526500482 0.723970307909546 O 0.0 **** 0.0
65 O26944 0.573292148582819 0.041482314701852 0.747764203657138 O 0.0 **** 0.0
66 O26946 0.559795771926802 0.0358591951517478 0.775926215365562 O 0.0 **** 0.0
67 O26948 0.49828100531373 0.0489520809297048 0.751794005353525 O 0.0 **** 0.0
68 C26950 0.410114262667445 0.049225131763237 0.800699755403176 C 0.0 **** 0.0
69 C26952 0.410125972392652 0.0744402289508011 0.772749766788905 C 0.0 **** 0.0
70 H26954 0.595630167609344 0.011985600332347 0.712781034690696 H 0.0 **** 0.0
71 H26956 0.61728578770748 0.0129551443647196 0.717844232623468 H 0.0 **** 0.0
72 H26958 0.642131506630988 0.0185399392760755 0.683448619748009 H 0.0 **** 0.0
73 H26960 0.630392116525203 0.0212946885838812 0.664645609198933 H 0.0 **** 0.0
74 H26962 0.586364091788544 0.0320427637619795 0.725252868830034 H 0.0 **** 0.0
75 H26964 0.511997701852836 0.045595786337355 0.698000555231836 H 0.0 **** 0.0
76 H26966 0.512499271604503 0.0673653904692954 0.693101272038419 H 0.0 **** 0.0
77 H26968 0.515199198604733 0.037453760603927 0.671790662842015 H 0.0 **** 0.0
78 H26970 0.544358802516554 0.0381787054575388 0.669239224915849 H 0.0 **** 0.0
79 H26972 0.543050548059736 0.076806079157948 0.669219464674019 H 0.0 **** 0.0
80 H26974 0.561162200943742 0.0642398681807361 0.665432435715449 H 0.0 **** 0.0
81 H26976 0.54561147601568 0.0267205948983017 0.801939597058984 H 0.0 **** 0.0
82 H26978 0.53487301151197 0.045537655013088 0.807304561085771 H 0.0 **** 0.0
83 H26980 0.520999433633913 0.021289301427139 0.820560791442931 H 0.0 **** 0.0
84 H26982 0.519600267752627 0.0102474055023784 0.80131679545518 H 0.0 **** 0.0
85 H26984 0.49213201101285 0.00732884733767006 0.829058918138234 H 0.0 **** 0.0
86 H26986 0.502200161031465 0.0255800281497193 0.837207650309691 H 0.0 **** 0.0
87 H26988 0.476056309853558 0.0372083586641949 0.847683462184548 H 0.0 **** 0.0
88 H26990 0.47684026330543 0.0158883767261086 0.854061771392864 H 0.0 **** 0.0
89 H26992 0.448179449445659 0.022226466395341 0.842310500529062 H 0.0 **** 0.0
90 H26994 0.458801862524683 0.00841884558198301 0.828213810125798 H 0.0 **** 0.0
91 H26996 0.455467959761478 0.0468580717821734 0.825823365255018 H 0.0 **** 0.0
92 H26998 0.441802749161483 0.0186387934324142 0.803091004274291 H 0.0 **** 0.0
93 H27000 0.430122286065614 0.0317617197980595 0.816791186308943 H 0.0 **** 0.0
94 H27002 0.466415271100121 0.0616128199420549 0.764196666561384 H 0.0 **** 0.0
95 H27004 0.439384628784333 0.0753102073764167 0.756693906868312 H 0.0 **** 0.0
96 H27006 0.599824570301614 -0.0501999569259058 0.70427796375536 H 0.0 **** 0.0
97 H27008 0.608744762536244 -0.0572096559020916 0.685508997110437 H 0.0 **** 0.0
98 H27010 0.577509065802248 -0.0619676042935605 0.685294819771059 H 0.0 **** 0.0
99 H27012 0.582346123887607 -0.0465645172102083 0.669692246475348 H 0.0 **** 0.0
100 H27014 0.573766595953711 -0.0402104302071454 0.689450316104866 H 0.0 **** 0.0
101 H27016 0.615703352291133 -0.0353894872575016 0.64590308513778 H 0.0 **** 0.0
102 H27018 0.607954812812367 -0.0506065811540346 0.659810654352038 H 0.0 **** 0.0
103 H27020 0.629917085055143 -0.0464711029336461 0.659385656454766 H 0.0 **** 0.0
104 H27022 0.582562634091827 -0.0233563365189574 0.71310280996896 H 0.0 **** 0.0
105 H27024 0.596726986498028 -0.0102596037586867 0.724414442217204 H 0.0 **** 0.0
106 H27026 0.601562075794594 -0.0315557463517397 0.721816159295136 H 0.0 **** 0.0
107 H27028 0.64299083315314 0.000787300105194775 0.654558449501178 H 0.0 **** 0.0
108 H27030 0.624016955499777 -0.00240331107966887 0.642938800271709 H 0.0 **** 0.0
109 H27032 0.637751659421681 -0.019490564871777 0.647498694389935 H 0.0 **** 0.0
110 H27034 0.641176244821473 0.0655141278424977 0.666232417029688 H 0.0 **** 0.0
111 H27036 0.631344707036427 0.0498481084963078 0.653594760081102 H 0.0 **** 0.0
112 H27038 0.64710800973757 0.0443845056837575 0.668699884914277 H 0.0 **** 0.0
113 H27040 0.628584813894471 0.0846836475582095 0.677976452379553 H 0.0 **** 0.0
114 H27042 0.608426284608126 0.0906684230268756 0.684573110671641 H 0.0 **** 0.0
115 H27044 0.611033955686549 0.0814388742666887 0.664210154248671 H 0.0 **** 0.0
116 H27046 0.569556511779117 0.0833148099043077 0.678890509810476 H 0.0 **** 0.0
117 H27048 0.530682717688002 0.0403908075127248 0.640645007422915 H 0.0 **** 0.0
118 H27050 0.551554875176757 0.0487823632593383 0.641239783972851 H 0.0 **** 0.0
119 H27052 0.533908699854145 0.0627461967305642 0.641050478165447 H 0.0 **** 0.0
120 H27054 0.495729556831662 0.0624965040578498 0.668787291853573 H 0.0 **** 0.0
121 H27056 0.506177993569354 0.0567149894434826 0.649767231511186 H 0.0 **** 0.0
122 H27058 0.513452404829071 0.0744627293775519 0.661563897294752 H 0.0 **** 0.0
123 H27060 0.501343412214404 0.0557593624794743 0.732322123959271 H 0.0 **** 0.0
124 H27062 0.572944952899831 0.0404342088270544 0.759798391551994 H 0.0 **** 0.0
125 H27064 0.407136279085696 0.0356310270605515 0.800537236644683 H 0.0 **** 0.0
126 H27066 0.398922351635118 0.0556739927478704 0.795722214642558 H 0.0 **** 0.0
127 H27068 0.411492624466379 0.0532176716585885 0.81397122013585 H 0.0 **** 0.0
128 H27070 0.398822618687704 0.0664327598786262 0.771708249421266 H 0.0 **** 0.0
129 H27072 0.411626857376766 0.0809008445128529 0.760544286882333 H 0.0 **** 0.0
130 H27074 0.407593093463273 0.0842753605419427 0.782265900638874 H 0.0 **** 0.0
@<TRIPOS>BOND
1 3 2 Aromatic
2 4 3 Aromatic
3 5 4 Aromatic
4 6 5 Aromatic
5 1 2 Aromatic
6 1 6 Aromatic
7 8 7 1
8 9 8 Aromatic
9 10 9 1
10 4 7 1
11 3 10 1
12 12 11 Aromatic
13 13 12 Aromatic
14 14 13 Aromatic
15 9 11 Aromatic
16 8 14 Aromatic
17 16 15 Aromatic
18 17 16 Aromatic
19 18 17 Aromatic
20 14 15 Aromatic
21 13 18 Aromatic
22 20 19 1
23 21 20 1
24 22 21 Aromatic
25 17 19 1
26 16 22 Aromatic
27 24 23 1
28 25 24 Aromatic
29 26 25 1
30 20 23 1
31 19 26 1
32 28 27 Aromatic
33 29 28 Aromatic
34 30 29 Aromatic
35 22 27 Aromatic
36 21 30 Aromatic
37 32 31 1
38 33 32 Aromatic
39 34 33 1
40 29 31 1
41 28 34 1
42 36 35 1
43 37 36 1
44 38 37 Aromatic
45 33 35 1
46 32 38 Aromatic
47 40 39 Aromatic
48 41 40 Aromatic
49 42 41 Aromatic
50 38 39 Aromatic
51 37 42 Aromatic
52 44 43 1
53 45 44 1
54 46 45 1
55 42 43 1
56 41 46 1
57 48 47 1
58 49 48 Aromatic
59 40 49 Aromatic
60 46 47 1
61 51 50 Aromatic
62 52 51 Aromatic
63 53 52 Aromatic
64 49 50 Aromatic
65 48 53 Aromatic
66 6 54 1
67 54 55 1
68 1 56 1
69 5 57 1
70 2 58 1
71 11 59 1
72 12 60 1
73 18 61 1
74 25 62 1
75 24 63 1
76 30 64 1
77 27 65 1
78 34 66 Double
79 31 67 Double
80 53 68 1
81 52 69 1
82 7 70 1
83 7 71 1
84 10 72 1
85 10 73 1
86 15 74 1
87 23 75 1
88 23 76 1
89 24 77 1
90 25 78 1
91 26 79 1
92 26 80 1
93 35 81 1
94 35 82 1
95 36 83 1
96 36 84 1
97 43 85 1
98 43 86 1
99 44 87 1
100 44 88 1
101 45 89 1
102 45 90 1
103 46 91 1
104 47 92 1
105 47 93 1
106 50 94 1
107 51 95 1
108 54 96 1
109 54 97 1
110 55 98 1
111 55 99 1
112 55 100 1
113 56 101 1
114 56 102 1
115 56 103 1
116 57 104 1
117 57 105 1
118 57 106 1
119 58 107 1
120 58 108 1
121 58 109 1
122 59 110 1
123 59 111 1
124 59 112 1
125 60 113 1
126 60 114 1
127 60 115 1
128 61 116 1
129 62 117 1
130 62 118 1
131 62 119 1
132 63 120 1
133 63 121 1
134 63 122 1
135 64 123 1
136 65 124 1
137 68 125 1
138 68 126 1
139 68 127 1
140 69 128 1
141 69 129 1
142 69 130 1
@<TRIPOS>MOLECULE
Sketch 4
130 142
SMALL
USER_CHARGES


@<TRIPOS>ATOM
1 C27076 0.988417405602099 0.357612331394341 0.902918217090859 C.Trigonal 0.0 **** 0.0
2 C27077 0.971412586879219 0.361060584696662 0.900577453072453 C 0.0 **** 0.0
3 C27078 0.966074097881138 0.377646154932058 0.898848686813236 C.Trigonal 0.0 **** 0.0
4 C27079 0.977823043497759 0.390448931381109 0.897876797512792 C.Trigonal 0.0 **** 0.0
5 C27080 0.99495163784537 0.386869020797059 0.898456269441416 C 0.0 **** 0.0
6 C27081 1.00023082652488 0.370468140912439 0.901446585569424 C 0.0 **** 0.0
7 C27088 0.972004542614736 0.408586900804748 0.896016701483919 C 0.0 **** 0.0
8 C27089 0.954201492798233 0.412296430619663 0.901963160627386 C.Trigonal 0.0 **** 0.0
9 C27090 0.942413323410527 0.399712664707541 0.903168966409968 C.Trigonal 0.0 **** 0.0
10 C27091 0.947266424077648 0.381781282772545 0.898001354784893 C 0.0 **** 0.0
11 C27097 0.926196302145383 0.403329877006337 0.908964057369339 C 0.0 **** 0.0
12 C27098 0.922043262730516 0.41910904893545 0.915478303366265 C 0.0 **** 0.0
13 C27099 0.933900481490378 0.432279120281936 0.914167146791391 C.Trigonal 0.0 **** 0.0
14 C27100 0.949459124468773 0.428858872821373 0.90596158118868 C.Trigonal 0.0 **** 0.0
15 C27106 0.960556054687014 0.442133856989118 0.902860474345244 C 0.0 **** 0.0
16 C27107 0.960213003896827 0.456929942295565 0.912561146651276 C.Trigonal 0.0 **** 0.0
17 C27108 0.945104215553457 0.460133892377124 0.921752212728507 C.Trigonal 0.0 **** 0.0
18 C27109 0.931615810585127 0.448827924954722 0.921009725740306 C 0.0 **** 0.0
19 C27115 0.944257753687206 0.476565404450696 0.931745204225068 C.Trigonal 0.0 **** 0.0
20 C27116 0.956120100268082 0.488724653449306 0.929049001690101 C.Trigonal 0.0 **** 0.0
21 C27117 0.970410287550699 0.485838240310008 0.916739050993654 C.Trigonal 0.0 **** 0.0
22 C27118 0.973741612185458 0.469068418996037 0.912104626274467 C.Trigonal 0.0 **** 0.0
23 C27124 0.958592984915946 0.503339323927951 0.941256497705717 C 0.0 **** 0.0
24 C27125 0.953887851750638 0.497480770819194 0.959186507785395 C 0.0 **** 0.0
25 C27126 0.93532141631381 0.491517539756858 0.9596584534863 C 0.0 **** 0.0
26 C27127 0.932036659670215 0.477132617394975 0.946775814986155 C 0.0 **** 0.0
27 C27133 0.989547170228254 0.465604785366979 0.904504341473375 C 0.0 **** 0.0
28 C27134 0.998941555978971 0.478818238524779 0.897907307338237 C.Trigonal 0.0 **** 0.0
29 C27135 0.993485180773593 0.495361937012485 0.899364387364603 C.Trigonal 0.0 **** 0.0
30 C27136 0.979357859711007 0.499105613950369 0.909182781709574 C 0.0 **** 0.0
31 C27142 1.00312819078715 0.509480301409691 0.890718511221505 C 0.0 **** 0.0
32 C27143 1.01821427191478 0.504904199656432 0.880586674930047 C.Trigonal 0.0 **** 0.0
33 C27144 1.02384684521769 0.488732617289862 0.880175873335915 C.Trigonal 0.0 **** 0.0
34 C27145 1.01514004843935 0.47485752858252 0.888873355105883 C 0.0 **** 0.0
35 C27151 1.03986280482544 0.483819397527175 0.870935990725446 C 0.0 **** 0.0
36 C27152 1.04252421176906 0.494844366405994 0.855150598590441 C 0.0 **** 0.0
37 C27153 1.04021458189312 0.513488724409561 0.859136355307625 C.Trigonal 0.0 **** 0.0
38 C27154 1.02774428305386 0.518486269078317 0.871023204343604 C.Trigonal 0.0 **** 0.0
39 N27160 1.02431998280161 0.534885672320443 0.873669683420312 N 0.0 **** 0.0
40 C27161 1.03363384274963 0.546541716085199 0.86558987822045 C.Trigonal 0.0 **** 0.0
41 C27162 1.04650996477052 0.542320560884013 0.853875790784341 C.Trigonal 0.0 **** 0.0
42 C27163 1.04951857700334 0.525589526230141 0.850677024271244 C.Trigonal 0.0 **** 0.0
43 C27169 1.06319713997468 0.520077915596144 0.83825523908958 C 0.0 **** 0.0
44 C27170 1.07028468401977 0.53453050513829 0.827515423636649 C 0.0 **** 0.0
45 C27171 1.0727674715177 0.550327009641715 0.838266629884659 C 0.0 **** 0.0
46 C27172 1.05539805562845 0.556366798181203 0.844281059325237 C 0.0 **** 0.0
47 C27178 1.05633301486259 0.572386343747713 0.855360050891072 C 0.0 **** 0.0
48 C27179 1.03884740605196 0.576527325848044 0.861976500895553 C.Trigonal 0.0 **** 0.0
49 C27180 1.02856242889346 0.563391514066324 0.868110535129971 C.Trigonal 0.0 **** 0.0
50 C27185 1.01261849860035 0.567330779155586 0.875122854375624 C 0.0 **** 0.0
51 C27186 1.00716568070597 0.583758246647541 0.875179278494049 C 0.0 **** 0.0
52 C27187 1.01717848262613 0.596725842338641 0.8689805052701 C 0.0 **** 0.0
53 C27188 1.03313435434502 0.593054644642575 0.86243305881701 C 0.0 **** 0.0
54 C27194 1.01895176578298 0.366578502969586 0.903060781024653 C 0.0 **** 0.0
55 C27196 1.02508182478788 0.36904930390836 0.921281633084276 C 0.0 **** 0.0
56 C27198 0.994235372002881 0.339869442009476 0.907272192908267 C 0.0 **** 0.0
57 C27200 1.00791279345712 0.400896631834729 0.896472938517034 C 0.0 **** 0.0
58 C27202 0.958691858438829 0.346755139321679 0.900557659078376 C 0.0 **** 0.0
59 C27204 0.913126002041809 0.389186911608851 0.908757495713385 C 0.0 **** 0.0
60 C27206 0.904744869218074 0.420463368196653 0.923631973270247 C 0.0 **** 0.0
61 O27208 0.916091461693932 0.453274384178858 0.927321362396849 O 0.0 **** 0.0
62 C27210 0.922797326849556 0.506072528363648 0.956569131657486 C 0.0 **** 0.0
63 C27212 0.957317502253705 0.511654573362314 0.972076632317059 C 0.0 **** 0.0
64 O27214 0.973814885396682 0.515364879158418 0.911892945755771 O 0.0 **** 0.0
65 O27216 0.994822851829372 0.449138802271649 0.903157524185001 O 0.0 **** 0.0
66 O27218 1.02073421985146 0.46051445536569 0.888965573998908 O 0.0 **** 0.0
67 O27220 0.997914115424058 0.523841072113563 0.892418906508741 O 0.0 **** 0.0
68 C27222 1.04427538461507 0.607211488549761 0.855899787927841 C 0.0 **** 0.0
69 C27224 1.01029144705604 0.614529985838857 0.870027850028132 C 0.0 **** 0.0
70 H27226 0.980542164737699 0.416451456600182 0.903684907866507 H 0.0 **** 0.0
71 H27228 0.973489838565003 0.412774490762757 0.882838432580248 H 0.0 **** 0.0
72 H27230 0.94256856593062 0.379199412377055 0.885114127919934 H 0.0 **** 0.0
73 H27232 0.940655635380681 0.373016322958624 0.906524631435564 H 0.0 **** 0.0
74 H27234 0.971107732945384 0.439679103059872 0.894283149381509 H 0.0 **** 0.0
75 H27236 0.971867247776417 0.507579859735959 0.941588992381583 H 0.0 **** 0.0
76 H27238 0.950960830679968 0.514306919867604 0.937384922207638 H 0.0 **** 0.0
77 H27240 0.961990505124579 0.486653507215983 0.962574434458583 H 0.0 **** 0.0
78 H27242 0.932753010631945 0.486494516004251 0.972377782770521 H 0.0 **** 0.0
79 H27244 0.918879103565023 0.478235083845379 0.942423019206763 H 0.0 **** 0.0
80 H27246 0.932988087686114 0.465051043735483 0.953680673554206 H 0.0 **** 0.0
81 H27248 1.05062874518159 0.485236899244409 0.8796258039926 H 0.0 **** 0.0
82 H27250 1.0397262701238 0.470482677705815 0.866877609080137 H 0.0 **** 0.0
83 H27252 1.03337842788402 0.491041683911944 0.845315940111942 H 0.0 **** 0.0
84 H27254 1.05514411977703 0.492036611015971 0.850050397207967 H 0.0 **** 0.0
85 H27256 1.07375364727122 0.514567218371938 0.845477324225677 H 0.0 **** 0.0
86 H27258 1.05853144622585 0.510077083714526 0.829803508475624 H 0.0 **** 0.0
87 H27260 1.06147754924075 0.537482605404638 0.817109271320552 H 0.0 **** 0.0
88 H27262 1.08218945541089 0.530429494150455 0.821592225157586 H 0.0 **** 0.0
89 H27264 1.07904571956405 0.560407596135636 0.831012552077242 H 0.0 **** 0.0
90 H27266 1.08105112512055 0.54748802259899 0.849124158977241 H 0.0 **** 0.0
91 H27268 1.04783450008277 0.559495794186038 0.832919202781753 H 0.0 **** 0.0
92 H27270 1.06508376633615 0.570280602399501 0.866036163936646 H 0.0 **** 0.0
93 H27272 1.06179198741771 0.582661383812747 0.847773529059773 H 0.0 **** 0.0
94 H27274 1.0042885539446 0.557254082279759 0.879836549180465 H 0.0 **** 0.0
95 H27276 0.994597292269142 0.58668388115404 0.880234867495212 H 0.0 **** 0.0
96 H27278 1.02660538754464 0.374410046343566 0.89450758964597 H 0.0 **** 0.0
97 H27280 1.021544395968 0.353618881413319 0.898904092220624 H 0.0 **** 0.0
98 H27282 1.01844716894484 0.36053064536526 0.930037710546729 H 0.0 **** 0.0
99 H27284 1.02290398799346 0.38209683362002 0.925592903196332 H 0.0 **** 0.0
100 H27286 1.03869669571056 0.366449162658568 0.922454606042421 H 0.0 **** 0.0
101 H27288 1.00148960499503 0.339877149425361 0.919142651507132 H 0.0 **** 0.0
102 H27290 1.00239784243834 0.334531663425255 0.89739455965011 H 0.0 **** 0.0
103 H27292 0.983868595076141 0.33089472717787 0.909266794858898 H 0.0 **** 0.0
104 H27294 1.01346192737328 0.404348321268986 0.908755711370815 H 0.0 **** 0.0
105 H27296 1.0026718928935 0.412481513757043 0.890934126339579 H 0.0 **** 0.0
106 H27298 1.01828916604212 0.397307100756808 0.887970800806232 H 0.0 **** 0.0
107 H27300 0.946683834429761 0.350140628237412 0.89448067561041 H 0.0 **** 0.0
108 H27302 0.955909189768712 0.34260820492356 0.913532424006402 H 0.0 **** 0.0
109 H27304 0.963347324048907 0.33575294133372 0.893445559646721 H 0.0 **** 0.0
110 H27306 0.900331507142032 0.393918521904523 0.906068319528888 H 0.0 **** 0.0
111 H27308 0.912788152160587 0.382462341449939 0.920957037691341 H 0.0 **** 0.0
112 H27310 0.915598297414909 0.379785193390196 0.898841301401603 H 0.0 **** 0.0
113 H27312 0.904412355711884 0.428944768221309 0.934548223004668 H 0.0 **** 0.0
114 H27314 0.900433021766944 0.408328899535186 0.928849401432074 H 0.0 **** 0.0
115 H27316 0.895186764782531 0.424704674043299 0.914453432835161 H 0.0 **** 0.0
116 H27318 0.914918427531139 0.465119079815961 0.925697426360092 H 0.0 **** 0.0
117 H27320 0.924228316363471 0.516038326800313 0.966135131931419 H 0.0 **** 0.0
118 H27322 0.909791756522796 0.501295805568296 0.957400749599372 H 0.0 **** 0.0
119 H27324 0.92465526811056 0.511613892963258 0.943980976924319 H 0.0 **** 0.0
120 H27326 0.970929342214527 0.514471468605163 0.972586313990228 H 0.0 **** 0.0
121 H27328 0.953241085115596 0.507752719507423 0.984788061432866 H 0.0 **** 0.0
122 H27330 0.950651277299189 0.523336626664504 0.968587560238572 H 0.0 **** 0.0
123 H27332 0.980429293478369 0.523053562387959 0.905327954288328 H 0.0 **** 0.0
124 H27334 1.00624664531797 0.448831796154123 0.899270110257018 H 0.0 **** 0.0
125 H27336 1.05707474195205 0.606535632301768 0.861326500579303 H 0.0 **** 0.0
126 H27338 1.03944414176517 0.619807895406448 0.859068980970262 H 0.0 **** 0.0
127 H27340 1.04547677345891 0.606686495776251 0.842026617189432 H 0.0 **** 0.0
128 H27342 1.01638527311052 0.62163153104622 0.880335640401566 H 0.0 **** 0.0
129 H27344 0.996639361832071 0.614596734405928 0.872556253067057 H 0.0 **** 0.0
130 H27346 1.01216670169145 0.621605909050445 0.858206304087165 H 0.0 **** 0.0
@<TRIPOS>BOND
1 3 2 Aromatic
2 4 3 Aromatic
3 5 4 Aromatic
4 6 5 Aromatic
5 1 2 Aromatic
6 1 6 Aromatic
7 8 7 1
8 9 8 Aromatic
9 10 9 1
10 4 7 1
11 3 10 1
12 12 11 Aromatic
13 13 12 Aromatic
14 14 13 Aromatic
15 9 11 Aromatic
16 8 14 Aromatic
17 16 15 Aromatic
18 17 16 Aromatic
19 18 17 Aromatic
20 14 15 Aromatic
21 13 18 Aromatic
22 20 19 1
23 21 20 1
24 22 21 Aromatic
25 17 19 1
26 16 22 Aromatic
27 24 23 1
28 25 24 Aromatic
29 26 25 1
30 20 23 1
31 19 26 1
32 28 27 Aromatic
33 29 28 Aromatic
34 30 29 Aromatic
35 22 27 Aromatic
36 21 30 Aromatic
37 32 31 1
38 33 32 Aromatic
39 34 33 1
40 29 31 1
41 28 34 1
42 36 35 1
43 37 36 1
44 38 37 Aromatic
45 33 35 1
46 32 38 Aromatic
47 40 39 Aromatic
48 41 40 Aromatic
49 42 41 Aromatic
50 38 39 Aromatic
51 37 42 Aromatic
52 44 43 1
53 45 44 1
54 46 45 1
55 42 43 1
56 41 46 1
57 48 47 1
58 49 48 Aromatic
59 40 49 Aromatic
60 46 47 1
61 51 50 Aromatic
62 52 51 Aromatic
63 53 52 Aromatic
64 49 50 Aromatic
65 48 53 Aromatic
66 6 54 1
67 54 55 1
68 1 56 1
69 5 57 1
70 2 58 1
71 11 59 1
72 12 60 1
73 18 61 1
74 25 62 1
75 24 63 1
76 30 64 1
77 27 65 1
78 34 66 Double
79 31 67 Double
80 53 68 1
81 52 69 1
82 7 70 1
83 7 71 1
84 10 72 1
85 10 73 1
86 15 74 1
87 23 75 1
88 23 76 1
89 24 77 1
90 25 78 1
91 26 79 1
92 26 80 1
93 35 81 1
94 35 82 1
95 36 83 1
96 36 84 1
97 43 85 1
98 43 86 1
99 44 87 1
100 44 88 1
101 45 89 1
102 45 90 1
103 46 91 1
104 47 92 1
105 47 93 1
106 50 94 1
107 51 95 1
108 54 96 1
109 54 97 1
110 55 98 1
111 55 99 1
112 55 100 1
113 56 101 1
114 56 102 1
115 56 103 1
116 57 104 1
117 57 105 1
118 57 106 1
119 58 107 1
120 58 108 1
121 58 109 1
122 59 110 1
123 59 111 1
124 59 112 1
125 60 113 1
126 60 114 1
127 60 115 1
128 61 116 1
129 62 117 1
130 62 118 1
131 62 119 1
132 63 120 1
133 63 121 1
134 63 122 1
135 64 123 1
136 65 124 1
137 68 125 1
138 68 126 1
139 68 127 1
140 69 128 1
141 69 129 1
142 69 130 1
@<TRIPOS>MOLECULE
Sketch 4
130 142
SMALL
USER_CHARGES


@<TRIPOS>ATOM
1 C27348 0.87837037663703 0.5154194730633 0.3569552409622 C.Trigonal 0.0 **** 0.0
2 C27349 0.884976539899573 0.530438404980894 0.363121577527643 C 0.0 **** 0.0
3 C27350 0.894655852879422 0.530495932315886 0.377728832367864 C.Trigonal 0.0 **** 0.0
4 C27351 0.89678297289545 0.515797739814679 0.386744000910661 C.Trigonal 0.0 **** 0.0
5 C27352 0.88960246585319 0.500861285553301 0.381012198458169 C 0.0 **** 0.0
6 C27353 0.880916351062663 0.500540809943769 0.365791609244195 C 0.0 **** 0.0
7 C27360 0.906936621279954 0.51595635577123 0.403075462650719 C 0.0 **** 0.0
8 C27361 0.919085588281453 0.530660560341572 0.405643690412803 C.Trigonal 0.0 **** 0.0
9 C27362 0.917285687224934 0.54519481499803 0.396390321893089 C.Trigonal 0.0 **** 0.0
10 C27363 0.902744506814849 0.546872041419593 0.38381275855194 C 0.0 **** 0.0
11 C27369 0.928637894383343 0.558509109279196 0.398363992652042 C 0.0 **** 0.0
12 C27370 0.942664397128195 0.557107515345854 0.408785769993059 C 0.0 **** 0.0
13 C27371 0.943654906220518 0.543256970098683 0.419815959099418 C.Trigonal 0.0 **** 0.0
14 C27372 0.931674625640002 0.530017874123501 0.418104283798917 C.Trigonal 0.0 **** 0.0
15 C27378 0.93223088223665 0.516581950364042 0.429523303943342 C 0.0 **** 0.0
16 C27379 0.944585268164757 0.515028664996037 0.442038979777265 C.Trigonal 0.0 **** 0.0
17 C27380 0.954460824305486 0.529600318538447 0.445473281517321 C.Trigonal 0.0 **** 0.0
18 C27381 0.954962423993242 0.542865725530092 0.433901148514015 C 0.0 **** 0.0
19 C27387 0.963665680704766 0.530165860653685 0.462427538174103 C.Trigonal 0.0 **** 0.0
20 C27388 0.963024835013702 0.51643015626131 0.472818109654778 C.Trigonal 0.0 **** 0.0
21 C27389 0.956374256741645 0.499577897808319 0.466434415491595 C.Trigonal 0.0 **** 0.0
22 C27390 0.947498849794601 0.499522053148036 0.450955971759047 C.Trigonal 0.0 **** 0.0
23 C27396 0.966654800702086 0.517784062275715 0.491702613410221 C 0.0 **** 0.0
24 C27397 0.964377375423258 0.535986440107363 0.498037407235048 C 0.0 **** 0.0
25 C27398 0.975171095881051 0.548128503413639 0.48734849371109 C 0.0 **** 0.0
26 C27399 0.969291477127502 0.547636532678572 0.468773652496572 C 0.0 **** 0.0
27 C27405 0.941632339545987 0.483763902215679 0.444544472850673 C 0.0 **** 0.0
28 C27406 0.941977476808976 0.469648981461535 0.454831299153562 C.Trigonal 0.0 **** 0.0
29 C27407 0.950773630591633 0.469817770626799 0.469896195566982 C.Trigonal 0.0 **** 0.0
30 C27408 0.958814687027672 0.48448913881313 0.475301762470077 C 0.0 **** 0.0
31 C27414 0.95170577907768 0.454063674274259 0.480703047149035 C 0.0 **** 0.0
32 C27415 0.941701051768586 0.439290045216043 0.475313640665712 C.Trigonal 0.0 **** 0.0
33 C27416 0.932728547228129 0.439369248433376 0.460770727916805 C.Trigonal 0.0 **** 0.0
34 C27417 0.93263712059694 0.453993745194708 0.449338033351831 C 0.0 **** 0.0
35 C27423 0.92228758587253 0.424032689017074 0.4558085185405 C 0.0 **** 0.0
36 C27424 0.914414958620456 0.416058948969951 0.471815597857484 C 0.0 **** 0.0
37 C27425 0.928111324981837 0.412178581321276 0.484687196969177 C.Trigonal 0.0 **** 0.0
38 C27426 0.941784783251635 0.423628608142416 0.486126936727958 C.Trigonal 0.0 **** 0.0
39 N27432 0.954797651936246 0.42058464211355 0.496488706128308 N 0.0 **** 0.0
40 C27433 0.95374557802432 0.407310568709679 0.506938409314172 C.Trigonal 0.0 **** 0.0
41 C27434 0.940018584178205 0.395814425934258 0.506784980002694 C.Trigonal 0.0 **** 0.0
42 C27435 0.927388958070662 0.398245696270061 0.495171388524869 C.Trigonal 0.0 **** 0.0
43 C27441 0.912233230831461 0.386348008531109 0.494087185865767 C 0.0 **** 0.0
44 C27442 0.913719989963105 0.370675227519489 0.505437131766597 C 0.0 **** 0.0
45 C27443 0.92229649318815 0.375046474423914 0.522139902207689 C 0.0 **** 0.0
46 C27444 0.94047572634335 0.380597879602323 0.518435121636081 C 0.0 **** 0.0
47 C27450 0.950514462380149 0.384546886690771 0.534815723454534 C 0.0 **** 0.0
48 C27451 0.966882944959372 0.393742301862477 0.53101549654347 C.Trigonal 0.0 **** 0.0
49 C27452 0.968030645211067 0.404708007535126 0.517115419284728 C.Trigonal 0.0 **** 0.0
50 C27457 0.983694178309847 0.412403447891156 0.513208438094309 C 0.0 **** 0.0
51 C27458 0.997541060324015 0.4091214408684 0.523055721729163 C 0.0 **** 0.0
52 C27459 0.996098736628723 0.39943865060621 0.537561888179426 C 0.0 **** 0.0
53 C27460 0.980539305839735 0.392257234920908 0.541824159524416 C 0.0 **** 0.0
54 C27466 0.874264945863063 0.483871157721473 0.35893819525823 C 0.0 **** 0.0
55 C27468 0.855509494006603 0.481645577750914 0.363276179570545 C 0.0 **** 0.0
56 C27470 0.868461698951982 0.51589846355872 0.340525738579705 C 0.0 **** 0.0
57 C27472 0.891644578315093 0.48479198017603 0.391295413749161 C 0.0 **** 0.0
58 C27474 0.882092671491908 0.546831621563497 0.353621377211449 C 0.0 **** 0.0
59 C27476 0.925731341382433 0.574661043565388 0.388329731196355 C 0.0 **** 0.0
60 C27478 0.955486809761507 0.571374843902349 0.408212515530469 C 0.0 **** 0.0
61 O27480 0.965890340217801 0.556154459721446 0.435976596035176 O 0.0 **** 0.0
62 C27482 0.994178267801848 0.544096967474075 0.488273683580484 C 0.0 **** 0.0
63 C27484 0.968790047732097 0.537035952912957 0.516961763815465 C 0.0 **** 0.0
64 O27486 0.968838519264223 0.484537798175974 0.489531516098182 O 0.0 **** 0.0
65 O27488 0.935275889182147 0.482894988764178 0.428433248449306 O 0.0 **** 0.0
66 O27490 0.924891224699162 0.453946089470769 0.436037826473445 O 0.0 **** 0.0
67 O27492 0.960247980453313 0.454352100594505 0.493488044132463 O 0.0 **** 0.0
68 C27494 0.979118916262123 0.382681360558913 0.558322017296155 C 0.0 **** 0.0
69 C27496 1.01153949739708 0.397066093749386 0.548525678608724 C 0.0 **** 0.0
70 H27498 0.898132015465847 0.515387753776337 0.413913234406771 H 0.0 **** 0.0
71 H27500 0.914516195164704 0.504276537438818 0.403360153810748 H 0.0 **** 0.0
72 H27502 0.907588226778564 0.553513443190062 0.372579667780032 H 0.0 **** 0.0
73 H27504 0.892862486758319 0.555035738563545 0.389389165843744 H 0.0 **** 0.0
74 H27506 0.922494616414695 0.506840215044912 0.428341370594572 H 0.0 **** 0.0
75 H27508 0.957794476503487 0.509922106133221 0.499047129314783 H 0.0 **** 0.0
76 H27510 0.979529485122432 0.513305448303492 0.49453987658833 H 0.0 **** 0.0
77 H27512 0.950992080587083 0.539573336471516 0.496565340090221 H 0.0 **** 0.0
78 H27514 0.973342855249664 0.561074969790121 0.492149051771618 H 0.0 **** 0.0
79 H27516 0.979820662844603 0.552592402897169 0.461182419058609 H 0.0 **** 0.0
80 H27518 0.95862808776013 0.556535960861875 0.467470685184974 H 0.0 **** 0.0
81 H27520 0.912096967398818 0.427196248589441 0.446834156185464 H 0.0 **** 0.0
82 H27522 0.930422917117501 0.414689224261214 0.449469550841178 H 0.0 **** 0.0
83 H27524 0.907322502811554 0.404734189728507 0.468037925965225 H 0.0 **** 0.0
84 H27526 0.905147213883685 0.424853412406562 0.477376138985761 H 0.0 **** 0.0
85 H27528 0.900797345170289 0.393454059973907 0.497771705548404 H 0.0 **** 0.0
86 H27530 0.910297133782651 0.382153249611901 0.480948988119454 H 0.0 **** 0.0
87 H27532 0.92132306456717 0.360947152532502 0.498945949646983 H 0.0 **** 0.0
88 H27534 0.901161157463183 0.365015455254639 0.507529242828176 H 0.0 **** 0.0
89 H27536 0.922182115452783 0.364180054696614 0.530840949366033 H 0.0 **** 0.0
90 H27538 0.91531585548633 0.385265370219147 0.528588081232416 H 0.0 **** 0.0
91 H27540 0.947029327902632 0.370132805085569 0.511864827258501 H 0.0 **** 0.0
92 H27542 0.942586028896092 0.392121577456929 0.543306541087235 H 0.0 **** 0.0
93 H27544 0.952894692533729 0.372517516582175 0.541359899558987 H 0.0 **** 0.0
94 H27546 0.984845904109577 0.420658383771266 0.502088765872555 H 0.0 **** 0.0
95 H27548 1.00977961499148 0.414743479156514 0.519697348341072 H 0.0 **** 0.0
96 H27550 0.881488070222156 0.473078319419226 0.363905280254796 H 0.0 **** 0.0
97 H27552 0.876183580131201 0.483041784370597 0.345182788972883 H 0.0 **** 0.0
98 H27554 0.847778541034265 0.491827060431137 0.357781886776986 H 0.0 **** 0.0
99 H27556 0.853532524395315 0.481795575446145 0.377050434444184 H 0.0 **** 0.0
100 H27558 0.850549691616087 0.46957622603655 0.358453234610505 H 0.0 **** 0.0
101 H27560 0.875756068866059 0.522234851236951 0.330500756158488 H 0.0 **** 0.0
102 H27562 0.856511505253418 0.522878596021877 0.342163229684874 H 0.0 **** 0.0
103 H27564 0.865022571938424 0.503464427000533 0.335517284121394 H 0.0 **** 0.0
104 H27566 0.893264092633747 0.487293041037091 0.404857871099675 H 0.0 **** 0.0
105 H27568 0.902678778264697 0.477449923731226 0.386996925084154 H 0.0 **** 0.0
106 H27570 0.880437048842227 0.47664012867716 0.39043677232426 H 0.0 **** 0.0
107 H27572 0.8813016684536 0.557731262137471 0.362208781656016 H 0.0 **** 0.0
108 H27574 0.870180632831142 0.546845386770562 0.346492613106312 H 0.0 **** 0.0
109 H27576 0.892432485879586 0.549273269172483 0.344601818852819 H 0.0 **** 0.0
110 H27578 0.932588049839605 0.574353622256449 0.376223120886268 H 0.0 **** 0.0
111 H27580 0.929825131011695 0.585961724915522 0.395317578297999 H 0.0 **** 0.0
112 H27582 0.912312424308894 0.576895111753362 0.385542150941487 H 0.0 **** 0.0
113 H27584 0.953461680179657 0.580498812077819 0.418539654677349 H 0.0 **** 0.0
114 H27586 0.955186079067293 0.57842392409103 0.396259207644156 H 0.0 **** 0.0
115 H27588 0.968541499553499 0.566653051331858 0.408989451264561 H 0.0 **** 0.0
116 H27590 0.975122524816723 0.552250033258256 0.442523051083257 H 0.0 **** 0.0
117 H27592 0.998759527750944 0.544547351370196 0.501381030048341 H 0.0 **** 0.0
118 H27594 1.00146234559997 0.553394900349962 0.480930436690706 H 0.0 **** 0.0
119 H27596 0.996709791255668 0.531504423716881 0.483046492511244 H 0.0 **** 0.0
120 H27598 0.960132314921607 0.529033174202403 0.524313101532048 H 0.0 **** 0.0
121 H27600 0.96759031200397 0.55010263510035 0.521556776135857 H 0.0 **** 0.0
122 H27602 0.981754163000131 0.532629048696916 0.519365316798274 H 0.0 **** 0.0
123 H27604 0.968944161222315 0.473440758942717 0.494292324874516 H 0.0 **** 0.0
124 H27606 0.930434815180733 0.47198017238714 0.42669866256258 H 0.0 **** 0.0
125 H27608 0.96604292709459 0.381470454861063 0.562799933761357 H 0.0 **** 0.0
126 H27610 0.985906074643946 0.389353301724736 0.568451076086058 H 0.0 **** 0.0
127 H27612 0.984479336820395 0.369903427346664 0.557244557073115 H 0.0 **** 0.0
128 H27614 1.02309138146056 0.401436182611901 0.542217359327629 H 0.0 **** 0.0
129 H27616 1.01032363653488 0.404261640526989 0.560374073270903 H 0.0 **** 0.0
130 H27618 1.01349113400287 0.38367532570788 0.551736737523556 H 0.0 **** 0.0
@<TRIPOS>BOND
1 3 2 Aromatic
2 4 3 Aromatic
3 5 4 Aromatic
4 6 5 Aromatic
5 1 2 Aromatic
6 1 6 Aromatic
7 8 7 1
8 9 8 Aromatic
9 10 9 1
10 4 7 1
11 3 10 1
12 12 11 Aromatic
13 13 12 Aromatic
14 14 13 Aromatic
15 9 11 Aromatic
16 8 14 Aromatic
17 16 15 Aromatic
18 17 16 Aromatic
19 18 17 Aromatic
20 14 15 Aromatic
21 13 18 Aromatic
22 20 19 1
23 21 20 1
24 22 21 Aromatic
25 17 19 1
26 16 22 Aromatic
27 24 23 1
28 25 24 Aromatic
29 26 25 1
30 20 23 1
31 19 26 1
32 28 27 Aromatic
33 29 28 Aromatic
34 30 29 Aromatic
35 22 27 Aromatic
36 21 30 Aromatic
37 32 31 1
38 33 32 Aromatic
39 34 33 1
40 29 31 1
41 28 34 1
42 36 35 1
43 37 36 1
44 38 37 Aromatic
45 33 35 1
46 32 38 Aromatic
47 40 39 Aromatic
48 41 40 Aromatic
49 42 41 Aromatic
50 38 39 Aromatic
51 37 42 Aromatic
52 44 43 1
53 45 44 1
54 46 45 1
55 42 43 1
56 41 46 1
57 48 47 1
58 49 48 Aromatic
59 40 49 Aromatic
60 46 47 1
61 51 50 Aromatic
62 52 51 Aromatic
63 53 52 Aromatic
64 49 50 Aromatic
65 48 53 Aromatic
66 6 54 1
67 54 55 1
68 1 56 1
69 5 57 1
70 2 58 1
71 11 59 1
72 12 60 1
73 18 61 1
74 25 62 1
75 24 63 1
76 30 64 1
77 27 65 1
78 34 66 Double
79 31 67 Double
80 53 68 1
81 52 69 1
82 7 70 1
83 7 71 1
84 10 72 1
85 10 73 1
86 15 74 1
87 23 75 1
88 23 76 1
89 24 77 1
90 25 78 1
91 26 79 1
92 26 80 1
93 35 81 1
94 35 82 1
95 36 83 1
96 36 84 1
97 43 85 1
98 43 86 1
99 44 87 1
100 44 88 1
101 45 89 1
102 45 90 1
103 46 91 1
104 47 92 1
105 47 93 1
106 50 94 1
107 51 95 1
108 54 96 1
109 54 97 1
110 55 98 1
111 55 99 1
112 55 100 1
113 56 101 1
114 56 102 1
115 56 103 1
116 57 104 1
117 57 105 1
118 57 106 1
119 58 107 1
120 58 108 1
121 58 109 1
122 59 110 1
123 59 111 1
124 59 112 1
125 60 113 1
126 60 114 1
127 60 115 1
128 61 116 1
129 62 117 1
130 62 118 1
131 62 119 1
132 63 120 1
133 63 121 1
134 63 122 1
135 64 123 1
136 65 124 1
137 68 125 1
138 68 126 1
139 68 127 1
140 69 128 1
141 69 129 1
142 69 130 1
@<TRIPOS>MOLECULE
Sketch 4
188 213
SMALL
USER_CHARGES


@<TRIPOS>ATOM
1 C27824 0.233722459544101 0.496232468723993 0.144083291387414 C.Trigonal 0.0 **** 0.0
2 C27825 0.223041295875456 0.502972711028713 0.156123658564902 C 0.0 **** 0.0
3 C27826 0.212209194666049 0.492149680490602 0.164888831693983 C 0.0 **** 0.0
4 C27827 0.212546754485182 0.474885700176488 0.161351307262093 C.Trigonal 0.0 **** 0.0
5 C27828 0.222768714196994 0.468555962560906 0.148700400198896 C.Trigonal 0.0 **** 0.0
6 C27829 0.233675035109734 0.479196322930089 0.140080632901483 C 0.0 **** 0.0
7 C27836 0.221993666117067 0.450247169789911 0.143805997239738 C 0.0 **** 0.0
8 C27837 0.21009167610649 0.439367199524217 0.153005362211124 C.Trigonal 0.0 **** 0.0
9 C27838 0.200606773622259 0.445251542904857 0.165964436107161 C.Trigonal 0.0 **** 0.0
10 C27839 0.201294678824176 0.463108542591906 0.171263299188321 C 0.0 **** 0.0
11 C27845 0.188406163569155 0.434117521008271 0.175857132089304 C 0.0 **** 0.0
12 C27846 0.18768053680084 0.416003664168407 0.169597450481627 C.Trigonal 0.0 **** 0.0
13 C27847 0.197303114810546 0.410182799358306 0.156714866450684 C.Trigonal 0.0 **** 0.0
14 C27848 0.209286644704214 0.421241998953294 0.146718480657053 C 0.0 **** 0.0
15 C27854 0.196359331034612 0.392240037453873 0.150327241265177 C 0.0 **** 0.0
16 C27855 0.187269814699674 0.380413559506957 0.16250316631797 C 0.0 **** 0.0
17 C27856 0.171142017547931 0.38864900665415 0.169286414141414 C 0.0 **** 0.0
18 C27857 0.175056081700248 0.404981230605694 0.178786527914794 C 0.0 **** 0.0
19 O27863 0.244486298441332 0.47379094114751 0.127565338837826 O 0.0 **** 0.0
20 O27865 0.201285989019188 0.498737661497749 0.176700634077152 O 0.0 **** 0.0
21 O27867 0.230797447026469 0.445094715822086 0.132260318322889 O 0.0 **** 0.0
22 O27869 0.193305073604311 0.468601931102198 0.183240514929 O 0.0 **** 0.0
23 H27871 0.191796077970958 0.434040600757688 0.189379423093902 H 0.0 **** 0.0
24 H27873 0.175526300543211 0.43950776700107 0.175042403198023 H 0.0 **** 0.0
25 H27875 0.205190815490106 0.421100245536173 0.133350341756611 H 0.0 **** 0.0
26 H27877 0.221987145252944 0.415475615810725 0.146996476162502 H 0.0 **** 0.0
27 H27879 0.189565313990156 0.392344450212626 0.138144154326214 H 0.0 **** 0.0
28 H27881 0.209210326037344 0.387460814526552 0.147677706414704 H 0.0 **** 0.0
29 H27883 0.195595297422083 0.377130394875309 0.173162669340733 H 0.0 **** 0.0
30 H27885 0.184209741028646 0.368564305206134 0.155928577311954 H 0.0 **** 0.0
31 H27887 0.164356999005035 0.3797735731233 0.177581888577425 H 0.0 **** 0.0
32 H27889 0.162745457642331 0.391497203319646 0.158551852986975 H 0.0 **** 0.0
33 H27891 0.180121958443017 0.401979750813186 0.191404671203433 H 0.0 **** 0.0
34 H27893 0.163256371219815 0.412142765668471 0.180892690013547 H 0.0 **** 0.0
35 H27895 0.242877093527856 0.461937646059428 0.12588756784097 H 0.0 **** 0.0
36 H27897 0.195234984955163 0.489597857245955 0.181799171423826 H 0.0 **** 0.0
37 C27620 0.36834164710288 0.512927635405949 0.368067866009765 C 0.0 **** 0.0
38 C27621 0.350542026968207 0.51903538540867 0.363306642691927 C 0.0 **** 0.0
39 C27622 0.350807852361632 0.515821133502555 0.344537376177694 C.Trigonal 0.0 **** 0.0
40 C27623 0.367184987004918 0.513951875174966 0.338668098488582 C.Trigonal 0.0 **** 0.0
41 C27624 0.379659765888605 0.516506986644702 0.352754227728626 C 0.0 **** 0.0
42 C27630 0.370543233123796 0.510452313430821 0.321966338536233 C 0.0 **** 0.0
43 C27631 0.356743686815775 0.508745141504934 0.310683895788905 C.Trigonal 0.0 **** 0.0
44 C27632 0.339842184190051 0.511697767551706 0.316608665104811 C.Trigonal 0.0 **** 0.0
45 C27633 0.337221954716252 0.514988965141558 0.333909511339615 C 0.0 **** 0.0
46 C27639 0.326516075462504 0.512012818929643 0.304915220906607 C 0.0 **** 0.0
47 C27640 0.329352273032719 0.509852914475984 0.287550248034765 C.Trigonal 0.0 **** 0.0
48 C27641 0.346296964147992 0.506002409638476 0.281796696699426 C.Trigonal 0.0 **** 0.0
49 C27642 0.3595018567747 0.505135373312066 0.293610015403214 C 0.0 **** 0.0
50 C27648 0.349495491540537 0.505179903805586 0.264396931592518 C 0.0 **** 0.0
51 C27649 0.337330089995649 0.510199271579208 0.252607910307953 C.Trigonal 0.0 **** 0.0
52 C27650 0.320547228315142 0.514371038657384 0.2582172803284 C.Trigonal 0.0 **** 0.0
53 C27651 0.316721316744136 0.513093996441216 0.275522005782887 C 0.0 **** 0.0
54 C27657 0.308792790802058 0.52098247055737 0.24653129484354 C 0.0 **** 0.0
55 C27658 0.313850376295655 0.523983702293535 0.230581325848346 C.Trigonal 0.0 **** 0.0
56 C27659 0.330199951053684 0.520568017751357 0.224528151859185 C.Trigonal 0.0 **** 0.0
57 C27660 0.341941302943942 0.512887853877605 0.235650822837473 C 0.0 **** 0.0
58 C27666 0.334983070688504 0.524838365624045 0.207837198706753 C 0.0 **** 0.0
59 C27667 0.323261298662445 0.532067566224268 0.197822021661848 C 0.0 **** 0.0
60 C27668 0.306573615776905 0.533861845166341 0.204514802095182 C 0.0 **** 0.0
61 N27669 0.301374883822344 0.530593862333067 0.220019746605769 N 0.0 **** 0.0
62 C27675 0.295306328607117 0.538033385839637 0.191418655751223 C.Trigonal 0.0 **** 0.0
63 C27676 0.304776881504696 0.537528849010767 0.17643227475363 C.Trigonal 0.0 **** 0.0
64 C27677 0.32356563870412 0.537821310610921 0.179697634289649 C 0.0 **** 0.0
65 C27682 0.297003048036692 0.533086496044964 0.161677396309594 C 0.0 **** 0.0
66 C27683 0.279366888200541 0.530321392430138 0.161401196561818 C.Trigonal 0.0 **** 0.0
67 C27684 0.269287918471419 0.534174011399308 0.176140469166916 C.Trigonal 0.0 **** 0.0
68 C27685 0.277791566780149 0.537493229409783 0.191462504796157 C 0.0 **** 0.0
69 C27691 0.251556139165342 0.53263205716335 0.175029762567742 C 0.0 **** 0.0
70 C27692 0.244147605291323 0.525127769807369 0.161196189902934 C.Trigonal 0.0 **** 0.0
71 C27693 0.254440585511986 0.518639840747332 0.148470833563789 C.Trigonal 0.0 **** 0.0
72 C27694 0.271433837567666 0.521664284048305 0.147976241293726 C 0.0 **** 0.0
73 C27700 0.24481316528891 0.509036724476355 0.135333276686946 C 0.0 **** 0.0
74 C27701 0.23297665549563 0.522173343385802 0.127157157351586 C 0.0 **** 0.0
75 C27702 0.221695028732243 0.529369862543876 0.1384882030801 C 0.0 **** 0.0
76 C27703 0.225251401839336 0.522329838340045 0.157434591350674 C 0.0 **** 0.0
77 C27709 0.236052283446191 0.52630494143459 0.110680270726907 C 0.0 **** 0.0
78 C27711 0.226562783730766 0.536922134814327 0.0989059485830779 C 0.0 **** 0.0
79 C27713 0.20901665704478 0.543122065711888 0.101728499679284 C 0.0 **** 0.0
80 C27715 0.200999475811898 0.544779286195955 0.117278503891551 C.Trigonal 0.0 **** 0.0
81 C27717 0.209747132753052 0.541355450627086 0.134263735070058 C.Trigonal 0.0 **** 0.0
82 C27720 0.183999607018436 0.550237561119279 0.117399645366285 C 0.0 **** 0.0
83 C27721 0.173623010302061 0.552342898983377 0.133617975330606 C 0.0 **** 0.0
84 C27722 0.183257657575828 0.546999240215016 0.149447159555964 C 0.0 **** 0.0
85 C27723 0.2013062544932 0.553072095729963 0.146872398240886 C 0.0 **** 0.0
86 C27729 0.200191469871813 0.546971907351216 0.0870951581102402 C 0.0 **** 0.0
87 C27730 0.183786499425762 0.552492849214861 0.0871727033060476 C.Trigonal 0.0 **** 0.0
88 C27731 0.175625035943796 0.554403262525711 0.102418358493364 C.Trigonal 0.0 **** 0.0
89 C27736 0.157413193390928 0.560848683112623 0.101885676883233 C 0.0 **** 0.0
90 C27737 0.153046758536515 0.57176245761193 0.0864924923036749 C.Trigonal 0.0 **** 0.0
91 C27738 0.162016329236697 0.569808285316615 0.0716660834476494 C.Trigonal 0.0 **** 0.0
92 C27739 0.175197586655537 0.555963648151792 0.070524576734958 C 0.0 **** 0.0
93 C27745 0.158959776561331 0.580253266735708 0.0579315376881118 C.Trigonal 0.0 **** 0.0
94 C27746 0.146910121981311 0.592783708343072 0.0590158728953429 C.Trigonal 0.0 **** 0.0
95 C27747 0.137028089083383 0.593978105873655 0.0734794627205781 C.Trigonal 0.0 **** 0.0
96 C27748 0.139972968714105 0.583421232867351 0.0871417916262285 C.Trigonal 0.0 **** 0.0
97 C27754 0.129076979251512 0.584927415577344 0.103053338361765 C 0.0 **** 0.0
98 C27755 0.111263195784824 0.591050203173238 0.099604545769622 C.Trigonal 0.0 **** 0.0
99 C27756 0.108806851594795 0.601321465870645 0.0859333836759393 C.Trigonal 0.0 **** 0.0
100 C27757 0.123215728077519 0.607257116358729 0.0749467551494678 C 0.0 **** 0.0
101 C27763 0.0922723773902619 0.606559732320996 0.0821297968641078 C 0.0 **** 0.0
102 N27764 0.0787430619780412 0.603125330691747 0.0913091983199071 N 0.0 **** 0.0
103 C27765 0.0811778391338455 0.593739713585223 0.105553538335874 C.Trigonal 0.0 **** 0.0
104 C27766 0.0971890495894512 0.587388297562617 0.10973289826829 C.Trigonal 0.0 **** 0.0
105 C27772 0.0979963456173098 0.578019004787527 0.125098778958948 C 0.0 **** 0.0
106 C27773 0.0838394501106672 0.576018753384553 0.135068754834185 C 0.0 **** 0.0
107 C27774 0.0682750190075509 0.582859769351278 0.130405920948578 C 0.0 **** 0.0
108 C27775 0.0672437743105404 0.59160840415261 0.115299043228553 C 0.0 **** 0.0
109 C27781 0.144379491977302 0.605264118513957 0.0444669074232599 C 0.0 **** 0.0
110 C27782 0.151508836851247 0.600196206009572 0.0273521367311485 C.Trigonal 0.0 **** 0.0
111 C27783 0.162734269080488 0.586846389376688 0.0264197988392259 C.Trigonal 0.0 **** 0.0
112 C27784 0.169429531952221 0.578009856793353 0.0419871765239014 C 0.0 **** 0.0
113 C27790 0.168140267554388 0.581180989502982 0.0108573103469949 C 0.0 **** 0.0
114 C27791 0.162759714131638 0.588759501735584 -0.00393181852782147 C 0.0 **** 0.0
115 C27792 0.152260786491162 0.602800813158287 -0.00297286761631729 C.Trigonal 0.0 **** 0.0
116 C27793 0.146711896563239 0.608591088672645 0.0126322636075386 C.Trigonal 0.0 **** 0.0
117 C27799 0.135677686416656 0.624422835262351 0.0136697330049613 C 0.0 **** 0.0
118 C27800 0.12395036717833 0.625865657803059 -0.00170487079901138 C 0.0 **** 0.0
119 C27801 0.134260461597026 0.625162810641036 -0.0178560610862346 C 0.0 **** 0.0
120 C27802 0.146978306527676 0.611138263862721 -0.0190376870523939 C 0.0 **** 0.0
121 O27808 0.386745124089854 0.50869397221061 0.315968498899033 O 0.0 **** 0.0
122 O27810 0.357901755904022 0.508588170319116 0.230620818027653 O 0.0 **** 0.0
123 C27812 0.215613077481944 0.529313488003556 0.172908383662839 C 0.0 **** 0.0
124 O27814 0.250587739990649 0.519734018497603 0.103752682627012 O 0.0 **** 0.0
125 O27816 0.233136041561272 0.539962556023388 0.0852297301159383 O 0.0 **** 0.0
126 O27818 0.16825885274204 0.581791939417982 -0.0187578570282253 O 0.0 **** 0.0
127 O27820 0.152466907222979 0.60703679229372 -0.0328131686740985 O 0.0 **** 0.0
128 C27822 0.0529653992246987 0.581316107526692 0.141607823645764 C 0.0 **** 0.0
129 H27902 0.367959916606113 0.499175935616859 0.370348037526285 H 0.0 **** 0.0
130 H27904 0.373218561959766 0.518738642484805 0.379679147438969 H 0.0 **** 0.0
131 H27906 0.340507436520139 0.512166825368172 0.370018100129692 H 0.0 **** 0.0
132 H27908 0.349034677940105 0.532627863101946 0.365972114601841 H 0.0 **** 0.0
133 H27910 0.384189681032706 0.529694823699628 0.352945222057714 H 0.0 **** 0.0
134 H27912 0.390762562272637 0.508282724639417 0.352106655213721 H 0.0 **** 0.0
135 H27914 0.324493886567719 0.517397127978797 0.338864949532968 H 0.0 **** 0.0
136 H27916 0.313773438406361 0.514987382630376 0.309459601090713 H 0.0 **** 0.0
137 H27918 0.372450400363273 0.502879515357563 0.289076329892531 H 0.0 **** 0.0
138 H27920 0.362481812677748 0.502535439880738 0.260199252995431 H 0.0 **** 0.0
139 H27922 0.303991926316577 0.516557847057307 0.279816199423837 H 0.0 **** 0.0
140 H27924 0.347662143520084 0.522416761987403 0.202826468839453 H 0.0 **** 0.0
141 H27926 0.328937335487901 0.550625739265484 0.178357531333648 H 0.0 **** 0.0
142 H27928 0.330662377334664 0.529672700895562 0.171164834553997 H 0.0 **** 0.0
143 H27930 0.304718007004218 0.530252304703803 0.15048553202632 H 0.0 **** 0.0
144 H27932 0.27069127370956 0.537785472339055 0.203391639348986 H 0.0 **** 0.0
145 H27934 0.243865025186992 0.536207578825056 0.186013713096396 H 0.0 **** 0.0
146 H27936 0.278791130605708 0.517137118316224 0.137108153314725 H 0.0 **** 0.0
147 H27938 0.253404245026413 0.502871512858918 0.126438136986515 H 0.0 **** 0.0
148 H27940 0.161540763815361 0.545468695449733 0.13257820945405 H 0.0 **** 0.0
149 H27942 0.170431983517351 0.565863602381467 0.135076348912633 H 0.0 **** 0.0
150 H27944 0.182880858339997 0.533150028068252 0.150984112129057 H 0.0 **** 0.0
151 H27946 0.177374411444177 0.552423115251299 0.160826251045007 H 0.0 **** 0.0
152 H27948 0.208741985060818 0.554167281302054 0.158381577331725 H 0.0 **** 0.0
153 H27950 0.201123219853996 0.566224598787467 0.142055812480261 H 0.0 **** 0.0
154 H27952 0.206078942136273 0.545532629720801 0.0745820943032998 H 0.0 **** 0.0
155 H27954 0.148670184324737 0.550012543014927 0.102379008698021 H 0.0 **** 0.0
156 H27956 0.155009488207009 0.568384967659848 0.113286491733592 H 0.0 **** 0.0
157 H27958 0.184952263895909 0.559205364912531 0.0612293716687165 H 0.0 **** 0.0
158 H27960 0.169187877199076 0.544236673551826 0.0659052338765799 H 0.0 **** 0.0
159 H27962 0.128292478447022 0.572472486687894 0.109134148878677 H 0.0 **** 0.0
160 H27964 0.135308570123955 0.593461927256759 0.112205013542702 H 0.0 **** 0.0
161 H27966 0.128680205086166 0.618990431681054 0.0802331083407439 H 0.0 **** 0.0
162 H27968 0.117930903506591 0.610710574150872 0.0626343923674684 H 0.0 **** 0.0
163 H27970 0.0897293263008258 0.614362592368932 0.0709335897600425 H 0.0 **** 0.0
164 H27972 0.110047645965177 0.572701867432733 0.129480440957758 H 0.0 **** 0.0
165 H27974 0.0847243544616949 0.568937303259007 0.146980939335315 H 0.0 **** 0.0
166 H27976 0.0552234013951056 0.597205383111381 0.111195503043939 H 0.0 **** 0.0
167 H27978 0.130710180811174 0.606703864235781 0.0425779595481338 H 0.0 **** 0.0
168 H27980 0.149394681097368 0.617761055924188 0.0481774064145031 H 0.0 **** 0.0
169 H27982 0.18240521749292 0.5825471498463 0.044459136310541 H 0.0 **** 0.0
170 H27984 0.170491418608465 0.564450034732591 0.0390479347432164 H 0.0 **** 0.0
171 H27986 0.176784693112817 0.570315782761492 0.010189557009421 H 0.0 **** 0.0
172 H27988 0.127970944860041 0.624817363321367 0.0252075375406378 H 0.0 **** 0.0
173 H27990 0.143928266417907 0.635694622872892 0.0141994785944931 H 0.0 **** 0.0
174 H27992 0.116651062895219 0.637723613001841 -0.00129172065792399 H 0.0 **** 0.0
175 H27994 0.114677086940482 0.615464728885707 -0.00143096898279335 H 0.0 **** 0.0
176 H27996 0.141637411246024 0.636830042464387 -0.0197363637296814 H 0.0 **** 0.0
177 H27998 0.126965703076716 0.62312919822438 -0.0294718018627927 H 0.0 **** 0.0
178 H28000 0.393201245748781 0.502747136416593 0.324159038304046 H 0.0 **** 0.0
179 H28002 0.36156530977332 0.516299165783918 0.22220210941244 H 0.0 **** 0.0
180 H28004 0.201806759258255 0.528850910216275 0.171631084166335 H 0.0 **** 0.0
181 H28006 0.219101919499418 0.542332129956637 0.17626014495063 H 0.0 **** 0.0
182 H28008 0.218982858810053 0.521771220478483 0.184117187778085 H 0.0 **** 0.0
183 H28010 0.251932216507274 0.524387922103492 0.0927017688036401 H 0.0 **** 0.0
184 H28012 0.165051704603501 0.589173862363003 -0.0277775566408658 H 0.0 **** 0.0
185 H28014 0.0534705229731251 0.569947474924026 0.149557614243271 H 0.0 **** 0.0
186 H28016 0.0412711704349043 0.580701138249631 0.134160669355744 H 0.0 **** 0.0
187 H28018 0.0518806648881954 0.592375780956273 0.149965808530598 H 0.0 **** 0.0
188 H28020 0.295889210802559 0.524275939947799 0.250437444751856 H 0.0 **** 0.0
@<TRIPOS>BOND
1 3 2 Partial double
2 4 3 Partial double
3 5 4 Partial double
4 6 5 Partial double
5 1 2 Partial double
6 1 6 Partial double
7 8 7 1
8 9 8 Aromatic
9 10 9 1
10 5 7 1
11 4 10 1
12 12 11 1
13 13 12 Double
14 14 13 1
15 9 11 1
16 8 14 1
17 16 15 1
18 17 16 1
19 18 17 1
20 13 15 1
21 12 18 1
22 6 19 1
23 3 20 1
24 7 21 Double
25 10 22 Double
26 11 23 1
27 11 24 1
28 14 25 1
29 14 26 1
30 15 27 1
31 15 28 1
32 16 29 1
33 16 30 1
34 17 31 1
35 17 32 1
36 18 33 1
37 18 34 1
38 19 35 1
39 20 36 1
40 39 38 1
41 40 39 Aromatic
42 41 40 1
43 37 38 1
44 37 41 1
45 43 42 Aromatic
46 44 43 Aromatic
47 45 44 Aromatic
48 40 42 Aromatic
49 39 45 Aromatic
50 47 46 Aromatic
51 48 47 Partial double
52 49 48 Aromatic
53 44 46 Aromatic
54 43 49 Aromatic
55 51 50 Partial double
56 52 51 Partial double
57 53 52 Partial double
58 48 50 Partial double
59 47 53 Partial double
60 55 54 Partial double
61 56 55 Partial double
62 57 56 Partial double
63 52 54 Partial double
64 51 57 Partial double
65 59 58 Partial double
66 60 59 Partial double
67 61 60 Partial double
68 56 58 Partial double
69 55 61 Partial double
70 63 62 Aromatic
71 64 63 1
72 60 62 1
73 59 64 1
74 66 65 Aromatic
75 67 66 Aromatic
76 68 67 Aromatic
77 63 65 Aromatic
78 62 68 Aromatic
79 70 69 Aromatic
80 71 70 Aromatic
81 72 71 Aromatic
82 67 69 Aromatic
83 66 72 Aromatic
84 74 73 1
85 75 74 1
86 76 75 1
87 71 73 1
88 70 76 1
89 74 77 Double
90 77 78 1
91 78 79 1
92 79 80 Partial double
93 80 81 1
94 75 81 Double
95 83 82 1
96 84 83 1
97 85 84 1
98 80 82 Partial double
99 81 85 1
100 87 86 Partial double
101 88 87 Partial double
102 82 88 Partial double
103 79 86 Partial double
104 90 89 1
105 91 90 Aromatic
106 92 91 1
107 88 89 1
108 87 92 1
109 94 93 Aromatic
110 95 94 Aromatic
111 96 95 Aromatic
112 91 93 Aromatic
113 90 96 Aromatic
114 98 97 1
115 99 98 Aromatic
116 100 99 1
117 96 97 1
118 95 100 1
119 102 101 Aromatic
120 103 102 Aromatic
121 104 103 Aromatic
122 99 101 Aromatic
123 98 104 Aromatic
124 106 105 Aromatic
125 107 106 Aromatic
126 108 107 Aromatic
127 104 105 Aromatic
128 103 108 Aromatic
129 110 109 1
130 111 110 Aromatic
131 112 111 1
132 94 109 1
133 93 112 1
134 114 113 Aromatic
135 115 114 Aromatic
136 116 115 Aromatic
137 111 113 Aromatic
138 110 116 Aromatic
139 118 117 1
140 119 118 1
141 120 119 1
142 116 117 1
143 115 120 1
144 42 121 1
145 57 122 1
146 76 123 1
147 77 124 1
148 78 125 Double
149 114 126 1
150 120 127 Double
151 107 128 1
152 37 129 1
153 37 130 1
154 38 131 1
155 38 132 1
156 41 133 1
157 41 134 1
158 45 135 1
159 46 136 1
160 49 137 1
161 50 138 1
162 53 139 1
163 58 140 1
164 64 141 1
165 64 142 1
166 65 143 1
167 68 144 1
168 69 145 1
169 72 146 1
170 73 147 1
171 83 148 1
172 83 149 1
173 84 150 1
174 84 151 1
175 85 152 1
176 85 153 1
177 86 154 1
178 89 155 1
179 89 156 1
180 92 157 1
181 92 158 1
182 97 159 1
183 97 160 1
184 100 161 1
185 100 162 1
186 101 163 1
187 105 164 1
188 106 165 1
189 108 166 1
190 109 167 1
191 109 168 1
192 112 169 1
193 112 170 1
194 113 171 1
195 117 172 1
196 117 173 1
197 118 174 1
198 118 175 1
199 119 176 1
200 119 177 1
201 121 178 1
202 122 179 1
203 123 180 1
204 123 181 1
205 123 182 1
206 124 183 1
207 126 184 1
208 128 185 1
209 128 186 1
210 128 187 1
211 54 188 1
212 76 2 1
213 73 1 1
@<TRIPOS>MOLECULE
Sketch 4
188 213
SMALL
USER_CHARGES


@<TRIPOS>ATOM
1 C28226 0.480334660011414 0.357225974393787 0.548393046744132 C.Trigonal 0.0 **** 0.0
2 C28227 0.475615038129037 0.352901652311189 0.564662306582349 C 0.0 **** 0.0
3 C28228 0.47309241113909 0.335974747251978 0.568793494006512 C 0.0 **** 0.0
4 C28229 0.476172969292919 0.323656469235617 0.556630241554579 C.Trigonal 0.0 **** 0.0
5 C28230 0.481359577006841 0.328098818349784 0.540560178046806 C.Trigonal 0.0 **** 0.0
6 C28231 0.483264794515674 0.344996327452708 0.536206182070185 C 0.0 **** 0.0
7 C28238 0.484952815479218 0.314692157645255 0.527596235717392 C 0.0 **** 0.0
8 C28239 0.482464300106931 0.296872776759098 0.532467594925709 C.Trigonal 0.0 **** 0.0
9 C28240 0.477216663877829 0.292496301598607 0.548130860098844 C.Trigonal 0.0 **** 0.0
10 C28241 0.473779185284365 0.305314621854733 0.561189370454838 C 0.0 **** 0.0
11 C28247 0.474559791449779 0.274200184573524 0.553567870691474 C 0.0 **** 0.0
12 C28248 0.479470291579108 0.261329574713121 0.540215137525587 C.Trigonal 0.0 **** 0.0
13 C28249 0.485195557466905 0.265733628378871 0.524721098046508 C.Trigonal 0.0 **** 0.0
14 C28250 0.486312867287408 0.283923298435918 0.518776445437787 C 0.0 **** 0.0
15 C28256 0.490622825103453 0.252846820735365 0.511669665862568 C 0.0 **** 0.0
16 C28257 0.493590201513861 0.235321174048754 0.519228125422176 C 0.0 **** 0.0
17 C28258 0.479154014089101 0.230510597443077 0.531223695901981 C 0.0 **** 0.0
18 C28259 0.477777156420375 0.243126304797195 0.545802715756396 C 0.0 **** 0.0
19 O28265 0.488052150264772 0.350390684981024 0.520376488478257 O 0.0 **** 0.0
20 O28267 0.467672737219697 0.331926684591802 0.584792691411498 O 0.0 **** 0.0
21 O28269 0.489923501382085 0.318906419299524 0.513660709143301 O 0.0 **** 0.0
22 O28271 0.469137941963808 0.301521426270725 0.575371255599347 O 0.0 **** 0.0
23 H28273 0.482051968731164 0.271566357604265 0.565080043682738 H 0.0 **** 0.0
24 H28275 0.461145439685249 0.272187280706808 0.556935573813372 H 0.0 **** 0.0
25 H28277 0.477444764712553 0.285575401134516 0.508133042793986 H 0.0 **** 0.0
26 H28279 0.499193138370109 0.286096143283055 0.513792290574164 H 0.0 **** 0.0
27 H28281 0.480755456875596 0.252091936340297 0.501834259942631 H 0.0 **** 0.0
28 H28283 0.502218042773126 0.25725739979016 0.50525962364041 H 0.0 **** 0.0
29 H28285 0.50559356175845 0.235200918289621 0.526323301800876 H 0.0 **** 0.0
30 H28287 0.494907433379781 0.225896071376638 0.50903686321068 H 0.0 **** 0.0
31 H28289 0.481147509161988 0.217733343159205 0.536345537777882 H 0.0 **** 0.0
32 H28291 0.46719112474576 0.230110559274481 0.524083073386241 H 0.0 **** 0.0
33 H28293 0.487785841847124 0.24046420787287 0.555158173009284 H 0.0 **** 0.0
34 H28295 0.465617132492246 0.241358544674537 0.552445710004075 H 0.0 **** 0.0
35 H28297 0.490030483585112 0.340748410263641 0.51337317382637 H 0.0 **** 0.0
36 H28299 0.467521187571864 0.319914027124593 0.586004272516468 H 0.0 **** 0.0
37 C28022 0.624199794158398 0.473958566769089 0.75550512203891 C 0.0 **** 0.0
38 C28023 0.614231729405707 0.457656637795301 0.752320295994725 C 0.0 **** 0.0
39 C28024 0.608106568484329 0.460789777199206 0.734618463663291 C.Trigonal 0.0 **** 0.0
40 C28025 0.617231180537057 0.473454498881221 0.726775187891403 C.Trigonal 0.0 **** 0.0
41 C28026 0.63046523274973 0.480598839222248 0.738389401042982 C 0.0 **** 0.0
42 C28032 0.613704458667145 0.478358855535799 0.710451405146543 C 0.0 **** 0.0
43 C28033 0.600888340691498 0.469746565896248 0.701462664426636 C.Trigonal 0.0 **** 0.0
44 C28034 0.591670488238503 0.456342318786405 0.709531374130413 C.Trigonal 0.0 **** 0.0
45 C28035 0.595260288182334 0.452579977349057 0.72653207785587 C 0.0 **** 0.0
46 C28041 0.579668861817582 0.44718237073061 0.700196485355956 C 0.0 **** 0.0
47 C28042 0.576804018482446 0.450636726760276 0.683040844874799 C.Trigonal 0.0 **** 0.0
48 C28043 0.58607903009773 0.464201028726134 0.674976090474627 C.Trigonal 0.0 **** 0.0
49 C28044 0.59739255413031 0.4738126606168 0.684647169859595 C 0.0 **** 0.0
50 C28050 0.584413384023043 0.466719224644195 0.65748322133278 C 0.0 **** 0.0
51 C28051 0.574572903525955 0.455945649493631 0.647544715608863 C.Trigonal 0.0 **** 0.0
52 C28052 0.564874688687013 0.442836224893466 0.655629623611728 C.Trigonal 0.0 **** 0.0
53 C28053 0.565877352913458 0.440750589938317 0.673243889092461 C 0.0 **** 0.0
54 C28059 0.555378170874907 0.431549581777638 0.645716040329491 C 0.0 **** 0.0
55 C28060 0.556355280994155 0.432556956225619 0.628813002970183 C.Trigonal 0.0 **** 0.0
56 C28061 0.566028870467631 0.444646019043803 0.620167959976742 C.Trigonal 0.0 **** 0.0
57 C28062 0.574907295297013 0.456963231103723 0.629819357410705 C 0.0 **** 0.0
58 C28068 0.56685095470537 0.444668315139998 0.602301403252156 C 0.0 **** 0.0
59 C28069 0.557767902398254 0.432916613121569 0.593881977691376 C 0.0 **** 0.0
60 C28070 0.547810401421575 0.421498712195593 0.603679560535227 C 0.0 **** 0.0
61 N28071 0.546740751208067 0.420608987390633 0.62030255908367 N 0.0 **** 0.0
62 C28077 0.538261529909345 0.411036921244822 0.593107600537426 C.Trigonal 0.0 **** 0.0
63 C28078 0.541946469148546 0.415671285646205 0.576378244966692 C.Trigonal 0.0 **** 0.0
64 C28079 0.555286127014936 0.429364406429415 0.575318775216183 C 0.0 **** 0.0
65 C28084 0.533040601809961 0.408572899627522 0.563476258031072 C 0.0 **** 0.0
66 C28085 0.519708820534319 0.397146311223755 0.566976995404704 C.Trigonal 0.0 **** 0.0
67 C28086 0.515636539832992 0.392755910027787 0.58428349987861 C.Trigonal 0.0 **** 0.0
68 C28087 0.525710296047341 0.399487165860046 0.597260873376547 C 0.0 **** 0.0
69 C28093 0.500805241017273 0.38334621936749 0.587538353821008 C 0.0 **** 0.0
70 C28094 0.490222795100102 0.378464785383713 0.574636821958155 C.Trigonal 0.0 **** 0.0
71 C28095 0.494682627399516 0.38233925536977 0.558034855934445 C.Trigonal 0.0 **** 0.0
72 C28096 0.508943658303412 0.391226948420435 0.554107010248227 C 0.0 **** 0.0
73 C28102 0.482077461511438 0.376125929283251 0.54543466285519 C 0.0 **** 0.0
74 C28103 0.465324168705713 0.384681806653196 0.550735961836086 C 0.0 **** 0.0
75 C28104 0.459270122730436 0.378892180849218 0.566055679629927 C 0.0 **** 0.0
76 C28105 0.473329121237687 0.368624728020375 0.575764641932529 C 0.0 **** 0.0
77 C28111 0.459336282658188 0.398342148178464 0.541933215241165 C 0.0 **** 0.0
78 C28113 0.442724599489567 0.406942820003546 0.542647460184294 C 0.0 **** 0.0
79 C28115 0.427430818194742 0.398288595044378 0.549382853219451 C 0.0 **** 0.0
80 C28117 0.428036617018636 0.385310108609988 0.561012736784299 C.Trigonal 0.0 **** 0.0
81 C28119 0.443324775276246 0.381980830083691 0.571848444642742 C.Trigonal 0.0 **** 0.0
82 C28122 0.41377498627099 0.37525177951904 0.563776001782306 C 0.0 **** 0.0
83 C28123 0.415821315123022 0.35996840267545 0.575204530455919 C 0.0 **** 0.0
84 C28124 0.424492173701839 0.365076535627067 0.591830116381808 C 0.0 **** 0.0
85 C28125 0.436187357285235 0.380341255187183 0.589573984307253 C 0.0 **** 0.0
86 C28131 0.41182904655039 0.40269981239734 0.542751363164725 C 0.0 **** 0.0
87 C28132 0.397415627362694 0.393431421647419 0.546062578416957 C.Trigonal 0.0 **** 0.0
88 C28133 0.398614572766517 0.378859786426566 0.555653677304134 C.Trigonal 0.0 **** 0.0
89 C28138 0.383227052661979 0.367431048765842 0.557353584295908 C 0.0 **** 0.0
90 C28139 0.36888579265443 0.370396635467266 0.544669538066256 C.Trigonal 0.0 **** 0.0
91 C28140 0.367765833158192 0.385485886457188 0.535981674497833 C.Trigonal 0.0 **** 0.0
92 C28141 0.380823801876117 0.399347116580504 0.538686400279546 C 0.0 **** 0.0
93 C28147 0.354466946818968 0.388441754345818 0.524894050524398 C.Trigonal 0.0 **** 0.0
94 C28148 0.342342039039601 0.376231546742669 0.522348481018952 C.Trigonal 0.0 **** 0.0
95 C28149 0.343714016674811 0.360834906192506 0.530653577519102 C.Trigonal 0.0 **** 0.0
96 C28150 0.356829751635806 0.357927578371744 0.541858008653203 C.Trigonal 0.0 **** 0.0
97 C28156 0.358049967092484 0.340839122261238 0.550854908314172 C 0.0 **** 0.0
98 C28157 0.34119545161808 0.332054626685323 0.55342610961595 C.Trigonal 0.0 **** 0.0
99 C28158 0.328537344820582 0.335221355594782 0.542117574410239 C.Trigonal 0.0 **** 0.0
100 C28159 0.330876189729824 0.34689449746486 0.527207015776927 C 0.0 **** 0.0
101 C28165 0.312827849008366 0.327259817972632 0.544571354966388 C 0.0 **** 0.0
102 N28166 0.309083013378951 0.316817383874665 0.557092513369526 N 0.0 **** 0.0
103 C28167 0.321746448017356 0.313164794580157 0.568213385981267 C.Trigonal 0.0 **** 0.0
104 C28168 0.337765911424156 0.320565991406118 0.566479037677306 C.Trigonal 0.0 **** 0.0
105 C28174 0.349972203354208 0.315396732035833 0.578617447557919 C 0.0 **** 0.0
106 C28175 0.345807996646088 0.30420392368739 0.591295408280823 C 0.0 **** 0.0
107 C28176 0.329626524231514 0.297290579029315 0.592497899826967 C 0.0 **** 0.0
108 C28177 0.317678913433426 0.302023498069778 0.580621203541821 C 0.0 **** 0.0
109 C28183 0.327397805892597 0.379144876987607 0.510465136300295 C 0.0 **** 0.0
110 C28184 0.326662933133099 0.395836969738156 0.500959207868305 C.Trigonal 0.0 **** 0.0
111 C28185 0.339015745524999 0.407853707400414 0.503700359702169 C.Trigonal 0.0 **** 0.0
112 C28186 0.353647618484667 0.405346035027477 0.515762712193816 C 0.0 **** 0.0
113 C28192 0.338381917723671 0.422963133696912 0.495046210485326 C 0.0 **** 0.0
114 C28193 0.325559946033421 0.42649341564621 0.483723615964895 C 0.0 **** 0.0
115 C28194 0.312984837551296 0.414525532897077 0.481081797714686 C.Trigonal 0.0 **** 0.0
116 C28195 0.313565161531557 0.399221291116244 0.489659686969073 C.Trigonal 0.0 **** 0.0
117 C28201 0.299478121745166 0.386195380777622 0.487345348848715 C 0.0 **** 0.0
118 C28202 0.291612770308108 0.387231293045583 0.469649208556295 C 0.0 **** 0.0
119 C28203 0.285981424885318 0.405189002763654 0.465913854805733 C 0.0 **** 0.0
120 C28204 0.299037217251707 0.418623977091472 0.469032092843652 C 0.0 **** 0.0
121 O28210 0.622785690637022 0.491406065478968 0.703325471272938 O 0.0 **** 0.0
122 O28212 0.583857797937388 0.469185735501439 0.621437849117052 O 0.0 **** 0.0
123 C28214 0.470839273816552 0.364318292004184 0.594543781336643 C 0.0 **** 0.0
124 O28216 0.470608430142669 0.405573293261075 0.53085698127045 O 0.0 **** 0.0
125 O28218 0.44078877288507 0.420462663565184 0.535465293552056 O 0.0 **** 0.0
126 O28220 0.32622616167792 0.441840239297059 0.47588277210641 O 0.0 **** 0.0
127 O28222 0.297937812346229 0.432158953360963 0.461823777275625 O 0.0 **** 0.0
128 C28224 0.325485828504506 0.284734346668374 0.606227883180317 C 0.0 **** 0.0
129 H28304 0.634454017023738 0.472308977881315 0.764736458995382 H 0.0 **** 0.0
130 H28306 0.615426313842568 0.483334045043136 0.760799200471235 H 0.0 **** 0.0
131 H28308 0.622527472597521 0.446484475918617 0.752744094877419 H 0.0 **** 0.0
132 H28310 0.603977950258378 0.455806251840282 0.761488440064217 H 0.0 **** 0.0
133 H28312 0.631151158026934 0.494467545923873 0.737999793175867 H 0.0 **** 0.0
134 H28314 0.643083768184133 0.475607623321138 0.735285554219517 H 0.0 **** 0.0
135 H28316 0.588118481332683 0.44288770191106 0.733326278857562 H 0.0 **** 0.0
136 H28318 0.572740730762669 0.43681476555283 0.706310261405166 H 0.0 **** 0.0
137 H28320 0.604359771644839 0.484116188136186 0.678586280688497 H 0.0 **** 0.0
138 H28322 0.592084673061102 0.476642145979103 0.651574628117232 H 0.0 **** 0.0
139 H28324 0.558838910140073 0.430348540765531 0.679212221518552 H 0.0 **** 0.0
140 H28326 0.574484040789777 0.453921264208287 0.595337350749188 H 0.0 **** 0.0
141 H28328 0.550530181052962 0.440483068359466 0.568526569436824 H 0.0 **** 0.0
142 H28330 0.566882057223608 0.424832619980015 0.569128021307057 H 0.0 **** 0.0
143 H28332 0.535786274466036 0.412352763403155 0.550408904977867 H 0.0 **** 0.0
144 H28334 0.522674849399084 0.396990317858561 0.610559482390317 H 0.0 **** 0.0
145 H28336 0.497553561120919 0.380471565969174 0.600702853869422 H 0.0 **** 0.0
146 H28338 0.51134899624845 0.394428240015661 0.540815924420991 H 0.0 **** 0.0
147 H28340 0.485689089866233 0.379038177290605 0.53240913408255 H 0.0 **** 0.0
148 H28342 0.423770255394257 0.350572229111407 0.568604275923772 H 0.0 **** 0.0
149 H28344 0.403825726962467 0.353562190960109 0.57792813355107 H 0.0 **** 0.0
150 H28346 0.431465697563226 0.354189593020179 0.597005357449874 H 0.0 **** 0.0
151 H28348 0.414926275728569 0.368414457475529 0.601389688171613 H 0.0 **** 0.0
152 H28350 0.44601846045143 0.380763533603504 0.599258422662066 H 0.0 **** 0.0
153 H28352 0.428697731070859 0.39188889964167 0.592151284707731 H 0.0 **** 0.0
154 H28354 0.41060334354773 0.413546680123264 0.534144166310898 H 0.0 **** 0.0
155 H28356 0.38761435474737 0.354300926953117 0.555860615882784 H 0.0 **** 0.0
156 H28358 0.378186385124546 0.368526435837322 0.570322933125685 H 0.0 **** 0.0
157 H28360 0.375354911265511 0.409190856634125 0.546985734033928 H 0.0 **** 0.0
158 H28362 0.383660802845654 0.405612914490955 0.526614696363567 H 0.0 **** 0.0
159 H28364 0.366580934032076 0.332445643689584 0.543618365041767 H 0.0 **** 0.0
160 H28366 0.364000690342801 0.342667190931055 0.563249582080437 H 0.0 **** 0.0
161 H28368 0.318490708347576 0.352237454747725 0.523962893989026 H 0.0 **** 0.0
162 H28370 0.334958704433349 0.339501938125492 0.516052752997042 H 0.0 **** 0.0
163 H28372 0.302380536269106 0.329457686096479 0.5356996134326 H 0.0 **** 0.0
164 H28374 0.362962323102443 0.320136637127854 0.57777267585468 H 0.0 **** 0.0
165 H28376 0.355382348600966 0.300336962272377 0.600597302579568 H 0.0 **** 0.0
166 H28378 0.304880418713052 0.296677862156973 0.581040575808486 H 0.0 **** 0.0
167 H28380 0.327360841492631 0.368765717720423 0.50115564293658 H 0.0 **** 0.0
168 H28382 0.315620736510228 0.378012144783569 0.517881033929812 H 0.0 **** 0.0
169 H28384 0.353355192499605 0.415592021303333 0.525240165294579 H 0.0 **** 0.0
170 H28386 0.3653534524953 0.407080206233439 0.508365710817188 H 0.0 **** 0.0
171 H28388 0.348368962593399 0.43241407701516 0.497067643491007 H 0.0 **** 0.0
172 H28390 0.304063112056892 0.373234301177658 0.489377731587761 H 0.0 **** 0.0
173 H28392 0.289551294613219 0.388390861133941 0.496928145088087 H 0.0 **** 0.0
174 H28394 0.280765868338758 0.378566760008553 0.46853067265517 H 0.0 **** 0.0
175 H28396 0.301006323017719 0.383069658065054 0.460216745947468 H 0.0 **** 0.0
176 H28398 0.275069683517851 0.408801200382835 0.473794311432656 H 0.0 **** 0.0
177 H28400 0.28241704497236 0.407676746937394 0.452722557014098 H 0.0 **** 0.0
178 H28402 0.614716921619211 0.498966554221843 0.698596913778434 H 0.0 **** 0.0
179 H28404 0.583823138958923 0.479069227447384 0.62819849454931 H 0.0 **** 0.0
180 H28406 0.459211428908443 0.357259242323997 0.59723460486609 H 0.0 **** 0.0
181 H28408 0.470781475736015 0.37558895510497 0.602677539691723 H 0.0 **** 0.0
182 H28410 0.481516244898946 0.356404208562527 0.598647323479546 H 0.0 **** 0.0
183 H28412 0.466254534406296 0.416293714766156 0.527406262764981 H 0.0 **** 0.0
184 H28414 0.316078842921239 0.443275891188333 0.469419946780668 H 0.0 **** 0.0
185 H28416 0.311786285554448 0.28292597673409 0.607580764602361 H 0.0 **** 0.0
186 H28418 0.330338831288482 0.288937944255615 0.618565528846976 H 0.0 **** 0.0
187 H28420 0.331101572829337 0.272283348959552 0.60345985548042 H 0.0 **** 0.0
188 H28422 0.547643661783803 0.421682628723036 0.651574300106125 H 0.0 **** 0.0
@<TRIPOS>BOND
1 3 2 Partial double
2 4 3 Partial double
3 5 4 Partial double
4 6 5 Partial double
5 1 2 Partial double
6 1 6 Partial double
7 8 7 1
8 9 8 Aromatic
9 10 9 1
10 5 7 1
11 4 10 1
12 12 11 1
13 13 12 Double
14 14 13 1
15 9 11 1
16 8 14 1
17 16 15 1
18 17 16 1
19 18 17 1
20 13 15 1
21 12 18 1
22 6 19 1
23 3 20 1
24 7 21 Double
25 10 22 Double
26 11 23 1
27 11 24 1
28 14 25 1
29 14 26 1
30 15 27 1
31 15 28 1
32 16 29 1
33 16 30 1
34 17 31 1
35 17 32 1
36 18 33 1
37 18 34 1
38 19 35 1
39 20 36 1
40 39 38 1
41 40 39 Aromatic
42 41 40 1
43 37 38 1
44 37 41 1
45 43 42 Aromatic
46 44 43 Aromatic
47 45 44 Aromatic
48 40 42 Aromatic
49 39 45 Aromatic
50 47 46 Aromatic
51 48 47 Partial double
52 49 48 Aromatic
53 44 46 Aromatic
54 43 49 Aromatic
55 51 50 Partial double
56 52 51 Partial double
57 53 52 Partial double
58 48 50 Partial double
59 47 53 Partial double
60 55 54 Partial double
61 56 55 Partial double
62 57 56 Partial double
63 52 54 Partial double
64 51 57 Partial double
65 59 58 Partial double
66 60 59 Partial double
67 61 60 Partial double
68 56 58 Partial double
69 55 61 Partial double
70 63 62 Aromatic
71 64 63 1
72 60 62 1
73 59 64 1
74 66 65 Aromatic
75 67 66 Aromatic
76 68 67 Aromatic
77 63 65 Aromatic
78 62 68 Aromatic
79 70 69 Aromatic
80 71 70 Aromatic
81 72 71 Aromatic
82 67 69 Aromatic
83 66 72 Aromatic
84 74 73 1
85 75 74 1
86 76 75 1
87 71 73 1
88 70 76 1
89 74 77 Double
90 77 78 1
91 78 79 1
92 79 80 Partial double
93 80 81 1
94 75 81 Double
95 83 82 1
96 84 83 1
97 85 84 1
98 80 82 Partial double
99 81 85 1
100 87 86 Partial double
101 88 87 Partial double
102 82 88 Partial double
103 79 86 Partial double
104 90 89 1
105 91 90 Aromatic
106 92 91 1
107 88 89 1
108 87 92 1
109 94 93 Aromatic
110 95 94 Aromatic
111 96 95 Aromatic
112 91 93 Aromatic
113 90 96 Aromatic
114 98 97 1
115 99 98 Aromatic
116 100 99 1
117 96 97 1
118 95 100 1
119 102 101 Aromatic
120 103 102 Aromatic
121 104 103 Aromatic
122 99 101 Aromatic
123 98 104 Aromatic
124 106 105 Aromatic
125 107 106 Aromatic
126 108 107 Aromatic
127 104 105 Aromatic
128 103 108 Aromatic
129 110 109 1
130 111 110 Aromatic
131 112 111 1
132 94 109 1
133 93 112 1
134 114 113 Aromatic
135 115 114 Aromatic
136 116 115 Aromatic
137 111 113 Aromatic
138 110 116 Aromatic
139 118 117 1
140 119 118 1
141 120 119 1
142 116 117 1
143 115 120 1
144 42 121 1
145 57 122 1
146 76 123 1
147 77 124 1
148 78 125 Double
149 114 126 1
150 120 127 Double
151 107 128 1
152 37 129 1
153 37 130 1
154 38 131 1
155 38 132 1
156 41 133 1
157 41 134 1
158 45 135 1
159 46 136 1
160 49 137 1
161 50 138 1
162 53 139 1
163 58 140 1
164 64 141 1
165 64 142 1
166 65 143 1
167 68 144 1
168 69 145 1
169 72 146 1
170 73 147 1
171 83 148 1
172 83 149 1
173 84 150 1
174 84 151 1
175 85 152 1
176 85 153 1
177 86 154 1
178 89 155 1
179 89 156 1
180 92 157 1
181 92 158 1
182 97 159 1
183 97 160 1
184 100 161 1
185 100 162 1
186 101 163 1
187 105 164 1
188 106 165 1
189 108 166 1
190 109 167 1
191 109 168 1
192 112 169 1
193 112 170 1
194 113 171 1
195 117 172 1
196 117 173 1
197 118 174 1
198 118 175 1
199 119 176 1
200 119 177 1
201 121 178 1
202 122 179 1
203 123 180 1
204 123 181 1
205 123 182 1
206 124 183 1
207 126 184 1
208 128 185 1
209 128 186 1
210 128 187 1
211 54 188 1
212 76 2 1
213 73 1 1
@<TRIPOS>MOLECULE
Sketch 4
188 213
SMALL
USER_CHARGES


@<TRIPOS>ATOM
1 C28628 0.958723931967044 0.845122361818477 0.457176859407781 C.Trigonal 0.0 **** 0.0
2 C28629 0.956185554778374 0.861027227928412 0.463972191492409 C 0.0 **** 0.0
3 C28630 0.968711855853511 0.868152408134358 0.474095440609896 C 0.0 **** 0.0
4 C28631 0.984409057002835 0.860236547703689 0.474960581217868 C.Trigonal 0.0 **** 0.0
5 C28632 0.987378041919466 0.84529748217197 0.466447930692271 C.Trigonal 0.0 **** 0.0
6 C28633 0.974192580594038 0.83700730847741 0.458436439741459 C 0.0 **** 0.0
7 C28640 1.00494897028971 0.838190631343884 0.465232282184034 C 0.0 **** 0.0
8 C28641 1.01869783888226 0.847699739164504 0.473412465113914 C.Trigonal 0.0 **** 0.0
9 C28642 1.01563313998006 0.86165519721156 0.482778004072462 C.Trigonal 0.0 **** 0.0
10 C28643 0.998467314488578 0.868596924030634 0.484616887107837 C 0.0 **** 0.0
11 C28649 1.02957705547705 0.871270761137311 0.491921750754052 C 0.0 **** 0.0
12 C28650 1.047176115981 0.866435396410858 0.486104371419318 C.Trigonal 0.0 **** 0.0
13 C28651 1.05018929680244 0.853047599921123 0.475903645094951 C.Trigonal 0.0 **** 0.0
14 C28652 1.03641777491858 0.840811026820178 0.470570901862261 C 0.0 **** 0.0
15 C28658 1.06755551219218 0.848909697271251 0.469103222002595 C 0.0 **** 0.0
16 C28659 1.08047033105679 0.862930766344833 0.47227852729134 C 0.0 **** 0.0
17 C28660 1.07851785814658 0.869955314935606 0.490250994549434 C 0.0 **** 0.0
18 C28661 1.06109345658657 0.87796097690549 0.492346627170841 C 0.0 **** 0.0
19 O28667 0.97587752262654 0.821522796173812 0.450777703386063 O 0.0 **** 0.0
20 O28669 0.965551483857789 0.88321284308438 0.482159219238269 O 0.0 **** 0.0
21 O28671 1.00741318715607 0.825240982993651 0.457277859269461 O 0.0 **** 0.0
22 O28673 0.995387110144917 0.880828797175714 0.49342677764094 O 0.0 **** 0.0
23 H28675 1.02802615827696 0.885003160937374 0.489804560876689 H 0.0 **** 0.0
24 H28677 1.02859973947543 0.86905323053928 0.505648905469153 H 0.0 **** 0.0
25 H28679 1.03810871905928 0.82881601649239 0.477472234747243 H 0.0 **** 0.0
26 H28681 1.03815449370952 0.838036539122296 0.456975341967443 H 0.0 **** 0.0
27 H28683 1.07194540071953 0.83709312750153 0.475025732389831 H 0.0 **** 0.0
28 H28685 1.06673113056352 0.846299421201663 0.455405967631851 H 0.0 **** 0.0
29 H28687 1.07848172199829 0.873226807224952 0.463092912180711 H 0.0 **** 0.0
30 H28689 1.09335422690529 0.858066095644178 0.470077658525855 H 0.0 **** 0.0
31 H28691 1.08848392225056 0.879192487578097 0.49330667499968 H 0.0 **** 0.0
32 H28693 1.07993608356114 0.85949159285381 0.49932426024643 H 0.0 **** 0.0
33 H28695 1.06052813174975 0.889962201396163 0.485258965403259 H 0.0 **** 0.0
34 H28697 1.05892028695024 0.881103242266415 0.505768588609181 H 0.0 **** 0.0
35 H28699 0.987494737039576 0.818256562477321 0.451037039985185 H 0.0 **** 0.0
36 H28701 0.975119227468517 0.886124364344628 0.48892029422941 H 0.0 **** 0.0
37 C28424 1.02857888005454 1.04322839029693 0.291283151514742 C 0.0 **** 0.0
38 C28425 1.0112981677162 1.0406960683859 0.299806232770662 C 0.0 **** 0.0
39 C28426 1.01324263125879 1.02306024818614 0.306696784721762 C.Trigonal 0.0 **** 0.0
40 C28427 1.02638336643871 1.01462759067055 0.298847755891567 C.Trigonal 0.0 **** 0.0
41 C28428 1.03511951402235 1.02570320611009 0.286070886324228 C 0.0 **** 0.0
42 C28434 1.0300235032089 0.998060127854018 0.302674143649811 C 0.0 **** 0.0
43 C28435 1.02091998235503 0.9899353911606 0.315689170845752 C.Trigonal 0.0 **** 0.0
44 C28436 1.00705776460565 0.998593032805761 0.323593989033873 C.Trigonal 0.0 **** 0.0
45 C28437 1.00350672398833 1.0153752134575 0.318739924984782 C 0.0 **** 0.0
46 C28443 0.997239859588095 0.989962592155071 0.335569520637259 C 0.0 **** 0.0
47 C28444 1.00094072049637 0.973269814764604 0.340282762773357 C.Trigonal 0.0 **** 0.0
48 C28445 1.01495376548248 0.964628377967018 0.332290744843493 C.Trigonal 0.0 **** 0.0
49 C28446 1.02490462148196 0.973403563810024 0.32052765990764 C 0.0 **** 0.0
50 C28452 1.01718697913882 0.947257160678692 0.335219599061891 C 0.0 **** 0.0
51 C28453 1.00601678538645 0.938187402692075 0.345466166139407 C.Trigonal 0.0 **** 0.0
52 C28454 0.993198436717834 0.947066256203893 0.354830200091115 C.Trigonal 0.0 **** 0.0
53 C28455 0.990813769031453 0.964414407687707 0.351796611695635 C 0.0 **** 0.0
54 C28461 0.982366973631618 0.938049854390227 0.365750670792689 C 0.0 **** 0.0
55 C28462 0.982942185765816 0.921059641035498 0.365693199305595 C.Trigonal 0.0 **** 0.0
56 C28463 0.993894471307223 0.911645884249084 0.355355702165872 C.Trigonal 0.0 **** 0.0
57 C28464 1.00609798245974 0.920436983759018 0.345542632143107 C 0.0 **** 0.0
58 C28470 0.992460081179963 0.893856938083217 0.354292382062475 C 0.0 **** 0.0
59 C28471 0.980596826042994 0.886231438509568 0.36390381381698 C 0.0 **** 0.0
60 C28472 0.970850920892902 0.896600847838667 0.375064741082597 C 0.0 **** 0.0
61 N28473 0.971294428677916 0.913254322642908 0.376373666892887 N 0.0 **** 0.0
62 C28479 0.960356132278259 0.886499508678286 0.385189765123445 C.Trigonal 0.0 **** 0.0
63 C28480 0.963266517235158 0.869661671417559 0.380388482630039 C.Trigonal 0.0 **** 0.0
64 C28481 0.975676934071934 0.867927661606164 0.365893409076278 C 0.0 **** 0.0
65 C28486 0.955932957171428 0.856951436908998 0.389356809073387 C 0.0 **** 0.0
66 C28487 0.946676384567429 0.860507476626555 0.404291579676867 C.Trigonal 0.0 **** 0.0
67 C28488 0.944508797852959 0.877785221594783 0.409906281629507 C.Trigonal 0.0 **** 0.0
68 C28489 0.950575222277384 0.890729149484318 0.399244662582424 C 0.0 **** 0.0
69 C28495 0.940348899183738 0.880630227111084 0.427147514364289 C 0.0 **** 0.0
70 C28496 0.940103365236522 0.867628921948209 0.438789003251118 C.Trigonal 0.0 **** 0.0
71 C28497 0.942435322787348 0.85121524316571 0.432913184557684 C.Trigonal 0.0 **** 0.0
72 C28498 0.944075381564996 0.847538035157691 0.416115128728733 C 0.0 **** 0.0
73 C28504 0.944092265146783 0.838527818519899 0.446727019889211 C 0.0 **** 0.0
74 C28505 0.927569488035124 0.839722170674103 0.456983199472513 C 0.0 **** 0.0
75 C28506 0.92553898525804 0.85496185445068 0.465255612005434 C 0.0 **** 0.0
76 C28507 0.939083705670694 0.86840445943702 0.458469686848353 C 0.0 **** 0.0
77 C28513 0.915934868342973 0.827062208644761 0.455237841139095 C 0.0 **** 0.0
78 C28515 0.900227926215097 0.823680305558783 0.464644918363364 C 0.0 **** 0.0
79 C28517 0.897312374112167 0.830420439560321 0.482001421064358 C 0.0 **** 0.0
80 C28519 0.904572561603362 0.844968431861584 0.488553142384246 C.Trigonal 0.0 **** 0.0
81 C28521 0.913571316414074 0.857897112975442 0.477500254141072 C.Trigonal 0.0 **** 0.0
82 C28524 0.902987263686878 0.848280688228855 0.505969019614775 C 0.0 **** 0.0
83 C28525 0.910700919377523 0.863938555533342 0.514328168363887 C 0.0 **** 0.0
84 C28526 0.918791460633511 0.876242165690428 0.501731317407659 C 0.0 **** 0.0
85 C28527 0.909121887936237 0.874911693794088 0.485138545989661 C 0.0 **** 0.0
86 C28533 0.887317819237129 0.820501487738686 0.492421254211489 C 0.0 **** 0.0
87 C28534 0.88551930530716 0.823740840736927 0.50936553067258 C.Trigonal 0.0 **** 0.0
88 C28535 0.893972728150768 0.837277305936904 0.51641822098162 C.Trigonal 0.0 **** 0.0
89 C28540 0.892973238586481 0.838962867272563 0.535665857911253 C 0.0 **** 0.0
90 C28541 0.876178849477213 0.833067545137396 0.54330874484907 C.Trigonal 0.0 **** 0.0
91 C28542 0.866804158270683 0.820947114647836 0.534870757703527 C.Trigonal 0.0 **** 0.0
92 C28543 0.875090954517995 0.811958220189981 0.520113443006513 C 0.0 **** 0.0
93 C28549 0.850665800574885 0.817013892658961 0.54032734938671 C.Trigonal 0.0 **** 0.0
94 C28550 0.844708913420878 0.823886298884668 0.555238551546078 C.Trigonal 0.0 **** 0.0
95 C28551 0.854846813913982 0.834624552508858 0.564702696978196 C.Trigonal 0.0 **** 0.0
96 C28552 0.87057214994544 0.839321492992573 0.558740687619801 C.Trigonal 0.0 **** 0.0
97 C28558 0.881972918877734 0.851173661146982 0.568911663549763 C 0.0 **** 0.0
98 C28559 0.877274916089645 0.85362610112717 0.587369501291258 C.Trigonal 0.0 **** 0.0
99 C28560 0.861479597139493 0.849145697800426 0.592704082743815 C.Trigonal 0.0 **** 0.0
100 C28561 0.848169845173029 0.841438011341926 0.581395035381261 C 0.0 **** 0.0
101 C28567 0.857143405902216 0.852060102841817 0.609718826013241 C 0.0 **** 0.0
102 N28568 0.867058917430332 0.859031325535259 0.621207156192103 N 0.0 **** 0.0
103 C28569 0.882956754029692 0.863456662964988 0.616117600946408 C.Trigonal 0.0 **** 0.0
104 C28570 0.888295123650424 0.860562375895693 0.599459294851068 C.Trigonal 0.0 **** 0.0
105 C28576 0.905227085917544 0.865544550923735 0.595854465084166 C 0.0 **** 0.0
106 C28577 0.915057588598531 0.873164052172853 0.608061557641502 C 0.0 **** 0.0
107 C28578 0.908816937113012 0.876404592352673 0.624247889721702 C 0.0 **** 0.0
108 C28579 0.892590455769936 0.871113676348385 0.62807218906316 C 0.0 **** 0.0
109 C28585 0.827105209021337 0.818973377587043 0.561476279260963 C 0.0 **** 0.0
110 C28586 0.8146056151052 0.816354264725177 0.547163263891409 C.Trigonal 0.0 **** 0.0
111 C28587 0.820783069786248 0.809946859984776 0.53211005670179 C.Trigonal 0.0 **** 0.0
112 C28588 0.839226288188673 0.805090927151196 0.530522826815564 C 0.0 **** 0.0
113 C28594 0.810142377484866 0.808216145046823 0.518441221118157 C 0.0 **** 0.0
114 C28595 0.793353421739872 0.813069611861791 0.519405294828295 C 0.0 **** 0.0
115 C28596 0.787033442820382 0.819027158838483 0.534704784877236 C.Trigonal 0.0 **** 0.0
116 C28597 0.797549271675351 0.820214473706783 0.548689199202274 C.Trigonal 0.0 **** 0.0
117 C28603 0.790733553606488 0.826491701833989 0.565600276429308 C 0.0 **** 0.0
118 C28604 0.772059311596295 0.821760653888257 0.567849300725081 C 0.0 **** 0.0
119 C28605 0.761807266256449 0.828047860380353 0.552918560287727 C 0.0 **** 0.0
120 C28606 0.768927482753311 0.824268767366013 0.53572516264976 C 0.0 **** 0.0
121 O28612 1.04252202416846 0.989553550749532 0.293835435567911 O 0.0 **** 0.0
122 O28614 1.01739962646086 0.911396144021146 0.335847479974016 O 0.0 **** 0.0
123 C28616 0.937566960844011 0.887364193345434 0.462816451402676 C 0.0 **** 0.0
124 O28618 0.919144958003944 0.815949450796151 0.442270412808694 O 0.0 **** 0.0
125 O28620 0.890020486994714 0.813478318227495 0.459112676253382 O 0.0 **** 0.0
126 O28622 0.783960182708012 0.81157448452227 0.504964192769923 O 0.0 **** 0.0
127 O28624 0.759972904598337 0.82591506606195 0.523337361238077 O 0.0 **** 0.0
128 C28626 0.919438078498754 0.885611026576658 0.63712346539434 C 0.0 **** 0.0
129 H28706 1.03741214816749 1.04870500640894 0.300559536381887 H 0.0 **** 0.0
130 H28708 1.02800819255311 1.05209339514289 0.280584956136066 H 0.0 **** 0.0
131 H28710 1.00860963537072 1.05022752032418 0.309537837050537 H 0.0 **** 0.0
132 H28712 1.00099871385326 1.04114796656371 0.290423254646755 H 0.0 **** 0.0
133 H28714 1.03122296162054 1.02247940556852 0.273126790955068 H 0.0 **** 0.0
134 H28716 1.04896913253373 1.02479463908368 0.286615206026454 H 0.0 **** 0.0
135 H28718 0.992990374077772 1.02239295184421 0.324448982633996 H 0.0 **** 0.0
136 H28720 0.986325376218364 0.996360533079188 0.341288240990115 H 0.0 **** 0.0
137 H28722 1.03542185626939 0.966806444144784 0.314282998171766 H 0.0 **** 0.0
138 H28724 1.02711622599203 0.940671138069646 0.328089199854809 H 0.0 **** 0.0
139 H28726 0.980267775225361 0.970973902263187 0.358022723806211 H 0.0 **** 0.0
140 H28728 1.00055543529736 0.886331677908507 0.345903240437998 H 0.0 **** 0.0
141 H28730 0.969694065473313 0.862741351844166 0.354429394140781 H 0.0 **** 0.0
142 H28732 0.986518238691012 0.859894244163982 0.369290885891654 H 0.0 **** 0.0
143 H28734 0.958938871058781 0.843835204384925 0.385957649360018 H 0.0 **** 0.0
144 H28736 0.949953797725511 0.904010747511957 0.403229986095639 H 0.0 **** 0.0
145 H28738 0.939472655201253 0.893672772314635 0.43168390640828 H 0.0 **** 0.0
146 H28740 0.946413892437059 0.834358262757066 0.41258172201254 H 0.0 **** 0.0
147 H28742 0.946589769320059 0.825775905773112 0.442025463298138 H 0.0 **** 0.0
148 H28744 0.919820624244886 0.860215327717209 0.524191145440392 H 0.0 **** 0.0
149 H28746 0.900435996496033 0.870844321415209 0.520786968424052 H 0.0 **** 0.0
150 H28748 0.932189782415739 0.872958272850194 0.499691566888957 H 0.0 **** 0.0
151 H28750 0.91867886117333 0.889184088031789 0.506874151659466 H 0.0 **** 0.0
152 H28752 0.911526811123395 0.885244441287998 0.47634028165111 H 0.0 **** 0.0
153 H28754 0.895379178723962 0.875941936979396 0.487612104781968 H 0.0 **** 0.0
154 H28756 0.88102592368191 0.809142356402018 0.487500233737946 H 0.0 **** 0.0
155 H28758 0.90337128462763 0.831541046556872 0.541348595824786 H 0.0 **** 0.0
156 H28760 0.895179325315672 0.852135135727056 0.539354536221118 H 0.0 **** 0.0
157 H28762 0.866003118288312 0.805395406876086 0.51204416639755 H 0.0 **** 0.0
158 H28764 0.883392462224037 0.801972540742669 0.525287451031743 H 0.0 **** 0.0
159 H28766 0.894948317951957 0.846154745751332 0.568344462017123 H 0.0 **** 0.0
160 H28768 0.882263914469464 0.86367519293011 0.562663361003205 H 0.0 **** 0.0
161 H28770 0.838273460977456 0.850978967561751 0.578855618517551 H 0.0 **** 0.0
162 H28772 0.842055796504885 0.831100250506683 0.588462746360612 H 0.0 **** 0.0
163 H28774 0.844517096508942 0.84867687517137 0.614418259382811 H 0.0 **** 0.0
164 H28776 0.910572273554777 0.86370175688918 0.583176689478422 H 0.0 **** 0.0
165 H28778 0.928035927277666 0.877149807828453 0.605059455785142 H 0.0 **** 0.0
166 H28780 0.887315141623771 0.873302551367929 0.640730924812378 H 0.0 **** 0.0
167 H28782 0.82798119065131 0.807401439573385 0.569260381821873 H 0.0 **** 0.0
168 H28784 0.822294465425391 0.828939293388476 0.569802783061923 H 0.0 **** 0.0
169 H28786 0.842319982755171 0.805128528560564 0.517031841033678 H 0.0 **** 0.0
170 H28788 0.841110857718197 0.792021999454684 0.534975469130114 H 0.0 **** 0.0
171 H28790 0.815148240749181 0.803278766517847 0.506443987372464 H 0.0 **** 0.0
172 H28792 0.797927023465829 0.821008910427509 0.576161456222486 H 0.0 **** 0.0
173 H28794 0.792230453751601 0.840348577723677 0.56639332364096 H 0.0 **** 0.0
174 H28796 0.766934069493053 0.827079007291897 0.579653387162129 H 0.0 **** 0.0
175 H28798 0.770997365959626 0.807893827059698 0.568933448172655 H 0.0 **** 0.0
176 H28800 0.760499017723635 0.841915856844662 0.553052785922224 H 0.0 **** 0.0
177 H28802 0.748945052373286 0.822869263876115 0.551965209788469 H 0.0 **** 0.0
178 H28804 1.03694577246222 0.984168837677421 0.284512768325534 H 0.0 **** 0.0
179 H28806 1.02843359399608 0.915131891195962 0.338869089429308 H 0.0 **** 0.0
180 H28808 0.937158876017393 0.890061650904774 0.476416819882458 H 0.0 **** 0.0
181 H28810 0.926372012005524 0.893282572615095 0.457054212606998 H 0.0 **** 0.0
182 H28812 0.948669471422491 0.894146392350488 0.457807873911612 H 0.0 **** 0.0
183 H28814 0.909927967998004 0.816058751890856 0.434535532999594 H 0.0 **** 0.0
184 H28816 0.773119188114125 0.816468702502368 0.507076789703844 H 0.0 **** 0.0
185 H28818 0.91226552248494 0.888350241059029 0.64869087267007 H 0.0 **** 0.0
186 H28820 0.923989311033794 0.897781188027494 0.632173458022948 H 0.0 **** 0.0
187 H28822 0.930619557722639 0.878211617446012 0.64075731759704 H 0.0 **** 0.0
188 H28824 0.972784618910881 0.944591086079715 0.373365706723844 H 0.0 **** 0.0
@<TRIPOS>BOND
1 3 2 Partial double
2 4 3 Partial double
3 5 4 Partial double
4 6 5 Partial double
5 1 2 Partial double
6 1 6 Partial double
7 8 7 1
8 9 8 Aromatic
9 10 9 1
10 5 7 1
11 4 10 1
12 12 11 1
13 13 12 Double
14 14 13 1
15 9 11 1
16 8 14 1
17 16 15 1
18 17 16 1
19 18 17 1
20 13 15 1
21 12 18 1
22 6 19 1
23 3 20 1
24 7 21 Double
25 10 22 Double
26 11 23 1
27 11 24 1
28 14 25 1
29 14 26 1
30 15 27 1
31 15 28 1
32 16 29 1
33 16 30 1
34 17 31 1
35 17 32 1
36 18 33 1
37 18 34 1
38 19 35 1
39 20 36 1
40 39 38 1
41 40 39 Aromatic
42 41 40 1
43 37 38 1
44 37 41 1
45 43 42 Aromatic
46 44 43 Aromatic
47 45 44 Aromatic
48 40 42 Aromatic
49 39 45 Aromatic
50 47 46 Aromatic
51 48 47 Partial double
52 49 48 Aromatic
53 44 46 Aromatic
54 43 49 Aromatic
55 51 50 Partial double
56 52 51 Partial double
57 53 52 Partial double
58 48 50 Partial double
59 47 53 Partial double
60 55 54 Partial double
61 56 55 Partial double
62 57 56 Partial double
63 52 54 Partial double
64 51 57 Partial double
65 59 58 Partial double
66 60 59 Partial double
67 61 60 Partial double
68 56 58 Partial double
69 55 61 Partial double
70 63 62 Aromatic
71 64 63 1
72 60 62 1
73 59 64 1
74 66 65 Aromatic
75 67 66 Aromatic
76 68 67 Aromatic
77 63 65 Aromatic
78 62 68 Aromatic
79 70 69 Aromatic
80 71 70 Aromatic
81 72 71 Aromatic
82 67 69 Aromatic
83 66 72 Aromatic
84 74 73 1
85 75 74 1
86 76 75 1
87 71 73 1
88 70 76 1
89 74 77 Double
90 77 78 1
91 78 79 1
92 79 80 Partial double
93 80 81 1
94 75 81 Double
95 83 82 1
96 84 83 1
97 85 84 1
98 80 82 Partial double
99 81 85 1
100 87 86 Partial double
101 88 87 Partial double
102 82 88 Partial double
103 79 86 Partial double
104 90 89 1
105 91 90 Aromatic
106 92 91 1
107 88 89 1
108 87 92 1
109 94 93 Aromatic
110 95 94 Aromatic
111 96 95 Aromatic
112 91 93 Aromatic
113 90 96 Aromatic
114 98 97 1
115 99 98 Aromatic
116 100 99 1
117 96 97 1
118 95 100 1
119 102 101 Aromatic
120 103 102 Aromatic
121 104 103 Aromatic
122 99 101 Aromatic
123 98 104 Aromatic
124 106 105 Aromatic
125 107 106 Aromatic
126 108 107 Aromatic
127 104 105 Aromatic
128 103 108 Aromatic
129 110 109 1
130 111 110 Aromatic
131 112 111 1
132 94 109 1
133 93 112 1
134 114 113 Aromatic
135 115 114 Aromatic
136 116 115 Aromatic
137 111 113 Aromatic
138 110 116 Aromatic
139 118 117 1
140 119 118 1
141 120 119 1
142 116 117 1
143 115 120 1
144 42 121 1
145 57 122 1
146 76 123 1
147 77 124 1
148 78 125 Double
149 114 126 1
150 120 127 Double
151 107 128 1
152 37 129 1
153 37 130 1
154 38 131 1
155 38 132 1
156 41 133 1
157 41 134 1
158 45 135 1
159 46 136 1
160 49 137 1
161 50 138 1
162 53 139 1
163 58 140 1
164 64 141 1
165 64 142 1
166 65 143 1
167 68 144 1
168 69 145 1
169 72 146 1
170 73 147 1
171 83 148 1
172 83 149 1
173 84 150 1
174 84 151 1
175 85 152 1
176 85 153 1
177 86 154 1
178 89 155 1
179 89 156 1
180 92 157 1
181 92 158 1
182 97 159 1
183 97 160 1
184 100 161 1
185 100 162 1
186 101 163 1
187 105 164 1
188 106 165 1
189 108 166 1
190 109 167 1
191 109 168 1
192 112 169 1
193 112 170 1
194 113 171 1
195 117 172 1
196 117 173 1
197 118 174 1
198 118 175 1
199 119 176 1
200 119 177 1
201 121 178 1
202 122 179 1
203 123 180 1
204 123 181 1
205 123 182 1
206 124 183 1
207 126 184 1
208 128 185 1
209 128 186 1
210 128 187 1
211 54 188 1
212 76 2 1
213 73 1 1
@<TRIPOS>MOLECULE
Sketch 4
188 213
SMALL
USER_CHARGES


@<TRIPOS>ATOM
1 C29030 0.746052428087609 0.5742212014403 0.953221621805384 C.Trigonal 0.0 **** 0.0
2 C29031 0.756234506914641 0.586594205303545 0.960233221035169 C 0.0 **** 0.0
3 C29032 0.7737200709757 0.584480763751249 0.959943773059219 C 0.0 **** 0.0
4 C29033 0.780527576440585 0.570399083205663 0.95184189106829 C.Trigonal 0.0 **** 0.0
5 C29034 0.770181162489724 0.55821889497797 0.944795390909806 C.Trigonal 0.0 **** 0.0
6 C29035 0.752759507356335 0.559950332361713 0.945606806415403 C 0.0 **** 0.0
7 C29042 0.777607672187022 0.543105957899428 0.935955464372975 C 0.0 **** 0.0
8 C29043 0.796144627977233 0.542199697658848 0.934347726233111 C.Trigonal 0.0 **** 0.0
9 C29044 0.806307667939555 0.554245775580364 0.940968460150724 C.Trigonal 0.0 **** 0.0
10 C29045 0.79944668972755 0.568717412212454 0.950481735338147 C 0.0 **** 0.0
11 C29051 0.825462985328089 0.553891740782619 0.938989300349125 C 0.0 **** 0.0
12 C29052 0.831426746884218 0.541409008637074 0.925686664068796 C.Trigonal 0.0 **** 0.0
13 C29053 0.821236304154033 0.52936458939601 0.91911635791365 C.Trigonal 0.0 **** 0.0
14 C29054 0.803016301063526 0.527028338830567 0.924670679614476 C 0.0 **** 0.0
15 C29060 0.827131605790319 0.517166889156499 0.905619631864212 C 0.0 **** 0.0
16 C29061 0.843179714040541 0.523007738830306 0.896624130906028 C 0.0 **** 0.0
17 C29062 0.856198026044122 0.528903640927748 0.909681537981427 C 0.0 **** 0.0
18 C29063 0.849438976729844 0.543911480398904 0.91978480349823 C 0.0 **** 0.0
19 O29069 0.741627515221526 0.54837688640518 0.938905172738143 O 0.0 **** 0.0
20 O29071 0.783777011697436 0.596522810078338 0.967403993050082 O 0.0 **** 0.0
21 O29073 0.768234224260572 0.532289033213433 0.93027770113345 O 0.0 **** 0.0
22 O29075 0.808530747761605 0.579313203265171 0.956977206744981 O 0.0 **** 0.0
23 H29077 0.830041841069996 0.566585723095301 0.935285299318576 H 0.0 **** 0.0
24 H29079 0.831479657271591 0.550830868797871 0.951189062272177 H 0.0 **** 0.0
25 H29081 0.801974646451904 0.51546015784807 0.932394507157505 H 0.0 **** 0.0
26 H29083 0.79527328710813 0.524979689678673 0.913201316401499 H 0.0 **** 0.0
27 H29085 0.829389116167724 0.504741224075865 0.911552572371317 H 0.0 **** 0.0
28 H29087 0.816953155848564 0.515319796285472 0.896327016999871 H 0.0 **** 0.0
29 H29089 0.840260644849898 0.533480628462063 0.88789748043097 H 0.0 **** 0.0
30 H29091 0.84824744271313 0.512600650545595 0.888852813589137 H 0.0 **** 0.0
31 H29093 0.868297962615537 0.532320010549558 0.903678673141841 H 0.0 **** 0.0
32 H29095 0.858797854977531 0.518249988741358 0.918240226535499 H 0.0 **** 0.0
33 H29097 0.849887679578731 0.555367237130989 0.911823771301562 H 0.0 **** 0.0
34 H29099 0.857700703758408 0.546472893433988 0.930733225180953 H 0.0 **** 0.0
35 H29101 0.747909828322832 0.539215877070015 0.934168442295639 H 0.0 **** 0.0
36 H29103 0.795370107972399 0.593700006509305 0.96556120624726 H 0.0 **** 0.0
37 C28826 0.797272318445516 0.805877500754397 0.829580146954254 C 0.0 **** 0.0
38 C28827 0.786889951489827 0.804466097610571 0.845921571162461 C 0.0 **** 0.0
39 C28828 0.780912879857341 0.786426170599216 0.844743161519363 C.Trigonal 0.0 **** 0.0
40 C28829 0.782005764864751 0.780432647007155 0.828360601026215 C.Trigonal 0.0 **** 0.0
41 C28830 0.789242165481795 0.793691890089418 0.81675674591358 C 0.0 **** 0.0
42 C28836 0.776780611484287 0.76436802158281 0.824192255988229 C 0.0 **** 0.0
43 C28837 0.770146667463903 0.753849780484044 0.837164730610761 C.Trigonal 0.0 **** 0.0
44 C28838 0.769781630549913 0.759870703639181 0.854286496582722 C.Trigonal 0.0 **** 0.0
45 C28839 0.775029874361141 0.776554412764236 0.857638749127071 C 0.0 **** 0.0
46 C28845 0.764431833097494 0.748959785666844 0.86720000932625 C 0.0 **** 0.0
47 C28846 0.759249013768841 0.732378608531342 0.863693946090185 C.Trigonal 0.0 **** 0.0
48 C28847 0.758759080740623 0.726643774059345 0.846330908790384 C.Trigonal 0.0 **** 0.0
49 C28848 0.764167349596283 0.73761340297665 0.833476769076315 C 0.0 **** 0.0
50 C28854 0.75303585152456 0.710213123595236 0.842804686988883 C 0.0 **** 0.0
51 C28855 0.747816163068946 0.69925159000564 0.855659436756479 C.Trigonal 0.0 **** 0.0
52 C28856 0.748991633480802 0.704694955370734 0.872991362679131 C.Trigonal 0.0 **** 0.0
53 C28857 0.754593188014301 0.721167544555573 0.876581716546405 C 0.0 **** 0.0
54 C28863 0.744331787039505 0.693565237837596 0.886103559586425 C 0.0 **** 0.0
55 C28864 0.737822441568392 0.678398275156538 0.882118416966291 C.Trigonal 0.0 **** 0.0
56 C28865 0.735282922599977 0.672803314635126 0.865484869845417 C.Trigonal 0.0 **** 0.0
57 C28866 0.74108715087904 0.683243267401093 0.851967289220481 C 0.0 **** 0.0
58 C28872 0.72704920559265 0.657236538530271 0.862190432432074 C 0.0 **** 0.0
59 C28873 0.722320338893847 0.647675620827948 0.87553703952945 C 0.0 **** 0.0
60 C28874 0.7265086490921 0.653816435936201 0.891983649585514 C 0.0 **** 0.0
61 N28875 0.733650219327665 0.668387616828506 0.895975738353335 N 0.0 **** 0.0
62 C28881 0.722503471641699 0.641716330225762 0.904257444674424 C.Trigonal 0.0 **** 0.0
63 C28882 0.715388209370621 0.627744774269482 0.895915011171468 C.Trigonal 0.0 **** 0.0
64 C28883 0.713724926383709 0.630653020923991 0.876980975272818 C 0.0 **** 0.0
65 C28888 0.711736490385552 0.613526863992199 0.904978055638047 C 0.0 **** 0.0
66 C28889 0.716322131692981 0.612350455550312 0.922316282811541 C.Trigonal 0.0 **** 0.0
67 C28890 0.725047825440607 0.626289140798054 0.930333488020077 C.Trigonal 0.0 **** 0.0
68 C28891 0.726824721515129 0.641451657286446 0.921290741326001 C 0.0 **** 0.0
69 C28897 0.734049467240748 0.623221670508816 0.945486588547616 C 0.0 **** 0.0
70 C28898 0.734626082786538 0.607378861843249 0.952645474334811 C.Trigonal 0.0 **** 0.0
71 C28899 0.725102589045662 0.594464513268504 0.94542480093888 C.Trigonal 0.0 **** 0.0
72 C28900 0.715750036625725 0.59682870346186 0.931044745986213 C 0.0 **** 0.0
73 C28906 0.727316654240167 0.577932523372597 0.954349372406402 C 0.0 **** 0.0
74 C28907 0.72313756299183 0.580757258126671 0.973321918664789 C 0.0 **** 0.0
75 C28908 0.734000800228391 0.591960229037344 0.981190304159066 C 0.0 **** 0.0
76 C28909 0.745645154935961 0.601220579043379 0.967613335835779 C 0.0 **** 0.0
77 C28915 0.708981480678847 0.573369956618911 0.979977755374508 C 0.0 **** 0.0
78 C28917 0.703334348919966 0.571482985478832 0.997713274769072 C 0.0 **** 0.0
79 C28919 0.714778680477331 0.573399544633301 1.01258051660405 C 0.0 **** 0.0
80 C28921 0.729986923377851 0.58212631142043 1.01222830208997 C.Trigonal 0.0 **** 0.0
81 C28923 0.734760451026615 0.594482975706868 0.998336079934629 C.Trigonal 0.0 **** 0.0
82 C28926 0.741425596183612 0.579816388188437 1.02556769133729 C 0.0 **** 0.0
83 C28927 0.758643946321921 0.588561565903767 1.02636130569754 C 0.0 **** 0.0
84 C28928 0.761305386395513 0.601782478506728 1.01249574939145 C 0.0 **** 0.0
85 C28929 0.744121078837558 0.608637729692083 1.0072909879293 C 0.0 **** 0.0
86 C28935 0.710144625926994 0.564907865994708 1.02728383622692 C 0.0 **** 0.0
87 C28936 0.721070460379986 0.56302931416641 1.04066817962206 C.Trigonal 0.0 **** 0.0
88 C28937 0.737281970967474 0.569363683573418 1.03910174050738 C.Trigonal 0.0 **** 0.0
89 C28942 0.749715754608701 0.564768357936755 1.05300099831669 C 0.0 **** 0.0
90 C28943 0.746789424271648 0.546812115224947 1.05951335777851 C.Trigonal 0.0 **** 0.0
91 C28944 0.730236747079668 0.541872515267297 1.06218180715135 C.Trigonal 0.0 **** 0.0
92 C28945 0.716104418360929 0.553632290953543 1.05664050529522 C 0.0 **** 0.0
93 C28951 0.726953765001682 0.526546530054045 1.06983861342513 C.Trigonal 0.0 **** 0.0
94 C28952 0.739968229003581 0.515181582233922 1.07253056925464 C.Trigonal 0.0 **** 0.0
95 C28953 0.756533647459514 0.519773275493163 1.06918993267769 C.Trigonal 0.0 **** 0.0
96 C28954 0.759991364595475 0.535735570044673 1.06295242513545 C.Trigonal 0.0 **** 0.0
97 C28960 0.778096981858011 0.541334805186021 1.05931417149081 C 0.0 **** 0.0
98 C28961 0.792110135036434 0.529717313789277 1.06523653115629 C.Trigonal 0.0 **** 0.0
99 C28962 0.788328929576661 0.514170258689713 1.07166187976223 C.Trigonal 0.0 **** 0.0
100 C28963 0.77059006598387 0.507129770376416 1.07274830588596 C 0.0 **** 0.0
101 C28969 0.80175109963616 0.504161629268921 1.07777061864407 C 0.0 **** 0.0
102 N28970 0.817930155674363 0.508393371174222 1.07771689187125 N 0.0 **** 0.0
103 C28971 0.821923017433799 0.523608406190758 1.07058154800416 C.Trigonal 0.0 **** 0.0
104 C28972 0.809253586719527 0.534157313271898 1.06413084214192 C.Trigonal 0.0 **** 0.0
105 C28978 0.815040030525243 0.549265511652539 1.05624228124811 C 0.0 **** 0.0
106 C28979 0.832035831674913 0.552939281046731 1.05538646749602 C 0.0 **** 0.0
107 C28980 0.844104926711609 0.542324682537961 1.06264905092754 C 0.0 **** 0.0
108 C28981 0.83862748962576 0.527525845342693 1.07027048376692 C 0.0 **** 0.0
109 C28987 0.735058369871527 0.497749079503303 1.07916141106747 C 0.0 **** 0.0
110 C28988 0.723129039208025 0.499694814588502 1.09399069571547 C.Trigonal 0.0 **** 0.0
111 C28989 0.710831071031082 0.512052215843073 1.09227016504202 C.Trigonal 0.0 **** 0.0
112 C28990 0.709383360964307 0.521525280594083 1.07564716873179 C 0.0 **** 0.0
113 C28996 0.700591691868097 0.515852642139045 1.10577101181567 C 0.0 **** 0.0
114 C28997 0.702057824973302 0.50723176084024 1.12094361659921 C 0.0 **** 0.0
115 C28998 0.713777290562685 0.494168020324513 1.1222853470826 C.Trigonal 0.0 **** 0.0
116 C28999 0.724085214311434 0.490157739061867 1.10866907617558 C.Trigonal 0.0 **** 0.0
117 C29005 0.736950506687574 0.475836538631155 1.109741343836 C 0.0 **** 0.0
118 C29006 0.731505651836072 0.462257730307621 1.12246165278764 C 0.0 **** 0.0
119 C29007 0.727192825935142 0.470203770169658 1.13937707921016 C 0.0 **** 0.0
120 C29008 0.715151426246927 0.484878811398652 1.1386529775973 C 0.0 **** 0.0
121 O29014 0.777726292975203 0.758277760361689 0.808055976109891 O 0.0 **** 0.0
122 O29016 0.739634702787144 0.67729892545593 0.835829087724798 O 0.0 **** 0.0
123 C29018 0.756665564942521 0.616607576846088 0.972455540284563 C 0.0 **** 0.0
124 O29020 0.698032718280289 0.566598150346066 0.968304193602543 O 0.0 **** 0.0
125 O29022 0.689143877483965 0.566017691455255 1.00040872523058 O 0.0 **** 0.0
126 O29024 0.691631334631784 0.512225530987295 1.13382138973143 O 0.0 **** 0.0
127 O29026 0.707110926001467 0.488791633195493 1.1511684850308 O 0.0 **** 0.0
128 C29028 0.862630655245803 0.546765238793108 1.06183893700509 C 0.0 **** 0.0
129 H29108 0.810354247989709 0.80179296562121 0.832119139134296 H 0.0 **** 0.0
130 H29110 0.79797929722463 0.818927950522186 0.824813639380557 H 0.0 **** 0.0
131 H29112 0.794267496516283 0.807160705863215 0.857361189688915 H 0.0 **** 0.0
132 H29114 0.77604580542835 0.813225246366709 0.84566924867182 H 0.0 **** 0.0
133 H29116 0.779093218777078 0.800086317120529 0.809695840434841 H 0.0 **** 0.0
134 H29118 0.798420827826432 0.788733678610742 0.807590891763012 H 0.0 **** 0.0
135 H29120 0.774700385252749 0.781677874393753 0.870524391147123 H 0.0 **** 0.0
136 H29122 0.764502836333549 0.753439091578749 0.880345723730114 H 0.0 **** 0.0
137 H29124 0.764020045723688 0.73315119953217 0.82030511784446 H 0.0 **** 0.0
138 H29126 0.752551557469331 0.706301860969028 0.829507163852629 H 0.0 **** 0.0
139 H29128 0.755180877257593 0.725379864281602 0.889806983190576 H 0.0 **** 0.0
140 H29130 0.724582305627791 0.652864139197496 0.849253486118474 H 0.0 **** 0.0
141 H29132 0.700431800096976 0.631109001672147 0.872839029084818 H 0.0 **** 0.0
142 H29134 0.720288213305053 0.620827815168506 0.869639370008195 H 0.0 **** 0.0
143 H29136 0.706295025619982 0.602556099071153 0.898444577441257 H 0.0 **** 0.0
144 H29138 0.733811672073273 0.65213912865435 0.926738956535554 H 0.0 **** 0.0
145 H29140 0.741552759296289 0.633580263127233 0.950824167389342 H 0.0 **** 0.0
146 H29142 0.709571834331503 0.585772255013013 0.925342120900043 H 0.0 **** 0.0
147 H29144 0.71975405924884 0.56789766766984 0.948595157907444 H 0.0 **** 0.0
148 H29146 0.768945881013173 0.579189658875131 1.02601216037302 H 0.0 **** 0.0
149 H29148 0.759473823478799 0.595075599529039 1.03866094100764 H 0.0 **** 0.0
150 H29150 0.767615947725004 0.595807507128162 1.00160564030583 H 0.0 **** 0.0
151 H29152 0.769843834823249 0.611850243252266 1.01694473121179 H 0.0 **** 0.0
152 H29154 0.744711601790307 0.620008116864521 0.999505379296125 H 0.0 **** 0.0
153 H29156 0.737195469167788 0.612856058236109 1.01869810364689 H 0.0 **** 0.0
154 H29158 0.69776084396722 0.558709686730976 1.02842753905188 H 0.0 **** 0.0
155 H29160 0.762649890364621 0.566108284040684 1.04835628430577 H 0.0 **** 0.0
156 H29162 0.748444900223772 0.573821191867232 1.06358438481033 H 0.0 **** 0.0
157 H29164 0.713118806626646 0.562712823043308 1.06684028087063 H 0.0 **** 0.0
158 H29166 0.704453812069054 0.546490686786361 1.05424053947598 H 0.0 **** 0.0
159 H29168 0.779460474881788 0.54339995516865 1.04556883378446 H 0.0 **** 0.0
160 H29170 0.780040262514647 0.55365374077143 1.06551979127261 H 0.0 **** 0.0
161 H29172 0.768904419626896 0.501949394101342 1.08556391377048 H 0.0 **** 0.0
162 H29174 0.769407489920697 0.496369491229185 1.06390999603292 H 0.0 **** 0.0
163 H29176 0.799163339436344 0.49170084695384 1.08332492854525 H 0.0 **** 0.0
164 H29178 0.805942739685982 0.558012514215325 1.05053108594536 H 0.0 **** 0.0
165 H29180 0.836297331576647 0.564528190435801 1.04900030600424 H 0.0 **** 0.0
166 H29182 0.847735993533371 0.518731103201259 1.07593826352377 H 0.0 **** 0.0
167 H29184 0.728735927147107 0.490542058168027 1.06897326758421 H 0.0 **** 0.0
168 H29186 0.746158837416828 0.490295112953922 1.08257235675914 H 0.0 **** 0.0
169 H29188 0.701278031185642 0.53264192538778 1.07738194315733 H 0.0 **** 0.0
170 H29190 0.70313492923457 0.513565953060581 1.06600695483841 H 0.0 **** 0.0
171 H29192 0.69131347095187 0.526118761630839 1.10447856318288 H 0.0 **** 0.0
172 H29194 0.738626010282508 0.469755138644058 1.09733054723034 H 0.0 **** 0.0
173 H29196 0.749371871631252 0.480981162324707 1.11338317716771 H 0.0 **** 0.0
174 H29198 0.741501686524114 0.452700231417151 1.12411924438958 H 0.0 **** 0.0
175 H29200 0.720391846553401 0.455540757592586 1.11740138119772 H 0.0 **** 0.0
176 H29202 0.738600030164546 0.47512435690408 1.145685557193 H 0.0 **** 0.0
177 H29204 0.720897713530958 0.461758530889546 1.14842835930549 H 0.0 **** 0.0
178 H29206 0.780014986830265 0.767450820588272 0.800698279291078 H 0.0 **** 0.0
179 H29208 0.746997596686804 0.683577129480607 0.828793897434621 H 0.0 **** 0.0
180 H29210 0.765626486907568 0.614324368714899 0.982763665028938 H 0.0 **** 0.0
181 H29212 0.749129629829222 0.627734511489498 0.976035442342232 H 0.0 **** 0.0
182 H29214 0.764294541500844 0.620389228349894 0.961411244890479 H 0.0 **** 0.0
183 H29216 0.686802795680727 0.567369822672298 0.972607863299291 H 0.0 **** 0.0
184 H29218 0.693848780220974 0.505185697249632 1.14341632776922 H 0.0 **** 0.0
185 H29220 0.868127985390825 0.543089790816279 1.04958197486479 H 0.0 **** 0.0
186 H29222 0.86987760621069 0.540385713855745 1.07180765336048 H 0.0 **** 0.0
187 H29224 0.864755261396722 0.560387353391143 1.06344609428017 H 0.0 **** 0.0
188 H29226 0.745504085968139 0.697252391907054 0.899425239193795 H 0.0 **** 0.0
@<TRIPOS>BOND
1 3 2 Partial double
2 4 3 Partial double
3 5 4 Partial double
4 6 5 Partial double
5 1 2 Partial double
6 1 6 Partial double
7 8 7 1
8 9 8 Aromatic
9 10 9 1
10 5 7 1
11 4 10 1
12 12 11 1
13 13 12 Double
14 14 13 1
15 9 11 1
16 8 14 1
17 16 15 1
18 17 16 1
19 18 17 1
20 13 15 1
21 12 18 1
22 6 19 1
23 3 20 1
24 7 21 Double
25 10 22 Double
26 11 23 1
27 11 24 1
28 14 25 1
29 14 26 1
30 15 27 1
31 15 28 1
32 16 29 1
33 16 30 1
34 17 31 1
35 17 32 1
36 18 33 1
37 18 34 1
38 19 35 1
39 20 36 1
40 39 38 1
41 40 39 Aromatic
42 41 40 1
43 37 38 1
44 37 41 1
45 43 42 Aromatic
46 44 43 Aromatic
47 45 44 Aromatic
48 40 42 Aromatic
49 39 45 Aromatic
50 47 46 Aromatic
51 48 47 Partial double
52 49 48 Aromatic
53 44 46 Aromatic
54 43 49 Aromatic
55 51 50 Partial double
56 52 51 Partial double
57 53 52 Partial double
58 48 50 Partial double
59 47 53 Partial double
60 55 54 Partial double
61 56 55 Partial double
62 57 56 Partial double
63 52 54 Partial double
64 51 57 Partial double
65 59 58 Partial double
66 60 59 Partial double
67 61 60 Partial double
68 56 58 Partial double
69 55 61 Partial double
70 63 62 Aromatic
71 64 63 1
72 60 62 1
73 59 64 1
74 66 65 Aromatic
75 67 66 Aromatic
76 68 67 Aromatic
77 63 65 Aromatic
78 62 68 Aromatic
79 70 69 Aromatic
80 71 70 Aromatic
81 72 71 Aromatic
82 67 69 Aromatic
83 66 72 Aromatic
84 74 73 1
85 75 74 1
86 76 75 1
87 71 73 1
88 70 76 1
89 74 77 Double
90 77 78 1
91 78 79 1
92 79 80 Partial double
93 80 81 1
94 75 81 Double
95 83 82 1
96 84 83 1
97 85 84 1
98 80 82 Partial double
99 81 85 1
100 87 86 Partial double
101 88 87 Partial double
102 82 88 Partial double
103 79 86 Partial double
104 90 89 1
105 91 90 Aromatic
106 92 91 1
107 88 89 1
108 87 92 1
109 94 93 Aromatic
110 95 94 Aromatic
111 96 95 Aromatic
112 91 93 Aromatic
113 90 96 Aromatic
114 98 97 1
115 99 98 Aromatic
116 100 99 1
117 96 97 1
118 95 100 1
119 102 101 Aromatic
120 103 102 Aromatic
121 104 103 Aromatic
122 99 101 Aromatic
123 98 104 Aromatic
124 106 105 Aromatic
125 107 106 Aromatic
126 108 107 Aromatic
127 104 105 Aromatic
128 103 108 Aromatic
129 110 109 1
130 111 110 Aromatic
131 112 111 1
132 94 109 1
133 93 112 1
134 114 113 Aromatic
135 115 114 Aromatic
136 116 115 Aromatic
137 111 113 Aromatic
138 110 116 Aromatic
139 118 117 1
140 119 118 1
141 120 119 1
142 116 117 1
143 115 120 1
144 42 121 1
145 57 122 1
146 76 123 1
147 77 124 1
148 78 125 Double
149 114 126 1
150 120 127 Double
151 107 128 1
152 37 129 1
153 37 130 1
154 38 131 1
155 38 132 1
156 41 133 1
157 41 134 1
158 45 135 1
159 46 136 1
160 49 137 1
161 50 138 1
162 53 139 1
163 58 140 1
164 64 141 1
165 64 142 1
166 65 143 1
167 68 144 1
168 69 145 1
169 72 146 1
170 73 147 1
171 83 148 1
172 83 149 1
173 84 150 1
174 84 151 1
175 85 152 1
176 85 153 1
177 86 154 1
178 89 155 1
179 89 156 1
180 92 157 1
181 92 158 1
182 97 159 1
183 97 160 1
184 100 161 1
185 100 162 1
186 101 163 1
187 105 164 1
188 106 165 1
189 108 166 1
190 109 167 1
191 109 168 1
192 112 169 1
193 112 170 1
194 113 171 1
195 117 172 1
196 117 173 1
197 118 174 1
198 118 175 1
199 119 176 1
200 119 177 1
201 121 178 1
202 122 179 1
203 123 180 1
204 123 181 1
205 123 182 1
206 124 183 1
207 126 184 1
208 128 185 1
209 128 186 1
210 128 187 1
211 54 188 1
212 76 2 1
213 73 1 1
@<TRIPOS>MOLECULE
Sketch 4
188 213
SMALL
USER_CHARGES


@<TRIPOS>ATOM
1 C29432 0.745591137167662 0.606800203396028 0.423808148484533 C.Trigonal 0.0 **** 0.0
2 C29433 0.757054221019575 0.61941232408579 0.41995252786056 C 0.0 **** 0.0
3 C29434 0.750982966531618 0.634675901519519 0.413539719602857 C 0.0 **** 0.0
4 C29435 0.733630608463888 0.636758239359761 0.411235876909019 C.Trigonal 0.0 **** 0.0
5 C29436 0.722592712503848 0.62350561542552 0.413883716561447 C.Trigonal 0.0 **** 0.0
6 C29437 0.728535221102092 0.608294705770164 0.420195732660507 C 0.0 **** 0.0
7 C29444 0.703995808684845 0.625492072086016 0.410598683092597 C 0.0 **** 0.0
8 C29445 0.697706359518564 0.642577261317545 0.406780048931215 C.Trigonal 0.0 **** 0.0
9 C29446 0.708365822977151 0.655807129329891 0.404788265431695 C.Trigonal 0.0 **** 0.0
10 C29447 0.726862993529031 0.653792997907747 0.406049133150189 C 0.0 **** 0.0
11 C29453 0.701946328747766 0.673618845976283 0.401180599839546 C 0.0 **** 0.0
12 C29454 0.683646218696252 0.675874669359706 0.406615375402953 C.Trigonal 0.0 **** 0.0
13 C29455 0.673130315430655 0.662591300324815 0.408982884780765 C.Trigonal 0.0 **** 0.0
14 C29456 0.678588160824117 0.644532085904409 0.405346439962944 C 0.0 **** 0.0
15 C29462 0.655210129642023 0.664700533252682 0.415363334505976 C 0.0 **** 0.0
16 C29463 0.652172621766239 0.681997869307712 0.423433114731351 C 0.0 **** 0.0
17 C29464 0.659249110199873 0.696010351577684 0.412049661988256 C 0.0 **** 0.0
18 C29465 0.678353973658475 0.693944984960226 0.409895457909602 C 0.0 **** 0.0
19 O29471 0.718267924696131 0.594639250195223 0.423529529669612 O 0.0 **** 0.0
20 O29473 0.762181185255207 0.647458914430119 0.409957740306467 O 0.0 **** 0.0
21 O29475 0.694835408105609 0.613118289982842 0.411289654108076 O 0.0 **** 0.0
22 O29477 0.736655144049451 0.665378926632338 0.403423083031126 O 0.0 **** 0.0
23 H29479 0.7096543466975 0.682948809897517 0.408213947543856 H 0.0 **** 0.0
24 H29481 0.703257536523436 0.676647390031433 0.387642511995102 H 0.0 **** 0.0
25 H29483 0.674227596761199 0.64075903460646 0.392667783308865 H 0.0 **** 0.0
26 H29485 0.672186110621078 0.636124085858073 0.414507901176832 H 0.0 **** 0.0
27 H29487 0.646466036816695 0.66302031082749 0.404628865881549 H 0.0 **** 0.0
28 H29489 0.652231044180825 0.654622302340377 0.424558635972177 H 0.0 **** 0.0
29 H29491 0.658421656244636 0.682621057663826 0.435895223924071 H 0.0 **** 0.0
30 H29493 0.638549492373409 0.683822142916369 0.425770432100637 H 0.0 **** 0.0
31 H29495 0.656441082342233 0.708623115065776 0.41728070192465 H 0.0 **** 0.0
32 H29497 0.652967147478773 0.69535551992411 0.399618795045472 H 0.0 **** 0.0
33 H29499 0.684780530988835 0.698303145592146 0.421498454319558 H 0.0 **** 0.0
34 H29501 0.682924934757148 0.702120379180967 0.399539585094968 H 0.0 **** 0.0
35 H29503 0.707202094935076 0.597148094053458 0.419428551373453 H 0.0 **** 0.0
36 H29505 0.755953659597534 0.657614798959535 0.407955004628292 H 0.0 **** 0.0
37 C29228 0.916861518432582 0.645071810286118 0.639648439303982 C 0.0 **** 0.0
38 C29229 0.917037908428883 0.634301312598161 0.623513399376442 C 0.0 **** 0.0
39 C29230 0.90132752033088 0.640672062510129 0.614862444068897 C.Trigonal 0.0 **** 0.0
40 C29231 0.890674867421281 0.64866796254027 0.626183372949196 C.Trigonal 0.0 **** 0.0
41 C29232 0.898272105231421 0.64902860158074 0.643650361569113 C 0.0 **** 0.0
42 C29238 0.875189595948256 0.654899240771707 0.621278482952449 C 0.0 **** 0.0
43 C29239 0.870419351554171 0.653317037197307 0.604020230433228 C.Trigonal 0.0 **** 0.0
44 C29240 0.881739026394069 0.645450347206553 0.5922043849009 C.Trigonal 0.0 **** 0.0
45 C29241 0.897236962352147 0.639013971413408 0.598162394718589 C 0.0 **** 0.0
46 C29247 0.876748345028983 0.643623443000231 0.575285580359997 C 0.0 **** 0.0
47 C29248 0.860713514130474 0.648842138564243 0.569731949841561 C.Trigonal 0.0 **** 0.0
48 C29249 0.848970822430957 0.655706152715287 0.581965070498233 C.Trigonal 0.0 **** 0.0
49 C29250 0.854401435624796 0.658479287406391 0.598604496386711 C 0.0 **** 0.0
50 C29256 0.831877573735048 0.657415350148427 0.577429972180954 C 0.0 **** 0.0
51 C29257 0.825922046631194 0.651445805638739 0.561932245200133 C.Trigonal 0.0 **** 0.0
52 C29258 0.837797541391933 0.646852449951999 0.548983610151394 C.Trigonal 0.0 **** 0.0
53 C29259 0.855110883765797 0.645978095696591 0.553156217346618 C 0.0 **** 0.0
54 C29265 0.831686823075126 0.640833307142285 0.533385882110203 C 0.0 **** 0.0
55 C29266 0.815166292324045 0.636873095347799 0.532018739330092 C.Trigonal 0.0 **** 0.0
56 C29267 0.803376802884984 0.638749111209426 0.545163947923154 C.Trigonal 0.0 **** 0.0
57 C29268 0.808633309396561 0.647283743443307 0.559971646788319 C 0.0 **** 0.0
58 C29274 0.787164973761872 0.631182565258983 0.544125195907384 C 0.0 **** 0.0
59 C29275 0.783121514939533 0.622920282382958 0.529736097734496 C 0.0 **** 0.0
60 C29276 0.795108595437357 0.623496575957263 0.516273432742183 C 0.0 **** 0.0
61 N29277 0.810616936972953 0.62973425472035 0.516638988358909 N 0.0 **** 0.0
62 C29283 0.788238090444722 0.616169738988829 0.501739694097388 C.Trigonal 0.0 **** 0.0
63 C29284 0.772175453395616 0.609799745108015 0.50591523889318 C.Trigonal 0.0 **** 0.0
64 C29285 0.767545151143594 0.613292796819276 0.524230072900549 C 0.0 **** 0.0
65 C29290 0.762986292615295 0.601641564787535 0.493810634852229 C 0.0 **** 0.0
66 C29291 0.768941682731165 0.601006755664178 0.476848974700529 C.Trigonal 0.0 **** 0.0
67 C29292 0.784158945012326 0.610076751369993 0.472307344213562 C.Trigonal 0.0 **** 0.0
68 C29293 0.794467095715787 0.616285582111162 0.485310739506027 C 0.0 **** 0.0
69 C29299 0.786712172867769 0.614437964827968 0.455154781996978 C 0.0 **** 0.0
70 C29300 0.775677795562801 0.60909622211092 0.442837920342248 C.Trigonal 0.0 **** 0.0
71 C29301 0.762802024460062 0.597878759121728 0.447172200853632 C.Trigonal 0.0 **** 0.0
72 C29302 0.75936651103648 0.593817729661627 0.463649336382325 C 0.0 **** 0.0
73 C29308 0.75334942669408 0.591481891328721 0.432031921184298 C 0.0 **** 0.0
74 C29309 0.766792703596756 0.584478863203087 0.419572164695446 C 0.0 **** 0.0
75 C29310 0.777686647048659 0.596765663726658 0.413505251293409 C 0.0 **** 0.0
76 C29311 0.77539212662978 0.613830329559174 0.423920950384728 C 0.0 **** 0.0
77 C29317 0.767779115947089 0.567385195418192 0.417179182042734 C 0.0 **** 0.0
78 C29319 0.777811607813902 0.557334830491798 0.405071735763005 C 0.0 **** 0.0
79 C29321 0.785233884513253 0.564448321742486 0.389249689891617 C 0.0 **** 0.0
80 C29323 0.78838708693938 0.581470819624538 0.386405666493084 C.Trigonal 0.0 **** 0.0
81 C29325 0.788876533799317 0.594517366287406 0.400453876920633 C.Trigonal 0.0 **** 0.0
82 C29328 0.792083886680957 0.58691804905262 0.369913910851473 C 0.0 **** 0.0
83 C29329 0.794748487518125 0.605569996598885 0.365396316059702 C 0.0 **** 0.0
84 C29330 0.795935034138006 0.617172322982533 0.38082271864469 C 0.0 **** 0.0
85 C29331 0.802835957016539 0.606672178201401 0.395369494024394 C 0.0 **** 0.0
86 C29337 0.788222394937097 0.553040782553821 0.376257714319344 C 0.0 **** 0.0
87 C29338 0.792799894677468 0.558153336296754 0.360301200776334 C.Trigonal 0.0 **** 0.0
88 C29339 0.793797311541677 0.575236751390867 0.356879195924414 C.Trigonal 0.0 **** 0.0
89 C29344 0.796736851437295 0.58016384058684 0.33857013056503 C 0.0 **** 0.0
90 C29345 0.808910322698779 0.568338041610531 0.329471794647257 C.Trigonal 0.0 **** 0.0
91 C29346 0.808258758372847 0.551294769070195 0.333158608859827 C.Trigonal 0.0 **** 0.0
92 C29347 0.795984176725244 0.545124556036924 0.346652644214056 C 0.0 **** 0.0
93 C29353 0.818539592554393 0.540043536735761 0.324538278981361 C.Trigonal 0.0 **** 0.0
94 C29354 0.829745189949048 0.545981663785617 0.312588376831719 C.Trigonal 0.0 **** 0.0
95 C29355 0.830660442714877 0.563219323709522 0.309124427944242 C.Trigonal 0.0 **** 0.0
96 C29356 0.820222020865833 0.574385899527302 0.317530223775772 C.Trigonal 0.0 **** 0.0
97 C29362 0.820798433975144 0.593376143936614 0.314202644040362 C 0.0 **** 0.0
98 C29363 0.832923014888187 0.599496057383872 0.300790726472432 C.Trigonal 0.0 **** 0.0
99 C29364 0.843057872257847 0.588284292423268 0.292513085810547 C.Trigonal 0.0 **** 0.0
100 C29365 0.843336839156439 0.569469360024991 0.296005076334051 C 0.0 **** 0.0
101 C29371 0.853890938886291 0.594632203206349 0.279870886147841 C 0.0 **** 0.0
102 N29372 0.855346804615228 0.610668150549681 0.275367723002076 N 0.0 **** 0.0
103 C29373 0.845507509719517 0.622042408861594 0.28386957269487 C.Trigonal 0.0 **** 0.0
104 C29374 0.834397287577843 0.616659501432917 0.296552972362642 C.Trigonal 0.0 **** 0.0
105 C29380 0.824967104185924 0.629683385652411 0.304691234557857 C 0.0 **** 0.0
106 C29381 0.826903358672348 0.646335229611385 0.299976059510974 C 0.0 **** 0.0
107 C29382 0.83802167605025 0.650990632530167 0.287082948493714 C 0.0 **** 0.0
108 C29383 0.847302525491848 0.638439093150971 0.279142023302602 C 0.0 **** 0.0
109 C29389 0.841425006317588 0.533829279478227 0.303143299742369 C 0.0 **** 0.0
110 C29390 0.836798933039759 0.515155289380193 0.303719898432265 C.Trigonal 0.0 **** 0.0
111 C29391 0.825306652324638 0.509582466540716 0.315649757727809 C.Trigonal 0.0 **** 0.0
112 C29392 0.81747539742731 0.521297868488352 0.328622969877961 C 0.0 **** 0.0
113 C29398 0.820878434770841 0.492722239109691 0.31618633128793 C 0.0 **** 0.0
114 C29399 0.827586313943685 0.48115115524182 0.304924763246434 C 0.0 **** 0.0
115 C29400 0.839390921284468 0.486678795014069 0.293142525300046 C.Trigonal 0.0 **** 0.0
116 C29401 0.84409881069771 0.503584008249804 0.292631317885104 C.Trigonal 0.0 **** 0.0
117 C29407 0.857844979445842 0.509345605221159 0.280324656241207 C 0.0 **** 0.0
118 C29408 0.857265735033348 0.499180726684391 0.263826834523049 C 0.0 **** 0.0
119 C29409 0.858467344070042 0.480457637005673 0.267710145173995 C 0.0 **** 0.0
120 C29410 0.846776117929768 0.47405538977472 0.281210669171414 C 0.0 **** 0.0
121 O29416 0.864316338900899 0.662362006245351 0.632495273935228 O 0.0 **** 0.0
122 O29418 0.797874664771588 0.650650031306106 0.57296981255246 O 0.0 **** 0.0
123 C29420 0.787793870698199 0.628814995343779 0.422192037880581 C 0.0 **** 0.0
124 O29422 0.75820403431547 0.557827189618722 0.428090950598907 O 0.0 **** 0.0
125 O29424 0.778661848849776 0.542030532408846 0.407094882693549 O 0.0 **** 0.0
126 O29426 0.822097595876037 0.464795461554651 0.306250359920471 O 0.0 **** 0.0
127 O29428 0.843734638764301 0.459001328100081 0.282025341416139 O 0.0 **** 0.0
128 C29430 0.839805636180865 0.669285169801221 0.282017856799256 C 0.0 **** 0.0
129 H29510 0.923508605778405 0.657055045077938 0.637097466003303 H 0.0 **** 0.0
130 H29512 0.92349640262916 0.638983591139842 0.650251245151582 H 0.0 **** 0.0
131 H29514 0.928588944269669 0.635950322769005 0.616041771804898 H 0.0 **** 0.0
132 H29516 0.915817659485228 0.620745558726254 0.626519099332199 H 0.0 **** 0.0
133 H29518 0.892663092491074 0.639146215972792 0.65170448116219 H 0.0 **** 0.0
134 H29520 0.896776193642895 0.661223639204863 0.650133319169089 H 0.0 **** 0.0
135 H29522 0.906050393827714 0.632523733930184 0.589636592593425 H 0.0 **** 0.0
136 H29524 0.885343740449025 0.637227850623178 0.566445877885695 H 0.0 **** 0.0
137 H29526 0.845407222185711 0.663620720190105 0.607866401738531 H 0.0 **** 0.0
138 H29528 0.822823889034953 0.661114444853013 0.587307100735899 H 0.0 **** 0.0
139 H29530 0.864007706539425 0.640884339529264 0.543771316894135 H 0.0 **** 0.0
140 H29532 0.778021710027767 0.631453861616751 0.554513987717326 H 0.0 **** 0.0
141 H29534 0.765769017359832 0.601538946097468 0.531490974472376 H 0.0 **** 0.0
142 H29536 0.755964676050003 0.62094000558505 0.525292588623361 H 0.0 **** 0.0
143 H29538 0.75073575330601 0.596031882989334 0.497154493198938 H 0.0 **** 0.0
144 H29540 0.806217399962603 0.623081439333536 0.482499176574583 H 0.0 **** 0.0
145 H29542 0.797467760855268 0.622577360106663 0.451977045049505 H 0.0 **** 0.0
146 H29544 0.747913025987621 0.586473738782533 0.466418837644686 H 0.0 **** 0.0
147 H29546 0.743775976389506 0.582150371566624 0.435539680238418 H 0.0 **** 0.0
148 H29548 0.784854626983633 0.609908585128261 0.356583199835208 H 0.0 **** 0.0
149 H29550 0.806868224059084 0.606698410809013 0.358636474475904 H 0.0 **** 0.0
150 H29552 0.783345237028554 0.622167280805666 0.384116081812395 H 0.0 **** 0.0
151 H29554 0.803964430305263 0.628190144065964 0.377995017572638 H 0.0 **** 0.0
152 H29556 0.807367876964461 0.614082370557116 0.406043742416115 H 0.0 **** 0.0
153 H29558 0.814321792649075 0.599837187393338 0.391182019035439 H 0.0 **** 0.0
154 H29560 0.786530310887111 0.539371227592443 0.378137169762348 H 0.0 **** 0.0
155 H29562 0.784452309542553 0.579889580063001 0.331883991799657 H 0.0 **** 0.0
156 H29564 0.800983629277699 0.593252059878105 0.337610020514844 H 0.0 **** 0.0
157 H29566 0.800871729539573 0.533628730318278 0.352721297364611 H 0.0 **** 0.0
158 H29568 0.783872285924365 0.541567823665644 0.340799741261999 H 0.0 **** 0.0
159 H29570 0.807969894926311 0.597643975652626 0.310798015389821 H 0.0 **** 0.0
160 H29572 0.824097115601038 0.599846250809806 0.326101560976888 H 0.0 **** 0.0
161 H29574 0.856200955604141 0.565901777543556 0.300095267463657 H 0.0 **** 0.0
162 H29576 0.841069814007778 0.562934023558043 0.283916879194629 H 0.0 **** 0.0
163 H29578 0.862085251434883 0.585978143179391 0.272756264898443 H 0.0 **** 0.0
164 H29580 0.816002407371353 0.626532485653252 0.314806379630545 H 0.0 **** 0.0
165 H29582 0.819548269055242 0.656263477797273 0.306332617689187 H 0.0 **** 0.0
166 H29584 0.856182962192501 0.641645677910617 0.268972743932481 H 0.0 **** 0.0
167 H29586 0.841360560450949 0.537702648032917 0.289808450072725 H 0.0 **** 0.0
168 H29588 0.85449605910438 0.535492284652701 0.307785951814328 H 0.0 **** 0.0
169 H29590 0.823534550753544 0.51897282627518 0.341007584723944 H 0.0 **** 0.0
170 H29592 0.804103366082596 0.517701121269458 0.330076567760923 H 0.0 **** 0.0
171 H29594 0.811730542979962 0.488430153083664 0.325749186608136 H 0.0 **** 0.0
172 H29596 0.856884868486806 0.5228329998249 0.277207229350514 H 0.0 **** 0.0
173 H29598 0.870356395341485 0.507671904289044 0.286325089808395 H 0.0 **** 0.0
174 H29600 0.867655493468886 0.502894555789686 0.255339208392545 H 0.0 **** 0.0
175 H29602 0.845411477804638 0.502067979234803 0.257087026321533 H 0.0 **** 0.0
176 H29604 0.87120646826911 0.477066594995328 0.27222363638839 H 0.0 **** 0.0
177 H29606 0.855589580484918 0.471960816553597 0.257108745654321 H 0.0 **** 0.0
178 H29608 0.869402461377934 0.661816149693738 0.643337087669732 H 0.0 **** 0.0
179 H29610 0.78705371482746 0.646269850512206 0.570324868281527 H 0.0 **** 0.0
180 H29612 0.788771304248423 0.633913756344609 0.409335965349541 H 0.0 **** 0.0
181 H29614 0.800713576085556 0.625869276376483 0.426372566708584 H 0.0 **** 0.0
182 H29616 0.783446799183085 0.639223679968815 0.430399157298199 H 0.0 **** 0.0
183 H29618 0.76456247694958 0.54814773023151 0.431372952189396 H 0.0 **** 0.0
184 H29620 0.828175026748305 0.458090631226367 0.298224301646328 H 0.0 **** 0.0
185 H29622 0.845788645416492 0.676761726312521 0.29212479906101 H 0.0 **** 0.0
186 H29624 0.827418538017688 0.674999771973701 0.27928714219034 H 0.0 **** 0.0
187 H29626 0.847582678668027 0.670719906668054 0.270605323987683 H 0.0 **** 0.0
188 H29628 0.840325066079013 0.637516093320117 0.523043405054143 H 0.0 **** 0.0
@<TRIPOS>BOND
1 3 2 Partial double
2 4 3 Partial double
3 5 4 Partial double
4 6 5 Partial double
5 1 2 Partial double
6 1 6 Partial double
7 8 7 1
8 9 8 Aromatic
9 10 9 1
10 5 7 1
11 4 10 1
12 12 11 1
13 13 12 Double
14 14 13 1
15 9 11 1
16 8 14 1
17 16 15 1
18 17 16 1
19 18 17 1
20 13 15 1
21 12 18 1
22 6 19 1
23 3 20 1
24 7 21 Double
25 10 22 Double
26 11 23 1
27 11 24 1
28 14 25 1
29 14 26 1
30 15 27 1
31 15 28 1
32 16 29 1
33 16 30 1
34 17 31 1
35 17 32 1
36 18 33 1
37 18 34 1
38 19 35 1
39 20 36 1
40 39 38 1
41 40 39 Aromatic
42 41 40 1
43 37 38 1
44 37 41 1
45 43 42 Aromatic
46 44 43 Aromatic
47 45 44 Aromatic
48 40 42 Aromatic
49 39 45 Aromatic
50 47 46 Aromatic
51 48 47 Partial double
52 49 48 Aromatic
53 44 46 Aromatic
54 43 49 Aromatic
55 51 50 Partial double
56 52 51 Partial double
57 53 52 Partial double
58 48 50 Partial double
59 47 53 Partial double
60 55 54 Partial double
61 56 55 Partial double
62 57 56 Partial double
63 52 54 Partial double
64 51 57 Partial double
65 59 58 Partial double
66 60 59 Partial double
67 61 60 Partial double
68 56 58 Partial double
69 55 61 Partial double
70 63 62 Aromatic
71 64 63 1
72 60 62 1
73 59 64 1
74 66 65 Aromatic
75 67 66 Aromatic
76 68 67 Aromatic
77 63 65 Aromatic
78 62 68 Aromatic
79 70 69 Aromatic
80 71 70 Aromatic
81 72 71 Aromatic
82 67 69 Aromatic
83 66 72 Aromatic
84 74 73 1
85 75 74 1
86 76 75 1
87 71 73 1
88 70 76 1
89 74 77 Double
90 77 78 1
91 78 79 1
92 79 80 Partial double
93 80 81 1
94 75 81 Double
95 83 82 1
96 84 83 1
97 85 84 1
98 80 82 Partial double
99 81 85 1
100 87 86 Partial double
101 88 87 Partial double
102 82 88 Partial double
103 79 86 Partial double
104 90 89 1
105 91 90 Aromatic
106 92 91 1
107 88 89 1
108 87 92 1
109 94 93 Aromatic
110 95 94 Aromatic
111 96 95 Aromatic
112 91 93 Aromatic
113 90 96 Aromatic
114 98 97 1
115 99 98 Aromatic
116 100 99 1
117 96 97 1
118 95 100 1
119 102 101 Aromatic
120 103 102 Aromatic
121 104 103 Aromatic
122 99 101 Aromatic
123 98 104 Aromatic
124 106 105 Aromatic
125 107 106 Aromatic
126 108 107 Aromatic
127 104 105 Aromatic
128 103 108 Aromatic
129 110 109 1
130 111 110 Aromatic
131 112 111 1
132 94 109 1
133 93 112 1
134 114 113 Aromatic
135 115 114 Aromatic
136 116 115 Aromatic
137 111 113 Aromatic
138 110 116 Aromatic
139 118 117 1
140 119 118 1
141 120 119 1
142 116 117 1
143 115 120 1
144 42 121 1
145 57 122 1
146 76 123 1
147 77 124 1
148 78 125 Double
149 114 126 1
150 120 127 Double
151 107 128 1
152 37 129 1
153 37 130 1
154 38 131 1
155 38 132 1
156 41 133 1
157 41 134 1
158 45 135 1
159 46 136 1
160 49 137 1
161 50 138 1
162 53 139 1
163 58 140 1
164 64 141 1
165 64 142 1
166 65 143 1
167 68 144 1
168 69 145 1
169 72 146 1
170 73 147 1
171 83 148 1
172 83 149 1
173 84 150 1
174 84 151 1
175 85 152 1
176 85 153 1
177 86 154 1
178 89 155 1
179 89 156 1
180 92 157 1
181 92 158 1
182 97 159 1
183 97 160 1
184 100 161 1
185 100 162 1
186 101 163 1
187 105 164 1
188 106 165 1
189 108 166 1
190 109 167 1
191 109 168 1
192 112 169 1
193 112 170 1
194 113 171 1
195 117 172 1
196 117 173 1
197 118 174 1
198 118 175 1
199 119 176 1
200 119 177 1
201 121 178 1
202 122 179 1
203 123 180 1
204 123 181 1
205 123 182 1
206 124 183 1
207 126 184 1
208 128 185 1
209 128 186 1
210 128 187 1
211 54 188 1
212 76 2 1
213 73 1 1
@<TRIPOS>MOLECULE
Sketch 4
188 213
SMALL
USER_CHARGES


@<TRIPOS>ATOM
1 C29834 0.335993472401247 0.572736548487245 0.20832334170233 C.Trigonal 0.0 **** 0.0
2 C29835 0.336430203974856 0.568191162942159 0.225216129398833 C 0.0 **** 0.0
3 C29836 0.32122464042729 0.566424782644492 0.233981336105889 C 0.0 **** 0.0
4 C29837 0.305996970879511 0.569197164739853 0.22552944130933 C.Trigonal 0.0 **** 0.0
5 C29838 0.305882753516482 0.574456837781886 0.208894222063808 C.Trigonal 0.0 **** 0.0
6 C29839 0.320949144175681 0.57653559738132 0.200262516838604 C 0.0 **** 0.0
7 C29846 0.289585868561117 0.578002005133785 0.199810655199537 C 0.0 **** 0.0
8 C29847 0.273746937631706 0.575304657415728 0.2090675826271 C.Trigonal 0.0 **** 0.0
9 C29848 0.273637671170511 0.569991069047592 0.225310827165859 C.Trigonal 0.0 **** 0.0
10 C29849 0.289481282979337 0.566691449352576 0.234704996060609 C 0.0 **** 0.0
11 C29855 0.257298555165395 0.567056079898017 0.235065277936278 C 0.0 **** 0.0
12 C29856 0.241342323263578 0.57024609805733 0.224851007824654 C.Trigonal 0.0 **** 0.0
13 C29857 0.241601042231678 0.575119996195108 0.208472077208681 C.Trigonal 0.0 **** 0.0
14 C29858 0.257776319096452 0.578838105399895 0.198948250232783 C 0.0 **** 0.0
15 C29864 0.225706232756521 0.577756372705361 0.198195258524956 C 0.0 **** 0.0
16 C29865 0.210151108116898 0.569777877511431 0.206370746011244 C 0.0 **** 0.0
17 C29866 0.209457248009277 0.574168405376174 0.225249637462372 C 0.0 **** 0.0
18 C29867 0.225040877384095 0.567285203503287 0.234417995237336 C 0.0 **** 0.0
19 O29873 0.321798485912827 0.582290690869375 0.183932971764491 O 0.0 **** 0.0
20 O29875 0.321685214344335 0.562131452189783 0.25080840194436 O 0.0 **** 0.0
21 O29877 0.289874566512558 0.582883636490679 0.185203300871794 O 0.0 **** 0.0
22 O29879 0.289613673155477 0.562117466373614 0.249413617727908 O 0.0 **** 0.0
23 H29881 0.256950129209871 0.553865008109784 0.239677948316808 H 0.0 **** 0.0
24 H29883 0.257036603422409 0.575379909046071 0.246281936517265 H 0.0 **** 0.0
25 H29885 0.257555149774196 0.592223801373984 0.194934873868521 H 0.0 **** 0.0
26 H29887 0.257836236592592 0.571118771848403 0.187288812824788 H 0.0 **** 0.0
27 H29889 0.223680063054866 0.591479940912992 0.196688605065402 H 0.0 **** 0.0
28 H29891 0.227523853454924 0.572595190320018 0.185345076571115 H 0.0 **** 0.0
29 H29893 0.210697909199147 0.555921695490715 0.204932666116373 H 0.0 **** 0.0
30 H29895 0.198633365319503 0.574054037002599 0.199789261981148 H 0.0 **** 0.0
31 H29897 0.197894976680767 0.569106500724805 0.23117697863793 H 0.0 **** 0.0
32 H29899 0.208878725841924 0.588031433831366 0.226663386683035 H 0.0 **** 0.0
33 H29901 0.223566964373317 0.553560110631468 0.236413949520811 H 0.0 **** 0.0
34 H29903 0.22596287706756 0.5730088216371 0.247124278298121 H 0.0 **** 0.0
35 H29905 0.310589515448307 0.584356287618039 0.179921691216316 H 0.0 **** 0.0
36 H29907 0.310473227457698 0.559567761165703 0.254489084470075 H 0.0 **** 0.0
37 C29630 0.563901177888061 0.448150596055954 0.296025350136426 C 0.0 **** 0.0
38 C29631 0.545651228243712 0.443730046447003 0.301000041005102 C 0.0 **** 0.0
39 C29632 0.536140158193899 0.450405421304987 0.285919067670811 C.Trigonal 0.0 **** 0.0
40 C29633 0.546073631745356 0.461387645965229 0.276631902151788 C.Trigonal 0.0 **** 0.0
41 C29634 0.563270731860191 0.463618827520427 0.284389936375852 C 0.0 **** 0.0
42 C29640 0.540161193640494 0.46891931912238 0.262156695118198 C 0.0 **** 0.0
43 C29641 0.523503568650916 0.464963250025779 0.256729721523996 C.Trigonal 0.0 **** 0.0
44 C29642 0.512666941451469 0.454848176476852 0.267167383111407 C.Trigonal 0.0 **** 0.0
45 C29643 0.519782624369632 0.446930828920068 0.281443664561238 C 0.0 **** 0.0
46 C29649 0.49518227067161 0.454558514328769 0.263695364354018 C 0.0 **** 0.0
47 C29650 0.488340867282365 0.464071054162018 0.250363872953518 C.Trigonal 0.0 **** 0.0
48 C29651 0.499810314136857 0.471414954628024 0.238200781629437 C.Trigonal 0.0 **** 0.0
49 C29652 0.517133032079314 0.471909693743973 0.241857371818947 C 0.0 **** 0.0
50 C29658 0.493335667730622 0.478834253685336 0.223504286299457 C 0.0 **** 0.0
51 C29659 0.475968841447464 0.481204356814533 0.221482142330641 C.Trigonal 0.0 **** 0.0
52 C29660 0.464736514995545 0.477352965952745 0.235249123538738 C.Trigonal 0.0 **** 0.0
53 C29661 0.470995782912912 0.467803303446466 0.248942024056287 C 0.0 **** 0.0
54 C29667 0.447942152983239 0.483498874097396 0.234669271813027 C 0.0 **** 0.0
55 C29668 0.442407109931325 0.490937935574302 0.220376905541406 C.Trigonal 0.0 **** 0.0
56 C29669 0.452108680642024 0.492113112145853 0.205558013658648 C.Trigonal 0.0 **** 0.0
57 C29670 0.469430250710443 0.487361017297534 0.206233093852344 C 0.0 **** 0.0
58 C29676 0.444896098369402 0.497531173614176 0.190130098602912 C 0.0 **** 0.0
59 C29677 0.42861823619708 0.50259068220141 0.190362312464726 C 0.0 **** 0.0
60 C29678 0.420261927731973 0.503066808041164 0.20638896757874 C 0.0 **** 0.0
61 N29679 0.425962199398583 0.49725880110628 0.221004570255365 N 0.0 **** 0.0
62 C29685 0.404902260606699 0.511816229927581 0.204869408205398 C.Trigonal 0.0 **** 0.0
63 C29686 0.403220603326308 0.516363879209695 0.187761063087079 C.Trigonal 0.0 **** 0.0
64 C29687 0.417267283447203 0.509497252866488 0.176716622113225 C 0.0 **** 0.0
65 C29692 0.390867749744249 0.527370336595892 0.183011691706166 C 0.0 **** 0.0
66 C29693 0.380880620687024 0.535610116683316 0.195304689366229 C.Trigonal 0.0 **** 0.0
67 C29694 0.383040828780711 0.5315052364056 0.213007891095542 C.Trigonal 0.0 **** 0.0
68 C29695 0.394636437227094 0.5187096009622 0.217384571281278 C 0.0 **** 0.0
69 C29701 0.374591633434546 0.541536305964963 0.225156755451523 C 0.0 **** 0.0
70 C29702 0.364750251574225 0.555069506681499 0.220441688764644 C.Trigonal 0.0 **** 0.0
71 C29703 0.363275567863962 0.559142894336454 0.203372383073424 C.Trigonal 0.0 **** 0.0
72 C29704 0.370703239318467 0.549602473190887 0.191046700725657 C 0.0 **** 0.0
73 C29710 0.35318686213695 0.574871385500888 0.200191316405259 C 0.0 **** 0.0
74 C29711 0.361305186954661 0.58904092967236 0.210691629176149 C 0.0 **** 0.0
75 C29712 0.361116588302767 0.585609343762231 0.227843844618333 C 0.0 **** 0.0
76 C29713 0.354793743107205 0.567288851070067 0.231830650116768 C 0.0 **** 0.0
77 C29719 0.368947193863066 0.602642279546034 0.203149419496024 C 0.0 **** 0.0
78 C29721 0.371187454528546 0.619971410512281 0.210018435015123 C 0.0 **** 0.0
79 C29723 0.360045026798607 0.624868816438084 0.224334652176999 C 0.0 **** 0.0
80 C29725 0.357291469326231 0.614222497652834 0.237832353361391 C.Trigonal 0.0 **** 0.0
81 C29727 0.366039801150694 0.597517464648731 0.239150661273473 C.Trigonal 0.0 **** 0.0
82 C29730 0.345102188700514 0.618066967113038 0.249850522258946 C 0.0 **** 0.0
83 C29731 0.342356300949806 0.605631506106031 0.264125742215845 C 0.0 **** 0.0
84 C29732 0.359701899577961 0.600336873785431 0.27092904484651 C 0.0 **** 0.0
85 C29733 0.372412140000925 0.595414515348842 0.257056433729387 C 0.0 **** 0.0
86 C29739 0.351081986131129 0.639861417558578 0.223373710017417 C 0.0 **** 0.0
87 C29740 0.338308506667944 0.643497552256182 0.234726093972621 C.Trigonal 0.0 **** 0.0
88 C29741 0.335130526639391 0.632348243369036 0.247846998135932 C.Trigonal 0.0 **** 0.0
89 C29746 0.320461214496751 0.635551226561046 0.259618124097125 C 0.0 **** 0.0
90 C29747 0.306415735405144 0.646437807233736 0.252194167945114 C.Trigonal 0.0 **** 0.0
91 C29748 0.309810861558716 0.657853227184098 0.239462050070524 C.Trigonal 0.0 **** 0.0
92 C29749 0.327539384395947 0.659106945430031 0.232037708058956 C 0.0 **** 0.0
93 C29755 0.296970018727457 0.668185437033643 0.233566450638188 C.Trigonal 0.0 **** 0.0
94 C29756 0.281065657597813 0.667477032223523 0.240816472446037 C.Trigonal 0.0 **** 0.0
95 C29757 0.277519474144215 0.655599021802414 0.253248606558098 C.Trigonal 0.0 **** 0.0
96 C29758 0.290106398942943 0.644729799204737 0.258479292191952 C.Trigonal 0.0 **** 0.0
97 C29764 0.286797635844401 0.630605921271277 0.271158257572813 C 0.0 **** 0.0
98 C29765 0.26924928282333 0.629460002218329 0.278458885565224 C.Trigonal 0.0 **** 0.0
99 C29766 0.257176570244637 0.640924532416536 0.273982638447503 C.Trigonal 0.0 **** 0.0
100 C29767 0.259911430969821 0.654852083195821 0.261092920462643 C 0.0 **** 0.0
101 C29773 0.241344748555576 0.639771630871043 0.282082723525039 C 0.0 **** 0.0
102 N29774 0.237000151163549 0.628278775313817 0.293439071958281 N 0.0 **** 0.0
103 C29775 0.248694888270901 0.616109493315074 0.297184845386765 C.Trigonal 0.0 **** 0.0
104 C29776 0.264739262313605 0.616549492306704 0.289752798109048 C.Trigonal 0.0 **** 0.0
105 C29782 0.275894793750698 0.603183593773153 0.294424210559581 C 0.0 **** 0.0
106 C29783 0.270775807706268 0.59083514257081 0.305578212449999 C 0.0 **** 0.0
107 C29784 0.25471756288681 0.591103664667604 0.312809761252135 C 0.0 **** 0.0
108 C29785 0.243830385187559 0.604146095736486 0.308495070958707 C 0.0 **** 0.0
109 C29791 0.267518200413603 0.679742774835605 0.234604751128812 C 0.0 **** 0.0
110 C29792 0.274759489933922 0.696836438256252 0.229592086971053 C.Trigonal 0.0 **** 0.0
111 C29793 0.290476252884583 0.696914996424835 0.221896272544801 C.Trigonal 0.0 **** 0.0
112 C29794 0.299949719088654 0.680561415665502 0.219162630446593 C 0.0 **** 0.0
113 C29800 0.297612788186906 0.711925377381659 0.216749128873232 C 0.0 **** 0.0
114 C29801 0.28971126804654 0.727184467953656 0.219953725103896 C 0.0 **** 0.0
115 C29802 0.274279561949542 0.727173642873629 0.228408894476996 C.Trigonal 0.0 **** 0.0
116 C29803 0.266424978493319 0.71201150179459 0.232517221776113 C.Trigonal 0.0 **** 0.0
117 C29809 0.249032751379295 0.71170861589683 0.240941920162584 C 0.0 **** 0.0
118 C29810 0.23905030741204 0.727940417296421 0.237449397219769 C 0.0 **** 0.0
119 C29811 0.249844915436059 0.74312627555517 0.241927161305682 C 0.0 **** 0.0
120 C29812 0.266643140093347 0.743730456132064 0.233159114052001 C 0.0 **** 0.0
121 O29818 0.54972887875578 0.480006152332936 0.25295371840793 O 0.0 **** 0.0
122 O29820 0.479167246967462 0.489263001171772 0.192079752812002 O 0.0 **** 0.0
123 C29822 0.355877942502967 0.560655067721832 0.250109806236929 C 0.0 **** 0.0
124 O29824 0.374755975568182 0.599971952758127 0.18707416152375 O 0.0 **** 0.0
125 O29826 0.379650563381956 0.630944283620464 0.203256733653531 O 0.0 **** 0.0
126 O29828 0.297909923229921 0.741485686296414 0.214719308131162 O 0.0 **** 0.0
127 O29830 0.27359210648808 0.757213354403475 0.230596725370087 O 0.0 **** 0.0
128 C29832 0.249291346095094 0.577445519731198 0.32494418695255 C 0.0 **** 0.0
129 H29912 0.569345916306021 0.437531932582988 0.288852832443201 H 0.0 **** 0.0
130 H29914 0.572117451696146 0.450224532249535 0.307005186457962 H 0.0 **** 0.0
131 H29916 0.543875269156699 0.430128778658606 0.303116022014697 H 0.0 **** 0.0
132 H29918 0.541825022869344 0.450433746857053 0.312587876645579 H 0.0 **** 0.0
133 H29920 0.563962321900929 0.47541970124688 0.291725984226975 H 0.0 **** 0.0
134 H29922 0.57360490352987 0.463695269355627 0.27510127273591 H 0.0 **** 0.0
135 H29924 0.512055001534028 0.438897902529418 0.289682720345032 H 0.0 **** 0.0
136 H29926 0.486664148178656 0.448016710109978 0.272482066673877 H 0.0 **** 0.0
137 H29928 0.525620299610175 0.478836952619265 0.233397372123094 H 0.0 **** 0.0
138 H29930 0.502255193959117 0.483214253532385 0.213827677026131 H 0.0 **** 0.0
139 H29932 0.46227870897598 0.463731236753532 0.258955561605672 H 0.0 **** 0.0
140 H29934 0.452221835117268 0.497920375159263 0.178355953120572 H 0.0 **** 0.0
141 H29936 0.423444731048172 0.519535427128924 0.169347631916789 H 0.0 **** 0.0
142 H29938 0.412801140034727 0.499618979379838 0.167945720082906 H 0.0 **** 0.0
143 H29940 0.38973435868373 0.53082548409418 0.169655278277702 H 0.0 **** 0.0
144 H29942 0.397157796611072 0.51578076089674 0.230735193742077 H 0.0 **** 0.0
145 H29944 0.376380557869213 0.538628335875232 0.238616555315969 H 0.0 **** 0.0
146 H29946 0.369353719646766 0.553575199230421 0.177810197711318 H 0.0 **** 0.0
147 H29948 0.352342636023741 0.5778906644159 0.186725526161447 H 0.0 **** 0.0
148 H29950 0.335294289382423 0.594542372158551 0.259464536945239 H 0.0 **** 0.0
149 H29952 0.335006803932052 0.61098551370545 0.274607251895231 H 0.0 **** 0.0
150 H29954 0.358311197811905 0.589757180131383 0.279812015308902 H 0.0 **** 0.0
151 H29956 0.364922970764508 0.610933737025616 0.278320889286991 H 0.0 **** 0.0
152 H29958 0.376919985636152 0.582472274312953 0.258936151740713 H 0.0 **** 0.0
153 H29960 0.383971350233759 0.603138559318092 0.25832482278015 H 0.0 **** 0.0
154 H29962 0.353119869120551 0.648664026822579 0.212821058574742 H 0.0 **** 0.0
155 H29964 0.315192414821153 0.62318190612579 0.263003814475798 H 0.0 **** 0.0
156 H29966 0.325032054515543 0.641258025132202 0.271522597054593 H 0.0 **** 0.0
157 H29968 0.334018850510711 0.670346979413924 0.237205572937329 H 0.0 **** 0.0
158 H29970 0.326604712526332 0.661111322956181 0.218302149840597 H 0.0 **** 0.0
159 H29972 0.289510340225083 0.618446561794949 0.264846557164511 H 0.0 **** 0.0
160 H29974 0.295843023648676 0.631809374172506 0.281712772937161 H 0.0 **** 0.0
161 H29976 0.257240571616102 0.667045285105721 0.267340602874604 H 0.0 **** 0.0
162 H29978 0.250453557296761 0.653407673774867 0.250931341846304 H 0.0 **** 0.0
163 H29980 0.231364835032063 0.648998305695429 0.279233662314713 H 0.0 **** 0.0
164 H29982 0.288667528624587 0.602480637409715 0.289034974864763 H 0.0 **** 0.0
165 H29984 0.279371444159036 0.580437234877594 0.308891394159296 H 0.0 **** 0.0
166 H29986 0.231194985227118 0.604662558305416 0.314192018757053 H 0.0 **** 0.0
167 H29988 0.260816037171768 0.674124946689387 0.223689231150975 H 0.0 **** 0.0
168 H29990 0.257997992979679 0.681476012578362 0.244495330061883 H 0.0 **** 0.0
169 H29992 0.313421356542491 0.683561053799299 0.217851581162882 H 0.0 **** 0.0
170 H29994 0.296056106719022 0.674743716772373 0.207055949421103 H 0.0 **** 0.0
171 H29996 0.309947276889429 0.71180741768678 0.210327245252807 H 0.0 **** 0.0
172 H29998 0.241577593514587 0.700834137908255 0.236468716779784 H 0.0 **** 0.0
173 H30000 0.25056207030071 0.710136496460728 0.254728458309092 H 0.0 **** 0.0
174 H30002 0.227169442422858 0.728259875632785 0.244689128318548 H 0.0 **** 0.0
175 H30004 0.23545652859998 0.728402351740504 0.223981708657135 H 0.0 **** 0.0
176 H30006 0.252577887590801 0.743409460496089 0.255582474063069 H 0.0 **** 0.0
177 H30008 0.244530553774903 0.755426735044365 0.238604429233567 H 0.0 **** 0.0
178 H30010 0.55869981762378 0.483958435220076 0.259859159615804 H 0.0 **** 0.0
179 H30012 0.488153488145732 0.481327773873176 0.192655805776506 H 0.0 **** 0.0
180 H30014 0.349668850380906 0.568982513447926 0.259288106043277 H 0.0 **** 0.0
181 H30016 0.368936406018817 0.558866252858193 0.254493084170967 H 0.0 **** 0.0
182 H30018 0.349701626205881 0.548188870686019 0.250928838807931 H 0.0 **** 0.0
183 H30020 0.38668230252712 0.598592743445901 0.187274541451998 H 0.0 **** 0.0
184 H30022 0.29122045714097 0.751027149618275 0.217921154755443 H 0.0 **** 0.0
185 H30024 0.250365235088626 0.58170364147642 0.338157952206373 H 0.0 **** 0.0
186 H30026 0.257002259133534 0.565978275430696 0.323550305405582 H 0.0 **** 0.0
187 H30028 0.236066931797728 0.573743706779445 0.322730438136315 H 0.0 **** 0.0
188 H30030 0.439310445719192 0.481917819442555 0.24541903511764 H 0.0 **** 0.0
@<TRIPOS>BOND
1 3 2 Partial double
2 4 3 Partial double
3 5 4 Partial double
4 6 5 Partial double
5 1 2 Partial double
6 1 6 Partial double
7 8 7 1
8 9 8 Aromatic
9 10 9 1
10 5 7 1
11 4 10 1
12 12 11 1
13 13 12 Double
14 14 13 1
15 9 11 1
16 8 14 1
17 16 15 1
18 17 16 1
19 18 17 1
20 13 15 1
21 12 18 1
22 6 19 1
23 3 20 1
24 7 21 Double
25 10 22 Double
26 11 23 1
27 11 24 1
28 14 25 1
29 14 26 1
30 15 27 1
31 15 28 1
32 16 29 1
33 16 30 1
34 17 31 1
35 17 32 1
36 18 33 1
37 18 34 1
38 19 35 1
39 20 36 1
40 39 38 1
41 40 39 Aromatic
42 41 40 1
43 37 38 1
44 37 41 1
45 43 42 Aromatic
46 44 43 Aromatic
47 45 44 Aromatic
48 40 42 Aromatic
49 39 45 Aromatic
50 47 46 Aromatic
51 48 47 Partial double
52 49 48 Aromatic
53 44 46 Aromatic
54 43 49 Aromatic
55 51 50 Partial double
56 52 51 Partial double
57 53 52 Partial double
58 48 50 Partial double
59 47 53 Partial double
60 55 54 Partial double
61 56 55 Partial double
62 57 56 Partial double
63 52 54 Partial double
64 51 57 Partial double
65 59 58 Partial double
66 60 59 Partial double
67 61 60 Partial double
68 56 58 Partial double
69 55 61 Partial double
70 63 62 Aromatic
71 64 63 1
72 60 62 1
73 59 64 1
74 66 65 Aromatic
75 67 66 Aromatic
76 68 67 Aromatic
77 63 65 Aromatic
78 62 68 Aromatic
79 70 69 Aromatic
80 71 70 Aromatic
81 72 71 Aromatic
82 67 69 Aromatic
83 66 72 Aromatic
84 74 73 1
85 75 74 1
86 76 75 1
87 71 73 1
88 70 76 1
89 74 77 Double
90 77 78 1
91 78 79 1
92 79 80 Partial double
93 80 81 1
94 75 81 Double
95 83 82 1
96 84 83 1
97 85 84 1
98 80 82 Partial double
99 81 85 1
100 87 86 Partial double
101 88 87 Partial double
102 82 88 Partial double
103 79 86 Partial double
104 90 89 1
105 91 90 Aromatic
106 92 91 1
107 88 89 1
108 87 92 1
109 94 93 Aromatic
110 95 94 Aromatic
111 96 95 Aromatic
112 91 93 Aromatic
113 90 96 Aromatic
114 98 97 1
115 99 98 Aromatic
116 100 99 1
117 96 97 1
118 95 100 1
119 102 101 Aromatic
120 103 102 Aromatic
121 104 103 Aromatic
122 99 101 Aromatic
123 98 104 Aromatic
124 106 105 Aromatic
125 107 106 Aromatic
126 108 107 Aromatic
127 104 105 Aromatic
128 103 108 Aromatic
129 110 109 1
130 111 110 Aromatic
131 112 111 1
132 94 109 1
133 93 112 1
134 114 113 Aromatic
135 115 114 Aromatic
136 116 115 Aromatic
137 111 113 Aromatic
138 110 116 Aromatic
139 118 117 1
140 119 118 1
141 120 119 1
142 116 117 1
143 115 120 1
144 42 121 1
145 57 122 1
146 76 123 1
147 77 124 1
148 78 125 Double
149 114 126 1
150 120 127 Double
151 107 128 1
152 37 129 1
153 37 130 1
154 38 131 1
155 38 132 1
156 41 133 1
157 41 134 1
158 45 135 1
159 46 136 1
160 49 137 1
161 50 138 1
162 53 139 1
163 58 140 1
164 64 141 1
165 64 142 1
166 65 143 1
167 68 144 1
168 69 145 1
169 72 146 1
170 73 147 1
171 83 148 1
172 83 149 1
173 84 150 1
174 84 151 1
175 85 152 1
176 85 153 1
177 86 154 1
178 89 155 1
179 89 156 1
180 92 157 1
181 92 158 1
182 97 159 1
183 97 160 1
184 100 161 1
185 100 162 1
186 101 163 1
187 105 164 1
188 106 165 1
189 108 166 1
190 109 167 1
191 109 168 1
192 112 169 1
193 112 170 1
194 113 171 1
195 117 172 1
196 117 173 1
197 118 174 1
198 118 175 1
199 119 176 1
200 119 177 1
201 121 178 1
202 122 179 1
203 123 180 1
204 123 181 1
205 123 182 1
206 124 183 1
207 126 184 1
208 128 185 1
209 128 186 1
210 128 187 1
211 54 188 1
212 76 2 1
213 73 1 1
@<TRIPOS>MOLECULE
Sketch 4
188 213
SMALL
USER_CHARGES


@<TRIPOS>ATOM
1 C30236 0.343694774001522 0.728825228459948 0.703662219981913 C.Trigonal 0.0 **** 0.0
2 C30237 0.35011387484807 0.739281810574635 0.691249978861474 C 0.0 **** 0.0
3 C30238 0.36627849346689 0.74598445854828 0.693354164567881 C 0.0 **** 0.0
4 C30239 0.375740801155285 0.741493299948622 0.707525493889894 C.Trigonal 0.0 **** 0.0
5 C30240 0.369191853253042 0.730804119927422 0.719656979124115 C.Trigonal 0.0 **** 0.0
6 C30241 0.352977979166746 0.724425959035984 0.717850244634557 C 0.0 **** 0.0
7 C30248 0.379599806631351 0.7256526559672 0.734708947306047 C 0.0 **** 0.0
8 C30249 0.397290015902066 0.731485670842194 0.735467772221543 C.Trigonal 0.0 **** 0.0
9 C30250 0.4037264166727 0.742081592477004 0.723696467233681 C.Trigonal 0.0 **** 0.0
10 C30251 0.393488663171648 0.748167961109765 0.70936592209983 C 0.0 **** 0.0
11 C30257 0.422007592532065 0.748171922983963 0.724211189712132 C 0.0 **** 0.0
12 C30258 0.433189121062291 0.737056979535569 0.735156990894705 C.Trigonal 0.0 **** 0.0
13 C30259 0.42681807893133 0.725795575850638 0.746343441543841 C.Trigonal 0.0 **** 0.0
14 C30260 0.407974862940156 0.724425411730678 0.749883140251107 C 0.0 **** 0.0
15 C30266 0.437987276939192 0.713790750567791 0.756231886425464 C 0.0 **** 0.0
16 C30267 0.455839615380302 0.712581469837169 0.74890045053778 C 0.0 **** 0.0
17 C30268 0.46283851851367 0.730316513690921 0.745402547329828 C 0.0 **** 0.0
18 C30269 0.451945005151337 0.739197229767811 0.732129505182938 C 0.0 **** 0.0
19 O30275 0.345561431824109 0.713671131118047 0.729327039807302 O 0.0 **** 0.0
20 O30277 0.372630908609333 0.756691051468429 0.681257647500434 O 0.0 **** 0.0
21 O30279 0.37339352148498 0.716484649369403 0.745411190677582 O 0.0 **** 0.0
22 O30281 0.398986549681653 0.758159137674755 0.699011637199203 O 0.0 **** 0.0
23 H30283 0.427367260770647 0.74813256761829 0.711285038971941 H 0.0 **** 0.0
24 H30285 0.42263906519589 0.761316440538837 0.728780317240156 H 0.0 **** 0.0
25 H30287 0.405026856416883 0.730931753612163 0.761816186524469 H 0.0 **** 0.0
26 H30289 0.404908402244052 0.710918579239989 0.751844780573342 H 0.0 **** 0.0
27 H30291 0.438632189690495 0.718117683965693 0.769470249067642 H 0.0 **** 0.0
28 H30293 0.432170005037812 0.701099204357412 0.756516804715969 H 0.0 **** 0.0
29 H30295 0.455542109025054 0.705341453341132 0.736977823252353 H 0.0 **** 0.0
30 H30297 0.46411741206982 0.705497268793232 0.7575661796679 H 0.0 **** 0.0
31 H30299 0.476069704810335 0.729767737116435 0.741056075113182 H 0.0 **** 0.0
32 H30301 0.462839641616483 0.737654379503886 0.757264106488599 H 0.0 **** 0.0
33 H30303 0.454945040519424 0.734042864762051 0.719510835047987 H 0.0 **** 0.0
34 H30305 0.455049778962384 0.752808272753338 0.731692461690543 H 0.0 **** 0.0
35 H30307 0.352769604421183 0.712627355197112 0.738968988708325 H 0.0 **** 0.0
36 H30309 0.38400544986154 0.75945967234035 0.684211175204579 H 0.0 **** 0.0
37 C30032 0.343435776697937 0.619231087271465 0.446241302447946 C 0.0 **** 0.0
38 C30033 0.347588901939715 0.636706982220704 0.453658595207281 C 0.0 **** 0.0
39 C30034 0.342596401708503 0.634265866243008 0.471887068919792 C.Trigonal 0.0 **** 0.0
40 C30035 0.340857569210196 0.617310189044783 0.475722730118328 C.Trigonal 0.0 **** 0.0
41 C30036 0.344739315866333 0.606306961347709 0.460666626773447 C 0.0 **** 0.0
42 C30042 0.33614999538388 0.612039611964001 0.491601433470148 C 0.0 **** 0.0
43 C30043 0.333032857703911 0.624449268659454 0.504208904847067 C.Trigonal 0.0 **** 0.0
44 C30044 0.335733146529864 0.64200207539832 0.500471109653946 C.Trigonal 0.0 **** 0.0
45 C30045 0.340106260009962 0.646559681993492 0.483802159009713 C 0.0 **** 0.0
46 C30051 0.334616107714358 0.653911222964995 0.51361590683011 C 0.0 **** 0.0
47 C30052 0.331015265989206 0.648976580286003 0.530275270505229 C.Trigonal 0.0 **** 0.0
48 C30053 0.326591486431734 0.631530826600069 0.533499579463875 C.Trigonal 0.0 **** 0.0
49 C30054 0.327816874219577 0.619668242438115 0.520388765151804 C 0.0 **** 0.0
50 C30060 0.321230448216462 0.62687239952143 0.549714602817191 C 0.0 **** 0.0
51 C30061 0.32121242039255 0.63840470620859 0.563085701893011 C.Trigonal 0.0 **** 0.0
52 C30062 0.327371314287536 0.655299106582592 0.560436841389963 C.Trigonal 0.0 **** 0.0
53 C30063 0.331593378785918 0.660334936037704 0.543904454989608 C 0.0 **** 0.0
54 C30069 0.328900207227314 0.666314234547031 0.574426581801357 C 0.0 **** 0.0
55 C30070 0.324068300249494 0.660907177797733 0.589827805333301 C.Trigonal 0.0 **** 0.0
56 C30071 0.31721597323829 0.644814955719834 0.592893758416106 C.Trigonal 0.0 **** 0.0
57 C30072 0.315274212883521 0.633575215092634 0.579115232016989 C 0.0 **** 0.0
58 C30078 0.31224857819179 0.63978592054734 0.609290305710398 C 0.0 **** 0.0
59 C30079 0.313641282013314 0.651213068704181 0.621855520063437 C 0.0 **** 0.0
60 C30080 0.320875076244978 0.667261184672487 0.617839141691358 C 0.0 **** 0.0
61 N30081 0.326121588232516 0.672600161813357 0.602863444588922 N 0.0 **** 0.0
62 C30087 0.321888238610794 0.677177464215165 0.632484849368046 C.Trigonal 0.0 **** 0.0
63 C30088 0.314985445081512 0.667624798453823 0.645812349297419 C.Trigonal 0.0 **** 0.0
64 C30089 0.308979137040319 0.650315265337361 0.640294362196428 C 0.0 **** 0.0
65 C30094 0.314175950580108 0.674410999269798 0.661585760115902 C 0.0 **** 0.0
66 C30095 0.320640937822874 0.690788901115346 0.664675650376631 C.Trigonal 0.0 **** 0.0
67 C30096 0.327696768023709 0.700697494125778 0.650996103028102 C.Trigonal 0.0 **** 0.0
68 C30097 0.328227779023127 0.693425713126923 0.634770595956542 C 0.0 **** 0.0
69 C30103 0.333192584655502 0.717360559923029 0.654481507476771 C 0.0 **** 0.0
70 C30104 0.332204314388597 0.724083563299223 0.670515190328597 C.Trigonal 0.0 **** 0.0
71 C30105 0.325957087212491 0.714059796450034 0.683565692653994 C.Trigonal 0.0 **** 0.0
72 C30106 0.320145066286318 0.698040212750023 0.680904699211437 C 0.0 **** 0.0
73 C30112 0.325912252968671 0.722812839246897 0.700306964785654 C 0.0 **** 0.0
74 C30113 0.314840197905218 0.738750013279893 0.697914868291491 C 0.0 **** 0.0
75 C30114 0.321205155569868 0.750042766153242 0.686120270703174 C 0.0 **** 0.0
76 C30115 0.337252469033969 0.741942102439663 0.676758880061172 C 0.0 **** 0.0
77 C30121 0.299538418446732 0.739250133770359 0.705912740258778 C 0.0 **** 0.0
78 C30123 0.287954534324289 0.75348465843154 0.708587770004529 C 0.0 **** 0.0
79 C30125 0.292906619421482 0.771489097433258 0.706157823722718 C 0.0 **** 0.0
80 C30127 0.304822656681547 0.777318067332607 0.694718240616335 C.Trigonal 0.0 **** 0.0
81 C30129 0.314244481064345 0.765611263995842 0.682601490280658 C.Trigonal 0.0 **** 0.0
82 C30132 0.30789594559381 0.7948506336841 0.693953423808172 C 0.0 **** 0.0
83 C30133 0.320334191294851 0.802878427831354 0.681479399981238 C 0.0 **** 0.0
84 C30134 0.329477480995765 0.789927139457196 0.67048250855666 C 0.0 **** 0.0
85 C30135 0.317185456404426 0.775714985456744 0.666598171937486 C 0.0 **** 0.0
86 C30141 0.284863922474366 0.782910318596535 0.716706495445203 C 0.0 **** 0.0
87 C30142 0.288073583040561 0.799961312931366 0.716339923862324 C.Trigonal 0.0 **** 0.0
88 C30143 0.299296288041504 0.80610080292678 0.704557642375864 C.Trigonal 0.0 **** 0.0
89 C30148 0.301838637730104 0.825205877054187 0.703349757589299 C 0.0 **** 0.0
90 C30149 0.295223356310137 0.835959373153175 0.71802094490315 C.Trigonal 0.0 **** 0.0
91 C30150 0.285373711074306 0.8289467567376 0.730584456400575 C.Trigonal 0.0 **** 0.0
92 C30151 0.278904940736956 0.810921611182367 0.728984769919748 C 0.0 **** 0.0
93 C30157 0.280941703153756 0.838370349596492 0.744749178027554 C.Trigonal 0.0 **** 0.0
94 C30158 0.285573337920404 0.855105827877038 0.745930936900115 C.Trigonal 0.0 **** 0.0
95 C30159 0.294107847649594 0.8625954069472 0.732557814206967 C.Trigonal 0.0 **** 0.0
96 C30160 0.298986802149077 0.853088264916697 0.718689024430673 C.Trigonal 0.0 **** 0.0
97 C30166 0.30824407898702 0.861872412471485 0.704159370742102 C 0.0 **** 0.0
98 C30167 0.319928091101306 0.87577784775055 0.71016164114594 C.Trigonal 0.0 **** 0.0
99 C30168 0.314915223666658 0.884863622428282 0.723984077764666 C.Trigonal 0.0 **** 0.0
100 C30169 0.298346826034133 0.881371855711143 0.732820469711414 C 0.0 **** 0.0
101 C30175 0.325658598993768 0.89764250513348 0.730035969418222 C 0.0 **** 0.0
102 N30176 0.340421891997705 0.901837889259232 0.723379850736316 N 0.0 **** 0.0
103 C30177 0.345365827624701 0.893115219491897 0.709296857059775 C.Trigonal 0.0 **** 0.0
104 C30178 0.335269757303719 0.880214902014597 0.702504051853606 C.Trigonal 0.0 **** 0.0
105 C30184 0.341654399681388 0.872466770592365 0.687541837003098 C 0.0 **** 0.0
106 C30185 0.356815337544695 0.877544155148161 0.680628204895388 C 0.0 **** 0.0
107 C30186 0.366502750282574 0.890234625409991 0.688070405360303 C 0.0 **** 0.0
108 C30187 0.360412442902544 0.897916908243683 0.702597953837229 C 0.0 **** 0.0
109 C30193 0.281366489507532 0.865669393372461 0.761551869233803 C 0.0 **** 0.0
110 C30194 0.272445282488618 0.856853663344348 0.776144723965 C.Trigonal 0.0 **** 0.0
111 C30195 0.267468652315327 0.840201670733193 0.774441354833124 C.Trigonal 0.0 **** 0.0
112 C30196 0.270990134961029 0.829770002164914 0.758780454324119 C 0.0 **** 0.0
113 C30202 0.259056314736497 0.832297184483813 0.787526585307597 C 0.0 **** 0.0
114 C30203 0.2557609085172 0.840495109945079 0.802591363412777 C 0.0 **** 0.0
115 C30204 0.261372336451158 0.857011321013509 0.804565566835494 C.Trigonal 0.0 **** 0.0
116 C30205 0.26941241863744 0.86525346618563 0.791318298385666 C.Trigonal 0.0 **** 0.0
117 C30211 0.274475779701007 0.883747428687866 0.793406453523187 C 0.0 **** 0.0
118 C30212 0.280857625115871 0.88696338756139 0.811441880605928 C 0.0 **** 0.0
119 C30213 0.267402558779804 0.881993146482869 0.824176185962131 C 0.0 **** 0.0
120 C30214 0.25857225245494 0.865486054770748 0.821180796306869 C 0.0 **** 0.0
121 O30220 0.334313304841744 0.595314501806611 0.495500813905345 O 0.0 **** 0.0
122 O30222 0.308261988242286 0.617901051750717 0.581178198717193 O 0.0 **** 0.0
123 C30224 0.345673513628467 0.750677585860982 0.661473163377284 C 0.0 **** 0.0
124 O30226 0.294025764803686 0.724093182902972 0.712431011148563 O 0.0 **** 0.0
125 O30228 0.273860218709375 0.750867908361491 0.714354293955688 O 0.0 **** 0.0
126 O30230 0.24727463906146 0.831584450298515 0.814753936913685 O 0.0 **** 0.0
127 O30232 0.249595320347246 0.859543354000769 0.832182070291999 O 0.0 **** 0.0
128 C30234 0.383105136720666 0.895693051479068 0.680468823307968 C 0.0 **** 0.0
129 H30314 0.351471684956334 0.615962998503394 0.435361508972083 H 0.0 **** 0.0
130 H30316 0.330294128779886 0.619398523168822 0.441586623427813 H 0.0 **** 0.0
131 H30318 0.361175468722034 0.639575745225092 0.452572064516914 H 0.0 **** 0.0
132 H30320 0.34050562490932 0.646842788267794 0.447346635493727 H 0.0 **** 0.0
133 H30322 0.335897210374165 0.595712323397834 0.459070016234983 H 0.0 **** 0.0
134 H30324 0.357626140010445 0.601073028129854 0.461560991332525 H 0.0 **** 0.0
135 H30326 0.342069530676922 0.659845203462137 0.480337732077425 H 0.0 **** 0.0
136 H30328 0.337258719643195 0.667262566244754 0.510891116719022 H 0.0 **** 0.0
137 H30330 0.325094440465519 0.606310093735195 0.523062704062711 H 0.0 **** 0.0
138 H30332 0.317111451750647 0.613795033650736 0.551825150966916 H 0.0 **** 0.0
139 H30334 0.335546451476042 0.673416531635505 0.541588856178154 H 0.0 **** 0.0
140 H30336 0.307083917201659 0.627216058988149 0.612033105351374 H 0.0 **** 0.0
141 H30338 0.295277777898598 0.648729713062441 0.64227124769344 H 0.0 **** 0.0
142 H30340 0.315561902206272 0.640030158486428 0.646895178583883 H 0.0 **** 0.0
143 H30342 0.308433097296433 0.667074247318332 0.671871781231317 H 0.0 **** 0.0
144 H30344 0.333386078713804 0.700476163072956 0.623987789595678 H 0.0 **** 0.0
145 H30346 0.338318283006681 0.724919505178292 0.644053114379588 H 0.0 **** 0.0
146 H30348 0.314742335342301 0.691002637922064 0.691557656972966 H 0.0 **** 0.0
147 H30350 0.321412358988899 0.714563967600374 0.710434058961138 H 0.0 **** 0.0
148 H30352 0.329745891073319 0.810640089580807 0.688225553727406 H 0.0 **** 0.0
149 H30354 0.313248710035598 0.811526271302459 0.673123748125169 H 0.0 **** 0.0
150 H30356 0.340622923975671 0.785085966163758 0.677301196292141 H 0.0 **** 0.0
151 H30358 0.334182751836656 0.795937869046485 0.658858063206757 H 0.0 **** 0.0
152 H30360 0.321244144926413 0.767528823578772 0.65628178175478 H 0.0 **** 0.0
153 H30362 0.305172672846513 0.781159580889917 0.661910442777083 H 0.0 **** 0.0
154 H30364 0.275554892558471 0.778573064389407 0.726085349096911 H 0.0 **** 0.0
155 H30366 0.315530863526148 0.827561035150807 0.702475115742805 H 0.0 **** 0.0
156 H30368 0.29613938436464 0.829775472263456 0.691444052300347 H 0.0 **** 0.0
157 H30370 0.26534724409177 0.811295770146589 0.725608746060762 H 0.0 **** 0.0
158 H30372 0.279657695691578 0.804459531548937 0.741274299813652 H 0.0 **** 0.0
159 H30374 0.315481615573159 0.85268563336174 0.696781941720964 H 0.0 **** 0.0
160 H30376 0.298813773039628 0.867220883181643 0.695314864253746 H 0.0 **** 0.0
161 H30378 0.288059524055639 0.888532491695797 0.726607930886208 H 0.0 **** 0.0
162 H30380 0.299113904613699 0.886240085322662 0.745770179442208 H 0.0 **** 0.0
163 H30382 0.322107018747413 0.905062478758863 0.741212217064349 H 0.0 **** 0.0
164 H30384 0.334468969097686 0.862458393887813 0.681173290932912 H 0.0 **** 0.0
165 H30386 0.361424383442721 0.871655218311996 0.668909017110177 H 0.0 **** 0.0
166 H30388 0.367680314525758 0.908072932148483 0.708642553469725 H 0.0 **** 0.0
167 H30390 0.293442047015744 0.870647601973491 0.76645909203853 H 0.0 **** 0.0
168 H30392 0.273684090985168 0.876638853115706 0.757604913762206 H 0.0 **** 0.0
169 H30394 0.25891926258072 0.825113468314147 0.753594123341484 H 0.0 **** 0.0
170 H30396 0.278069159391419 0.81849816676106 0.762980774207892 H 0.0 **** 0.0
171 H30398 0.255104995048939 0.819074635809581 0.785990697532005 H 0.0 **** 0.0
172 H30400 0.284277016598827 0.88762256347604 0.784372365110571 H 0.0 **** 0.0
173 H30402 0.263427099061266 0.891904593256987 0.790885269649094 H 0.0 **** 0.0
174 H30404 0.284249462907924 0.900343131085903 0.813251986700818 H 0.0 **** 0.0
175 H30406 0.2924874710247 0.879557217242763 0.813538222260734 H 0.0 **** 0.0
176 H30408 0.256966235333641 0.891130622548206 0.824541283967056 H 0.0 **** 0.0
177 H30410 0.271841430987722 0.88067481524023 0.837275741480298 H 0.0 **** 0.0
178 H30412 0.337599785531987 0.58898030415268 0.485866793725189 H 0.0 **** 0.0
179 H30414 0.299641168277725 0.618657753988152 0.58948054328898 H 0.0 **** 0.0
180 H30416 0.349480122589134 0.763782264576634 0.663861549467352 H 0.0 **** 0.0
181 H30418 0.337765425877126 0.750769061804125 0.650058446581171 H 0.0 **** 0.0
182 H30420 0.357192429243447 0.743610587652438 0.658029768211606 H 0.0 **** 0.0
183 H30422 0.282805321233471 0.721872022390412 0.708604833617242 H 0.0 **** 0.0
184 H30424 0.246323763566072 0.838609548561638 0.824553716285921 H 0.0 **** 0.0
185 H30426 0.393595667917215 0.894068123836199 0.68947239929069 H 0.0 **** 0.0
186 H30428 0.382749801815793 0.909094853845887 0.676717718865318 H 0.0 **** 0.0
187 H30430 0.386197966029627 0.88835658845654 0.669111421135033 H 0.0 **** 0.0
188 H30432 0.333878678934363 0.679164565092146 0.572924753374688 H 0.0 **** 0.0
@<TRIPOS>BOND
1 3 2 Partial double
2 4 3 Partial double
3 5 4 Partial double
4 6 5 Partial double
5 1 2 Partial double
6 1 6 Partial double
7 8 7 1
8 9 8 Aromatic
9 10 9 1
10 5 7 1
11 4 10 1
12 12 11 1
13 13 12 Double
14 14 13 1
15 9 11 1
16 8 14 1
17 16 15 1
18 17 16 1
19 18 17 1
20 13 15 1
21 12 18 1
22 6 19 1
23 3 20 1
24 7 21 Double
25 10 22 Double
26 11 23 1
27 11 24 1
28 14 25 1
29 14 26 1
30 15 27 1
31 15 28 1
32 16 29 1
33 16 30 1
34 17 31 1
35 17 32 1
36 18 33 1
37 18 34 1
38 19 35 1
39 20 36 1
40 39 38 1
41 40 39 Aromatic
42 41 40 1
43 37 38 1
44 37 41 1
45 43 42 Aromatic
46 44 43 Aromatic
47 45 44 Aromatic
48 40 42 Aromatic
49 39 45 Aromatic
50 47 46 Aromatic
51 48 47 Partial double
52 49 48 Aromatic
53 44 46 Aromatic
54 43 49 Aromatic
55 51 50 Partial double
56 52 51 Partial double
57 53 52 Partial double
58 48 50 Partial double
59 47 53 Partial double
60 55 54 Partial double
61 56 55 Partial double
62 57 56 Partial double
63 52 54 Partial double
64 51 57 Partial double
65 59 58 Partial double
66 60 59 Partial double
67 61 60 Partial double
68 56 58 Partial double
69 55 61 Partial double
70 63 62 Aromatic
71 64 63 1
72 60 62 1
73 59 64 1
74 66 65 Aromatic
75 67 66 Aromatic
76 68 67 Aromatic
77 63 65 Aromatic
78 62 68 Aromatic
79 70 69 Aromatic
80 71 70 Aromatic
81 72 71 Aromatic
82 67 69 Aromatic
83 66 72 Aromatic
84 74 73 1
85 75 74 1
86 76 75 1
87 71 73 1
88 70 76 1
89 74 77 Double
90 77 78 1
91 78 79 1
92 79 80 Partial double
93 80 81 1
94 75 81 Double
95 83 82 1
96 84 83 1
97 85 84 1
98 80 82 Partial double
99 81 85 1
100 87 86 Partial double
101 88 87 Partial double
102 82 88 Partial double
103 79 86 Partial double
104 90 89 1
105 91 90 Aromatic
106 92 91 1
107 88 89 1
108 87 92 1
109 94 93 Aromatic
110 95 94 Aromatic
111 96 95 Aromatic
112 91 93 Aromatic
113 90 96 Aromatic
114 98 97 1
115 99 98 Aromatic
116 100 99 1
117 96 97 1
118 95 100 1
119 102 101 Aromatic
120 103 102 Aromatic
121 104 103 Aromatic
122 99 101 Aromatic
123 98 104 Aromatic
124 106 105 Aromatic
125 107 106 Aromatic
126 108 107 Aromatic
127 104 105 Aromatic
128 103 108 Aromatic
129 110 109 1
130 111 110 Aromatic
131 112 111 1
132 94 109 1
133 93 112 1
134 114 113 Aromatic
135 115 114 Aromatic
136 116 115 Aromatic
137 111 113 Aromatic
138 110 116 Aromatic
139 118 117 1
140 119 118 1
141 120 119 1
142 116 117 1
143 115 120 1
144 42 121 1
145 57 122 1
146 76 123 1
147 77 124 1
148 78 125 Double
149 114 126 1
150 120 127 Double
151 107 128 1
152 37 129 1
153 37 130 1
154 38 131 1
155 38 132 1
156 41 133 1
157 41 134 1
158 45 135 1
159 46 136 1
160 49 137 1
161 50 138 1
162 53 139 1
163 58 140 1
164 64 141 1
165 64 142 1
166 65 143 1
167 68 144 1
168 69 145 1
169 72 146 1
170 73 147 1
171 83 148 1
172 83 149 1
173 84 150 1
174 84 151 1
175 85 152 1
176 85 153 1
177 86 154 1
178 89 155 1
179 89 156 1
180 92 157 1
181 92 158 1
182 97 159 1
183 97 160 1
184 100 161 1
185 100 162 1
186 101 163 1
187 105 164 1
188 106 165 1
189 108 166 1
190 109 167 1
191 109 168 1
192 112 169 1
193 112 170 1
194 113 171 1
195 117 172 1
196 117 173 1
197 118 174 1
198 118 175 1
199 119 176 1
200 119 177 1
201 121 178 1
202 122 179 1
203 123 180 1
204 123 181 1
205 123 182 1
206 124 183 1
207 126 184 1
208 128 185 1
209 128 186 1
210 128 187 1
211 54 188 1
212 76 2 1
213 73 1 1
@<TRIPOS>MOLECULE
Sketch 4
188 213
SMALL
USER_CHARGES


@<TRIPOS>ATOM
1 C30638 0.192029362361617 0.29785905263481 0.389182751671844 C.Trigonal 0.0 **** 0.0
2 C30639 0.202831893331786 0.284210693504378 0.38996835854713 C 0.0 **** 0.0
3 C30640 0.220063289145058 0.286839402354808 0.387183662798338 C 0.0 **** 0.0
4 C30641 0.22592451110568 0.303139020153102 0.383883835754205 C.Trigonal 0.0 **** 0.0
5 C30642 0.214883535810948 0.316619575998089 0.383034152098694 C.Trigonal 0.0 **** 0.0
6 C30643 0.197745466805635 0.314060429002066 0.385726578782413 C 0.0 **** 0.0
7 C30650 0.221189953530458 0.334089046589271 0.378855839887957 C 0.0 **** 0.0
8 C30651 0.239428248646688 0.336221911099927 0.375426111405593 C.Trigonal 0.0 **** 0.0
9 C30652 0.250328670413638 0.323099645798744 0.376452439121738 C.Trigonal 0.0 **** 0.0
10 C30653 0.244536263842524 0.305922282724045 0.380774976476463 C 0.0 **** 0.0
11 C30659 0.269275864145386 0.3249304697973 0.373345310884908 C 0.0 **** 0.0
12 C30660 0.274735785966634 0.342626125483212 0.368292461319904 C.Trigonal 0.0 **** 0.0
13 C30661 0.26387830439056 0.355787163641018 0.367504454874092 C.Trigonal 0.0 **** 0.0
14 C30662 0.245073093135491 0.354019606963716 0.370746484634901 C 0.0 **** 0.0
15 C30668 0.269378064417271 0.373468954999103 0.362678772376758 C 0.0 **** 0.0
16 C30669 0.288537882883195 0.375925388030705 0.363441816397544 C 0.0 **** 0.0
17 C30670 0.297559198496155 0.360905020459903 0.355137415309948 C 0.0 **** 0.0
18 C30671 0.293415048838008 0.34455700499469 0.36458934798145 C 0.0 **** 0.0
19 O30677 0.185913765707106 0.326810973176823 0.384974714599712 O 0.0 **** 0.0
20 O30679 0.230873329253039 0.273240212971523 0.387541803452216 O 0.0 **** 0.0
21 O30681 0.211115017523014 0.345743722819418 0.378523629959527 O 0.0 **** 0.0
22 O30683 0.254251429109174 0.294035355589926 0.381902660786417 O 0.0 **** 0.0
23 H30685 0.276315497498916 0.321271738132201 0.384848501216173 H 0.0 **** 0.0
24 H30687 0.273201335131247 0.316089393670293 0.363264702219219 H 0.0 **** 0.0
25 H30689 0.238585795826735 0.357937598352456 0.359063744974908 H 0.0 **** 0.0
26 H30691 0.241386483833818 0.363030539083921 0.38077367271177 H 0.0 **** 0.0
27 H30693 0.264872678386182 0.376029814746108 0.349712264529675 H 0.0 **** 0.0
28 H30695 0.263025567586833 0.382758569645994 0.370951249745033 H 0.0 **** 0.0
29 H30697 0.292665785859292 0.376972549187002 0.376721019498493 H 0.0 **** 0.0
30 H30699 0.292006060107299 0.387919019597479 0.357247889732092 H 0.0 **** 0.0
31 H30701 0.311361057663423 0.362851228481604 0.354851519162634 H 0.0 **** 0.0
32 H30703 0.293368069817581 0.359982226172357 0.341887806934601 H 0.0 **** 0.0
33 H30705 0.300317325849103 0.344369617498081 0.376718332597036 H 0.0 **** 0.0
34 H30707 0.297940640450208 0.333501010372379 0.357393172343896 H 0.0 **** 0.0
35 H30709 0.19160248169793 0.337032613913406 0.381892956269199 H 0.0 **** 0.0
36 H30711 0.242124482359181 0.277153020154828 0.385505085458807 H 0.0 **** 0.0
37 C30434 0.103109150313266 0.0787365026669467 0.538881030523214 C 0.0 **** 0.0
38 C30435 0.114011100679312 0.0817762786378796 0.523086287460125 C 0.0 **** 0.0
39 C30436 0.112869180623184 0.100717534072481 0.521456397082489 C.Trigonal 0.0 **** 0.0
40 C30437 0.0995279766773435 0.107106472403788 0.530785727536217 C.Trigonal 0.0 **** 0.0
41 C30438 0.0903389890498769 0.0933285290571315 0.540145786696541 C 0.0 **** 0.0
42 C30444 0.0958379741929761 0.12409001304474 0.530830000252207 C 0.0 **** 0.0
43 C30445 0.106289010094245 0.135118143378809 0.521278789698554 C.Trigonal 0.0 **** 0.0
44 C30446 0.120428691051731 0.128558338829619 0.511978266571864 C.Trigonal 0.0 **** 0.0
45 C30447 0.123250112447204 0.110969321948518 0.512166107386106 C 0.0 **** 0.0
46 C30453 0.130535650599976 0.13971831888558 0.50256787008027 C 0.0 **** 0.0
47 C30454 0.126518575698295 0.156967066337635 0.501322409142671 C.Trigonal 0.0 **** 0.0
48 C30455 0.111728423170122 0.163276252833277 0.510073542974121 C.Trigonal 0.0 **** 0.0
49 C30456 0.102362075055525 0.152310659519403 0.520321501563738 C 0.0 **** 0.0
50 C30462 0.106396944112813 0.179957578906928 0.507334210505324 C 0.0 **** 0.0
51 C30463 0.114905376709867 0.190479469095155 0.496019648711893 C.Trigonal 0.0 **** 0.0
52 C30464 0.130606483259814 0.184933651104125 0.488670817745375 C.Trigonal 0.0 **** 0.0
53 C30465 0.135922559592379 0.168156897451534 0.49129416688931 C 0.0 **** 0.0
54 C30471 0.14031752256953 0.196392655627092 0.479024389167969 C 0.0 **** 0.0
55 C30472 0.134192693338025 0.211973845816274 0.476113883698612 C.Trigonal 0.0 **** 0.0
56 C30473 0.118127896832316 0.217312661376246 0.4813885470261 C.Trigonal 0.0 **** 0.0
57 C30474 0.108235047304613 0.206262923250588 0.491580659083641 C 0.0 **** 0.0
58 C30480 0.111614800181442 0.233239441408455 0.476614427599987 C 0.0 **** 0.0
59 C30481 0.121691344542014 0.243474734366628 0.467463791266113 C 0.0 **** 0.0
60 C30482 0.138257104911152 0.237517457920559 0.463400717692108 C 0.0 **** 0.0
61 N30483 0.144888291041934 0.222607227798696 0.466965756146971 N 0.0 **** 0.0
62 C30489 0.147066262222026 0.249936605184574 0.454331794184513 C.Trigonal 0.0 **** 0.0
63 C30490 0.135819236177818 0.263414445706869 0.451760686070912 C.Trigonal 0.0 **** 0.0
64 C30491 0.118881532516868 0.260853689632588 0.460265886999059 C 0.0 **** 0.0
65 C30496 0.14042227827541 0.276397294895406 0.441494697234197 C 0.0 **** 0.0
66 C30497 0.156283900083777 0.276272526202383 0.433157533189812 C.Trigonal 0.0 **** 0.0
67 C30498 0.167624083155027 0.262100235266827 0.43536908260933 C.Trigonal 0.0 **** 0.0
68 C30499 0.163127986734547 0.24957362509605 0.447147000629427 C 0.0 **** 0.0
69 C30505 0.180518355900408 0.259513539084256 0.423202521160454 C 0.0 **** 0.0
70 C30506 0.182095824567166 0.269928667994691 0.409327314571448 C.Trigonal 0.0 **** 0.0
71 C30507 0.171754712453492 0.284121015788883 0.408177485894085 C.Trigonal 0.0 **** 0.0
72 C30508 0.159595437052909 0.287650926527922 0.419924366557666 C 0.0 **** 0.0
73 C30514 0.173675055115343 0.293476144213758 0.391885346436911 C 0.0 **** 0.0
74 C30515 0.168523615670412 0.279804352398933 0.37885530819777 C 0.0 **** 0.0
75 C30516 0.179750541605801 0.26635938617491 0.37802612339722 C 0.0 **** 0.0
76 C30517 0.193095005261675 0.267609014120157 0.393302040375201 C 0.0 **** 0.0
77 C30523 0.152881210987647 0.281120989452499 0.371647588605476 C 0.0 **** 0.0
78 C30525 0.144268759288269 0.270390241066825 0.359207306116467 C 0.0 **** 0.0
79 C30527 0.152927073214802 0.258223647048425 0.347775540130515 C 0.0 **** 0.0
80 C30529 0.169371675488659 0.252419742022812 0.349651947429211 C.Trigonal 0.0 **** 0.0
81 C30531 0.179149564493954 0.25364288997771 0.36621363630978 C.Trigonal 0.0 **** 0.0
82 C30534 0.176952109919467 0.243914542512214 0.335996549788069 C 0.0 **** 0.0
83 C30535 0.195397623159193 0.237991910373216 0.336280330464193 C 0.0 **** 0.0
84 C30536 0.203630975462763 0.239585925321664 0.353702786104182 C 0.0 **** 0.0
85 C30537 0.189591733387947 0.237569552404267 0.366665431279666 C 0.0 **** 0.0
86 C30543 0.143850585756198 0.253342572595847 0.333620495008703 C 0.0 **** 0.0
87 C30544 0.150864756425863 0.244196870491415 0.32063717744504 C.Trigonal 0.0 **** 0.0
88 C30545 0.167747009839756 0.240085912525484 0.321432446463888 C.Trigonal 0.0 **** 0.0
89 C30550 0.175887322940492 0.230998953975068 0.306522988529474 C 0.0 **** 0.0
90 C30551 0.16564716938076 0.230256279785708 0.290124632706651 C.Trigonal 0.0 **** 0.0
91 C30552 0.148671760198004 0.234211280146506 0.29001180203844 C.Trigonal 0.0 **** 0.0
92 C30553 0.139613719196624 0.240046273844178 0.305833007016625 C 0.0 **** 0.0
93 C30559 0.139612608710395 0.233186023129964 0.275116826021863 C.Trigonal 0.0 **** 0.0
94 C30560 0.147538470515313 0.228755089226603 0.260224010031198 C.Trigonal 0.0 **** 0.0
95 C30561 0.164618148150997 0.224904779330661 0.260223324607748 C.Trigonal 0.0 **** 0.0
96 C30562 0.173642756991557 0.225534443126417 0.275169256845892 C.Trigonal 0.0 **** 0.0
97 C30568 0.192535338654531 0.221462340049426 0.275628418630933 C 0.0 **** 0.0
98 C30569 0.199817494822932 0.213183321059165 0.259990245665279 C.Trigonal 0.0 **** 0.0
99 C30570 0.190599052033563 0.212764903443828 0.245425098594833 C.Trigonal 0.0 **** 0.0
100 C30571 0.173075483217846 0.220140255097333 0.243656174056118 C 0.0 **** 0.0
101 C30577 0.197796900211965 0.204926637256918 0.231154142053356 C 0.0 **** 0.0
102 N30578 0.212509317476958 0.19705503794326 0.230665837504214 N 0.0 **** 0.0
103 C30579 0.221808068132979 0.197349529635167 0.245231730644573 C.Trigonal 0.0 **** 0.0
104 C30580 0.215972896138538 0.205843119941395 0.259635052468081 C.Trigonal 0.0 **** 0.0
105 C30586 0.227037406784118 0.205528280780718 0.273854564825653 C 0.0 **** 0.0
106 C30587 0.241805216354201 0.196291185970125 0.273408126470149 C 0.0 **** 0.0
107 C30588 0.246502382042072 0.187277634077381 0.259015685111426 C 0.0 **** 0.0
108 C30589 0.236334999821964 0.188288370312457 0.244801675717614 C 0.0 **** 0.0
109 C30595 0.136785661320191 0.228377402599206 0.244172095967097 C 0.0 **** 0.0
110 C30596 0.124581431770947 0.243273560444079 0.243570516176639 C.Trigonal 0.0 **** 0.0
111 C30597 0.117064350166043 0.247423424111803 0.258840494135834 C.Trigonal 0.0 **** 0.0
112 C30598 0.120832679123061 0.236915217200914 0.274305499292779 C 0.0 **** 0.0
113 C30604 0.10636604791748 0.261038389748815 0.259942676591572 C 0.0 **** 0.0
114 C30605 0.10227860652581 0.270419843801403 0.245809306028178 C 0.0 **** 0.0
115 C30606 0.108886799512115 0.265642747575805 0.230171387661582 C.Trigonal 0.0 **** 0.0
116 C30607 0.120402297042248 0.252341011440579 0.229128643381051 C.Trigonal 0.0 **** 0.0
117 C30613 0.127872866465446 0.24722908971783 0.212055439219152 C 0.0 **** 0.0
118 C30614 0.129959996983746 0.262608482285459 0.200464912006663 C 0.0 **** 0.0
119 C30615 0.113214391978383 0.271681771114343 0.198630218070463 C 0.0 **** 0.0
120 C30616 0.103483650808931 0.274907998057669 0.214630931260638 C 0.0 **** 0.0
121 O30622 0.0825700835164434 0.130838499785348 0.539576924036938 O 0.0 **** 0.0
122 O30624 0.0927969418579137 0.211735880798265 0.496997623914321 O 0.0 **** 0.0
123 C30626 0.205528902346264 0.25320026109586 0.397623541167117 C 0.0 **** 0.0
124 O30628 0.142937958870034 0.294173139994298 0.377398859727966 O 0.0 **** 0.0
125 O30630 0.129142320545955 0.272793403726931 0.357101558488087 O 0.0 **** 0.0
126 O30632 0.0916556602686287 0.283887357747089 0.248482287897152 O 0.0 **** 0.0
127 O30634 0.0915602682169147 0.284587292638906 0.214118291486076 O 0.0 **** 0.0
128 C30636 0.26181596626411 0.176032209242537 0.258887018098532 C 0.0 **** 0.0
129 H30716 0.111351449177471 0.0790641445422631 0.550115543517109 H 0.0 **** 0.0
130 H30718 0.0969608435510819 0.066255460921785 0.53879475152597 H 0.0 **** 0.0
131 H30720 0.127020344827114 0.0771486654485841 0.524577551066252 H 0.0 **** 0.0
132 H30722 0.108528853233166 0.0755166633342494 0.511926279860732 H 0.0 **** 0.0
133 H30724 0.0783570401419063 0.0901389560679706 0.53386372556155 H 0.0 **** 0.0
134 H30726 0.0874662765387521 0.0966778143525666 0.553321709621647 H 0.0 **** 0.0
135 H30728 0.133669476225447 0.105323821470551 0.504942799835397 H 0.0 **** 0.0
136 H30730 0.141384340527824 0.134707697753756 0.495486100630807 H 0.0 **** 0.0
137 H30732 0.0911864084406822 0.157174636288662 0.52699596687451 H 0.0 **** 0.0
138 H30734 0.0948168336271999 0.184224382471584 0.513691960638703 H 0.0 **** 0.0
139 H30736 0.147471301520786 0.163658431768683 0.485015472038488 H 0.0 **** 0.0
140 H30738 0.0988840362459735 0.23734730073192 0.480287528616435 H 0.0 **** 0.0
141 H30740 0.108488026947791 0.260869808145226 0.451053583523721 H 0.0 **** 0.0
142 H30742 0.116286606034058 0.270465757747937 0.469976613126863 H 0.0 **** 0.0
143 H30744 0.131052071018449 0.286222321892867 0.438726077419744 H 0.0 **** 0.0
144 H30746 0.171227063930628 0.238477442620095 0.448900978392974 H 0.0 **** 0.0
145 H30748 0.188336920441185 0.248122200130745 0.424292297175322 H 0.0 **** 0.0
146 H30750 0.150937744556006 0.298159876593824 0.417386657271778 H 0.0 **** 0.0
147 H30752 0.165746266538909 0.304772210178274 0.391484000204575 H 0.0 **** 0.0
148 H30754 0.202833374899077 0.244770226358404 0.326642194167198 H 0.0 **** 0.0
149 H30756 0.195696361917207 0.224529083343112 0.332688594238948 H 0.0 **** 0.0
150 H30758 0.209740114195589 0.252026346892859 0.355187720753578 H 0.0 **** 0.0
151 H30760 0.213704942628989 0.230109997743268 0.355202004321243 H 0.0 **** 0.0
152 H30762 0.193997480431417 0.234419858761798 0.379264408521023 H 0.0 **** 0.0
153 H30764 0.181786385725232 0.226495268717914 0.363322936001865 H 0.0 **** 0.0
154 H30766 0.130548221274328 0.257064474453132 0.331943526694223 H 0.0 **** 0.0
155 H30768 0.187985867675697 0.237312568519182 0.303769439761274 H 0.0 **** 0.0
156 H30770 0.178990784728657 0.217946127562582 0.310377358528615 H 0.0 **** 0.0
157 H30772 0.130109581728833 0.230599786317242 0.309641579445601 H 0.0 **** 0.0
158 H30774 0.132573307230234 0.251711955782908 0.302867468111076 H 0.0 **** 0.0
159 H30776 0.199631105508635 0.233228005539973 0.278152509217728 H 0.0 **** 0.0
160 H30778 0.1949060197872 0.213003294729812 0.286442689438936 H 0.0 **** 0.0
161 H30780 0.165148622043979 0.210689776373565 0.23722196405333 H 0.0 **** 0.0
162 H30782 0.173611614906325 0.231330447932357 0.23531825298848 H 0.0 **** 0.0
163 H30784 0.190991288140568 0.204794324686081 0.219092248393733 H 0.0 **** 0.0
164 H30786 0.223539601926847 0.21199540013372 0.285628440397684 H 0.0 **** 0.0
165 H30788 0.249968211698751 0.195690883808916 0.284641178544684 H 0.0 **** 0.0
166 H30790 0.239785535194418 0.181432891073969 0.233262957966054 H 0.0 **** 0.0
167 H30792 0.144921262844812 0.2280962946351 0.233057666271794 H 0.0 **** 0.0
168 H30794 0.129508168416536 0.216439654386549 0.243780570803255 H 0.0 **** 0.0
169 H30796 0.113739418659559 0.224898395697122 0.273678191230607 H 0.0 **** 0.0
170 H30798 0.116078302828546 0.243342423126121 0.285590607669289 H 0.0 **** 0.0
171 H30800 0.101046598915435 0.264480297861738 0.272314247305336 H 0.0 **** 0.0
172 H30802 0.1403026033135 0.241212399039478 0.213308940562791 H 0.0 **** 0.0
173 H30804 0.119537214192111 0.237855879464729 0.2059314416226 H 0.0 **** 0.0
174 H30806 0.134669036723255 0.258806954140922 0.18792276929604 H 0.0 **** 0.0
175 H30808 0.13953073472179 0.271156947853643 0.205932927760565 H 0.0 **** 0.0
176 H30810 0.10424986374488 0.264518171660626 0.190757619624562 H 0.0 **** 0.0
177 H30812 0.114009413291297 0.284373356993287 0.193051367458918 H 0.0 **** 0.0
178 H30814 0.0748962784849409 0.122190751335189 0.542803267279444 H 0.0 **** 0.0
179 H30816 0.0863545789354115 0.202253248298527 0.500441401780101 H 0.0 **** 0.0
180 H30818 0.21386028877189 0.249619278684357 0.387103220049749 H 0.0 **** 0.0
181 H30820 0.19933538311226 0.241534490516738 0.401941474129574 H 0.0 **** 0.0
182 H30822 0.213675130947753 0.257338919172106 0.408158816354596 H 0.0 **** 0.0
183 H30824 0.131408041315818 0.291186381048919 0.375355713487759 H 0.0 **** 0.0
184 H30826 0.0947660003969037 0.293084907069415 0.241187586469863 H 0.0 **** 0.0
185 H30828 0.270332295764318 0.178682712839555 0.269493596743479 H 0.0 **** 0.0
186 H30830 0.268992945054857 0.177441245143236 0.247118768198356 H 0.0 **** 0.0
187 H30832 0.25804839740682 0.162666740854783 0.259766880001835 H 0.0 **** 0.0
188 H30834 0.152558547975785 0.192672759579054 0.473696039990239 H 0.0 **** 0.0
@<TRIPOS>BOND
1 3 2 Partial double
2 4 3 Partial double
3 5 4 Partial double
4 6 5 Partial double
5 1 2 Partial double
6 1 6 Partial double
7 8 7 1
8 9 8 Aromatic
9 10 9 1
10 5 7 1
11 4 10 1
12 12 11 1
13 13 12 Double
14 14 13 1
15 9 11 1
16 8 14 1
17 16 15 1
18 17 16 1
19 18 17 1
20 13 15 1
21 12 18 1
22 6 19 1
23 3 20 1
24 7 21 Double
25 10 22 Double
26 11 23 1
27 11 24 1
28 14 25 1
29 14 26 1
30 15 27 1
31 15 28 1
32 16 29 1
33 16 30 1
34 17 31 1
35 17 32 1
36 18 33 1
37 18 34 1
38 19 35 1
39 20 36 1
40 39 38 1
41 40 39 Aromatic
42 41 40 1
43 37 38 1
44 37 41 1
45 43 42 Aromatic
46 44 43 Aromatic
47 45 44 Aromatic
48 40 42 Aromatic
49 39 45 Aromatic
50 47 46 Aromatic
51 48 47 Partial double
52 49 48 Aromatic
53 44 46 Aromatic
54 43 49 Aromatic
55 51 50 Partial double
56 52 51 Partial double
57 53 52 Partial double
58 48 50 Partial double
59 47 53 Partial double
60 55 54 Partial double
61 56 55 Partial double
62 57 56 Partial double
63 52 54 Partial double
64 51 57 Partial double
65 59 58 Partial double
66 60 59 Partial double
67 61 60 Partial double
68 56 58 Partial double
69 55 61 Partial double
70 63 62 Aromatic
71 64 63 1
72 60 62 1
73 59 64 1
74 66 65 Aromatic
75 67 66 Aromatic
76 68 67 Aromatic
77 63 65 Aromatic
78 62 68 Aromatic
79 70 69 Aromatic
80 71 70 Aromatic
81 72 71 Aromatic
82 67 69 Aromatic
83 66 72 Aromatic
84 74 73 1
85 75 74 1
86 76 75 1
87 71 73 1
88 70 76 1
89 74 77 Double
90 77 78 1
91 78 79 1
92 79 80 Partial double
93 80 81 1
94 75 81 Double
95 83 82 1
96 84 83 1
97 85 84 1
98 80 82 Partial double
99 81 85 1
100 87 86 Partial double
101 88 87 Partial double
102 82 88 Partial double
103 79 86 Partial double
104 90 89 1
105 91 90 Aromatic
106 92 91 1
107 88 89 1
108 87 92 1
109 94 93 Aromatic
110 95 94 Aromatic
111 96 95 Aromatic
112 91 93 Aromatic
113 90 96 Aromatic
114 98 97 1
115 99 98 Aromatic
116 100 99 1
117 96 97 1
118 95 100 1
119 102 101 Aromatic
120 103 102 Aromatic
121 104 103 Aromatic
122 99 101 Aromatic
123 98 104 Aromatic
124 106 105 Aromatic
125 107 106 Aromatic
126 108 107 Aromatic
127 104 105 Aromatic
128 103 108 Aromatic
129 110 109 1
130 111 110 Aromatic
131 112 111 1
132 94 109 1
133 93 112 1
134 114 113 Aromatic
135 115 114 Aromatic
136 116 115 Aromatic
137 111 113 Aromatic
138 110 116 Aromatic
139 118 117 1
140 119 118 1
141 120 119 1
142 116 117 1
143 115 120 1
144 42 121 1
145 57 122 1
146 76 123 1
147 77 124 1
148 78 125 Double
149 114 126 1
150 120 127 Double
151 107 128 1
152 37 129 1
153 37 130 1
154 38 131 1
155 38 132 1
156 41 133 1
157 41 134 1
158 45 135 1
159 46 136 1
160 49 137 1
161 50 138 1
162 53 139 1
163 58 140 1
164 64 141 1
165 64 142 1
166 65 143 1
167 68 144 1
168 69 145 1
169 72 146 1
170 73 147 1
171 83 148 1
172 83 149 1
173 84 150 1
174 84 151 1
175 85 152 1
176 85 153 1
177 86 154 1
178 89 155 1
179 89 156 1
180 92 157 1
181 92 158 1
182 97 159 1
183 97 160 1
184 100 161 1
185 100 162 1
186 101 163 1
187 105 164 1
188 106 165 1
189 108 166 1
190 109 167 1
191 109 168 1
192 112 169 1
193 112 170 1
194 113 171 1
195 117 172 1
196 117 173 1
197 118 174 1
198 118 175 1
199 119 176 1
200 119 177 1
201 121 178 1
202 122 179 1
203 123 180 1
204 123 181 1
205 123 182 1
206 124 183 1
207 126 184 1
208 128 185 1
209 128 186 1
210 128 187 1
211 54 188 1
212 76 2 1
213 73 1 1
@<TRIPOS>MOLECULE
Sketch 4
188 213
SMALL
USER_CHARGES


@<TRIPOS>ATOM
1 C31040 0.695050754780282 0.203497613307386 0.428106418106847 C.Trigonal 0.0 **** 0.0
2 C31041 0.702094363521202 0.189501771310473 0.435890440118769 C 0.0 **** 0.0
3 C31042 0.691539218095451 0.177180373591113 0.442694706287653 C 0.0 **** 0.0
4 C31043 0.674199454785333 0.178354838463191 0.439997255700919 C.Trigonal 0.0 **** 0.0
5 C31044 0.66745717672339 0.191638270694465 0.430898231463983 C.Trigonal 0.0 **** 0.0
6 C31045 0.677822231201834 0.204573422297475 0.425163558549665 C 0.0 **** 0.0
7 C31052 0.648864883073361 0.192223687179666 0.427035406310707 C 0.0 **** 0.0
8 C31053 0.638199207568487 0.178312136969791 0.433358254760388 C.Trigonal 0.0 **** 0.0
9 C31054 0.644700949770219 0.165560416138504 0.44270311562789 C.Trigonal 0.0 **** 0.0
10 C31055 0.662831042643424 0.164701239089227 0.446797516321115 C 0.0 **** 0.0
11 C31061 0.634037287315705 0.151088919224223 0.449594422257473 C 0.0 **** 0.0
12 C31062 0.615650247010802 0.15174526078616 0.444198685618611 C.Trigonal 0.0 **** 0.0
13 C31063 0.609282625439267 0.164158697964886 0.434327358783008 C.Trigonal 0.0 **** 0.0
14 C31064 0.619607961191769 0.179235292714766 0.42849876666822 C 0.0 **** 0.0
15 C31070 0.591123260603005 0.164275910819729 0.428361805240839 C 0.0 **** 0.0
16 C31071 0.582147555316829 0.147357298829001 0.430954920956885 C 0.0 **** 0.0
17 C31072 0.58606550378295 0.140224795567255 0.448549744646751 C 0.0 **** 0.0
18 C31073 0.6050451485261 0.137098372865719 0.450427902886105 C 0.0 **** 0.0
19 O31079 0.671951362744885 0.21841445831103 0.416402450531707 O 0.0 **** 0.0
20 O31081 0.698626291424198 0.164094781113388 0.451606075426231 O 0.0 **** 0.0
21 O31083 0.643353001715942 0.203886622047037 0.418627058757664 O 0.0 **** 0.0
22 O31085 0.66885410367046 0.153335268375885 0.455246058790128 O 0.0 **** 0.0
23 H31087 0.639361838935531 0.138863040218646 0.445373320327083 H 0.0 **** 0.0
24 H31089 0.634559535175759 0.151102565973272 0.463562296636728 H 0.0 **** 0.0
25 H31091 0.613783146262715 0.190831527428738 0.433651827544841 H 0.0 **** 0.0
26 H31093 0.618576150765159 0.180059426844929 0.414599497361633 H 0.0 **** 0.0
27 H31095 0.584302188697062 0.174319276214314 0.435243873995051 H 0.0 **** 0.0
28 H31097 0.590724234232542 0.167741628863392 0.414855566759519 H 0.0 **** 0.0
29 H31099 0.586417806265827 0.138236242987487 0.42130565340635 H 0.0 **** 0.0
30 H31101 0.568428001643309 0.148972471673559 0.429093529760323 H 0.0 **** 0.0
31 H31103 0.579086553006164 0.128377290748882 0.450848296081427 H 0.0 **** 0.0
32 H31105 0.581779292403687 0.149312365350829 0.458220187130861 H 0.0 **** 0.0
33 H31107 0.608610940065696 0.125697027799179 0.443210126120791 H 0.0 **** 0.0
34 H31109 0.608127310984979 0.134425458948324 0.463784432496152 H 0.0 **** 0.0
35 H31111 0.660028476844402 0.217202334433823 0.414854787794878 H 0.0 **** 0.0
36 H31113 0.689949671757416 0.156453166432449 0.455137415232468 H 0.0 **** 0.0
37 C30836 0.874230453052883 0.0889355428379442 0.246825581883897 C 0.0 **** 0.0
38 C30837 0.868115750370127 0.0811802050021675 0.263555310400135 C 0.0 **** 0.0
39 C30838 0.861963950332069 0.0967786580146092 0.272605550376347 C.Trigonal 0.0 **** 0.0
40 C30839 0.868643726195912 0.11123888068056 0.265402477475956 C.Trigonal 0.0 **** 0.0
41 C30840 0.880104802785825 0.106983329187514 0.250836270218838 C 0.0 **** 0.0
42 C30846 0.864661035778261 0.127045220023708 0.271423687650972 C 0.0 **** 0.0
43 C30847 0.853460628836783 0.12826419432596 0.285393026070771 C.Trigonal 0.0 **** 0.0
44 C30848 0.846906314127403 0.113252414146104 0.293239240851633 C.Trigonal 0.0 **** 0.0
45 C30849 0.851300340871303 0.0974863743254714 0.286195031986891 C 0.0 **** 0.0
46 C30855 0.835887813819382 0.114764791823437 0.307117703549773 C 0.0 **** 0.0
47 C30856 0.829951914404033 0.130621665409391 0.312538159513694 C.Trigonal 0.0 **** 0.0
48 C30857 0.835734371594426 0.14553663550065 0.303660590004931 C.Trigonal 0.0 **** 0.0
49 C30858 0.848066011760761 0.144075215666367 0.291064233598528 C 0.0 **** 0.0
50 C30864 0.82750307834585 0.160972433484358 0.306408052760173 C 0.0 **** 0.0
51 C30865 0.813510501741308 0.162016782942722 0.317045354426687 C.Trigonal 0.0 **** 0.0
52 C30866 0.808967111200683 0.147897438002733 0.327591032008421 C.Trigonal 0.0 **** 0.0
53 C30867 0.817483713625997 0.132415480339898 0.325069356086784 C 0.0 **** 0.0
54 C30873 0.795439602341628 0.149622031056756 0.339228174475253 C 0.0 **** 0.0
55 C30874 0.786025839252842 0.163826770737063 0.338933637007584 C.Trigonal 0.0 **** 0.0
56 C30875 0.788687900034118 0.176885479885789 0.327241391392924 C.Trigonal 0.0 **** 0.0
57 C30876 0.80290653511947 0.176138587890013 0.316323965954449 C 0.0 **** 0.0
58 C30882 0.777524984490838 0.19070581896776 0.32601752596401 C 0.0 **** 0.0
59 C30883 0.764582243666856 0.191376085614388 0.337026688799296 C 0.0 **** 0.0
60 C30884 0.763611479303892 0.178603620113208 0.349804362082864 C 0.0 **** 0.0
61 N30885 0.773208804081156 0.164919816438038 0.35107859536734 N 0.0 **** 0.0
62 C30891 0.751439465031224 0.183316386025962 0.361896392561754 C.Trigonal 0.0 **** 0.0
63 C30892 0.744500727052309 0.198714230532804 0.356250715952723 C.Trigonal 0.0 **** 0.0
64 C30893 0.751074400584265 0.204460459152106 0.339337759037321 C 0.0 **** 0.0
65 C30898 0.733935650266563 0.207715367240857 0.366320998644948 C 0.0 **** 0.0
66 C30899 0.730737237269987 0.202272310973258 0.382967000867831 C.Trigonal 0.0 **** 0.0
67 C30900 0.738584658696688 0.187072101232639 0.389461568964472 C.Trigonal 0.0 **** 0.0
68 C30901 0.7481945046098 0.177199057799776 0.378123288520154 C 0.0 **** 0.0
69 C30907 0.736451287976957 0.183221571962839 0.406852393131009 C 0.0 **** 0.0
70 C30908 0.726556663878996 0.193174655200391 0.417216474877569 C.Trigonal 0.0 **** 0.0
71 C30909 0.718789120867423 0.207397635955297 0.410305259097597 C.Trigonal 0.0 **** 0.0
72 C30910 0.720690961851863 0.21201148027817 0.393849152776042 C 0.0 **** 0.0
73 C30916 0.707808478370213 0.216645109664981 0.422405264266678 C 0.0 **** 0.0
74 C30917 0.719422792136387 0.221286009557424 0.437435626965737 C 0.0 **** 0.0
75 C30918 0.724676848051742 0.207331077784295 0.446447199601238 C 0.0 **** 0.0
76 C30919 0.721473753231134 0.190476131099958 0.436062665225335 C 0.0 **** 0.0
77 C30925 0.72493733365466 0.237573910027524 0.439537455905914 C 0.0 **** 0.0
78 C30927 0.73382400383998 0.245736726022987 0.453902623957221 C 0.0 **** 0.0
79 C30929 0.732245718245365 0.239034449689798 0.471434955589245 C 0.0 **** 0.0
80 C30931 0.728558030845963 0.222324510812278 0.475012566550998 C.Trigonal 0.0 **** 0.0
81 C30933 0.731060925240225 0.208189788529182 0.462453768535726 C.Trigonal 0.0 **** 0.0
82 C30936 0.723086590014531 0.218003955144848 0.491219965469337 C 0.0 **** 0.0
83 C30937 0.716963646572174 0.200157259099806 0.495421833588674 C 0.0 **** 0.0
84 C30938 0.723613480334533 0.186632069297846 0.483205505520295 C 0.0 **** 0.0
85 C30939 0.738147327445104 0.193767667073885 0.472876737769683 C 0.0 **** 0.0
86 C30945 0.733038386312181 0.250525220318933 0.484712685658489 C 0.0 **** 0.0
87 C30946 0.728737671531291 0.246179100651495 0.50106415177315 C.Trigonal 0.0 **** 0.0
88 C30947 0.7228714931138 0.230020796360215 0.504056666082525 C.Trigonal 0.0 **** 0.0
89 C30952 0.716594596299855 0.225131063404438 0.521468064488857 C 0.0 **** 0.0
90 C30953 0.713268578701608 0.239514534382072 0.533738787827657 C.Trigonal 0.0 **** 0.0
91 C30954 0.719713091971066 0.255450671583369 0.530890471307313 C.Trigonal 0.0 **** 0.0
92 C30955 0.730140839465187 0.259193076492656 0.515123621960885 C 0.0 **** 0.0
93 C30961 0.716761681092682 0.268047853017115 0.542692891692322 C.Trigonal 0.0 **** 0.0
94 C30962 0.706263830408965 0.265059338445236 0.556375094029016 C.Trigonal 0.0 **** 0.0
95 C30963 0.700205649776435 0.248951986647211 0.559469143472624 C.Trigonal 0.0 **** 0.0
96 C30964 0.703941319444499 0.236126074275592 0.548219546561778 C.Trigonal 0.0 **** 0.0
97 C30970 0.697425027706569 0.21818888036997 0.551351749566875 C 0.0 **** 0.0
98 C30971 0.694813017343666 0.213938646950909 0.569783451574804 C.Trigonal 0.0 **** 0.0
99 C30972 0.691237980837899 0.226856311330963 0.580648355890699 C.Trigonal 0.0 **** 0.0
100 C30973 0.689561314625422 0.245029677304076 0.574983723236285 C 0.0 **** 0.0
101 C30979 0.688987580756262 0.22296149933712 0.597830870644031 C 0.0 **** 0.0
102 N30980 0.689679593169686 0.207664832826822 0.604509576472143 N 0.0 **** 0.0
103 C30981 0.692797837488021 0.194598703730686 0.59369590970809 C.Trigonal 0.0 **** 0.0
104 C30982 0.695433110859125 0.197512173299954 0.576413979733514 C.Trigonal 0.0 **** 0.0
105 C30988 0.698200976108369 0.182772182567147 0.566443379230187 C 0.0 **** 0.0
106 C30989 0.698023755237207 0.166946740059051 0.573718368334492 C 0.0 **** 0.0
107 C30990 0.695369514290983 0.164785892973855 0.591017445521878 C 0.0 **** 0.0
108 C30991 0.692824929495567 0.179026997488211 0.600870696125386 C 0.0 **** 0.0
109 C30997 0.701896635642721 0.280146400413831 0.567434114306489 C 0.0 **** 0.0
110 C30998 0.717550656474395 0.290308640889983 0.571609639829998 C.Trigonal 0.0 **** 0.0
111 C30999 0.728761873219173 0.292825981993272 0.558376280990332 C.Trigonal 0.0 **** 0.0
112 C31000 0.72462746245745 0.285550664770855 0.541096533637381 C 0.0 **** 0.0
113 C31006 0.743605807247721 0.301467896541508 0.561170442154607 C 0.0 **** 0.0
114 C31007 0.747436917114871 0.307799337633457 0.577050646712143 C 0.0 **** 0.0
115 C31008 0.735878552624908 0.30569495491046 0.590180573286405 C.Trigonal 0.0 **** 0.0
116 C31009 0.720928947705319 0.29695420336166 0.587471982088423 C.Trigonal 0.0 **** 0.0
117 C31015 0.708400739721141 0.294043185123353 0.601856207643084 C 0.0 **** 0.0
118 C31016 0.709696674028501 0.307630882347837 0.615613811376943 C 0.0 **** 0.0
119 C31017 0.727901041059989 0.309449978199543 0.621350340600162 C 0.0 **** 0.0
120 C31018 0.739902864999597 0.313141014118889 0.607063485465721 C 0.0 **** 0.0
121 O31024 0.870947753812722 0.141515600904897 0.26424232851953 O 0.0 **** 0.0
122 O31026 0.805566706405944 0.189254894007544 0.305429661979824 O 0.0 **** 0.0
123 C31028 0.73012198728421 0.173789961782483 0.441360087233108 C 0.0 **** 0.0
124 O31030 0.72217227953516 0.248099061487376 0.42601996017782 O 0.0 **** 0.0
125 O31032 0.74047302637459 0.259559491109948 0.451998088205124 O 0.0 **** 0.0
126 O31034 0.762681119415194 0.315895287728585 0.578880920440059 O 0.0 **** 0.0
127 O31036 0.752004899268268 0.322338884253272 0.609325026644471 O 0.0 **** 0.0
128 C31038 0.69522690391492 0.147443366567842 0.598914676489568 C 0.0 **** 0.0
129 H31118 0.863482499658784 0.0895339060020434 0.237960229849059 H 0.0 **** 0.0
130 H31120 0.884109156434912 0.0814049631280923 0.240591807531296 H 0.0 **** 0.0
131 H31122 0.858273306082021 0.0715730641704041 0.261752117706195 H 0.0 **** 0.0
132 H31124 0.878656930502662 0.0752685343461593 0.270497920311728 H 0.0 **** 0.0
133 H31126 0.893412969194034 0.107019862865075 0.254957512630646 H 0.0 **** 0.0
134 H31128 0.878870955528405 0.115579897966145 0.240004707052222 H 0.0 **** 0.0
135 H31130 0.846239086613462 0.0856915138384577 0.291392709703189 H 0.0 **** 0.0
136 H31132 0.830958337471433 0.103253073591442 0.313123865841148 H 0.0 **** 0.0
137 H31134 0.85243831241887 0.155505280950941 0.28449625140612 H 0.0 **** 0.0
138 H31136 0.831230296471041 0.171727944812328 0.298472469931914 H 0.0 **** 0.0
139 H31138 0.813277100552842 0.121200934582597 0.332113813052053 H 0.0 **** 0.0
140 H31140 0.779358686316049 0.200716866396445 0.316617805821718 H 0.0 **** 0.0
141 H31142 0.75626206294414 0.217336486292407 0.339849334895735 H 0.0 **** 0.0
142 H31144 0.741244876230539 0.203836554668682 0.329505335482254 H 0.0 **** 0.0
143 H31146 0.728466725524415 0.219568580335512 0.361627671909028 H 0.0 **** 0.0
144 H31148 0.754273445752559 0.165561795456481 0.382577498157803 H 0.0 **** 0.0
145 H31150 0.742563652208951 0.17186030896419 0.411946757765964 H 0.0 **** 0.0
146 H31152 0.714477466257195 0.22355866621072 0.389322437382655 H 0.0 **** 0.0
147 H31154 0.70170088758157 0.227692432233595 0.416768409796036 H 0.0 **** 0.0
148 H31156 0.703016326669207 0.199958083233862 0.495728381452222 H 0.0 **** 0.0
149 H31158 0.721046031076698 0.196697746382111 0.50823696868467 H 0.0 **** 0.0
150 H31160 0.713350306904598 0.182491608996524 0.474769089780253 H 0.0 **** 0.0
151 H31162 0.727471208736057 0.175443589713254 0.490435905442741 H 0.0 **** 0.0
152 H31164 0.744607367037814 0.184417799081596 0.465052620320308 H 0.0 **** 0.0
153 H31166 0.748101086014706 0.19823651827098 0.481590365193988 H 0.0 **** 0.0
154 H31168 0.736520624038117 0.263795864883102 0.482469412922051 H 0.0 **** 0.0
155 H31170 0.704713028578577 0.218036143127617 0.519834800223482 H 0.0 **** 0.0
156 H31172 0.7257545528517 0.216396816322646 0.527320690850325 H 0.0 **** 0.0
157 H31174 0.743577403443278 0.26049976079084 0.518746740411507 H 0.0 **** 0.0
158 H31176 0.726261756677285 0.271540370600803 0.509983649290231 H 0.0 **** 0.0
159 H31178 0.685456866904579 0.216316843004005 0.544364777712033 H 0.0 **** 0.0
160 H31180 0.706511832515724 0.209083542083486 0.546146904071761 H 0.0 **** 0.0
161 H31182 0.693360687050446 0.252985891537928 0.585686476104114 H 0.0 **** 0.0
162 H31184 0.676144403352386 0.247873045805467 0.572381466951328 H 0.0 **** 0.0
163 H31186 0.686243694968186 0.233020297275364 0.606970091890842 H 0.0 **** 0.0
164 H31188 0.700288812312342 0.183763575003554 0.552755083638002 H 0.0 **** 0.0
165 H31190 0.699993541864915 0.155732604747836 0.565760462675826 H 0.0 **** 0.0
166 H31192 0.690627273519351 0.177804225166959 0.614521580758706 H 0.0 **** 0.0
167 H31194 0.692975797626491 0.288334895496382 0.560433850571022 H 0.0 **** 0.0
168 H31196 0.695113571517952 0.276337559693667 0.57879476656016 H 0.0 **** 0.0
169 H31198 0.73618607925061 0.285122422879963 0.533445427452561 H 0.0 **** 0.0
170 H31200 0.715845515669275 0.294067439022429 0.534447172779899 H 0.0 **** 0.0
171 H31202 0.752555205857898 0.303175726170102 0.550667840279993 H 0.0 **** 0.0
172 H31204 0.695309038130873 0.293859013186025 0.597186442824902 H 0.0 **** 0.0
173 H31206 0.71085321358598 0.281490723667388 0.607473798535853 H 0.0 **** 0.0
174 H31208 0.701525386648509 0.304526546755966 0.626450513063403 H 0.0 **** 0.0
175 H31210 0.705108113733325 0.319761790887968 0.610511734259531 H 0.0 **** 0.0
176 H31212 0.732182800830472 0.297789718334669 0.627669378761991 H 0.0 **** 0.0
177 H31214 0.730378452060291 0.320071387556789 0.629921722239473 H 0.0 **** 0.0
178 H31216 0.880895138098147 0.138609440213355 0.258229064063529 H 0.0 **** 0.0
179 H31218 0.817325074484382 0.190348249834882 0.30338208630108 H 0.0 **** 0.0
180 H31220 0.727188102857888 0.169602271724021 0.454227011843578 H 0.0 **** 0.0
181 H31222 0.743974876013191 0.174500235242314 0.440377642751706 H 0.0 **** 0.0
182 H31224 0.725994005576423 0.163472071288717 0.432978818896543 H 0.0 **** 0.0
183 H31226 0.731338768503906 0.255882498146317 0.425333710160198 H 0.0 **** 0.0
184 H31228 0.762310165527656 0.322236418602675 0.589228663305509 H 0.0 **** 0.0
185 H31230 0.691514369607798 0.137672658467679 0.589769360754503 H 0.0 **** 0.0
186 H31232 0.686219313707413 0.146782834691776 0.60948236873553 H 0.0 **** 0.0
187 H31234 0.707798366146222 0.144081881618413 0.603883589792347 H 0.0 **** 0.0
188 H31236 0.792113667447402 0.139336239288725 0.347920529272671 H 0.0 **** 0.0
@<TRIPOS>BOND
1 3 2 Partial double
2 4 3 Partial double
3 5 4 Partial double
4 6 5 Partial double
5 1 2 Partial double
6 1 6 Partial double
7 8 7 1
8 9 8 Aromatic
9 10 9 1
10 5 7 1
11 4 10 1
12 12 11 1
13 13 12 Double
14 14 13 1
15 9 11 1
16 8 14 1
17 16 15 1
18 17 16 1
19 18 17 1
20 13 15 1
21 12 18 1
22 6 19 1
23 3 20 1
24 7 21 Double
25 10 22 Double
26 11 23 1
27 11 24 1
28 14 25 1
29 14 26 1
30 15 27 1
31 15 28 1
32 16 29 1
33 16 30 1
34 17 31 1
35 17 32 1
36 18 33 1
37 18 34 1
38 19 35 1
39 20 36 1
40 39 38 1
41 40 39 Aromatic
42 41 40 1
43 37 38 1
44 37 41 1
45 43 42 Aromatic
46 44 43 Aromatic
47 45 44 Aromatic
48 40 42 Aromatic
49 39 45 Aromatic
50 47 46 Aromatic
51 48 47 Partial double
52 49 48 Aromatic
53 44 46 Aromatic
54 43 49 Aromatic
55 51 50 Partial double
56 52 51 Partial double
57 53 52 Partial double
58 48 50 Partial double
59 47 53 Partial double
60 55 54 Partial double
61 56 55 Partial double
62 57 56 Partial double
63 52 54 Partial double
64 51 57 Partial double
65 59 58 Partial double
66 60 59 Partial double
67 61 60 Partial double
68 56 58 Partial double
69 55 61 Partial double
70 63 62 Aromatic
71 64 63 1
72 60 62 1
73 59 64 1
74 66 65 Aromatic
75 67 66 Aromatic
76 68 67 Aromatic
77 63 65 Aromatic
78 62 68 Aromatic
79 70 69 Aromatic
80 71 70 Aromatic
81 72 71 Aromatic
82 67 69 Aromatic
83 66 72 Aromatic
84 74 73 1
85 75 74 1
86 76 75 1
87 71 73 1
88 70 76 1
89 74 77 Double
90 77 78 1
91 78 79 1
92 79 80 Partial double
93 80 81 1
94 75 81 Double
95 83 82 1
96 84 83 1
97 85 84 1
98 80 82 Partial double
99 81 85 1
100 87 86 Partial double
101 88 87 Partial double
102 82 88 Partial double
103 79 86 Partial double
104 90 89 1
105 91 90 Aromatic
106 92 91 1
107 88 89 1
108 87 92 1
109 94 93 Aromatic
110 95 94 Aromatic
111 96 95 Aromatic
112 91 93 Aromatic
113 90 96 Aromatic
114 98 97 1
115 99 98 Aromatic
116 100 99 1
117 96 97 1
118 95 100 1
119 102 101 Aromatic
120 103 102 Aromatic
121 104 103 Aromatic
122 99 101 Aromatic
123 98 104 Aromatic
124 106 105 Aromatic
125 107 106 Aromatic
126 108 107 Aromatic
127 104 105 Aromatic
128 103 108 Aromatic
129 110 109 1
130 111 110 Aromatic
131 112 111 1
132 94 109 1
133 93 112 1
134 114 113 Aromatic
135 115 114 Aromatic
136 116 115 Aromatic
137 111 113 Aromatic
138 110 116 Aromatic
139 118 117 1
140 119 118 1
141 120 119 1
142 116 117 1
143 115 120 1
144 42 121 1
145 57 122 1
146 76 123 1
147 77 124 1
148 78 125 Double
149 114 126 1
150 120 127 Double
151 107 128 1
152 37 129 1
153 37 130 1
154 38 131 1
155 38 132 1
156 41 133 1
157 41 134 1
158 45 135 1
159 46 136 1
160 49 137 1
161 50 138 1
162 53 139 1
163 58 140 1
164 64 141 1
165 64 142 1
166 65 143 1
167 68 144 1
168 69 145 1
169 72 146 1
170 73 147 1
171 83 148 1
172 83 149 1
173 84 150 1
174 84 151 1
175 85 152 1
176 85 153 1
177 86 154 1
178 89 155 1
179 89 156 1
180 92 157 1
181 92 158 1
182 97 159 1
183 97 160 1
184 100 161 1
185 100 162 1
186 101 163 1
187 105 164 1
188 106 165 1
189 108 166 1
190 109 167 1
191 109 168 1
192 112 169 1
193 112 170 1
194 113 171 1
195 117 172 1
196 117 173 1
197 118 174 1
198 118 175 1
199 119 176 1
200 119 177 1
201 121 178 1
202 122 179 1
203 123 180 1
204 123 181 1
205 123 182 1
206 124 183 1
207 126 184 1
208 128 185 1
209 128 186 1
210 128 187 1
211 54 188 1
212 76 2 1
213 73 1 1
@<TRIPOS>MOLECULE
Sketch 4
188 213
SMALL
USER_CHARGES


@<TRIPOS>ATOM
1 C31442 0.762254767628335 0.000374302417884131 0.0703206706811609 C.Trigonal 0.0 **** 0.0
2 C31443 0.755164207647226 0.0139599049403461 0.0619433671414206 C 0.0 **** 0.0
3 C31444 0.761942820826309 0.0300037970350676 0.0647358201630671 C 0.0 **** 0.0
4 C31445 0.776574896778547 0.0315583357419334 0.0744780616396227 C.Trigonal 0.0 **** 0.0
5 C31446 0.784031073933223 0.017587756056364 0.0818331907201626 C.Trigonal 0.0 **** 0.0
6 C31447 0.776624004849841 0.00184054930598288 0.0801607468128149 C 0.0 **** 0.0
7 C31454 0.800252129171709 0.0190847310262082 0.0915714898193647 C 0.0 **** 0.0
8 C31455 0.808121003914702 0.0358563930924185 0.0926932898844742 C.Trigonal 0.0 **** 0.0
9 C31456 0.80081078110955 0.0496769118344634 0.0857635396873015 C.Trigonal 0.0 **** 0.0
10 C31457 0.784601462888949 0.0486856905647919 0.0765998227893281 C 0.0 **** 0.0
11 C31463 0.808701038382324 0.0671877264363934 0.0867591319315801 C 0.0 **** 0.0
12 C31464 0.826415926336959 0.0671374322028506 0.0940844994410064 C.Trigonal 0.0 **** 0.0
13 C31465 0.833903608087291 0.053196377133397 0.100520311068662 C.Trigonal 0.0 **** 0.0
14 C31466 0.824919600629769 0.0363637522102046 0.102053570722278 C 0.0 **** 0.0
15 C31472 0.851886749409343 0.0532576402502465 0.106994256425555 C 0.0 **** 0.0
16 C31473 0.861856588282417 0.0687511308073847 0.101171955879504 C 0.0 **** 0.0
17 C31474 0.851270812005631 0.0847430232746888 0.103836027804928 C 0.0 **** 0.0
18 C31475 0.835247507347684 0.0839948077104354 0.0931198165667941 C 0.0 **** 0.0
19 O31481 0.782980575884202 -0.0126408427926641 0.0874257100768005 O 0.0 **** 0.0
20 O31483 0.754298970211867 0.0438306691023942 0.0574864350332153 O 0.0 **** 0.0
21 O31485 0.806451244171391 0.00651646115665929 0.0979629860548284 O 0.0 **** 0.0
22 O31487 0.777688264743269 0.0610735179968031 0.0706169720361049 O 0.0 **** 0.0
23 H31489 0.809376983258481 0.0727781851310082 0.0739512634636087 H 0.0 **** 0.0
24 H31491 0.800661951812936 0.0756353365366612 0.0944508069037454 H 0.0 **** 0.0
25 H31493 0.823016382929608 0.0334716903215697 0.115582428470596 H 0.0 **** 0.0
26 H31495 0.833400997070765 0.0264636686196018 0.0969631449995938 H 0.0 **** 0.0
27 H31497 0.851542711082691 0.0529226984146235 0.120937392859732 H 0.0 **** 0.0
28 H31499 0.858364901594577 0.0415726521887122 0.102946735138816 H 0.0 **** 0.0
29 H31501 0.865116012490881 0.0675520289060107 0.0876691632276044 H 0.0 **** 0.0
30 H31503 0.873901002945452 0.0695218846646583 0.108126043657983 H 0.0 **** 0.0
31 H31505 0.858542983128106 0.0962082634090604 0.100736659607294 H 0.0 **** 0.0
32 H31507 0.847889114998154 0.0856367466734842 0.117326817745495 H 0.0 **** 0.0
33 H31509 0.83846311084465 0.0863395932095254 0.0797706582106633 H 0.0 **** 0.0
34 H31511 0.826365296869046 0.0940048122128699 0.0970405722606096 H 0.0 **** 0.0
35 H31513 0.793162685053068 -0.00985350845633736 0.0933034769838527 H 0.0 **** 0.0
36 H31515 0.760256985845608 0.0537670798299589 0.0609280726179145 H 0.0 **** 0.0
37 C31238 0.774730863325535 -0.03185909054452 -0.207322769166784 C 0.0 **** 0.0
38 C31239 0.76706407612019 -0.0183828466580168 -0.195600567992383 C 0.0 **** 0.0
39 C31240 0.769576143772809 -0.026470577107143 -0.178521282763262 C.Trigonal 0.0 **** 0.0
40 C31241 0.773187755070855 -0.0435063336264957 -0.179902033119641 C.Trigonal 0.0 **** 0.0
41 C31242 0.77338325224408 -0.0489526393552559 -0.198169068662787 C 0.0 **** 0.0
42 C31248 0.775958773881058 -0.0534807572009691 -0.165824404491254 C 0.0 **** 0.0
43 C31249 0.774839960154943 -0.0459831960562935 -0.149617048043348 C.Trigonal 0.0 **** 0.0
44 C31250 0.770722548863107 -0.0283228186539957 -0.14824228999913 C.Trigonal 0.0 **** 0.0
45 C31251 0.768354069779622 -0.0187819757150932 -0.163104962549106 C 0.0 **** 0.0
46 C31257 0.768533659793458 -0.0211179442360758 -0.132172468897947 C 0.0 **** 0.0
47 C31258 0.769980163955532 -0.0307653527329832 -0.117380165929711 C.Trigonal 0.0 **** 0.0
48 C31259 0.775446834384534 -0.0481613433828818 -0.118782135074674 C.Trigonal 0.0 **** 0.0
49 C31260 0.777244739402886 -0.0554606371167404 -0.134870238861936 C 0.0 **** 0.0
50 C31266 0.779258464119763 -0.0571156660418995 -0.103949590414501 C 0.0 **** 0.0
51 C31267 0.777233587305573 -0.0497736054021687 -0.088005729784355 C.Trigonal 0.0 **** 0.0
52 C31268 0.769809850075462 -0.0332341212661951 -0.0864709535146456 C.Trigonal 0.0 **** 0.0
53 C31269 0.766554472101479 -0.0240030247234449 -0.101328100331705 C 0.0 **** 0.0
54 C31275 0.766499731462015 -0.0265247905271132 -0.0702146708073364 C 0.0 **** 0.0
55 C31276 0.772157379603623 -0.0349122327325887 -0.0565064972216966 C.Trigonal 0.0 **** 0.0
56 C31277 0.781286253480889 -0.0501013909981009 -0.0575343119609497 C.Trigonal 0.0 **** 0.0
57 C31278 0.782812732934354 -0.0581856437329827 -0.0734188394550442 C 0.0 **** 0.0
58 C31284 0.789177014005915 -0.057169063279659 -0.0431647225325798 C 0.0 **** 0.0
59 C31285 0.786454534569214 -0.0495888977235807 -0.0281595507832841 C 0.0 **** 0.0
60 C31286 0.775334013202388 -0.0353424669500192 -0.0277919927633003 C 0.0 **** 0.0
61 N31287 0.76849487958652 -0.0274805760459031 -0.0409227189252718 N 0.0 **** 0.0
62 C31293 0.771744405026602 -0.0310939427278571 -0.010938012900524 C.Trigonal 0.0 **** 0.0
63 C31294 0.780662103658552 -0.042608627445143 -0.000714606343882459 C.Trigonal 0.0 **** 0.0
64 C31295 0.792247481932675 -0.0540844538110802 -0.0106322397310198 C 0.0 **** 0.0
65 C31300 0.777400907345381 -0.0434218232475758 0.0161320949584277 C 0.0 **** 0.0
66 C31301 0.765754909824841 -0.0321022894222485 0.0235673898344908 C.Trigonal 0.0 **** 0.0
67 C31302 0.757286333982853 -0.019494401750941 0.0133471181940446 C.Trigonal 0.0 **** 0.0
68 C31303 0.760179909978578 -0.0196268002128824 -0.00422967006034575 C 0.0 **** 0.0
69 C31309 0.748096351287158 -0.0065992326627424 0.0217103225770385 C 0.0 **** 0.0
70 C31310 0.747396857900413 -0.00578317531116134 0.0391125176420098 C.Trigonal 0.0 **** 0.0
71 C31311 0.754817924972802 -0.018668799540976 0.0485190131703294 C.Trigonal 0.0 **** 0.0
72 C31312 0.763512728073757 -0.0316291832223923 0.0411806784708299 C 0.0 **** 0.0
73 C31318 0.753476359173162 -0.0161386613802514 0.0671764107415672 C 0.0 **** 0.0
74 C31319 0.734561087450724 -0.0136115708913045 0.0717004126974932 C 0.0 **** 0.0
75 C31320 0.72711648511602 2.68330096103027e-05 0.0636260234296192 C 0.0 **** 0.0
76 C31321 0.740163121910921 0.00833033783544456 0.050621700877015 C 0.0 **** 0.0
77 C31327 0.72706696463111 -0.0254564299999877 0.0817790595987951 C 0.0 **** 0.0
78 C31329 0.710382479553217 -0.0257990985482854 0.0897897038879601 C 0.0 **** 0.0
79 C31331 0.699508880066121 -0.010627693122849 0.0920919085393058 C 0.0 **** 0.0
80 C31333 0.699925902561048 0.00385178489455652 0.0822061626340653 C.Trigonal 0.0 **** 0.0
81 C31335 0.710806112068248 0.00553837875118956 0.0662997574506138 C.Trigonal 0.0 **** 0.0
82 C31338 0.689621478804995 0.0175672246657106 0.08700758724866 C 0.0 **** 0.0
83 C31339 0.688979606532911 0.0342643216961603 0.0772491117795035 C 0.0 **** 0.0
84 C31340 0.701571446639501 0.0348601530050042 0.0626777031777438 C 0.0 **** 0.0
85 C31341 0.701291486468842 0.0174007699010196 0.0546107173574386 C 0.0 **** 0.0
86 C31347 0.68884517384535 -0.0111936271103633 0.105984278070932 C 0.0 **** 0.0
87 C31348 0.67884941521417 0.00215078163387502 0.11079401219419 C.Trigonal 0.0 **** 0.0
88 C31349 0.679072517431803 0.0166134539289311 0.101142701639282 C.Trigonal 0.0 **** 0.0
89 C31354 0.66779903738363 0.0313656443902158 0.106328425051373 C 0.0 **** 0.0
90 C31355 0.653643673639338 0.0274192075882015 0.118906324177555 C.Trigonal 0.0 **** 0.0
91 C31356 0.654283832533974 0.0130226047698181 0.128733634158157 C.Trigonal 0.0 **** 0.0
92 C31357 0.668297482624176 0.000119914634746669 0.126581680890408 C 0.0 **** 0.0
93 C31363 0.64194559509228 0.0101788204188821 0.140808794348326 C.Trigonal 0.0 **** 0.0
94 C31364 0.628017368943157 0.0206424782701935 0.141664573135223 C.Trigonal 0.0 **** 0.0
95 C31365 0.627346623472116 0.0351750510439694 0.131906711993918 C.Trigonal 0.0 **** 0.0
96 C31366 0.640263749761994 0.0387175830943179 0.12072180812876 C.Trigonal 0.0 **** 0.0
97 C31372 0.639952582771467 0.0546797863530158 0.109835628887369 C 0.0 **** 0.0
98 C31373 0.626178173485268 0.0674377356673816 0.113597893624204 C.Trigonal 0.0 **** 0.0
99 C31374 0.613740594245804 0.0636655686606676 0.124931888596787 C.Trigonal 0.0 **** 0.0
100 C31375 0.612319367347841 0.0469375377198692 0.134029981964073 C 0.0 **** 0.0
101 C31381 0.601278466640994 0.0759850342758528 0.128129689300294 C 0.0 **** 0.0
102 N31382 0.600216653026795 0.0909395983200813 0.120740409127745 N 0.0 **** 0.0
103 C31383 0.612528391441697 0.0948083392183621 0.109252182922208 C.Trigonal 0.0 **** 0.0
104 C31384 0.625382189245059 0.0832151069056203 0.105518688099738 C.Trigonal 0.0 **** 0.0
105 C31390 0.637161564805331 0.0884724874798009 0.0929446965030212 C 0.0 **** 0.0
106 C31391 0.635721331196022 0.104097599749149 0.0853893906626122 C 0.0 **** 0.0
107 C31392 0.62280439780595 0.115281726311934 0.0897889916111106 C 0.0 **** 0.0
108 C31393 0.611209291501236 0.110258236067177 0.101910113150246 C 0.0 **** 0.0
109 C31399 0.613632832904752 0.0159304559010128 0.153624442802562 C 0.0 **** 0.0
110 C31400 0.611548784159707 -0.00312117982296012 0.155565692532515 C.Trigonal 0.0 **** 0.0
111 C31401 0.626203675159292 -0.0126888740737855 0.155883735390376 C.Trigonal 0.0 **** 0.0
112 C31402 0.643131574576723 -0.0042178767710207 0.153475557860324 C 0.0 **** 0.0
113 C31408 0.625385204622236 -0.029865303471308 0.158462211690694 C 0.0 **** 0.0
114 C31409 0.609997986989863 -0.0379285367324659 0.160437895270868 C 0.0 **** 0.0
115 C31410 0.595212644709867 -0.0284558890154403 0.159343837763182 C.Trigonal 0.0 **** 0.0
116 C31411 0.59594668034549 -0.0110663319270455 0.157024812259302 C.Trigonal 0.0 **** 0.0
117 C31417 0.579890379724812 -0.00037969391020078 0.155630758339641 C 0.0 **** 0.0
118 C31418 0.564077555366756 -0.00938194279631702 0.162327627124272 C 0.0 **** 0.0
119 C31419 0.5633073331729 -0.0274055000913519 0.155858319456656 C 0.0 **** 0.0
120 C31420 0.578708542969113 -0.0374265581575542 0.160733433936479 C 0.0 **** 0.0
121 O31426 0.779364329845866 -0.0703524869033381 -0.168245836762036 O 0.0 **** 0.0
122 O31428 0.790077396127883 -0.0738919933546816 -0.0746939168058708 O 0.0 **** 0.0
123 C31430 0.735199401239186 0.0228006480086699 0.0385291683187873 C 0.0 **** 0.0
124 O31432 0.736504741065673 -0.0395771950285468 0.0852713823172718 O 0.0 **** 0.0
125 O31434 0.705834286682777 -0.0389872884017226 0.0964718404695044 O 0.0 **** 0.0
126 O31436 0.61043066678396 -0.0550183049670755 0.163096661568986 O 0.0 **** 0.0
127 O31438 0.577403635303971 -0.0518987655392427 0.165753463299559 O 0.0 **** 0.0
128 C31440 0.621465011179241 0.132319341014219 0.0813523269494568 C 0.0 **** 0.0
129 H31520 0.788181888119952 -0.0289255168452479 -0.209449316382438 H 0.0 **** 0.0
130 H31522 0.768699037627404 -0.0320639387309985 -0.219857254432547 H 0.0 **** 0.0
131 H31524 0.773312080790909 -0.00603540019092003 -0.196834772533905 H 0.0 **** 0.0
132 H31526 0.75350103654342 -0.0165883430150581 -0.198234119506652 H 0.0 **** 0.0
133 H31528 0.761498550699654 -0.0554451443802152 -0.201445325570006 H 0.0 **** 0.0
134 H31530 0.783869964087646 -0.0575231888024634 -0.201238320412777 H 0.0 **** 0.0
135 H31532 0.765163734246142 -0.00529395322072113 -0.162479089807862 H 0.0 **** 0.0
136 H31534 0.765204278063602 -0.00768632115158573 -0.131235057156573 H 0.0 **** 0.0
137 H31536 0.780820170757489 -0.0688575456480479 -0.135691668979016 H 0.0 **** 0.0
138 H31538 0.784446976198609 -0.069968557555541 -0.104987495718402 H 0.0 **** 0.0
139 H31540 0.761754062471293 -0.0110106604716752 -0.100291505560766 H 0.0 **** 0.0
140 H31542 0.797042920851122 -0.0685692156893546 -0.0438574225058793 H 0.0 **** 0.0
141 H31544 0.790387041182558 -0.0674429738227517 -0.00753766811734352 H 0.0 **** 0.0
142 H31546 0.805685527379288 -0.0509796810441457 -0.00856072872524049 H 0.0 **** 0.0
143 H31548 0.784216719533125 -0.0526414975365011 0.0239626328168408 H 0.0 **** 0.0
144 H31550 0.753680879168362 -0.0106307651388782 -0.0125606284834205 H 0.0 **** 0.0
145 H31552 0.742328442204688 0.00338371084962561 0.0140138656561811 H 0.0 **** 0.0
146 H31554 0.769987932891517 -0.0408221688909586 0.0493288698513149 H 0.0 **** 0.0
147 H31556 0.759417523664737 -0.0264996767829325 0.07411811861898 H 0.0 **** 0.0
148 H31558 0.69094174325147 0.0450434593659216 0.0858647069974638 H 0.0 **** 0.0
149 H31560 0.676198477957243 0.0357420947535286 0.0718135417107937 H 0.0 **** 0.0
150 H31562 0.71431987246916 0.0378673219702151 0.0674554954190578 H 0.0 **** 0.0
151 H31564 0.698202752847082 0.0450013894668098 0.0537882111554358 H 0.0 **** 0.0
152 H31566 0.706357731327475 0.0168708237032799 0.0418209322643084 H 0.0 **** 0.0
153 H31568 0.688020660502837 0.0132540881677085 0.0529349655556039 H 0.0 **** 0.0
154 H31570 0.688313568324047 -0.022463911457599 0.114117038679447 H 0.0 **** 0.0
155 H31572 0.675805241457889 0.0414744738348159 0.111728510430855 H 0.0 **** 0.0
156 H31574 0.662017435409471 0.0366392848075678 0.0948514976143968 H 0.0 **** 0.0
157 H31576 0.662561656655836 -0.0125744837494083 0.125995337899103 H 0.0 **** 0.0
158 H31578 0.676616875152068 0.000125006975590591 0.137781042353004 H 0.0 **** 0.0
159 H31580 0.652275884314031 0.0610843406308271 0.111115545665005 H 0.0 **** 0.0
160 H31582 0.638761073438404 0.0509298061391843 0.0964407661180074 H 0.0 **** 0.0
161 H31584 0.600743845167489 0.0404853209978521 0.129650323161449 H 0.0 **** 0.0
162 H31586 0.610551445848543 0.0494348770381923 0.147603151861384 H 0.0 **** 0.0
163 H31588 0.59124473818254 0.0734985882358085 0.137395995556013 H 0.0 **** 0.0
164 H31590 0.64755265265696 0.0800824856652295 0.0891476240141022 H 0.0 **** 0.0
165 H31592 0.644946911867312 0.107996394946244 0.0757566602998913 H 0.0 **** 0.0
166 H31594 0.600887529276504 0.118730188083813 0.105688161566851 H 0.0 **** 0.0
167 H31596 0.615939021544783 0.0216562541262512 0.166176688164459 H 0.0 **** 0.0
168 H31598 0.601819799934305 0.0214440834903603 0.14899185954542 H 0.0 **** 0.0
169 H31600 0.652527280890479 -0.0137023168079571 0.149827324608114 H 0.0 **** 0.0
170 H31602 0.647578319238542 0.000866452936226398 0.1657302840533 H 0.0 **** 0.0
171 H31604 0.637129822778852 -0.0372935422493419 0.158915252124865 H 0.0 **** 0.0
172 H31606 0.581391056979271 0.0116254808781292 0.162534522665023 H 0.0 **** 0.0
173 H31608 0.577872121137035 0.0029393353564318 0.14221055939022 H 0.0 **** 0.0
174 H31610 0.55256581116939 -0.00265951918417412 0.158386104803058 H 0.0 **** 0.0
175 H31612 0.564290283100883 -0.00928214255465033 0.176262348949818 H 0.0 **** 0.0
176 H31614 0.561994619686974 -0.0272599332464897 0.141982042775325 H 0.0 **** 0.0
177 H31616 0.553091323388428 -0.0351763597982663 0.161061208893316 H 0.0 **** 0.0
178 H31618 0.787947148442598 -0.0739248976351436 -0.160546861811269 H 0.0 **** 0.0
179 H31620 0.784999078714087 -0.0809195759664123 -0.0662545939740755 H 0.0 **** 0.0
180 H31622 0.729452152216775 0.0337524899627583 0.0447825247935269 H 0.0 **** 0.0
181 H31624 0.726535503195792 0.0188702814617737 0.0284094445943169 H 0.0 **** 0.0
182 H31626 0.746723245010173 0.0273364002434918 0.0321158301792376 H 0.0 **** 0.0
183 H31628 0.729309709813319 -0.04775825797032 0.0904658532913685 H 0.0 **** 0.0
184 H31630 0.599054502500347 -0.0590536679508195 0.163552548270369 H 0.0 **** 0.0
185 H31632 0.613543316592031 0.141053414863821 0.0886871494425671 H 0.0 **** 0.0
186 H31634 0.615884616429278 0.131174324495057 0.0686596480521955 H 0.0 **** 0.0
187 H31636 0.63394994538837 0.138279211916967 0.0799419964918735 H 0.0 **** 0.0
188 H31638 0.76018903333204 -0.0142680228337115 -0.0686581787953794 H 0.0 **** 0.0
@<TRIPOS>BOND
1 3 2 Partial double
2 4 3 Partial double
3 5 4 Partial double
4 6 5 Partial double
5 1 2 Partial double
6 1 6 Partial double
7 8 7 1
8 9 8 Aromatic
9 10 9 1
10 5 7 1
11 4 10 1
12 12 11 1
13 13 12 Double
14 14 13 1
15 9 11 1
16 8 14 1
17 16 15 1
18 17 16 1
19 18 17 1
20 13 15 1
21 12 18 1
22 6 19 1
23 3 20 1
24 7 21 Double
25 10 22 Double
26 11 23 1
27 11 24 1
28 14 25 1
29 14 26 1
30 15 27 1
31 15 28 1
32 16 29 1
33 16 30 1
34 17 31 1
35 17 32 1
36 18 33 1
37 18 34 1
38 19 35 1
39 20 36 1
40 39 38 1
41 40 39 Aromatic
42 41 40 1
43 37 38 1
44 37 41 1
45 43 42 Aromatic
46 44 43 Aromatic
47 45 44 Aromatic
48 40 42 Aromatic
49 39 45 Aromatic
50 47 46 Aromatic
51 48 47 Partial double
52 49 48 Aromatic
53 44 46 Aromatic
54 43 49 Aromatic
55 51 50 Partial double
56 52 51 Partial double
57 53 52 Partial double
58 48 50 Partial double
59 47 53 Partial double
60 55 54 Partial double
61 56 55 Partial double
62 57 56 Partial double
63 52 54 Partial double
64 51 57 Partial double
65 59 58 Partial double
66 60 59 Partial double
67 61 60 Partial double
68 56 58 Partial double
69 55 61 Partial double
70 63 62 Aromatic
71 64 63 1
72 60 62 1
73 59 64 1
74 66 65 Aromatic
75 67 66 Aromatic
76 68 67 Aromatic
77 63 65 Aromatic
78 62 68 Aromatic
79 70 69 Aromatic
80 71 70 Aromatic
81 72 71 Aromatic
82 67 69 Aromatic
83 66 72 Aromatic
84 74 73 1
85 75 74 1
86 76 75 1
87 71 73 1
88 70 76 1
89 74 77 Double
90 77 78 1
91 78 79 1
92 79 80 Partial double
93 80 81 1
94 75 81 Double
95 83 82 1
96 84 83 1
97 85 84 1
98 80 82 Partial double
99 81 85 1
100 87 86 Partial double
101 88 87 Partial double
102 82 88 Partial double
103 79 86 Partial double
104 90 89 1
105 91 90 Aromatic
106 92 91 1
107 88 89 1
108 87 92 1
109 94 93 Aromatic
110 95 94 Aromatic
111 96 95 Aromatic
112 91 93 Aromatic
113 90 96 Aromatic
114 98 97 1
115 99 98 Aromatic
116 100 99 1
117 96 97 1
118 95 100 1
119 102 101 Aromatic
120 103 102 Aromatic
121 104 103 Aromatic
122 99 101 Aromatic
123 98 104 Aromatic
124 106 105 Aromatic
125 107 106 Aromatic
126 108 107 Aromatic
127 104 105 Aromatic
128 103 108 Aromatic
129 110 109 1
130 111 110 Aromatic
131 112 111 1
132 94 109 1
133 93 112 1
134 114 113 Aromatic
135 115 114 Aromatic
136 116 115 Aromatic
137 111 113 Aromatic
138 110 116 Aromatic
139 118 117 1
140 119 118 1
141 120 119 1
142 116 117 1
143 115 120 1
144 42 121 1
145 57 122 1
146 76 123 1
147 77 124 1
148 78 125 Double
149 114 126 1
150 120 127 Double
151 107 128 1
152 37 129 1
153 37 130 1
154 38 131 1
155 38 132 1
156 41 133 1
157 41 134 1
158 45 135 1
159 46 136 1
160 49 137 1
161 50 138 1
162 53 139 1
163 58 140 1
164 64 141 1
165 64 142 1
166 65 143 1
167 68 144 1
168 69 145 1
169 72 146 1
170 73 147 1
171 83 148 1
172 83 149 1
173 84 150 1
174 84 151 1
175 85 152 1
176 85 153 1
177 86 154 1
178 89 155 1
179 89 156 1
180 92 157 1
181 92 158 1
182 97 159 1
183 97 160 1
184 100 161 1
185 100 162 1
186 101 163 1
187 105 164 1
188 106 165 1
189 108 166 1
190 109 167 1
191 109 168 1
192 112 169 1
193 112 170 1
194 113 171 1
195 117 172 1
196 117 173 1
197 118 174 1
198 118 175 1
199 119 176 1
200 119 177 1
201 121 178 1
202 122 179 1
203 123 180 1
204 123 181 1
205 123 182 1
206 124 183 1
207 126 184 1
208 128 185 1
209 128 186 1
210 128 187 1
211 54 188 1
212 76 2 1
213 73 1 1
@<TRIPOS>MOLECULE
Sketch 4
250 292
SMALL
USER_CHARGES


@<TRIPOS>ATOM
1 C31640 0.587160077741957 0.846668458196309 0.652203144946988 C 0.0 **** 0.0
2 C31641 0.584905199675242 0.86271304743 0.663271794219931 C 0.0 **** 0.0
3 C31642 0.594835958221443 0.877913659301401 0.656211535730773 C 0.0 **** 0.0
4 C31643 0.61385712921184 0.873185549222172 0.653295471628203 C 0.0 **** 0.0
5 C31644 0.615702534593742 0.853811542933134 0.651138937083555 C 0.0 **** 0.0
6 O31645 0.6018601838635 0.847173262982475 0.641848022648861 O 0.0 **** 0.0
7 C31652 0.625425933041274 0.880883451523453 0.667050976086831 C 0.0 **** 0.0
8 C31653 0.624386916158429 0.900520850955673 0.666751273219143 C 0.0 **** 0.0
9 C31654 0.606306728331373 0.906943078351831 0.663296533012073 C 0.0 **** 0.0
10 C31655 0.592652410729798 0.893823854411583 0.667269971890968 C 0.0 **** 0.0
11 O31661 0.634249969436635 0.907834968503985 0.653516714874762 O 0.0 **** 0.0
12 C31662 0.651699034621585 0.903096932182665 0.653273803587792 C 0.0 **** 0.0
13 C31663 0.653023494450487 0.883836588871821 0.651294083946314 C 0.0 **** 0.0
14 C31664 0.643999773740917 0.874958414179615 0.665909983545144 C 0.0 **** 0.0
15 C31670 0.671253760787342 0.878641222830783 0.649005927022559 C 0.0 **** 0.0
16 C31671 0.684441744155699 0.888487371523746 0.658626730028167 C 0.0 **** 0.0
17 C31672 0.67995533344383 0.90273406460081 0.667893191425871 C 0.0 **** 0.0
18 C31673 0.661762004477204 0.909111005613014 0.668675724288832 C 0.0 **** 0.0
19 C31679 0.69253905597194 0.911808962764865 0.676290246123908 C 0.0 **** 0.0
20 C31680 0.709326137697199 0.90773529738531 0.673424689414471 C 0.0 **** 0.0
21 C31681 0.713653955838624 0.892953667503225 0.665058607281404 C 0.0 **** 0.0
22 C31682 0.701108393078515 0.883074329123969 0.657788729700122 C 0.0 **** 0.0
23 C31688 0.706010140748456 0.866869954292294 0.648749640266944 C 0.0 **** 0.0
24 C31689 0.69401346043966 0.862852749225423 0.633754633888681 C 0.0 **** 0.0
25 C31690 0.675775278470313 0.866851111147406 0.637547446373795 C 0.0 **** 0.0
26 O31695 0.730289990905152 0.887752376430398 0.66375655443801 O 0.0 **** 0.0
27 C31696 0.743107410093253 0.898990736348345 0.667430483289644 C 0.0 **** 0.0
28 C31697 0.740493312936345 0.915067283006073 0.673904495665367 C 0.0 **** 0.0
29 C31698 0.722683560917062 0.920344546051402 0.678077483381034 C 0.0 **** 0.0
30 C31704 0.66322227083854 0.92791578283168 0.670960033213894 C 0.0 **** 0.0
31 C31705 0.669593418266883 0.931536777368781 0.688481582657543 C 0.0 **** 0.0
32 C31706 0.688637694711765 0.926491362291401 0.688110067194905 C 0.0 **** 0.0
33 C31711 0.664562943959428 0.949752678388645 0.69394843697129 C 0.0 **** 0.0
34 C31712 0.667044090497219 0.962026041554417 0.682063271374554 C 0.0 **** 0.0
35 C31713 0.669846046312668 0.957688208533624 0.663525236755755 C 0.0 **** 0.0
36 C31714 0.663250022382467 0.940120050739285 0.659214057863488 C 0.0 **** 0.0
37 C31720 0.664064565545944 0.980512581777809 0.684878164280579 C 0.0 **** 0.0
38 C31721 0.658742838830406 0.98499127137687 0.703008592209825 C 0.0 **** 0.0
39 C31722 0.652279483162052 0.969960899943048 0.712759314502744 C 0.0 **** 0.0
40 C31723 0.656189222498099 0.953615371499521 0.708651795517672 C 0.0 **** 0.0
41 C31729 0.649577259571447 0.94002844035549 0.720882906733043 C 0.0 **** 0.0
42 C31730 0.632721616151009 0.944887673908759 0.728849359097417 C 0.0 **** 0.0
43 C31731 0.635494958317117 0.961170216299173 0.739028620011826 C 0.0 **** 0.0
44 C31732 0.640976424921569 0.975442282222483 0.7272298622735 C 0.0 **** 0.0
45 C31738 0.718517986597441 0.93591067468191 0.684146401124871 C 0.0 **** 0.0
46 C31739 0.702247382002163 0.940060952903357 0.688244838090312 C 0.0 **** 0.0
47 C31743 0.75470756718277 0.925482890142883 0.677177009993647 C 0.0 **** 0.0
48 C31744 0.753246301715974 0.941767885321855 0.684387995822632 C 0.0 **** 0.0
49 S31745 0.73375697048536 0.951743203092882 0.686105682425085 S 0.0 **** 0.0
50 C31750 0.767097582206379 0.95047025413282 0.690031684848068 C 0.0 **** 0.0
51 C31751 0.783500868495071 0.943842627071644 0.687440319747409 C 0.0 **** 0.0
52 C31752 0.785556529235007 0.928582829327012 0.678387297786971 C 0.0 **** 0.0
53 C31753 0.771214135944526 0.919374523242544 0.673828377718014 C 0.0 **** 0.0
54 C31759 0.801791480628074 0.923700734937381 0.673222057120849 C 0.0 **** 0.0
55 C31760 0.815980815819306 0.933739928280875 0.677025008299648 C 0.0 **** 0.0
56 C31761 0.814235341525326 0.948375090945344 0.687158637804617 C 0.0 **** 0.0
57 C31762 0.797844149629528 0.952989287889793 0.692287472324648 C 0.0 **** 0.0
58 C31768 0.827909998459543 0.959440360241368 0.689818484564718 C 0.0 **** 0.0
59 C31769 0.842237653249042 0.957457106191744 0.680040669039854 C 0.0 **** 0.0
60 C31770 0.84480834953356 0.942424648077275 0.670657365776269 C 0.0 **** 0.0
61 C31771 0.83149314582333 0.930693789729909 0.669265408198648 C 0.0 **** 0.0
62 C31777 0.773412617705608 0.90394680988323 0.665428728763794 C 0.0 **** 0.0
63 C31778 0.759228277295211 0.893425076990873 0.664151249636686 C 0.0 **** 0.0
64 C31782 0.803535169967038 0.909733811937734 0.662559693764752 C 0.0 **** 0.0
65 C31783 0.78925880109197 0.900295100080146 0.657771257024577 C 0.0 **** 0.0
66 C31787 0.832999114933717 0.917063822194393 0.658162585668045 C 0.0 **** 0.0
67 C31788 0.819101606852893 0.906484231535705 0.655196036465738 C 0.0 **** 0.0
68 C31792 0.860423532696954 0.939385873342017 0.662008226367766 C 0.0 **** 0.0
69 C31793 0.860857594731545 0.926681454069177 0.649660900123875 C 0.0 **** 0.0
70 C31794 0.847595128816873 0.915330968926266 0.64832182876593 C 0.0 **** 0.0
71 O31799 0.8541410364737 0.970340607234076 0.678921122784453 O 0.0 **** 0.0
72 C31800 0.857405115354204 0.981426753878438 0.692739097794995 C 0.0 **** 0.0
73 C31801 0.844371859382968 0.979992501836649 0.707245988132536 C 0.0 **** 0.0
74 C31802 0.826720278088168 0.974990590006833 0.701204646852129 C 0.0 **** 0.0
75 C31808 0.843718244338796 0.99632014849157 0.718168012513155 C 0.0 **** 0.0
76 C31809 0.861071767549135 1.00483803949482 0.719223249828521 C 0.0 **** 0.0
77 C31810 0.867586290337554 1.01034816959734 0.701645116800867 C 0.0 **** 0.0
78 C31811 0.858975307964039 1.00018010165605 0.687221825731211 C 0.0 **** 0.0
79 C31817 0.867310275272279 1.00328950253681 0.669864533358031 C 0.0 **** 0.0
80 C31818 0.886617135603553 1.00265983312526 0.670989776676601 C 0.0 **** 0.0
81 C31819 0.893012984426501 1.01423182791041 0.685077249083857 C 0.0 **** 0.0
82 N31820 0.885992043603076 1.0095406133776 0.701429551313717 N 0.0 **** 0.0
83 C31826 0.790209157539045 0.88854820467226 0.644222565730522 C 0.0 **** 0.0
84 C31827 0.805661920830161 0.885246373195754 0.63683951106139 C 0.0 **** 0.0
85 C31828 0.820137789887738 0.893821701263075 0.642746381998073 C 0.0 **** 0.0
86 O31833 0.807670992809449 0.873969714719135 0.623524483254121 O 0.0 **** 0.0
87 C31834 0.792199380340801 0.870571272397367 0.61490751919458 C 0.0 **** 0.0
88 C31835 0.778827160902931 0.866384100990868 0.627634102424911 C 0.0 **** 0.0
89 O31836 0.775728010692495 0.880628081012729 0.638259177756825 O 0.0 **** 0.0
90 C31842 0.783368897984802 0.850462657484384 0.638166591413764 C 0.0 **** 0.0
91 C31843 0.7958079560643 0.838488727614499 0.629024452314856 C 0.0 **** 0.0
92 C31844 0.792694033400341 0.838415979800612 0.60990313182901 C 0.0 **** 0.0
93 C31845 0.795135971654047 0.856217809247136 0.602098901387165 C 0.0 **** 0.0
94 C31851 0.848604710372607 0.9026239123272 0.635750562771128 C 0.0 **** 0.0
95 C31852 0.835222917554298 0.891218468404338 0.633942564463161 C 0.0 **** 0.0
96 C31856 0.874694486473005 0.925756257832099 0.638566907304837 C 0.0 **** 0.0
97 C31857 0.874698931240695 0.914192487804541 0.62496003233471 C 0.0 **** 0.0
98 C31858 0.862001006596398 0.902521088370682 0.623961797090179 C 0.0 **** 0.0
99 C31863 0.889096624479883 0.935925047541569 0.640891085474992 C 0.0 **** 0.0
100 C31864 0.889838395329612 0.946984107051136 0.654395573017845 C 0.0 **** 0.0
101 C31865 0.875728591396929 0.948298272720785 0.664631806888697 C 0.0 **** 0.0
102 O31870 0.887050202143332 0.914119211508858 0.612715725387529 O 0.0 **** 0.0
103 C31871 0.9019717999392 0.92246936614154 0.615823179365358 C 0.0 **** 0.0
104 C31872 0.903674064165136 0.933544698408167 0.628998107630808 C 0.0 **** 0.0
105 C31877 0.904875300832264 0.958790656829062 0.657219529184906 C 0.0 **** 0.0
106 C31878 0.92049893058802 0.95606448118417 0.64451023561837 C 0.0 **** 0.0
107 C31879 0.918524256595029 0.942097556624139 0.631323060553225 C 0.0 **** 0.0
108 C31884 0.937863484938807 0.954984782166584 0.653498109704896 C 0.0 **** 0.0
109 C31885 0.940422871670404 0.969525003947124 0.666278321567092 C 0.0 **** 0.0
110 C31886 0.924366916512817 0.973433401012742 0.676691211604861 C 0.0 **** 0.0
111 C31887 0.911083122084465 0.959348783066133 0.675616712835439 C 0.0 **** 0.0
112 C31893 0.932042463638034 0.938457026350786 0.621188802995223 C 0.0 **** 0.0
113 C31894 0.930208235807857 0.92759032168955 0.607767122359658 C 0.0 **** 0.0
114 C31895 0.91513903765305 0.919739265576422 0.60500858225605 C 0.0 **** 0.0
115 C31900 0.951869393011383 0.954864286025858 0.640108747120358 C 0.0 **** 0.0
116 C31902 0.948828716795914 0.946741965289919 0.624841740488094 C 0.0 **** 0.0
117 C31905 0.624632853663757 0.930513770335505 0.739342228559916 C 0.0 **** 0.0
118 C31907 0.617509392464582 0.916492417244772 0.727983652593418 C 0.0 **** 0.0
119 C31909 0.636653249277212 0.922700396091036 0.752383387095013 C 0.0 **** 0.0
120 O31911 0.817147832569518 0.971264321356323 0.71592389252745 O 0.0 **** 0.0
121 C31913 0.913243471207813 0.909113534844026 0.591473683184424 C 0.0 **** 0.0
122 C31914 0.92640021569809 0.906104977731625 0.580802178998102 C 0.0 **** 0.0
123 C31915 0.94159694499914 0.913796917782183 0.583475474746127 C 0.0 **** 0.0
124 C31916 0.943340416747912 0.924599922718428 0.596916847591121 C 0.0 **** 0.0
125 C31922 0.959699844118264 0.933306697905833 0.599536634865794 C 0.0 **** 0.0
126 C31923 0.972726940468707 0.929844244446618 0.588726473402616 C 0.0 **** 0.0
127 C31924 0.970153489575094 0.917866244454354 0.574586308256421 C 0.0 **** 0.0
128 C31925 0.954676032082987 0.91038251795718 0.572458167482267 C 0.0 **** 0.0
129 C31931 0.983314348876693 0.914441463190707 0.563873090704098 C 0.0 **** 0.0
130 C31932 0.998853361024401 0.921867485255985 0.566031870286294 C 0.0 **** 0.0
131 C31933 1.00188129760429 0.932977819892381 0.578978077310887 C 0.0 **** 0.0
132 C31934 0.98816383050044 0.937302098807637 0.590970394406906 C 0.0 **** 0.0
133 C31940 0.99103394460836 0.948459968717347 0.604472225731226 C 0.0 **** 0.0
134 C31941 0.97776750450253 0.951877540026025 0.615646003573106 C 0.0 **** 0.0
135 C31942 0.961905385631232 0.944433798757245 0.613140906612392 C 0.0 **** 0.0
136 C31947 1.0070010212902 0.955620814620706 0.607128461360944 C 0.0 **** 0.0
137 C31948 1.02034757056631 0.951015872053533 0.594021080909121 C 0.0 **** 0.0
138 C31949 1.01745340285871 0.940089192195384 0.580957281735079 C 0.0 **** 0.0
139 C31954 0.96765768016633 0.961957608083844 0.642565495355045 C 0.0 **** 0.0
140 C31955 0.980671469587355 0.96163320653357 0.630140907968185 C 0.0 **** 0.0
141 C31960 1.00956510676287 0.966321808271909 0.620918461540605 C 0.0 **** 0.0
142 C31961 0.996406036403943 0.969797746383923 0.632145210719324 C 0.0 **** 0.0
143 C31965 0.999190197090172 0.981632699582442 0.647081494946855 C 0.0 **** 0.0
144 C31966 1.01041868699911 0.996478131462932 0.641845458403759 C 0.0 **** 0.0
145 C31967 1.0270452763938 0.989593499688148 0.635486818660259 C 0.0 **** 0.0
146 C31968 1.02646295193883 0.974390367795837 0.624099628542833 C 0.0 **** 0.0
147 O31974 1.03982993595443 0.969306626010588 0.61853221029336 O 0.0 **** 0.0
148 H31976 0.576485955934266 0.845327265820134 0.643407386643177 H 0.0 **** 0.0
149 H31978 0.587290476943114 0.835212591237199 0.660169790850262 H 0.0 **** 0.0
150 H31980 0.571397926042282 0.865900463597968 0.664593622123129 H 0.0 **** 0.0
151 H31982 0.589505396453457 0.860254067242064 0.676221253793866 H 0.0 **** 0.0
152 H31984 0.589447957307343 0.880772314762306 0.643640811371167 H 0.0 **** 0.0
153 H31986 0.617574269869855 0.878991992875486 0.641144413283658 H 0.0 **** 0.0
154 H31988 0.616898096714598 0.84745929583225 0.663518654649773 H 0.0 **** 0.0
155 H31990 0.627155047325692 0.850672896265123 0.643914797932388 H 0.0 **** 0.0
156 H31992 0.620339153148109 0.876593396758502 0.679340153863429 H 0.0 **** 0.0
157 H31994 0.628710457006797 0.905284573888678 0.679142125169744 H 0.0 **** 0.0
158 H31996 0.60560059235206 0.91001563994768 0.649717954845939 H 0.0 **** 0.0
159 H31998 0.603784942014229 0.918845192435848 0.670059606964858 H 0.0 **** 0.0
160 H32000 0.579935281242112 0.899209898289911 0.665368544138443 H 0.0 **** 0.0
161 H32002 0.593497204615979 0.890389279670616 0.680763668387488 H 0.0 **** 0.0
162 H32004 0.656721647467926 0.90911356732277 0.64177942058523 H 0.0 **** 0.0
163 H32006 0.646294697996697 0.880512769335082 0.6395519449146 H 0.0 **** 0.0
164 H32008 0.650417260155976 0.877822740613252 0.677954023823456 H 0.0 **** 0.0
165 H32010 0.644749859168141 0.86110336658314 0.664647784580976 H 0.0 **** 0.0
166 H32012 0.655560199711989 0.903924635440646 0.680074669755711 H 0.0 **** 0.0
167 H32014 0.719035949555067 0.867701295708238 0.643910901861401 H 0.0 **** 0.0
168 H32016 0.70597923444459 0.856261340379926 0.657799505573163 H 0.0 **** 0.0
169 H32018 0.695342944569884 0.849456606891967 0.630114235895711 H 0.0 **** 0.0
170 H32020 0.697788075712542 0.870225083188643 0.622565941769856 H 0.0 **** 0.0
171 H32022 0.666510328735148 0.860337658098446 0.629680161618046 H 0.0 **** 0.0
172 H32024 0.663278203883807 0.922455824523086 0.696848002993681 H 0.0 **** 0.0
173 H32025 0.683307905758979 0.958782470574924 0.660149441493181 H 0.0 **** 0.0
174 H32027 0.662914983511134 0.966940793932398 0.655723967493873 H 0.0 **** 0.0
175 H32029 0.659882855531852 0.937309671275448 0.646202541745873 H 0.0 **** 0.0
176 H32031 0.675510172082081 0.98768120119162 0.681340550493075 H 0.0 **** 0.0
177 H32033 0.65407345642617 0.984623093457788 0.676156239241581 H 0.0 **** 0.0
178 H32035 0.648938698774808 0.994908618538066 0.702525127806257 H 0.0 **** 0.0
179 H32037 0.669524761251367 0.990477104956473 0.709922834710705 H 0.0 **** 0.0
180 H32039 0.64800654615325 0.927793867081332 0.714565140905138 H 0.0 **** 0.0
181 H32041 0.658925909177182 0.938240091657795 0.73098885168219 H 0.0 **** 0.0
182 H32043 0.62370722615888 0.947917540954745 0.718624128742475 H 0.0 **** 0.0
183 H32045 0.645114434805607 0.958845418228633 0.748814951481365 H 0.0 **** 0.0
184 H32047 0.623921532895114 0.964984103686015 0.745799668314669 H 0.0 **** 0.0
185 H32049 0.64673896934558 0.985911603343325 0.734346227926969 H 0.0 **** 0.0
186 H32051 0.629525505641779 0.980916363346963 0.721496448443605 H 0.0 **** 0.0
187 H32053 0.698910777606377 0.952765660276147 0.692333671791052 H 0.0 **** 0.0
188 H32055 0.765769505408062 0.962888416713711 0.696067638718069 H 0.0 **** 0.0
189 H32057 0.795541406824376 0.964990446683368 0.69881965195816 H 0.0 **** 0.0
190 H32059 0.760111400105133 0.880369268103716 0.65959975784021 H 0.0 **** 0.0
191 H32061 0.869843484142001 0.977598111869318 0.697755921795004 H 0.0 **** 0.0
192 H32063 0.848408872901194 0.969568099756914 0.715643175079462 H 0.0 **** 0.0
193 H32065 0.820745028006209 0.985401136929816 0.694000359749199 H 0.0 **** 0.0
194 H32067 0.834630666314285 1.0053802728082 0.712687629401675 H 0.0 **** 0.0
195 H32069 0.839032138393512 0.993295329713658 0.730932877771171 H 0.0 **** 0.0
196 H32071 0.869949887093828 0.995661202020969 0.724721348840688 H 0.0 **** 0.0
197 H32073 0.860926313510763 1.01563252685686 0.728013448011631 H 0.0 **** 0.0
198 H32075 0.864279800829887 1.02375311827871 0.699743353964365 H 0.0 **** 0.0
199 H32077 0.845893402608597 1.00496885411878 0.686061873593877 H 0.0 **** 0.0
200 H32079 0.862576554639981 0.994203666474021 0.660437688035535 H 0.0 **** 0.0
201 H32081 0.863538011351937 1.01594916259569 0.665366279123779 H 0.0 **** 0.0
202 H32083 0.892424589059652 1.00624426386817 0.658858631767077 H 0.0 **** 0.0
203 H32085 0.890501220202491 0.989586787010029 0.673750046440825 H 0.0 **** 0.0
204 H32087 0.889400155710637 1.02742156825004 0.682347280627237 H 0.0 **** 0.0
205 H32089 0.906942196882396 1.01410870559155 0.685792881373932 H 0.0 **** 0.0
206 H32091 0.88989399488319 0.997835643824776 0.704376156398043 H 0.0 **** 0.0
207 H32093 0.788477457886117 0.8822286705834 0.608211624953829 H 0.0 **** 0.0
208 H32095 0.767010986309784 0.863872419613953 0.620677587179327 H 0.0 **** 0.0
209 H32097 0.788923910808564 0.854583027544524 0.650238705938632 H 0.0 **** 0.0
210 H32099 0.771753783725277 0.84355431855108 0.64154990544425 H 0.0 **** 0.0
211 H32101 0.794851865505015 0.825602240375683 0.634187479970512 H 0.0 **** 0.0
212 H32103 0.80890079375772 0.842662087632945 0.631436928649942 H 0.0 **** 0.0
213 H32105 0.779624815636526 0.834107930930172 0.607652023860489 H 0.0 **** 0.0
214 H32107 0.801006487955062 0.82917826040611 0.603614250709901 H 0.0 **** 0.0
215 H32109 0.786877601723639 0.85760046877954 0.590977103464384 H 0.0 **** 0.0
216 H32111 0.808195007053756 0.857563169773518 0.597455324469542 H 0.0 **** 0.0
217 H32113 0.83591492341583 0.881737735522915 0.623824891747055 H 0.0 **** 0.0
218 H32115 0.86196839936501 0.893129089540241 0.613721485564306 H 0.0 **** 0.0
219 H32117 0.876839360896812 0.957337877263258 0.675015018770277 H 0.0 **** 0.0
220 H32119 0.900091235187104 0.971607156156498 0.654323074929851 H 0.0 **** 0.0
221 H32121 0.921166428682243 0.967966369567451 0.637246733105168 H 0.0 **** 0.0
222 H32123 0.938405721823802 0.942964280252109 0.660625486240031 H 0.0 **** 0.0
223 H32125 0.944280125827479 0.981174465607308 0.659675553388215 H 0.0 **** 0.0
224 H32127 0.95083699913706 0.966208337197642 0.674893022852078 H 0.0 **** 0.0
225 H32129 0.918543431593364 0.985078938252195 0.671716242978901 H 0.0 **** 0.0
226 H32131 0.927716973004336 0.976445659695411 0.68978803454379 H 0.0 **** 0.0
227 H32133 0.900737375123489 0.962128753899312 0.684498856915731 H 0.0 **** 0.0
228 H32135 0.916448967141836 0.947062031909479 0.679397563019612 H 0.0 **** 0.0
229 H32137 0.613794873886501 0.93599328405302 0.746277723837184 H 0.0 **** 0.0
230 H32139 0.610871441749854 0.906883781021565 0.735556826068576 H 0.0 **** 0.0
231 H32141 0.62763994363117 0.910023471188051 0.720976461645231 H 0.0 **** 0.0
232 H32143 0.608440920441538 0.921520714975468 0.718701561598777 H 0.0 **** 0.0
233 H32145 0.647385932182724 0.916486014172276 0.746107185932448 H 0.0 **** 0.0
234 H32147 0.630129832773368 0.912945921530824 0.759823751086228 H 0.0 **** 0.0
235 H32149 0.641669198920915 0.932141462639149 0.761279256792181 H 0.0 **** 0.0
236 H32151 0.815818911918767 0.981666396576256 0.721769858521958 H 0.0 **** 0.0
237 H32153 0.90124580238583 0.902756574322482 0.588989932134524 H 0.0 **** 0.0
238 H32155 0.924470293495956 0.897491285530837 0.570201124980055 H 0.0 **** 0.0
239 H32157 0.952738160362747 0.901597409706579 0.561973215415158 H 0.0 **** 0.0
240 H32159 0.981714768683497 0.90561379756937 0.553380854133127 H 0.0 **** 0.0
241 H32161 1.00887108234467 0.918608499367042 0.557130199995292 H 0.0 **** 0.0
242 H32163 1.03290814271515 0.956490237041751 0.59488361795306 H 0.0 **** 0.0
243 H32165 1.02782515620536 0.937181046380271 0.572338858874033 H 0.0 **** 0.0
244 H32167 0.970017753311735 0.968221877730324 0.654704401027052 H 0.0 **** 0.0
245 H32169 0.987218856510652 0.986683403927911 0.651959318755634 H 0.0 **** 0.0
246 H32171 1.00516142303579 0.974728261026481 0.657601965016127 H 0.0 **** 0.0
247 H32173 1.0126819286894 1.00516789111738 0.652492982326254 H 0.0 **** 0.0
248 H32175 1.00406231797896 1.00383111328993 0.631862724733548 H 0.0 **** 0.0
249 H32177 1.03529807307961 0.985255465902181 0.645831004071858 H 0.0 **** 0.0
250 H32179 1.03454769606855 0.998561116059561 0.627994357677868 H 0.0 **** 0.0
@<TRIPOS>BOND
1 3 2 1
2 4 3 1
3 5 4 1
4 6 5 1
5 1 2 1
6 1 6 1
7 8 7 1
8 9 8 1
9 10 9 1
10 4 7 1
11 3 10 1
12 12 11 1
13 13 12 1
14 14 13 1
15 8 11 1
16 7 14 1
17 16 15 1
18 17 16 Partial double
19 18 17 1
20 13 15 1
21 12 18 1
22 20 19 Partial double
23 21 20 Partial double
24 22 21 Partial double
25 17 19 Partial double
26 16 22 Partial double
27 24 23 1
28 25 24 1
29 15 25 Double
30 22 23 1
31 27 26 1
32 28 27 Partial double
33 29 28 Partial double
34 21 26 1
35 20 29 Partial double
36 31 30 1
37 32 31 1
38 18 30 1
39 19 32 1
40 34 33 Double
41 35 34 1
42 36 35 1
43 31 33 1
44 30 36 Double
45 38 37 1
46 39 38 1
47 40 39 Double
48 34 37 1
49 33 40 1
50 42 41 1
51 43 42 1
52 44 43 1
53 40 41 1
54 39 44 1
55 46 45 Partial double
56 32 46 1
57 29 45 Partial double
58 48 47 Partial double
59 49 48 1
60 45 49 Partial double
61 28 47 Partial double
62 51 50 Partial double
63 52 51 Partial double
64 53 52 Partial double
65 48 50 Partial double
66 47 53 Partial double
67 55 54 Partial double
68 56 55 Partial double
69 57 56 Partial double
70 52 54 Partial double
71 51 57 Partial double
72 59 58 Partial double
73 60 59 Partial double
74 61 60 Partial double
75 56 58 Partial double
76 55 61 Partial double
77 63 62 Partial double
78 27 63 Partial double
79 53 62 Partial double
80 65 64 Partial double
81 62 65 Partial double
82 54 64 Partial double
83 67 66 Partial double
84 64 67 Partial double
85 61 66 Partial double
86 69 68 Partial double
87 70 69 Partial double
88 66 70 Partial double
89 60 68 Partial double
90 72 71 1
91 73 72 1
92 74 73 1
93 59 71 1
94 58 74 1
95 76 75 1
96 77 76 1
97 78 77 1
98 73 75 1
99 72 78 1
100 80 79 1
101 81 80 1
102 82 81 1
103 78 79 1
104 77 82 1
105 84 83 Partial double
106 85 84 Partial double
107 67 85 Partial double
108 65 83 Partial double
109 87 86 1
110 88 87 1
111 89 88 1
112 84 86 1
113 83 89 1
114 91 90 1
115 92 91 1
116 93 92 1
117 88 90 1
118 87 93 1
119 95 94 Partial double
120 85 95 Partial double
121 70 94 Partial double
122 97 96 Partial double
123 98 97 Partial double
124 94 98 Partial double
125 69 96 Partial double
126 100 99 Partial double
127 101 100 Partial double
128 68 101 Partial double
129 96 99 Partial double
130 103 102 1
131 104 103 Partial double
132 97 102 1
133 99 104 1
134 106 105 1
135 107 106 1
136 100 105 1
137 104 107 Partial double
138 109 108 1
139 110 109 1
140 111 110 1
141 106 108 1
142 105 111 1
143 113 112 1
144 114 113 1
145 103 114 Partial double
146 107 112 Partial double
147 108 115 1
148 112 116 Partial double
149 115 116 Partial double
150 42 117 1
151 117 118 1
152 117 119 1
153 74 120 1
154 122 121 1
155 123 122 Partial double
156 124 123 1
157 114 121 Partial double
158 113 124 Partial double
159 126 125 Partial double
160 127 126 1
161 128 127 Partial double
162 124 125 Partial double
163 123 128 Partial double
164 130 129 Partial double
165 131 130 1
166 132 131 1
167 127 129 Partial double
168 126 132 Partial double
169 134 133 Partial double
170 135 134 Partial double
171 125 135 Partial double
172 132 133 Partial double
173 137 136 Partial double
174 138 137 Partial double
175 131 138 Partial double
176 133 136 Partial double
177 140 139 Partial double
178 134 140 Partial double
179 116 135 Partial double
180 115 139 Partial double
181 142 141 Partial double
182 140 142 Partial double
183 136 141 Partial double
184 144 143 1
185 145 144 1
186 146 145 1
187 142 143 1
188 141 146 1
189 146 147 Double
190 1 148 1
191 1 149 1
192 2 150 1
193 2 151 1
194 3 152 1
195 4 153 1
196 5 154 1
197 5 155 1
198 7 156 1
199 8 157 1
200 9 158 1
201 9 159 1
202 10 160 1
203 10 161 1
204 12 162 1
205 13 163 1
206 14 164 1
207 14 165 1
208 18 166 1
209 23 167 1
210 23 168 1
211 24 169 1
212 24 170 1
213 25 171 1
214 35 173 1
215 35 174 1
216 36 175 1
217 37 176 1
218 37 177 1
219 38 178 1
220 38 179 1
221 41 180 1
222 41 181 1
223 42 182 1
224 43 183 1
225 43 184 1
226 44 185 1
227 44 186 1
228 46 187 1
229 50 188 1
230 57 189 1
231 63 190 1
232 72 191 1
233 73 192 1
234 74 193 1
235 75 194 1
236 75 195 1
237 76 196 1
238 76 197 1
239 77 198 1
240 78 199 1
241 79 200 1
242 79 201 1
243 80 202 1
244 80 203 1
245 81 204 1
246 81 205 1
247 82 206 1
248 87 207 1
249 88 208 1
250 90 209 1
251 90 210 1
252 91 211 1
253 91 212 1
254 92 213 1
255 92 214 1
256 93 215 1
257 93 216 1
258 95 217 1
259 98 218 1
260 101 219 1
261 105 220 1
262 106 221 1
263 108 222 1
264 109 223 1
265 109 224 1
266 110 225 1
267 110 226 1
268 111 227 1
269 111 228 1
270 117 229 1
271 118 230 1
272 118 231 1
273 118 232 1
274 119 233 1
275 119 234 1
276 119 235 1
277 120 236 1
278 121 237 1
279 122 238 1
280 128 239 1
281 129 240 1
282 130 241 1
283 137 242 1
284 138 243 1
285 139 244 1
286 143 245 1
287 143 246 1
288 144 247 1
289 144 248 1
290 145 249 1
291 145 250 1
292 31 172 1
@<TRIPOS>MOLECULE
Sketch 4
250 292
SMALL
USER_CHARGES


@<TRIPOS>ATOM
1 C32182 0.229406718617905 0.101137653703112 0.959888262884868 C 0.0 **** 0.0
2 C32183 0.228176771996258 0.0831412371658589 0.967547114769995 C 0.0 **** 0.0
3 C32184 0.224624794477083 0.0841376838448787 0.986780910277159 C 0.0 **** 0.0
4 C32185 0.235606849484863 0.0983786445052213 0.994626524621637 C 0.0 **** 0.0
5 C32186 0.231418896221151 0.115405511781784 0.985694510744335 C 0.0 **** 0.0
6 O32187 0.221672693399569 0.113152949553964 0.97072004552581 O 0.0 **** 0.0
7 C32194 0.254744391407258 0.0940120718070575 0.993537375137423 C 0.0 **** 0.0
8 C32195 0.258182535484109 0.0747738915809827 0.996436176502452 C 0.0 **** 0.0
9 C32196 0.243589391668108 0.066167887460891 1.0057388184554 C 0.0 **** 0.0
10 C32197 0.226838077030189 0.0670083908784788 0.995956526230709 C 0.0 **** 0.0
11 O32203 0.272952032893214 0.0715884577500091 1.00622703809068 O 0.0 **** 0.0
12 C32204 0.287284224965414 0.0810647741817415 1.00064284772162 C 0.0 **** 0.0
13 C32205 0.284859461760697 0.100102093808211 1.00543597323438 C 0.0 **** 0.0
14 C32206 0.265507711593357 0.104674563883789 1.00580708894205 C 0.0 **** 0.0
15 C32212 0.295806392619901 0.112284559553315 0.995187611027206 C 0.0 **** 0.0
16 C32213 0.309753683413104 0.104921714330509 0.984491413964542 C 0.0 **** 0.0
17 C32214 0.308280183508168 0.0884708692488632 0.978778901461222 C 0.0 **** 0.0
18 C32215 0.291817287162303 0.0788460108010469 0.981920913426265 C 0.0 **** 0.0
19 C32221 0.321256178777955 0.0816676350761704 0.969248320569419 C 0.0 **** 0.0
20 C32222 0.335225059390478 0.0914053279809424 0.965176810743368 C 0.0 **** 0.0
21 C32223 0.33654399940074 0.108062476567232 0.970567504686654 C 0.0 **** 0.0
22 C32224 0.323517819901266 0.114984856232343 0.9801642491806 C 0.0 **** 0.0
23 C32230 0.324133663050657 0.133187217110993 0.986053536874619 C 0.0 **** 0.0
24 C32231 0.306064876194793 0.14067688303514 0.986489322887984 C 0.0 **** 0.0
25 C32232 0.294176659890804 0.129210768673471 0.996155960773451 C 0.0 **** 0.0
26 O32237 0.350546810876888 0.117885153545694 0.966430788910999 O 0.0 **** 0.0
27 C32238 0.364730107078957 0.110058184548248 0.959684751062617 C 0.0 **** 0.0
28 C32239 0.364287438640393 0.0940536892268743 0.952448401173032 C 0.0 **** 0.0
29 C32240 0.348450589561709 0.0839135905291919 0.954005175223736 C 0.0 **** 0.0
30 C32246 0.292719586399676 0.0610081110890183 0.974777277406398 C 0.0 **** 0.0
31 C32247 0.301241437475504 0.0610376344922735 0.957619840581676 C 0.0 **** 0.0
32 C32248 0.319730859869173 0.0638345976469269 0.962933734015403 C 0.0 **** 0.0
33 C32253 0.299231189559177 0.0449810577331244 0.946836728483801 C 0.0 **** 0.0
34 C32254 0.294713532943642 0.0304414421075608 0.954959118635739 C 0.0 **** 0.0
35 C32255 0.290172723964216 0.0294997350974143 0.973599710614258 C 0.0 **** 0.0
36 C32256 0.288114325307205 0.0464732033937105 0.982219543034841 C 0.0 **** 0.0
37 C32262 0.291945005832337 0.0140322615213627 0.945782341339981 C 0.0 **** 0.0
38 C32263 0.301366837993534 0.0135453337959231 0.92881868513821 C 0.0 **** 0.0
39 C32264 0.303021312706495 0.0306942279263638 0.92077848299584 C 0.0 **** 0.0
40 C32265 0.301966956600654 0.0453759679385416 0.92972738623929 C 0.0 **** 0.0
41 C32271 0.304665277856218 0.062181096106845 0.920096720273617 C 0.0 **** 0.0
42 C32272 0.303637952996911 0.0606741924411086 0.900898128251314 C 0.0 **** 0.0
43 C32273 0.314670614369977 0.0457638882061604 0.895128953257679 C 0.0 **** 0.0
44 C32274 0.307504133599362 0.0294079073947817 0.902278202601102 C 0.0 **** 0.0
45 C32280 0.346350202366156 0.0686444240437422 0.946495049254721 C 0.0 **** 0.0
46 C32281 0.332978173313487 0.0585732474477408 0.950155277342692 C 0.0 **** 0.0
47 C32285 0.378765514161916 0.0873964373901285 0.944343148462152 C 0.0 **** 0.0
48 C32286 0.378755907982119 0.0722238180671716 0.934775422721027 C 0.0 **** 0.0
49 S32287 0.360340866499085 0.0611016334735936 0.93139615669599 S 0.0 **** 0.0
50 C32292 0.392541686174447 0.0668308172941071 0.925783133146336 C 0.0 **** 0.0
51 C32293 0.407123429788474 0.0769941657525503 0.925009058382948 C 0.0 **** 0.0
52 C32294 0.40777648367265 0.0917524281867194 0.93508926430953 C 0.0 **** 0.0
53 C32295 0.393958147503429 0.0965982320417007 0.944941996287604 C 0.0 **** 0.0
54 C32301 0.421948935956454 0.10209293901204 0.934058678395189 C 0.0 **** 0.0
55 C32302 0.434231211482748 0.0994256434544722 0.921619434836425 C 0.0 **** 0.0
56 C32303 0.432100013555701 0.0867051177041323 0.90934259687597 C 0.0 **** 0.0
57 C32304 0.419577660631449 0.0744410441080595 0.912532651220953 C 0.0 **** 0.0
58 C32310 0.442780168624397 0.0861988277831103 0.895138880730205 C 0.0 **** 0.0
59 C32311 0.457803388877083 0.0952203390095996 0.89566353170482 C 0.0 **** 0.0
60 C32312 0.461033064425572 0.106845111693551 0.908921969504825 C 0.0 **** 0.0
61 C32313 0.449054680912899 0.10875373921463 0.921829671732647 C 0.0 **** 0.0
62 C32319 0.395066754835723 0.111542056958848 0.954511245664666 C 0.0 **** 0.0
63 C32320 0.379852909272132 0.118669675063223 0.960439935538052 C 0.0 **** 0.0
64 C32324 0.424274540210501 0.114687497763747 0.946156819842252 C 0.0 **** 0.0
65 C32325 0.411279288198162 0.118596686631458 0.957483027197735 C 0.0 **** 0.0
66 C32329 0.452505523889238 0.118980486278951 0.935783023697212 C 0.0 **** 0.0
67 C32330 0.440154189658688 0.12162729024453 0.948098309455784 C 0.0 **** 0.0
68 C32334 0.475880127419031 0.116979987811567 0.909482742432128 C 0.0 **** 0.0
69 C32335 0.480121891927264 0.125191742480955 0.924689004991622 C 0.0 **** 0.0
70 C32336 0.468580781317872 0.125767756424169 0.937882059347899 C 0.0 **** 0.0
71 O32341 0.470188202656269 0.0923495664388548 0.883509514851005 O 0.0 **** 0.0
72 C32342 0.465162318956784 0.0897721253905134 0.866347587472891 C 0.0 **** 0.0
73 C32343 0.446308458141705 0.0848065631807026 0.864343402074049 C 0.0 **** 0.0
74 C32344 0.439627662980431 0.0751484890560542 0.879720907663714 C 0.0 **** 0.0
75 C32350 0.442839165883947 0.0753342180430845 0.847549157837592 C 0.0 **** 0.0
76 C32351 0.454873262069873 0.0814001576452111 0.833690917093316 C 0.0 **** 0.0
77 C32352 0.47312979128585 0.0761974572578968 0.838042028297332 C 0.0 **** 0.0
78 C32353 0.476682072701455 0.0766425865087362 0.857503163602152 C 0.0 **** 0.0
79 C32359 0.495797392250134 0.0782530642905081 0.861414146618799 C 0.0 **** 0.0
80 C32360 0.505479113090899 0.0694923200129425 0.847079665096824 C 0.0 **** 0.0
81 C32361 0.50267100009471 0.078629230342105 0.830012139178156 C 0.0 **** 0.0
82 N32362 0.485412651889006 0.0854231706180045 0.828007166909052 N 0.0 **** 0.0
83 C32368 0.415135033549263 0.127180686112161 0.97278541995554 C 0.0 **** 0.0
84 C32369 0.431768877438523 0.131748369151707 0.976153390081248 C 0.0 **** 0.0
85 C32370 0.444154902353706 0.129710671435182 0.963410288749219 C 0.0 **** 0.0
86 O32375 0.436635160120488 0.138759822791031 0.991486900689184 O 0.0 **** 0.0
87 C32376 0.425100564294359 0.133839166741605 1.00446951971532 C 0.0 **** 0.0
88 C32377 0.407655806058629 0.13902537068139 0.999148161429887 C 0.0 **** 0.0
89 O32378 0.402361443110653 0.129989105665501 0.984457425184922 O 0.0 **** 0.0
90 C32384 0.406451778714151 0.158324757866999 0.996717451017737 C 0.0 **** 0.0
91 C32385 0.415648405617239 0.168162042325718 1.01084959812586 C 0.0 **** 0.0
92 C32386 0.419008351707312 0.156968703002022 1.02632872582872 C 0.0 **** 0.0
93 C32387 0.4302943052813 0.141822575374495 1.02148999156673 C 0.0 **** 0.0
94 C32393 0.472817593227882 0.134268338455662 0.95306911055156 C 0.0 **** 0.0
95 C32394 0.460689560132176 0.135537590567244 0.966028555468296 C 0.0 **** 0.0
96 C32398 0.494889153476493 0.134901893004225 0.925578216698893 C 0.0 **** 0.0
97 C32399 0.499328117513713 0.143288974143256 0.940722055395055 C 0.0 **** 0.0
98 C32400 0.488562192137553 0.142563502629252 0.954297904339578 C 0.0 **** 0.0
99 C32405 0.504495980124505 0.138162649617088 0.91097849368596 C 0.0 **** 0.0
100 C32406 0.499280989697511 0.131976851569379 0.895491078101516 C 0.0 **** 0.0
101 C32407 0.485557400881886 0.121286395053053 0.895084822601271 C 0.0 **** 0.0
102 O32412 0.51411048847148 0.152375330603472 0.942312947185937 O 0.0 **** 0.0
103 C32413 0.523195828799396 0.156387541084459 0.928020955738168 C 0.0 **** 0.0
104 C32414 0.519323837770522 0.149748637868514 0.912534615915548 C 0.0 **** 0.0
105 C32419 0.507772202374008 0.136409775155512 0.878902790819609 C 0.0 **** 0.0
106 C32420 0.525296015965368 0.146033644720123 0.881186823092771 C 0.0 **** 0.0
107 C32421 0.528742953665351 0.15369989166847 0.898614046374004 C 0.0 **** 0.0
108 C32426 0.527495597964295 0.159742416239931 0.867430661979727 C 0.0 **** 0.0
109 C32427 0.521996565386189 0.153264136503892 0.849947902836691 C 0.0 **** 0.0
110 C32428 0.502827054174314 0.149158185584095 0.849946836648184 C 0.0 **** 0.0
111 C32429 0.49561083077073 0.146780163299697 0.867875758109288 C 0.0 **** 0.0
112 C32435 0.541841637989375 0.16485323557523 0.900213988368298 C 0.0 **** 0.0
113 C32436 0.545827293098728 0.171435091021015 0.915780766347822 C 0.0 **** 0.0
114 C32437 0.536535409896076 0.167209047133257 0.929658673737702 C 0.0 **** 0.0
115 C32442 0.545512615674403 0.16654152092958 0.868520297256412 C 0.0 **** 0.0
116 C32444 0.551787282946893 0.169655399969915 0.884647268293653 C 0.0 **** 0.0
117 C32447 0.30765044764712 0.0775948716018824 0.891881659260675 C 0.0 **** 0.0
118 C32449 0.326059275491029 0.0834841293383733 0.893677331324309 C 0.0 **** 0.0
119 C32451 0.303028391780455 0.0770215056432162 0.873051683019968 C 0.0 **** 0.0
120 O32453 0.422104496649455 0.0718717071201104 0.877196454271579 O 0.0 **** 0.0
121 C32455 0.540525734491017 0.173854608553534 0.945142582317679 C 0.0 **** 0.0
122 C32456 0.553453450313504 0.185098611162717 0.946726546061813 C 0.0 **** 0.0
123 C32457 0.562643771543877 0.189671007668895 0.932870426629888 C 0.0 **** 0.0
124 C32458 0.559040496551489 0.18242374485735 0.917548766874948 C 0.0 **** 0.0
125 C32464 0.569502739216104 0.186803421137211 0.902651577905836 C 0.0 **** 0.0
126 C32465 0.581357559503903 0.199236498647813 0.904366042584078 C 0.0 **** 0.0
127 C32466 0.584153211289532 0.207176942686075 0.921071457335172 C 0.0 **** 0.0
128 C32467 0.575076073467503 0.201732625522286 0.934773454386151 C 0.0 **** 0.0
129 C32473 0.595689389288565 0.219975249037248 0.922514178523474 C 0.0 **** 0.0
130 C32474 0.604600602881359 0.225586253874767 0.908735000927497 C 0.0 **** 0.0
131 C32475 0.60255929730383 0.218521554782411 0.893054965288865 C 0.0 **** 0.0
132 C32476 0.590448340981484 0.204522059846295 0.890655964297841 C 0.0 **** 0.0
133 C32482 0.588152541022015 0.197153040882489 0.874679534161458 C 0.0 **** 0.0
134 C32483 0.575894615470803 0.18455027885544 0.872842199790294 C 0.0 **** 0.0
135 C32484 0.566317141067765 0.179475068998776 0.88682934782291 C 0.0 **** 0.0
136 C32489 0.597355347998712 0.202697434996813 0.860608245954974 C 0.0 **** 0.0
137 C32490 0.609528728969448 0.21718541029826 0.863985049125562 C 0.0 **** 0.0
138 C32491 0.611569471335525 0.224319799260228 0.879577954156307 C 0.0 **** 0.0
139 C32496 0.555356478430469 0.170995280386749 0.854824652136854 C 0.0 **** 0.0
140 C32497 0.571247697010995 0.179284283557943 0.856570790695371 C 0.0 **** 0.0
141 C32502 0.594681421811098 0.195205645232146 0.844859067420498 C 0.0 **** 0.0
142 C32503 0.581454841509004 0.183771300043285 0.842611629266013 C 0.0 **** 0.0
143 C32507 0.576894207831071 0.176664699918837 0.825231955256293 C 0.0 **** 0.0
144 C32508 0.591922690625383 0.176164548665164 0.813104165626234 C 0.0 **** 0.0
145 C32509 0.600157640606566 0.193450424657541 0.812797950315605 C 0.0 **** 0.0
146 C32510 0.605952187876936 0.199181424902375 0.830086447865021 C 0.0 **** 0.0
147 O32516 0.619807321459284 0.205619141747923 0.831375292647133 O 0.0 **** 0.0
148 H32518 0.222642476450618 0.101844992745666 0.947776085644985 H 0.0 **** 0.0
149 H32520 0.242650316887765 0.104641862510071 0.957257281560669 H 0.0 **** 0.0
150 H32522 0.218089825576603 0.0758024106879898 0.96135665487806 H 0.0 **** 0.0
151 H32524 0.239902397153276 0.0760306115932854 0.965127073196821 H 0.0 **** 0.0
152 H32526 0.211255595543239 0.0880400631711167 0.988069573973046 H 0.0 **** 0.0
153 H32528 0.23233080647631 0.0993152172943328 1.00817859574498 H 0.0 **** 0.0
154 H32530 0.242979623062297 0.122688553330361 0.982852117201334 H 0.0 **** 0.0
155 H32532 0.22363791622168 0.123463515882771 0.993908534577316 H 0.0 **** 0.0
156 H32534 0.258957367360712 0.0973412980332637 0.980656765588914 H 0.0 **** 0.0
157 H32536 0.259430361699699 0.0685032283030522 0.984023442855745 H 0.0 **** 0.0
158 H32538 0.242181713201632 0.0724063871112005 1.01813316373427 H 0.0 **** 0.0
159 H32540 0.247131221104962 0.0529614084857627 1.00842503799134 H 0.0 **** 0.0
160 H32542 0.216267310817175 0.0648895071379029 1.00477512048634 H 0.0 **** 0.0
161 H32544 0.226231975764144 0.0565876156314379 0.986721458682512 H 0.0 **** 0.0
162 H32546 0.297782893314741 0.0759710365322355 1.00824063170855 H 0.0 **** 0.0
163 H32548 0.289255553328678 0.101650928156054 1.01859937584615 H 0.0 **** 0.0
164 H32550 0.263078513107838 0.11825345123004 1.00398280668124 H 0.0 **** 0.0
165 H32552 0.260982821267556 0.101832103460403 1.01871834480254 H 0.0 **** 0.0
166 H32554 0.281995325955534 0.0851819749301186 0.974237049810126 H 0.0 **** 0.0
167 H32556 0.329648423526906 0.133974014624696 0.998833171238142 H 0.0 **** 0.0
168 H32558 0.332133949086071 0.140865139598609 0.977658235104839 H 0.0 **** 0.0
169 H32560 0.301235363654081 0.142362140725261 0.973538223938521 H 0.0 **** 0.0
170 H32562 0.306343306614439 0.153331050453816 0.992338342770289 H 0.0 **** 0.0
171 H32564 0.284521725871765 0.135492307416258 1.00369582911278 H 0.0 **** 0.0
172 H32566 0.296607399332506 0.0720200908086169 0.950391940505231 H 0.0 **** 0.0
173 H32567 0.299858293246899 0.0220296179359641 0.980322340065321 H 0.0 **** 0.0
174 H32569 0.278121947389832 0.0225024118194347 0.974825256575994 H 0.0 **** 0.0
175 H32571 0.282784029775134 0.0462928211946942 0.994919502651518 H 0.0 **** 0.0
176 H32573 0.296087757633729 0.00327203908566677 0.95364284041865 H 0.0 **** 0.0
177 H32575 0.278255866109946 0.0124096047926831 0.943748064992098 H 0.0 **** 0.0
178 H32577 0.295097924757884 0.00474092065339565 0.920041692101983 H 0.0 **** 0.0
179 H32579 0.314206303908236 0.00856153005904173 0.930928639849241 H 0.0 **** 0.0
180 H32581 0.295244795899699 0.0715204614276666 0.924331096218905 H 0.0 **** 0.0
181 H32583 0.317104559080846 0.0673027499917344 0.923559860654621 H 0.0 **** 0.0
182 H32585 0.290405574002644 0.0574989107817595 0.897623594998425 H 0.0 **** 0.0
183 H32587 0.327744763579138 0.0476483220162618 0.899583230577513 H 0.0 **** 0.0
184 H32589 0.315250168719055 0.0448462103499387 0.881240249741619 H 0.0 **** 0.0
185 H32591 0.31651876871679 0.0189352784158889 0.900527628208594 H 0.0 **** 0.0
186 H32593 0.295932627760513 0.0261046579145231 0.895248610046035 H 0.0 **** 0.0
187 H32595 0.331680255398385 0.0462035639736403 0.944255869702646 H 0.0 **** 0.0
188 H32597 0.391719233485428 0.0556979404691761 0.91756213711418 H 0.0 **** 0.0
189 H32599 0.418294540011554 0.063326105736378 0.904347176454081 H 0.0 **** 0.0
190 H32601 0.379932410565484 0.131016017710108 0.966711096006901 H 0.0 **** 0.0
191 H32603 0.467125933804825 0.101962806547352 0.859855806545872 H 0.0 **** 0.0
192 H32605 0.438829569457284 0.0966135745815111 0.86378238055697 H 0.0 **** 0.0
193 H32607 0.445909850854202 0.0628091150043284 0.881074492784393 H 0.0 **** 0.0
194 H32609 0.444575322500906 0.0616017323659037 0.849324786360296 H 0.0 **** 0.0
195 H32611 0.429517058521589 0.0770631628407751 0.843821297174562 H 0.0 **** 0.0
196 H32613 0.453934477227947 0.095248721017995 0.832668271246876 H 0.0 **** 0.0
197 H32615 0.451360394482589 0.0763525052031169 0.821173977378929 H 0.0 **** 0.0
198 H32617 0.474471235158362 0.0629099689228838 0.834078732049394 H 0.0 **** 0.0
199 H32619 0.472722700163314 0.0642083529097849 0.862502336610623 H 0.0 **** 0.0
200 H32621 0.499608264839071 0.0916511435291016 0.862009655329147 H 0.0 **** 0.0
201 H32623 0.498721953119755 0.0726967518196332 0.873851447652481 H 0.0 **** 0.0
202 H32625 0.500857845352009 0.0563539694746583 0.846209572497636 H 0.0 **** 0.0
203 H32627 0.519130867844829 0.0684722983132469 0.849458516451086 H 0.0 **** 0.0
204 H32629 0.505351332071931 0.0700254364691822 0.819380587823674 H 0.0 **** 0.0
205 H32631 0.511709680114082 0.0891419367382253 0.828921186726179 H 0.0 **** 0.0
206 H32633 0.485213781203847 0.0977058135148875 0.831006916812109 H 0.0 **** 0.0
207 H32635 0.425497542156262 0.119937928232349 1.00548576447082 H 0.0 **** 0.0
208 H32637 0.398896626914768 0.135561003808453 1.00936789089604 H 0.0 **** 0.0
209 H32639 0.411770977666711 0.161626878621448 0.984294865883187 H 0.0 **** 0.0
210 H32641 0.393100383405946 0.162097794497894 0.996263271065949 H 0.0 **** 0.0
211 H32643 0.408282766604196 0.179428678131635 1.01435252025193 H 0.0 **** 0.0
212 H32645 0.427896924686835 0.172686188192688 1.00601223045258 H 0.0 **** 0.0
213 H32647 0.406848879355567 0.15238188572684 1.03133835285065 H 0.0 **** 0.0
214 H32649 0.424854378442692 0.164177721184348 1.0366830899997 H 0.0 **** 0.0
215 H32651 0.430323417178676 0.132555683738262 1.03188541464132 H 0.0 **** 0.0
216 H32653 0.443444534726401 0.146175016943866 1.02018606026484 H 0.0 **** 0.0
217 H32655 0.463960104858142 0.14212741697136 0.977811488396237 H 0.0 **** 0.0
218 H32657 0.491783166266349 0.149255233179332 0.966050036925691 H 0.0 **** 0.0
219 H32659 0.481885495661432 0.116771484500574 0.882531230712097 H 0.0 **** 0.0
220 H32661 0.510492809447092 0.124587023281377 0.872012733607932 H 0.0 **** 0.0
221 H32663 0.535298616669933 0.136536835457669 0.879169412351562 H 0.0 **** 0.0
222 H32665 0.519059144682017 0.170484637772133 0.870523168843 H 0.0 **** 0.0
223 H32667 0.529441994247865 0.141920451230945 0.846858691224899 H 0.0 **** 0.0
224 H32669 0.524582442688385 0.162659583094086 0.840004337547634 H 0.0 **** 0.0
225 H32671 0.500340833256289 0.137543191885285 0.84274701528506 H 0.0 **** 0.0
226 H32673 0.495805500357168 0.159311367292442 0.843474099521818 H 0.0 **** 0.0
227 H32675 0.483051484281439 0.140804267008185 0.866935934451984 H 0.0 **** 0.0
228 H32677 0.493511955124912 0.159194406401366 0.873882551399378 H 0.0 **** 0.0
229 H32679 0.299550130704841 0.0873714820427435 0.897752163579981 H 0.0 **** 0.0
230 H32681 0.327861377893364 0.0957793699321504 0.8873779628056 H 0.0 **** 0.0
231 H32683 0.33481933556233 0.0744355140227678 0.887756977338147 H 0.0 **** 0.0
232 H32685 0.329901693916612 0.0850682509481912 0.906949181893447 H 0.0 **** 0.0
233 H32687 0.289783542799564 0.0732294305252023 0.871073827046716 H 0.0 **** 0.0
234 H32689 0.311069141342844 0.0680026608547314 0.866146300899791 H 0.0 **** 0.0
235 H32691 0.304795451426904 0.0894990964886381 0.867152640067229 H 0.0 **** 0.0
236 H32693 0.416571060757769 0.082334656751214 0.87936088545255 H 0.0 **** 0.0
237 H32695 0.533366731462323 0.170537789654578 0.956462562923351 H 0.0 **** 0.0
238 H32697 0.556121105788487 0.19041036171853 0.959175896285083 H 0.0 **** 0.0
239 H32699 0.577395833025448 0.207358734679926 0.947165592194282 H 0.0 **** 0.0
240 H32701 0.598000775505133 0.226070982985639 0.934669414209821 H 0.0 **** 0.0
241 H32703 0.613610638224411 0.235848346325143 0.910608678403856 H 0.0 **** 0.0
242 H32705 0.616812956920567 0.222509270479843 0.853628551230992 H 0.0 **** 0.0
243 H32707 0.620514308202034 0.234670862069268 0.88106466315117 H 0.0 **** 0.0
244 H32709 0.550559922511652 0.168104712231643 0.842155257535275 H 0.0 **** 0.0
245 H32711 0.571756150018079 0.163779429219325 0.826436937400832 H 0.0 **** 0.0
246 H32713 0.566767414032039 0.184497769973582 0.819623479966005 H 0.0 **** 0.0
247 H32715 0.587861225784916 0.172529792941343 0.800290747614031 H 0.0 **** 0.0
248 H32717 0.601027203450206 0.166492100644267 0.817311691425386 H 0.0 **** 0.0
249 H32719 0.591250729104702 0.202759699501452 0.807514278672131 H 0.0 **** 0.0
250 H32721 0.611986803871507 0.194167093976472 0.805593425393194 H 0.0 **** 0.0
@<TRIPOS>BOND
1 3 2 1
2 4 3 1
3 5 4 1
4 6 5 1
5 1 2 1
6 1 6 1
7 8 7 1
8 9 8 1
9 10 9 1
10 4 7 1
11 3 10 1
12 12 11 1
13 13 12 1
14 14 13 1
15 8 11 1
16 7 14 1
17 16 15 1
18 17 16 Partial double
19 18 17 1
20 13 15 1
21 12 18 1
22 20 19 Partial double
23 21 20 Partial double
24 22 21 Partial double
25 17 19 Partial double
26 16 22 Partial double
27 24 23 1
28 25 24 1
29 15 25 Double
30 22 23 1
31 27 26 1
32 28 27 Partial double
33 29 28 Partial double
34 21 26 1
35 20 29 Partial double
36 31 30 1
37 32 31 1
38 18 30 1
39 19 32 1
40 34 33 Double
41 35 34 1
42 36 35 1
43 31 33 1
44 30 36 Double
45 38 37 1
46 39 38 1
47 40 39 Double
48 34 37 1
49 33 40 1
50 42 41 1
51 43 42 1
52 44 43 1
53 40 41 1
54 39 44 1
55 46 45 Partial double
56 32 46 1
57 29 45 Partial double
58 48 47 Partial double
59 49 48 1
60 45 49 Partial double
61 28 47 Partial double
62 51 50 Partial double
63 52 51 Partial double
64 53 52 Partial double
65 48 50 Partial double
66 47 53 Partial double
67 55 54 Partial double
68 56 55 Partial double
69 57 56 Partial double
70 52 54 Partial double
71 51 57 Partial double
72 59 58 Partial double
73 60 59 Partial double
74 61 60 Partial double
75 56 58 Partial double
76 55 61 Partial double
77 63 62 Partial double
78 27 63 Partial double
79 53 62 Partial double
80 65 64 Partial double
81 62 65 Partial double
82 54 64 Partial double
83 67 66 Partial double
84 64 67 Partial double
85 61 66 Partial double
86 69 68 Partial double
87 70 69 Partial double
88 66 70 Partial double
89 60 68 Partial double
90 72 71 1
91 73 72 1
92 74 73 1
93 59 71 1
94 58 74 1
95 76 75 1
96 77 76 1
97 78 77 1
98 73 75 1
99 72 78 1
100 80 79 1
101 81 80 1
102 82 81 1
103 78 79 1
104 77 82 1
105 84 83 Partial double
106 85 84 Partial double
107 67 85 Partial double
108 65 83 Partial double
109 87 86 1
110 88 87 1
111 89 88 1
112 84 86 1
113 83 89 1
114 91 90 1
115 92 91 1
116 93 92 1
117 88 90 1
118 87 93 1
119 95 94 Partial double
120 85 95 Partial double
121 70 94 Partial double
122 97 96 Partial double
123 98 97 Partial double
124 94 98 Partial double
125 69 96 Partial double
126 100 99 Partial double
127 101 100 Partial double
128 68 101 Partial double
129 96 99 Partial double
130 103 102 1
131 104 103 Partial double
132 97 102 1
133 99 104 1
134 106 105 1
135 107 106 1
136 100 105 1
137 104 107 Partial double
138 109 108 1
139 110 109 1
140 111 110 1
141 106 108 1
142 105 111 1
143 113 112 1
144 114 113 1
145 103 114 Partial double
146 107 112 Partial double
147 108 115 1
148 112 116 Partial double
149 115 116 Partial double
150 42 117 1
151 117 118 1
152 117 119 1
153 74 120 1
154 122 121 1
155 123 122 Partial double
156 124 123 1
157 114 121 Partial double
158 113 124 Partial double
159 126 125 Partial double
160 127 126 1
161 128 127 Partial double
162 124 125 Partial double
163 123 128 Partial double
164 130 129 Partial double
165 131 130 1
166 132 131 1
167 127 129 Partial double
168 126 132 Partial double
169 134 133 Partial double
170 135 134 Partial double
171 125 135 Partial double
172 132 133 Partial double
173 137 136 Partial double
174 138 137 Partial double
175 131 138 Partial double
176 133 136 Partial double
177 140 139 Partial double
178 134 140 Partial double
179 116 135 Partial double
180 115 139 Partial double
181 142 141 Partial double
182 140 142 Partial double
183 136 141 Partial double
184 144 143 1
185 145 144 1
186 146 145 1
187 142 143 1
188 141 146 1
189 146 147 Double
190 1 148 1
191 1 149 1
192 2 150 1
193 2 151 1
194 3 152 1
195 4 153 1
196 5 154 1
197 5 155 1
198 7 156 1
199 8 157 1
200 9 158 1
201 9 159 1
202 10 160 1
203 10 161 1
204 12 162 1
205 13 163 1
206 14 164 1
207 14 165 1
208 18 166 1
209 23 167 1
210 23 168 1
211 24 169 1
212 24 170 1
213 25 171 1
214 35 173 1
215 35 174 1
216 36 175 1
217 37 176 1
218 37 177 1
219 38 178 1
220 38 179 1
221 41 180 1
222 41 181 1
223 42 182 1
224 43 183 1
225 43 184 1
226 44 185 1
227 44 186 1
228 46 187 1
229 50 188 1
230 57 189 1
231 63 190 1
232 72 191 1
233 73 192 1
234 74 193 1
235 75 194 1
236 75 195 1
237 76 196 1
238 76 197 1
239 77 198 1
240 78 199 1
241 79 200 1
242 79 201 1
243 80 202 1
244 80 203 1
245 81 204 1
246 81 205 1
247 82 206 1
248 87 207 1
249 88 208 1
250 90 209 1
251 90 210 1
252 91 211 1
253 91 212 1
254 92 213 1
255 92 214 1
256 93 215 1
257 93 216 1
258 95 217 1
259 98 218 1
260 101 219 1
261 105 220 1
262 106 221 1
263 108 222 1
264 109 223 1
265 109 224 1
266 110 225 1
267 110 226 1
268 111 227 1
269 111 228 1
270 117 229 1
271 118 230 1
272 118 231 1
273 118 232 1
274 119 233 1
275 119 234 1
276 119 235 1
277 120 236 1
278 121 237 1
279 122 238 1
280 128 239 1
281 129 240 1
282 130 241 1
283 137 242 1
284 138 243 1
285 139 244 1
286 143 245 1
287 143 246 1
288 144 247 1
289 144 248 1
290 145 249 1
291 145 250 1
292 31 172 1
@<TRIPOS>MOLECULE
Sketch 4
250 292
SMALL
USER_CHARGES


@<TRIPOS>ATOM
1 C32724 0.496014969278767 0.173028781883653 0.170288449917346 C 0.0 **** 0.0
2 C32725 0.495477276016252 0.181100002242794 0.152711806331375 C 0.0 **** 0.0
3 C32726 0.51017682359018 0.193589751929353 0.15003804920323 C 0.0 **** 0.0
4 C32727 0.511325935246831 0.205962495753713 0.165241800651649 C 0.0 **** 0.0
5 C32728 0.511813510757588 0.195304598115154 0.181540142109717 C 0.0 **** 0.0
6 O32729 0.496823551116296 0.185492554224464 0.183211132739752 O 0.0 **** 0.0
7 C32736 0.496801857724624 0.21931873116452 0.165741008981829 C 0.0 **** 0.0
8 C32737 0.492346674153007 0.226516019582752 0.147716645394717 C 0.0 **** 0.0
9 C32738 0.505681760679877 0.221616901908719 0.134534930575716 C 0.0 **** 0.0
10 C32739 0.508847604497839 0.202607419398494 0.13272638411959 C 0.0 **** 0.0
11 O32745 0.490594824383247 0.244383499832802 0.145698832338194 O 0.0 **** 0.0
12 C32746 0.485891444345448 0.254132689861674 0.160128114102509 C 0.0 **** 0.0
13 C32747 0.499308296253872 0.251360350281481 0.173812922859195 C 0.0 **** 0.0
14 C32748 0.499937378747852 0.232834704657799 0.179817931890454 C 0.0 **** 0.0
15 C32754 0.496583090004166 0.263633097054243 0.188229731177026 C 0.0 **** 0.0
16 C32755 0.478583911908017 0.26810252110321 0.192722470029761 C 0.0 **** 0.0
17 C32756 0.46526517567918 0.263323142886745 0.182282565925355 C 0.0 **** 0.0
18 C32757 0.468198570003962 0.251099837683433 0.167467985510581 C 0.0 **** 0.0
19 C32763 0.449134694415035 0.269358328783427 0.185895175864291 C 0.0 **** 0.0
20 C32764 0.446241977995224 0.278238247080438 0.200748855178389 C 0.0 **** 0.0
21 C32765 0.459481791735288 0.28210446537681 0.21157871174458 C 0.0 **** 0.0
22 C32766 0.475831985832478 0.277474512317466 0.207283954355762 C 0.0 **** 0.0
23 C32772 0.490324315052318 0.281916996584041 0.219019962556466 C 0.0 **** 0.0
24 C32773 0.506670526426018 0.285319834107071 0.20886275167937 C 0.0 **** 0.0
25 C32774 0.509547501746813 0.271887471820821 0.195614655429458 C 0.0 **** 0.0
26 O32779 0.456916053540064 0.290583262371753 0.226687593518904 O 0.0 **** 0.0
27 C32780 0.44105387292011 0.29658729956953 0.230682187587748 C 0.0 **** 0.0
28 C32781 0.426678054908467 0.293231817559169 0.221219834967284 C 0.0 **** 0.0
29 C32782 0.428499364973925 0.283008340216921 0.205336883290632 C 0.0 **** 0.0
30 C32788 0.453409822612615 0.251524124173107 0.15539363904396 C 0.0 **** 0.0
31 C32789 0.436852280662763 0.249221149529928 0.164853199520424 C 0.0 **** 0.0
32 C32790 0.434726222706325 0.266437312305055 0.173676438003927 C 0.0 **** 0.0
33 C32795 0.421590563072943 0.244009747936025 0.153710477659568 C 0.0 **** 0.0
34 C32796 0.422659387393168 0.247282067118772 0.136783352502793 C 0.0 **** 0.0
35 C32797 0.437937174711591 0.255196724705837 0.128220820081931 C 0.0 **** 0.0
36 C32798 0.453859194789838 0.254615258015384 0.138740433968927 C 0.0 **** 0.0
37 C32804 0.409126251366513 0.243112561581472 0.124168532720996 C 0.0 **** 0.0
38 C32805 0.393886036393116 0.233535769066938 0.131559080345409 C 0.0 **** 0.0
39 C32806 0.394727424215031 0.230800541507923 0.150315565052447 C 0.0 **** 0.0
40 C32807 0.407776912761199 0.235922782158927 0.160386286343068 C 0.0 **** 0.0
41 C32813 0.406279306784546 0.231681039782597 0.179391479934563 C 0.0 **** 0.0
42 C32814 0.396002335599648 0.215765628768056 0.182842224700539 C 0.0 **** 0.0
43 C32815 0.378361620737602 0.218375436569639 0.175184923160504 C 0.0 **** 0.0
44 C32816 0.379492163318321 0.220845658672352 0.15607442110263 C 0.0 **** 0.0
45 C32822 0.415119291736669 0.278487030517087 0.195575053009612 C 0.0 **** 0.0
46 C32823 0.417240001656195 0.270571638682877 0.180463246073125 C 0.0 **** 0.0
47 C32827 0.411076253442947 0.300745266464119 0.22594366993188 C 0.0 **** 0.0
48 C32828 0.395999043749807 0.298437097481152 0.216624310713032 C 0.0 **** 0.0
49 S32829 0.394420990884387 0.282048492750988 0.202235644674751 S 0.0 **** 0.0
50 C32834 0.382083267089406 0.308516319676167 0.218871628046872 C 0.0 **** 0.0
51 C32835 0.38239622581104 0.321401143884363 0.231233867054514 C 0.0 **** 0.0
52 C32836 0.397020072990821 0.323420425753585 0.241384380616144 C 0.0 **** 0.0
53 C32837 0.410658792538456 0.312363814177986 0.239429213333059 C 0.0 **** 0.0
54 C32843 0.397737768286449 0.336831699357444 0.252865750266741 C 0.0 **** 0.0
55 C32844 0.383834393526174 0.347555133313604 0.255294306187592 C 0.0 **** 0.0
56 C32845 0.368320804677376 0.34373517563929 0.247425944855687 C 0.0 **** 0.0
57 C32846 0.368305700287542 0.331803347270431 0.234246725843268 C 0.0 **** 0.0
58 C32852 0.353147242458432 0.350698815578187 0.253546821444436 C 0.0 **** 0.0
59 C32853 0.354001185704393 0.364088881497932 0.264697053590412 C 0.0 **** 0.0
60 C32854 0.369858122327782 0.369899998459459 0.270933362672074 C 0.0 **** 0.0
61 C32855 0.384528685456445 0.360744152819261 0.266882119025613 C 0.0 **** 0.0
62 C32861 0.424780096635502 0.314176572714577 0.249975249650119 C 0.0 **** 0.0
63 C32862 0.439942696652 0.306315159516818 0.245011953413202 C 0.0 **** 0.0
64 C32866 0.41191919736358 0.33862277153972 0.263136264301856 C 0.0 **** 0.0
65 C32867 0.424174987290825 0.325866641447256 0.263502493522585 C 0.0 **** 0.0
66 C32871 0.399507254892564 0.363465243535472 0.275853206022674 C 0.0 **** 0.0
67 C32872 0.413020863073433 0.352117449067558 0.274162982137557 C 0.0 **** 0.0
68 C32876 0.37097757435632 0.383447181178941 0.282947834241174 C 0.0 **** 0.0
69 C32877 0.386020771764016 0.385374942187849 0.292250007595705 C 0.0 **** 0.0
70 C32878 0.400260742213276 0.376022346136557 0.288190922098523 C 0.0 **** 0.0
71 O32883 0.339342203137666 0.37183968603061 0.270346475996391 O 0.0 **** 0.0
72 C32884 0.323744726290446 0.369479371519028 0.261676419322309 C 0.0 **** 0.0
73 C32885 0.321269058791185 0.350898434624602 0.257081555243232 C 0.0 **** 0.0
74 C32886 0.336275640462305 0.343788544039009 0.247394293014613 C 0.0 **** 0.0
75 C32892 0.304349936534625 0.347820252582161 0.247647478387297 C 0.0 **** 0.0
76 C32893 0.293415188671109 0.363806918991061 0.246963513809237 C 0.0 **** 0.0
77 C32894 0.302926483734266 0.378904806097066 0.239077646776354 C 0.0 **** 0.0
78 C32895 0.321119380396135 0.381631846929178 0.246635492634086 C 0.0 **** 0.0
79 C32901 0.324481181304828 0.400147145097844 0.251833336066795 C 0.0 **** 0.0
80 C32902 0.317788072497312 0.41287560978875 0.238734370988138 C 0.0 **** 0.0
81 C32903 0.300167816371666 0.408173719801035 0.231275182630339 C 0.0 **** 0.0
82 N32904 0.292211818964747 0.393783513366508 0.23942560141598 N 0.0 **** 0.0
83 C32910 0.435760094526445 0.324812377063259 0.277077063800071 C 0.0 **** 0.0
84 C32911 0.437823275505663 0.338753390967847 0.28746983304412 C 0.0 **** 0.0
85 C32912 0.426989458856696 0.352890961332699 0.285137914290419 C 0.0 **** 0.0
86 O32917 0.449763301566646 0.339293708195954 0.300309957615372 O 0.0 **** 0.0
87 C32918 0.461816566281551 0.32585030490293 0.299285036411674 C 0.0 **** 0.0
88 C32919 0.45325039633474 0.309395409415111 0.295416908535108 C 0.0 **** 0.0
89 O32920 0.445197254379783 0.310172541928118 0.279285566040906 O 0.0 **** 0.0
90 C32926 0.440831492240871 0.303958840256991 0.309570256852366 C 0.0 **** 0.0
91 C32927 0.445315336004605 0.311767199169125 0.326899844561222 C 0.0 **** 0.0
92 C32928 0.464507095222699 0.313070150329879 0.329133369564074 C 0.0 **** 0.0
93 C32929 0.472202749036434 0.325104684655457 0.315727753515302 C 0.0 **** 0.0
94 C32935 0.415110702958711 0.378033980885346 0.298066019791294 C 0.0 **** 0.0
95 C32936 0.428745739618026 0.366857858972085 0.295760193733628 C 0.0 **** 0.0
96 C32940 0.38604167750384 0.395702773888594 0.306691510280635 C 0.0 **** 0.0
97 C32941 0.400912785311578 0.397880986556083 0.316359312944635 C 0.0 **** 0.0
98 C32942 0.415302431565286 0.389542666725407 0.31168767738741 C 0.0 **** 0.0
99 C32947 0.371158887811996 0.403574642889707 0.312431645834093 C 0.0 **** 0.0
100 C32948 0.356539363083141 0.402609595297294 0.302954834535776 C 0.0 **** 0.0
101 C32949 0.357446809177178 0.394025672061827 0.287753899464712 C 0.0 **** 0.0
102 O32954 0.401525236116506 0.408517862430073 0.330092284978269 O 0.0 **** 0.0
103 C32955 0.386535133427451 0.412467578940978 0.337941113386741 C 0.0 **** 0.0
104 C32956 0.37151151977915 0.411766172601024 0.329445720872266 C 0.0 **** 0.0
105 C32961 0.339882855858732 0.410750487916469 0.308381822105485 C 0.0 **** 0.0
106 C32962 0.340285686144765 0.418819945780906 0.327039127348755 C 0.0 **** 0.0
107 C32963 0.35691856057958 0.417368078853044 0.336785274058387 C 0.0 **** 0.0
108 C32968 0.325013640573474 0.413175999815216 0.337985936660946 C 0.0 **** 0.0
109 C32969 0.308274239151763 0.415804180278809 0.328326235859452 C 0.0 **** 0.0
110 C32970 0.308227570910614 0.406899528236484 0.310880027404494 C 0.0 **** 0.0
111 C32971 0.325106422191536 0.398229664490516 0.306795924442427 C 0.0 **** 0.0
112 C32977 0.357253896789408 0.422157990601543 0.353374049326027 C 0.0 **** 0.0
113 C32978 0.372310001318023 0.422474198816296 0.362062450277037 C 0.0 **** 0.0
114 C32979 0.386942222092296 0.417668313874987 0.354353376242964 C 0.0 **** 0.0
115 C32984 0.32532346496917 0.422653592451709 0.354884817390168 C 0.0 **** 0.0
116 C32986 0.340859245870262 0.426760097605311 0.361979652149908 C 0.0 **** 0.0
117 C32989 0.39605664314974 0.211046532154737 0.201853925386759 C 0.0 **** 0.0
118 C32991 0.387851400514798 0.224366297762305 0.213307045896108 C 0.0 **** 0.0
119 C32993 0.387995609569633 0.193737096915284 0.205213935079747 C 0.0 **** 0.0
120 O32995 0.335624971059494 0.325949804439535 0.250128360564723 O 0.0 **** 0.0
121 C32997 0.401918145031031 0.4178945766135 0.363028256603943 C 0.0 **** 0.0
122 C32998 0.402324795807083 0.422780864741194 0.379508352818237 C 0.0 **** 0.0
123 C32999 0.387806713649777 0.427779230085661 0.387348526739698 C 0.0 **** 0.0
124 C33000 0.372911110001372 0.427732508067348 0.378504180728781 C 0.0 **** 0.0
125 C33006 0.357277860472434 0.433650923755729 0.386902791651319 C 0.0 **** 0.0
126 C33007 0.358249858445421 0.438891936971156 0.403328416848785 C 0.0 **** 0.0
127 C33008 0.374642012087024 0.438468028322216 0.412299846062496 C 0.0 **** 0.0
128 C33009 0.388733947071552 0.432788984383193 0.403998849259809 C 0.0 **** 0.0
129 C33015 0.37544076788037 0.44381032030863 0.428744982586036 C 0.0 **** 0.0
130 C33016 0.361333639200713 0.449557873891686 0.437051486637587 C 0.0 **** 0.0
131 C33017 0.345835972736237 0.449944348028132 0.42933972338767 C 0.0 **** 0.0
132 C33018 0.344095666060129 0.444363021282466 0.411576817473037 C 0.0 **** 0.0
133 C33024 0.328234869395288 0.444138713881572 0.403618861512431 C 0.0 **** 0.0
134 C33025 0.327077642488511 0.438061669937497 0.387082987558984 C 0.0 **** 0.0
135 C33026 0.341748542116039 0.433415207391366 0.378343539023225 C 0.0 **** 0.0
136 C33031 0.313599238265003 0.448416840821614 0.412549936569352 C 0.0 **** 0.0
137 C33032 0.316363220360295 0.454676942289082 0.430493627090094 C 0.0 **** 0.0
138 C33033 0.331912577694441 0.455238879968041 0.437969987641982 C 0.0 **** 0.0
139 C33038 0.310918371766149 0.426294878197464 0.364081975164418 C 0.0 **** 0.0
140 C33039 0.311179118932316 0.434354416770149 0.380139730304145 C 0.0 **** 0.0
141 C33044 0.297804852290001 0.445405436244697 0.405389090553071 C 0.0 **** 0.0
142 C33045 0.296373902976251 0.43784992925082 0.389555605132965 C 0.0 **** 0.0
143 C33049 0.279197057114091 0.432691762159311 0.382262378554138 C 0.0 **** 0.0
144 C33050 0.263953800724343 0.440819596543252 0.390994899226525 C 0.0 **** 0.0
145 C33051 0.266308329753866 0.44025453766043 0.410033930175235 C 0.0 **** 0.0
146 C33052 0.281996922361364 0.450092746910925 0.414705469945486 C 0.0 **** 0.0
147 O33058 0.280901306304496 0.461973432529675 0.424335144331865 O 0.0 **** 0.0
148 H33060 0.506721229297652 0.164148249731388 0.171251214267846 H 0.0 **** 0.0
149 H33062 0.484456407663357 0.165672249667891 0.172701976926994 H 0.0 **** 0.0
150 H33064 0.495517705369869 0.171215249451639 0.142889737080565 H 0.0 **** 0.0
151 H33066 0.483486399398402 0.1880161319514 0.151416914558833 H 0.0 **** 0.0
152 H33068 0.52192439279614 0.186028009799665 0.150105837623769 H 0.0 **** 0.0
153 H33070 0.523393378747294 0.212932874907244 0.16420752282562 H 0.0 **** 0.0
154 H33072 0.512405425866237 0.203274912207015 0.192909080871264 H 0.0 **** 0.0
155 H33074 0.523183340126396 0.187185341786065 0.181747725129755 H 0.0 **** 0.0
156 H33076 0.485489166857702 0.212254714679303 0.169899695279936 H 0.0 **** 0.0
157 H33078 0.480219604891962 0.220792111867523 0.14394227307135 H 0.0 **** 0.0
158 H33080 0.517541013681566 0.227952934337883 0.138188260530675 H 0.0 **** 0.0
159 H33082 0.501981400662457 0.227153665717885 0.122285282941946 H 0.0 **** 0.0
160 H33084 0.5204658026365 0.200637986398317 0.12530043987925 H 0.0 **** 0.0
161 H33086 0.498554425112659 0.196946318379654 0.125219814994233 H 0.0 **** 0.0
162 H33088 0.486686652277648 0.267232423068685 0.155510064536543 H 0.0 **** 0.0
163 H33090 0.511581957653879 0.254234403441292 0.167886513246085 H 0.0 **** 0.0
164 H33092 0.490498977609264 0.230776899084878 0.189864558481931 H 0.0 **** 0.0
165 H33094 0.512231386202942 0.230588418612147 0.185934748766309 H 0.0 **** 0.0
166 H33096 0.468062585357691 0.238113106600776 0.17271639760202 H 0.0 **** 0.0
167 H33098 0.487273881220949 0.293106222859326 0.22670224527547 H 0.0 **** 0.0
168 H33100 0.492444875412571 0.271423512060405 0.227967501702443 H 0.0 **** 0.0
169 H33102 0.517582374717707 0.285943557681187 0.217535127358381 H 0.0 **** 0.0
170 H33104 0.505827117070124 0.297755706105 0.20261807287791 H 0.0 **** 0.0
171 H33106 0.522615273120594 0.269920288983856 0.191778674232263 H 0.0 **** 0.0
172 H33108 0.439013701531416 0.23931133148146 0.174403730902948 H 0.0 **** 0.0
173 H33109 0.4350383732727 0.268386589426836 0.124728450449366 H 0.0 **** 0.0
174 H33111 0.440399748971828 0.248307809370548 0.116292615217788 H 0.0 **** 0.0
175 H33113 0.465792762321962 0.257003873451826 0.132270822087721 H 0.0 **** 0.0
176 H33115 0.404763410268477 0.254977113055918 0.118246094675858 H 0.0 **** 0.0
177 H33117 0.414719953437936 0.235439859607849 0.113925291443026 H 0.0 **** 0.0
178 H33119 0.392825480359153 0.22110720444969 0.125283889715318 H 0.0 **** 0.0
179 H33121 0.38216874037082 0.240499044982653 0.128528213717076 H 0.0 **** 0.0
180 H33123 0.418762663728823 0.230302959686662 0.185313285086066 H 0.0 **** 0.0
181 H33125 0.400092385499774 0.242370725396041 0.185816891790779 H 0.0 **** 0.0
182 H33127 0.401910646449208 0.20504953035232 0.17611656713913 H 0.0 **** 0.0
183 H33129 0.37250768019292 0.229589207028739 0.181046083173688 H 0.0 **** 0.0
184 H33131 0.370034627885485 0.207562732637706 0.177886988755141 H 0.0 **** 0.0
185 H33133 0.368019976196127 0.227127135478214 0.151260340100586 H 0.0 **** 0.0
186 H33135 0.380107562554934 0.208328905292514 0.149917879270545 H 0.0 **** 0.0
187 H33137 0.406354055721447 0.267379834858458 0.172663879636809 H 0.0 **** 0.0
188 H33139 0.370534531374481 0.306548334047335 0.211425356743299 H 0.0 **** 0.0
189 H33141 0.356856675026297 0.329430334059177 0.226736273066488 H 0.0 **** 0.0
190 H33143 0.451798674426669 0.308683700107211 0.251832769768336 H 0.0 **** 0.0
191 H33145 0.313888998559757 0.372895515758043 0.27091589293996 H 0.0 **** 0.0
192 H33147 0.321016877673801 0.343977162450647 0.269199726808893 H 0.0 **** 0.0
193 H33149 0.334979642939314 0.346579133837647 0.233754600949054 H 0.0 **** 0.0
194 H33151 0.30680854870522 0.343813067071155 0.234519988787557 H 0.0 **** 0.0
195 H33153 0.297306505754713 0.337339957102851 0.253517212060814 H 0.0 **** 0.0
196 H33155 0.289105632496888 0.367141216734447 0.259801599478885 H 0.0 **** 0.0
197 H33157 0.281842918601996 0.361394083355655 0.23957922282667 H 0.0 **** 0.0
198 H33159 0.304454435602863 0.375734599637205 0.225579922770052 H 0.0 **** 0.0
199 H33161 0.330459178751063 0.378333251869171 0.236822721485594 H 0.0 **** 0.0
200 H33163 0.318014825479979 0.402589871149052 0.263954239800511 H 0.0 **** 0.0
201 H33165 0.338072720641417 0.402243168807129 0.254066671411275 H 0.0 **** 0.0
202 H33167 0.327022721752888 0.413929463482796 0.22836464216838 H 0.0 **** 0.0
203 H33169 0.317416778442763 0.425560746841298 0.24450564897105 H 0.0 **** 0.0
204 H33171 0.301521526500407 0.404861905367769 0.217848478330124 H 0.0 **** 0.0
205 H33173 0.29157059459781 0.419129277026182 0.231515664720672 H 0.0 **** 0.0
206 H33175 0.288896035037186 0.396591225023229 0.251321151173394 H 0.0 **** 0.0
207 H33177 0.470251727406313 0.328690092559202 0.288633181081144 H 0.0 **** 0.0
208 H33179 0.463268990342672 0.299741125529806 0.294450029383195 H 0.0 **** 0.0
209 H33181 0.427961290017976 0.307717733379826 0.305873308964275 H 0.0 **** 0.0
210 H33183 0.440551399334484 0.2900655175657 0.310581031289965 H 0.0 **** 0.0
211 H33185 0.439359567139828 0.304559653587489 0.337208910340299 H 0.0 **** 0.0
212 H33187 0.440037190000911 0.324639449799782 0.327692330947225 H 0.0 **** 0.0
213 H33189 0.470049615171159 0.300345374106185 0.327770178457435 H 0.0 **** 0.0
214 H33191 0.467809698688065 0.317418397137182 0.34195562498448 H 0.0 **** 0.0
215 H33193 0.485361422976286 0.321387231967506 0.313145837676217 H 0.0 **** 0.0
216 H33195 0.472747455247904 0.338052498241562 0.320809496939757 H 0.0 **** 0.0
217 H33197 0.439645750164127 0.367709594495376 0.304316509099491 H 0.0 **** 0.0
218 H33199 0.42679959926002 0.390898547681456 0.319388162796432 H 0.0 **** 0.0
219 H33201 0.346033854675469 0.39494473860561 0.280064995711128 H 0.0 **** 0.0
220 H33203 0.337160307460527 0.421272256796121 0.299634375201782 H 0.0 **** 0.0
221 H33205 0.338479097979288 0.432517269497715 0.324961548821893 H 0.0 **** 0.0
222 H33207 0.326302662196074 0.399532125319032 0.340770043800065 H 0.0 **** 0.0
223 H33209 0.30615822422019 0.429465289168969 0.326574330259983 H 0.0 **** 0.0
224 H33211 0.297489694918129 0.411000316958083 0.335682678987787 H 0.0 **** 0.0
225 H33213 0.30549987333444 0.416183436525998 0.300844991010704 H 0.0 **** 0.0
226 H33215 0.297898736070429 0.397565936221157 0.310327019472018 H 0.0 **** 0.0
227 H33217 0.324238126819089 0.392833417667639 0.294001430933875 H 0.0 **** 0.0
228 H33219 0.32713782985484 0.38751965813697 0.31546521317987 H 0.0 **** 0.0
229 H33221 0.409469284765632 0.210000852537986 0.205707114025355 H 0.0 **** 0.0
230 H33223 0.388329606374947 0.220311143914653 0.226623390848183 H 0.0 **** 0.0
231 H33225 0.37450006593469 0.226320851190849 0.209930044712222 H 0.0 **** 0.0
232 H33227 0.394275534786233 0.236680774733345 0.212540383549367 H 0.0 **** 0.0
233 H33229 0.394120641729333 0.183763226052054 0.197696643860007 H 0.0 **** 0.0
234 H33231 0.37442617969129 0.19376952508803 0.202157012967429 H 0.0 **** 0.0
235 H33233 0.389273121843155 0.190218537148454 0.218630915561475 H 0.0 **** 0.0
236 H33235 0.34675111257751 0.321696262405923 0.248559860647971 H 0.0 **** 0.0
237 H33237 0.413754977067036 0.414010266493626 0.357099205566791 H 0.0 **** 0.0
238 H33239 0.414425272768505 0.422679168624799 0.386138456510926 H 0.0 **** 0.0
239 H33241 0.400845988153436 0.43236910622125 0.410564475511938 H 0.0 **** 0.0
240 H33243 0.387382077664277 0.443572278518921 0.435639365502369 H 0.0 **** 0.0
241 H33245 0.362697334869174 0.453639484010933 0.450164678909787 H 0.0 **** 0.0
242 H33247 0.305582005872128 0.458701532393711 0.438001656130523 H 0.0 **** 0.0
243 H33249 0.332906494450874 0.459729035045665 0.45095003831039 H 0.0 **** 0.0
244 H33251 0.298731227729199 0.422562525101489 0.358676487002438 H 0.0 **** 0.0
245 H33253 0.278520848065422 0.435572238303792 0.368660695302463 H 0.0 **** 0.0
246 H33255 0.277990215781585 0.418808053990135 0.383380439432424 H 0.0 **** 0.0
247 H33257 0.252279216687686 0.434247313277518 0.387263174775424 H 0.0 **** 0.0
248 H33259 0.262532245311583 0.454030332824375 0.386831016108614 H 0.0 **** 0.0
249 H33261 0.266666044352631 0.426998980679292 0.414293309666159 H 0.0 **** 0.0
250 H33263 0.256709659012665 0.447143990482584 0.417248745892481 H 0.0 **** 0.0
@<TRIPOS>BOND
1 3 2 1
2 4 3 1
3 5 4 1
4 6 5 1
5 1 2 1
6 1 6 1
7 8 7 1
8 9 8 1
9 10 9 1
10 4 7 1
11 3 10 1
12 12 11 1
13 13 12 1
14 14 13 1
15 8 11 1
16 7 14 1
17 16 15 1
18 17 16 Partial double
19 18 17 1
20 13 15 1
21 12 18 1
22 20 19 Partial double
23 21 20 Partial double
24 22 21 Partial double
25 17 19 Partial double
26 16 22 Partial double
27 24 23 1
28 25 24 1
29 15 25 Double
30 22 23 1
31 27 26 1
32 28 27 Partial double
33 29 28 Partial double
34 21 26 1
35 20 29 Partial double
36 31 30 1
37 32 31 1
38 18 30 1
39 19 32 1
40 34 33 Double
41 35 34 1
42 36 35 1
43 31 33 1
44 30 36 Double
45 38 37 1
46 39 38 1
47 40 39 Double
48 34 37 1
49 33 40 1
50 42 41 1
51 43 42 1
52 44 43 1
53 40 41 1
54 39 44 1
55 46 45 Partial double
56 32 46 1
57 29 45 Partial double
58 48 47 Partial double
59 49 48 1
60 45 49 Partial double
61 28 47 Partial double
62 51 50 Partial double
63 52 51 Partial double
64 53 52 Partial double
65 48 50 Partial double
66 47 53 Partial double
67 55 54 Partial double
68 56 55 Partial double
69 57 56 Partial double
70 52 54 Partial double
71 51 57 Partial double
72 59 58 Partial double
73 60 59 Partial double
74 61 60 Partial double
75 56 58 Partial double
76 55 61 Partial double
77 63 62 Partial double
78 27 63 Partial double
79 53 62 Partial double
80 65 64 Partial double
81 62 65 Partial double
82 54 64 Partial double
83 67 66 Partial double
84 64 67 Partial double
85 61 66 Partial double
86 69 68 Partial double
87 70 69 Partial double
88 66 70 Partial double
89 60 68 Partial double
90 72 71 1
91 73 72 1
92 74 73 1
93 59 71 1
94 58 74 1
95 76 75 1
96 77 76 1
97 78 77 1
98 73 75 1
99 72 78 1
100 80 79 1
101 81 80 1
102 82 81 1
103 78 79 1
104 77 82 1
105 84 83 Partial double
106 85 84 Partial double
107 67 85 Partial double
108 65 83 Partial double
109 87 86 1
110 88 87 1
111 89 88 1
112 84 86 1
113 83 89 1
114 91 90 1
115 92 91 1
116 93 92 1
117 88 90 1
118 87 93 1
119 95 94 Partial double
120 85 95 Partial double
121 70 94 Partial double
122 97 96 Partial double
123 98 97 Partial double
124 94 98 Partial double
125 69 96 Partial double
126 100 99 Partial double
127 101 100 Partial double
128 68 101 Partial double
129 96 99 Partial double
130 103 102 1
131 104 103 Partial double
132 97 102 1
133 99 104 1
134 106 105 1
135 107 106 1
136 100 105 1
137 104 107 Partial double
138 109 108 1
139 110 109 1
140 111 110 1
141 106 108 1
142 105 111 1
143 113 112 1
144 114 113 1
145 103 114 Partial double
146 107 112 Partial double
147 108 115 1
148 112 116 Partial double
149 115 116 Partial double
150 42 117 1
151 117 118 1
152 117 119 1
153 74 120 1
154 122 121 1
155 123 122 Partial double
156 124 123 1
157 114 121 Partial double
158 113 124 Partial double
159 126 125 Partial double
160 127 126 1
161 128 127 Partial double
162 124 125 Partial double
163 123 128 Partial double
164 130 129 Partial double
165 131 130 1
166 132 131 1
167 127 129 Partial double
168 126 132 Partial double
169 134 133 Partial double
170 135 134 Partial double
171 125 135 Partial double
172 132 133 Partial double
173 137 136 Partial double
174 138 137 Partial double
175 131 138 Partial double
176 133 136 Partial double
177 140 139 Partial double
178 134 140 Partial double
179 116 135 Partial double
180 115 139 Partial double
181 142 141 Partial double
182 140 142 Partial double
183 136 141 Partial double
184 144 143 1
185 145 144 1
186 146 145 1
187 142 143 1
188 141 146 1
189 146 147 Double
190 1 148 1
191 1 149 1
192 2 150 1
193 2 151 1
194 3 152 1
195 4 153 1
196 5 154 1
197 5 155 1
198 7 156 1
199 8 157 1
200 9 158 1
201 9 159 1
202 10 160 1
203 10 161 1
204 12 162 1
205 13 163 1
206 14 164 1
207 14 165 1
208 18 166 1
209 23 167 1
210 23 168 1
211 24 169 1
212 24 170 1
213 25 171 1
214 35 173 1
215 35 174 1
216 36 175 1
217 37 176 1
218 37 177 1
219 38 178 1
220 38 179 1
221 41 180 1
222 41 181 1
223 42 182 1
224 43 183 1
225 43 184 1
226 44 185 1
227 44 186 1
228 46 187 1
229 50 188 1
230 57 189 1
231 63 190 1
232 72 191 1
233 73 192 1
234 74 193 1
235 75 194 1
236 75 195 1
237 76 196 1
238 76 197 1
239 77 198 1
240 78 199 1
241 79 200 1
242 79 201 1
243 80 202 1
244 80 203 1
245 81 204 1
246 81 205 1
247 82 206 1
248 87 207 1
249 88 208 1
250 90 209 1
251 90 210 1
252 91 211 1
253 91 212 1
254 92 213 1
255 92 214 1
256 93 215 1
257 93 216 1
258 95 217 1
259 98 218 1
260 101 219 1
261 105 220 1
262 106 221 1
263 108 222 1
264 109 223 1
265 109 224 1
266 110 225 1
267 110 226 1
268 111 227 1
269 111 228 1
270 117 229 1
271 118 230 1
272 118 231 1
273 118 232 1
274 119 233 1
275 119 234 1
276 119 235 1
277 120 236 1
278 121 237 1
279 122 238 1
280 128 239 1
281 129 240 1
282 130 241 1
283 137 242 1
284 138 243 1
285 139 244 1
286 143 245 1
287 143 246 1
288 144 247 1
289 144 248 1
290 145 249 1
291 145 250 1
292 31 172 1
@<TRIPOS>MOLECULE
Sketch 4
250 292
SMALL
USER_CHARGES


@<TRIPOS>ATOM
1 C33266 0.458226313859245 0.505681396310138 0.972257121330823 C 0.0 **** 0.0
2 C33267 0.456138459206811 0.51116895293545 0.953554223936098 C 0.0 **** 0.0
3 C33268 0.457130110496197 0.495969360239496 0.941428790511247 C 0.0 **** 0.0
4 C33269 0.473876449531978 0.485820661758462 0.944297554433712 C 0.0 **** 0.0
5 C33270 0.479603238990621 0.487771823457257 0.962962345145153 C 0.0 **** 0.0
6 O33271 0.465516048320465 0.489318042082929 0.973981195483863 O 0.0 **** 0.0
7 C33278 0.487623483650447 0.491156352762411 0.93142524248617 C 0.0 **** 0.0
8 C33279 0.481887047972907 0.488157626654201 0.912724355079232 C 0.0 **** 0.0
9 C33280 0.462554157718318 0.488483775621335 0.910950938416792 C 0.0 **** 0.0
10 C33281 0.454766774560699 0.501467284438256 0.922881207037616 C 0.0 **** 0.0
11 O33287 0.487203748716974 0.472516383722641 0.905418731597517 O 0.0 **** 0.0
12 C33288 0.504822134877752 0.468722782121651 0.907100968357094 C 0.0 **** 0.0
13 C33289 0.50878645766244 0.46697495831274 0.926062142622361 C 0.0 **** 0.0
14 C33290 0.505375503213573 0.483805435674092 0.935076183905769 C 0.0 **** 0.0
15 C33296 0.526873535830529 0.461422466994991 0.928439502231014 C 0.0 **** 0.0
16 C33297 0.539599138677891 0.471668427660041 0.918844727510394 C 0.0 **** 0.0
17 C33298 0.534350896170373 0.48179548551101 0.905592108822567 C 0.0 **** 0.0
18 C33299 0.516398806521313 0.482090386778443 0.898913423306787 C 0.0 **** 0.0
19 C33305 0.545850795173851 0.492475638895094 0.897768257196675 C 0.0 **** 0.0
20 C33306 0.562545798594154 0.492226670291139 0.902844806264834 C 0.0 **** 0.0
21 C33307 0.568004237400144 0.481239308202104 0.915429001893345 C 0.0 **** 0.0
22 C33308 0.556415430771844 0.470954332151558 0.923668059906537 C 0.0 **** 0.0
23 C33314 0.56203609693025 0.459920998425445 0.938296864274796 C 0.0 **** 0.0
24 C33315 0.550355029277743 0.444335778447599 0.940533446642333 C 0.0 **** 0.0
25 C33316 0.531848224174147 0.448667067158248 0.938553784490975 C 0.0 **** 0.0
26 O33321 0.584851266477916 0.480449982032748 0.920104232238777 O 0.0 **** 0.0
27 C33322 0.594730390641306 0.494294676134884 0.916531175202856 C 0.0 **** 0.0
28 C33323 0.591008827086357 0.505756576693551 0.903752605888253 C 0.0 **** 0.0
29 C33324 0.574589271334141 0.50414045346217 0.894586905919429 C 0.0 **** 0.0
30 C33330 0.519044002471269 0.481904936351602 0.880064118336031 C 0.0 **** 0.0
31 C33331 0.523624555066309 0.499684195825203 0.874545987945682 C 0.0 **** 0.0
32 C33332 0.540266915245392 0.504578811272855 0.883954790194665 C 0.0 **** 0.0
33 C33337 0.523622041398036 0.502179776060767 0.855149148454887 C 0.0 **** 0.0
34 C33338 0.526680996899174 0.488254828697878 0.845401021862694 C 0.0 **** 0.0
35 C33339 0.528944964531021 0.470536388769788 0.85249700874633 C 0.0 **** 0.0
36 C33340 0.521658327411442 0.468421193975001 0.870112130045278 C 0.0 **** 0.0
37 C33346 0.528751095262337 0.489050113030876 0.826515928498952 C 0.0 **** 0.0
38 C33347 0.520657047840244 0.504846247486504 0.818625681680019 C 0.0 **** 0.0
39 C33348 0.518577603189902 0.519234111755677 0.83084797843382 C 0.0 **** 0.0
40 C33349 0.519999267270772 0.517529148600212 0.847981515013718 C 0.0 **** 0.0
41 C33355 0.516418554049885 0.533548737990667 0.858498071013274 C 0.0 **** 0.0
42 C33356 0.502575791098694 0.544255850138251 0.850346558666041 C 0.0 **** 0.0
43 C33357 0.509470053798824 0.550203795497841 0.833151603174912 C 0.0 **** 0.0
44 C33358 0.512730208148686 0.534967677047208 0.821678705286256 C 0.0 **** 0.0
45 C33364 0.570428217405106 0.513510180317786 0.880792584826233 C 0.0 **** 0.0
46 C33365 0.554400954697542 0.513537036127131 0.874416658906443 C 0.0 **** 0.0
47 C33369 0.602294446560083 0.519127670962843 0.90034324262053 C 0.0 **** 0.0
48 C33370 0.600679168483336 0.530022496856598 0.886256801691138 C 0.0 **** 0.0
49 S33371 0.58575739893388 0.525779610710847 0.870681660789976 S 0.0 **** 0.0
50 C33376 0.611781837772183 0.543063763540191 0.883550756164409 C 0.0 **** 0.0
51 C33377 0.62477232217605 0.546320740809203 0.89544514826625 C 0.0 **** 0.0
52 C33378 0.625588835545966 0.536616652667153 0.910424048703548 C 0.0 **** 0.0
53 C33379 0.61552029327271 0.522294404316027 0.91193171450516 C 0.0 **** 0.0
54 C33385 0.635232444776452 0.542383283566762 0.924116245236673 C 0.0 **** 0.0
55 C33386 0.645112255039211 0.556985760395228 0.922535767556438 C 0.0 **** 0.0
56 C33387 0.647425740703361 0.564443458097932 0.906463996153333 C 0.0 **** 0.0
57 C33388 0.636599389206801 0.559327873053058 0.893204794483761 C 0.0 **** 0.0
58 C33394 0.657693507949852 0.578693956864047 0.904925705753616 C 0.0 **** 0.0
59 C33395 0.660755378696038 0.588389736719075 0.919205439285686 C 0.0 **** 0.0
60 C33396 0.658434039166208 0.581516937550874 0.935553852897686 C 0.0 **** 0.0
61 C33397 0.650851155700197 0.565454399353162 0.936909588316717 C 0.0 **** 0.0
62 C33403 0.617028165430703 0.512376269699911 0.926543648815486 C 0.0 **** 0.0
63 C33404 0.60879207584761 0.496806311645519 0.926564496796615 C 0.0 **** 0.0
64 C33408 0.633034623753304 0.534859969696721 0.939933902885682 C 0.0 **** 0.0
65 C33409 0.622890052628131 0.520420511337218 0.941534438402357 C 0.0 **** 0.0
66 C33413 0.647208895415467 0.558666361227992 0.952803027104818 C 0.0 **** 0.0
67 C33414 0.638614556035115 0.543245411167851 0.954222946617674 C 0.0 **** 0.0
68 C33418 0.663531937282206 0.590219006634065 0.950526380801926 C 0.0 **** 0.0
69 C33419 0.658484584966825 0.583681818347087 0.966283943243323 C 0.0 **** 0.0
70 C33420 0.650838029815914 0.567943228075178 0.967333311002571 C 0.0 **** 0.0
71 O33425 0.6667445834615 0.604757804717219 0.916719256395306 O 0.0 **** 0.0
72 C33426 0.657624118262499 0.614167789104515 0.903984733730973 C 0.0 **** 0.0
73 C33427 0.653204113309185 0.603353064697252 0.887933583217332 C 0.0 **** 0.0
74 C33428 0.663395907429819 0.58698748495911 0.888629412533669 C 0.0 **** 0.0
75 C33434 0.655075217577409 0.61324128737762 0.87121687175887 C 0.0 **** 0.0
76 C33435 0.647937191552514 0.631012711903777 0.873691497078743 C 0.0 **** 0.0
77 C33436 0.659679806451899 0.64124815611463 0.885298827657343 C 0.0 **** 0.0
78 C33437 0.668022897411786 0.630091591127987 0.899317086713542 C 0.0 **** 0.0
79 C33443 0.673259094570484 0.640694380456218 0.914854347990596 C 0.0 **** 0.0
80 C33444 0.6777668312466 0.658642360957713 0.909105346516623 C 0.0 **** 0.0
81 C33445 0.662476867024118 0.667756553133328 0.900946884401429 C 0.0 **** 0.0
82 N33446 0.651192316454679 0.656263365682493 0.891569096609949 N 0.0 **** 0.0
83 C33452 0.61583508395223 0.515909203510678 0.957460020418266 C 0.0 **** 0.0
84 C33453 0.621648336165828 0.523871559802624 0.971858693265432 C 0.0 **** 0.0
85 C33454 0.633545037049183 0.53713491615813 0.970172506894895 C 0.0 **** 0.0
86 O33459 0.615890958032494 0.519701786557569 0.9879269768975 O 0.0 **** 0.0
87 C33460 0.607768995837581 0.503553858963268 0.988388845589955 C 0.0 **** 0.0
88 C33461 0.595103361173823 0.50235821812076 0.974376221731399 C 0.0 **** 0.0
89 O33462 0.603252912308943 0.503704082087331 0.958334080831203 O 0.0 **** 0.0
90 C33468 0.580642453603939 0.515395724874865 0.976250850305865 C 0.0 **** 0.0
91 C33469 0.575919492324992 0.519032011447956 0.994874313804047 C 0.0 **** 0.0
92 C33470 0.580503094458821 0.50408629786064 1.00632589485072 C 0.0 **** 0.0
93 C33471 0.599762502609409 0.500692301991451 1.00596409408421 C 0.0 **** 0.0
94 C33477 0.646890193520657 0.561272861282101 0.983516446950503 C 0.0 **** 0.0
95 C33478 0.638726449515671 0.545589073402953 0.984757276857453 C 0.0 **** 0.0
96 C33482 0.662918567387085 0.59222833690324 0.981161315858025 C 0.0 **** 0.0
97 C33483 0.657832694344305 0.58620021626779 0.997182416255883 C 0.0 **** 0.0
98 C33484 0.650294843691655 0.570714135773387 0.998238842410366 C 0.0 **** 0.0
99 C33489 0.674154239773012 0.605969425284873 0.980782516181892 C 0.0 **** 0.0
100 C33490 0.679883633452147 0.612170317079199 0.965542220248979 C 0.0 **** 0.0
101 C33491 0.674523510654277 0.60435288747177 0.950914601336604 C 0.0 **** 0.0
102 O33496 0.660700171998653 0.595261714948613 1.01176737982886 O 0.0 **** 0.0
103 C33497 0.674392643356081 0.605954679047685 1.01197050333733 C 0.0 **** 0.0
104 C33498 0.680895475594716 0.612289678999787 0.99728432065015 C 0.0 **** 0.0
105 C33503 0.691834606984619 0.627112935165931 0.964494899889691 C 0.0 **** 0.0
106 C33504 0.702006894642281 0.630439448112151 0.981462166291989 C 0.0 **** 0.0
107 C33505 0.694023977066339 0.623462917602197 0.997599425693537 C 0.0 **** 0.0
108 C33510 0.705072975666058 0.649567481492085 0.984075222977932 C 0.0 **** 0.0
109 C33511 0.709826083416955 0.658594398124009 0.967568743417701 C 0.0 **** 0.0
110 C33512 0.694977256451069 0.657458751166285 0.954787212074793 C 0.0 **** 0.0
111 C33513 0.682395268541919 0.643160716254935 0.959126941332183 C 0.0 **** 0.0
112 C33519 0.700309764294133 0.628701883532604 1.01282398789546 C 0.0 **** 0.0
113 C33520 0.694094328347835 0.622002030064476 1.02755579892852 C 0.0 **** 0.0
114 C33521 0.681171973243477 0.610610079908481 1.02713542037803 C 0.0 **** 0.0
115 C33526 0.717244028554385 0.651707039378414 0.998870218695881 C 0.0 **** 0.0
116 C33528 0.714126939307855 0.641855203033557 1.01305737523572 C 0.0 **** 0.0
117 C33531 0.495941774438973 0.558380084498231 0.862134558024607 C 0.0 **** 0.0
118 C33533 0.509238659330126 0.571589133765934 0.867068650472506 C 0.0 **** 0.0
119 C33535 0.480329291053145 0.567213314687533 0.854784188843486 C 0.0 **** 0.0
120 O33537 0.661232893620447 0.576931102076966 0.873836153219001 O 0.0 **** 0.0
121 C33539 0.674923426486497 0.604037604821193 1.04185598215623 C 0.0 **** 0.0
122 C33540 0.681187676502868 0.609209629232205 1.05701527487132 C 0.0 **** 0.0
123 C33541 0.693847062049813 0.620904302961602 1.05759669524445 C 0.0 **** 0.0
124 C33542 0.700586918293265 0.626885085928222 1.04279956856156 C 0.0 **** 0.0
125 C33548 0.714747675166987 0.639181480967921 1.0434150619191 C 0.0 **** 0.0
126 C33549 0.719294320535261 0.645545890069319 1.0588075602531 C 0.0 **** 0.0
127 C33550 0.711139124771748 0.638992005644655 1.07434557984128 C 0.0 **** 0.0
128 C33551 0.699132988869831 0.626572453801843 1.07318979651607 C 0.0 **** 0.0
129 C33557 0.715360209591698 0.645796239126629 1.08966828653316 C 0.0 **** 0.0
130 C33558 0.726367701406165 0.659140291409293 1.09078460322413 C 0.0 **** 0.0
131 C33559 0.733759882344782 0.665984325887557 1.07670352956656 C 0.0 **** 0.0
132 C33560 0.730776973217334 0.658421323790765 1.05985652737496 C 0.0 **** 0.0
133 C33566 0.73840492241399 0.665215943549353 1.04531984682575 C 0.0 **** 0.0
134 C33567 0.734316874121555 0.658230438821398 1.02953938817513 C 0.0 **** 0.0
135 C33568 0.721916336863396 0.645593999863212 1.02851250657837 C 0.0 **** 0.0
136 C33573 0.748159092002812 0.680020056244645 1.04631028619959 C 0.0 **** 0.0
137 C33574 0.750532607433486 0.687136132332593 1.06400913653171 C 0.0 **** 0.0
138 C33575 0.743465461168723 0.68011061261399 1.07808145022738 C 0.0 **** 0.0
139 C33580 0.73005620509274 0.663452288301478 0.999686082908037 C 0.0 **** 0.0
140 C33581 0.739367124041611 0.666691311385471 1.0147856063373 C 0.0 **** 0.0
141 C33586 0.754430552214653 0.687441593854424 1.03158863154991 C 0.0 **** 0.0
142 C33587 0.750792625706534 0.680321500355486 1.01587492747911 C 0.0 **** 0.0
143 C33591 0.757207328836341 0.688217407371881 0.999476879283922 C 0.0 **** 0.0
144 C33592 0.774830934090284 0.695702720643933 1.00197646339682 C 0.0 **** 0.0
145 C33593 0.773779147979398 0.708542404755002 1.01604841096514 C 0.0 **** 0.0
146 C33594 0.764728396329775 0.703389355243591 1.03194763879589 C 0.0 **** 0.0
147 O33600 0.765897558258414 0.712960108110356 1.04386229018589 O 0.0 **** 0.0
148 H33602 0.445843510560845 0.504838033270209 0.978472744743792 H 0.0 **** 0.0
149 H33604 0.46566240844713 0.515129983254996 0.979352298392981 H 0.0 **** 0.0
150 H33606 0.4441858373693 0.51808511592554 0.95166496347184 H 0.0 **** 0.0
151 H33608 0.466237054039028 0.520121426861937 0.950015535506294 H 0.0 **** 0.0
152 H33610 0.446632356365638 0.487398145960849 0.944789324777772 H 0.0 **** 0.0
153 H33612 0.471027531383995 0.472329937682073 0.942037809766309 H 0.0 **** 0.0
154 H33614 0.488144810845881 0.498734538863285 0.964389828587614 H 0.0 **** 0.0
155 H33616 0.486702770233873 0.476583426584946 0.967167628858216 H 0.0 **** 0.0
156 H33618 0.488685237012115 0.505011871552986 0.93302600708385 H 0.0 **** 0.0
157 H33620 0.486827577938808 0.498797524284568 0.905147695297021 H 0.0 **** 0.0
158 H33622 0.457687073590411 0.475793287438943 0.914042594940896 H 0.0 **** 0.0
159 H33624 0.459039602254686 0.490889554644541 0.897685117458839 H 0.0 **** 0.0
160 H33626 0.441298723161588 0.503547655879129 0.92013116879242 H 0.0 **** 0.0
161 H33628 0.461108152733933 0.513714358646237 0.920765035055483 H 0.0 **** 0.0
162 H33630 0.506279971430329 0.456321148507463 0.900973441137137 H 0.0 **** 0.0
163 H33632 0.500321351227927 0.457279167441763 0.931357652823166 H 0.0 **** 0.0
164 H33634 0.514711773998774 0.493204274988871 0.930755655402172 H 0.0 **** 0.0
165 H33636 0.507703784408284 0.482583562993058 0.948743637264135 H 0.0 **** 0.0
166 H33638 0.511130576427447 0.494535179872346 0.902308050466528 H 0.0 **** 0.0
167 H33640 0.575128668147021 0.45555324027631 0.936476031333506 H 0.0 **** 0.0
168 H33642 0.561963036572446 0.467466326167835 0.950032472459716 H 0.0 **** 0.0
169 H33644 0.552583639335446 0.438739585669658 0.953113130036652 H 0.0 **** 0.0
170 H33646 0.553680739319401 0.4346528920564 0.931119969505258 H 0.0 **** 0.0
171 H33648 0.522985614821485 0.440729944475565 0.945502180037277 H 0.0 **** 0.0
172 H33650 0.513388829174664 0.507637753977627 0.879670533003236 H 0.0 **** 0.0
173 H33651 0.542529611945272 0.467453272150534 0.852632038512376 H 0.0 **** 0.0
174 H33653 0.522863336213856 0.46133411985016 0.843925174349546 H 0.0 **** 0.0
175 H33655 0.520243465931764 0.45562268534942 0.875006948007406 H 0.0 **** 0.0
176 H33657 0.542390054239694 0.488773937332339 0.823653773374972 H 0.0 **** 0.0
177 H33659 0.523272992144737 0.477729171360868 0.820489842904966 H 0.0 **** 0.0
178 H33661 0.508025075195252 0.50154368593533 0.813706414798345 H 0.0 **** 0.0
179 H33663 0.52818699010332 0.508961568174007 0.807624092814782 H 0.0 **** 0.0
180 H33665 0.51274221163511 0.53056795782638 0.87154196594698 H 0.0 **** 0.0
181 H33667 0.528140625746895 0.541022412141238 0.859502935604257 H 0.0 **** 0.0
182 H33669 0.49159870750199 0.535932526842608 0.847854281432652 H 0.0 **** 0.0
183 H33671 0.521314311965658 0.55726070910812 0.83520203905159 H 0.0 **** 0.0
184 H33673 0.500739738341934 0.558931282214816 0.826694985497452 H 0.0 **** 0.0
185 H33675 0.521928934000851 0.538191769197604 0.811689425208253 H 0.0 **** 0.0
186 H33677 0.500801712387862 0.531707736934399 0.815168363327757 H 0.0 **** 0.0
187 H33679 0.551243113815602 0.520551030588615 0.863012230993978 H 0.0 **** 0.0
188 H33681 0.610986822482846 0.550906213680425 0.872134675069777 H 0.0 **** 0.0
189 H33683 0.635944285989 0.56653432478156 0.881371033380194 H 0.0 **** 0.0
190 H33685 0.610577326610471 0.48769987469155 0.936900431218466 H 0.0 **** 0.0
191 H33687 0.645737688177021 0.618406646158278 0.909889202830109 H 0.0 **** 0.0
192 H33689 0.639707104915401 0.599768963019533 0.888471314998217 H 0.0 **** 0.0
193 H33691 0.676957478610832 0.590351843351301 0.889525146483203 H 0.0 **** 0.0
194 H33693 0.668448181191027 0.614004365591707 0.867334597811993 H 0.0 **** 0.0
195 H33695 0.648412712657932 0.606420150045002 0.861042630838068 H 0.0 **** 0.0
196 H33697 0.63530726591112 0.629944118423631 0.879507354846404 H 0.0 **** 0.0
197 H33699 0.646079891297012 0.637789402227702 0.861656807221426 H 0.0 **** 0.0
198 H33701 0.670133439405788 0.645876300125971 0.877272355744722 H 0.0 **** 0.0
199 H33703 0.679725816024686 0.62502714515257 0.893675202473575 H 0.0 **** 0.0
200 H33705 0.662607002633555 0.641393631160929 0.923812212426604 H 0.0 **** 0.0
201 H33707 0.683875331718384 0.634650519264806 0.921527457929092 H 0.0 **** 0.0
202 H33709 0.688087258153674 0.657668935811838 0.899760370851609 H 0.0 **** 0.0
203 H33711 0.682768043460022 0.666441185735521 0.91948731493315 H 0.0 **** 0.0
204 H33713 0.666950766637307 0.677644533686601 0.892194638493815 H 0.0 **** 0.0
205 H33715 0.655062291864288 0.674337689922057 0.91073059325944 H 0.0 **** 0.0
206 H33717 0.641090068487399 0.653008382126183 0.898446283904909 H 0.0 **** 0.0
207 H33719 0.617532075828263 0.49391385468494 0.986032858313105 H 0.0 **** 0.0
208 H33721 0.589489319133552 0.489600382331088 0.974952185376905 H 0.0 **** 0.0
209 H33723 0.584463191847907 0.527209373887339 0.96996306585601 H 0.0 **** 0.0
210 H33725 0.56950665773413 0.510762594531681 0.969284221821469 H 0.0 **** 0.0
211 H33727 0.562412774582499 0.522257997233217 0.995946440183415 H 0.0 **** 0.0
212 H33729 0.582947301220168 0.530192536834012 0.999376648202209 H 0.0 **** 0.0
213 H33731 0.573651933149866 0.492755521118425 1.00193614470861 H 0.0 **** 0.0
214 H33733 0.576316901241094 0.50634234862533 1.01943198868512 H 0.0 **** 0.0
215 H33735 0.602268811187994 0.48786984065222 1.01080851918054 H 0.0 **** 0.0
216 H33737 0.60606248954965 0.50941405875015 1.01480111058667 H 0.0 **** 0.0
217 H33739 0.634995868440134 0.540875018543037 0.9972669304253 H 0.0 **** 0.0
218 H33741 0.647116618025234 0.565506325592922 1.01067047140523 H 0.0 **** 0.0
219 H33743 0.680091614266151 0.6094563303258 0.939313351096512 H 0.0 **** 0.0
220 H33745 0.701274339242161 0.624425046607188 0.95463937841068 H 0.0 **** 0.0
221 H33747 0.714379399303198 0.624172264083282 0.979966031541509 H 0.0 **** 0.0
222 H33749 0.692997637656063 0.655346288087508 0.988209850756585 H 0.0 **** 0.0
223 H33751 0.721233300305737 0.652672715804944 0.962246515059377 H 0.0 **** 0.0
224 H33753 0.712897586562856 0.671981054588951 0.969811318711384 H 0.0 **** 0.0
225 H33755 0.699987911145232 0.655405781661643 0.941958800093005 H 0.0 **** 0.0
226 H33757 0.688165333023292 0.669601061274979 0.954342749930166 H 0.0 **** 0.0
227 H33759 0.674040136149008 0.640746202548669 0.94829559875722 H 0.0 **** 0.0
228 H33761 0.674018604558712 0.64717873795339 0.969527747586808 H 0.0 **** 0.0
229 H33763 0.491796193687222 0.552080872886227 0.873924997892531 H 0.0 **** 0.0
230 H33765 0.503818368736225 0.580859283456565 0.875940832963181 H 0.0 **** 0.0
231 H33767 0.513768958285958 0.57855222992039 0.855907090439669 H 0.0 **** 0.0
232 H33769 0.520270847417209 0.565841119311797 0.873296485491981 H 0.0 **** 0.0
233 H33771 0.47049081414565 0.558058321486316 0.851191067176456 H 0.0 **** 0.0
234 H33773 0.483582484490495 0.574616327904125 0.843465396550217 H 0.0 **** 0.0
235 H33775 0.474735333275447 0.575921959439619 0.864083070176578 H 0.0 **** 0.0
236 H33777 0.668358616631959 0.567289267119879 0.875134568536079 H 0.0 **** 0.0
237 H33779 0.664742148284943 0.594743164267133 1.04179568706872 H 0.0 **** 0.0
238 H33781 0.675730041505763 0.60400272864936 1.0685520145951 H 0.0 **** 0.0
239 H33783 0.693192928220972 0.621683259427036 1.08466644539863 H 0.0 **** 0.0
240 H33785 0.709571094349701 0.641123550934177 1.10128464625263 H 0.0 **** 0.0
241 H33787 0.728828509141793 0.664531427226299 1.10325294943473 H 0.0 **** 0.0
242 H33789 0.75807130469013 0.698428367569346 1.06589637424893 H 0.0 **** 0.0
243 H33791 0.745559318268321 0.686134294908627 1.09030923181367 H 0.0 **** 0.0
244 H33793 0.732461585009012 0.671082363413441 0.988374178788413 H 0.0 **** 0.0
245 H33795 0.757796636458763 0.678725564351797 0.989315789123543 H 0.0 **** 0.0
246 H33797 0.748404894622345 0.698184696851652 0.995228272521648 H 0.0 **** 0.0
247 H33799 0.779515927060604 0.701751426762068 0.990345815531327 H 0.0 **** 0.0
248 H33801 0.783788052983696 0.685508896173409 1.00516653256389 H 0.0 **** 0.0
249 H33803 0.766793384610425 0.719932617484063 1.01209319546365 H 0.0 **** 0.0
250 H33805 0.785904150338414 0.713024549769722 1.02107303945564 H 0.0 **** 0.0
@<TRIPOS>BOND
1 3 2 1
2 4 3 1
3 5 4 1
4 6 5 1
5 1 2 1
6 1 6 1
7 8 7 1
8 9 8 1
9 10 9 1
10 4 7 1
11 3 10 1
12 12 11 1
13 13 12 1
14 14 13 1
15 8 11 1
16 7 14 1
17 16 15 1
18 17 16 Partial double
19 18 17 1
20 13 15 1
21 12 18 1
22 20 19 Partial double
23 21 20 Partial double
24 22 21 Partial double
25 17 19 Partial double
26 16 22 Partial double
27 24 23 1
28 25 24 1
29 15 25 Double
30 22 23 1
31 27 26 1
32 28 27 Partial double
33 29 28 Partial double
34 21 26 1
35 20 29 Partial double
36 31 30 1
37 32 31 1
38 18 30 1
39 19 32 1
40 34 33 Double
41 35 34 1
42 36 35 1
43 31 33 1
44 30 36 Double
45 38 37 1
46 39 38 1
47 40 39 Double
48 34 37 1
49 33 40 1
50 42 41 1
51 43 42 1
52 44 43 1
53 40 41 1
54 39 44 1
55 46 45 Partial double
56 32 46 1
57 29 45 Partial double
58 48 47 Partial double
59 49 48 1
60 45 49 Partial double
61 28 47 Partial double
62 51 50 Partial double
63 52 51 Partial double
64 53 52 Partial double
65 48 50 Partial double
66 47 53 Partial double
67 55 54 Partial double
68 56 55 Partial double
69 57 56 Partial double
70 52 54 Partial double
71 51 57 Partial double
72 59 58 Partial double
73 60 59 Partial double
74 61 60 Partial double
75 56 58 Partial double
76 55 61 Partial double
77 63 62 Partial double
78 27 63 Partial double
79 53 62 Partial double
80 65 64 Partial double
81 62 65 Partial double
82 54 64 Partial double
83 67 66 Partial double
84 64 67 Partial double
85 61 66 Partial double
86 69 68 Partial double
87 70 69 Partial double
88 66 70 Partial double
89 60 68 Partial double
90 72 71 1
91 73 72 1
92 74 73 1
93 59 71 1
94 58 74 1
95 76 75 1
96 77 76 1
97 78 77 1
98 73 75 1
99 72 78 1
100 80 79 1
101 81 80 1
102 82 81 1
103 78 79 1
104 77 82 1
105 84 83 Partial double
106 85 84 Partial double
107 67 85 Partial double
108 65 83 Partial double
109 87 86 1
110 88 87 1
111 89 88 1
112 84 86 1
113 83 89 1
114 91 90 1
115 92 91 1
116 93 92 1
117 88 90 1
118 87 93 1
119 95 94 Partial double
120 85 95 Partial double
121 70 94 Partial double
122 97 96 Partial double
123 98 97 Partial double
124 94 98 Partial double
125 69 96 Partial double
126 100 99 Partial double
127 101 100 Partial double
128 68 101 Partial double
129 96 99 Partial double
130 103 102 1
131 104 103 Partial double
132 97 102 1
133 99 104 1
134 106 105 1
135 107 106 1
136 100 105 1
137 104 107 Partial double
138 109 108 1
139 110 109 1
140 111 110 1
141 106 108 1
142 105 111 1
143 113 112 1
144 114 113 1
145 103 114 Partial double
146 107 112 Partial double
147 108 115 1
148 112 116 Partial double
149 115 116 Partial double
150 42 117 1
151 117 118 1
152 117 119 1
153 74 120 1
154 122 121 1
155 123 122 Partial double
156 124 123 1
157 114 121 Partial double
158 113 124 Partial double
159 126 125 Partial double
160 127 126 1
161 128 127 Partial double
162 124 125 Partial double
163 123 128 Partial double
164 130 129 Partial double
165 131 130 1
166 132 131 1
167 127 129 Partial double
168 126 132 Partial double
169 134 133 Partial double
170 135 134 Partial double
171 125 135 Partial double
172 132 133 Partial double
173 137 136 Partial double
174 138 137 Partial double
175 131 138 Partial double
176 133 136 Partial double
177 140 139 Partial double
178 134 140 Partial double
179 116 135 Partial double
180 115 139 Partial double
181 142 141 Partial double
182 140 142 Partial double
183 136 141 Partial double
184 144 143 1
185 145 144 1
186 146 145 1
187 142 143 1
188 141 146 1
189 146 147 Double
190 1 148 1
191 1 149 1
192 2 150 1
193 2 151 1
194 3 152 1
195 4 153 1
196 5 154 1
197 5 155 1
198 7 156 1
199 8 157 1
200 9 158 1
201 9 159 1
202 10 160 1
203 10 161 1
204 12 162 1
205 13 163 1
206 14 164 1
207 14 165 1
208 18 166 1
209 23 167 1
210 23 168 1
211 24 169 1
212 24 170 1
213 25 171 1
214 35 173 1
215 35 174 1
216 36 175 1
217 37 176 1
218 37 177 1
219 38 178 1
220 38 179 1
221 41 180 1
222 41 181 1
223 42 182 1
224 43 183 1
225 43 184 1
226 44 185 1
227 44 186 1
228 46 187 1
229 50 188 1
230 57 189 1
231 63 190 1
232 72 191 1
233 73 192 1
234 74 193 1
235 75 194 1
236 75 195 1
237 76 196 1
238 76 197 1
239 77 198 1
240 78 199 1
241 79 200 1
242 79 201 1
243 80 202 1
244 80 203 1
245 81 204 1
246 81 205 1
247 82 206 1
248 87 207 1
249 88 208 1
250 90 209 1
251 90 210 1
252 91 211 1
253 91 212 1
254 92 213 1
255 92 214 1
256 93 215 1
257 93 216 1
258 95 217 1
259 98 218 1
260 101 219 1
261 105 220 1
262 106 221 1
263 108 222 1
264 109 223 1
265 109 224 1
266 110 225 1
267 110 226 1
268 111 227 1
269 111 228 1
270 117 229 1
271 118 230 1
272 118 231 1
273 118 232 1
274 119 233 1
275 119 234 1
276 119 235 1
277 120 236 1
278 121 237 1
279 122 238 1
280 128 239 1
281 129 240 1
282 130 241 1
283 137 242 1
284 138 243 1
285 139 244 1
286 143 245 1
287 143 246 1
288 144 247 1
289 144 248 1
290 145 249 1
291 145 250 1
292 31 172 1
@<TRIPOS>MOLECULE
Sketch 4
250 292
SMALL
USER_CHARGES


@<TRIPOS>ATOM
1 C33808 0.864681927492931 0.514999202728403 0.688540023171496 C 0.0 **** 0.0
2 C33809 0.867946248855231 0.526591468776862 0.673060103917924 C 0.0 **** 0.0
3 C33810 0.852044711765116 0.527809155392362 0.661686113926144 C 0.0 **** 0.0
4 C33811 0.8433260244657 0.510268814998917 0.660560938862154 C 0.0 **** 0.0
5 C33812 0.839397840558825 0.503613299553568 0.678690738284315 C 0.0 **** 0.0
6 O33813 0.847088169887576 0.513421933427103 0.691696672290195 O 0.0 **** 0.0
7 C33820 0.854199630733673 0.497432068335989 0.650373686565897 C 0.0 **** 0.0
8 C33821 0.862787552809811 0.505747579511848 0.634493337341679 C 0.0 **** 0.0
9 C33822 0.85431968077344 0.522473871988832 0.629829013663191 C 0.0 **** 0.0
10 C33823 0.85591448283377 0.535538135990999 0.644104427410506 C 0.0 **** 0.0
11 O33829 0.863142248419937 0.495398566539149 0.619687837754524 O 0.0 **** 0.0
12 C33830 0.867647664408793 0.478270204301486 0.623387254196814 C 0.0 **** 0.0
13 C33831 0.852466518937271 0.469767773203755 0.632132447017386 C 0.0 **** 0.0
14 C33832 0.84404612074182 0.481342955215691 0.645882231814959 C 0.0 **** 0.0
15 C33838 0.856430400451467 0.451818440861757 0.63770492944955 C 0.0 **** 0.0
16 C33839 0.874406116107988 0.447264973391263 0.642333163188056 C 0.0 **** 0.0
17 C33840 0.887481479260001 0.458627473884591 0.639604155690537 C 0.0 **** 0.0
18 C33841 0.884130197084737 0.476597378677616 0.633427010660853 C 0.0 **** 0.0
19 C33847 0.903965162929801 0.453891661543475 0.643549725972254 C 0.0 **** 0.0
20 C33848 0.907115710759236 0.438178847256936 0.65061820576212 C 0.0 **** 0.0
21 C33849 0.894065326061032 0.426702085001853 0.652968627969674 C 0.0 **** 0.0
22 C33850 0.87758477562693 0.43130888874759 0.648950724449767 C 0.0 **** 0.0
23 C33856 0.863251553344425 0.41914662592207 0.652822249428982 C 0.0 **** 0.0
24 C33857 0.848261554412386 0.421341170595818 0.640442486244327 C 0.0 **** 0.0
25 C33858 0.844489565435888 0.439671015594072 0.636774116538646 C 0.0 **** 0.0
26 O33863 0.896971620751457 0.410604356092651 0.659259805895353 O 0.0 **** 0.0
27 C33864 0.912945411816301 0.406120496092615 0.66468346280014 C 0.0 **** 0.0
28 C33865 0.926951574434198 0.416667250799691 0.663637065550923 C 0.0 **** 0.0
29 C33866 0.924799827654942 0.433927992539482 0.655964530737633 C 0.0 **** 0.0
30 C33872 0.8997100915072 0.483057988494338 0.624672043399947 C 0.0 **** 0.0
31 C33873 0.914000892006548 0.483979314092558 0.637311504490149 C 0.0 **** 0.0
32 C33874 0.918803337809366 0.46524461955203 0.639363219092026 C 0.0 **** 0.0
33 C33879 0.928849338114319 0.495241198637365 0.631448322315175 C 0.0 **** 0.0
34 C33880 0.93164060346227 0.496236346258834 0.614426747317571 C 0.0 **** 0.0
35 C33881 0.919604046554407 0.489294073286219 0.601138948019196 C 0.0 **** 0.0
36 C33882 0.902235852007788 0.48520065813129 0.608037892525718 C 0.0 **** 0.0
37 C33888 0.94554477035354 0.506484391704744 0.606664750141205 C 0.0 **** 0.0
38 C33889 0.959203938477003 0.511825385940057 0.619378719542155 C 0.0 **** 0.0
39 C33890 0.952531207488306 0.512993148620717 0.637159205933507 C 0.0 **** 0.0
40 C33891 0.938396923516413 0.504594211998387 0.642468172036812 C 0.0 **** 0.0
41 C33897 0.933835831698464 0.50667304675264 0.661275816958537 C 0.0 **** 0.0
42 C33898 0.938622686608904 0.524337080220206 0.667515401545371 C 0.0 **** 0.0
43 C33899 0.957997777824686 0.525663381152144 0.666459446729642 C 0.0 **** 0.0
44 C33900 0.963944449088543 0.523708802378526 0.648117978732248 C 0.0 **** 0.0
45 C33906 0.937614351927346 0.445375543143137 0.654797135868222 C 0.0 **** 0.0
46 C33907 0.935295440532074 0.461070722341032 0.648148384355614 C 0.0 **** 0.0
47 C33911 0.942170472547202 0.411806999179185 0.671939220040201 C 0.0 **** 0.0
48 C33912 0.955648260329985 0.423226053001052 0.674366601163657 C 0.0 **** 0.0
49 S33913 0.958094044692167 0.440262666658869 0.660954803674245 S 0.0 **** 0.0
50 C33918 0.966450257571023 0.421992211670943 0.68788875340093 C 0.0 **** 0.0
51 C33919 0.965001009730365 0.408114644982833 0.698999012797748 C 0.0 **** 0.0
52 C33920 0.953617909612206 0.394880380325898 0.695001958156363 C 0.0 **** 0.0
53 C33921 0.94256100349837 0.396644364186251 0.681242923919576 C 0.0 **** 0.0
54 C33927 0.952269356029902 0.38116478213271 0.706012204490046 C 0.0 **** 0.0
55 C33928 0.961300506909671 0.380844758910484 0.721249490488819 C 0.0 **** 0.0
56 C33929 0.971108331513334 0.394864374940292 0.726392378086406 C 0.0 **** 0.0
57 C33930 0.973658763432705 0.407797539629637 0.714481275658288 C 0.0 **** 0.0
58 C33936 0.977940189740631 0.395856235852315 0.742834834717147 C 0.0 **** 0.0
59 C33937 0.977794331161316 0.381416007484842 0.752684588669666 C 0.0 **** 0.0
60 C33938 0.969385134950161 0.366564697092116 0.746965668134131 C 0.0 **** 0.0
61 C33939 0.960013929287748 0.367051068746697 0.731970349181278 C 0.0 **** 0.0
62 C33945 0.929748221409966 0.384630266894318 0.679089245234155 C 0.0 **** 0.0
63 C33946 0.914598115046214 0.390179463464867 0.671414226715817 C 0.0 **** 0.0
64 C33950 0.941121770328022 0.368057080003563 0.702173967869327 C 0.0 **** 0.0
65 C33951 0.930901966469794 0.369001297348005 0.687730966411302 C 0.0 **** 0.0
66 C33955 0.948602700321194 0.354113191886828 0.728212678329872 C 0.0 **** 0.0
67 C33956 0.93943216495391 0.354550889939038 0.713150009614102 C 0.0 **** 0.0
68 C33960 0.968831075093011 0.351598128436922 0.756983998253853 C 0.0 **** 0.0
69 C33961 0.955745927350421 0.339882118887494 0.754184801065702 C 0.0 **** 0.0
70 C33962 0.945947326446016 0.341039167074937 0.739720166203395 C 0.0 **** 0.0
71 O33967 0.985409033497828 0.380883706869257 0.768497457966507 O 0.0 **** 0.0
72 C33968 0.99428001165108 0.394861221878031 0.775566014245987 C 0.0 **** 0.0
73 C33969 0.988257338956387 0.411879801738329 0.768485639733387 C 0.0 **** 0.0
74 C33970 0.986634660294001 0.411890054582668 0.74925754361769 C 0.0 **** 0.0
75 C33976 0.999745528068512 0.42665763617446 0.774492854648746 C 0.0 **** 0.0
76 C33977 1.00993869978848 0.421937035763768 0.790269770989068 C 0.0 **** 0.0
77 C33978 1.02185108232453 0.40685836467259 0.786780779175635 C 0.0 **** 0.0
78 C33979 1.01380005511582 0.393496896526687 0.774524993231755 C 0.0 **** 0.0
79 C33985 1.02095064230149 0.375530882311015 0.777345766426295 C 0.0 **** 0.0
80 C33986 1.03928657478076 0.376985592026696 0.783352061217115 C 0.0 **** 0.0
81 C33987 1.04077257458102 0.386620930227358 0.800352108996915 C 0.0 **** 0.0
82 N33988 1.02776075880885 0.399738772894504 0.802669408850184 N 0.0 **** 0.0
83 C33994 0.921050394265219 0.354960935652159 0.682638642984518 C 0.0 **** 0.0
84 C33995 0.919739032378632 0.341092941724429 0.693280289260966 C 0.0 **** 0.0
85 C33996 0.928117110659778 0.341457863949129 0.709084432642168 C 0.0 **** 0.0
86 O34001 0.910014518937952 0.327054849259171 0.689270401361586 O 0.0 **** 0.0
87 C34002 0.907438949323563 0.325732490238227 0.671439337986326 C 0.0 **** 0.0
88 C34003 0.900734536891062 0.3421773398177 0.664802878042231 C 0.0 **** 0.0
89 O34004 0.912632033125115 0.35554680596173 0.667230412991414 O 0.0 **** 0.0
90 C34010 0.88333204965969 0.346770899334472 0.672553667864657 C 0.0 **** 0.0
91 C34011 0.872935278344451 0.33116610163913 0.67805115663556 C 0.0 **** 0.0
92 C34012 0.876689255814438 0.31595432161673 0.666637441639375 C 0.0 **** 0.0
93 C34013 0.895536440679154 0.310747901647052 0.66771160918488 C 0.0 **** 0.0
94 C34019 0.933780843906943 0.32830985076693 0.73638378457772 C 0.0 **** 0.0
95 C34020 0.925136568888474 0.328541475173723 0.720847221677368 C 0.0 **** 0.0
96 C34024 0.95359275720351 0.326291878054828 0.765344942757818 C 0.0 **** 0.0
97 C34025 0.940394790063927 0.314493305749783 0.762910576596891 C 0.0 **** 0.0
98 C34026 0.930877119006457 0.315430411439768 0.748442999269054 C 0.0 **** 0.0
99 C34031 0.965262551378657 0.323324276162407 0.778432400313986 C 0.0 **** 0.0
100 C34032 0.979016532530928 0.333897610191801 0.780472767749025 C 0.0 **** 0.0
101 C34033 0.98077511072796 0.347348999807937 0.769554231786199 C 0.0 **** 0.0
102 O34038 0.936978010101248 0.301912449818486 0.774516871391638 O 0.0 **** 0.0
103 C34039 0.949128741522663 0.297818980179682 0.786364897507289 C 0.0 **** 0.0
104 C34040 0.962947962475707 0.30785987799092 0.789074268465566 C 0.0 **** 0.0
105 C34045 0.992347309451018 0.331420161529666 0.794014612573823 C 0.0 **** 0.0
106 C34046 0.991169156225047 0.313592144484745 0.803323035655922 C 0.0 **** 0.0
107 C34047 0.974802758426049 0.30356161061114 0.800895139263788 C 0.0 **** 0.0
108 C34052 0.994961576552218 0.315412252354701 0.82238722838057 C 0.0 **** 0.0
109 C34053 1.01033364256023 0.326939225013897 0.825538216233021 C 0.0 **** 0.0
110 C34054 1.00715957626517 0.345068820076016 0.81872410628712 C 0.0 **** 0.0
111 C34055 0.991769396339707 0.345984153026236 0.806838135587751 C 0.0 **** 0.0
112 C34061 0.972256331440478 0.289584191703623 0.810751685782079 C 0.0 **** 0.0
113 C34062 0.958657588991109 0.279233819701699 0.807747792131811 C 0.0 **** 0.0
114 C34063 0.947136539626271 0.283337591126475 0.795581080892321 C 0.0 **** 0.0
115 C34068 0.996147976818335 0.297768337319332 0.830183572361549 C 0.0 **** 0.0
116 C34070 0.984735823838759 0.285645933009345 0.824668745487382 C 0.0 **** 0.0
117 C34073 0.930738995114697 0.528717839373243 0.684875074170381 C 0.0 **** 0.0
118 C34075 0.936338319602463 0.517181375010013 0.69939150897638 C 0.0 **** 0.0
119 C34077 0.933771743423488 0.547242480492825 0.689736241764188 C 0.0 **** 0.0
120 O34079 0.977219336661338 0.426614226840647 0.74486144544864 O 0.0 **** 0.0
121 C34081 0.933601255008975 0.272958955299681 0.792643260486099 C 0.0 **** 0.0
122 C34082 0.931581685771301 0.258490155961889 0.801731848254703 C 0.0 **** 0.0
123 C34083 0.942968376677292 0.254306597286291 0.813994833136371 C 0.0 **** 0.0
124 C34084 0.956549054891075 0.264683606207422 0.816853597798188 C 0.0 **** 0.0
125 C34090 0.969072293789164 0.259977432847447 0.83001072520365 C 0.0 **** 0.0
126 C34091 0.965957232439076 0.246014278026233 0.839671572556248 C 0.0 **** 0.0
127 C34092 0.950948809166366 0.235403851326197 0.836087589260214 C 0.0 **** 0.0
128 C34093 0.940235651793526 0.239769486686498 0.823205319747817 C 0.0 **** 0.0
129 C34099 0.947809688150503 0.221511523314081 0.845903998675409 C 0.0 **** 0.0
130 C34100 0.957906817109766 0.217682997332495 0.859463055313264 C 0.0 **** 0.0
131 C34101 0.971569791855089 0.227476483864672 0.863606149524488 C 0.0 **** 0.0
132 C34102 0.976377506368103 0.24203907276004 0.852884178444873 C 0.0 **** 0.0
133 C34108 0.990401420798474 0.252174957717751 0.856961243547421 C 0.0 **** 0.0
134 C34109 0.993998084866703 0.266118376985401 0.846693034820858 C 0.0 **** 0.0
135 C34110 0.983161012482464 0.270237787422882 0.833255513643569 C 0.0 **** 0.0
136 C34115 0.99937089099189 0.24960711543465 0.872062452089812 C 0.0 **** 0.0
137 C34116 0.993744085174551 0.234312905871819 0.88233164483669 C 0.0 **** 0.0
138 C34117 0.980563744671021 0.224124553505744 0.877860987786576 C 0.0 **** 0.0
139 C34122 1.00690253466863 0.293551132842627 0.843227698686583 C 0.0 **** 0.0
140 C34123 1.00635492787774 0.277747245453545 0.851816787604544 C 0.0 **** 0.0
141 C34128 1.01194241802888 0.261021804921226 0.876966619292539 C 0.0 **** 0.0
142 C34129 1.01587526172922 0.274762944003335 0.866644821934793 C 0.0 **** 0.0
143 C34133 1.02922980106553 0.287887873872658 0.87155346751729 C 0.0 **** 0.0
144 C34134 1.04305446765598 0.280708623057594 0.882898407659515 C 0.0 **** 0.0
145 C34135 1.03508142593992 0.271575180930885 0.897582650595693 C 0.0 **** 0.0
146 C34136 1.02125517643426 0.259150397789215 0.893465253752419 C 0.0 **** 0.0
147 O34142 1.01831039158629 0.248576699861764 0.90415624092212 O 0.0 **** 0.0
148 H34144 0.870373528315407 0.520274937855527 0.700071316050782 H 0.0 **** 0.0
149 H34146 0.870518578041423 0.502455146341653 0.686699405560288 H 0.0 **** 0.0
150 H34148 0.871645507272328 0.53943563547061 0.677039909076126 H 0.0 **** 0.0
151 H34150 0.878727395344462 0.521745240660308 0.665675811481741 H 0.0 **** 0.0
152 H34152 0.843154186652983 0.536336219426407 0.668270770723315 H 0.0 **** 0.0
153 H34154 0.8313358865286 0.511985199211087 0.653582648039995 H 0.0 **** 0.0
154 H34156 0.843084922069497 0.490229148042241 0.680090745095483 H 0.0 **** 0.0
155 H34158 0.825751059783696 0.504126565005705 0.681198971712264 H 0.0 **** 0.0
156 H34160 0.864310188335001 0.493327945840223 0.659061811780836 H 0.0 **** 0.0
157 H34162 0.875956705098845 0.508987291258646 0.637892621222813 H 0.0 **** 0.0
158 H34164 0.840933058843353 0.520016097979301 0.626850895368988 H 0.0 **** 0.0
159 H34166 0.860122242805126 0.527309703453311 0.618142796586452 H 0.0 **** 0.0
160 H34168 0.847547055777175 0.546371315509878 0.641622202122056 H 0.0 **** 0.0
161 H34170 0.868840160043607 0.540771233447237 0.644002026341009 H 0.0 **** 0.0
162 H34172 0.869237636828047 0.472207008107346 0.610963482130976 H 0.0 **** 0.0
163 H34174 0.8427967340995 0.468526378964275 0.622177278722955 H 0.0 **** 0.0
164 H34176 0.840905665110313 0.474235264667196 0.65743731647582 H 0.0 **** 0.0
165 H34178 0.831805728755075 0.48546476047563 0.640588665085909 H 0.0 **** 0.0
166 H34180 0.882891284011217 0.484257360099879 0.644998799978324 H 0.0 **** 0.0
167 H34182 0.867641334865471 0.405950227275009 0.652354764555483 H 0.0 **** 0.0
168 H34184 0.85882185908854 0.421335736426513 0.665875567622566 H 0.0 **** 0.0
169 H34186 0.836908665879523 0.415117533572401 0.645662106740941 H 0.0 **** 0.0
170 H34188 0.851161186762871 0.41483716016567 0.628471173985579 H 0.0 **** 0.0
171 H34190 0.831693576816272 0.442309650711905 0.63238198545663 H 0.0 **** 0.0
172 H34192 0.908848867166324 0.488611824317348 0.649351577403388 H 0.0 **** 0.0
173 H34193 0.925124467476049 0.477984765215641 0.59517531915765 H 0.0 **** 0.0
174 H34195 0.918160844546922 0.498882660843239 0.591047063574141 H 0.0 **** 0.0
175 H34197 0.892076956180176 0.483265354796287 0.598941935323088 H 0.0 **** 0.0
176 H34199 0.951392886602504 0.499164465202217 0.596365552662846 H 0.0 **** 0.0
177 H34201 0.939911530394557 0.517852440421852 0.600859085499896 H 0.0 **** 0.0
178 H34203 0.964589044286624 0.524073674621492 0.615360879468584 H 0.0 **** 0.0
179 H34205 0.969667649811223 0.502619616433995 0.619268990631434 H 0.0 **** 0.0
180 H34207 0.920249176633329 0.504846329444767 0.66346197441197 H 0.0 **** 0.0
181 H34209 0.940407239936004 0.496947607534372 0.668777810070688 H 0.0 **** 0.0
182 H34211 0.933257706328197 0.533643073200773 0.658532842634473 H 0.0 **** 0.0
183 H34213 0.963524291424007 0.515610703494989 0.674330937610895 H 0.0 **** 0.0
184 H34215 0.962808503548189 0.537706603822877 0.671539235827029 H 0.0 **** 0.0
185 H34217 0.976908294708373 0.518563223973819 0.64764652758696 H 0.0 **** 0.0
186 H34219 0.96454877745078 0.536358267690526 0.642255873323104 H 0.0 **** 0.0
187 H34221 0.945448310993209 0.470353457988584 0.647826014402592 H 0.0 **** 0.0
188 H34223 0.975884151428391 0.431803220615887 0.690547932959424 H 0.0 **** 0.0
189 H34225 0.981820554932584 0.418614930411336 0.717404873779676 H 0.0 **** 0.0
190 H34227 0.903234667155142 0.382212278780443 0.671500356824963 H 0.0 **** 0.0
191 H34229 0.991035199582115 0.394568424252753 0.7891473276586 H 0.0 **** 0.0
192 H34231 0.975344322938417 0.414001369682957 0.773375220820905 H 0.0 **** 0.0
193 H34233 0.999333617548846 0.412526037395477 0.743397970392712 H 0.0 **** 0.0
194 H34235 1.00886233452 0.429971256329613 0.764454543032776 H 0.0 **** 0.0
195 H34237 0.992145153468897 0.438107672174106 0.776770270324047 H 0.0 **** 0.0
196 H34239 1.00113252212242 0.418707189370946 0.800600546374879 H 0.0 **** 0.0
197 H34241 1.01739908019638 0.432795577449413 0.794854405238608 H 0.0 **** 0.0
198 H34243 1.03313707379847 0.412060574861435 0.780404327533138 H 0.0 **** 0.0
199 H34245 1.01744803085301 0.397232720996791 0.761575591628473 H 0.0 **** 0.0
200 H34247 1.01358539724577 0.368880233241693 0.787098728935882 H 0.0 **** 0.0
201 H34249 1.01995932435215 0.367992585776155 0.76567281925121 H 0.0 **** 0.0
202 H34251 1.04638095728845 0.383902687815277 0.773547979908857 H 0.0 **** 0.0
203 H34253 1.04544259148439 0.364552410273766 0.784463535299409 H 0.0 **** 0.0
204 H34255 1.05326446840959 0.392728424234419 0.80123732753874 H 0.0 **** 0.0
205 H34257 1.04007997625115 0.377694458522486 0.811022926549575 H 0.0 **** 0.0
206 H34259 1.01782513059542 0.395078034396113 0.809038035435357 H 0.0 **** 0.0
207 H34261 0.919843325525461 0.323381745372723 0.665536158534869 H 0.0 **** 0.0
208 H34263 0.899161555346517 0.340663773747229 0.651059965485404 H 0.0 **** 0.0
209 H34265 0.885468875003022 0.35507632843368 0.683514310818333 H 0.0 **** 0.0
210 H34267 0.876031980707365 0.354362390477046 0.663422966044837 H 0.0 **** 0.0
211 H34269 0.85933776772504 0.334208407655591 0.678096927299384 H 0.0 **** 0.0
212 H34271 0.876216509349916 0.327783285241218 0.691181402727585 H 0.0 **** 0.0
213 H34273 0.873581826997753 0.319473221639331 0.6535051186365 H 0.0 **** 0.0
214 H34275 0.868518117191733 0.305129903539897 0.669827474845652 H 0.0 **** 0.0
215 H34277 0.899178740174121 0.304136444119054 0.656007168274318 H 0.0 **** 0.0
216 H34279 0.897253416376076 0.301561325625551 0.67803244074521 H 0.0 **** 0.0
217 H34281 0.916049569447989 0.318450335045547 0.71794142940639 H 0.0 **** 0.0
218 H34283 0.921091463298892 0.305870834412537 0.745977877718872 H 0.0 **** 0.0
219 H34285 0.992214359670416 0.354971907545497 0.771191045251825 H 0.0 **** 0.0
220 H34287 1.00489412056696 0.331822959573761 0.787887169528684 H 0.0 **** 0.0
221 H34289 1.00132568214004 0.305769922671379 0.797778773921414 H 0.0 **** 0.0
222 H34291 0.983924475584975 0.321627960319661 0.828245897998293 H 0.0 **** 0.0
223 H34293 1.02144703719883 0.321369989345038 0.819253910664787 H 0.0 **** 0.0
224 H34295 1.01336067265561 0.327778922608895 0.839087078044306 H 0.0 **** 0.0
225 H34297 1.01843400640604 0.349546456033248 0.811875700757734 H 0.0 **** 0.0
226 H34299 1.00538340821258 0.353917470673651 0.829316068765607 H 0.0 **** 0.0
227 H34301 0.991448453009214 0.358424288732826 0.800575536153798 H 0.0 **** 0.0
228 H34303 0.979955571505757 0.345154874104154 0.814212923269752 H 0.0 **** 0.0
229 H34305 0.916909685224179 0.527127933445901 0.68344746975776 H 0.0 **** 0.0
230 H34307 0.929573862584513 0.520468655872135 0.711106042333768 H 0.0 **** 0.0
231 H34309 0.949946491918669 0.518574359458435 0.701851750600487 H 0.0 **** 0.0
232 H34311 0.933842005254638 0.503755286273236 0.696750514663303 H 0.0 **** 0.0
233 H34313 0.929633153257109 0.555919191547296 0.679668546522994 H 0.0 **** 0.0
234 H34315 0.947264037150111 0.549634526047533 0.692160322764583 H 0.0 **** 0.0
235 H34317 0.926754768830304 0.550561734546378 0.70129512263145 H 0.0 **** 0.0
236 H34319 0.983336678570153 0.435755798315608 0.749684528977108 H 0.0 **** 0.0
237 H34321 0.924195917956765 0.275968785899914 0.783004531144114 H 0.0 **** 0.0
238 H34323 0.920665821255876 0.2504983242825 0.799028077728187 H 0.0 **** 0.0
239 H34325 0.929260802700226 0.231841978648813 0.820493575937723 H 0.0 **** 0.0
240 H34327 0.936921054966398 0.213415819660656 0.843416810664082 H 0.0 **** 0.0
241 H34329 0.954555079072117 0.206758805773181 0.867205855370935 H 0.0 **** 0.0
242 H34331 1.00034360174822 0.230902758848383 0.893862560771021 H 0.0 **** 0.0
243 H34333 0.977360965389212 0.213496817932688 0.886056839806359 H 0.0 **** 0.0
244 H34335 1.0155384215153 0.303401089187374 0.847672171949006 H 0.0 **** 0.0
245 H34337 1.03539186269803 0.293074354580163 0.860198148558175 H 0.0 **** 0.0
246 H34339 1.0230579261311 0.298594927701355 0.878037326565758 H 0.0 **** 0.0
247 H34341 1.0512907661673 0.290861264900442 0.88762304546456 H 0.0 **** 0.0
248 H34343 1.05105999907235 0.272046633703369 0.875507127924042 H 0.0 **** 0.0
249 H34345 1.02917657082393 0.28054325830274 0.906461461218132 H 0.0 **** 0.0
250 H34347 1.04373727929547 0.26370565783687 0.905073273680385 H 0.0 **** 0.0
@<TRIPOS>BOND
1 3 2 1
2 4 3 1
3 5 4 1
4 6 5 1
5 1 2 1
6 1 6 1
7 8 7 1
8 9 8 1
9 10 9 1
10 4 7 1
11 3 10 1
12 12 11 1
13 13 12 1
14 14 13 1
15 8 11 1
16 7 14 1
17 16 15 1
18 17 16 Partial double
19 18 17 1
20 13 15 1
21 12 18 1
22 20 19 Partial double
23 21 20 Partial double
24 22 21 Partial double
25 17 19 Partial double
26 16 22 Partial double
27 24 23 1
28 25 24 1
29 15 25 Double
30 22 23 1
31 27 26 1
32 28 27 Partial double
33 29 28 Partial double
34 21 26 1
35 20 29 Partial double
36 31 30 1
37 32 31 1
38 18 30 1
39 19 32 1
40 34 33 Double
41 35 34 1
42 36 35 1
43 31 33 1
44 30 36 Double
45 38 37 1
46 39 38 1
47 40 39 Double
48 34 37 1
49 33 40 1
50 42 41 1
51 43 42 1
52 44 43 1
53 40 41 1
54 39 44 1
55 46 45 Partial double
56 32 46 1
57 29 45 Partial double
58 48 47 Partial double
59 49 48 1
60 45 49 Partial double
61 28 47 Partial double
62 51 50 Partial double
63 52 51 Partial double
64 53 52 Partial double
65 48 50 Partial double
66 47 53 Partial double
67 55 54 Partial double
68 56 55 Partial double
69 57 56 Partial double
70 52 54 Partial double
71 51 57 Partial double
72 59 58 Partial double
73 60 59 Partial double
74 61 60 Partial double
75 56 58 Partial double
76 55 61 Partial double
77 63 62 Partial double
78 27 63 Partial double
79 53 62 Partial double
80 65 64 Partial double
81 62 65 Partial double
82 54 64 Partial double
83 67 66 Partial double
84 64 67 Partial double
85 61 66 Partial double
86 69 68 Partial double
87 70 69 Partial double
88 66 70 Partial double
89 60 68 Partial double
90 72 71 1
91 73 72 1
92 74 73 1
93 59 71 1
94 58 74 1
95 76 75 1
96 77 76 1
97 78 77 1
98 73 75 1
99 72 78 1
100 80 79 1
101 81 80 1
102 82 81 1
103 78 79 1
104 77 82 1
105 84 83 Partial double
106 85 84 Partial double
107 67 85 Partial double
108 65 83 Partial double
109 87 86 1
110 88 87 1
111 89 88 1
112 84 86 1
113 83 89 1
114 91 90 1
115 92 91 1
116 93 92 1
117 88 90 1
118 87 93 1
119 95 94 Partial double
120 85 95 Partial double
121 70 94 Partial double
122 97 96 Partial double
123 98 97 Partial double
124 94 98 Partial double
125 69 96 Partial double
126 100 99 Partial double
127 101 100 Partial double
128 68 101 Partial double
129 96 99 Partial double
130 103 102 1
131 104 103 Partial double
132 97 102 1
133 99 104 1
134 106 105 1
135 107 106 1
136 100 105 1
137 104 107 Partial double
138 109 108 1
139 110 109 1
140 111 110 1
141 106 108 1
142 105 111 1
143 113 112 1
144 114 113 1
145 103 114 Partial double
146 107 112 Partial double
147 108 115 1
148 112 116 Partial double
149 115 116 Partial double
150 42 117 1
151 117 118 1
152 117 119 1
153 74 120 1
154 122 121 1
155 123 122 Partial double
156 124 123 1
157 114 121 Partial double
158 113 124 Partial double
159 126 125 Partial double
160 127 126 1
161 128 127 Partial double
162 124 125 Partial double
163 123 128 Partial double
164 130 129 Partial double
165 131 130 1
166 132 131 1
167 127 129 Partial double
168 126 132 Partial double
169 134 133 Partial double
170 135 134 Partial double
171 125 135 Partial double
172 132 133 Partial double
173 137 136 Partial double
174 138 137 Partial double
175 131 138 Partial double
176 133 136 Partial double
177 140 139 Partial double
178 134 140 Partial double
179 116 135 Partial double
180 115 139 Partial double
181 142 141 Partial double
182 140 142 Partial double
183 136 141 Partial double
184 144 143 1
185 145 144 1
186 146 145 1
187 142 143 1
188 141 146 1
189 146 147 Double
190 1 148 1
191 1 149 1
192 2 150 1
193 2 151 1
194 3 152 1
195 4 153 1
196 5 154 1
197 5 155 1
198 7 156 1
199 8 157 1
200 9 158 1
201 9 159 1
202 10 160 1
203 10 161 1
204 12 162 1
205 13 163 1
206 14 164 1
207 14 165 1
208 18 166 1
209 23 167 1
210 23 168 1
211 24 169 1
212 24 170 1
213 25 171 1
214 35 173 1
215 35 174 1
216 36 175 1
217 37 176 1
218 37 177 1
219 38 178 1
220 38 179 1
221 41 180 1
222 41 181 1
223 42 182 1
224 43 183 1
225 43 184 1
226 44 185 1
227 44 186 1
228 46 187 1
229 50 188 1
230 57 189 1
231 63 190 1
232 72 191 1
233 73 192 1
234 74 193 1
235 75 194 1
236 75 195 1
237 76 196 1
238 76 197 1
239 77 198 1
240 78 199 1
241 79 200 1
242 79 201 1
243 80 202 1
244 80 203 1
245 81 204 1
246 81 205 1
247 82 206 1
248 87 207 1
249 88 208 1
250 90 209 1
251 90 210 1
252 91 211 1
253 91 212 1
254 92 213 1
255 92 214 1
256 93 215 1
257 93 216 1
258 95 217 1
259 98 218 1
260 101 219 1
261 105 220 1
262 106 221 1
263 108 222 1
264 109 223 1
265 109 224 1
266 110 225 1
267 110 226 1
268 111 227 1
269 111 228 1
270 117 229 1
271 118 230 1
272 118 231 1
273 118 232 1
274 119 233 1
275 119 234 1
276 119 235 1
277 120 236 1
278 121 237 1
279 122 238 1
280 128 239 1
281 129 240 1
282 130 241 1
283 137 242 1
284 138 243 1
285 139 244 1
286 143 245 1
287 143 246 1
288 144 247 1
289 144 248 1
290 145 249 1
291 145 250 1
292 31 172 1
@<TRIPOS>MOLECULE
Sketch 4
250 292
SMALL
USER_CHARGES


@<TRIPOS>ATOM
1 C34350 0.345190263751533 0.733402752283964 0.445174714240529 C 0.0 **** 0.0
2 C34351 0.341878190312016 0.727938765807062 0.46382358633967 C 0.0 **** 0.0
3 C34352 0.335311758309178 0.743024294269272 0.474323314284835 C 0.0 **** 0.0
4 C34353 0.347809312140262 0.758160459703399 0.472799330378514 C 0.0 **** 0.0
5 C34354 0.353012342070306 0.760238606398091 0.453892072858628 C 0.0 **** 0.0
6 O34355 0.342359041660774 0.750976646444506 0.442754714604642 O 0.0 **** 0.0
7 C34362 0.363573900963696 0.757267194926006 0.484555736393054 C 0.0 **** 0.0
8 C34363 0.359487882269411 0.748784083637775 0.502053866436516 C 0.0 **** 0.0
9 C34364 0.340455162113896 0.749161003236772 0.505529964602545 C 0.0 **** 0.0
10 C34365 0.330737393864368 0.738362804503703 0.492766783474134 C 0.0 **** 0.0
11 O34371 0.367598172182756 0.755187743772799 0.516866194156104 O 0.0 **** 0.0
12 C34372 0.383093831347298 0.764024106626827 0.5141857513587 C 0.0 **** 0.0
13 C34373 0.37936354386539 0.779603902283029 0.503262599083574 C 0.0 **** 0.0
14 C34374 0.372693519745368 0.774786072854543 0.485459625516194 C 0.0 **** 0.0
15 C34380 0.394703643109684 0.791038958253135 0.50324166544361 C 0.0 **** 0.0
16 C34381 0.41169421656348 0.782498712590904 0.501933204687963 C 0.0 **** 0.0
17 C34382 0.412910189483561 0.765030091605017 0.503482372915774 C 0.0 **** 0.0
18 C34383 0.39741031558899 0.753771275512022 0.506213211535507 C 0.0 **** 0.0
19 C34389 0.428695448123248 0.757523294847909 0.501944648817692 C 0.0 **** 0.0
20 C34390 0.442683110658015 0.767384630493814 0.498268187524616 C 0.0 **** 0.0
21 C34391 0.441605577563771 0.784857257815184 0.497500528710274 C 0.0 **** 0.0
22 C34392 0.425937351859477 0.79252089199293 0.499541469392414 C 0.0 **** 0.0
23 C34398 0.424518756060544 0.811578615134724 0.497973660904384 C 0.0 **** 0.0
24 C34399 0.409165908267944 0.818753843209681 0.507773871465762 C 0.0 **** 0.0
25 C34400 0.393610094396976 0.807856488611862 0.505841588133099 C 0.0 **** 0.0
26 O34405 0.455780485426972 0.794808995626057 0.494526574237483 O 0.0 **** 0.0
27 C34406 0.471529898838381 0.787297817704842 0.493165833942546 C 0.0 **** 0.0
28 C34407 0.473792656111342 0.769974057418668 0.491715097299075 C 0.0 **** 0.0
29 C34408 0.458812798910621 0.758686560992108 0.493853559579677 C 0.0 **** 0.0
30 C34414 0.402988866412353 0.737979764006332 0.515213256298135 C 0.0 **** 0.0
31 C34415 0.414939347722326 0.728235750179417 0.503898930410262 C 0.0 **** 0.0
32 C34416 0.43127420090863 0.738770765528601 0.50487283187333 C 0.0 **** 0.0
33 C34421 0.418224397275148 0.70983275873589 0.509545180245907 C 0.0 **** 0.0
34 C34422 0.416928887578529 0.706538080964736 0.526452483944776 C 0.0 **** 0.0
35 C34423 0.409872894663055 0.718965813996792 0.539324826891715 C 0.0 **** 0.0
36 C34424 0.400750435304856 0.733893019992701 0.531516467086108 C 0.0 **** 0.0
37 C34430 0.420234573559726 0.689505622740113 0.534059842896005 C 0.0 **** 0.0
38 C34431 0.429727254830436 0.677455116710101 0.522162583369888 C 0.0 **** 0.0
39 C34432 0.427520026317143 0.681803195826178 0.503805744407104 C 0.0 **** 0.0
40 C34433 0.422091714361436 0.697237234520185 0.498286042664718 C 0.0 **** 0.0
41 C34439 0.420722529058616 0.699757913787689 0.478973872639137 C 0.0 **** 0.0
42 C34440 0.41848115506477 0.683095901951665 0.469520012219902 C 0.0 **** 0.0
43 C34441 0.43364383551248 0.671717960771439 0.473863408077849 C 0.0 **** 0.0
44 C34442 0.433356018533868 0.667416931517682 0.492680256658409 C 0.0 **** 0.0
45 C34448 0.459493080831338 0.74169037456521 0.491625601791156 C 0.0 **** 0.0
46 C34449 0.446455405925791 0.731429691054846 0.495887601062978 C 0.0 **** 0.0
47 C34453 0.490169931423666 0.763235037395423 0.489345971757826 C 0.0 **** 0.0
48 C34454 0.49323665944315 0.745756567464862 0.487085226719058 C 0.0 **** 0.0
49 S34455 0.476873925180838 0.73223085084699 0.482414717233513 S 0.0 **** 0.0
50 C34460 0.509098540198282 0.738924053158794 0.487702363964918 C 0.0 **** 0.0
51 C34461 0.523197702510639 0.749799662746284 0.488478607397095 C 0.0 **** 0.0
52 C34462 0.520593757317939 0.767534538557913 0.48876420662149 C 0.0 **** 0.0
53 C34463 0.504283030039233 0.774011292187026 0.490280720258012 C 0.0 **** 0.0
54 C34469 0.534528938427061 0.778268549635425 0.487770589784246 C 0.0 **** 0.0
55 C34470 0.550670294872258 0.771797435781322 0.484400520326123 C 0.0 **** 0.0
56 C34471 0.553279894857905 0.754155695458855 0.482918822775504 C 0.0 **** 0.0
57 C34472 0.539627440921504 0.743435485748897 0.486834951035937 C 0.0 **** 0.0
58 C34478 0.569275134087067 0.747469207912213 0.479050613647164 C 0.0 **** 0.0
59 C34479 0.583093286155934 0.758059192950887 0.480047361096063 C 0.0 **** 0.0
60 C34480 0.58089738913979 0.775762731899757 0.482008007170493 C 0.0 **** 0.0
61 C34481 0.564632923857629 0.782407707241499 0.484512619509934 C 0.0 **** 0.0
62 C34487 0.502066428774197 0.791368329873659 0.493381416120517 C 0.0 **** 0.0
63 C34488 0.485451878031098 0.797733001948942 0.493441700459959 C 0.0 **** 0.0
64 C34492 0.532465459309443 0.795317511601973 0.492006259405425 C 0.0 **** 0.0
65 C34493 0.516550134277189 0.80127774104651 0.497012123273239 C 0.0 **** 0.0
66 C34497 0.562646107763679 0.799202817601313 0.489662972020671 C 0.0 **** 0.0
67 C34498 0.546632859657933 0.805378200605073 0.493900399689934 C 0.0 **** 0.0
68 C34502 0.59501333070085 0.786920673959665 0.482139347907554 C 0.0 **** 0.0
69 C34503 0.592888022452305 0.803342652132486 0.488489719546378 C 0.0 **** 0.0
70 C34504 0.57689241606216 0.80916644282412 0.492619255282339 C 0.0 **** 0.0
71 O34509 0.599347315973309 0.751419853417165 0.480200770889839 O 0.0 **** 0.0
72 C34510 0.603322081793955 0.737365998595703 0.469608768311928 C 0.0 **** 0.0
73 C34511 0.588155539595762 0.725444968367426 0.465854400397928 C 0.0 **** 0.0
74 C34512 0.572082238315721 0.728631318799941 0.476056383494545 C 0.0 **** 0.0
75 C34518 0.593195358229262 0.706532280748608 0.466060629572842 C 0.0 **** 0.0
76 C34519 0.610338067029934 0.703989545720866 0.457504178449873 C 0.0 **** 0.0
77 C34520 0.624602909917227 0.712001079629346 0.46804294089916 C 0.0 **** 0.0
78 C34521 0.618867823578121 0.728425544420507 0.47745323417115 C 0.0 **** 0.0
79 C34527 0.633718771460913 0.740933639711552 0.480100731939322 C 0.0 **** 0.0
80 C34528 0.65004995885947 0.730957904722128 0.483100902155457 C 0.0 **** 0.0
81 C34529 0.654570196335642 0.719411238672522 0.467878531866054 C 0.0 **** 0.0
82 N34530 0.639816551555557 0.714000374082755 0.457922668311781 N 0.0 **** 0.0
83 C34536 0.515350178630633 0.815728995917497 0.507596418636404 C 0.0 **** 0.0
84 C34537 0.529612962427294 0.82536999327122 0.51046688865632 C 0.0 **** 0.0
85 C34538 0.54501211133472 0.820803433423456 0.50264777904947 C 0.0 **** 0.0
86 O34543 0.529079439635151 0.8395767039349 0.520639501705212 O 0.0 **** 0.0
87 C34544 0.518311017816085 0.836094383420684 0.534709963149341 C 0.0 **** 0.0
88 C34545 0.500655734188875 0.831566844872062 0.528909040528891 C 0.0 **** 0.0
89 O34546 0.500046137199402 0.820137098531825 0.514869563802987 O 0.0 **** 0.0
90 C34552 0.49013309105875 0.847517086341268 0.525545188430749 C 0.0 **** 0.0
91 C34553 0.487319030913328 0.857864757348955 0.541885646184078 C 0.0 **** 0.0
92 C34554 0.501421409340455 0.855095520170156 0.555122580296822 C 0.0 **** 0.0
93 C34555 0.518516393590671 0.851608676329295 0.54663664436683 C 0.0 **** 0.0
94 C34561 0.575232078338041 0.82545066614008 0.499903085410321 C 0.0 **** 0.0
95 C34562 0.559231963910492 0.830992670173835 0.505190587079096 C 0.0 **** 0.0
96 C34566 0.606692350862299 0.814415398961923 0.488762224918556 C 0.0 **** 0.0
97 C34567 0.604960676328926 0.830854560106059 0.495551487310162 C 0.0 **** 0.0
98 C34568 0.589536025421535 0.835975123823238 0.501498999745834 C 0.0 **** 0.0
99 C34573 0.6220927138017 0.810110733176716 0.480909069521628 C 0.0 **** 0.0
100 C34574 0.624022111720142 0.794458392065207 0.473397950072937 C 0.0 **** 0.0
101 C34575 0.610784653309893 0.783212456857273 0.474604098323927 C 0.0 **** 0.0
102 O34580 0.61843477308957 0.84180099795659 0.496523704674316 O 0.0 **** 0.0
103 C34581 0.631757456141753 0.839293677150193 0.485626167148912 C 0.0 **** 0.0
104 C34582 0.635009810671067 0.823748224274623 0.478829515040064 C 0.0 **** 0.0
105 C34587 0.639978404919583 0.788976540379531 0.464115908620956 C 0.0 **** 0.0
106 C34588 0.654257347736363 0.80334900911569 0.463269862043747 C 0.0 **** 0.0
107 C34589 0.649228309152391 0.821008709575036 0.469412415801452 C 0.0 **** 0.0
108 C34594 0.662531064828621 0.804114016417853 0.445543832706302 C 0.0 **** 0.0
109 C34595 0.667271060749258 0.786305210189032 0.439344911547637 C 0.0 **** 0.0
110 C34596 0.651346460309833 0.775104661044906 0.437374731276023 C 0.0 **** 0.0
111 C34597 0.635715751222706 0.782529499170514 0.446277079217012 C 0.0 **** 0.0
112 C34603 0.659477176215703 0.834428143760942 0.465647226161374 C 0.0 **** 0.0
113 C34604 0.655918948286398 0.850187082194873 0.472072960292969 C 0.0 **** 0.0
114 C34605 0.642112621813408 0.852596130586973 0.482082631493659 C 0.0 **** 0.0
115 C34610 0.677237563052096 0.816627942614754 0.445846722101718 C 0.0 **** 0.0
116 C34612 0.674890555023088 0.831570736975784 0.454746323359356 C 0.0 **** 0.0
117 C34615 0.415234079409017 0.685640680264084 0.450389346117481 C 0.0 **** 0.0
118 C34617 0.430163021343026 0.693312520366441 0.440719238136679 C 0.0 **** 0.0
119 C34619 0.409861957259727 0.669161899885009 0.441702190372227 C 0.0 **** 0.0
120 O34621 0.558897724067231 0.721743641087258 0.465764571487847 O 0.0 **** 0.0
121 C34623 0.63863630911606 0.868255399962459 0.488569821634591 C 0.0 **** 0.0
122 C34624 0.648880188920261 0.881604653133309 0.485026754461274 C 0.0 **** 0.0
123 C34625 0.662874998766694 0.879354249464526 0.475212993811299 C 0.0 **** 0.0
124 C34626 0.666318879542101 0.863619227152778 0.468844640797512 C 0.0 **** 0.0
125 C34632 0.68195672002172 0.861058363889007 0.458871620775078 C 0.0 **** 0.0
126 C34633 0.692401670579283 0.87454311709876 0.456219387807014 C 0.0 **** 0.0
127 C34634 0.687781726649913 0.891313986531839 0.463061972815306 C 0.0 **** 0.0
128 C34635 0.673179948852858 0.893081685124364 0.472213198791456 C 0.0 **** 0.0
129 C34641 0.698344200412233 0.904748473239242 0.460346899903146 C 0.0 **** 0.0
130 C34642 0.713214102855391 0.902886483221163 0.451594363858691 C 0.0 **** 0.0
131 C34643 0.718099530224646 0.887567368681139 0.44513986195921 C 0.0 **** 0.0
132 C34644 0.707154790177541 0.872570284851347 0.447418881953378 C 0.0 **** 0.0
133 C34650 0.711849968265913 0.856782053080287 0.44080066182236 C 0.0 **** 0.0
134 C34651 0.701042901165833 0.843038366980163 0.443266006931465 C 0.0 **** 0.0
135 C34652 0.686123529637896 0.845047695353421 0.452580964947433 C 0.0 **** 0.0
136 C34657 0.726981246927036 0.854725109648599 0.431850002195558 C 0.0 **** 0.0
137 C34658 0.73781104161064 0.870592100732359 0.430428571981614 C 0.0 **** 0.0
138 C34659 0.733068042813697 0.885945729187607 0.436766021159788 C 0.0 **** 0.0
139 C34664 0.692101273606449 0.814666486674359 0.436883239665178 C 0.0 **** 0.0
140 C34665 0.70486952092145 0.827317936106025 0.436076238752144 C 0.0 **** 0.0
141 C34670 0.731207822281466 0.838873426291544 0.425316873116851 C 0.0 **** 0.0
142 C34671 0.720508309937147 0.825052220158851 0.427763018203645 C 0.0 **** 0.0
143 C34675 0.725084650125305 0.807669021408008 0.420766332418652 C 0.0 **** 0.0
144 C34676 0.744126517578726 0.804591182731821 0.421857868056437 C 0.0 **** 0.0
145 C34677 0.753046835028412 0.818427412859902 0.412229471328793 C 0.0 **** 0.0
146 C34678 0.747254097573367 0.836243083901804 0.415447043589256 C 0.0 **** 0.0
147 O34684 0.755744101740646 0.847456349763446 0.409355676363056 O 0.0 **** 0.0
148 H34686 0.336430377789721 0.726957906237276 0.436516667113957 H 0.0 **** 0.0
149 H34688 0.358064035218269 0.729872682543322 0.441096832384055 H 0.0 **** 0.0
150 H34690 0.332740478836114 0.717423030707253 0.464440522733531 H 0.0 **** 0.0
151 H34692 0.353520360986854 0.723084339457847 0.469788677615091 H 0.0 **** 0.0
152 H34694 0.323530332163903 0.747185194717147 0.468054229676006 H 0.0 **** 0.0
153 H34696 0.340599463436436 0.769401171743836 0.476883612621161 H 0.0 **** 0.0
154 H34698 0.366356085888307 0.756633403714609 0.451920858171827 H 0.0 **** 0.0
155 H34700 0.351934398563643 0.77346886393123 0.449963279119693 H 0.0 **** 0.0
156 H34702 0.372478720514196 0.748614908668286 0.478160746237588 H 0.0 **** 0.0
157 H34704 0.363252259782099 0.735382965391906 0.500926235906636 H 0.0 **** 0.0
158 H34706 0.336014537765826 0.762369835186387 0.505065243466338 H 0.0 **** 0.0
159 H34708 0.33815939838222 0.744766988326646 0.518534567726738 H 0.0 **** 0.0
160 H34710 0.317028520212291 0.739683581282582 0.49479919816682 H 0.0 **** 0.0
161 H34712 0.333677034650374 0.724946931722304 0.495141822379597 H 0.0 **** 0.0
162 H34714 0.386807361742054 0.76820971059821 0.526943556624348 H 0.0 **** 0.0
163 H34716 0.369092844486049 0.786327179974135 0.50973146987182 H 0.0 **** 0.0
164 H34718 0.383030406710616 0.774711469795033 0.476123689467467 H 0.0 **** 0.0
165 H34720 0.363999161574062 0.784847434282645 0.48131856391792 H 0.0 **** 0.0
166 H34722 0.393078930724933 0.749546183061861 0.493635453599848 H 0.0 **** 0.0
167 H34724 0.43614913715186 0.817809781625522 0.502404986009543 H 0.0 **** 0.0
168 H34726 0.423189538738877 0.8148421706469 0.484543013989374 H 0.0 **** 0.0
169 H34728 0.406466853168513 0.831734173491822 0.503402189583416 H 0.0 **** 0.0
170 H34730 0.412297446926571 0.819696972352611 0.521319095578303 H 0.0 **** 0.0
171 H34732 0.381561059083154 0.814271045245287 0.507725406742563 H 0.0 **** 0.0
172 H34734 0.41002940552953 0.728559899486173 0.490887406014363 H 0.0 **** 0.0
173 H34735 0.420198310897497 0.723523668366569 0.547526185245828 H 0.0 **** 0.0
174 H34737 0.400912389486363 0.712109935267072 0.547579488038933 H 0.0 **** 0.0
175 H34739 0.393159000311315 0.741835804616049 0.539831280837158 H 0.0 **** 0.0
176 H34741 0.427362999800062 0.69084411837118 0.545981304209635 H 0.0 **** 0.0
177 H34743 0.407962922651558 0.683952493108464 0.537417979331191 H 0.0 **** 0.0
178 H34745 0.425516590034997 0.664382328524842 0.524510255013816 H 0.0 **** 0.0
179 H34747 0.443329829434597 0.677703070236885 0.52506953828442 H 0.0 **** 0.0
180 H34749 0.40988676539959 0.707973991816649 0.476022328055177 H 0.0 **** 0.0
181 H34751 0.432078589508051 0.70629078806535 0.474310163360437 H 0.0 **** 0.0
182 H34753 0.407005207728314 0.67686858297425 0.474577507624779 H 0.0 **** 0.0
183 H34755 0.445444987830848 0.67838961285783 0.470647882479529 H 0.0 **** 0.0
184 H34757 0.433643174972689 0.659889087493416 0.46650830211653 H 0.0 **** 0.0
185 H34759 0.445937749305932 0.663136470139681 0.496963257082791 H 0.0 **** 0.0
186 H34761 0.424656698986601 0.656722901697295 0.494736888176627 H 0.0 **** 0.0
187 H34763 0.447088158659306 0.717870494459325 0.493818805529618 H 0.0 **** 0.0
188 H34765 0.511141037523262 0.725275014956775 0.486303445236664 H 0.0 **** 0.0
189 H34767 0.541124104876669 0.729640733097182 0.48732521158368 H 0.0 **** 0.0
190 H34769 0.482970084773678 0.811319633260509 0.494740438723075 H 0.0 **** 0.0
191 H34771 0.607363513331562 0.742614894901356 0.457333800885491 H 0.0 **** 0.0
192 H34773 0.584301785786858 0.728138318407454 0.452672120091544 H 0.0 **** 0.0
193 H34775 0.572337001881081 0.72199823158735 0.488343960396213 H 0.0 **** 0.0
194 H34777 0.593832951510585 0.701806902010459 0.479175814438483 H 0.0 **** 0.0
195 H34779 0.583299151208681 0.699035149661475 0.459700571420943 H 0.0 **** 0.0
196 H34781 0.609902322234341 0.709867310774512 0.4448653764706 H 0.0 **** 0.0
197 H34783 0.613076605541681 0.690472898914549 0.455432475776297 H 0.0 **** 0.0
198 H34785 0.627818690193595 0.702728782699897 0.477982055894358 H 0.0 **** 0.0
199 H34787 0.614531802331703 0.724342501922106 0.490076956409239 H 0.0 **** 0.0
200 H34789 0.635309906578974 0.748800565493792 0.468698397660687 H 0.0 **** 0.0
201 H34791 0.631020271465281 0.749670127414882 0.490613961554003 H 0.0 **** 0.0
202 H34793 0.648139054355141 0.723107125830181 0.494474210076902 H 0.0 **** 0.0
203 H34795 0.660823777736718 0.739277850633587 0.486032872312838 H 0.0 **** 0.0
204 H34797 0.661185144176079 0.708001040564193 0.472382104708416 H 0.0 **** 0.0
205 H34799 0.663517708327191 0.725895220822407 0.459394083408293 H 0.0 **** 0.0
206 H34801 0.637580870517923 0.722146067049265 0.448483056516451 H 0.0 **** 0.0
207 H34803 0.52363446860027 0.82512273071206 0.541487812162134 H 0.0 **** 0.0
208 H34805 0.494347708932932 0.824867903260538 0.539378983663468 H 0.0 **** 0.0
209 H34807 0.496699575559986 0.85531971927422 0.516064668617557 H 0.0 **** 0.0
210 H34809 0.47796054861261 0.8438794325108 0.519842721400391 H 0.0 **** 0.0
211 H34811 0.474983081805177 0.854653515979538 0.547514430762388 H 0.0 **** 0.0
212 H34813 0.486634116317949 0.871374841527304 0.538690992655227 H 0.0 **** 0.0
213 H34815 0.498123417349975 0.844273038840839 0.563251934902953 H 0.0 **** 0.0
214 H34817 0.50231925103703 0.866151881822432 0.56356760477404 H 0.0 **** 0.0
215 H34819 0.528594558433187 0.850452931633477 0.556203406460343 H 0.0 **** 0.0
216 H34821 0.521927185165428 0.862669794932554 0.53889960696482 H 0.0 **** 0.0
217 H34823 0.558010984074747 0.843222330579801 0.511652284607237 H 0.0 **** 0.0
218 H34825 0.588070482527859 0.848589835783914 0.507136439752655 H 0.0 **** 0.0
219 H34827 0.61272578756989 0.771086657708944 0.46829726755404 H 0.0 **** 0.0
220 H34829 0.645606166363087 0.778322044723745 0.471192342800562 H 0.0 **** 0.0
221 H34831 0.664255417755444 0.799083412557577 0.472056821915611 H 0.0 **** 0.0
222 H34833 0.653165611349267 0.809204446088875 0.436496682072281 H 0.0 **** 0.0
223 H34835 0.676087923158664 0.780557090523515 0.448469304274691 H 0.0 **** 0.0
224 H34837 0.673835860102102 0.786731281492043 0.427089874943787 H 0.0 **** 0.0
225 H34839 0.653854073906173 0.762367042082403 0.442432068031394 H 0.0 **** 0.0
226 H34841 0.648458470090969 0.773370633525525 0.423847534615127 H 0.0 **** 0.0
227 H34843 0.625724102042147 0.772842370478107 0.44628817029993 H 0.0 **** 0.0
228 H34845 0.630672264669403 0.793200531507094 0.438893295778797 H 0.0 **** 0.0
229 H34847 0.404484204902831 0.694522886865939 0.449261959897557 H 0.0 **** 0.0
230 H34849 0.42670092180349 0.695626603150326 0.427431102012078 H 0.0 **** 0.0
231 H34851 0.441020675179482 0.684633390299979 0.440802101847453 H 0.0 **** 0.0
232 H34853 0.434332650491483 0.7054214245222 0.446110585553971 H 0.0 **** 0.0
233 H34855 0.398856576386877 0.663385309303242 0.447963945147823 H 0.0 **** 0.0
234 H34857 0.42018724801727 0.659834853088857 0.441795476272873 H 0.0 **** 0.0
235 H34859 0.40643725126314 0.671465027709793 0.428407529307356 H 0.0 **** 0.0
236 H34861 0.550175891082076 0.73000484734017 0.465489175055972 H 0.0 **** 0.0
237 H34863 0.627627850449011 0.870449461345268 0.496603914292345 H 0.0 **** 0.0
238 H34865 0.645749831428355 0.893935867058033 0.490366116215653 H 0.0 **** 0.0
239 H34867 0.669823509377455 0.905437951782679 0.47739473214051 H 0.0 **** 0.0
240 H34869 0.695208131922034 0.9172551929223 0.46525968893157 H 0.0 **** 0.0
241 H34871 0.72120403738964 0.91401880873124 0.44995089301914 H 0.0 **** 0.0
242 H34873 0.7500209469347 0.869997755195495 0.424195369042115 H 0.0 **** 0.0
243 H34875 0.74153724703756 0.896698925093871 0.43506377038599 H 0.0 **** 0.0
244 H34877 0.694062244550749 0.802640732862939 0.430336115394207 H 0.0 **** 0.0
245 H34879 0.718692147281099 0.797505486218283 0.427759208970069 H 0.0 **** 0.0
246 H34881 0.720931680534863 0.806670229037337 0.407484269300403 H 0.0 **** 0.0
247 H34883 0.747571220512115 0.79215165473697 0.416636135615861 H 0.0 **** 0.0
248 H34885 0.748040575290525 0.80466913107269 0.435227424790944 H 0.0 **** 0.0
249 H34887 0.751470642291879 0.817083984708042 0.398453475258984 H 0.0 **** 0.0
250 H34889 0.766721875636832 0.819380369589661 0.414465354649158 H 0.0 **** 0.0
@<TRIPOS>BOND
1 3 2 1
2 4 3 1
3 5 4 1
4 6 5 1
5 1 2 1
6 1 6 1
7 8 7 1
8 9 8 1
9 10 9 1
10 4 7 1
11 3 10 1
12 12 11 1
13 13 12 1
14 14 13 1
15 8 11 1
16 7 14 1
17 16 15 1
18 17 16 Partial double
19 18 17 1
20 13 15 1
21 12 18 1
22 20 19 Partial double
23 21 20 Partial double
24 22 21 Partial double
25 17 19 Partial double
26 16 22 Partial double
27 24 23 1
28 25 24 1
29 15 25 Double
30 22 23 1
31 27 26 1
32 28 27 Partial double
33 29 28 Partial double
34 21 26 1
35 20 29 Partial double
36 31 30 1
37 32 31 1
38 18 30 1
39 19 32 1
40 34 33 Double
41 35 34 1
42 36 35 1
43 31 33 1
44 30 36 Double
45 38 37 1
46 39 38 1
47 40 39 Double
48 34 37 1
49 33 40 1
50 42 41 1
51 43 42 1
52 44 43 1
53 40 41 1
54 39 44 1
55 46 45 Partial double
56 32 46 1
57 29 45 Partial double
58 48 47 Partial double
59 49 48 1
60 45 49 Partial double
61 28 47 Partial double
62 51 50 Partial double
63 52 51 Partial double
64 53 52 Partial double
65 48 50 Partial double
66 47 53 Partial double
67 55 54 Partial double
68 56 55 Partial double
69 57 56 Partial double
70 52 54 Partial double
71 51 57 Partial double
72 59 58 Partial double
73 60 59 Partial double
74 61 60 Partial double
75 56 58 Partial double
76 55 61 Partial double
77 63 62 Partial double
78 27 63 Partial double
79 53 62 Partial double
80 65 64 Partial double
81 62 65 Partial double
82 54 64 Partial double
83 67 66 Partial double
84 64 67 Partial double
85 61 66 Partial double
86 69 68 Partial double
87 70 69 Partial double
88 66 70 Partial double
89 60 68 Partial double
90 72 71 1
91 73 72 1
92 74 73 1
93 59 71 1
94 58 74 1
95 76 75 1
96 77 76 1
97 78 77 1
98 73 75 1
99 72 78 1
100 80 79 1
101 81 80 1
102 82 81 1
103 78 79 1
104 77 82 1
105 84 83 Partial double
106 85 84 Partial double
107 67 85 Partial double
108 65 83 Partial double
109 87 86 1
110 88 87 1
111 89 88 1
112 84 86 1
113 83 89 1
114 91 90 1
115 92 91 1
116 93 92 1
117 88 90 1
118 87 93 1
119 95 94 Partial double
120 85 95 Partial double
121 70 94 Partial double
122 97 96 Partial double
123 98 97 Partial double
124 94 98 Partial double
125 69 96 Partial double
126 100 99 Partial double
127 101 100 Partial double
128 68 101 Partial double
129 96 99 Partial double
130 103 102 1
131 104 103 Partial double
132 97 102 1
133 99 104 1
134 106 105 1
135 107 106 1
136 100 105 1
137 104 107 Partial double
138 109 108 1
139 110 109 1
140 111 110 1
141 106 108 1
142 105 111 1
143 113 112 1
144 114 113 1
145 103 114 Partial double
146 107 112 Partial double
147 108 115 1
148 112 116 Partial double
149 115 116 Partial double
150 42 117 1
151 117 118 1
152 117 119 1
153 74 120 1
154 122 121 1
155 123 122 Partial double
156 124 123 1
157 114 121 Partial double
158 113 124 Partial double
159 126 125 Partial double
160 127 126 1
161 128 127 Partial double
162 124 125 Partial double
163 123 128 Partial double
164 130 129 Partial double
165 131 130 1
166 132 131 1
167 127 129 Partial double
168 126 132 Partial double
169 134 133 Partial double
170 135 134 Partial double
171 125 135 Partial double
172 132 133 Partial double
173 137 136 Partial double
174 138 137 Partial double
175 131 138 Partial double
176 133 136 Partial double
177 140 139 Partial double
178 134 140 Partial double
179 116 135 Partial double
180 115 139 Partial double
181 142 141 Partial double
182 140 142 Partial double
183 136 141 Partial double
184 144 143 1
185 145 144 1
186 146 145 1
187 142 143 1
188 141 146 1
189 146 147 Double
190 1 148 1
191 1 149 1
192 2 150 1
193 2 151 1
194 3 152 1
195 4 153 1
196 5 154 1
197 5 155 1
198 7 156 1
199 8 157 1
200 9 158 1
201 9 159 1
202 10 160 1
203 10 161 1
204 12 162 1
205 13 163 1
206 14 164 1
207 14 165 1
208 18 166 1
209 23 167 1
210 23 168 1
211 24 169 1
212 24 170 1
213 25 171 1
214 35 173 1
215 35 174 1
216 36 175 1
217 37 176 1
218 37 177 1
219 38 178 1
220 38 179 1
221 41 180 1
222 41 181 1
223 42 182 1
224 43 183 1
225 43 184 1
226 44 185 1
227 44 186 1
228 46 187 1
229 50 188 1
230 57 189 1
231 63 190 1
232 72 191 1
233 73 192 1
234 74 193 1
235 75 194 1
236 75 195 1
237 76 196 1
238 76 197 1
239 77 198 1
240 78 199 1
241 79 200 1
242 79 201 1
243 80 202 1
244 80 203 1
245 81 204 1
246 81 205 1
247 82 206 1
248 87 207 1
249 88 208 1
250 90 209 1
251 90 210 1
252 91 211 1
253 91 212 1
254 92 213 1
255 92 214 1
256 93 215 1
257 93 216 1
258 95 217 1
259 98 218 1
260 101 219 1
261 105 220 1
262 106 221 1
263 108 222 1
264 109 223 1
265 109 224 1
266 110 225 1
267 110 226 1
268 111 227 1
269 111 228 1
270 117 229 1
271 118 230 1
272 118 231 1
273 118 232 1
274 119 233 1
275 119 234 1
276 119 235 1
277 120 236 1
278 121 237 1
279 122 238 1
280 128 239 1
281 129 240 1
282 130 241 1
283 137 242 1
284 138 243 1
285 139 244 1
286 143 245 1
287 143 246 1
288 144 247 1
289 144 248 1
290 145 249 1
291 145 250 1
292 31 172 1
@<TRIPOS>MOLECULE
Sketch 4
250 292
SMALL
USER_CHARGES


@<TRIPOS>ATOM
1 C34892 0.287122731853985 0.0762931765867391 0.725439870264079 C 0.0 **** 0.0
2 C34893 0.280941673791111 0.0621698382689015 0.71334965921895 C 0.0 **** 0.0
3 C34894 0.282263372177886 0.0445846061476494 0.721873274627233 C 0.0 **** 0.0
4 C34895 0.298481874715945 0.043803578316061 0.73282956077718 C 0.0 **** 0.0
5 C34896 0.297827786535209 0.0581435312559393 0.746299253904338 C 0.0 **** 0.0
6 O34897 0.28587188214993 0.0711078528391381 0.742563684469619 O 0.0 **** 0.0
7 C34904 0.314826142562833 0.0444994926508239 0.721828276086842 C 0.0 **** 0.0
8 C34905 0.312838898040399 0.0343715151891526 0.704855388327869 C 0.0 **** 0.0
9 C34906 0.29828586046867 0.0216582903374547 0.705686737675917 C 0.0 **** 0.0
10 C34907 0.281017541402153 0.0298391305099796 0.709088686370977 C 0.0 **** 0.0
11 O34913 0.327207104703888 0.0249470772964891 0.699452803834252 O 0.0 **** 0.0
12 C34914 0.343085854931061 0.0328703185881797 0.702772760868491 C 0.0 **** 0.0
13 C34915 0.345983283473224 0.0323978611043556 0.721960335349237 C 0.0 **** 0.0
14 C34916 0.330887979380254 0.0400082571408883 0.732283149103639 C 0.0 **** 0.0
15 C34922 0.363145331507224 0.0397154750081284 0.726496269733553 C 0.0 **** 0.0
16 C34923 0.370874680347652 0.0529117841392075 0.714961464568432 C 0.0 **** 0.0
17 C34924 0.363067512098933 0.0573344208797943 0.699854615765613 C 0.0 **** 0.0
18 C34925 0.345272258838335 0.0508901879628721 0.696026689175199 C 0.0 **** 0.0
19 C34931 0.371074743368257 0.0685532753292012 0.688910821655295 C 0.0 **** 0.0
20 C34932 0.386179390900984 0.0759906279814654 0.693776345884868 C 0.0 **** 0.0
21 C34933 0.393619415058641 0.0720815224727568 0.709186143906153 C 0.0 **** 0.0
22 C34934 0.385996373863565 0.0603648908885829 0.719786662423033 C 0.0 **** 0.0
23 C34940 0.393693954293548 0.0567745749178141 0.736948278054909 C 0.0 **** 0.0
24 C34941 0.390196142322174 0.0384808566079946 0.742873154607993 C 0.0 **** 0.0
25 C34942 0.372265119121611 0.0330903114799584 0.739298991842988 C 0.0 **** 0.0
26 O34947 0.408521446720949 0.0797245306737354 0.714437613899369 O 0.0 **** 0.0
27 C34948 0.41787378244586 0.0889216257322227 0.702945505138205 C 0.0 **** 0.0
28 C34949 0.411419496116411 0.0945355869929521 0.687658477593692 C 0.0 **** 0.0
29 C34950 0.394035968994313 0.0889112836266638 0.682455531988297 C 0.0 **** 0.0
30 C34956 0.340903242468875 0.053921168430151 0.677782621556327 C 0.0 **** 0.0
31 C34957 0.343983357276265 0.0723013850994376 0.673169002900526 C 0.0 **** 0.0
32 C34958 0.363425939380785 0.072750145249953 0.671800443093718 C 0.0 **** 0.0
33 C34963 0.333531384939443 0.0782667516245122 0.657658093341463 C 0.0 **** 0.0
34 C34964 0.327874235938197 0.0660243328771494 0.646831925206288 C 0.0 **** 0.0
35 C34965 0.33202804157838 0.0473621878450531 0.648419389279822 C 0.0 **** 0.0
36 C34966 0.336087440099017 0.0423739514534219 0.666350403138916 C 0.0 **** 0.0
37 C34972 0.317084424886949 0.0695498648328238 0.631646551336968 C 0.0 **** 0.0
38 C34973 0.3085897559752 0.086953665799634 0.632266044062577 C 0.0 **** 0.0
39 C34974 0.31806276519968 0.0994901466827644 0.642925286667914 C 0.0 **** 0.0
40 C34975 0.329369545496812 0.0949272570407272 0.655182407059966 C 0.0 **** 0.0
41 C34981 0.336520513002681 0.109310682515309 0.66627668788385 C 0.0 **** 0.0
42 C34982 0.324539607504419 0.124337462036054 0.667738655104769 C 0.0 **** 0.0
43 C34983 0.320780392539775 0.130701500544009 0.649756520519648 C 0.0 **** 0.0
44 C34984 0.311327039771443 0.117104204569202 0.639955050967781 C 0.0 **** 0.0
45 C34990 0.386222116806641 0.0945087528959076 0.668204144136977 C 0.0 **** 0.0
46 C34991 0.371373212933677 0.0877103308845161 0.662702612176233 C 0.0 **** 0.0
47 C34995 0.422179793858526 0.103455475784512 0.67636286472437 C 0.0 **** 0.0
48 C34996 0.416642045081763 0.108187095093285 0.660124131341967 C 0.0 **** 0.0
49 S34997 0.395180496720131 0.111034152986967 0.656682318838386 S 0.0 **** 0.0
50 C35002 0.427592569815719 0.109190086521009 0.646667304384103 C 0.0 **** 0.0
51 C35003 0.445074383151282 0.10684599365289 0.649564866127312 C 0.0 **** 0.0
52 C35004 0.451036480188113 0.105949177846016 0.666487006219556 C 0.0 **** 0.0
53 C35005 0.43956262982454 0.104460191894295 0.679887502298358 C 0.0 **** 0.0
54 C35011 0.46835225837776 0.104668073683138 0.669393915449477 C 0.0 **** 0.0
55 C35012 0.479583158615616 0.103837925737954 0.655737842583764 C 0.0 **** 0.0
56 C35013 0.473637665227046 0.100703498735268 0.639149312406984 C 0.0 **** 0.0
57 C35014 0.456446098386015 0.104058262057802 0.636133839709141 C 0.0 **** 0.0
58 C35020 0.484941694973234 0.0941130365535201 0.627022889322389 C 0.0 **** 0.0
59 C35021 0.502124568996619 0.0963845523890157 0.629628640899991 C 0.0 **** 0.0
60 C35022 0.50817424359489 0.102954128412085 0.645149763436796 C 0.0 **** 0.0
61 C35023 0.496853146818565 0.10432299982806 0.658628126517848 C 0.0 **** 0.0
62 C35029 0.445626188407434 0.100671305846942 0.696138450477928 C 0.0 **** 0.0
63 C35030 0.434299441440078 0.0925592307233296 0.707300443564159 C 0.0 **** 0.0
64 C35034 0.474444080465656 0.103158582768294 0.685896496499502 C 0.0 **** 0.0
65 C35035 0.463204191170013 0.102230839271585 0.699561166847392 C 0.0 **** 0.0
66 C35039 0.502935728777167 0.104044269555413 0.675192915015557 C 0.0 **** 0.0
67 C35040 0.491705335516568 0.102440627444471 0.688684793081899 C 0.0 **** 0.0
68 C35044 0.525543227133621 0.106569609610446 0.648023127819783 C 0.0 **** 0.0
69 C35045 0.531338321760959 0.107514033930875 0.664791568489282 C 0.0 **** 0.0
70 C35046 0.52029558330601 0.104857721382303 0.678092368605716 C 0.0 **** 0.0
71 O35051 0.513489434056787 0.0913741396762529 0.617213697578161 O 0.0 **** 0.0
72 C35052 0.509089623427597 0.0963424910102497 0.600331889311651 C 0.0 **** 0.0
73 C35053 0.48976134068512 0.0946734144148537 0.596342965145061 C 0.0 **** 0.0
74 C35054 0.48071861977931 0.0851803097351076 0.610521692280449 C 0.0 **** 0.0
75 C35060 0.486661382924118 0.0871797504003267 0.578561984873666 C 0.0 **** 0.0
76 C35061 0.498341667447777 0.0960077961785094 0.565910908314146 C 0.0 **** 0.0
77 C35062 0.516857402417057 0.0908046351539902 0.569021885864466 C 0.0 **** 0.0
78 C35063 0.520240610557638 0.0861376817270615 0.587871406154723 C 0.0 **** 0.0
79 C35069 0.539314222732184 0.0869174054697119 0.592363486942408 C 0.0 **** 0.0
80 C35070 0.549823237296657 0.0838924388116791 0.576381203604143 C 0.0 **** 0.0
81 C35071 0.546271892816883 0.0973702201931671 0.562625416072088 C 0.0 **** 0.0
82 N35072 0.528585559525543 0.103333525905061 0.562453868533841 N 0.0 **** 0.0
83 C35078 0.469478806741391 0.102043453068391 0.716338268497019 C 0.0 **** 0.0
84 C35079 0.486701418287064 0.100417512513496 0.719173947947609 C 0.0 **** 0.0
85 C35080 0.49789345964055 0.100652818348394 0.705246172784093 C 0.0 **** 0.0
86 O35085 0.493444813555715 0.0991689122707946 0.735325205370584 O 0.0 **** 0.0
87 C35086 0.481379766025186 0.0920817517773448 0.746732395017089 C 0.0 **** 0.0
88 C35087 0.465508472320835 0.102493662943103 0.746279595167264 C 0.0 **** 0.0
89 O35088 0.458226037243973 0.103174185464407 0.729758871134871 O 0.0 **** 0.0
90 C35094 0.468265220235902 0.120289773990934 0.753666915413612 C 0.0 **** 0.0
91 C35095 0.477168541062806 0.120001523283787 0.771075882998315 C 0.0 **** 0.0
92 C35096 0.479474907320758 0.101916158435079 0.777733982626278 C 0.0 **** 0.0
93 C35097 0.489124866155154 0.0911319519615551 0.764677971323384 C 0.0 **** 0.0
94 C35103 0.526720468928648 0.103933289601441 0.694761965153732 C 0.0 **** 0.0
95 C35104 0.515417115929831 0.100762175722304 0.70812576192043 C 0.0 **** 0.0
96 C35108 0.548063374145184 0.112299618178601 0.667946044360612 C 0.0 **** 0.0
97 C35109 0.554402316467443 0.112384382714577 0.684658652673025 C 0.0 **** 0.0
98 C35110 0.543961494160985 0.107673681237807 0.697673678689867 C 0.0 **** 0.0
99 C35115 0.55872178808245 0.117597442224178 0.654718897947609 C 0.0 **** 0.0
100 C35116 0.553128774646954 0.117151430590128 0.638133491419339 C 0.0 **** 0.0
101 C35117 0.537075451500671 0.110998632699912 0.635154128057478 C 0.0 **** 0.0
102 O35122 0.571015304307762 0.116288883755351 0.688090932136796 O 0.0 **** 0.0
103 C35123 0.579900089984402 0.125391248695411 0.676163060396075 C 0.0 **** 0.0
104 C35124 0.575309157917558 0.125327572946331 0.659489904144317 C 0.0 **** 0.0
105 C35129 0.564220059454681 0.122429551166936 0.623248369106564 C 0.0 **** 0.0
106 C35130 0.581482732224243 0.131726355626269 0.628621161813662 C 0.0 **** 0.0
107 C35131 0.58496963765486 0.133343378398828 0.647598608563423 C 0.0 **** 0.0
108 C35136 0.583836788501266 0.14888518035324 0.619493895940992 C 0.0 **** 0.0
109 C35137 0.581567915539193 0.147401364796165 0.600154305015651 C 0.0 **** 0.0
110 C35138 0.565839567254087 0.136989076860106 0.595149060146224 C 0.0 **** 0.0
111 C35139 0.554437578296871 0.133194753612833 0.6103121708927 C 0.0 **** 0.0
112 C35145 0.598362712414125 0.142970921979455 0.652801449453705 C 0.0 **** 0.0
113 C35146 0.602833458172484 0.143292162142315 0.66958589320115 C 0.0 **** 0.0
114 C35147 0.593740364446673 0.134357977940485 0.681206965245689 C 0.0 **** 0.0
115 C35152 0.601110085709021 0.156332134706449 0.623953187152299 C 0.0 **** 0.0
116 C35154 0.607768313237338 0.153530244500038 0.639947689163021 C 0.0 **** 0.0
117 C35157 0.3311831026265 0.138132390523571 0.679898913194779 C 0.0 **** 0.0
118 C35159 0.347403565593562 0.146916151608881 0.673904703562565 C 0.0 **** 0.0
119 C35161 0.317591050349364 0.151455776461882 0.683528848492588 C 0.0 **** 0.0
120 O35163 0.463102570249848 0.0839659091526906 0.607033461330604 O 0.0 **** 0.0
121 C35165 0.598246583816816 0.134634635985816 0.697914807466569 C 0.0 **** 0.0
122 C35166 0.611510862191085 0.144235871720779 0.703156105936635 C 0.0 **** 0.0
123 C35167 0.620469216641085 0.153524087429136 0.691720386633507 C 0.0 **** 0.0
124 C35168 0.616336971998026 0.152686302704287 0.674915129923374 C 0.0 **** 0.0
125 C35174 0.626309936364522 0.162635249685119 0.662524965497256 C 0.0 **** 0.0
126 C35175 0.63851703825818 0.173311684456688 0.668523995111826 C 0.0 **** 0.0
127 C35176 0.642190202289536 0.173876085735009 0.686853237482529 C 0.0 **** 0.0
128 C35177 0.633235517622403 0.163755543346844 0.69766369792743 C 0.0 **** 0.0
129 C35183 0.654202794604735 0.184822889717338 0.692790887426882 C 0.0 **** 0.0
130 C35184 0.662533490217251 0.195705805356451 0.682153199878492 C 0.0 **** 0.0
131 C35185 0.659205162568899 0.196039365264627 0.665158330763171 C 0.0 **** 0.0
132 C35186 0.646931487216185 0.183939302322272 0.657793224691654 C 0.0 **** 0.0
133 C35192 0.643163377604675 0.184243781306124 0.640462658171205 C 0.0 **** 0.0
134 C35193 0.630999604099349 0.173032809681658 0.634172242974622 C 0.0 **** 0.0
135 C35194 0.622209317641771 0.162340215628303 0.645277491400622 C 0.0 **** 0.0
136 C35199 0.649769853230932 0.197008166450195 0.630103667347395 C 0.0 **** 0.0
137 C35200 0.662899468792676 0.208357913707208 0.63822373980494 C 0.0 **** 0.0
138 C35201 0.667005292840167 0.207552128525348 0.654972286596219 C 0.0 **** 0.0
139 C35206 0.610067389884998 0.166559078072118 0.61300750169314 C 0.0 **** 0.0
140 C35207 0.625349030994888 0.174873690253207 0.617473162723665 C 0.0 **** 0.0
141 C35212 0.644046310124183 0.198772578981438 0.613557539588007 C 0.0 **** 0.0
142 C35213 0.632976929553395 0.186911664361873 0.606731874830451 C 0.0 **** 0.0
143 C35217 0.62765399873037 0.187780884881399 0.588213903790143 C 0.0 **** 0.0
144 C35218 0.641954824005575 0.194833406262915 0.577239718418187 C 0.0 **** 0.0
145 C35219 0.646800800286339 0.212040063728723 0.583995066526267 C 0.0 **** 0.0
146 C35220 0.649109146845054 0.213584141008986 0.602802067144544 C 0.0 **** 0.0
147 O35226 0.653630030662805 0.227180258710341 0.608347036416086 O 0.0 **** 0.0
148 H35228 0.279317112295974 0.087714054559349 0.72423299998451 H 0.0 **** 0.0
149 H35230 0.300178219362979 0.0801233572914069 0.722364112964097 H 0.0 **** 0.0
150 H35232 0.267721156090829 0.0643086943314587 0.709460165563497 H 0.0 **** 0.0
151 H35234 0.288372559709371 0.062432084862873 0.701568848811954 H 0.0 **** 0.0
152 H35236 0.271399590342465 0.0436774272244166 0.730630756604496 H 0.0 **** 0.0
153 H35238 0.298582135450926 0.0314875391489742 0.739395572049001 H 0.0 **** 0.0
154 H35240 0.31041503571873 0.0637518055253111 0.748426446411843 H 0.0 **** 0.0
155 H35242 0.293647331877123 0.0529809192610186 0.758493165882311 H 0.0 **** 0.0
156 H35244 0.316374174503757 0.0578797579908093 0.718229049223708 H 0.0 **** 0.0
157 H35246 0.309734105237735 0.0436185884976472 0.694852382160225 H 0.0 **** 0.0
158 H35248 0.301263995410425 0.0124785442629601 0.715744924999656 H 0.0 **** 0.0
159 H35250 0.298059005153997 0.0143857321442175 0.693801911808091 H 0.0 **** 0.0
160 H35252 0.272195591270163 0.0201174418582258 0.713731245910043 H 0.0 **** 0.0
161 H35254 0.275583354391417 0.0344558004361393 0.697116967806838 H 0.0 **** 0.0
162 H35256 0.35238299280843 0.0245430465643056 0.69658529740193 H 0.0 **** 0.0
163 H35258 0.346425540014538 0.0188536634106723 0.725250512100989 H 0.0 **** 0.0
164 H35260 0.334802164129238 0.0513500391206861 0.739365095079521 H 0.0 **** 0.0
165 H35262 0.32748286463732 0.0306214636445371 0.741999210804323 H 0.0 **** 0.0
166 H35264 0.336598722243737 0.0592145266795474 0.703131854231002 H 0.0 **** 0.0
167 H35266 0.407418109127616 0.0590326874971894 0.736896531670193 H 0.0 **** 0.0
168 H35268 0.388183796988823 0.0656946008446958 0.746136694445756 H 0.0 **** 0.0
169 H35270 0.392850697162672 0.0373439370898888 0.756536694557676 H 0.0 **** 0.0
170 H35272 0.398891621125492 0.0296898562773349 0.73644007550792 H 0.0 **** 0.0
171 H35274 0.367571644309837 0.0227513865447336 0.747116080484048 H 0.0 **** 0.0
172 H35276 0.339977271154393 0.0799815591802678 0.684100647802636 H 0.0 **** 0.0
173 H35277 0.342591160019685 0.0441058402475665 0.639928768116527 H 0.0 **** 0.0
174 H35279 0.320978667404126 0.0398845272767514 0.644215543809056 H 0.0 **** 0.0
175 H35281 0.33481745632764 0.0290746367562713 0.669721163972004 H 0.0 **** 0.0
176 H35283 0.325154921472743 0.0685273536898646 0.620410401611936 H 0.0 **** 0.0
177 H35285 0.307213720018509 0.0597647735573673 0.63032649642338 H 0.0 **** 0.0
178 H35287 0.295757047662541 0.0856522504415932 0.637577338326187 H 0.0 **** 0.0
179 H35289 0.306962878391406 0.0918745154514041 0.619336458522796 H 0.0 **** 0.0
180 H35291 0.339742795621292 0.104754487250989 0.678997638801706 H 0.0 **** 0.0
181 H35293 0.348457215470149 0.113678454797125 0.660578589091788 H 0.0 **** 0.0
182 H35295 0.312503488902692 0.119749249564594 0.673209539966237 H 0.0 **** 0.0
183 H35297 0.332786754422343 0.13374678100713 0.643379237872474 H 0.0 **** 0.0
184 H35299 0.313214317013485 0.142394720504712 0.649750576392334 H 0.0 **** 0.0
185 H35301 0.311436489367702 0.11993099095125 0.626307400538656 H 0.0 **** 0.0
186 H35303 0.297921049054439 0.117209703152494 0.643863155082945 H 0.0 **** 0.0
187 H35305 0.365232628379745 0.0922859926278816 0.651263115276819 H 0.0 **** 0.0
188 H35307 0.422951056596383 0.110987046107291 0.633720236272634 H 0.0 **** 0.0
189 H35309 0.451236179321731 0.103960244149022 0.623284593536042 H 0.0 **** 0.0
190 H35311 0.438515354860877 0.0873787692915395 0.719453289709195 H 0.0 **** 0.0
191 H35313 0.512645135760759 0.109745497696919 0.599007106567981 H 0.0 **** 0.0
192 H35315 0.484049735782235 0.107415322013098 0.596075414077735 H 0.0 **** 0.0
193 H35317 0.485933518141382 0.072177411067686 0.611048958698442 H 0.0 **** 0.0
194 H35319 0.489090324826137 0.0734434577356914 0.578451434658514 H 0.0 **** 0.0
195 H35321 0.473299089210899 0.0887552870306244 0.574965331390807 H 0.0 **** 0.0
196 H35323 0.496879595513661 0.10978679834543 0.567527487433821 H 0.0 **** 0.0
197 H35325 0.494786408930989 0.0932699640409141 0.552717212547935 H 0.0 **** 0.0
198 H35327 0.518975242020973 0.0791752565797133 0.561570976626626 H 0.0 **** 0.0
199 H35329 0.516257901501294 0.0728347000795381 0.58938413935885 H 0.0 **** 0.0
200 H35331 0.542556132758803 0.0994832803628559 0.597384264133408 H 0.0 **** 0.0
201 H35333 0.542372963883167 0.0777071001132745 0.602353894643927 H 0.0 **** 0.0
202 H35335 0.546526598706682 0.0712805594103807 0.571404722950469 H 0.0 **** 0.0
203 H35337 0.563477400503032 0.0835403026036366 0.579048238502303 H 0.0 **** 0.0
204 H35339 0.549286615603142 0.0921700488059614 0.550045379247669 H 0.0 **** 0.0
205 H35341 0.554695561782098 0.108326954877091 0.564366368794065 H 0.0 **** 0.0
206 H35343 0.527462598031483 0.114020311282309 0.569155028992602 H 0.0 **** 0.0
207 H35345 0.478296532966015 0.0792559088493841 0.742220550599149 H 0.0 **** 0.0
208 H35347 0.456087095900098 0.0961792098083472 0.754345813999631 H 0.0 **** 0.0
209 H35349 0.475627123145984 0.127837811576566 0.744588273857108 H 0.0 **** 0.0
210 H35351 0.455872330436794 0.126503639814411 0.754767476616728 H 0.0 **** 0.0
211 H35353 0.470009315415831 0.127694772525582 0.780191575436242 H 0.0 **** 0.0
212 H35355 0.489727121122546 0.125917338284929 0.769960844057419 H 0.0 **** 0.0
213 H35357 0.466995084432161 0.0962105377387692 0.78026289154063 H 0.0 **** 0.0
214 H35359 0.48611036610537 0.101915645815679 0.789987213489918 H 0.0 **** 0.0
215 H35361 0.490259018843201 0.0780635579049484 0.7693481769457 H 0.0 **** 0.0
216 H35363 0.502138361039448 0.0959332932066693 0.763724738115732 H 0.0 **** 0.0
217 H35365 0.520285227928902 0.100074010933921 0.721106660153777 H 0.0 **** 0.0
218 H35367 0.548807313638404 0.107483029816961 0.710669518468499 H 0.0 **** 0.0
219 H35369 0.532739858402984 0.110843351620826 0.622044927254694 H 0.0 **** 0.0
220 H35371 0.568060227417369 0.110700798658845 0.616673113370348 H 0.0 **** 0.0
221 H35373 0.591643182775127 0.123477675227635 0.623707186994999 H 0.0 **** 0.0
222 H35375 0.574039765117129 0.157678189045219 0.624228213592327 H 0.0 **** 0.0
223 H35377 0.5928864442902 0.141609734338868 0.594455091487864 H 0.0 **** 0.0
224 H35379 0.580373759184164 0.160154785224476 0.594691196388189 H 0.0 **** 0.0
225 H35381 0.5697784859644 0.124809616835741 0.589625067094792 H 0.0 **** 0.0
226 H35383 0.558704586630443 0.143554935181689 0.585179320493788 H 0.0 **** 0.0
227 H35385 0.543101164370455 0.126716188237541 0.605559647548858 H 0.0 **** 0.0
228 H35387 0.550065164252087 0.145042081309503 0.616215020074324 H 0.0 **** 0.0
229 H35389 0.334077600978221 0.131835337299888 0.692048687414976 H 0.0 **** 0.0
230 H35391 0.351663303456625 0.156237610344097 0.683335637973116 H 0.0 **** 0.0
231 H35393 0.345294888355561 0.153707975323538 0.661939448934918 H 0.0 **** 0.0
232 H35395 0.357849758536577 0.1379464611362 0.671927072991819 H 0.0 **** 0.0
233 H35397 0.305739503247304 0.145611028733427 0.687892480392587 H 0.0 **** 0.0
234 H35399 0.314673782894606 0.158853556320027 0.672114409167183 H 0.0 **** 0.0
235 H35401 0.321859072409634 0.160346869821528 0.693344311462202 H 0.0 **** 0.0
236 H35403 0.458448272260055 0.0776055477569578 0.616104321842839 H 0.0 **** 0.0
237 H35405 0.591219558235678 0.12749130739268 0.707398979927172 H 0.0 **** 0.0
238 H35407 0.614601601844512 0.144481267937993 0.716593635983223 H 0.0 **** 0.0
239 H35409 0.635802655714354 0.164247576000179 0.711178665535288 H 0.0 **** 0.0
240 H35411 0.657127500664571 0.185362827272494 0.70623980314002 H 0.0 **** 0.0
241 H35413 0.671715154439395 0.204447349433086 0.687623936710367 H 0.0 **** 0.0
242 H35415 0.669532252509035 0.217456680643654 0.630372676125225 H 0.0 **** 0.0
243 H35417 0.676413358061869 0.216324022643131 0.659954214682802 H 0.0 **** 0.0
244 H35419 0.604621616017803 0.16904675112523 0.600513720300803 H 0.0 **** 0.0
245 H35421 0.624191054653971 0.17516127622255 0.583476013149434 H 0.0 **** 0.0
246 H35423 0.616399211269261 0.195846031375803 0.586839694750222 H 0.0 **** 0.0
247 H35425 0.638037767564491 0.19591608189993 0.563918102791984 H 0.0 **** 0.0
248 H35427 0.652853659432456 0.186141497699835 0.577591898488741 H 0.0 **** 0.0
249 H35429 0.636938436626357 0.221537070121273 0.581499789922602 H 0.0 **** 0.0
250 H35431 0.658548800038048 0.217351670143477 0.578884742686071 H 0.0 **** 0.0
@<TRIPOS>BOND
1 3 2 1
2 4 3 1
3 5 4 1
4 6 5 1
5 1 2 1
6 1 6 1
7 8 7 1
8 9 8 1
9 10 9 1
10 4 7 1
11 3 10 1
12 12 11 1
13 13 12 1
14 14 13 1
15 8 11 1
16 7 14 1
17 16 15 1
18 17 16 Partial double
19 18 17 1
20 13 15 1
21 12 18 1
22 20 19 Partial double
23 21 20 Partial double
24 22 21 Partial double
25 17 19 Partial double
26 16 22 Partial double
27 24 23 1
28 25 24 1
29 15 25 Double
30 22 23 1
31 27 26 1
32 28 27 Partial double
33 29 28 Partial double
34 21 26 1
35 20 29 Partial double
36 31 30 1
37 32 31 1
38 18 30 1
39 19 32 1
40 34 33 Double
41 35 34 1
42 36 35 1
43 31 33 1
44 30 36 Double
45 38 37 1
46 39 38 1
47 40 39 Double
48 34 37 1
49 33 40 1
50 42 41 1
51 43 42 1
52 44 43 1
53 40 41 1
54 39 44 1
55 46 45 Partial double
56 32 46 1
57 29 45 Partial double
58 48 47 Partial double
59 49 48 1
60 45 49 Partial double
61 28 47 Partial double
62 51 50 Partial double
63 52 51 Partial double
64 53 52 Partial double
65 48 50 Partial double
66 47 53 Partial double
67 55 54 Partial double
68 56 55 Partial double
69 57 56 Partial double
70 52 54 Partial double
71 51 57 Partial double
72 59 58 Partial double
73 60 59 Partial double
74 61 60 Partial double
75 56 58 Partial double
76 55 61 Partial double
77 63 62 Partial double
78 27 63 Partial double
79 53 62 Partial double
80 65 64 Partial double
81 62 65 Partial double
82 54 64 Partial double
83 67 66 Partial double
84 64 67 Partial double
85 61 66 Partial double
86 69 68 Partial double
87 70 69 Partial double
88 66 70 Partial double
89 60 68 Partial double
90 72 71 1
91 73 72 1
92 74 73 1
93 59 71 1
94 58 74 1
95 76 75 1
96 77 76 1
97 78 77 1
98 73 75 1
99 72 78 1
100 80 79 1
101 81 80 1
102 82 81 1
103 78 79 1
104 77 82 1
105 84 83 Partial double
106 85 84 Partial double
107 67 85 Partial double
108 65 83 Partial double
109 87 86 1
110 88 87 1
111 89 88 1
112 84 86 1
113 83 89 1
114 91 90 1
115 92 91 1
116 93 92 1
117 88 90 1
118 87 93 1
119 95 94 Partial double
120 85 95 Partial double
121 70 94 Partial double
122 97 96 Partial double
123 98 97 Partial double
124 94 98 Partial double
125 69 96 Partial double
126 100 99 Partial double
127 101 100 Partial double
128 68 101 Partial double
129 96 99 Partial double
130 103 102 1
131 104 103 Partial double
132 97 102 1
133 99 104 1
134 106 105 1
135 107 106 1
136 100 105 1
137 104 107 Partial double
138 109 108 1
139 110 109 1
140 111 110 1
141 106 108 1
142 105 111 1
143 113 112 1
144 114 113 1
145 103 114 Partial double
146 107 112 Partial double
147 108 115 1
148 112 116 Partial double
149 115 116 Partial double
150 42 117 1
151 117 118 1
152 117 119 1
153 74 120 1
154 122 121 1
155 123 122 Partial double
156 124 123 1
157 114 121 Partial double
158 113 124 Partial double
159 126 125 Partial double
160 127 126 1
161 128 127 Partial double
162 124 125 Partial double
163 123 128 Partial double
164 130 129 Partial double
165 131 130 1
166 132 131 1
167 127 129 Partial double
168 126 132 Partial double
169 134 133 Partial double
170 135 134 Partial double
171 125 135 Partial double
172 132 133 Partial double
173 137 136 Partial double
174 138 137 Partial double
175 131 138 Partial double
176 133 136 Partial double
177 140 139 Partial double
178 134 140 Partial double
179 116 135 Partial double
180 115 139 Partial double
181 142 141 Partial double
182 140 142 Partial double
183 136 141 Partial double
184 144 143 1
185 145 144 1
186 146 145 1
187 142 143 1
188 141 146 1
189 146 147 Double
190 1 148 1
191 1 149 1
192 2 150 1
193 2 151 1
194 3 152 1
195 4 153 1
196 5 154 1
197 5 155 1
198 7 156 1
199 8 157 1
200 9 158 1
201 9 159 1
202 10 160 1
203 10 161 1
204 12 162 1
205 13 163 1
206 14 164 1
207 14 165 1
208 18 166 1
209 23 167 1
210 23 168 1
211 24 169 1
212 24 170 1
213 25 171 1
214 35 173 1
215 35 174 1
216 36 175 1
217 37 176 1
218 37 177 1
219 38 178 1
220 38 179 1
221 41 180 1
222 41 181 1
223 42 182 1
224 43 183 1
225 43 184 1
226 44 185 1
227 44 186 1
228 46 187 1
229 50 188 1
230 57 189 1
231 63 190 1
232 72 191 1
233 73 192 1
234 74 193 1
235 75 194 1
236 75 195 1
237 76 196 1
238 76 197 1
239 77 198 1
240 78 199 1
241 79 200 1
242 79 201 1
243 80 202 1
244 80 203 1
245 81 204 1
246 81 205 1
247 82 206 1
248 87 207 1
249 88 208 1
250 90 209 1
251 90 210 1
252 91 211 1
253 91 212 1
254 92 213 1
255 92 214 1
256 93 215 1
257 93 216 1
258 95 217 1
259 98 218 1
260 101 219 1
261 105 220 1
262 106 221 1
263 108 222 1
264 109 223 1
265 109 224 1
266 110 225 1
267 110 226 1
268 111 227 1
269 111 228 1
270 117 229 1
271 118 230 1
272 118 231 1
273 118 232 1
274 119 233 1
275 119 234 1
276 119 235 1
277 120 236 1
278 121 237 1
279 122 238 1
280 128 239 1
281 129 240 1
282 130 241 1
283 137 242 1
284 138 243 1
285 139 244 1
286 143 245 1
287 143 246 1
288 144 247 1
289 144 248 1
290 145 249 1
291 145 250 1
292 31 172 1
@<TRIPOS>MOLECULE
Sketch 4
250 292
SMALL
USER_CHARGES


@<TRIPOS>ATOM
1 C35434 0.814989002785098 0.79650806090505 0.0852217796503853 C 0.0 **** 0.0
2 C35435 0.811671306911348 0.777543319994472 0.0888056524911353 C 0.0 **** 0.0
3 C35436 0.796657492836239 0.770619306502979 0.0785294300127566 C 0.0 **** 0.0
4 C35437 0.780746430026802 0.782315242795351 0.08031622339621 C 0.0 **** 0.0
5 C35438 0.785604453632387 0.799296439662349 0.0885567224904698 C 0.0 **** 0.0
6 O35439 0.800296967169978 0.805861858876057 0.0805819474668716 O 0.0 **** 0.0
7 C35446 0.765665267136722 0.772898514993487 0.0884619613555241 C 0.0 **** 0.0
8 C35447 0.761169646356027 0.757380921003087 0.0775236115272908 C 0.0 **** 0.0
9 C35448 0.776562988478444 0.745987043397009 0.073899347900996 C 0.0 **** 0.0
10 C35449 0.792652934639448 0.752081928945714 0.0829190940677333 C 0.0 **** 0.0
11 O35455 0.755340794251358 0.76304749563367 0.0613932110593525 O 0.0 **** 0.0
12 C35456 0.740066400012966 0.772827740987213 0.0617592325640159 C 0.0 **** 0.0
13 C35457 0.742267092135915 0.788447336335276 0.0731885214847454 C 0.0 **** 0.0
14 C35458 0.749562452366702 0.783628466243039 0.0904460509144822 C 0.0 **** 0.0
15 C35464 0.726325788434913 0.798916439496105 0.0749460957395879 C 0.0 **** 0.0
16 C35465 0.709472380817579 0.790659478362405 0.0715668049869382 C 0.0 **** 0.0
17 C35466 0.708614070879528 0.773967692702076 0.0660767090813474 C 0.0 **** 0.0
18 C35467 0.724298190704707 0.762553528741835 0.066212336093867 C 0.0 **** 0.0
19 C35473 0.692998677095602 0.76747201720607 0.0612754505140186 C 0.0 **** 0.0
20 C35474 0.678601553040765 0.777312555787887 0.0629647858077558 C 0.0 **** 0.0
21 C35475 0.679358175393637 0.793490885055326 0.0696530152625593 C 0.0 **** 0.0
22 C35476 0.694937311344509 0.800233640498177 0.0740125683789558 C 0.0 **** 0.0
23 C35482 0.695653616070388 0.817534312218633 0.0822465608458605 C 0.0 **** 0.0
24 C35483 0.712067286887694 0.827053835131414 0.0776532788481857 C 0.0 **** 0.0
25 C35484 0.727375952969728 0.815718675741144 0.0776677612903605 C 0.0 **** 0.0
26 O35489 0.664856450934321 0.803060108267938 0.0722888782161539 O 0.0 **** 0.0
27 C35490 0.649954302610391 0.798099203768667 0.0646355379931344 C 0.0 **** 0.0
28 C35491 0.64751483952594 0.782072058947917 0.0581414386216246 C 0.0 **** 0.0
29 C35492 0.661896389011064 0.769805167118479 0.0585499921909039 C 0.0 **** 0.0
30 C35498 0.721185581062625 0.747173882881241 0.055270724181795 C 0.0 **** 0.0
31 C35499 0.705274907165891 0.738032686322911 0.0607078240900621 C 0.0 **** 0.0
32 C35500 0.691471711146074 0.749898995378604 0.0538368993644948 C 0.0 **** 0.0
33 C35505 0.703379910283183 0.719899308966639 0.0536037562938705 C 0.0 **** 0.0
34 C35506 0.710954454532095 0.716594428967474 0.038454975062922 C 0.0 **** 0.0
35 C35507 0.723416301119383 0.728481935276424 0.0299558544633395 C 0.0 **** 0.0
36 C35508 0.729439582191768 0.742815410684324 0.0411027492690056 C 0.0 **** 0.0
37 C35514 0.709734370850145 0.699865644576679 0.0296277836054291 C 0.0 **** 0.0
38 C35515 0.695495242473863 0.688544200103195 0.0363427389644159 C 0.0 **** 0.0
39 C35516 0.691144717860082 0.692344602210971 0.0544453383712258 C 0.0 **** 0.0
40 C35517 0.694829211841815 0.707418686693352 0.0620604029866461 C 0.0 **** 0.0
41 C35523 0.688880242035906 0.709511849107874 0.080472115380929 C 0.0 **** 0.0
42 C35524 0.687929322120232 0.692504047042495 0.0895714881526668 C 0.0 **** 0.0
43 C35525 0.674896107129859 0.681579061703223 0.0801190165013355 C 0.0 **** 0.0
44 C35526 0.681277559222309 0.677956494391646 0.0622459092962091 C 0.0 **** 0.0
45 C35532 0.660108573810107 0.753148093808132 0.0549600260705604 C 0.0 **** 0.0
46 C35533 0.673657192393976 0.742742127250461 0.0533294646983308 C 0.0 **** 0.0
47 C35537 0.631806417086266 0.777880681290479 0.0508506292484396 C 0.0 **** 0.0
48 C35538 0.627895662318246 0.761106621808034 0.0459872263456689 C 0.0 **** 0.0
49 S35539 0.640143230825166 0.744361260446848 0.0528695499638249 S 0.0 **** 0.0
50 C35544 0.613699992647421 0.757251304048236 0.0370142192284703 C 0.0 **** 0.0
51 C35545 0.601746377915149 0.770069947998307 0.0337322370669676 C 0.0 **** 0.0
52 C35546 0.604514022137968 0.786648020444811 0.0399662354517818 C 0.0 **** 0.0
53 C35547 0.619612894735975 0.790629888673998 0.0481183628352357 C 0.0 **** 0.0
54 C35553 0.59128826224367 0.798246582711219 0.0392412794357667 C 0.0 **** 0.0
55 C35554 0.575169575945471 0.793156000791989 0.0337926345274727 C 0.0 **** 0.0
56 C35555 0.572441887930161 0.776981298972083 0.0266079186211326 C 0.0 **** 0.0
57 C35556 0.586252801508412 0.765874347514941 0.0262558186934934 C 0.0 **** 0.0
58 C35562 0.55602067869594 0.771898055384998 0.0223521085444581 C 0.0 **** 0.0
59 C35563 0.5424614731626 0.780907894664288 0.0288162827745068 C 0.0 **** 0.0
60 C35564 0.544851009221886 0.797128050026751 0.035868965136203 C 0.0 **** 0.0
61 C35565 0.561337189102274 0.803629837237318 0.0363540256128303 C 0.0 **** 0.0
62 C35571 0.622168840953096 0.807082683848324 0.0544581395144664 C 0.0 **** 0.0
63 C35572 0.637154016440648 0.809806392464296 0.0636648078332305 C 0.0 **** 0.0
64 C35576 0.593875107038605 0.814759062029321 0.0448528259366781 C 0.0 **** 0.0
65 C35577 0.609592895291712 0.819751156215001 0.0515163071075432 C 0.0 **** 0.0
66 C35581 0.563986383442975 0.820464683297375 0.0406486498777951 C 0.0 **** 0.0
67 C35582 0.580412722198025 0.825971065343281 0.0442702881748781 C 0.0 **** 0.0
68 C35586 0.531296694566917 0.807022601722653 0.0423061907780027 C 0.0 **** 0.0
69 C35587 0.533939463831758 0.824411867279823 0.0449566496667502 C 0.0 **** 0.0
70 C35588 0.550123176966333 0.831107588371407 0.0432350562202162 C 0.0 **** 0.0
71 O35593 0.526431424192121 0.773846900701273 0.0273408440484289 O 0.0 **** 0.0
72 C35594 0.526157349669611 0.756775401399542 0.0337435579053334 C 0.0 **** 0.0
73 C35595 0.540848514863262 0.74580576819419 0.0263770992785816 C 0.0 **** 0.0
74 C35596 0.55050645855024 0.756012681324301 0.0131517413815014 C 0.0 **** 0.0
75 C35602 0.534881566058358 0.728479790649724 0.0199390968367149 C 0.0 **** 0.0
76 C35603 0.523442127645652 0.720404713188029 0.033238161751836 C 0.0 **** 0.0
77 C35604 0.506581829211977 0.73002484541669 0.034175730076722 C 0.0 **** 0.0
78 C35605 0.508514831060504 0.749265589223705 0.0300742781706009 C 0.0 **** 0.0
79 C35611 0.494199592045941 0.759907689489702 0.0380087438736316 C 0.0 **** 0.0
80 C35612 0.478102834538559 0.749265238824884 0.0388617338309112 C 0.0 **** 0.0
81 C35613 0.480388348737641 0.733313996433539 0.0499496337449481 C 0.0 **** 0.0
82 N35614 0.497718836293965 0.726510097462251 0.0498368362359021 N 0.0 **** 0.0
83 C35620 0.612214339897855 0.836958227727598 0.0558643813090801 C 0.0 **** 0.0
84 C35621 0.598876929348158 0.848256479909842 0.0550975109624329 C 0.0 **** 0.0
85 C35622 0.583057767872608 0.842807977083789 0.0490010395331174 C 0.0 **** 0.0
86 O35627 0.600066201996322 0.864915865266287 0.0604106303546662 O 0.0 **** 0.0
87 C35628 0.61630363267656 0.870408790932583 0.065977611641199 C 0.0 **** 0.0
88 C35629 0.626415264474874 0.856102024492259 0.0733333705509877 C 0.0 **** 0.0
89 O35630 0.627845210345633 0.842710430147905 0.061290532641121 O 0.0 **** 0.0
90 C35636 0.619618838774897 0.849437023482384 0.0905222042768675 C 0.0 **** 0.0
91 C35637 0.606292692718044 0.861085014965381 0.0985763702501659 C 0.0 **** 0.0
92 C35638 0.611681562330374 0.879613790455659 0.0969720021116466 C 0.0 **** 0.0
93 C35639 0.613350593079585 0.885205734983792 0.0782925565346811 C 0.0 **** 0.0
94 C35645 0.552858475399958 0.848287432576613 0.0474415339889429 C 0.0 **** 0.0
95 C35646 0.569504479277456 0.854208132275574 0.0491482998241676 C 0.0 **** 0.0
96 C35650 0.521126569568134 0.834015723090466 0.0526322805291674 C 0.0 **** 0.0
97 C35651 0.52387335323588 0.851230143461156 0.0565891615852823 C 0.0 **** 0.0
98 C35652 0.539291141855817 0.858310328720703 0.0531651724019341 C 0.0 **** 0.0
99 C35657 0.50610445318409 0.826413220656408 0.0584198289840016 C 0.0 **** 0.0
100 C35658 0.503744119525158 0.80918376501281 0.0567357835167818 C 0.0 **** 0.0
101 C35659 0.516051207882485 0.800046111919023 0.0484958888723006 C 0.0 **** 0.0
102 O35664 0.51170751294422 0.861259303175583 0.0639517256057013 O 0.0 **** 0.0
103 C35665 0.497748199886279 0.853702186385464 0.0710483277411033 C 0.0 **** 0.0
104 C35666 0.493853011056324 0.837121463419208 0.0680748356559957 C 0.0 **** 0.0
105 C35671 0.488297952785332 0.799862510317557 0.0634139153814569 C 0.0 **** 0.0
106 C35672 0.473772059564343 0.81218046808466 0.0699744748602639 C 0.0 **** 0.0
107 C35673 0.479145829392886 0.830323622828983 0.0740655339716001 C 0.0 **** 0.0
108 C35678 0.46455865028197 0.804333923934083 0.0853504057906139 C 0.0 **** 0.0
109 C35679 0.461051208510972 0.785438925621064 0.0825980944112725 C 0.0 **** 0.0
110 C35680 0.478011183641906 0.775638104160484 0.0820548776948368 C 0.0 **** 0.0
111 C35681 0.493153955567688 0.787056933359552 0.077238192161917 C 0.0 **** 0.0
112 C35687 0.468728848262892 0.840088942448847 0.0838384325377118 C 0.0 **** 0.0
113 C35688 0.472939612192707 0.856587822215542 0.0872859990653298 C 0.0 **** 0.0
114 C35689 0.487441640039633 0.863371584659316 0.0809467587588791 C 0.0 **** 0.0
115 C35694 0.44936708348562 0.815311657525977 0.089849249916289 C 0.0 **** 0.0
116 C35696 0.452399329922661 0.832614696165139 0.0903084509272891 C 0.0 **** 0.0
117 C35699 0.684978446009736 0.694359335959469 0.10880489182265 C 0.0 **** 0.0
118 C35701 0.668432314813833 0.703349237661915 0.113165639318353 C 0.0 **** 0.0
119 C35703 0.685727559020135 0.677333241665457 0.118051184394267 C 0.0 **** 0.0
120 O35705 0.563837527461976 0.746350214211131 0.00592606443763376 O 0.0 **** 0.0
121 C35707 0.491590256079486 0.879817512369692 0.084445684112686 C 0.0 **** 0.0
122 C35708 0.481547663141292 0.88937485315906 0.094640695469756 C 0.0 **** 0.0
123 C35709 0.467006522284125 0.882726165261933 0.101083311309829 C 0.0 **** 0.0
124 C35710 0.462613184611881 0.86649148723623 0.0969850677049406 C 0.0 **** 0.0
125 C35716 0.446249047461204 0.85972252677382 0.102984684297533 C 0.0 **** 0.0
126 C35717 0.436501956032197 0.869513664047642 0.113338798233452 C 0.0 **** 0.0
127 C35718 0.442321422017564 0.886644973082471 0.11803374281565 C 0.0 **** 0.0
128 C35719 0.457226136943684 0.892649354872794 0.111552724887071 C 0.0 **** 0.0
129 C35725 0.432536998891844 0.896267661145532 0.128564430264114 C 0.0 **** 0.0
130 C35726 0.417363226139494 0.8904011286148 0.13459387776302 C 0.0 **** 0.0
131 C35727 0.41133436174028 0.874716929889472 0.130377526277462 C 0.0 **** 0.0
132 C35728 0.421387728455254 0.863569971582465 0.119265297104063 C 0.0 **** 0.0
133 C35734 0.415470183483137 0.847439055043491 0.114810041501778 C 0.0 **** 0.0
134 C35735 0.425601359328347 0.837308552594373 0.104483935888701 C 0.0 **** 0.0
135 C35736 0.441122306260012 0.843380282237046 0.0985890985433223 C 0.0 **** 0.0
136 C35741 0.399719910712931 0.841534350839547 0.120310822367352 C 0.0 **** 0.0
137 C35742 0.39008433019914 0.853712062970768 0.131649429531146 C 0.0 **** 0.0
138 C35743 0.396095016118197 0.86924683235632 0.136242159674755 C 0.0 **** 0.0
139 C35748 0.43362664891374 0.809566810325167 0.0948001410804284 C 0.0 **** 0.0
140 C35749 0.420804137822963 0.82064873655079 0.100989700707023 C 0.0 **** 0.0
141 C35754 0.39381576765052 0.825844532297227 0.114711664681579 C 0.0 **** 0.0
142 C35755 0.404135474921124 0.815512615859954 0.104772177591735 C 0.0 **** 0.0
143 C35759 0.398194092902029 0.798277653221611 0.0985873703207805 C 0.0 **** 0.0
144 C35760 0.379372476689373 0.798651226843082 0.0942311451625794 C 0.0 **** 0.0
145 C35761 0.369576287414854 0.804623191344861 0.109505149211243 C 0.0 **** 0.0
146 C35762 0.376363143272389 0.819655342121162 0.119014550023381 C 0.0 **** 0.0
147 O35768 0.367198656544711 0.825615160873176 0.129771081586123 O 0.0 **** 0.0
148 H35770 0.823741898523576 0.79787803056638 0.0745090479297266 H 0.0 **** 0.0
149 H35772 0.821047423227843 0.802522912423909 0.0962446124706541 H 0.0 **** 0.0
150 H35774 0.823189397127097 0.770086767232627 0.0863248432896575 H 0.0 **** 0.0
151 H35776 0.808813160464387 0.775745858022805 0.102352256559356 H 0.0 **** 0.0
152 H35778 0.800466628986646 0.77096784546465 0.0650944956191319 H 0.0 **** 0.0
153 H35780 0.776953128777279 0.78559488837854 0.0672781144167125 H 0.0 **** 0.0
154 H35782 0.787432992195501 0.798001477090504 0.102332159678128 H 0.0 **** 0.0
155 H35784 0.775619808549143 0.808773663515077 0.0866336946014022 H 0.0 **** 0.0
156 H35786 0.769574138201881 0.768585662601338 0.101154131246435 H 0.0 **** 0.0
157 H35788 0.751290945062506 0.749910745251848 0.0839454858526922 H 0.0 **** 0.0
158 H35790 0.778784020471189 0.746313939783071 0.0601744728145132 H 0.0 **** 0.0
159 H35792 0.77412226964638 0.732647097316244 0.0770474185712724 H 0.0 **** 0.0
160 H35794 0.803466393796736 0.743918279756108 0.0797086865585647 H 0.0 **** 0.0
161 H35796 0.790940589310113 0.750820153085642 0.0967084057247332 H 0.0 **** 0.0
162 H35798 0.738726599151688 0.777221498256652 0.0486676344078553 H 0.0 **** 0.0
163 H35800 0.751661047715908 0.796625101789279 0.0669191294068078 H 0.0 **** 0.0
164 H35802 0.740160403700241 0.776202644420544 0.0976031473990361 H 0.0 **** 0.0
165 H35804 0.752057872681823 0.794992225224139 0.0981212722670369 H 0.0 **** 0.0
166 H35806 0.725853937647962 0.757781801558747 0.0792797164975437 H 0.0 **** 0.0
167 H35808 0.684720004026949 0.825290408973425 0.078517663879258 H 0.0 **** 0.0
168 H35810 0.694863952770234 0.816008764985958 0.0960956752285218 H 0.0 **** 0.0
169 H35812 0.714016595531653 0.837723174252727 0.0864328359362711 H 0.0 **** 0.0
170 H35814 0.710606825542885 0.83251415957982 0.0649671843626747 H 0.0 **** 0.0
171 H35816 0.739511786919142 0.822123602427254 0.0789996666238293 H 0.0 **** 0.0
172 H35818 0.704766319419352 0.737942805325819 0.0746054432021302 H 0.0 **** 0.0
173 H35819 0.717752193553437 0.733714533792519 0.0183815532954569 H 0.0 **** 0.0
174 H35821 0.734570644151271 0.721080338489813 0.0259618155886616 H 0.0 **** 0.0
175 H35823 0.740369113324177 0.749983273944537 0.0367485528193946 H 0.0 **** 0.0
176 H35825 0.708088104046643 0.701697659690405 0.0159298869109605 H 0.0 **** 0.0
177 H35827 0.721846409000956 0.693345956389218 0.0312915527735932 H 0.0 **** 0.0
178 H35829 0.699251926963955 0.67516926322755 0.0349889799313796 H 0.0 **** 0.0
179 H35831 0.68401332203913 0.690256625225807 0.0286249663545494 H 0.0 **** 0.0
180 H35833 0.697576911049835 0.717765475772758 0.0875091459713155 H 0.0 **** 0.0
181 H35835 0.676431639661145 0.715758378831134 0.0805960217683878 H 0.0 **** 0.0
182 H35837 0.700368807467314 0.686232867854628 0.0882129178912281 H 0.0 **** 0.0
183 H35839 0.662729893970406 0.688364726868867 0.0795965748253082 H 0.0 **** 0.0
184 H35841 0.672404147909878 0.669478212008294 0.0865518482834293 H 0.0 **** 0.0
185 H35843 0.670687462560606 0.674522864251367 0.053825258859207 H 0.0 **** 0.0
186 H35845 0.689710459447448 0.666846282679459 0.0626802052690588 H 0.0 **** 0.0
187 H35847 0.671978194251471 0.729316265166585 0.0508244502459608 H 0.0 **** 0.0
188 H35849 0.610914534877525 0.744196620114123 0.0332584141393509 H 0.0 **** 0.0
189 H35851 0.584853108119458 0.752622361813131 0.0225052183442873 H 0.0 **** 0.0
190 H35853 0.640081139045672 0.821635523682344 0.0701627025941684 H 0.0 **** 0.0
191 H35855 0.527748154756407 0.757520581762326 0.0475704615235551 H 0.0 **** 0.0
192 H35857 0.549873035036793 0.742955648726915 0.0366162953332883 H 0.0 **** 0.0
193 H35859 0.541685999526723 0.759489411159581 0.0028463960053665 H 0.0 **** 0.0
194 H35861 0.527980260852492 0.729913572615959 0.00792219786740253 H 0.0 **** 0.0
195 H35863 0.546014375234233 0.720565417790296 0.0172953647341521 H 0.0 **** 0.0
196 H35865 0.529931180570248 0.720929069132688 0.0455684717441644 H 0.0 **** 0.0
197 H35867 0.521017331206748 0.706933308936093 0.0306648035064295 H 0.0 **** 0.0
198 H35869 0.498546588753752 0.724720944685587 0.0240374993790337 H 0.0 **** 0.0
199 H35871 0.507322591194072 0.750202895828026 0.0162385929754076 H 0.0 **** 0.0
200 H35873 0.497742779474747 0.76347501698451 0.0509792770053807 H 0.0 **** 0.0
201 H35875 0.492217200602273 0.771720607938456 0.0309110795218812 H 0.0 **** 0.0
202 H35877 0.474894839004744 0.745305493247577 0.0258761895922389 H 0.0 **** 0.0
203 H35879 0.467248818329475 0.756591004619237 0.0435163741391704 H 0.0 **** 0.0
204 H35881 0.471773711004675 0.723395112791549 0.0453579376167101 H 0.0 **** 0.0
205 H35883 0.476672573058802 0.735995857975999 0.0630910863725282 H 0.0 **** 0.0
206 H35885 0.504344357772903 0.730733639847125 0.059764238281825 H 0.0 **** 0.0
207 H35887 0.622948686252287 0.874924625081271 0.0546315158908573 H 0.0 **** 0.0
208 H35889 0.639297018411823 0.860955369485028 0.0754930301819586 H 0.0 **** 0.0
209 H35891 0.614222873422895 0.836768970284759 0.0886511283061623 H 0.0 **** 0.0
210 H35893 0.630145014549587 0.847698531830983 0.0994826941630091 H 0.0 **** 0.0
211 H35895 0.604243624436405 0.857591106298629 0.111906641822481 H 0.0 **** 0.0
212 H35897 0.594105188116834 0.859225071480366 0.0921065146766225 H 0.0 **** 0.0
213 H35899 0.624063785707678 0.881022258113455 0.103186135936799 H 0.0 **** 0.0
214 H35901 0.602915668043761 0.888052362585847 0.103756194219984 H 0.0 **** 0.0
215 H35903 0.623146141317545 0.894986282860405 0.0774284801626109 H 0.0 **** 0.0
216 H35905 0.601546982092992 0.891379110361318 0.0742176721067075 H 0.0 **** 0.0
217 H35907 0.571537442035444 0.867299101821903 0.0533422696713384 H 0.0 **** 0.0
218 H35909 0.541608422005146 0.871577431053587 0.0565707796786042 H 0.0 **** 0.0
219 H35911 0.513985788256939 0.786402241047158 0.047983431318036 H 0.0 **** 0.0
220 H35913 0.482726155084889 0.792616982484302 0.0528490249254553 H 0.0 **** 0.0
221 H35915 0.464503465989325 0.81307786046438 0.0595633467907811 H 0.0 **** 0.0
222 H35917 0.473119113339715 0.805092257288613 0.0964127282152423 H 0.0 **** 0.0
223 H35919 0.454161117881106 0.783807187387817 0.0706028957847449 H 0.0 **** 0.0
224 H35921 0.453030648449004 0.780119800092607 0.0926557643213879 H 0.0 **** 0.0
225 H35923 0.477043967535381 0.765068890455414 0.0730558434118379 H 0.0 **** 0.0
226 H35925 0.480482512907275 0.769825402706771 0.0944811962541546 H 0.0 **** 0.0
227 H35927 0.503930309132489 0.77908069550062 0.0734656291573678 H 0.0 **** 0.0
228 H35929 0.497461303274688 0.794095499220068 0.0884856339716129 H 0.0 **** 0.0
229 H35931 0.695463155663386 0.702173756087155 0.113768812480817 H 0.0 **** 0.0
230 H35933 0.666802892763551 0.704388023487782 0.12695081851688 H 0.0 **** 0.0
231 H35935 0.657668171547576 0.696223186808322 0.108055426747126 H 0.0 **** 0.0
232 H35937 0.667873248948874 0.716211340083325 0.107925530331735 H 0.0 **** 0.0
233 H35939 0.697560690544177 0.670545331328005 0.115335154860331 H 0.0 **** 0.0
234 H35941 0.675137517271508 0.669121037536426 0.11431335284192 H 0.0 **** 0.0
235 H35943 0.684974350633281 0.679151083022832 0.13183244482198 H 0.0 **** 0.0
236 H35945 0.570212251855418 0.754065284423025 -0.000755067589362288 H 0.0 **** 0.0
237 H35947 0.503072883118041 0.885569350550674 0.0794118414632934 H 0.0 **** 0.0
238 H35949 0.485356737894229 0.902348524474954 0.0974020832371122 H 0.0 **** 0.0
239 H35951 0.4614394439721 0.90538783994435 0.114701167094067 H 0.0 **** 0.0
240 H35953 0.436590239206964 0.908890463766087 0.132326857076461 H 0.0 **** 0.0
241 H35955 0.410046740728216 0.898702161423101 0.142791021500722 H 0.0 **** 0.0
242 H35957 0.377835661757903 0.850108043335778 0.136584511240285 H 0.0 **** 0.0
243 H35959 0.38841685689536 0.877103806634997 0.14455509838965 H 0.0 **** 0.0
244 H35961 0.431010715596687 0.796020538919662 0.0935338761667201 H 0.0 **** 0.0
245 H35963 0.405228672177142 0.79447330157707 0.0872207281930443 H 0.0 **** 0.0
246 H35965 0.400685335953747 0.78858513164699 0.108254658310196 H 0.0 **** 0.0
247 H35967 0.374831830628634 0.786094131124803 0.0902809704456695 H 0.0 **** 0.0
248 H35969 0.377357388834131 0.807261395061403 0.0834465229217012 H 0.0 **** 0.0
249 H35971 0.36880932856645 0.794873029005529 0.11940357738899 H 0.0 **** 0.0
250 H35973 0.356468599154905 0.808509670065091 0.106963625075981 H 0.0 **** 0.0
@<TRIPOS>BOND
1 3 2 1
2 4 3 1
3 5 4 1
4 6 5 1
5 1 2 1
6 1 6 1
7 8 7 1
8 9 8 1
9 10 9 1
10 4 7 1
11 3 10 1
12 12 11 1
13 13 12 1
14 14 13 1
15 8 11 1
16 7 14 1
17 16 15 1
18 17 16 Partial double
19 18 17 1
20 13 15 1
21 12 18 1
22 20 19 Partial double
23 21 20 Partial double
24 22 21 Partial double
25 17 19 Partial double
26 16 22 Partial double
27 24 23 1
28 25 24 1
29 15 25 Double
30 22 23 1
31 27 26 1
32 28 27 Partial double
33 29 28 Partial double
34 21 26 1
35 20 29 Partial double
36 31 30 1
37 32 31 1
38 18 30 1
39 19 32 1
40 34 33 Double
41 35 34 1
42 36 35 1
43 31 33 1
44 30 36 Double
45 38 37 1
46 39 38 1
47 40 39 Double
48 34 37 1
49 33 40 1
50 42 41 1
51 43 42 1
52 44 43 1
53 40 41 1
54 39 44 1
55 46 45 Partial double
56 32 46 1
57 29 45 Partial double
58 48 47 Partial double
59 49 48 1
60 45 49 Partial double
61 28 47 Partial double
62 51 50 Partial double
63 52 51 Partial double
64 53 52 Partial double
65 48 50 Partial double
66 47 53 Partial double
67 55 54 Partial double
68 56 55 Partial double
69 57 56 Partial double
70 52 54 Partial double
71 51 57 Partial double
72 59 58 Partial double
73 60 59 Partial double
74 61 60 Partial double
75 56 58 Partial double
76 55 61 Partial double
77 63 62 Partial double
78 27 63 Partial double
79 53 62 Partial double
80 65 64 Partial double
81 62 65 Partial double
82 54 64 Partial double
83 67 66 Partial double
84 64 67 Partial double
85 61 66 Partial double
86 69 68 Partial double
87 70 69 Partial double
88 66 70 Partial double
89 60 68 Partial double
90 72 71 1
91 73 72 1
92 74 73 1
93 59 71 1
94 58 74 1
95 76 75 1
96 77 76 1
97 78 77 1
98 73 75 1
99 72 78 1
100 80 79 1
101 81 80 1
102 82 81 1
103 78 79 1
104 77 82 1
105 84 83 Partial double
106 85 84 Partial double
107 67 85 Partial double
108 65 83 Partial double
109 87 86 1
110 88 87 1
111 89 88 1
112 84 86 1
113 83 89 1
114 91 90 1
115 92 91 1
116 93 92 1
117 88 90 1
118 87 93 1
119 95 94 Partial double
120 85 95 Partial double
121 70 94 Partial double
122 97 96 Partial double
123 98 97 Partial double
124 94 98 Partial double
125 69 96 Partial double
126 100 99 Partial double
127 101 100 Partial double
128 68 101 Partial double
129 96 99 Partial double
130 103 102 1
131 104 103 Partial double
132 97 102 1
133 99 104 1
134 106 105 1
135 107 106 1
136 100 105 1
137 104 107 Partial double
138 109 108 1
139 110 109 1
140 111 110 1
141 106 108 1
142 105 111 1
143 113 112 1
144 114 113 1
145 103 114 Partial double
146 107 112 Partial double
147 108 115 1
148 112 116 Partial double
149 115 116 Partial double
150 42 117 1
151 117 118 1
152 117 119 1
153 74 120 1
154 122 121 1
155 123 122 Partial double
156 124 123 1
157 114 121 Partial double
158 113 124 Partial double
159 126 125 Partial double
160 127 126 1
161 128 127 Partial double
162 124 125 Partial double
163 123 128 Partial double
164 130 129 Partial double
165 131 130 1
166 132 131 1
167 127 129 Partial double
168 126 132 Partial double
169 134 133 Partial double
170 135 134 Partial double
171 125 135 Partial double
172 132 133 Partial double
173 137 136 Partial double
174 138 137 Partial double
175 131 138 Partial double
176 133 136 Partial double
177 140 139 Partial double
178 134 140 Partial double
179 116 135 Partial double
180 115 139 Partial double
181 142 141 Partial double
182 140 142 Partial double
183 136 141 Partial double
184 144 143 1
185 145 144 1
186 146 145 1
187 142 143 1
188 141 146 1
189 146 147 Double
190 1 148 1
191 1 149 1
192 2 150 1
193 2 151 1
194 3 152 1
195 4 153 1
196 5 154 1
197 5 155 1
198 7 156 1
199 8 157 1
200 9 158 1
201 9 159 1
202 10 160 1
203 10 161 1
204 12 162 1
205 13 163 1
206 14 164 1
207 14 165 1
208 18 166 1
209 23 167 1
210 23 168 1
211 24 169 1
212 24 170 1
213 25 171 1
214 35 173 1
215 35 174 1
216 36 175 1
217 37 176 1
218 37 177 1
219 38 178 1
220 38 179 1
221 41 180 1
222 41 181 1
223 42 182 1
224 43 183 1
225 43 184 1
226 44 185 1
227 44 186 1
228 46 187 1
229 50 188 1
230 57 189 1
231 63 190 1
232 72 191 1
233 73 192 1
234 74 193 1
235 75 194 1
236 75 195 1
237 76 196 1
238 76 197 1
239 77 198 1
240 78 199 1
241 79 200 1
242 79 201 1
243 80 202 1
244 80 203 1
245 81 204 1
246 81 205 1
247 82 206 1
248 87 207 1
249 88 208 1
250 90 209 1
251 90 210 1
252 91 211 1
253 91 212 1
254 92 213 1
255 92 214 1
256 93 215 1
257 93 216 1
258 95 217 1
259 98 218 1
260 101 219 1
261 105 220 1
262 106 221 1
263 108 222 1
264 109 223 1
265 109 224 1
266 110 225 1
267 110 226 1
268 111 227 1
269 111 228 1
270 117 229 1
271 118 230 1
272 118 231 1
273 118 232 1
274 119 233 1
275 119 234 1
276 119 235 1
277 120 236 1
278 121 237 1
279 122 238 1
280 128 239 1
281 129 240 1
282 130 241 1
283 137 242 1
284 138 243 1
285 139 244 1
286 143 245 1
287 143 246 1
288 144 247 1
289 144 248 1
290 145 249 1
291 145 250 1
292 31 172 1
@<TRIPOS>MOLECULE
Sketch 4
250 292
SMALL
USER_CHARGES


@<TRIPOS>ATOM
1 C35976 0.00262401534979967 0.827323565520333 0.977918531227238 C 0.0 **** 0.0
2 C35977 0.00541012219461792 0.818603345605961 0.960534421379211 C 0.0 **** 0.0
3 C35978 0.0204468493492656 0.806249131684318 0.961202006245732 C 0.0 **** 0.0
4 C35979 0.0368227556740795 0.815403250749651 0.967527090033544 C 0.0 **** 0.0
5 C35980 0.0319061981641807 0.829861739536482 0.979890927797468 C 0.0 **** 0.0
6 O35981 0.0168353634211522 0.825859060426512 0.988841609639134 O 0.0 **** 0.0
7 C35988 0.0492791128174535 0.821155146595366 0.953429586890658 C 0.0 **** 0.0
8 C35989 0.0525107096158588 0.807170087063367 0.939835836844558 C 0.0 **** 0.0
9 C35990 0.0414573931905386 0.791450541758505 0.942275363104356 C 0.0 **** 0.0
10 C35991 0.0229347083688772 0.796336116288635 0.944596368614075 C 0.0 **** 0.0
11 O35997 0.0696058250714496 0.8014869108413 0.939664781409502 O 0.0 **** 0.0
12 C35998 0.081457256345597 0.814473468716524 0.935391882680343 C 0.0 **** 0.0
13 C35999 0.0816539512356336 0.828766548783786 0.949223348430403 C 0.0 **** 0.0
14 C36000 0.0661935049313607 0.826790039888007 0.961519806355527 C 0.0 **** 0.0
15 C36006 0.0850503115721191 0.846502884181348 0.942457160302357 C 0.0 **** 0.0
16 C36007 0.0946233126476854 0.847625407805399 0.926013744615351 C 0.0 **** 0.0
17 C36008 0.0929576361545929 0.834819220074186 0.91419453444126 C 0.0 **** 0.0
18 C36009 0.0797358570187453 0.821091331983465 0.917246450023852 C 0.0 **** 0.0
19 C36015 0.102244346678845 0.835644474225931 0.899346364343314 C 0.0 **** 0.0
20 C36016 0.112593605212844 0.849467414606308 0.896387887274058 C 0.0 **** 0.0
21 C36017 0.113601176011779 0.862714520959235 0.907882969667805 C 0.0 **** 0.0
22 C36018 0.104426346768919 0.861841087638324 0.922835721085064 C 0.0 **** 0.0
23 C36024 0.105093324647688 0.876060469592603 0.935641241966621 C 0.0 **** 0.0
24 C36025 0.0877452228682285 0.877800291944877 0.944585153389679 C 0.0 **** 0.0
25 C36026 0.0817357805426203 0.86081155716051 0.951128115961297 C 0.0 **** 0.0
26 O36031 0.123423068052142 0.87690803265672 0.90460121598818 O 0.0 **** 0.0
27 C36032 0.135253801430743 0.876194983772401 0.891738788086844 C 0.0 **** 0.0
28 C36033 0.135048389101842 0.864028068667084 0.879181035168826 C 0.0 **** 0.0
29 C36034 0.121947116308791 0.850414211911659 0.880031214891226 C 0.0 **** 0.0
30 C36040 0.0805248653221625 0.807815976839556 0.903397147399495 C 0.0 **** 0.0
31 C36041 0.0821944279258279 0.815766096250255 0.885975536861309 C 0.0 **** 0.0
32 C36042 0.100729708098013 0.821790540698235 0.886294098149106 C 0.0 **** 0.0
33 C36047 0.078089922949058 0.803949372454404 0.870930572286351 C 0.0 **** 0.0
34 C36048 0.0789871628552636 0.786947075929997 0.873783573182139 C 0.0 **** 0.0
35 C36049 0.0826360141644642 0.778960342158591 0.890828335997295 C 0.0 **** 0.0
36 C36050 0.0812618819559676 0.791004187132489 0.905542939742908 C 0.0 **** 0.0
37 C36056 0.0742316858680881 0.773933368148121 0.860855566462956 C 0.0 **** 0.0
38 C36057 0.0742856795863392 0.780872649256013 0.842765360204464 C 0.0 **** 0.0
39 C36058 0.0713153680369284 0.799588824630317 0.841917914345702 C 0.0 **** 0.0
40 C36059 0.0733108370029341 0.810142267075634 0.855446212257091 C 0.0 **** 0.0
41 C36065 0.0701953321884456 0.829144597258026 0.8522741082975 C 0.0 **** 0.0
42 C36066 0.0584697796563634 0.832291223239749 0.837286959662435 C 0.0 **** 0.0
43 C36067 0.0664928133692539 0.824014579245244 0.821620869725804 C 0.0 **** 0.0
44 C36068 0.0671812511681362 0.804891195407316 0.824032928397522 C 0.0 **** 0.0
45 C36074 0.119069083624283 0.839362956472584 0.867246573619651 C 0.0 **** 0.0
46 C36075 0.10879332099762 0.825719420013064 0.869260236750373 C 0.0 **** 0.0
47 C36079 0.147362598620804 0.864535100640789 0.866255720440377 C 0.0 **** 0.0
48 C36080 0.146309803316383 0.854138446793031 0.851726205476352 C 0.0 **** 0.0
49 S36081 0.128110953322285 0.8427086883062 0.847476583771704 S 0.0 **** 0.0
50 C36086 0.15884745750499 0.853701257805945 0.839864136626962 C 0.0 **** 0.0
51 C36087 0.173173870392409 0.864165222207452 0.84176170126715 C 0.0 **** 0.0
52 C36088 0.174220364215491 0.875334220978957 0.855730391305573 C 0.0 **** 0.0
53 C36089 0.161311499075584 0.875594589171382 0.867754592991274 C 0.0 **** 0.0
54 C36095 0.18775918865467 0.886594123993685 0.856616493295558 C 0.0 **** 0.0
55 C36096 0.199688379006729 0.887600997406019 0.843460391696591 C 0.0 **** 0.0
56 C36097 0.199255207730201 0.875978634437713 0.829854727298077 C 0.0 **** 0.0
57 C36098 0.185801861887268 0.864435066386984 0.829324726541134 C 0.0 **** 0.0
58 C36104 0.211032639940231 0.877467579816052 0.816748214650688 C 0.0 **** 0.0
59 C36105 0.220325251197359 0.892268270482511 0.815322232685194 C 0.0 **** 0.0
60 C36106 0.222064144441451 0.903357112861644 0.829186765627552 C 0.0 **** 0.0
61 C36107 0.212162505238144 0.900005373763664 0.843593635148633 C 0.0 **** 0.0
62 C36113 0.162035170367858 0.887284139739291 0.881153334255631 C 0.0 **** 0.0
63 C36114 0.147732495583093 0.888298240452415 0.891666165958968 C 0.0 **** 0.0
64 C36118 0.1894326082974 0.896910100278548 0.870808305041202 C 0.0 **** 0.0
65 C36119 0.177163415453389 0.896819262642294 0.88367019270594 C 0.0 **** 0.0
66 C36123 0.214676644914193 0.909158045229838 0.858421457070837 C 0.0 **** 0.0
67 C36124 0.203554729961725 0.90716341803715 0.872049122213732 C 0.0 **** 0.0
68 C36128 0.234428164737039 0.916592487175576 0.829691664730965 C 0.0 **** 0.0
69 C36129 0.237001423762914 0.925150794841047 0.845100206425351 C 0.0 **** 0.0
70 C36130 0.227775873680422 0.920887117194885 0.859356338006657 C 0.0 **** 0.0
71 O36135 0.228765935496169 0.894912657925035 0.800100055094795 O 0.0 **** 0.0
72 C36136 0.217563252826483 0.892887456151001 0.785850967253685 C 0.0 **** 0.0
73 C36137 0.208104233349691 0.875486193830738 0.786406754175034 C 0.0 **** 0.0
74 C36138 0.213951856061742 0.865651363137371 0.80191272070946 C 0.0 **** 0.0
75 C36144 0.209951226671869 0.86561307283804 0.769805029211552 C 0.0 **** 0.0
76 C36145 0.204670726757697 0.877276103138922 0.755386844426518 C 0.0 **** 0.0
77 C36146 0.217850416472428 0.891323701500396 0.752817653624882 C 0.0 **** 0.0
78 C36147 0.2278112766263 0.895536453251956 0.769333097503211 C 0.0 **** 0.0
79 C36153 0.236261964973836 0.913176446984827 0.768421264964733 C 0.0 **** 0.0
80 C36154 0.239271944679016 0.91818422638468 0.749924106257297 C 0.0 **** 0.0
81 C36155 0.222657866022431 0.918942676891507 0.739616198195235 C 0.0 **** 0.0
82 N36156 0.210288776333445 0.905922615498666 0.744652420537504 N 0.0 **** 0.0
83 C36162 0.180008423276179 0.906091475044273 0.898771547633993 C 0.0 **** 0.0
84 C36163 0.194221008060473 0.916177518189639 0.900220254704998 C 0.0 **** 0.0
85 C36164 0.206213696385399 0.916264268774442 0.887033309129665 C 0.0 **** 0.0
86 O36169 0.197289320020147 0.926497303795472 0.914090145759839 O 0.0 **** 0.0
87 C36170 0.18638232913899 0.923873081948803 0.92819779032156 C 0.0 **** 0.0
88 C36171 0.168746832556249 0.920073697252251 0.922419317466719 C 0.0 **** 0.0
89 O36172 0.168631705248832 0.905303390448507 0.912070886137164 O 0.0 **** 0.0
90 C36178 0.159994247659825 0.935171458342756 0.913442166788356 C 0.0 **** 0.0
91 C36179 0.166111946618571 0.952588227515286 0.919785631040935 C 0.0 **** 0.0
92 C36180 0.171956651536411 0.951529881241037 0.93820404404354 C 0.0 **** 0.0
93 C36181 0.187330142655474 0.939585550273971 0.939746264971381 C 0.0 **** 0.0
94 C36187 0.230936453588401 0.929595335473317 0.874691109627764 C 0.0 **** 0.0
95 C36188 0.22059077865967 0.92640339981365 0.888720219160163 C 0.0 **** 0.0
96 C36192 0.249034612966304 0.938125852594698 0.846049695961837 C 0.0 **** 0.0
97 C36193 0.25096590334128 0.947948673991472 0.860851805786687 C 0.0 **** 0.0
98 C36194 0.242568391209067 0.943112594605617 0.875155618022881 C 0.0 **** 0.0
99 C36199 0.260012531008697 0.941408264842443 0.832520331627914 C 0.0 **** 0.0
100 C36200 0.258215746922079 0.932825178413189 0.817470734369439 C 0.0 **** 0.0
101 C36201 0.245298525800057 0.921193833629201 0.816227898335038 C 0.0 **** 0.0
102 O36206 0.26086555098772 0.962290948663737 0.861140662369656 O 0.0 **** 0.0
103 C36207 0.273925845560203 0.963317905315105 0.8497143887785 C 0.0 **** 0.0
104 C36208 0.274000730576796 0.95374667637539 0.835356529039911 C 0.0 **** 0.0
105 C36213 0.270062034936367 0.93560778239727 0.80258136662524 C 0.0 **** 0.0
106 C36214 0.28737133257559 0.944459840743195 0.807799942824054 C 0.0 **** 0.0
107 C36215 0.286937314764487 0.954908843306252 0.824031118193283 C 0.0 **** 0.0
108 C36220 0.294017638530781 0.955896716640275 0.793397549165667 C 0.0 **** 0.0
109 C36221 0.291806776435482 0.947439539819018 0.776101613166344 C 0.0 **** 0.0
110 C36222 0.272705097657035 0.945261166558853 0.772155736038671 C 0.0 **** 0.0
111 C36223 0.261554759277902 0.945490728348832 0.788227064192269 C 0.0 **** 0.0
112 C36229 0.300015866316138 0.96571996396635 0.827270302851224 C 0.0 **** 0.0
113 C36230 0.300095869686158 0.975175180321579 0.841796658932265 C 0.0 **** 0.0
114 C36231 0.286846815423424 0.97431560496087 0.852753239703605 C 0.0 **** 0.0
115 C36236 0.311831667894701 0.961807524081311 0.79801332056634 C 0.0 **** 0.0
116 C36238 0.314162580711196 0.967130696636692 0.814582155127489 C 0.0 **** 0.0
117 C36241 0.0538633037371348 0.851177151674797 0.835134499638708 C 0.0 **** 0.0
118 C36243 0.0688981807585463 0.862482574061159 0.830483751498186 C 0.0 **** 0.0
119 C36245 0.0396065186546847 0.853636137796238 0.822221582988471 C 0.0 **** 0.0
120 O36247 0.205967533159556 0.849564601321496 0.803097515872067 O 0.0 **** 0.0
121 C36249 0.286483727036419 0.984492861702294 0.866700697791731 C 0.0 **** 0.0
122 C36250 0.299518227669197 0.99520823255988 0.869976873753138 C 0.0 **** 0.0
123 C36251 0.313129264108115 0.99577883889862 0.859413900828255 C 0.0 **** 0.0
124 C36252 0.313358906630657 0.985635238894949 0.845383482276266 C 0.0 **** 0.0
125 C36258 0.328211933123401 0.986048270706535 0.833978044151914 C 0.0 **** 0.0
126 C36259 0.340978897346783 0.997094030732711 0.837587810913671 C 0.0 **** 0.0
127 C36260 0.340008833689612 1.00776203257233 0.852926331455308 C 0.0 **** 0.0
128 C36261 0.32616783912859 1.00667011924666 0.863246257781322 C 0.0 **** 0.0
129 C36267 0.35286089201762 1.01877977641389 0.856453900942658 C 0.0 **** 0.0
130 C36268 0.366467841523323 1.02036807602938 0.845818692321515 C 0.0 **** 0.0
131 C36269 0.367652598676948 1.01119496588653 0.831169508470787 C 0.0 **** 0.0
132 C36270 0.354425662969771 0.998654806528174 0.826856523989158 C 0.0 **** 0.0
133 C36276 0.355143603040898 0.989438378064059 0.811680219768135 C 0.0 **** 0.0
134 C36277 0.342032913275802 0.978189964969348 0.807834343881397 C 0.0 **** 0.0
135 C36278 0.328584814549095 0.976242574088839 0.819189678490676 C 0.0 **** 0.0
136 C36283 0.367650737381895 0.992985316089991 0.79967705205925 C 0.0 **** 0.0
137 C36284 0.381461929769566 1.00506709466718 0.805436620060445 C 0.0 **** 0.0
138 C36285 0.380908369444747 1.01359736191667 0.820437670253839 C 0.0 **** 0.0
139 C36290 0.325079006939625 0.963711424516311 0.786859405720133 C 0.0 **** 0.0
140 C36291 0.340701086374802 0.971456383292865 0.791433430755339 C 0.0 **** 0.0
141 C36296 0.366578648286816 0.9859315133426 0.783565141915917 C 0.0 **** 0.0
142 C36297 0.353635602341764 0.974665470622395 0.779559348180351 C 0.0 **** 0.0
143 C36301 0.352624607552654 0.966831322165001 0.761962083511338 C 0.0 **** 0.0
144 C36302 0.370361115272497 0.962838385207792 0.755310338345729 C 0.0 **** 0.0
145 C36303 0.380540817097337 0.97901094558213 0.754931445076522 C 0.0 **** 0.0
146 C36304 0.379092027822082 0.99049973980841 0.770019434234805 C 0.0 **** 0.0
147 O36310 0.387551567492642 1.00330265272195 0.769938698343749 O 0.0 **** 0.0
148 H36312 -0.0078740179351169 0.821265914439794 0.984718730024108 H 0.0 **** 0.0
149 H36314 -0.00085822100780172 0.840732654760384 0.97624577832228 H 0.0 **** 0.0
150 H36316 -0.00613626353023326 0.81194468697242 0.956434132469939 H 0.0 **** 0.0
151 H36318 0.00802412802559244 0.828091038198794 0.950641673371837 H 0.0 **** 0.0
152 H36320 0.0173609665606938 0.796897206028204 0.971128295638453 H 0.0 **** 0.0
153 H36322 0.0437070042553334 0.805777504183568 0.974994612859946 H 0.0 **** 0.0
154 H36324 0.030533104305141 0.841981709526415 0.97310161133735 H 0.0 **** 0.0
155 H36326 0.0417672833989565 0.831787000059969 0.989494630651907 H 0.0 **** 0.0
156 H36328 0.0435851746884866 0.832196551735039 0.947070214040341 H 0.0 **** 0.0
157 H36330 0.0491036313616795 0.81239348844207 0.927352937958396 H 0.0 **** 0.0
158 H36332 0.046048602233509 0.784444499345781 0.953412259812694 H 0.0 **** 0.0
159 H36334 0.0431778605842924 0.783024782696892 0.931301573907268 H 0.0 **** 0.0
160 H36336 0.014630428153353 0.785148288785753 0.944472618491828 H 0.0 **** 0.0
161 H36338 0.0190941484091017 0.804150222535516 0.933700713449292 H 0.0 **** 0.0
162 H36340 0.0937499407551671 0.807979536756778 0.936252901967448 H 0.0 **** 0.0
163 H36342 0.0927066673318036 0.826292376235323 0.957433258679834 H 0.0 **** 0.0
164 H36344 0.0642942856533129 0.837827819077426 0.969757997103012 H 0.0 **** 0.0
165 H36346 0.0698946338764646 0.816429498333738 0.970165464247962 H 0.0 **** 0.0
166 H36348 0.0672523907970999 0.827274297429061 0.915968734478969 H 0.0 **** 0.0
167 H36350 0.115030845293512 0.873508747985936 0.945096626757249 H 0.0 **** 0.0
168 H36352 0.10842397440776 0.888100410074753 0.929522099087293 H 0.0 **** 0.0
169 H36354 0.0783145020883746 0.882983013190655 0.935740338061668 H 0.0 **** 0.0
170 H36356 0.0887655215651328 0.886881857578474 0.955127195787418 H 0.0 **** 0.0
171 H36358 0.0752210767831953 0.861066364218508 0.963236314393418 H 0.0 **** 0.0
172 H36360 0.0736951170909293 0.826792702771328 0.885535452914469 H 0.0 **** 0.0
173 H36361 0.0952752092990875 0.773058299305333 0.890663259169722 H 0.0 **** 0.0
174 H36363 0.0733834808250505 0.768698224662684 0.89290498046629 H 0.0 **** 0.0
175 H36365 0.0810017927285655 0.785324897631567 0.918087844918743 H 0.0 **** 0.0
176 H36367 0.0828840139906967 0.763041201658413 0.861717984571158 H 0.0 **** 0.0
177 H36369 0.061511370260397 0.769190793044466 0.864035983799453 H 0.0 **** 0.0
178 H36371 0.0647336072338471 0.774146635613443 0.835134315919257 H 0.0 **** 0.0
179 H36373 0.0866631334675423 0.778436382691316 0.83690852796351 H 0.0 **** 0.0
180 H36375 0.0646915931244622 0.835137832643114 0.863546290862155 H 0.0 **** 0.0
181 H36377 0.0824037133659209 0.835428152289541 0.849994857149419 H 0.0 **** 0.0
182 H36379 0.046418129566558 0.825646073140561 0.8398391241431 H 0.0 **** 0.0
183 H36381 0.0793738394229875 0.829058758757602 0.819881038627234 H 0.0 **** 0.0
184 H36383 0.0594966275838532 0.826912387272061 0.809929652613714 H 0.0 **** 0.0
185 H36385 0.0764767401943473 0.799200065168152 0.815303021634071 H 0.0 **** 0.0
186 H36387 0.0547654621829069 0.799424748189634 0.820729449864855 H 0.0 **** 0.0
187 H36389 0.106629033426994 0.816955069548777 0.858856169715622 H 0.0 **** 0.0
188 H36391 0.157677817732538 0.845799405837341 0.828533487613972 H 0.0 **** 0.0
189 H36393 0.183902182078533 0.856065272521529 0.818463856890279 H 0.0 **** 0.0
190 H36395 0.146158982864702 0.897934772977618 0.901447854958581 H 0.0 **** 0.0
191 H36397 0.208062191485463 0.90305488392192 0.786644963188955 H 0.0 **** 0.0
192 H36399 0.194383104216674 0.877674117959409 0.787979701179465 H 0.0 **** 0.0
193 H36401 0.22767274243093 0.863398913926973 0.800500262231199 H 0.0 **** 0.0
194 H36403 0.223071395402722 0.861261184292151 0.768001614960084 H 0.0 **** 0.0
195 H36405 0.202002553026188 0.854203666284059 0.770214051164531 H 0.0 **** 0.0
196 H36407 0.192326234468967 0.882898027402151 0.758612039513716 H 0.0 **** 0.0
197 H36409 0.202697887277172 0.870276857674102 0.743564743234569 H 0.0 **** 0.0
198 H36411 0.227261859133875 0.886305668874704 0.743791037685745 H 0.0 **** 0.0
199 H36413 0.238056523251234 0.886072707797797 0.770028769576014 H 0.0 **** 0.0
200 H36415 0.227980261792415 0.922714653804923 0.774320338899364 H 0.0 **** 0.0
201 H36417 0.24819687086147 0.913166300913362 0.775559980657815 H 0.0 **** 0.0
202 H36419 0.24779873401382 0.90870746249154 0.74423706859928 H 0.0 **** 0.0
203 H36421 0.245835775783806 0.930409466627604 0.748825300250721 H 0.0 **** 0.0
204 H36423 0.225428425858455 0.917374364568102 0.726048874024648 H 0.0 **** 0.0
205 H36425 0.216790290092834 0.931508324296545 0.740933835363101 H 0.0 **** 0.0
206 H36427 0.201121281053318 0.910741910573397 0.751908855970227 H 0.0 **** 0.0
207 H36429 0.191181861011218 0.912672412203148 0.934970313587963 H 0.0 **** 0.0
208 H36431 0.161320472323249 0.917065059034302 0.933838748143223 H 0.0 **** 0.0
209 H36433 0.162208129578229 0.934193899188508 0.899739589580241 H 0.0 **** 0.0
210 H36435 0.146198854021617 0.93406758258455 0.915099827717248 H 0.0 **** 0.0
211 H36437 0.156145032977236 0.962169653250749 0.918085908017697 H 0.0 **** 0.0
212 H36439 0.176917075911866 0.956747157792737 0.912014899795672 H 0.0 **** 0.0
213 H36441 0.16145889206386 0.946786255403738 0.946070100236934 H 0.0 **** 0.0
214 H36443 0.175236841815432 0.964108665670685 0.943229570924594 H 0.0 **** 0.0
215 H36445 0.18912438878145 0.936185067766619 0.953054512023092 H 0.0 **** 0.0
216 H36447 0.19874882058946 0.946599796342656 0.936012225816701 H 0.0 **** 0.0
217 H36449 0.222544590215447 0.933816875539902 0.900300740677865 H 0.0 **** 0.0
218 H36451 0.243876295299046 0.950434381446903 0.886881190225138 H 0.0 **** 0.0
219 H36453 0.244484612622504 0.915251336972197 0.803812298946987 H 0.0 **** 0.0
220 H36455 0.273499826226761 0.923118739245272 0.797388991144055 H 0.0 **** 0.0
221 H36457 0.296621029969251 0.934198460305135 0.809640373612091 H 0.0 **** 0.0
222 H36459 0.286146942101414 0.967480192710569 0.793017578575887 H 0.0 **** 0.0
223 H36461 0.298175177257991 0.93505534745248 0.776215854619985 H 0.0 **** 0.0
224 H36463 0.297714560409675 0.954952130997505 0.766017274630353 H 0.0 **** 0.0
225 H36465 0.2707140145464 0.93332459785154 0.765273579121945 H 0.0 **** 0.0
226 H36467 0.268490092247806 0.955398857258397 0.763578925545655 H 0.0 **** 0.0
227 H36469 0.248898192891581 0.94051369784574 0.78528447133721 H 0.0 **** 0.0
228 H36471 0.259549759530071 0.958652862447792 0.792389496777805 H 0.0 **** 0.0
229 H36473 0.0489546263241267 0.855593021591115 0.847465893064559 H 0.0 **** 0.0
230 H36475 0.0648995551997629 0.875769073744544 0.829334175616609 H 0.0 **** 0.0
231 H36477 0.0743442163005438 0.858641397846634 0.818289264318458 H 0.0 **** 0.0
232 H36479 0.0790322257198117 0.861981160819441 0.839998440262825 H 0.0 **** 0.0
233 H36481 0.0285399813268716 0.845763523804894 0.825264757982918 H 0.0 **** 0.0
234 H36483 0.0438160435123838 0.850272704294276 0.809397448976324 H 0.0 **** 0.0
235 H36485 0.0353656132636653 0.866890112151095 0.821953106839128 H 0.0 **** 0.0
236 H36487 0.211365852896855 0.843925357067204 0.812249865676112 H 0.0 **** 0.0
237 H36489 0.275828790686817 0.984227854710465 0.875449060428241 H 0.0 **** 0.0
238 H36491 0.298820923691543 1.00303703782091 0.881265256638143 H 0.0 **** 0.0
239 H36493 0.325397585693866 1.01465820388814 0.874460485109296 H 0.0 **** 0.0
240 H36495 0.352379412579085 1.02676373730348 0.86769385893046 H 0.0 **** 0.0
241 H36497 0.376282478675601 1.02948268835771 0.84911918751068 H 0.0 **** 0.0
242 H36499 0.392421913734629 1.00711092349338 0.797404766748365 H 0.0 **** 0.0
243 H36501 0.391111310018655 1.02235870789081 0.823483177246831 H 0.0 **** 0.0
244 H36503 0.323006825473172 0.959512537137286 0.77382327058609 H 0.0 **** 0.0
245 H36505 0.345287197726654 0.955025096465371 0.762067604433702 H 0.0 **** 0.0
246 H36507 0.346156015429016 0.975557135377164 0.753191829903303 H 0.0 **** 0.0
247 H36509 0.369824058053203 0.957256366565057 0.742561305705952 H 0.0 **** 0.0
248 H36511 0.376381457916802 0.953386681089921 0.763611975559699 H 0.0 **** 0.0
249 H36513 0.376671139534013 0.987412378445557 0.744517714628212 H 0.0 **** 0.0
250 H36515 0.394286982510644 0.977363806396673 0.753631616412422 H 0.0 **** 0.0
@<TRIPOS>BOND
1 3 2 1
2 4 3 1
3 5 4 1
4 6 5 1
5 1 2 1
6 1 6 1
7 8 7 1
8 9 8 1
9 10 9 1
10 4 7 1
11 3 10 1
12 12 11 1
13 13 12 1
14 14 13 1
15 8 11 1
16 7 14 1
17 16 15 1
18 17 16 Partial double
19 18 17 1
20 13 15 1
21 12 18 1
22 20 19 Partial double
23 21 20 Partial double
24 22 21 Partial double
25 17 19 Partial double
26 16 22 Partial double
27 24 23 1
28 25 24 1
29 15 25 Double
30 22 23 1
31 27 26 1
32 28 27 Partial double
33 29 28 Partial double
34 21 26 1
35 20 29 Partial double
36 31 30 1
37 32 31 1
38 18 30 1
39 19 32 1
40 34 33 Double
41 35 34 1
42 36 35 1
43 31 33 1
44 30 36 Double
45 38 37 1
46 39 38 1
47 40 39 Double
48 34 37 1
49 33 40 1
50 42 41 1
51 43 42 1
52 44 43 1
53 40 41 1
54 39 44 1
55 46 45 Partial double
56 32 46 1
57 29 45 Partial double
58 48 47 Partial double
59 49 48 1
60 45 49 Partial double
61 28 47 Partial double
62 51 50 Partial double
63 52 51 Partial double
64 53 52 Partial double
65 48 50 Partial double
66 47 53 Partial double
67 55 54 Partial double
68 56 55 Partial double
69 57 56 Partial double
70 52 54 Partial double
71 51 57 Partial double
72 59 58 Partial double
73 60 59 Partial double
74 61 60 Partial double
75 56 58 Partial double
76 55 61 Partial double
77 63 62 Partial double
78 27 63 Partial double
79 53 62 Partial double
80 65 64 Partial double
81 62 65 Partial double
82 54 64 Partial double
83 67 66 Partial double
84 64 67 Partial double
85 61 66 Partial double
86 69 68 Partial double
87 70 69 Partial double
88 66 70 Partial double
89 60 68 Partial double
90 72 71 1
91 73 72 1
92 74 73 1
93 59 71 1
94 58 74 1
95 76 75 1
96 77 76 1
97 78 77 1
98 73 75 1
99 72 78 1
100 80 79 1
101 81 80 1
102 82 81 1
103 78 79 1
104 77 82 1
105 84 83 Partial double
106 85 84 Partial double
107 67 85 Partial double
108 65 83 Partial double
109 87 86 1
110 88 87 1
111 89 88 1
112 84 86 1
113 83 89 1
114 91 90 1
115 92 91 1
116 93 92 1
117 88 90 1
118 87 93 1
119 95 94 Partial double
120 85 95 Partial double
121 70 94 Partial double
122 97 96 Partial double
123 98 97 Partial double
124 94 98 Partial double
125 69 96 Partial double
126 100 99 Partial double
127 101 100 Partial double
128 68 101 Partial double
129 96 99 Partial double
130 103 102 1
131 104 103 Partial double
132 97 102 1
133 99 104 1
134 106 105 1
135 107 106 1
136 100 105 1
137 104 107 Partial double
138 109 108 1
139 110 109 1
140 111 110 1
141 106 108 1
142 105 111 1
143 113 112 1
144 114 113 1
145 103 114 Partial double
146 107 112 Partial double
147 108 115 1
148 112 116 Partial double
149 115 116 Partial double
150 42 117 1
151 117 118 1
152 117 119 1
153 74 120 1
154 122 121 1
155 123 122 Partial double
156 124 123 1
157 114 121 Partial double
158 113 124 Partial double
159 126 125 Partial double
160 127 126 1
161 128 127 Partial double
162 124 125 Partial double
163 123 128 Partial double
164 130 129 Partial double
165 131 130 1
166 132 131 1
167 127 129 Partial double
168 126 132 Partial double
169 134 133 Partial double
170 135 134 Partial double
171 125 135 Partial double
172 132 133 Partial double
173 137 136 Partial double
174 138 137 Partial double
175 131 138 Partial double
176 133 136 Partial double
177 140 139 Partial double
178 134 140 Partial double
179 116 135 Partial double
180 115 139 Partial double
181 142 141 Partial double
182 140 142 Partial double
183 136 141 Partial double
184 144 143 1
185 145 144 1
186 146 145 1
187 142 143 1
188 141 146 1
189 146 147 Double
190 1 148 1
191 1 149 1
192 2 150 1
193 2 151 1
194 3 152 1
195 4 153 1
196 5 154 1
197 5 155 1
198 7 156 1
199 8 157 1
200 9 158 1
201 9 159 1
202 10 160 1
203 10 161 1
204 12 162 1
205 13 163 1
206 14 164 1
207 14 165 1
208 18 166 1
209 23 167 1
210 23 168 1
211 24 169 1
212 24 170 1
213 25 171 1
214 35 173 1
215 35 174 1
216 36 175 1
217 37 176 1
218 37 177 1
219 38 178 1
220 38 179 1
221 41 180 1
222 41 181 1
223 42 182 1
224 43 183 1
225 43 184 1
226 44 185 1
227 44 186 1
228 46 187 1
229 50 188 1
230 57 189 1
231 63 190 1
232 72 191 1
233 73 192 1
234 74 193 1
235 75 194 1
236 75 195 1
237 76 196 1
238 76 197 1
239 77 198 1
240 78 199 1
241 79 200 1
242 79 201 1
243 80 202 1
244 80 203 1
245 81 204 1
246 81 205 1
247 82 206 1
248 87 207 1
249 88 208 1
250 90 209 1
251 90 210 1
252 91 211 1
253 91 212 1
254 92 213 1
255 92 214 1
256 93 215 1
257 93 216 1
258 95 217 1
259 98 218 1
260 101 219 1
261 105 220 1
262 106 221 1
263 108 222 1
264 109 223 1
265 109 224 1
266 110 225 1
267 110 226 1
268 111 227 1
269 111 228 1
270 117 229 1
271 118 230 1
272 118 231 1
273 118 232 1
274 119 233 1
275 119 234 1
276 119 235 1
277 120 236 1
278 121 237 1
279 122 238 1
280 128 239 1
281 129 240 1
282 130 241 1
283 137 242 1
284 138 243 1
285 139 244 1
286 143 245 1
287 143 246 1
288 144 247 1
289 144 248 1
290 145 249 1
291 145 250 1
292 31 172 1
@<TRIPOS>MOLECULE
Sketch 4
250 292
SMALL
USER_CHARGES


@<TRIPOS>ATOM
1 C36518 0.459380418606626 0.276930826289728 0.379208422583748 C 0.0 **** 0.0
2 C36519 0.463018285929315 0.265779533458073 0.363799160572184 C 0.0 **** 0.0
3 C36520 0.448517972343046 0.267390645931303 0.350898631730938 C 0.0 **** 0.0
4 C36521 0.431493082564735 0.263999056279957 0.359837815716427 C 0.0 **** 0.0
5 C36522 0.430182202235865 0.275829622054123 0.375220783210672 C 0.0 **** 0.0
6 O36523 0.443617517872781 0.272639391591946 0.386736648320855 O 0.0 **** 0.0
7 C36530 0.42953747155682 0.245138757908112 0.365041353774027 C 0.0 **** 0.0
8 C36531 0.437183530765728 0.232565631078296 0.351680369987545 C 0.0 **** 0.0
9 C36532 0.438828271216309 0.24112258989493 0.334448441235797 C 0.0 **** 0.0
10 C36533 0.450898127622318 0.256305775625008 0.334984308072931 C 0.0 **** 0.0
11 O36539 0.428268139337928 0.217030166502157 0.34917919857281 O 0.0 **** 0.0
12 C36540 0.42068002664158 0.210487208973832 0.364228405905736 C 0.0 **** 0.0
13 C36541 0.405877968772137 0.222201249321372 0.368866510543198 C 0.0 **** 0.0
14 C36542 0.411084406981411 0.24118981359929 0.370088812233522 C 0.0 **** 0.0
15 C36548 0.396744928617493 0.216036206775489 0.384444584967406 C 0.0 **** 0.0
16 C36549 0.407455290600402 0.209034351965284 0.398511095040633 C 0.0 **** 0.0
17 C36550 0.424178328337299 0.204510068799007 0.395567587456078 C 0.0 **** 0.0
18 C36551 0.433215932514652 0.207568840795831 0.378827574689926 C 0.0 **** 0.0
19 C36557 0.433354385735146 0.197470738999015 0.408718736906559 C 0.0 **** 0.0
20 C36558 0.426006391009555 0.195608433783988 0.424458926019246 C 0.0 **** 0.0
21 C36559 0.409595433799682 0.200879076584046 0.427631929703302 C 0.0 **** 0.0
22 C36560 0.400073733288965 0.207295780044367 0.41438383540553 C 0.0 **** 0.0
23 C36566 0.382043890738292 0.21299078588403 0.417450385461956 C 0.0 **** 0.0
24 C36567 0.371065338157176 0.209769409700794 0.401596450706499 C 0.0 **** 0.0
25 C36568 0.379749984970072 0.216159619737199 0.385807261360468 C 0.0 **** 0.0
26 O36573 0.402544052205379 0.199651528771986 0.443684535409349 O 0.0 **** 0.0
27 C36574 0.413189363802371 0.196696994348037 0.457241030818848 C 0.0 **** 0.0
28 C36575 0.429156039422898 0.18977655783088 0.455378686788612 C 0.0 **** 0.0
29 C36576 0.435985198655501 0.187183145250887 0.438000177740786 C 0.0 **** 0.0
30 C36582 0.446173100642625 0.193779510870378 0.375976642842277 C 0.0 **** 0.0
31 C36583 0.460038329905944 0.194632794192512 0.389305248990742 C 0.0 **** 0.0
32 C36584 0.451546878157231 0.192095136521801 0.406796256080674 C 0.0 **** 0.0
33 C36589 0.47557377365382 0.183031952530401 0.386270138329305 C 0.0 **** 0.0
34 C36590 0.474350480863615 0.170897199226218 0.374035433187914 C 0.0 **** 0.0
35 C36591 0.459299007969274 0.168535303927674 0.362375639021899 C 0.0 **** 0.0
36 C36592 0.445937961267468 0.182064931483689 0.363746674804454 C 0.0 **** 0.0
37 C36598 0.488465618384693 0.159164436763214 0.36925373214637 C 0.0 **** 0.0
38 C36599 0.503245446387305 0.159103898664866 0.381852001055503 C 0.0 **** 0.0
39 C36600 0.503497397188971 0.174207503853421 0.393362318847823 C 0.0 **** 0.0
40 C36601 0.49026480951425 0.185155015949503 0.395230618096601 C 0.0 **** 0.0
41 C36607 0.492584760129379 0.199783392510671 0.407964348941023 C 0.0 **** 0.0
42 C36608 0.511093274670462 0.204363897349728 0.410845916549904 C 0.0 **** 0.0
43 C36609 0.520382888084221 0.18834116616385 0.416770231396508 C 0.0 **** 0.0
44 C36610 0.520023389824455 0.174955388607403 0.402905562531362 C 0.0 **** 0.0
45 C36616 0.450141025758541 0.178087031280953 0.434612930241119 C 0.0 **** 0.0
46 C36617 0.457523408667669 0.178518579907954 0.419062536182852 C 0.0 **** 0.0
47 C36621 0.43880472454965 0.185757391264089 0.469785903675328 C 0.0 **** 0.0
48 C36622 0.453658926067137 0.175823499094269 0.46874566097865 C 0.0 **** 0.0
49 S36623 0.458468368737632 0.165061353671757 0.450237796602951 S 0.0 **** 0.0
50 C36628 0.463865881008835 0.173256180223501 0.482434758683219 C 0.0 **** 0.0
51 C36629 0.459224870235908 0.180139328817408 0.498235911982081 C 0.0 **** 0.0
52 C36630 0.444010179843979 0.189536874429883 0.499776646801581 C 0.0 **** 0.0
53 C36631 0.433694603983721 0.191914059071527 0.485707993888815 C 0.0 **** 0.0
54 C36637 0.439503446835092 0.196056495892865 0.515505991427386 C 0.0 **** 0.0
55 C36638 0.450019474316593 0.193470076367339 0.529561714151752 C 0.0 **** 0.0
56 C36639 0.465688365087036 0.184931127920185 0.528132604835775 C 0.0 **** 0.0
57 C36640 0.469435065895587 0.177519995400361 0.512484603118809 C 0.0 **** 0.0
58 C36646 0.477340986284405 0.18428780747447 0.541660483444103 C 0.0 **** 0.0
59 C36647 0.471943889567561 0.189630802406298 0.557367833598701 C 0.0 **** 0.0
60 C36648 0.455680488132747 0.196970782832903 0.559295968142174 C 0.0 **** 0.0
61 C36649 0.445650183789567 0.200173318904427 0.545102230135742 C 0.0 **** 0.0
62 C36655 0.418215157742306 0.200541800172577 0.487415122049692 C 0.0 **** 0.0
63 C36656 0.407528738918764 0.200781721729507 0.473189921241244 C 0.0 **** 0.0
64 C36660 0.424966628172719 0.20601625544973 0.516978420889884 C 0.0 **** 0.0
65 C36661 0.414779178937888 0.209308072827343 0.502811722196808 C 0.0 **** 0.0
66 C36665 0.431763515997937 0.2109391188912 0.54639229691271 C 0.0 **** 0.0
67 C36666 0.421559705169337 0.213833357143652 0.53228654244433 C 0.0 **** 0.0
68 C36670 0.449781716040581 0.202141051298721 0.575436000694071 C 0.0 **** 0.0
69 C36671 0.437078806786753 0.214501647133527 0.576259511152314 C 0.0 **** 0.0
70 C36672 0.428362934191512 0.218997939730689 0.561714730278773 C 0.0 **** 0.0
71 O36677 0.481960630377413 0.188576508999198 0.571719950241808 O 0.0 **** 0.0
72 C36678 0.498059645601582 0.180613910706265 0.57152852300515 C 0.0 **** 0.0
73 C36679 0.506667156420445 0.181605936418592 0.554192751877848 C 0.0 **** 0.0
74 C36680 0.495073164707656 0.176915648549308 0.539502521415478 C 0.0 **** 0.0
75 C36686 0.523136956731961 0.170917507739872 0.553842156967476 C 0.0 **** 0.0
76 C36687 0.529786915545405 0.167302774006051 0.571683723397746 C 0.0 **** 0.0
77 C36688 0.5169277924459 0.157099203484522 0.582308206783114 C 0.0 **** 0.0
78 C36689 0.498217067741643 0.162296610296342 0.578460801364801 C 0.0 **** 0.0
79 C36695 0.486389156955881 0.159195151028274 0.593692821893468 C 0.0 **** 0.0
80 C36696 0.492965580029122 0.144080271534281 0.603787392650589 C 0.0 **** 0.0
81 C36697 0.510610520932637 0.147724802110155 0.611326296952442 C 0.0 **** 0.0
82 N36698 0.521432157505982 0.158064626398292 0.600112798689948 N 0.0 **** 0.0
83 C36704 0.402243353615542 0.22214941838265 0.503637907810555 C 0.0 **** 0.0
84 C36705 0.398449771364926 0.229579177257146 0.519036762841361 C 0.0 **** 0.0
85 C36706 0.408202106815911 0.225469305238494 0.533382494425578 C 0.0 **** 0.0
86 O36711 0.385704142417505 0.241490764118921 0.520923398302423 O 0.0 **** 0.0
87 C36712 0.373595623074519 0.240597674214429 0.507587863720726 C 0.0 **** 0.0
88 C36713 0.382718059232657 0.241379528794769 0.491005276036423 C 0.0 **** 0.0
89 O36714 0.393753632463151 0.22719640602302 0.489116796665938 O 0.0 **** 0.0
90 C36720 0.392480645102644 0.258209533011137 0.488767249352849 C 0.0 **** 0.0
91 C36721 0.384450710249681 0.273241949554422 0.49834251523891 C 0.0 **** 0.0
92 C36722 0.365234316818843 0.271140223283353 0.499788486746409 C 0.0 **** 0.0
93 C36723 0.360640905954365 0.254980288618137 0.50983096171667 C 0.0 **** 0.0
94 C36729 0.414867530626865 0.230668494658702 0.563036572816674 C 0.0 **** 0.0
95 C36730 0.404949174421784 0.233880153398496 0.548656057910197 C 0.0 **** 0.0
96 C36734 0.431340727726349 0.219988696831819 0.592057479828189 C 0.0 **** 0.0
97 C36735 0.418866892220246 0.232694074956664 0.593353427509623 C 0.0 **** 0.0
98 C36736 0.410939091462003 0.237987688326132 0.57886616883525 C 0.0 **** 0.0
99 C36741 0.436210094959953 0.211513383626348 0.606925273305336 C 0.0 **** 0.0
100 C36742 0.447711348742473 0.198401723647385 0.60625979412813 C 0.0 **** 0.0
101 C36743 0.454384857395719 0.194170970347445 0.590789165106259 C 0.0 **** 0.0
102 O36748 0.414490612456657 0.239509261171875 0.608850991260461 O 0.0 **** 0.0
103 C36749 0.416098189997846 0.229227725840778 0.622898328863774 C 0.0 **** 0.0
104 C36750 0.427099743908395 0.215874910431714 0.622860298007722 C 0.0 **** 0.0
105 C36755 0.453199817991331 0.188368321636171 0.621593370428958 C 0.0 **** 0.0
106 C36756 0.440651549204251 0.190424585000816 0.637060728131867 C 0.0 **** 0.0
107 C36757 0.429031511916565 0.205873419598674 0.636770756971307 C 0.0 **** 0.0
108 C36762 0.450386521047124 0.190215304016951 0.653994329876706 C 0.0 **** 0.0
109 C36763 0.464410254936168 0.176792022862414 0.654058089647321 C 0.0 **** 0.0
110 C36764 0.477965131616952 0.181032355063424 0.640531832930343 C 0.0 **** 0.0
111 C36765 0.471276909960545 0.193047222992559 0.626730279840407 C 0.0 **** 0.0
112 C36771 0.420022945168574 0.209462240314953 0.651021093576985 C 0.0 **** 0.0
113 C36772 0.408424967436987 0.222360026482587 0.650952211944904 C 0.0 **** 0.0
114 C36773 0.406658219605947 0.232433564465427 0.637045265721936 C 0.0 **** 0.0
115 C36778 0.437384375823373 0.188945008608103 0.668169686465373 C 0.0 **** 0.0
116 C36780 0.422928109120943 0.198783285840733 0.666554386422052 C 0.0 **** 0.0
117 C36783 0.513294951466093 0.219769072030751 0.422709979241611 C 0.0 **** 0.0
118 C36785 0.507611249550549 0.216610319386408 0.440983194123473 C 0.0 **** 0.0
119 C36787 0.531541888555525 0.226358177204713 0.422579863474955 C 0.0 **** 0.0
120 O36789 0.502869988679809 0.183260524540725 0.524548393483631 O 0.0 **** 0.0
121 C36791 0.395454592128077 0.245629073724786 0.637396932111225 C 0.0 **** 0.0
122 C36792 0.385742110044682 0.248486504369707 0.651332055668133 C 0.0 **** 0.0
123 C36793 0.387161992940294 0.238243483103802 0.665142959453154 C 0.0 **** 0.0
124 C36794 0.398536777365414 0.225187553672838 0.6648446597217 C 0.0 **** 0.0
125 C36800 0.40004422852264 0.213966819611927 0.679814515121666 C 0.0 **** 0.0
126 C36801 0.390434732935295 0.217441602404849 0.693720099336349 C 0.0 **** 0.0
127 C36802 0.378548997038024 0.23184143227724 0.693339808158501 C 0.0 **** 0.0
128 C36803 0.377215517505809 0.241571979251803 0.679066829630475 C 0.0 **** 0.0
129 C36809 0.369428856783182 0.235552697201497 0.707535463143068 C 0.0 **** 0.0
130 C36810 0.370942203969158 0.226197487159848 0.722056144739388 C 0.0 **** 0.0
131 C36811 0.381857336266152 0.212803297154945 0.723041614414016 C 0.0 **** 0.0
132 C36812 0.392131111896171 0.208025317442723 0.708131652139993 C 0.0 **** 0.0
133 C36818 0.40400201289422 0.194855240771614 0.709126133139348 C 0.0 **** 0.0
134 C36819 0.41395187971453 0.19127546953505 0.694965253278823 C 0.0 **** 0.0
135 C36820 0.411826715085389 0.200728135634418 0.680135036275717 C 0.0 **** 0.0
136 C36825 0.407155863474938 0.186714966878602 0.724517374691014 C 0.0 **** 0.0
137 C36826 0.395203559232463 0.191301560401843 0.738862816605859 C 0.0 **** 0.0
138 C36827 0.383492669940924 0.203937841115323 0.737722397646865 C 0.0 **** 0.0
139 C36832 0.439542682424245 0.179807119744606 0.682840461421619 C 0.0 **** 0.0
140 C36833 0.427807026191903 0.180262169253594 0.696469582094611 C 0.0 **** 0.0
141 C36838 0.420798729232541 0.175637135205194 0.725950877299595 C 0.0 **** 0.0
142 C36839 0.430718262761521 0.171797913521308 0.711902994630603 C 0.0 **** 0.0
143 C36843 0.445449716375421 0.159430133981476 0.713324778762588 C 0.0 **** 0.0
144 C36844 0.441027407233495 0.145069916502715 0.725487554145 C 0.0 **** 0.0
145 C36845 0.436748326141591 0.152578703499762 0.742534977960103 C 0.0 **** 0.0
146 C36846 0.425346365072236 0.167785908629465 0.742635321730485 C 0.0 **** 0.0
147 O36852 0.421101513605155 0.173305616802839 0.756303120214671 O 0.0 **** 0.0
148 H36854 0.459683671641116 0.290427987057842 0.375596431213216 H 0.0 **** 0.0
149 H36856 0.468977071421451 0.275176773127442 0.389111183733769 H 0.0 **** 0.0
150 H36858 0.475209212175438 0.269298458329446 0.358060059639827 H 0.0 **** 0.0
151 H36860 0.464210379758592 0.252556518308974 0.368028938916039 H 0.0 **** 0.0
152 H36862 0.448520886217481 0.280725080047617 0.346798361976902 H 0.0 **** 0.0
153 H36864 0.421214929562671 0.267167037787064 0.35092334219492 H 0.0 **** 0.0
154 H36866 0.418424572876395 0.273755082258068 0.382337676952353 H 0.0 **** 0.0
155 H36868 0.430129337860819 0.289204239311404 0.371177540773961 H 0.0 **** 0.0
156 H36870 0.43699834140139 0.243702338445793 0.376749415958701 H 0.0 **** 0.0
157 H36872 0.450132172182461 0.229364797192962 0.355851023591506 H 0.0 **** 0.0
158 H36874 0.42614880361746 0.245143708088471 0.330265264612431 H 0.0 **** 0.0
159 H36876 0.443234472535745 0.231772151380572 0.325129751324686 H 0.0 **** 0.0
160 H36878 0.449085311020806 0.264008564192696 0.323545333720594 H 0.0 **** 0.0
161 H36880 0.464004432937075 0.251655881659524 0.334517703593663 H 0.0 **** 0.0
162 H36882 0.415137018704834 0.198307874189514 0.360382111933611 H 0.0 **** 0.0
163 H36884 0.396987823930886 0.221240096985556 0.358181162298861 H 0.0 **** 0.0
164 H36886 0.409041377074829 0.246127210092074 0.38295251638888 H 0.0 **** 0.0
165 H36888 0.40248138178183 0.248356302793705 0.361795017907465 H 0.0 **** 0.0
166 H36890 0.440622974605486 0.219248667252843 0.380496290943719 H 0.0 **** 0.0
167 H36892 0.376512544018078 0.206373783239367 0.42836432192784 H 0.0 **** 0.0
168 H36894 0.381887665085246 0.226596195602187 0.420556520680211 H 0.0 **** 0.0
169 H36896 0.358656264009121 0.215984910697184 0.403074776305518 H 0.0 **** 0.0
170 H36898 0.368544196315311 0.196132640316167 0.400278513946023 H 0.0 **** 0.0
171 H36900 0.371465180653637 0.220570829403559 0.375717498010534 H 0.0 **** 0.0
172 H36902 0.464727343676981 0.207767848504252 0.38878929129444 H 0.0 **** 0.0
173 H36903 0.453568619139703 0.156043551516811 0.36481718678167 H 0.0 **** 0.0
174 H36905 0.463918969153503 0.168285759380435 0.349174645411502 H 0.0 **** 0.0
175 H36907 0.435891115796277 0.181836739568102 0.354320531224962 H 0.0 **** 0.0
176 H36909 0.483503558921356 0.14618028712488 0.367891521430088 H 0.0 **** 0.0
177 H36911 0.493157915860502 0.162930929732863 0.35666652053202 H 0.0 **** 0.0
178 H36913 0.515272652723101 0.158366808695797 0.374789753599589 H 0.0 **** 0.0
179 H36915 0.5025815376739 0.147627532649073 0.38975938357533 H 0.0 **** 0.0
180 H36917 0.485734213439608 0.211099364501172 0.403659570312649 H 0.0 **** 0.0
181 H36919 0.486835590593618 0.196094702646573 0.420094953513811 H 0.0 **** 0.0
182 H36921 0.51654334484361 0.208105190855052 0.398510973917766 H 0.0 **** 0.0
183 H36923 0.514145868752053 0.183450419333417 0.428240431102822 H 0.0 **** 0.0
184 H36925 0.53362096452773 0.190927814902667 0.420251670012871 H 0.0 **** 0.0
185 H36927 0.522856762199348 0.162363636740156 0.408233500347791 H 0.0 **** 0.0
186 H36929 0.530103290906803 0.177715471275284 0.393665602698955 H 0.0 **** 0.0
187 H36931 0.467963684528835 0.170268253838065 0.415599560550089 H 0.0 **** 0.0
188 H36933 0.475342364999984 0.165518687725349 0.481540965764453 H 0.0 **** 0.0
189 H36935 0.481025481141981 0.170118704586521 0.510709772466307 H 0.0 **** 0.0
190 H36937 0.394622834132239 0.205760897404458 0.473627315194985 H 0.0 **** 0.0
191 H36939 0.505778071033266 0.188189568891442 0.580328862892124 H 0.0 **** 0.0
192 H36941 0.510007832326987 0.19502006575498 0.552167427667262 H 0.0 **** 0.0
193 H36943 0.493814767145731 0.162992026868786 0.538638316948392 H 0.0 **** 0.0
194 H36945 0.520719288335548 0.158627612926474 0.547686368256377 H 0.0 **** 0.0
195 H36947 0.532886815602737 0.177240648415643 0.546157959538245 H 0.0 **** 0.0
196 H36949 0.53254492541498 0.179415332308614 0.578030312080596 H 0.0 **** 0.0
197 H36951 0.541907190319845 0.160457142279749 0.571110425743815 H 0.0 **** 0.0
198 H36953 0.518370631791375 0.14369630403675 0.578678383575097 H 0.0 **** 0.0
199 H36955 0.493750229221051 0.153971650782355 0.568178705119276 H 0.0 **** 0.0
200 H36957 0.486229165517367 0.170341074557847 0.60200963341101 H 0.0 **** 0.0
201 H36959 0.473357209067785 0.157131897315101 0.589326958389491 H 0.0 **** 0.0
202 H36961 0.493742063665141 0.133241796319505 0.595057476991921 H 0.0 **** 0.0
203 H36963 0.484261952150844 0.140269920079466 0.613963712764114 H 0.0 **** 0.0
204 H36965 0.517157917972223 0.135785208125851 0.614174027235818 H 0.0 **** 0.0
205 H36967 0.50929419688514 0.154322386372622 0.623537412260684 H 0.0 **** 0.0
206 H36969 0.521299195284255 0.170155747175021 0.60387847627979 H 0.0 **** 0.0
207 H36971 0.367148434793477 0.228277836038744 0.508554581208757 H 0.0 **** 0.0
208 H36973 0.373162880830821 0.240438324998591 0.480897296945547 H 0.0 **** 0.0
209 H36975 0.405475013233282 0.256240436118813 0.493264774046871 H 0.0 **** 0.0
210 H36977 0.393599409886698 0.261243237913474 0.475211319684487 H 0.0 **** 0.0
211 H36979 0.387795030467176 0.285257674989865 0.492122436262696 H 0.0 **** 0.0
212 H36981 0.389763450446744 0.273930917183391 0.511218072272203 H 0.0 **** 0.0
213 H36983 0.359881901524327 0.27031845622052 0.486934910775915 H 0.0 **** 0.0
214 H36985 0.359385288258105 0.282302916835014 0.505743119314623 H 0.0 **** 0.0
215 H36987 0.34773993711555 0.250941678388084 0.506489656220854 H 0.0 **** 0.0
216 H36989 0.360345365571919 0.257932877178617 0.523431612507212 H 0.0 **** 0.0
217 H36991 0.394400268005595 0.242880230502991 0.549551773570894 H 0.0 **** 0.0
218 H36993 0.400779766110464 0.24735086426422 0.579478208892278 H 0.0 **** 0.0
219 H36995 0.463007982858044 0.183359489918541 0.590697022089968 H 0.0 **** 0.0
220 H36997 0.453209557583782 0.174809671042386 0.618260868234851 H 0.0 **** 0.0
221 H36999 0.432331448325355 0.179209597232851 0.636750540169697 H 0.0 **** 0.0
222 H37001 0.456800198868527 0.202538847159404 0.655556610742946 H 0.0 **** 0.0
223 H37003 0.458796999127109 0.164306354944218 0.6514771379711 H 0.0 **** 0.0
224 H37005 0.470561915743911 0.175989118321459 0.666506763696682 H 0.0 **** 0.0
225 H37007 0.482534886724931 0.169293769964503 0.634590541129426 H 0.0 **** 0.0
226 H37009 0.489084871691699 0.186846573029822 0.646590870733942 H 0.0 **** 0.0
227 H37011 0.479927916879202 0.192868092479247 0.615843655364861 H 0.0 **** 0.0
228 H37013 0.471319553697447 0.206138671154215 0.631487306791308 H 0.0 **** 0.0
229 H37015 0.505255039529514 0.230004750682505 0.41760188045422 H 0.0 **** 0.0
230 H37017 0.509009176505441 0.228184862839877 0.448598540950273 H 0.0 **** 0.0
231 H37019 0.515292427553733 0.206685980267456 0.446992492908625 H 0.0 **** 0.0
232 H37021 0.494269769255594 0.212743533526088 0.441759522729435 H 0.0 **** 0.0
233 H37023 0.535720782675844 0.229536563650386 0.409691893800209 H 0.0 **** 0.0
234 H37025 0.540361756489067 0.216921211575496 0.427741412136707 H 0.0 **** 0.0
235 H37027 0.532773106234168 0.237860128693305 0.430313797570764 H 0.0 **** 0.0
236 H37029 0.513773435028071 0.178207977958796 0.524277192603622 H 0.0 **** 0.0
237 H37031 0.394001842408788 0.254132635670173 0.626636764045339 H 0.0 **** 0.0
238 H37033 0.376902639394679 0.25908938781238 0.651204845558258 H 0.0 **** 0.0
239 H37035 0.368411007666534 0.252235144700306 0.678881004358271 H 0.0 **** 0.0
240 H37037 0.36105838904602 0.246450721704134 0.707646835780695 H 0.0 **** 0.0
241 H37039 0.363390865741937 0.22991696434482 0.732987241574748 H 0.0 **** 0.0
242 H37041 0.395840440144775 0.184325337038516 0.750690320196375 H 0.0 **** 0.0
243 H37043 0.375738512573763 0.206794082529387 0.748767717410048 H 0.0 **** 0.0
244 H37045 0.451131422172068 0.17231639888239 0.68399559384892 H 0.0 **** 0.0
245 H37047 0.44857525055494 0.153758697854453 0.701023841429886 H 0.0 **** 0.0
246 H37049 0.456910238934269 0.166071705931505 0.717761524483938 H 0.0 **** 0.0
247 H37051 0.451628444988909 0.136145150631154 0.726648759669066 H 0.0 **** 0.0
248 H37053 0.430238607345118 0.137843412749652 0.720397962804663 H 0.0 **** 0.0
249 H37055 0.448041732929162 0.157326175855546 0.749172074226279 H 0.0 **** 0.0
250 H37057 0.430376474026497 0.143989227707759 0.751419678089419 H 0.0 **** 0.0
@<TRIPOS>BOND
1 3 2 1
2 4 3 1
3 5 4 1
4 6 5 1
5 1 2 1
6 1 6 1
7 8 7 1
8 9 8 1
9 10 9 1
10 4 7 1
11 3 10 1
12 12 11 1
13 13 12 1
14 14 13 1
15 8 11 1
16 7 14 1
17 16 15 1
18 17 16 Partial double
19 18 17 1
20 13 15 1
21 12 18 1
22 20 19 Partial double
23 21 20 Partial double
24 22 21 Partial double
25 17 19 Partial double
26 16 22 Partial double
27 24 23 1
28 25 24 1
29 15 25 Double
30 22 23 1
31 27 26 1
32 28 27 Partial double
33 29 28 Partial double
34 21 26 1
35 20 29 Partial double
36 31 30 1
37 32 31 1
38 18 30 1
39 19 32 1
40 34 33 Double
41 35 34 1
42 36 35 1
43 31 33 1
44 30 36 Double
45 38 37 1
46 39 38 1
47 40 39 Double
48 34 37 1
49 33 40 1
50 42 41 1
51 43 42 1
52 44 43 1
53 40 41 1
54 39 44 1
55 46 45 Partial double
56 32 46 1
57 29 45 Partial double
58 48 47 Partial double
59 49 48 1
60 45 49 Partial double
61 28 47 Partial double
62 51 50 Partial double
63 52 51 Partial double
64 53 52 Partial double
65 48 50 Partial double
66 47 53 Partial double
67 55 54 Partial double
68 56 55 Partial double
69 57 56 Partial double
70 52 54 Partial double
71 51 57 Partial double
72 59 58 Partial double
73 60 59 Partial double
74 61 60 Partial double
75 56 58 Partial double
76 55 61 Partial double
77 63 62 Partial double
78 27 63 Partial double
79 53 62 Partial double
80 65 64 Partial double
81 62 65 Partial double
82 54 64 Partial double
83 67 66 Partial double
84 64 67 Partial double
85 61 66 Partial double
86 69 68 Partial double
87 70 69 Partial double
88 66 70 Partial double
89 60 68 Partial double
90 72 71 1
91 73 72 1
92 74 73 1
93 59 71 1
94 58 74 1
95 76 75 1
96 77 76 1
97 78 77 1
98 73 75 1
99 72 78 1
100 80 79 1
101 81 80 1
102 82 81 1
103 78 79 1
104 77 82 1
105 84 83 Partial double
106 85 84 Partial double
107 67 85 Partial double
108 65 83 Partial double
109 87 86 1
110 88 87 1
111 89 88 1
112 84 86 1
113 83 89 1
114 91 90 1
115 92 91 1
116 93 92 1
117 88 90 1
118 87 93 1
119 95 94 Partial double
120 85 95 Partial double
121 70 94 Partial double
122 97 96 Partial double
123 98 97 Partial double
124 94 98 Partial double
125 69 96 Partial double
126 100 99 Partial double
127 101 100 Partial double
128 68 101 Partial double
129 96 99 Partial double
130 103 102 1
131 104 103 Partial double
132 97 102 1
133 99 104 1
134 106 105 1
135 107 106 1
136 100 105 1
137 104 107 Partial double
138 109 108 1
139 110 109 1
140 111 110 1
141 106 108 1
142 105 111 1
143 113 112 1
144 114 113 1
145 103 114 Partial double
146 107 112 Partial double
147 108 115 1
148 112 116 Partial double
149 115 116 Partial double
150 42 117 1
151 117 118 1
152 117 119 1
153 74 120 1
154 122 121 1
155 123 122 Partial double
156 124 123 1
157 114 121 Partial double
158 113 124 Partial double
159 126 125 Partial double
160 127 126 1
161 128 127 Partial double
162 124 125 Partial double
163 123 128 Partial double
164 130 129 Partial double
165 131 130 1
166 132 131 1
167 127 129 Partial double
168 126 132 Partial double
169 134 133 Partial double
170 135 134 Partial double
171 125 135 Partial double
172 132 133 Partial double
173 137 136 Partial double
174 138 137 Partial double
175 131 138 Partial double
176 133 136 Partial double
177 140 139 Partial double
178 134 140 Partial double
179 116 135 Partial double
180 115 139 Partial double
181 142 141 Partial double
182 140 142 Partial double
183 136 141 Partial double
184 144 143 1
185 145 144 1
186 146 145 1
187 142 143 1
188 141 146 1
189 146 147 Double
190 1 148 1
191 1 149 1
192 2 150 1
193 2 151 1
194 3 152 1
195 4 153 1
196 5 154 1
197 5 155 1
198 7 156 1
199 8 157 1
200 9 158 1
201 9 159 1
202 10 160 1
203 10 161 1
204 12 162 1
205 13 163 1
206 14 164 1
207 14 165 1
208 18 166 1
209 23 167 1
210 23 168 1
211 24 169 1
212 24 170 1
213 25 171 1
214 35 173 1
215 35 174 1
216 36 175 1
217 37 176 1
218 37 177 1
219 38 178 1
220 38 179 1
221 41 180 1
222 41 181 1
223 42 182 1
224 43 183 1
225 43 184 1
226 44 185 1
227 44 186 1
228 46 187 1
229 50 188 1
230 57 189 1
231 63 190 1
232 72 191 1
233 73 192 1
234 74 193 1
235 75 194 1
236 75 195 1
237 76 196 1
238 76 197 1
239 77 198 1
240 78 199 1
241 79 200 1
242 79 201 1
243 80 202 1
244 80 203 1
245 81 204 1
246 81 205 1
247 82 206 1
248 87 207 1
249 88 208 1
250 90 209 1
251 90 210 1
252 91 211 1
253 91 212 1
254 92 213 1
255 92 214 1
256 93 215 1
257 93 216 1
258 95 217 1
259 98 218 1
260 101 219 1
261 105 220 1
262 106 221 1
263 108 222 1
264 109 223 1
265 109 224 1
266 110 225 1
267 110 226 1
268 111 227 1
269 111 228 1
270 117 229 1
271 118 230 1
272 118 231 1
273 118 232 1
274 119 233 1
275 119 234 1
276 119 235 1
277 120 236 1
278 121 237 1
279 122 238 1
280 128 239 1
281 129 240 1
282 130 241 1
283 137 242 1
284 138 243 1
285 139 244 1
286 143 245 1
287 143 246 1
288 144 247 1
289 144 248 1
290 145 249 1
291 145 250 1
292 31 172 1
@<TRIPOS>MOLECULE
Sketch 4
250 292
SMALL
USER_CHARGES


@<TRIPOS>ATOM
1 C37060 0.200577959384808 -0.0378168286688017 0.870953819247783 C 0.0 **** 0.0
2 C37061 0.213218349498792 -0.0271454326562762 0.860398295168646 C 0.0 **** 0.0
3 C37062 0.224675570343547 -0.0162194935006401 0.871984896855529 C 0.0 **** 0.0
4 C37063 0.214275829669988 -0.00957740259126906 0.887136033642961 C 0.0 **** 0.0
5 C37064 0.206418237903219 -0.0246776548316011 0.896944070560097 C 0.0 **** 0.0
6 O37065 0.20650710715738 -0.0401113735748912 0.887709739191732 O 0.0 **** 0.0
7 C37072 0.200353271223334 0.00286164188940403 0.881246353570809 C 0.0 **** 0.0
8 C37073 0.206036016772321 0.0138319520110226 0.865793971905197 C 0.0 **** 0.0
9 C37074 0.225288623740311 0.0153043598677042 0.864884845048112 C 0.0 **** 0.0
10 C37075 0.233991013979625 -0.00190509788834742 0.862453615735802 C 0.0 **** 0.0
11 O37081 0.199468386449232 0.030586622714749 0.865987811443365 O 0.0 **** 0.0
12 C37082 0.182092756007477 0.0309967878095854 0.870878394755461 C 0.0 **** 0.0
13 C37083 0.180894613539956 0.0278516203294117 0.890184523701029 C 0.0 **** 0.0
14 C37084 0.193927924239418 0.0139928970209366 0.895870362747798 C 0.0 **** 0.0
15 C37090 0.162917284375839 0.0248340959322155 0.896260041999518 C 0.0 **** 0.0
16 C37091 0.148892054293551 0.0253458368584215 0.88340232178751 C 0.0 **** 0.0
17 C37092 0.152371306502107 0.022223190673187 0.866529711480781 C 0.0 **** 0.0
18 C37093 0.170368022578727 0.0194642210611889 0.860500330787071 C 0.0 **** 0.0
19 C37099 0.138959380103278 0.0210872726277811 0.855300223935338 C 0.0 **** 0.0
20 C37100 0.123095085383011 0.0265030139061672 0.860225452738763 C 0.0 **** 0.0
21 C37101 0.11963901402209 0.0299079303263282 0.877081722130154 C 0.0 **** 0.0
22 C37102 0.132489938262797 0.0282719573163707 0.888947050302318 C 0.0 **** 0.0
23 C37108 0.128945916867711 0.0306543593359707 0.907596845957353 C 0.0 **** 0.0
24 C37109 0.140951448320844 0.0193573400975054 0.918058623402272 C 0.0 **** 0.0
25 C37110 0.159127999444299 0.0220475068117209 0.912634002383556 C 0.0 **** 0.0
26 O37115 0.103651169711538 0.034651496767581 0.88237233618996 O 0.0 **** 0.0
27 C37116 0.0914241765680464 0.0385038047141459 0.870522855833777 C 0.0 **** 0.0
28 C37117 0.0936562974904154 0.0363555774513701 0.853213215986989 C 0.0 **** 0.0
29 C37118 0.110212290039887 0.0296747300625587 0.846769000806808 C 0.0 **** 0.0
30 C37124 0.170811474922385 0.0221078881161419 0.841586669144464 C 0.0 **** 0.0
31 C37125 0.159387443412602 0.00930464789590577 0.833086641781453 C 0.0 **** 0.0
32 C37126 0.141005884101722 0.0140334292466115 0.837739610459774 C 0.0 **** 0.0
33 C37131 0.162654017768443 0.00661827884378792 0.814023046189727 C 0.0 **** 0.0
34 C37132 0.17059968767366 0.0193780000542797 0.805542666593244 C 0.0 **** 0.0
35 C37133 0.177024886627616 0.0354674334324062 0.81386544940165 C 0.0 **** 0.0
36 C37134 0.178924664045256 0.0341101159253147 0.83282471847102 C 0.0 **** 0.0
37 C37140 0.174768035566142 0.0189906258060415 0.787077401073621 C 0.0 **** 0.0
38 C37141 0.169615100394613 0.00259762426617748 0.777976340179986 C 0.0 **** 0.0
39 C37142 0.161870672496995 -0.0105075675798867 0.78932772376078 C 0.0 **** 0.0
40 C37143 0.158432649400745 -0.00817252514545909 0.806083792889948 C 0.0 **** 0.0
41 C37149 0.150036289811226 -0.0231427686835393 0.815397713782733 C 0.0 **** 0.0
42 C37150 0.155634174106745 -0.0401415504323375 0.808168584604314 C 0.0 **** 0.0
43 C37151 0.150171876025103 -0.0405674463089685 0.789534706781658 C 0.0 **** 0.0
44 C37152 0.159012121118904 -0.0266389080786804 0.779540766583763 C 0.0 **** 0.0
45 C37158 0.113959296508689 0.0278717251790826 0.830015194614271 C 0.0 **** 0.0
46 C37159 0.129056386594724 0.0214193173272082 0.824678377798695 C 0.0 **** 0.0
47 C37163 0.0798102138482923 0.0392095240802663 0.842177885018152 C 0.0 **** 0.0
48 C37164 0.0805271345738495 0.0356221356839791 0.82473156922936 C 0.0 **** 0.0
49 S37165 0.0998913893519404 0.0348239276311687 0.81453060665068 S 0.0 **** 0.0
50 C37170 0.0662131531709719 0.0320540547933337 0.81556878979901 C 0.0 **** 0.0
51 C37171 0.050204706863334 0.0331215600957751 0.823442349239964 C 0.0 **** 0.0
52 C37172 0.0491276802671573 0.0396487348694402 0.840028796562297 C 0.0 **** 0.0
53 C37173 0.0639234378367627 0.0431150539609197 0.849079633203018 C 0.0 **** 0.0
54 C37179 0.033307980005061 0.0414425463164175 0.847530048680872 C 0.0 **** 0.0
55 C37180 0.0187205249480773 0.0350725505386025 0.839691159192186 C 0.0 **** 0.0
56 C37181 0.0199158489963918 0.0261501000064055 0.824221876140732 C 0.0 **** 0.0
57 C37182 0.0354836164632046 0.0269076478752298 0.815687238692279 C 0.0 **** 0.0
58 C37188 0.00622939570691611 0.0161133653625829 0.818874052026725 C 0.0 **** 0.0
59 C37189 -0.00885256334349262 0.0168845085236025 0.827846857029708 C 0.0 **** 0.0
60 C37190 -0.0112563088473314 0.0288184263105216 0.840933794134044 C 0.0 **** 0.0
61 C37191 0.00306768805285786 0.0369705378662898 0.847461582431515 C 0.0 **** 0.0
62 C37197 0.0625975117164067 0.0483457266105293 0.865936793514426 C 0.0 **** 0.0
63 C37198 0.0764753349925436 0.0449863768947396 0.876636129017616 C 0.0 **** 0.0
64 C37202 0.0321577093808392 0.049564752827918 0.863115744035111 C 0.0 **** 0.0
65 C37203 0.0468394007203746 0.0544175411583264 0.871800708703582 C 0.0 **** 0.0
66 C37207 0.00186662946322505 0.0464555612229807 0.86230008059634 C 0.0 **** 0.0
67 C37208 0.0164401638283206 0.0529586841680736 0.869878366446492 C 0.0 **** 0.0
68 C37212 -0.0275112630169297 0.0327971336463354 0.847774958072899 C 0.0 **** 0.0
69 C37213 -0.0283434898496677 0.0423005383636669 0.862824006967344 C 0.0 **** 0.0
70 C37214 -0.0138066159960827 0.0490588492533287 0.869884254129281 C 0.0 **** 0.0
71 O37219 -0.0220594021478988 0.00625427297516217 0.822961313951136 O 0.0 **** 0.0
72 C37220 -0.0173524854312276 -0.0111244137855887 0.82032977250603 C 0.0 **** 0.0
73 C37221 0.000463337951999463 -0.013009291265242 0.812137057272615 C 0.0 **** 0.0
74 C37222 0.00548044679742392 0.0038388975519559 0.803988887712712 C 0.0 **** 0.0
75 C37228 0.00173367849063012 -0.0281895495269311 0.799874160149343 C 0.0 **** 0.0
76 C37229 -0.00807954765675262 -0.0432106497998419 0.806989240394082 C 0.0 **** 0.0
77 C37230 -0.0271596749590283 -0.0393509853861345 0.807012011152182 C 0.0 **** 0.0
78 C37231 -0.0309772852520324 -0.020140310890787 0.809533932027128 C 0.0 **** 0.0
79 C37237 -0.0490893150942881 -0.0170553727557658 0.816122850982715 C 0.0 **** 0.0
80 C37238 -0.0606714544874866 -0.0316081549482859 0.810717105262234 C 0.0 **** 0.0
81 C37239 -0.0545437027805447 -0.0489683651318701 0.817391738453021 C 0.0 **** 0.0
82 N37240 -0.0360154527620882 -0.0502070518095725 0.818889306720833 N 0.0 **** 0.0
83 C37246 0.045868101785262 0.0653773540913531 0.885938519640252 C 0.0 **** 0.0
84 C37247 0.0301114533439737 0.0699398993906435 0.892076647297877 C 0.0 **** 0.0
85 C37248 0.01544774256497 0.0630364012626986 0.884484612680397 C 0.0 **** 0.0
86 O37253 0.0281437952713343 0.0806423998115533 0.905822112046623 O 0.0 **** 0.0
87 C37254 0.0425859985502953 0.091290195213296 0.907847777715038 C 0.0 **** 0.0
88 C37255 0.0582093985157755 0.0805521408898203 0.908634627654892 C 0.0 **** 0.0
89 O37256 0.0606681847875046 0.0713883058386836 0.893243881846219 O 0.0 **** 0.0
90 C37262 0.05811270781656 0.0684026694418574 0.924012300021167 C 0.0 **** 0.0
91 C37263 0.0481822867173634 0.0753338598664426 0.939344873097609 C 0.0 **** 0.0
92 C37264 0.0486074554461064 0.0947019858910004 0.939737963824984 C 0.0 **** 0.0
93 C37265 0.0402274967270155 0.10228879073347 0.923773512710015 C 0.0 **** 0.0
94 C37271 -0.015065874904216 0.0591454569390415 0.884680435661739 C 0.0 **** 0.0
95 C37272 -0.000374934212686694 0.0662403544105141 0.89170391855511 C 0.0 **** 0.0
96 C37276 -0.0441045984836112 0.0461934077555037 0.869915148928788 C 0.0 **** 0.0
97 C37277 -0.0453371453881003 0.0554032570282735 0.885203122289566 C 0.0 **** 0.0
98 C37278 -0.0309687666498019 0.0619199321384386 0.892282814774866 C 0.0 **** 0.0
99 C37283 -0.059173799647197 0.0422157148058524 0.861391334993368 C 0.0 **** 0.0
100 C37284 -0.0586754316908026 0.0335853065792171 0.84622498180969 C 0.0 **** 0.0
101 C37285 -0.0431014720339074 0.0290436355305158 0.839797223956004 C 0.0 **** 0.0
102 O37290 -0.060625900079367 0.0579299480031778 0.893196435154979 O 0.0 **** 0.0
103 C37291 -0.0750126765238839 0.0576803477651276 0.883416426987724 C 0.0 **** 0.0
104 C37292 -0.0753203425383855 0.0492687571628649 0.868336630596728 C 0.0 **** 0.0
105 C37297 -0.0746292908286267 0.0290341534030863 0.836554104938038 C 0.0 **** 0.0
106 C37298 -0.0907794262981851 0.0396621497676645 0.841994856441376 C 0.0 **** 0.0
107 C37299 -0.0898675567118269 0.0484259171835146 0.859114158745483 C 0.0 **** 0.0
108 C37304 -0.107184735508447 0.028975856761395 0.841433991545138 C 0.0 **** 0.0
109 C37305 -0.107632592680469 0.0173121187970162 0.825902340754974 C 0.0 **** 0.0
110 C37306 -0.0926334801692127 0.00466047358692933 0.826422530751362 C 0.0 **** 0.0
111 C37307 -0.0783405480386422 0.0101746293797471 0.838436180853107 C 0.0 **** 0.0
112 C37313 -0.104213158630744 0.0559563004589614 0.865088854945103 C 0.0 **** 0.0
113 C37314 -0.103622928975848 0.0653190188069128 0.879660538521034 C 0.0 **** 0.0
114 C37315 -0.0891110277854299 0.0659983414567628 0.888943156896983 C 0.0 **** 0.0
115 C37320 -0.122230173058056 0.0409989539375159 0.843536358014206 C 0.0 **** 0.0
116 C37322 -0.120480013180875 0.0539093940556539 0.855304535231252 C 0.0 **** 0.0
117 C37325 0.149348103343735 -0.0554312292635135 0.81864345489571 C 0.0 **** 0.0
118 C37327 0.130127943510195 -0.057944545817336 0.818185159077026 C 0.0 **** 0.0
119 C37329 0.158134367543594 -0.0719061556959235 0.813358306138387 C 0.0 **** 0.0
120 O37331 0.0205199550772423 0.00216477042404207 0.794333864436288 O 0.0 **** 0.0
121 C37333 -0.0887003352997265 0.0750425326494399 0.903687107481188 C 0.0 **** 0.0
122 C37334 -0.102640439226626 0.0836040164666799 0.90902042540349 C 0.0 **** 0.0
123 C37335 -0.117169711526535 0.0831644144127685 0.899722385550921 C 0.0 **** 0.0
124 C37336 -0.117562672077962 0.0740036058542574 0.885021374334534 C 0.0 **** 0.0
125 C37342 -0.133381699260978 0.073417616915601 0.874937626639669 C 0.0 **** 0.0
126 C37343 -0.147356489500375 0.0813640014410092 0.881237257785443 C 0.0 **** 0.0
127 C37344 -0.146106205136978 0.0912256941357051 0.897104841120299 C 0.0 **** 0.0
128 C37345 -0.131055655487194 0.0918693026605696 0.90562538457827 C 0.0 **** 0.0
129 C37351 -0.160140498916456 0.0992443825065503 0.903268510761646 C 0.0 **** 0.0
130 C37352 -0.175541619188505 0.0975284670754158 0.895505982631945 C 0.0 **** 0.0
131 C37353 -0.177504891549331 0.0877621105354699 0.881349638496385 C 0.0 **** 0.0
132 C37354 -0.162610158986956 0.0797878306489143 0.873267796749521 C 0.0 **** 0.0
133 C37360 -0.164374930609994 0.0698056474711308 0.858669926554682 C 0.0 **** 0.0
134 C37361 -0.150026725964063 0.0619444100096699 0.851911438122891 C 0.0 **** 0.0
135 C37362 -0.134384352413438 0.0637497156118502 0.860082692623743 C 0.0 **** 0.0
136 C37367 -0.180505376817749 0.0659027698933787 0.852451578027071 C 0.0 **** 0.0
137 C37368 -0.195098816307542 0.075165294445079 0.860857812857654 C 0.0 **** 0.0
138 C37369 -0.1931761179498 0.0852640261710517 0.874696514176899 C 0.0 **** 0.0
139 C37374 -0.137674857002015 0.0391376173145581 0.835670585736186 C 0.0 **** 0.0
140 C37375 -0.151940177947464 0.0495346075435238 0.83933708578052 C 0.0 **** 0.0
141 C37380 -0.182392390721144 0.0536832925613228 0.839906386859517 C 0.0 **** 0.0
142 C37381 -0.168198977862365 0.0460289520234581 0.832783923332668 C 0.0 **** 0.0
143 C37385 -0.170049966484503 0.0327252812659614 0.818920854638418 C 0.0 **** 0.0
144 C37386 -0.185072656255615 0.0368013997007368 0.807466510642678 C 0.0 **** 0.0
145 C37387 -0.200829351734202 0.0379564232432263 0.818117560863778 C 0.0 **** 0.0
146 C37388 -0.19964888178828 0.0481734803146858 0.834065821717548 C 0.0 **** 0.0
147 O37394 -0.212749578454523 0.0505928232752736 0.841676277696014 O 0.0 **** 0.0
148 H37396 0.199040668132708 -0.0505438306690124 0.865582508313293 H 0.0 **** 0.0
149 H37398 0.187892100916055 -0.0320188450115924 0.870945169948654 H 0.0 **** 0.0
150 H37400 0.221242610124961 -0.0352815693516682 0.852423974228257 H 0.0 **** 0.0
151 H37402 0.206234885290896 -0.0191105352020699 0.851429722256945 H 0.0 **** 0.0
152 H37404 0.234336380523982 -0.0247508377511339 0.877279055609401 H 0.0 **** 0.0
153 H37406 0.222956172254941 -0.00254704594311682 0.895503770991031 H 0.0 **** 0.0
154 H37408 0.193469703342513 -0.0217152916328289 0.901186784484283 H 0.0 **** 0.0
155 H37410 0.213740052452388 -0.0274324388675607 0.908354702817405 H 0.0 **** 0.0
156 H37412 0.189589913912453 -0.00505425623512034 0.877344031283605 H 0.0 **** 0.0
157 H37414 0.201815071802042 0.00758793132302103 0.854038098617149 H 0.0 **** 0.0
158 H37416 0.22968988882988 0.0212080375278351 0.87671960387025 H 0.0 **** 0.0
159 H37418 0.228681527387175 0.0241145786180126 0.854638475210717 H 0.0 **** 0.0
160 H37420 0.247172337023348 -0.00103068179027454 0.86686297678035 H 0.0 **** 0.0
161 H37422 0.234730024267231 -0.00500377495828667 0.848885164432841 H 0.0 **** 0.0
162 H37424 0.17833082480819 0.044168247549877 0.868551426767125 H 0.0 **** 0.0
163 H37426 0.184932636906198 0.0396938941560028 0.896361779556499 H 0.0 **** 0.0
164 H37428 0.189164116754485 0.00607808821606389 0.906286693396237 H 0.0 **** 0.0
165 H37430 0.205020065663991 0.0206403380125126 0.90104522696812 H 0.0 **** 0.0
166 H37432 0.173595817835216 0.00609120321677587 0.862663814600406 H 0.0 **** 0.0
167 H37434 0.130908623577063 0.0439323723616368 0.911300170283513 H 0.0 **** 0.0
168 H37436 0.115716980096023 0.027566509525471 0.910592894401388 H 0.0 **** 0.0
169 H37438 0.137572997671186 0.00593789414017187 0.916459275657885 H 0.0 **** 0.0
170 H37440 0.139326328176849 0.0223002799678076 0.931548890189142 H 0.0 **** 0.0
171 H37442 0.168718191808104 0.0212558278415483 0.922476225652999 H 0.0 **** 0.0
172 H37444 0.162365414135209 -0.00274381754825856 0.83943873341471 H 0.0 **** 0.0
173 H37445 0.168435930887289 0.0459912973616272 0.810775429603606 H 0.0 **** 0.0
174 H37447 0.189534139828877 0.0386226471686929 0.808473033242112 H 0.0 **** 0.0
175 H37449 0.186797718995875 0.0435098080846464 0.839119144121726 H 0.0 **** 0.0
176 H37451 0.168659972263765 0.0299150969983597 0.780910303771317 H 0.0 **** 0.0
177 H37453 0.188535309021915 0.0207712598104846 0.7856417133128 H 0.0 **** 0.0
178 H37455 0.180880737031306 -0.00286856585263126 0.771797482778488 H 0.0 **** 0.0
179 H37457 0.160564403129947 0.0056108496168566 0.767787599684098 H 0.0 **** 0.0
180 H37459 0.152785748637638 -0.0229323957463441 0.829002896459435 H 0.0 **** 0.0
181 H37461 0.13619680953417 -0.021864236066773 0.814273973597911 H 0.0 **** 0.0
182 H37463 0.169615159708145 -0.0405710751420807 0.808602467496036 H 0.0 **** 0.0
183 H37465 0.136361515468931 -0.03878221498675 0.788980060199439 H 0.0 **** 0.0
184 H37467 0.1528685248997 -0.0528804702977067 0.783626973373191 H 0.0 **** 0.0
185 H37469 0.151887027956842 -0.0236018711620148 0.768001288080935 H 0.0 **** 0.0
186 H37471 0.171519776067589 -0.0312928598319892 0.775424510341291 H 0.0 **** 0.0
187 H37473 0.132489365201958 0.0207835853020575 0.811367005111133 H 0.0 **** 0.0
188 H37475 0.0669619691031716 0.0279993701841328 0.802360440879244 H 0.0 **** 0.0
189 H37477 0.037321277043847 0.0213219056453876 0.803193644423674 H 0.0 **** 0.0
190 H37479 0.0755109885748535 0.046948989319164 0.890346227429909 H 0.0 **** 0.0
191 H37481 -0.0172220502135432 -0.0171749040112791 0.832883817812311 H 0.0 **** 0.0
192 H37483 0.00981703828834505 -0.0156115799098126 0.822211571426556 H 0.0 **** 0.0
193 H37485 -0.00475985294766489 0.00799150665686363 0.795406903062618 H 0.0 **** 0.0
194 H37487 -0.00346603851715831 -0.0249067930682656 0.787385724509219 H 0.0 **** 0.0
195 H37489 0.0151367614065067 -0.0314641694429881 0.797849895131206 H 0.0 **** 0.0
196 H37491 -0.00366874760167519 -0.0456327548415625 0.819994217048155 H 0.0 **** 0.0
197 H37493 -0.00562469204259854 -0.0548950160736481 0.799788748599643 H 0.0 **** 0.0
198 H37495 -0.0319025940409789 -0.0427634397267357 0.79432169012221 H 0.0 **** 0.0
199 H37497 -0.0301416708626411 -0.0142803496986656 0.796905205247276 H 0.0 **** 0.0
200 H37499 -0.0488177123899601 -0.0164526548914665 0.830013552066849 H 0.0 **** 0.0
201 H37501 -0.0538776054941858 -0.0047992838904078 0.811564382567865 H 0.0 **** 0.0
202 H37503 -0.0607493606332524 -0.031945481549756 0.796793345714048 H 0.0 **** 0.0
203 H37505 -0.0738686112742072 -0.0295070431192815 0.814577702962574 H 0.0 **** 0.0
204 H37507 -0.0589255280340064 -0.0590777003374449 0.808848787596475 H 0.0 **** 0.0
205 H37509 -0.0602349630090551 -0.051713641214448 0.82979415255889 H 0.0 **** 0.0
206 H37511 -0.0323054292132568 -0.0474628835984716 0.830672168427703 H 0.0 **** 0.0
207 H37513 0.0434158868030056 0.0994889505325263 0.896587321510854 H 0.0 **** 0.0
208 H37515 0.0690278851434889 0.0892347608227074 0.909968477403281 H 0.0 **** 0.0
209 H37517 0.0526177440691772 0.0562733816055161 0.91996353572447 H 0.0 **** 0.0
210 H37519 0.0712281084637056 0.0655541030212801 0.927765532278981 H 0.0 **** 0.0
211 H37521 0.0531817582899995 0.0699523292860062 0.951188058293078 H 0.0 **** 0.0
212 H37523 0.034874942974945 0.0712332271260749 0.9385156089584 H 0.0 **** 0.0
213 H37525 0.0619043569427671 0.0988330114200688 0.940456511419953 H 0.0 **** 0.0
214 H37527 0.0423408249857772 0.0996051053372203 0.951170111767666 H 0.0 **** 0.0
215 H37529 0.0448609966622195 0.115267727094301 0.921833238064732 H 0.0 **** 0.0
216 H37531 0.0265103113034273 0.103413550398202 0.925881267544882 H 0.0 **** 0.0
217 H37533 -0.00134963135954193 0.0740571456863579 0.903143280995 H 0.0 **** 0.0
218 H37535 -0.0317523311724984 0.0694474412290405 0.903942982457187 H 0.0 **** 0.0
219 H37537 -0.0433526732501405 0.0227307781730094 0.827451112801659 H 0.0 **** 0.0
220 H37539 -0.0725046692073699 0.0315942229434811 0.822994568511728 H 0.0 **** 0.0
221 H37541 -0.0919849631821002 0.0498174437191843 0.83256800464358 H 0.0 **** 0.0
222 H37543 -0.107269726300476 0.0205349005836156 0.852613667987002 H 0.0 **** 0.0
223 H37545 -0.106948196299675 0.0250052851733965 0.814327510663576 H 0.0 **** 0.0
224 H37547 -0.119560491330546 0.0101635495357483 0.825299010996531 H 0.0 **** 0.0
225 H37549 -0.0873275223207979 0.00310752805370526 0.813639416906938 H 0.0 **** 0.0
226 H37551 -0.0971727877236325 -0.00790050022912888 0.830349528715908 H 0.0 **** 0.0
227 H37553 -0.0669987706060547 0.00255609426904809 0.83598310116347 H 0.0 **** 0.0
228 H37555 -0.0819234807551315 0.00755237131427295 0.851657967506683 H 0.0 **** 0.0
229 H37557 0.152941070652309 -0.0530428359208733 0.831950261370138 H 0.0 **** 0.0
230 H37559 0.126369890117589 -0.0684628129048183 0.82649999959431 H 0.0 **** 0.0
231 H37561 0.125812002329019 -0.0610174703589295 0.805316861772588 H 0.0 **** 0.0
232 H37563 0.123211111864553 -0.0466302808210856 0.822389957807791 H 0.0 **** 0.0
233 H37565 0.171995350420391 -0.0707090605992495 0.813805437039226 H 0.0 **** 0.0
234 H37567 0.154573748936829 -0.0755995790826536 0.800424799298402 H 0.0 **** 0.0
235 H37569 0.154573468782087 -0.0823663238260322 0.821836805795299 H 0.0 **** 0.0
236 H37571 0.0176411052432052 -0.00552475032998022 0.785535108379235 H 0.0 **** 0.0
237 H37573 -0.0772717266404437 0.0756998243521512 0.911390083823392 H 0.0 **** 0.0
238 H37575 -0.101878889284592 0.090673991321494 0.920826946127591 H 0.0 **** 0.0
239 H37577 -0.130214523136254 0.0990022903867213 0.917396131582096 H 0.0 **** 0.0
240 H37579 -0.159494681225446 0.106805121224889 0.914785034515466 H 0.0 **** 0.0
241 H37581 -0.186432583017641 0.10384480686727 0.901154707901624 H 0.0 **** 0.0
242 H37583 -0.207779200542087 0.0739845237377054 0.855729014150436 H 0.0 **** 0.0
243 H37585 -0.20435623887572 0.0911872895931518 0.880188058495964 H 0.0 **** 0.0
244 H37587 -0.139009302801185 0.0284871079528956 0.826910784955115 H 0.0 **** 0.0
245 H37589 -0.158634536492905 0.0321742211713255 0.811007000768074 H 0.0 **** 0.0
246 H37591 -0.17162864385635 0.0201068834554594 0.824678512093749 H 0.0 **** 0.0
247 H37593 -0.186929305397316 0.0272662834470167 0.797526610056526 H 0.0 **** 0.0
248 H37595 -0.182549785225183 0.0488780899555968 0.801076324479938 H 0.0 **** 0.0
249 H37597 -0.204852770204325 0.0254499231037343 0.822757869579626 H 0.0 **** 0.0
250 H37599 -0.211931383135394 0.0434744769856884 0.811855862063462 H 0.0 **** 0.0
@<TRIPOS>BOND
1 3 2 1
2 4 3 1
3 5 4 1
4 6 5 1
5 1 2 1
6 1 6 1
7 8 7 1
8 9 8 1
9 10 9 1
10 4 7 1
11 3 10 1
12 12 11 1
13 13 12 1
14 14 13 1
15 8 11 1
16 7 14 1
17 16 15 1
18 17 16 Partial double
19 18 17 1
20 13 15 1
21 12 18 1
22 20 19 Partial double
23 21 20 Partial double
24 22 21 Partial double
25 17 19 Partial double
26 16 22 Partial double
27 24 23 1
28 25 24 1
29 15 25 Double
30 22 23 1
31 27 26 1
32 28 27 Partial double
33 29 28 Partial double
34 21 26 1
35 20 29 Partial double
36 31 30 1
37 32 31 1
38 18 30 1
39 19 32 1
40 34 33 Double
41 35 34 1
42 36 35 1
43 31 33 1
44 30 36 Double
45 38 37 1
46 39 38 1
47 40 39 Double
48 34 37 1
49 33 40 1
50 42 41 1
51 43 42 1
52 44 43 1
53 40 41 1
54 39 44 1
55 46 45 Partial double
56 32 46 1
57 29 45 Partial double
58 48 47 Partial double
59 49 48 1
60 45 49 Partial double
61 28 47 Partial double
62 51 50 Partial double
63 52 51 Partial double
64 53 52 Partial double
65 48 50 Partial double
66 47 53 Partial double
67 55 54 Partial double
68 56 55 Partial double
69 57 56 Partial double
70 52 54 Partial double
71 51 57 Partial double
72 59 58 Partial double
73 60 59 Partial double
74 61 60 Partial double
75 56 58 Partial double
76 55 61 Partial double
77 63 62 Partial double
78 27 63 Partial double
79 53 62 Partial double
80 65 64 Partial double
81 62 65 Partial double
82 54 64 Partial double
83 67 66 Partial double
84 64 67 Partial double
85 61 66 Partial double
86 69 68 Partial double
87 70 69 Partial double
88 66 70 Partial double
89 60 68 Partial double
90 72 71 1
91 73 72 1
92 74 73 1
93 59 71 1
94 58 74 1
95 76 75 1
96 77 76 1
97 78 77 1
98 73 75 1
99 72 78 1
100 80 79 1
101 81 80 1
102 82 81 1
103 78 79 1
104 77 82 1
105 84 83 Partial double
106 85 84 Partial double
107 67 85 Partial double
108 65 83 Partial double
109 87 86 1
110 88 87 1
111 89 88 1
112 84 86 1
113 83 89 1
114 91 90 1
115 92 91 1
116 93 92 1
117 88 90 1
118 87 93 1
119 95 94 Partial double
120 85 95 Partial double
121 70 94 Partial double
122 97 96 Partial double
123 98 97 Partial double
124 94 98 Partial double
125 69 96 Partial double
126 100 99 Partial double
127 101 100 Partial double
128 68 101 Partial double
129 96 99 Partial double
130 103 102 1
131 104 103 Partial double
132 97 102 1
133 99 104 1
134 106 105 1
135 107 106 1
136 100 105 1
137 104 107 Partial double
138 109 108 1
139 110 109 1
140 111 110 1
141 106 108 1
142 105 111 1
143 113 112 1
144 114 113 1
145 103 114 Partial double
146 107 112 Partial double
147 108 115 1
148 112 116 Partial double
149 115 116 Partial double
150 42 117 1
151 117 118 1
152 117 119 1
153 74 120 1
154 122 121 1
155 123 122 Partial double
156 124 123 1
157 114 121 Partial double
158 113 124 Partial double
159 126 125 Partial double
160 127 126 1
161 128 127 Partial double
162 124 125 Partial double
163 123 128 Partial double
164 130 129 Partial double
165 131 130 1
166 132 131 1
167 127 129 Partial double
168 126 132 Partial double
169 134 133 Partial double
170 135 134 Partial double
171 125 135 Partial double
172 132 133 Partial double
173 137 136 Partial double
174 138 137 Partial double
175 131 138 Partial double
176 133 136 Partial double
177 140 139 Partial double
178 134 140 Partial double
179 116 135 Partial double
180 115 139 Partial double
181 142 141 Partial double
182 140 142 Partial double
183 136 141 Partial double
184 144 143 1
185 145 144 1
186 146 145 1
187 142 143 1
188 141 146 1
189 146 147 Double
190 1 148 1
191 1 149 1
192 2 150 1
193 2 151 1
194 3 152 1
195 4 153 1
196 5 154 1
197 5 155 1
198 7 156 1
199 8 157 1
200 9 158 1
201 9 159 1
202 10 160 1
203 10 161 1
204 12 162 1
205 13 163 1
206 14 164 1
207 14 165 1
208 18 166 1
209 23 167 1
210 23 168 1
211 24 169 1
212 24 170 1
213 25 171 1
214 35 173 1
215 35 174 1
216 36 175 1
217 37 176 1
218 37 177 1
219 38 178 1
220 38 179 1
221 41 180 1
222 41 181 1
223 42 182 1
224 43 183 1
225 43 184 1
226 44 185 1
227 44 186 1
228 46 187 1
229 50 188 1
230 57 189 1
231 63 190 1
232 72 191 1
233 73 192 1
234 74 193 1
235 75 194 1
236 75 195 1
237 76 196 1
238 76 197 1
239 77 198 1
240 78 199 1
241 79 200 1
242 79 201 1
243 80 202 1
244 80 203 1
245 81 204 1
246 81 205 1
247 82 206 1
248 87 207 1
249 88 208 1
250 90 209 1
251 90 210 1
252 91 211 1
253 91 212 1
254 92 213 1
255 92 214 1
256 93 215 1
257 93 216 1
258 95 217 1
259 98 218 1
260 101 219 1
261 105 220 1
262 106 221 1
263 108 222 1
264 109 223 1
265 109 224 1
266 110 225 1
267 110 226 1
268 111 227 1
269 111 228 1
270 117 229 1
271 118 230 1
272 118 231 1
273 118 232 1
274 119 233 1
275 119 234 1
276 119 235 1
277 120 236 1
278 121 237 1
279 122 238 1
280 128 239 1
281 129 240 1
282 130 241 1
283 137 242 1
284 138 243 1
285 139 244 1
286 143 245 1
287 143 246 1
288 144 247 1
289 144 248 1
290 145 249 1
291 145 250 1
292 31 172 1
@<TRIPOS>MOLECULE
Sketch 4
250 292
SMALL
USER_CHARGES


@<TRIPOS>ATOM
1 C37602 0.185526843327282 0.842642978610692 0.544069377641452 C 0.0 **** 0.0
2 C37603 0.167893371933987 0.841408296148697 0.535546948752608 C 0.0 **** 0.0
3 C37604 0.156440087657255 0.828175365977369 0.544243214602763 C 0.0 **** 0.0
4 C37605 0.166141754119079 0.811393096319376 0.547916305147788 C 0.0 **** 0.0
5 C37606 0.184451338822327 0.815422337616027 0.553945898826751 C 0.0 **** 0.0
6 O37607 0.186391782590138 0.832600740623088 0.558904979391678 O 0.0 **** 0.0
7 C37614 0.164771768171404 0.799525213320886 0.5323512216832 C 0.0 **** 0.0
8 C37615 0.146042107042417 0.793886094246603 0.529695392186575 C 0.0 **** 0.0
9 C37616 0.133431961460214 0.807338934068402 0.535892839618895 C 0.0 **** 0.0
10 C37617 0.140105494068384 0.825335471862972 0.533977909058971 C 0.0 **** 0.0
11 O37623 0.141422132991134 0.779236344859775 0.539152824966971 O 0.0 **** 0.0
12 C37624 0.151943437698574 0.764703133070751 0.537026925070987 C 0.0 **** 0.0
13 C37625 0.169866290661957 0.769447965381306 0.542861677627426 C 0.0 **** 0.0
14 C37626 0.176800846173818 0.784156914914646 0.532398564930441 C 0.0 **** 0.0
15 C37632 0.181612529860029 0.754403681466175 0.542531131623795 C 0.0 **** 0.0
16 C37633 0.178904990504875 0.741484128671409 0.528794032999883 C 0.0 **** 0.0
17 C37634 0.164508744675959 0.742093076280541 0.518707818914324 C 0.0 **** 0.0
18 C37635 0.152340945082479 0.75725314398814 0.519102293769472 C 0.0 **** 0.0
19 C37641 0.161718849586723 0.72899371095925 0.507395285876101 C 0.0 **** 0.0
20 C37642 0.174082790434962 0.716857094888611 0.504736050351327 C 0.0 **** 0.0
21 C37643 0.188678748805 0.716631808518687 0.514437589971827 C 0.0 **** 0.0
22 C37644 0.190944308856936 0.728841885895291 0.526834045898415 C 0.0 **** 0.0
23 C37650 0.207052944382941 0.72885611489178 0.537257608907821 C 0.0 **** 0.0
24 C37651 0.204014130551638 0.736090241013317 0.555184521571083 C 0.0 **** 0.0
25 C37652 0.193191633952037 0.751799225582984 0.554776586782081 C 0.0 **** 0.0
26 O37657 0.200975385344912 0.704305978157566 0.51228697198767 O 0.0 **** 0.0
27 C37658 0.200056732306462 0.693427414238335 0.498624291223508 C 0.0 **** 0.0
28 C37659 0.186367585874285 0.692731084010789 0.487749220335105 C 0.0 **** 0.0
29 C37660 0.171652739889587 0.704194451955627 0.490935435219529 C 0.0 **** 0.0
30 C37666 0.135577281806111 0.753120772139766 0.510711348321525 C 0.0 **** 0.0
31 C37667 0.138261924453582 0.745339439409521 0.49335385105149 C 0.0 **** 0.0
32 C37668 0.145122049683126 0.727797697216914 0.498174505759386 C 0.0 **** 0.0
33 C37673 0.122431517785536 0.743731033215999 0.481970249212161 C 0.0 **** 0.0
34 C37674 0.106940061263002 0.745052479656666 0.489454324159361 C 0.0 **** 0.0
35 C37675 0.104244402461805 0.749613654676175 0.507932594782296 C 0.0 **** 0.0
36 C37676 0.12007295906446 0.754804513661475 0.517374702500375 C 0.0 **** 0.0
37 C37682 0.0906185593798208 0.743869046090458 0.479761812247684 C 0.0 **** 0.0
38 C37683 0.0925792631343228 0.735247164814335 0.462414858207991 C 0.0 **** 0.0
39 C37684 0.11026192743006 0.736185938483385 0.455509292080964 C 0.0 **** 0.0
40 C37685 0.123971062009538 0.740797585891705 0.464954230877027 C 0.0 **** 0.0
41 C37691 0.141370069701793 0.741827092011613 0.456140519795971 C 0.0 **** 0.0
42 C37692 0.141042291830855 0.739845260695892 0.436998224916089 C 0.0 **** 0.0
43 C37693 0.129124372605003 0.725301014759635 0.432128703802022 C 0.0 **** 0.0
44 C37694 0.111114593313205 0.729702938360226 0.437509469433507 C 0.0 **** 0.0
45 C37700 0.157185002342349 0.703559084426027 0.481785955104713 C 0.0 **** 0.0
46 C37701 0.144009961506892 0.714030561868703 0.484942040505619 C 0.0 **** 0.0
47 C37705 0.187082918848814 0.681988553936685 0.47349075260826 C 0.0 **** 0.0
48 C37706 0.173941605196035 0.681080935300027 0.461409940677383 C 0.0 **** 0.0
49 S37707 0.154130873120362 0.688957177934801 0.465780935835865 S 0.0 **** 0.0
50 C37712 0.176158879923832 0.673854815675211 0.445867169769908 C 0.0 **** 0.0
51 C37713 0.191137722120663 0.664666337577897 0.442621813574513 C 0.0 **** 0.0
52 C37714 0.203108727929515 0.662698562857112 0.455782122506999 C 0.0 **** 0.0
53 C37715 0.201883869288025 0.672451637269847 0.470375158258293 C 0.0 **** 0.0
54 C37721 0.213829902498444 0.648568340070491 0.455413151265263 C 0.0 **** 0.0
55 C37722 0.212217934391881 0.636525581647486 0.442523104923252 C 0.0 **** 0.0
56 C37723 0.203030334411035 0.6402904646684 0.427723789876774 C 0.0 **** 0.0
57 C37724 0.192480195026993 0.654666769590833 0.428093801302981 C 0.0 **** 0.0
58 C37730 0.202218915216495 0.628578292207064 0.414458172573661 C 0.0 **** 0.0
59 C37731 0.206407237864084 0.611874068135753 0.41776361799501 C 0.0 **** 0.0
60 C37732 0.213055257678693 0.607062589248928 0.433692710554349 C 0.0 **** 0.0
61 C37733 0.217063529598551 0.619810120039185 0.445393136870504 C 0.0 **** 0.0
62 C37739 0.214592266644065 0.671300740821151 0.482736614686904 C 0.0 **** 0.0
63 C37740 0.21358400528605 0.682776240521774 0.496237641637642 C 0.0 **** 0.0
64 C37744 0.223630247726034 0.645016098684894 0.469590035700326 C 0.0 **** 0.0
65 C37745 0.226115925420546 0.65724633400313 0.48217394887383 C 0.0 **** 0.0
66 C37749 0.223979935051487 0.615677482437464 0.461053996538187 C 0.0 **** 0.0
67 C37750 0.228731083991025 0.628409762322812 0.472286427463402 C 0.0 **** 0.0
68 C37754 0.21483397485722 0.589785950702495 0.43877872645619 C 0.0 **** 0.0
69 C37755 0.218416980940881 0.58621288528869 0.45582420170642 C 0.0 **** 0.0
70 C37756 0.224428425752481 0.598858943299901 0.466319740863836 C 0.0 **** 0.0
71 O37761 0.202638276973158 0.599814564631768 0.405553403737904 O 0.0 **** 0.0
72 C37762 0.207474499589547 0.60378225318559 0.388556556498916 C 0.0 **** 0.0
73 C37763 0.205560233559691 0.62287865570609 0.384204646627956 C 0.0 **** 0.0
74 C37764 0.194622116720663 0.63232662579376 0.397065502091599 C 0.0 **** 0.0
75 C37770 0.199881709961581 0.625934653444632 0.365714220892614 C 0.0 **** 0.0
76 C37771 0.208604490483122 0.613347997391885 0.353929881936621 C 0.0 **** 0.0
77 C37772 0.202073987075903 0.59531505710824 0.357274735582776 C 0.0 **** 0.0
78 C37773 0.197411602086396 0.592318398119703 0.376262093717853 C 0.0 **** 0.0
79 C37779 0.198302142171233 0.573368481251515 0.381133326150169 C 0.0 **** 0.0
80 C37780 0.194070752126333 0.562558953923586 0.365623397093283 C 0.0 **** 0.0
81 C37781 0.206822274162842 0.56544480959746 0.351018128116861 C 0.0 **** 0.0
82 N37782 0.213621264588284 0.582788553651868 0.350399168185352 N 0.0 **** 0.0
83 C37788 0.237501522071748 0.653762722299248 0.495479779138107 C 0.0 **** 0.0
84 C37789 0.241803949916454 0.637058531151419 0.498924191531489 C 0.0 **** 0.0
85 C37790 0.236655516927728 0.624271719417732 0.487607946771906 C 0.0 **** 0.0
86 O37795 0.25061970757926 0.632271485365889 0.51331018004547 O 0.0 **** 0.0
87 C37796 0.250082551353839 0.644993195535536 0.526079072159438 C 0.0 **** 0.0
88 C37797 0.255145279431408 0.66157134643863 0.518444417002309 C 0.0 **** 0.0
89 O37798 0.243139663761845 0.666687766658697 0.505975294800601 O 0.0 **** 0.0
90 C37804 0.273313423786336 0.660983669031594 0.511121666256412 C 0.0 **** 0.0
91 C37805 0.284867534852203 0.648151075012091 0.520270427088523 C 0.0 **** 0.0
92 C37806 0.279943904003738 0.64633072389215 0.538934937126291 C 0.0 **** 0.0
93 C37807 0.261626920588187 0.639715639399685 0.540829208867279 C 0.0 **** 0.0
94 C37813 0.230761057200678 0.594555357322911 0.482530151974374 C 0.0 **** 0.0
95 C37814 0.238104287557569 0.607281581692606 0.49248372481691 C 0.0 **** 0.0
96 C37818 0.217684551032225 0.5695534259546 0.461767024553535 C 0.0 **** 0.0
97 C37819 0.221375640204702 0.565731229136273 0.47883075922338 C 0.0 **** 0.0
98 C37820 0.228560689804347 0.577956373389418 0.488809937883813 C 0.0 **** 0.0
99 C37825 0.216075064977081 0.555990859204269 0.450369247796119 C 0.0 **** 0.0
100 C37826 0.215275540949311 0.559129454512734 0.433196015020073 C 0.0 **** 0.0
101 C37827 0.214137191449732 0.575677949097188 0.427871382355959 C 0.0 **** 0.0
102 O37832 0.218763214981503 0.549761446489461 0.485344380751989 O 0.0 **** 0.0
103 C37833 0.219381023808342 0.536262627635043 0.474348106005859 C 0.0 **** 0.0
104 C37834 0.217684622169571 0.538459219763451 0.457271616455618 C 0.0 **** 0.0
105 C37839 0.215664859964404 0.545333431213921 0.41987980479929 C 0.0 **** 0.0
106 C37840 0.214674923275142 0.526708445751945 0.427540189348147 C 0.0 **** 0.0
107 C37841 0.217704413749193 0.524916979229749 0.446581598528697 C 0.0 **** 0.0
108 C37846 0.226793642506588 0.514668030655428 0.418129172407344 C 0.0 **** 0.0
109 C37847 0.226456896430471 0.516945805819808 0.398922322757294 C 0.0 **** 0.0
110 C37848 0.231178491881653 0.535202919807934 0.393666693306669 C 0.0 **** 0.0
111 C37849 0.231484021239235 0.547466243524955 0.408763724841775 C 0.0 **** 0.0
112 C37855 0.220475399211379 0.509122481609181 0.453054003704106 C 0.0 **** 0.0
113 C37856 0.222120540372983 0.506860867518569 0.470174684118725 C 0.0 **** 0.0
114 C37857 0.221317617327285 0.520375244125985 0.480825862110035 C 0.0 **** 0.0
115 C37862 0.223314263202128 0.496615777218117 0.423869591515886 C 0.0 **** 0.0
116 C37864 0.221291997892538 0.494275192880793 0.441137210445843 C 0.0 **** 0.0
117 C37867 0.159131511413045 0.738887635732521 0.429621727946086 C 0.0 **** 0.0
118 C37869 0.168692352697973 0.722498849125701 0.433625456148859 C 0.0 **** 0.0
119 C37871 0.159270925535826 0.741804787991547 0.410471344948385 C 0.0 **** 0.0
120 O37873 0.19515366170752 0.64983018755822 0.39301591241371 O 0.0 **** 0.0
121 C37875 0.222326772392972 0.51793899560134 0.497922604333499 C 0.0 **** 0.0
122 C37876 0.224723058793578 0.502139247787111 0.504303874809623 C 0.0 **** 0.0
123 C37877 0.226456800839841 0.488647375025833 0.49375480569255 C 0.0 **** 0.0
124 C37878 0.224570647851365 0.491059999254792 0.476747639314167 C 0.0 **** 0.0
125 C37884 0.224988066644097 0.476195557936434 0.465430052009287 C 0.0 **** 0.0
126 C37885 0.228803515729696 0.460744204059758 0.472135302703981 C 0.0 **** 0.0
127 C37886 0.231790444325671 0.459119929188621 0.490498959361671 C 0.0 **** 0.0
128 C37887 0.230123595112028 0.473060079394202 0.500649067862499 C 0.0 **** 0.0
129 C37893 0.235895421902984 0.443633100684374 0.497032923887328 C 0.0 **** 0.0
130 C37894 0.237107291593804 0.429599251930177 0.486878065361073 C 0.0 **** 0.0
131 C37895 0.234076127966983 0.430406665536995 0.469827449024753 C 0.0 **** 0.0
132 C37896 0.229681447466844 0.446789339234341 0.461966704535791 C 0.0 **** 0.0
133 C37902 0.226532291874977 0.447959732482583 0.444543534924067 C 0.0 **** 0.0
134 C37903 0.222864157751804 0.463814616575802 0.437639105792619 C 0.0 **** 0.0
135 C37904 0.222213484883342 0.478068074594615 0.448075602619558 C 0.0 **** 0.0
136 C37909 0.227368545842244 0.433716249334055 0.434086846897417 C 0.0 **** 0.0
137 C37910 0.231617032382122 0.417246207927322 0.443048458499516 C 0.0 **** 0.0
138 C37911 0.234963720836274 0.416282079961726 0.459972521097051 C 0.0 **** 0.0
139 C37916 0.223149370542562 0.482513375443176 0.413578515594913 C 0.0 **** 0.0
140 C37917 0.221741508491123 0.465772043803145 0.420085512009386 C 0.0 **** 0.0
141 C37922 0.224125065005551 0.435386666239714 0.41682911278111 C 0.0 **** 0.0
142 C37923 0.22093817072724 0.451257733524331 0.409789787666616 C 0.0 **** 0.0
143 C37927 0.217770891917358 0.4532471907217 0.390910239720727 C 0.0 **** 0.0
144 C37928 0.206674690233287 0.438681732722385 0.384777625059519 C 0.0 **** 0.0
145 C37929 0.215491128605075 0.422119862942644 0.388473613832373 C 0.0 **** 0.0
146 C37930 0.224248801808207 0.420367193631488 0.405258951562002 C 0.0 **** 0.0
147 O37936 0.231537361195038 0.407149382214014 0.408010677124845 O 0.0 **** 0.0
148 H37938 0.188387789051416 0.855656753660683 0.547859197949421 H 0.0 **** 0.0
149 H37940 0.195575677821247 0.839039228875943 0.535108461068902 H 0.0 **** 0.0
150 H37942 0.161304257982779 0.853675937711703 0.535566432169806 H 0.0 **** 0.0
151 H37944 0.169268746551721 0.838048202372683 0.522087828169853 H 0.0 **** 0.0
152 H37946 0.152905697806839 0.833511657308241 0.556650401924629 H 0.0 **** 0.0
153 H37948 0.159487588439028 0.805029617496109 0.558434006127546 H 0.0 **** 0.0
154 H37950 0.193849508040331 0.812330941693758 0.544140325159759 H 0.0 **** 0.0
155 H37952 0.187681537512007 0.807711552599302 0.565037841453806 H 0.0 **** 0.0
156 H37954 0.168297839615528 0.807408616512782 0.521360777921857 H 0.0 **** 0.0
157 H37956 0.144100975416508 0.791546372937385 0.516059383132313 H 0.0 **** 0.0
158 H37958 0.131041408973295 0.804790953688673 0.549393719379982 H 0.0 **** 0.0
159 H37960 0.121145881810279 0.805842221669696 0.529497930384846 H 0.0 **** 0.0
160 H37962 0.130495016365318 0.834611231816789 0.537814539195624 H 0.0 **** 0.0
161 H37964 0.14266455792557 0.827504179689131 0.520456926805195 H 0.0 **** 0.0
162 H37966 0.146512523925494 0.75533821294398 0.545788123559161 H 0.0 **** 0.0
163 H37968 0.168822588760461 0.773782999920007 0.556069841304824 H 0.0 **** 0.0
164 H37970 0.178676853664962 0.780050838818952 0.519210502680033 H 0.0 **** 0.0
165 H37972 0.189521267499705 0.787626684844738 0.536849028592119 H 0.0 **** 0.0
166 H37974 0.157851325655206 0.76700468836256 0.510707027334402 H 0.0 **** 0.0
167 H37976 0.212279642835258 0.716005762151415 0.538335309942342 H 0.0 **** 0.0
168 H37978 0.216731627416593 0.736513115916182 0.530740005567482 H 0.0 **** 0.0
169 H37980 0.216260746147872 0.738890731530906 0.561268237229395 H 0.0 **** 0.0
170 H37982 0.197735091253885 0.726491648711668 0.563105585846532 H 0.0 **** 0.0
171 H37984 0.194723788690781 0.760432705007904 0.565412601158111 H 0.0 **** 0.0
172 H37986 0.148088624192357 0.752591416916995 0.486633151286384 H 0.0 **** 0.0
173 H37987 0.0982589444795817 0.73883690361065 0.514497683151793 H 0.0 **** 0.0
174 H37989 0.0951361846426963 0.760215667808045 0.508527426895721 H 0.0 **** 0.0
175 H37991 0.118364206720971 0.759914282019071 0.530064068948045 H 0.0 **** 0.0
176 H37993 0.0810871312321853 0.736942264940168 0.487261985582387 H 0.0 **** 0.0
177 H37995 0.0856360292035772 0.756779948783651 0.478020299280187 H 0.0 **** 0.0
178 H37997 0.0836360032285011 0.741023574850745 0.453372625981733 H 0.0 **** 0.0
179 H37999 0.0889764104501702 0.721811245256804 0.463465426720148 H 0.0 **** 0.0
180 H38001 0.14723355847994 0.754086173271199 0.459252781754378 H 0.0 **** 0.0
181 H38003 0.149804603720881 0.732163355250605 0.461364648149314 H 0.0 **** 0.0
182 H38005 0.135448638541681 0.751450137707011 0.43174334420295 H 0.0 **** 0.0
183 H38007 0.133260205783805 0.713570017605051 0.438423414416515 H 0.0 **** 0.0
184 H38009 0.129441655888599 0.722759568055963 0.418440830641414 H 0.0 **** 0.0
185 H38011 0.102891202440675 0.718484101680012 0.436261946860491 H 0.0 **** 0.0
186 H38013 0.105857115150864 0.739384082445009 0.428972506999129 H 0.0 **** 0.0
187 H38015 0.132195368037374 0.712549366581636 0.478053805696767 H 0.0 **** 0.0
188 H38017 0.165993631638284 0.673749773438384 0.436430777511878 H 0.0 **** 0.0
189 H38019 0.18300936422717 0.656543801462527 0.41812806064461 H 0.0 **** 0.0
190 H38021 0.22296579263618 0.683396416328122 0.506360191702817 H 0.0 **** 0.0
191 H38023 0.220949894696544 0.600426585325821 0.387336082975217 H 0.0 **** 0.0
192 H38025 0.218195729089784 0.628818735678458 0.385237570593585 H 0.0 **** 0.0
193 H38027 0.181398471256898 0.627752889152285 0.39675132770605 H 0.0 **** 0.0
194 H38029 0.186060310128661 0.624507036886104 0.364464260258381 H 0.0 **** 0.0
195 H38031 0.202861327233874 0.639035356154223 0.3619825611183 H 0.0 **** 0.0
196 H38033 0.222359605010528 0.613962672591511 0.356148277568846 H 0.0 **** 0.0
197 H38035 0.20668812071596 0.616666812952054 0.340516968575026 H 0.0 **** 0.0
198 H38037 0.190209378093846 0.594037288800259 0.350009553113059 H 0.0 **** 0.0
199 H38039 0.184098346777546 0.596300581418736 0.377699834021307 H 0.0 **** 0.0
200 H38041 0.211185702459855 0.57018614336442 0.385378579854381 H 0.0 **** 0.0
201 H38043 0.189752533857037 0.570645962441557 0.391789448012471 H 0.0 **** 0.0
202 H38045 0.181249789779231 0.566075997645879 0.361357646987926 H 0.0 **** 0.0
203 H38047 0.193492121064496 0.54898470782272 0.368664906099584 H 0.0 **** 0.0
204 H38049 0.200747063814992 0.562691896722291 0.338777072110525 H 0.0 **** 0.0
205 H38051 0.217462276612274 0.5565166738474 0.35210602371583 H 0.0 **** 0.0
206 H38053 0.224692681786012 0.583498633656397 0.356501615119763 H 0.0 **** 0.0
207 H38055 0.236899536942129 0.645960400506488 0.530513950326676 H 0.0 **** 0.0
208 H38057 0.254779468681349 0.67114733693519 0.528569134663149 H 0.0 **** 0.0
209 H38059 0.272548564244389 0.657740747277012 0.497609010825148 H 0.0 **** 0.0
210 H38061 0.279027557203614 0.67368096791446 0.511648444935305 H 0.0 **** 0.0
211 H38063 0.298186935410207 0.651937384235674 0.518903358899795 H 0.0 **** 0.0
212 H38065 0.2837784391131 0.635654281135867 0.514161808707749 H 0.0 **** 0.0
213 H38067 0.2811031385328 0.658805564865464 0.545056051566744 H 0.0 **** 0.0
214 H38069 0.288737762611712 0.637871985723466 0.545631804026362 H 0.0 **** 0.0
215 H38071 0.256452557679692 0.643801753953332 0.553088774100486 H 0.0 **** 0.0
216 H38073 0.261743531575541 0.625790575723171 0.541059249482658 H 0.0 **** 0.0
217 H38075 0.243383662950682 0.604043040179478 0.504919617306941 H 0.0 **** 0.0
218 H38077 0.232590683947936 0.574946625189507 0.501770083205011 H 0.0 **** 0.0
219 H38079 0.213005983874002 0.577265458218205 0.414208873559305 H 0.0 **** 0.0
220 H38081 0.204495108366208 0.546821020454214 0.411628065517112 H 0.0 **** 0.0
221 H38083 0.20163697456332 0.522292915152058 0.425196041173067 H 0.0 **** 0.0
222 H38085 0.239853176883897 0.517694636545499 0.422187845786435 H 0.0 **** 0.0
223 H38087 0.213822659259846 0.513666966612377 0.394076404710995 H 0.0 **** 0.0
224 H38089 0.235548425227814 0.508100607652712 0.393251219310101 H 0.0 **** 0.0
225 H38091 0.22206449149592 0.539865533003772 0.384221384388602 H 0.0 **** 0.0
226 H38093 0.243605209031741 0.535305595592246 0.387373289596511 H 0.0 **** 0.0
227 H38095 0.232757559616875 0.560489555536727 0.403974657870324 H 0.0 **** 0.0
228 H38097 0.242836302787072 0.54511878581593 0.416529764481746 H 0.0 **** 0.0
229 H38099 0.166324402172662 0.749450904928793 0.435319748779513 H 0.0 **** 0.0
230 H38101 0.181574863729527 0.723047755244141 0.428361267272736 H 0.0 **** 0.0
231 H38103 0.16231143597821 0.711471924321836 0.428023977443605 H 0.0 **** 0.0
232 H38105 0.169943336789285 0.720212473143844 0.447281606176787 H 0.0 **** 0.0
233 H38107 0.152377291214977 0.753373752822077 0.40696114748603 H 0.0 **** 0.0
234 H38109 0.153427421329539 0.731101342289794 0.403799816784652 H 0.0 **** 0.0
235 H38111 0.17229932432841 0.743138496913682 0.405770683202194 H 0.0 **** 0.0
236 H38113 0.190543035218462 0.65077944879962 0.38194749639851 H 0.0 **** 0.0
237 H38115 0.221267851673521 0.528468972330388 0.506768369097054 H 0.0 **** 0.0
238 H38117 0.225291498931338 0.500457065421223 0.517956274196378 H 0.0 **** 0.0
239 H38119 0.231897347031367 0.471833588634035 0.514294147913912 H 0.0 **** 0.0
240 H38121 0.238294555796654 0.442172798135698 0.510536438416588 H 0.0 **** 0.0
241 H38123 0.240462920256004 0.417618680076145 0.492817656558738 H 0.0 **** 0.0
242 H38125 0.232128833454961 0.405541052856962 0.435893922973333 H 0.0 **** 0.0
243 H38127 0.238212133654486 0.404005244972515 0.465302511704898 H 0.0 **** 0.0
244 H38129 0.224081226164381 0.484450980075398 0.399906654622525 H 0.0 **** 0.0
245 H38131 0.211205979047722 0.465174873094332 0.388103553445734 H 0.0 **** 0.0
246 H38133 0.229808085437047 0.453507202383971 0.3838738531866 H 0.0 **** 0.0
247 H38135 0.203867332763414 0.439787050285423 0.3711946772594 H 0.0 **** 0.0
248 H38137 0.194486037425425 0.439342351720999 0.391464923366274 H 0.0 **** 0.0
249 H38139 0.226014308791059 0.419575632729676 0.379745570436441 H 0.0 **** 0.0
250 H38141 0.207340450373921 0.410866655526583 0.388032609172626 H 0.0 **** 0.0
@<TRIPOS>BOND
1 3 2 1
2 4 3 1
3 5 4 1
4 6 5 1
5 1 2 1
6 1 6 1
7 8 7 1
8 9 8 1
9 10 9 1
10 4 7 1
11 3 10 1
12 12 11 1
13 13 12 1
14 14 13 1
15 8 11 1
16 7 14 1
17 16 15 1
18 17 16 Partial double
19 18 17 1
20 13 15 1
21 12 18 1
22 20 19 Partial double
23 21 20 Partial double
24 22 21 Partial double
25 17 19 Partial double
26 16 22 Partial double
27 24 23 1
28 25 24 1
29 15 25 Double
30 22 23 1
31 27 26 1
32 28 27 Partial double
33 29 28 Partial double
34 21 26 1
35 20 29 Partial double
36 31 30 1
37 32 31 1
38 18 30 1
39 19 32 1
40 34 33 Double
41 35 34 1
42 36 35 1
43 31 33 1
44 30 36 Double
45 38 37 1
46 39 38 1
47 40 39 Double
48 34 37 1
49 33 40 1
50 42 41 1
51 43 42 1
52 44 43 1
53 40 41 1
54 39 44 1
55 46 45 Partial double
56 32 46 1
57 29 45 Partial double
58 48 47 Partial double
59 49 48 1
60 45 49 Partial double
61 28 47 Partial double
62 51 50 Partial double
63 52 51 Partial double
64 53 52 Partial double
65 48 50 Partial double
66 47 53 Partial double
67 55 54 Partial double
68 56 55 Partial double
69 57 56 Partial double
70 52 54 Partial double
71 51 57 Partial double
72 59 58 Partial double
73 60 59 Partial double
74 61 60 Partial double
75 56 58 Partial double
76 55 61 Partial double
77 63 62 Partial double
78 27 63 Partial double
79 53 62 Partial double
80 65 64 Partial double
81 62 65 Partial double
82 54 64 Partial double
83 67 66 Partial double
84 64 67 Partial double
85 61 66 Partial double
86 69 68 Partial double
87 70 69 Partial double
88 66 70 Partial double
89 60 68 Partial double
90 72 71 1
91 73 72 1
92 74 73 1
93 59 71 1
94 58 74 1
95 76 75 1
96 77 76 1
97 78 77 1
98 73 75 1
99 72 78 1
100 80 79 1
101 81 80 1
102 82 81 1
103 78 79 1
104 77 82 1
105 84 83 Partial double
106 85 84 Partial double
107 67 85 Partial double
108 65 83 Partial double
109 87 86 1
110 88 87 1
111 89 88 1
112 84 86 1
113 83 89 1
114 91 90 1
115 92 91 1
116 93 92 1
117 88 90 1
118 87 93 1
119 95 94 Partial double
120 85 95 Partial double
121 70 94 Partial double
122 97 96 Partial double
123 98 97 Partial double
124 94 98 Partial double
125 69 96 Partial double
126 100 99 Partial double
127 101 100 Partial double
128 68 101 Partial double
129 96 99 Partial double
130 103 102 1
131 104 103 Partial double
132 97 102 1
133 99 104 1
134 106 105 1
135 107 106 1
136 100 105 1
137 104 107 Partial double
138 109 108 1
139 110 109 1
140 111 110 1
141 106 108 1
142 105 111 1
143 113 112 1
144 114 113 1
145 103 114 Partial double
146 107 112 Partial double
147 108 115 1
148 112 116 Partial double
149 115 116 Partial double
150 42 117 1
151 117 118 1
152 117 119 1
153 74 120 1
154 122 121 1
155 123 122 Partial double
156 124 123 1
157 114 121 Partial double
158 113 124 Partial double
159 126 125 Partial double
160 127 126 1
161 128 127 Partial double
162 124 125 Partial double
163 123 128 Partial double
164 130 129 Partial double
165 131 130 1
166 132 131 1
167 127 129 Partial double
168 126 132 Partial double
169 134 133 Partial double
170 135 134 Partial double
171 125 135 Partial double
172 132 133 Partial double
173 137 136 Partial double
174 138 137 Partial double
175 131 138 Partial double
176 133 136 Partial double
177 140 139 Partial double
178 134 140 Partial double
179 116 135 Partial double
180 115 139 Partial double
181 142 141 Partial double
182 140 142 Partial double
183 136 141 Partial double
184 144 143 1
185 145 144 1
186 146 145 1
187 142 143 1
188 141 146 1
189 146 147 Double
190 1 148 1
191 1 149 1
192 2 150 1
193 2 151 1
194 3 152 1
195 4 153 1
196 5 154 1
197 5 155 1
198 7 156 1
199 8 157 1
200 9 158 1
201 9 159 1
202 10 160 1
203 10 161 1
204 12 162 1
205 13 163 1
206 14 164 1
207 14 165 1
208 18 166 1
209 23 167 1
210 23 168 1
211 24 169 1
212 24 170 1
213 25 171 1
214 35 173 1
215 35 174 1
216 36 175 1
217 37 176 1
218 37 177 1
219 38 178 1
220 38 179 1
221 41 180 1
222 41 181 1
223 42 182 1
224 43 183 1
225 43 184 1
226 44 185 1
227 44 186 1
228 46 187 1
229 50 188 1
230 57 189 1
231 63 190 1
232 72 191 1
233 73 192 1
234 74 193 1
235 75 194 1
236 75 195 1
237 76 196 1
238 76 197 1
239 77 198 1
240 78 199 1
241 79 200 1
242 79 201 1
243 80 202 1
244 80 203 1
245 81 204 1
246 81 205 1
247 82 206 1
248 87 207 1
249 88 208 1
250 90 209 1
251 90 210 1
252 91 211 1
253 91 212 1
254 92 213 1
255 92 214 1
256 93 215 1
257 93 216 1
258 95 217 1
259 98 218 1
260 101 219 1
261 105 220 1
262 106 221 1
263 108 222 1
264 109 223 1
265 109 224 1
266 110 225 1
267 110 226 1
268 111 227 1
269 111 228 1
270 117 229 1
271 118 230 1
272 118 231 1
273 118 232 1
274 119 233 1
275 119 234 1
276 119 235 1
277 120 236 1
278 121 237 1
279 122 238 1
280 128 239 1
281 129 240 1
282 130 241 1
283 137 242 1
284 138 243 1
285 139 244 1
286 143 245 1
287 143 246 1
288 144 247 1
289 144 248 1
290 145 249 1
291 145 250 1
292 31 172 1
@<TRIPOS>MOLECULE
Sketch 4
250 292
SMALL
USER_CHARGES


@<TRIPOS>ATOM
1 C38144 0.52449506737179 0.182360513186471 0.0404754345236054 C 0.0 **** 0.0
2 C38145 0.512281740769197 0.195012069093202 0.0492772748236432 C 0.0 **** 0.0
3 C38146 0.500280289100995 0.203230751231281 0.0361399701652297 C 0.0 **** 0.0
4 C38147 0.510223692719895 0.207011253655976 0.019746340197222 C 0.0 **** 0.0
5 C38148 0.518099994581911 0.190339498685232 0.012803882138316 C 0.0 **** 0.0
6 O38149 0.517831155300303 0.176831415360757 0.0247433091282417 O 0.0 **** 0.0
7 C38156 0.523755465956931 0.220793931223314 0.0232083733302563 C 0.0 **** 0.0
8 C38157 0.517185877990214 0.234952327993481 0.0354673429974258 C 0.0 **** 0.0
9 C38158 0.497883066819114 0.235515642360252 0.0357446331787381 C 0.0 **** 0.0
10 C38159 0.490473188144075 0.218898013279527 0.0426302038498672 C 0.0 **** 0.0
11 O38165 0.523318758473959 0.251479895449363 0.0314291351237496 O 0.0 **** 0.0
12 C38166 0.541155767844872 0.251474764532739 0.0281638255414087 C 0.0 **** 0.0
13 C38167 0.544190832223861 0.242994877140705 0.0106615862375708 C 0.0 **** 0.0
14 C38168 0.530667437888186 0.22894635916092 0.00702353004911215 C 0.0 **** 0.0
15 C38174 0.562041315899479 0.236596212356046 0.00740589857830194 C 0.0 **** 0.0
16 C38175 0.574470409944135 0.235252683826191 0.0218014552263592 C 0.0 **** 0.0
17 C38176 0.570105317113681 0.24070706884105 0.0378730819132123 C 0.0 **** 0.0
18 C38177 0.551451166923496 0.243323249363614 0.0424033732778741 C 0.0 **** 0.0
19 C38183 0.582275280353966 0.240798394931281 0.0505202636211797 C 0.0 **** 0.0
20 C38184 0.597796375293934 0.233220782218417 0.0477792965739931 C 0.0 **** 0.0
21 C38185 0.601509087003706 0.226189024582511 0.0321242893006201 C 0.0 **** 0.0
22 C38186 0.590071897644717 0.227802417814942 0.0188447450336189 C 0.0 **** 0.0
23 C38192 0.593948586314462 0.219645851601632 0.00192355076150777 C 0.0 **** 0.0
24 C38193 0.584840031409034 0.228402981881908 -0.0130370426443333 C 0.0 **** 0.0
25 C38194 0.5670629940053 0.233633657419158 -0.00862900573182942 C 0.0 **** 0.0
26 O38199 0.616311846467508 0.217248715200337 0.0294166642239142 O 0.0 **** 0.0
27 C38200 0.627010146598567 0.21404380802916 0.0428225982737916 C 0.0 **** 0.0
28 C38201 0.625127736366832 0.22095545160845 0.0588523850562347 C 0.0 **** 0.0
29 C38202 0.609783479244044 0.231437744412476 0.0623579868799789 C 0.0 **** 0.0
30 C38208 0.549029565586508 0.249823414877078 0.0602558220607855 C 0.0 **** 0.0
31 C38209 0.560349531306243 0.239974480967727 0.0721480822302948 C 0.0 **** 0.0
32 C38210 0.577724992670512 0.247403686705472 0.0677150456122794 C 0.0 **** 0.0
33 C38215 0.555870341434606 0.240802834108645 0.091057022157181 C 0.0 **** 0.0
34 C38216 0.54574237947646 0.253746678135461 0.0962639506330693 C 0.0 **** 0.0
35 C38217 0.537427596976688 0.266391267996663 0.0844089480004673 C 0.0 **** 0.0
36 C38218 0.538871116499874 0.262199129357112 0.0657782695606003 C 0.0 **** 0.0
37 C38224 0.540059724173236 0.255969696532237 0.114213560601397 C 0.0 **** 0.0
38 C38225 0.550134248875042 0.24518738522573 0.126870689609293 C 0.0 **** 0.0
39 C38226 0.558151243080386 0.229847873379342 0.118984786849484 C 0.0 **** 0.0
40 C38227 0.561247223894471 0.228549173907512 0.102061143859104 C 0.0 **** 0.0
41 C38233 0.571029458641061 0.212770760309475 0.0960713617603987 C 0.0 **** 0.0
42 C38234 0.56830835689711 0.197476106179417 0.107407774747659 C 0.0 **** 0.0
43 C38235 0.573789449864562 0.202402522148166 0.125373124327261 C 0.0 **** 0.0
44 C38236 0.563213380968365 0.217043841311376 0.1322230023082 C 0.0 **** 0.0
45 C38242 0.606433854145732 0.238224868899524 0.0777819109472756 C 0.0 **** 0.0
46 C38243 0.591474810850343 0.246066146484355 0.0810102235021858 C 0.0 **** 0.0
47 C38247 0.63795788721863 0.218350493977097 0.0711533092952507 C 0.0 **** 0.0
48 C38248 0.638450870790927 0.226826981336509 0.0868597128411736 C 0.0 **** 0.0
49 S38249 0.620717241494127 0.237100010589103 0.0945939396013256 S 0.0 **** 0.0
50 C38254 0.653111403480804 0.228182183423768 0.0960884121480436 C 0.0 **** 0.0
51 C38255 0.668079794608085 0.220113779463587 0.0905840347756601 C 0.0 **** 0.0
52 C38256 0.667249716753864 0.209781326559731 0.0760284619924416 C 0.0 **** 0.0
53 C38257 0.652163903364396 0.208515972877506 0.0669149900691785 C 0.0 **** 0.0
54 C38263 0.681883143900694 0.201893712700959 0.0702124014038422 C 0.0 **** 0.0
55 C38264 0.69765068822218 0.205702456650028 0.0771919574545708 C 0.0 **** 0.0
56 C38265 0.698934551818979 0.215936790348901 0.0917340196998011 C 0.0 **** 0.0
57 C38266 0.683816202442183 0.222506930299422 0.0985460788079871 C 0.0 **** 0.0
58 C38272 0.714899139401736 0.220075304465066 0.0984621633049814 C 0.0 **** 0.0
59 C38273 0.729245383737078 0.215699408100404 0.0894362995814982 C 0.0 **** 0.0
60 C38274 0.728066108682537 0.205479299667352 0.0746992774558237 C 0.0 **** 0.0
61 C38275 0.712208397207353 0.19940921325998 0.0697794343817978 C 0.0 **** 0.0
62 C38281 0.652066149931936 0.198810433627301 0.0521438620551021 C 0.0 **** 0.0
63 C38282 0.640001810684028 0.202961539285908 0.0397878918123638 C 0.0 **** 0.0
64 C38286 0.680805766459366 0.19017523009264 0.0570935070325882 C 0.0 **** 0.0
65 C38287 0.665343222516049 0.187272045702261 0.0490849698397123 C 0.0 **** 0.0
66 C38291 0.710924148769825 0.186722150649428 0.0575651250808112 C 0.0 **** 0.0
67 C38292 0.695052966603903 0.181630711351118 0.0518145461861883 C 0.0 **** 0.0
68 C38296 0.742568041267881 0.200181770526495 0.065332132476412 C 0.0 **** 0.0
69 C38297 0.741135008364492 0.186178423944684 0.0543993070758995 C 0.0 **** 0.0
70 C38298 0.725396910564129 0.179429638806059 0.0507808213500881 C 0.0 **** 0.0
71 O38303 0.745161496730407 0.22065676374292 0.0948682142309827 O 0.0 **** 0.0
72 C38304 0.746352581661621 0.235339851492253 0.105211675595466 C 0.0 **** 0.0
73 C38305 0.734413244062214 0.233580649798537 0.120318502346186 C 0.0 **** 0.0
74 C38306 0.716218863347746 0.230473344423296 0.114673408829621 C 0.0 **** 0.0
75 C38312 0.735406594970122 0.248977960308589 0.132454442531899 C 0.0 **** 0.0
76 C38313 0.748759694706114 0.261884624375568 0.126849203063933 C 0.0 **** 0.0
77 C38314 0.746627521648965 0.267482443712779 0.108299440002577 C 0.0 **** 0.0
78 C38315 0.743338188407948 0.25229930856005 0.0958879716605348 C 0.0 **** 0.0
79 C38321 0.752604664441012 0.25444617192745 0.078840441823981 C 0.0 **** 0.0
80 C38322 0.751130587646442 0.273048535342147 0.0735176276885815 C 0.0 **** 0.0
81 C38323 0.759039442299479 0.285429127936245 0.0865853178634919 C 0.0 **** 0.0
82 N38324 0.760720000281536 0.27828509157436 0.103606193707324 N 0.0 **** 0.0
83 C38330 0.663291780701995 0.1733701335592 0.0379962810021118 C 0.0 **** 0.0
84 C38331 0.677364057291993 0.163987678814226 0.0333446231634237 C 0.0 **** 0.0
85 C38332 0.693359926584578 0.168367604115353 0.0401057040078924 C 0.0 **** 0.0
86 O38337 0.67641157309173 0.15053166598259 0.0221285154657434 O 0.0 **** 0.0
87 C38338 0.661609474811024 0.151555199346375 0.0118410918173476 C 0.0 **** 0.0
88 C38339 0.646381808330976 0.154022327610147 0.022912692680242 C 0.0 **** 0.0
89 O38340 0.647243471687937 0.169581402434972 0.0320000921813697 O 0.0 **** 0.0
90 C38346 0.643661613307289 0.138995132113756 0.0351349814793147 C 0.0 **** 0.0
91 C38347 0.649045187959372 0.121842920461449 0.0275151500918696 C 0.0 **** 0.0
92 C38348 0.647946610971053 0.122192859569719 0.00816188083540773 C 0.0 **** 0.0
93 C38349 0.660141024185451 0.135563637101414 0.000765238617416698 C 0.0 **** 0.0
94 C38355 0.724030286256204 0.165759351818257 0.0392632257355376 C 0.0 **** 0.0
95 C38356 0.707900739053195 0.15999772480179 0.0344395329051712 C 0.0 **** 0.0
96 C38360 0.755552426652913 0.179720878250647 0.0463669598118941 C 0.0 **** 0.0
97 C38361 0.754382144619295 0.165555302383457 0.0355049321395285 C 0.0 **** 0.0
98 C38362 0.738804354498756 0.158793277965032 0.0320766433775067 C 0.0 **** 0.0
99 C38367 0.771363227168464 0.187569354898346 0.0483653309009032 C 0.0 **** 0.0
100 C38368 0.772842399977743 0.201925068843358 0.0582033452749592 C 0.0 **** 0.0
101 C38369 0.7585273560383 0.208126470462617 0.0659414107052028 C 0.0 **** 0.0
102 O38374 0.768365804703787 0.15823431362174 0.0281251313171179 O 0.0 **** 0.0
103 C38375 0.7837936813034 0.166226078530808 0.02931090563223 C 0.0 **** 0.0
104 C38376 0.786114988709023 0.180343606619905 0.0390233915521787 C 0.0 **** 0.0
105 C38381 0.789356457772147 0.211333900573624 0.0608710033887688 C 0.0 **** 0.0
106 C38382 0.80448399907071 0.204639234169083 0.0493124825759302 C 0.0 **** 0.0
107 C38383 0.801581920537235 0.187991309562701 0.0398984888780636 C 0.0 **** 0.0
108 C38388 0.821308669286281 0.203815018347589 0.0592344516975431 C 0.0 **** 0.0
109 C38389 0.824054307828781 0.219804768757626 0.0699715462164526 C 0.0 **** 0.0
110 C38390 0.809672489546688 0.222276404641949 0.0830654777662874 C 0.0 **** 0.0
111 C38391 0.794252101508065 0.210907715006327 0.0796331135515308 C 0.0 **** 0.0
112 C38397 0.815023783329531 0.180772694211049 0.0317853406882411 C 0.0 **** 0.0
113 C38398 0.812619874181557 0.166868763368218 0.0216730668458406 C 0.0 **** 0.0
114 C38399 0.797021754567567 0.159667238970219 0.0203731330922315 C 0.0 **** 0.0
115 C38404 0.835587823610698 0.200056624427758 0.0467415377737969 C 0.0 **** 0.0
116 C38406 0.832336726901361 0.188521773011084 0.0339097758142077 C 0.0 **** 0.0
117 C38409 0.577233558017737 0.181557697809203 0.100288087225353 C 0.0 **** 0.0
118 C38411 0.596610633871511 0.182471757781275 0.100463553458848 C 0.0 **** 0.0
119 C38413 0.571482293590246 0.165425288682711 0.10931284006385 C 0.0 **** 0.0
120 O38415 0.707427269965694 0.222165672288262 0.12799892228104 O 0.0 **** 0.0
121 C38417 0.794653166301647 0.14588181124769 0.0101771940035607 C 0.0 **** 0.0
122 C38418 0.807799467291241 0.139257543198345 0.00128377755472357 C 0.0 **** 0.0
123 C38419 0.823489147293705 0.146266617730656 0.00257205488879238 C 0.0 **** 0.0
124 C38420 0.825776152454911 0.160110930689288 0.0127311520146244 C 0.0 **** 0.0
125 C38426 0.842788342143631 0.167838803087258 0.0139575602122352 C 0.0 **** 0.0
126 C38427 0.855884874621129 0.160159044801286 0.00573964220844855 C 0.0 **** 0.0
127 C38428 0.852625342493619 0.145207854954931 -0.00501396886647771 C 0.0 **** 0.0
128 C38429 0.836535009164885 0.138996329708383 -0.00638446568842029 C 0.0 **** 0.0
129 C38435 0.865791450638527 0.137755701967272 -0.0133777212519086 C 0.0 **** 0.0
130 C38436 0.882033378946185 0.143543989191152 -0.0115177562620741 C 0.0 **** 0.0
131 C38437 0.885733015544132 0.157164790776948 -0.0014693536439986 C 0.0 **** 0.0
132 C38438 0.871967858500807 0.166276671010707 0.00734077123818682 C 0.0 **** 0.0
133 C38444 0.875419261718442 0.180447379625247 0.0174641864345072 C 0.0 **** 0.0
134 C38445 0.86200210403227 0.188547730530184 0.0256529338071781 C 0.0 **** 0.0
135 C38446 0.845553397050124 0.18216609139169 0.0240164494237017 C 0.0 **** 0.0
136 C38451 0.892089230954768 0.185637984471402 0.0203789557843258 C 0.0 **** 0.0
137 C38452 0.905529504357398 0.176055030916864 0.0105343776798815 C 0.0 **** 0.0
138 C38453 0.901991493238753 0.162535942717623 0.000403886953832728 C 0.0 **** 0.0
139 C38458 0.851762851424224 0.20645548987809 0.0481121287607543 C 0.0 **** 0.0
140 C38459 0.865324854066877 0.201399283448821 0.0374201263713709 C 0.0 **** 0.0
141 C38464 0.895357829042548 0.198702791514688 0.031747478024658 C 0.0 **** 0.0
142 C38465 0.882086577965528 0.207074479908817 0.0397757052789007 C 0.0 **** 0.0
143 C38469 0.885680364477086 0.221413691121322 0.0521581782552144 C 0.0 **** 0.0
144 C38470 0.900453540543818 0.232238817075914 0.0459068672447035 C 0.0 **** 0.0
145 C38471 0.915820018218837 0.221111071471459 0.0436772100690806 C 0.0 **** 0.0
146 C38472 0.913162851519565 0.203989072447859 0.0358120645159601 C 0.0 **** 0.0
147 O38478 0.925549925849511 0.195135923442607 0.033863595275454 O 0.0 **** 0.0
148 H38480 0.526399110653924 0.170969641279438 0.0481971061593922 H 0.0 **** 0.0
149 H38482 0.537141533781182 0.187994426717982 0.0387456535189834 H 0.0 **** 0.0
150 H38484 0.504602238236368 0.1886408901543 0.0590204471344011 H 0.0 **** 0.0
151 H38486 0.51956993131277 0.204718085969839 0.0560990917805894 H 0.0 **** 0.0
152 H38488 0.490934815879297 0.193400109929553 0.0330878518643346 H 0.0 **** 0.0
153 H38490 0.501256770663584 0.212111164582139 0.0103369016494818 H 0.0 **** 0.0
154 H38492 0.531126685554701 0.192401540887629 0.00824476210586678 H 0.0 **** 0.0
155 H38494 0.510811921594325 0.185693614529259 0.00192816601350757 H 0.0 **** 0.0
156 H38496 0.534513062139256 0.214214847280262 0.0291377739932251 H 0.0 **** 0.0
157 H38498 0.521016791601761 0.231836580860867 0.0485322034259404 H 0.0 **** 0.0
158 H38500 0.493269938880869 0.237891114416736 0.0228059353493135 H 0.0 **** 0.0
159 H38502 0.493750879361324 0.246366495137716 0.0434431645618834 H 0.0 **** 0.0
160 H38504 0.47707025041004 0.217937987903095 0.0389620807039194 H 0.0 **** 0.0
161 H38506 0.490585088246375 0.219135332415805 0.0565640959481743 H 0.0 **** 0.0
162 H38508 0.544629312934112 0.264914970409659 0.0271981862791864 H 0.0 **** 0.0
163 H38510 0.542146545150501 0.252879464838817 0.00103352996292989 H 0.0 **** 0.0
164 H38512 0.535439605069753 0.21933768833414 -0.00186346375698891 H 0.0 **** 0.0
165 H38514 0.519879835334001 0.234957703814993 0.000593594079498962 H 0.0 **** 0.0
166 H38516 0.546904581950169 0.230172937397744 0.0435227877133243 H 0.0 **** 0.0
167 H38518 0.607587404646255 0.219654226903364 -0.000510391750441452 H 0.0 **** 0.0
168 H38520 0.590032578030836 0.206265888529347 0.00242466046451387 H 0.0 **** 0.0
169 H38522 0.584634566204973 0.219782572972876 -0.024016145293449 H 0.0 **** 0.0
170 H38524 0.592062567917286 0.239614921584118 -0.0170465274313587 H 0.0 **** 0.0
171 H38526 0.558623557161985 0.235516520681809 -0.0193711599230552 H 0.0 **** 0.0
172 H38528 0.559722806207415 0.2266607149665 0.0681128412791604 H 0.0 **** 0.0
173 H38529 0.542770967311273 0.278969088450025 0.086859416359366 H 0.0 **** 0.0
174 H38531 0.523840470409992 0.267151002943354 0.0876532040392991 H 0.0 **** 0.0
175 H38533 0.53103321893598 0.269427242634221 0.0570346839017698 H 0.0 **** 0.0
176 H38535 0.541058619824029 0.269432324031197 0.117742436483024 H 0.0 **** 0.0
177 H38537 0.526533938127685 0.252631132277227 0.114961988104558 H 0.0 **** 0.0
178 H38539 0.541852570986134 0.241467658459444 0.137462207722477 H 0.0 **** 0.0
179 H38541 0.56039645363485 0.252846506718048 0.132383774906292 H 0.0 **** 0.0
180 H38543 0.567514830822764 0.209216258119666 0.0831208533516186 H 0.0 **** 0.0
181 H38545 0.584599578370675 0.215843060825151 0.0957524270318958 H 0.0 **** 0.0
182 H38547 0.55460988741563 0.194648693846707 0.107670348590253 H 0.0 **** 0.0
183 H38549 0.587168164763127 0.206272387040956 0.124906507310258 H 0.0 **** 0.0
184 H38551 0.57295624362864 0.191643740331434 0.134176630739688 H 0.0 **** 0.0
185 H38553 0.570098753834538 0.223504710700297 0.142506260294785 H 0.0 **** 0.0
186 H38555 0.551505522110295 0.211969136535279 0.137895844394953 H 0.0 **** 0.0
187 H38557 0.588950550433166 0.251743791369856 0.0933038303502744 H 0.0 **** 0.0
188 H38559 0.653467300405587 0.235746163232692 0.10766870688564 H 0.0 **** 0.0
189 H38561 0.684166730462287 0.230699778845688 0.109725490613963 H 0.0 **** 0.0
190 H38563 0.640934306656555 0.19736316509739 0.0272538365716092 H 0.0 **** 0.0
191 H38565 0.759502800244942 0.235442533256447 0.109901465148001 H 0.0 **** 0.0
192 H38567 0.73834217957766 0.22204613572382 0.127117580000104 H 0.0 **** 0.0
193 H38569 0.71012500718667 0.242815996368635 0.112086941475449 H 0.0 **** 0.0
194 H38571 0.72310640979461 0.255519329075934 0.133038201213644 H 0.0 **** 0.0
195 H38573 0.738034943335473 0.244762703308308 0.145435561610454 H 0.0 **** 0.0
196 H38575 0.761464674782787 0.25637416805378 0.128549394729482 H 0.0 **** 0.0
197 H38577 0.748375747011179 0.273201364315086 0.134999759489551 H 0.0 **** 0.0
198 H38579 0.735293317400963 0.275634453225523 0.107914914611778 H 0.0 **** 0.0
199 H38581 0.72974991240283 0.25265708214867 0.0927971158906659 H 0.0 **** 0.0
200 H38583 0.766042256995898 0.250947399472528 0.0800660718954528 H 0.0 **** 0.0
201 H38585 0.747070294942285 0.246071391682704 0.0691781335585634 H 0.0 **** 0.0
202 H38587 0.737521309483427 0.275881868145955 0.0722247502566338 H 0.0 **** 0.0
203 H38589 0.756602803471656 0.275367935721358 0.0609271529194098 H 0.0 **** 0.0
204 H38591 0.751238570502014 0.296950214777676 0.0874607661865589 H 0.0 **** 0.0
205 H38593 0.771585678101337 0.289694139407507 0.0822877421483384 H 0.0 **** 0.0
206 H38595 0.771586985796643 0.271838156986904 0.104594080668483 H 0.0 **** 0.0
207 H38597 0.663080532946167 0.162708323430553 0.00362041931257033 H 0.0 **** 0.0
208 H38599 0.63529752606817 0.154901654502356 0.014518479213626 H 0.0 **** 0.0
209 H38601 0.650853282339148 0.141439972572142 0.0468013512774855 H 0.0 **** 0.0
210 H38603 0.630284202706142 0.138592457304708 0.0389740307959061 H 0.0 **** 0.0
211 H38605 0.641334352881725 0.111596303187935 0.0328994674335069 H 0.0 **** 0.0
212 H38607 0.662243288774625 0.119093046202328 0.031103333727257 H 0.0 **** 0.0
213 H38609 0.634868225219235 0.125275962041907 0.00442592297768675 H 0.0 **** 0.0
214 H38611 0.650696103951981 0.109705178258771 0.00263675864466605 H 0.0 **** 0.0
215 H38613 0.656230472702807 0.138642272182683 -0.0122486419037214 H 0.0 **** 0.0
216 H38615 0.672908122888918 0.130100085557777 -0.000247410405036852 H 0.0 **** 0.0
217 H38617 0.706846918215799 0.14967456729446 0.0252028466902327 H 0.0 **** 0.0
218 H38619 0.73769309097705 0.148088417675369 0.0232704039500803 H 0.0 **** 0.0
219 H38621 0.760286608561489 0.219922232422006 0.0729415310254642 H 0.0 **** 0.0
220 H38623 0.787368997077398 0.224711577783216 0.0573737565200579 H 0.0 **** 0.0
221 H38625 0.806093636925887 0.21435786209769 0.0394013333923 H 0.0 **** 0.0
222 H38627 0.820602347174684 0.193011516497686 0.0680901365220554 H 0.0 **** 0.0
223 H38629 0.824667986080688 0.230846144452823 0.0614976346561101 H 0.0 **** 0.0
224 H38631 0.836179281673113 0.219274828225823 0.0767823398732717 H 0.0 **** 0.0
225 H38633 0.8055349019367 0.235583651752732 0.0830111613014158 H 0.0 **** 0.0
226 H38635 0.814488168010295 0.219862931179612 0.095909935616533 H 0.0 **** 0.0
227 H38637 0.783725476174473 0.214934556700435 0.0878348285167682 H 0.0 **** 0.0
228 H38639 0.797100426302852 0.197727401188871 0.0831781546467742 H 0.0 **** 0.0
229 H38641 0.573266366232437 0.180306196293962 0.0869333365460499 H 0.0 **** 0.0
230 H38643 0.602051632627239 0.171126147634867 0.094495823801063 H 0.0 **** 0.0
231 H38645 0.601465772142477 0.183073766012179 0.113488416551084 H 0.0 **** 0.0
232 H38647 0.601496044795965 0.193518378678474 0.0935660890379793 H 0.0 **** 0.0
233 H38649 0.557671171895852 0.163973667212213 0.108665827748394 H 0.0 **** 0.0
234 H38651 0.575167663443173 0.165611780224627 0.122716829551122 H 0.0 **** 0.0
235 H38653 0.577191530178463 0.15412168245568 0.103521810648065 H 0.0 **** 0.0
236 H38655 0.709064145854304 0.22911431959223 0.137670004165731 H 0.0 **** 0.0
237 H38657 0.782297684294637 0.139862529434147 0.00893010550894291 H 0.0 **** 0.0
238 H38659 0.805492498068104 0.128183186528191 -0.00661939449785898 H 0.0 **** 0.0
239 H38661 0.834073490981004 0.12803047967562 -0.0144039630575026 H 0.0 **** 0.0
240 H38663 0.863635405459681 0.126889795002214 -0.021593102076151 H 0.0 **** 0.0
241 H38665 0.892035741972294 0.136921329746098 -0.0183166751818629 H 0.0 **** 0.0
242 H38667 0.918652414569098 0.180035420087829 0.0113405805342682 H 0.0 **** 0.0
243 H38669 0.912414658536232 0.156273799001591 -0.00603372364086367 H 0.0 **** 0.0
244 H38671 0.854213507260238 0.215445310919356 0.0583516226251546 H 0.0 **** 0.0
245 H38673 0.874652375567821 0.229722126177982 0.0537235096996974 H 0.0 **** 0.0
246 H38675 0.888636007649773 0.216163511021142 0.0647471075654115 H 0.0 **** 0.0
247 H38677 0.903335802181685 0.242472806514307 0.0548942569011757 H 0.0 **** 0.0
248 H38679 0.896954619273442 0.238287727581087 0.0338381346941245 H 0.0 **** 0.0
249 H38681 0.92178657792948 0.217814422628517 0.0558150804414374 H 0.0 **** 0.0
250 H38683 0.925874498612962 0.226593034727415 0.0358074227831756 H 0.0 **** 0.0
@<TRIPOS>BOND
1 3 2 1
2 4 3 1
3 5 4 1
4 6 5 1
5 1 2 1
6 1 6 1
7 8 7 1
8 9 8 1
9 10 9 1
10 4 7 1
11 3 10 1
12 12 11 1
13 13 12 1
14 14 13 1
15 8 11 1
16 7 14 1
17 16 15 1
18 17 16 Partial double
19 18 17 1
20 13 15 1
21 12 18 1
22 20 19 Partial double
23 21 20 Partial double
24 22 21 Partial double
25 17 19 Partial double
26 16 22 Partial double
27 24 23 1
28 25 24 1
29 15 25 Double
30 22 23 1
31 27 26 1
32 28 27 Partial double
33 29 28 Partial double
34 21 26 1
35 20 29 Partial double
36 31 30 1
37 32 31 1
38 18 30 1
39 19 32 1
40 34 33 Double
41 35 34 1
42 36 35 1
43 31 33 1
44 30 36 Double
45 38 37 1
46 39 38 1
47 40 39 Double
48 34 37 1
49 33 40 1
50 42 41 1
51 43 42 1
52 44 43 1
53 40 41 1
54 39 44 1
55 46 45 Partial double
56 32 46 1
57 29 45 Partial double
58 48 47 Partial double
59 49 48 1
60 45 49 Partial double
61 28 47 Partial double
62 51 50 Partial double
63 52 51 Partial double
64 53 52 Partial double
65 48 50 Partial double
66 47 53 Partial double
67 55 54 Partial double
68 56 55 Partial double
69 57 56 Partial double
70 52 54 Partial double
71 51 57 Partial double
72 59 58 Partial double
73 60 59 Partial double
74 61 60 Partial double
75 56 58 Partial double
76 55 61 Partial double
77 63 62 Partial double
78 27 63 Partial double
79 53 62 Partial double
80 65 64 Partial double
81 62 65 Partial double
82 54 64 Partial double
83 67 66 Partial double
84 64 67 Partial double
85 61 66 Partial double
86 69 68 Partial double
87 70 69 Partial double
88 66 70 Partial double
89 60 68 Partial double
90 72 71 1
91 73 72 1
92 74 73 1
93 59 71 1
94 58 74 1
95 76 75 1
96 77 76 1
97 78 77 1
98 73 75 1
99 72 78 1
100 80 79 1
101 81 80 1
102 82 81 1
103 78 79 1
104 77 82 1
105 84 83 Partial double
106 85 84 Partial double
107 67 85 Partial double
108 65 83 Partial double
109 87 86 1
110 88 87 1
111 89 88 1
112 84 86 1
113 83 89 1
114 91 90 1
115 92 91 1
116 93 92 1
117 88 90 1
118 87 93 1
119 95 94 Partial double
120 85 95 Partial double
121 70 94 Partial double
122 97 96 Partial double
123 98 97 Partial double
124 94 98 Partial double
125 69 96 Partial double
126 100 99 Partial double
127 101 100 Partial double
128 68 101 Partial double
129 96 99 Partial double
130 103 102 1
131 104 103 Partial double
132 97 102 1
133 99 104 1
134 106 105 1
135 107 106 1
136 100 105 1
137 104 107 Partial double
138 109 108 1
139 110 109 1
140 111 110 1
141 106 108 1
142 105 111 1
143 113 112 1
144 114 113 1
145 103 114 Partial double
146 107 112 Partial double
147 108 115 1
148 112 116 Partial double
149 115 116 Partial double
150 42 117 1
151 117 118 1
152 117 119 1
153 74 120 1
154 122 121 1
155 123 122 Partial double
156 124 123 1
157 114 121 Partial double
158 113 124 Partial double
159 126 125 Partial double
160 127 126 1
161 128 127 Partial double
162 124 125 Partial double
163 123 128 Partial double
164 130 129 Partial double
165 131 130 1
166 132 131 1
167 127 129 Partial double
168 126 132 Partial double
169 134 133 Partial double
170 135 134 Partial double
171 125 135 Partial double
172 132 133 Partial double
173 137 136 Partial double
174 138 137 Partial double
175 131 138 Partial double
176 133 136 Partial double
177 140 139 Partial double
178 134 140 Partial double
179 116 135 Partial double
180 115 139 Partial double
181 142 141 Partial double
182 140 142 Partial double
183 136 141 Partial double
184 144 143 1
185 145 144 1
186 146 145 1
187 142 143 1
188 141 146 1
189 146 147 Double
190 1 148 1
191 1 149 1
192 2 150 1
193 2 151 1
194 3 152 1
195 4 153 1
196 5 154 1
197 5 155 1
198 7 156 1
199 8 157 1
200 9 158 1
201 9 159 1
202 10 160 1
203 10 161 1
204 12 162 1
205 13 163 1
206 14 164 1
207 14 165 1
208 18 166 1
209 23 167 1
210 23 168 1
211 24 169 1
212 24 170 1
213 25 171 1
214 35 173 1
215 35 174 1
216 36 175 1
217 37 176 1
218 37 177 1
219 38 178 1
220 38 179 1
221 41 180 1
222 41 181 1
223 42 182 1
224 43 183 1
225 43 184 1
226 44 185 1
227 44 186 1
228 46 187 1
229 50 188 1
230 57 189 1
231 63 190 1
232 72 191 1
233 73 192 1
234 74 193 1
235 75 194 1
236 75 195 1
237 76 196 1
238 76 197 1
239 77 198 1
240 78 199 1
241 79 200 1
242 79 201 1
243 80 202 1
244 80 203 1
245 81 204 1
246 81 205 1
247 82 206 1
248 87 207 1
249 88 208 1
250 90 209 1
251 90 210 1
252 91 211 1
253 91 212 1
254 92 213 1
255 92 214 1
256 93 215 1
257 93 216 1
258 95 217 1
259 98 218 1
260 101 219 1
261 105 220 1
262 106 221 1
263 108 222 1
264 109 223 1
265 109 224 1
266 110 225 1
267 110 226 1
268 111 227 1
269 111 228 1
270 117 229 1
271 118 230 1
272 118 231 1
273 118 232 1
274 119 233 1
275 119 234 1
276 119 235 1
277 120 236 1
278 121 237 1
279 122 238 1
280 128 239 1
281 129 240 1
282 130 241 1
283 137 242 1
284 138 243 1
285 139 244 1
286 143 245 1
287 143 246 1
288 144 247 1
289 144 248 1
290 145 249 1
291 145 250 1
292 31 172 1
@<TRIPOS>MOLECULE
Sketch 4
250 292
SMALL
USER_CHARGES


@<TRIPOS>ATOM
1 C38686 0.231570934531049 0.0271014880911337 0.507103605174763 C 0.0 **** 0.0
2 C38687 0.243433639221137 0.0243775159234169 0.491697564303462 C 0.0 **** 0.0
3 C38688 0.256045089908687 0.0392308487065391 0.489817895570296 C 0.0 **** 0.0
4 C38689 0.247088153409045 0.0562672702264023 0.493544883366297 C 0.0 **** 0.0
5 C38690 0.23814173935416 0.0554687846941775 0.511137001760768 C 0.0 **** 0.0
6 O38691 0.238438933546884 0.0390501270423212 0.518589030980834 O 0.0 **** 0.0
7 C38698 0.234205488534115 0.0611189259478303 0.479522076818561 C 0.0 **** 0.0
8 C38699 0.239234808383528 0.0545105318522674 0.46157455275346 C 0.0 **** 0.0
9 C38700 0.258401717646324 0.0524142649019842 0.460206245824078 C 0.0 **** 0.0
10 C38701 0.265482824992178 0.0392399964111594 0.472656629841822 C 0.0 **** 0.0
11 O38707 0.234051274296064 0.0652738175617381 0.44801231748994 O 0.0 **** 0.0
12 C38708 0.217556376190485 0.072303047614256 0.450460734635712 C 0.0 **** 0.0
13 C38709 0.218569078372052 0.0858939606661957 0.464467607231046 C 0.0 **** 0.0
14 C38710 0.230888211292787 0.0802996122664279 0.479046426551118 C 0.0 **** 0.0
15 C38716 0.20144437131871 0.0918352814986437 0.470812484563671 C 0.0 **** 0.0
16 C38717 0.185643615755505 0.0827975076651191 0.465058973103909 C 0.0 **** 0.0
17 C38718 0.186666397061164 0.0673188766855655 0.45685362785298 C 0.0 **** 0.0
18 C38719 0.203724580407819 0.0590298507393577 0.453407980238888 C 0.0 **** 0.0
19 C38725 0.171842218155463 0.0586786991452016 0.452959784547537 C 0.0 **** 0.0
20 C38726 0.156395722008789 0.0655444557845976 0.457543377023446 C 0.0 **** 0.0
21 C38727 0.155373508907003 0.0816699463060145 0.464377200606936 C 0.0 **** 0.0
22 C38728 0.170117829546174 0.090270349495145 0.468426197109644 C 0.0 **** 0.0
23 C38734 0.169030326457691 0.10755386594539 0.476614938607545 C 0.0 **** 0.0
24 C38735 0.183695329304715 0.110419462900404 0.489205339043152 C 0.0 **** 0.0
25 C38736 0.200384749195566 0.1047620827145 0.481876276793673 C 0.0 **** 0.0
26 O38741 0.139930191582171 0.0893768284818349 0.467474776674434 O 0.0 **** 0.0
27 C38742 0.125495235834533 0.0796184841753343 0.467807605894764 C 0.0 **** 0.0
28 C38743 0.124973870353829 0.0628646949152342 0.462500336087587 C 0.0 **** 0.0
29 C38744 0.140887517495203 0.0548317941294052 0.455981138760461 C 0.0 **** 0.0
30 C38750 0.20157650610409 0.0462207799020108 0.439498272340393 C 0.0 **** 0.0
31 C38751 0.189176657080262 0.0327306262139724 0.445019660719487 C 0.0 **** 0.0
32 C38752 0.172112076726066 0.0419711886544046 0.443531344193576 C 0.0 **** 0.0
33 C38757 0.190209508813928 0.0162724017109048 0.434397334127569 C 0.0 **** 0.0
34 C38758 0.195638608210474 0.0178643157386742 0.418052079354268 C 0.0 **** 0.0
35 C38759 0.202276422127186 0.0342179105423492 0.41044562167365 C 0.0 **** 0.0
36 C38760 0.207347075727025 0.0471313075225104 0.423584761280644 C 0.0 **** 0.0
37 C38766 0.198102187846301 0.0031881224394554 0.406283470192174 C 0.0 **** 0.0
38 C38767 0.189266958431404 -0.0130303337659319 0.412246318115443 C 0.0 **** 0.0
39 C38768 0.186418089865126 -0.0134510767987564 0.431027344807709 C 0.0 **** 0.0
40 C38769 0.186646618266474 0.000646699429218518 0.441035518877574 C 0.0 **** 0.0
41 C38775 0.182863674799299 -0.00217506201169315 0.459976608019219 C 0.0 **** 0.0
42 C38776 0.188380548245534 -0.0197700295297577 0.465713237481422 C 0.0 **** 0.0
43 C38777 0.178107735344258 -0.0327351093992961 0.455483890671868 C 0.0 **** 0.0
44 C38778 0.182519306335222 -0.0312686345467383 0.436744500632073 C 0.0 **** 0.0
45 C38784 0.141649701404825 0.0384559228827431 0.450732595221743 C 0.0 **** 0.0
46 C38785 0.156372071533534 0.0312334419489267 0.445577392023203 C 0.0 **** 0.0
47 C38789 0.110302670338096 0.0530059271840388 0.466007550537384 C 0.0 **** 0.0
48 C38790 0.110378450418194 0.0352876923006365 0.464545145662467 C 0.0 **** 0.0
49 S38791 0.123539634126116 0.0259633323802794 0.449850065887935 S 0.0 **** 0.0
50 C38796 0.101432106406935 0.0251031902176125 0.475444601165534 C 0.0 **** 0.0
51 C38797 0.0903200522699105 0.0325986266256973 0.487264661897682 C 0.0 **** 0.0
52 C38798 0.0874053084401305 0.0502592223897736 0.486273940112427 C 0.0 **** 0.0
53 C38799 0.0971371097834677 0.0602976984208708 0.475348872203055 C 0.0 **** 0.0
54 C38805 0.0758605152656159 0.05769996541688 0.497303976039081 C 0.0 **** 0.0
55 C38806 0.0670923318341081 0.0478856030985218 0.509064395176319 C 0.0 **** 0.0
56 C38807 0.071153648001459 0.0307100700266744 0.511673970136746 C 0.0 **** 0.0
57 C38808 0.0824901376955583 0.023224728308351 0.500178031830415 C 0.0 **** 0.0
58 C38814 0.0636243130172924 0.0214851462464512 0.52497331719926 C 0.0 **** 0.0
59 C38815 0.0492117268841179 0.0280715028713018 0.532465424813218 C 0.0 **** 0.0
60 C38816 0.0434955889990524 0.0444872629615843 0.5279242886596 C 0.0 **** 0.0
61 C38817 0.0538119368544372 0.0548817347601452 0.518058012187556 C 0.0 **** 0.0
62 C38823 0.0961036064058096 0.0778878773300811 0.476801777929826 C 0.0 **** 0.0
63 C38824 0.111021323714272 0.0872648161754579 0.473665313019274 C 0.0 **** 0.0
64 C38828 0.0727848109473292 0.0750281628208719 0.49632363344731 C 0.0 **** 0.0
65 C38829 0.0819633944707552 0.0850366052060606 0.484980129048182 C 0.0 **** 0.0
66 C38833 0.0503622735024764 0.0721243236715243 0.516640012451151 C 0.0 **** 0.0
67 C38834 0.06030734428978 0.0822625533706422 0.506167358483092 C 0.0 **** 0.0
68 C38838 0.0274958309521483 0.0508610864980449 0.533060847169612 C 0.0 **** 0.0
69 C38839 0.0245479167630765 0.0683834322966437 0.532302960271309 C 0.0 **** 0.0
70 C38840 0.0362988362709061 0.0789406626674997 0.524725743654606 C 0.0 **** 0.0
71 O38845 0.0399666010263112 0.0191571905603497 0.544525620571265 O 0.0 **** 0.0
72 C38846 0.0444675051169424 0.00223369029621323 0.5489498997767 C 0.0 **** 0.0
73 C38847 0.063553772719552 -0.000373678403109034 0.547730932913172 C 0.0 **** 0.0
74 C38848 0.0702570650122803 0.00415171162570844 0.530211888912756 C 0.0 **** 0.0
75 C38854 0.06896199594968 -0.0183585024277676 0.553446206140498 C 0.0 **** 0.0
76 C38855 0.0541319647125475 -0.030890421983228 0.554759815133794 C 0.0 **** 0.0
77 C38856 0.0417459243681228 -0.029097863338691 0.539956850579743 C 0.0 **** 0.0
78 C38857 0.0338678186059487 -0.0108846879407463 0.539003125683213 C 0.0 **** 0.0
79 C38863 0.0151966255559853 -0.0106262523051542 0.544692843049474 C 0.0 **** 0.0
80 C38864 0.0044531595951503 -0.0243914056958239 0.535881238653892 C 0.0 **** 0.0
81 C38865 0.0152269785935436 -0.0391259529348145 0.529062008704713 C 0.0 **** 0.0
82 N38866 0.0292965215114459 -0.0428139311195927 0.540318293262009 N 0.0 **** 0.0
83 C38872 0.077259176099638 0.101993933348261 0.481828930637956 C 0.0 **** 0.0
84 C38873 0.0647577364637072 0.109356038003555 0.491627585686042 C 0.0 **** 0.0
85 C38874 0.056942426406296 0.099638838594687 0.504535120613451 C 0.0 **** 0.0
86 O38879 0.0596457232055218 0.125915411926247 0.489106923923255 O 0.0 **** 0.0
87 C38880 0.0617950707793999 0.130417542353034 0.471729896659837 C 0.0 **** 0.0
88 C38881 0.0799226900164122 0.127848372645208 0.466651249472277 C 0.0 **** 0.0
89 O38882 0.0853349117913214 0.110759667916985 0.468939115355047 O 0.0 **** 0.0
90 C38888 0.0918591881051072 0.140161882738277 0.475872482714102 C 0.0 **** 0.0
91 C38889 0.0852507461354812 0.158575897122758 0.476315417425563 C 0.0 **** 0.0
92 C38890 0.0701892552100153 0.161162087946018 0.464415411707473 C 0.0 **** 0.0
93 C38891 0.0558055436530214 0.148833591975606 0.469029495139975 C 0.0 **** 0.0
94 C38897 0.0329794815676055 0.0965122317886973 0.52368082514013 C 0.0 **** 0.0
95 C38898 0.0442212984378069 0.10684848094722 0.514512000597148 C 0.0 **** 0.0
96 C38902 0.00881685095788964 0.0747877424617801 0.537269004696005 C 0.0 **** 0.0
97 C38903 0.00561304628172308 0.0923710918524271 0.536836116379299 C 0.0 **** 0.0
98 C38904 0.017745772246727 0.102990671765406 0.530451122551589 C 0.0 **** 0.0
99 C38909 -0.00448241674759197 0.0638244614543063 0.541663217227629 C 0.0 **** 0.0
100 C38910 -0.00206119726314794 0.0465179796807228 0.54166077128966 C 0.0 **** 0.0
101 C38911 0.0136151187204646 0.0404517439318469 0.537212616518375 C 0.0 **** 0.0
102 O38916 -0.00932845112288896 0.0991775721251228 0.542723868455128 O 0.0 **** 0.0
103 C38917 -0.0230905171593806 0.0886491866555824 0.544825671209647 C 0.0 **** 0.0
104 C38918 -0.0214186490496188 0.0714306334181601 0.545063894719081 C 0.0 **** 0.0
105 C38923 -0.0156999658343926 0.0338253275962002 0.54619796750279 C 0.0 **** 0.0
106 C38924 -0.0340992355675236 0.0419224366452565 0.547054054175941 C 0.0 **** 0.0
107 C38925 -0.0350962292859637 0.0612268030930735 0.547691818165287 C 0.0 **** 0.0
108 C38930 -0.0445983031667392 0.0344217175089221 0.561747976909017 C 0.0 **** 0.0
109 C38931 -0.042333553885582 0.0151620365776644 0.563056601069892 C 0.0 **** 0.0
110 C38932 -0.0236663462392699 0.0104096126165775 0.566740771318289 C 0.0 **** 0.0
111 C38933 -0.011197379112956 0.0248718963512473 0.562803193893755 C 0.0 **** 0.0
112 C38939 -0.0504946692656346 0.0684124703187679 0.550698688764809 C 0.0 **** 0.0
113 C38940 -0.0523879848769745 0.0856343858542033 0.549666649352486 C 0.0 **** 0.0
114 C38941 -0.0387056890882259 0.0957436124536236 0.546857558840614 C 0.0 **** 0.0
115 C38946 -0.0628764532354104 0.0403704680007619 0.559682477526692 C 0.0 **** 0.0
116 C38948 -0.0652859776834502 0.0570614551906922 0.554773341923448 C 0.0 **** 0.0
117 C38951 0.187625545644036 -0.0221538482467233 0.485095677171985 C 0.0 **** 0.0
118 C38953 0.169659484171685 -0.0228868869300625 0.492312427899087 C 0.0 **** 0.0
119 C38955 0.197640491986911 -0.0377991282137853 0.490673864061472 C 0.0 **** 0.0
120 O38957 0.0882288038196258 0.00464573774058113 0.531122703016557 O 0.0 **** 0.0
121 C38959 -0.0406623228227935 0.112925400607181 0.546086961167283 C 0.0 **** 0.0
122 C38960 -0.0562692165777765 0.12000242275125 0.547733910975684 C 0.0 **** 0.0
123 C38961 -0.0700984819261352 0.109996211908965 0.550240921638784 C 0.0 **** 0.0
124 C38962 -0.0680172154271557 0.092831341148555 0.551312279667811 C 0.0 **** 0.0
125 C38968 -0.0830210201952073 0.0819471441399764 0.554035380431855 C 0.0 **** 0.0
126 C38969 -0.0984652594167425 0.0894669876280199 0.555738624509516 C 0.0 **** 0.0
127 C38970 -0.0999590891706932 0.108043251183029 0.554191569796075 C 0.0 **** 0.0
128 C38971 -0.0857431744441694 0.117587483144699 0.551556662198931 C 0.0 **** 0.0
129 C38977 -0.115563042493036 0.115395036781623 0.555494433467615 C 0.0 **** 0.0
130 C38978 -0.129733427505887 0.10593940398057 0.558784895806659 C 0.0 **** 0.0
131 C38979 -0.128902164720541 0.0887502482978229 0.560765551412562 C 0.0 **** 0.0
132 C38980 -0.112507833510007 0.0799115616589369 0.5589534940273 C 0.0 **** 0.0
133 C38986 -0.1113579483182 0.0622979707265193 0.560933446426376 C 0.0 **** 0.0
134 C38987 -0.0955953834247764 0.0545526528377479 0.559150464863257 C 0.0 **** 0.0
135 C38988 -0.0813464890498386 0.0643669920566267 0.555431426907148 C 0.0 **** 0.0
136 C38993 -0.125514898885299 0.0526764464951916 0.565372303169628 C 0.0 **** 0.0
137 C38994 -0.141944530470267 0.0625453148136852 0.566516618201081 C 0.0 **** 0.0
138 C38995 -0.143065480948253 0.0796351818025308 0.564333959345 C 0.0 **** 0.0
139 C39000 -0.076982418778136 0.0307764723070515 0.563379775481215 C 0.0 **** 0.0
140 C39001 -0.0937650880898796 0.0372465552413634 0.562550346798668 C 0.0 **** 0.0
141 C39006 -0.123887279919965 0.0353221133845501 0.568158556967418 C 0.0 **** 0.0
142 C39007 -0.108241342106416 0.027424831726234 0.566168147808914 C 0.0 **** 0.0
143 C39011 -0.106371760759522 0.00838693603758733 0.568709644829719 C 0.0 **** 0.0
144 C39012 -0.122135439677143 -0.00104860140583995 0.562675155249909 C 0.0 **** 0.0
145 C39013 -0.137270687098472 0.00579149820390733 0.572086400157915 C 0.0 **** 0.0
146 C39014 -0.138798667469852 0.0246978081911963 0.573346252692337 C 0.0 **** 0.0
147 O39020 -0.151968243005806 0.0301814683676341 0.578990473089788 O 0.0 **** 0.0
148 H39022 0.229856410957949 0.0153155053469395 0.514256909295163 H 0.0 **** 0.0
149 H39024 0.218862694156528 0.0310635187945185 0.502901917856689 H 0.0 **** 0.0
150 H39026 0.250693476139242 0.0125311608091191 0.492929304540295 H 0.0 **** 0.0
151 H39028 0.235891938362009 0.022898277305843 0.480083946623598 H 0.0 **** 0.0
152 H39030 0.265529726510795 0.0373573062615348 0.499900645623692 H 0.0 **** 0.0
153 H39032 0.256993876746876 0.0661164746725748 0.493718348968177 H 0.0 **** 0.0
154 H39034 0.224997358782308 0.060104944747698 0.510289539329534 H 0.0 **** 0.0
155 H39036 0.244429416152207 0.0637977755919287 0.520259561388479 H 0.0 **** 0.0
156 H39038 0.222203881377345 0.0551131333308148 0.483253629201341 H 0.0 **** 0.0
157 H39040 0.233492526500571 0.0419347138207481 0.459607522727812 H 0.0 **** 0.0
158 H39042 0.264227622345738 0.0648531796442763 0.462629078060177 H 0.0 **** 0.0
159 H39044 0.261692037462846 0.0490814505325915 0.447085527095967 H 0.0 **** 0.0
160 H39046 0.279042893394401 0.041719192073626 0.474667307642504 H 0.0 **** 0.0
161 H39048 0.264796614179714 0.026544815173893 0.466948020229138 H 0.0 **** 0.0
162 H39050 0.214761134676931 0.0788730288014685 0.438541956133515 H 0.0 **** 0.0
163 H39052 0.224408364999047 0.0971412441552255 0.458616821298185 H 0.0 **** 0.0
164 H39054 0.226720167364262 0.0847972680176757 0.491557207418897 H 0.0 **** 0.0
165 H39056 0.24312871987161 0.0865873922066481 0.476696446630132 H 0.0 **** 0.0
166 H39058 0.206886095379748 0.051630276450634 0.464772847558141 H 0.0 **** 0.0
167 H39060 0.169552649494219 0.117399671015556 0.46683258214698 H 0.0 **** 0.0
168 H39062 0.156887313176199 0.109186306115678 0.483181041857612 H 0.0 **** 0.0
169 H39064 0.18129966955155 0.103376301720123 0.500986512679357 H 0.0 **** 0.0
170 H39066 0.184342145286265 0.12392274635517 0.492673188866229 H 0.0 **** 0.0
171 H39068 0.211569264102317 0.111221656214906 0.486683790214076 H 0.0 **** 0.0
172 H39070 0.191627707243163 0.0299089561376677 0.458410254663834 H 0.0 **** 0.0
173 H39071 0.192769180192959 0.0396821880436928 0.401833134975688 H 0.0 **** 0.0
174 H39073 0.213540365715321 0.0312625621370776 0.402690011533631 H 0.0 **** 0.0
175 H39075 0.215345844214033 0.057562169947509 0.419493773079909 H 0.0 **** 0.0
176 H39077 0.193675703555458 0.00654488895594252 0.393482062558302 H 0.0 **** 0.0
177 H39079 0.211809767343852 0.000810881206921963 0.405217961426917 H 0.0 **** 0.0
178 H39081 0.19681134691903 -0.024092108965268 0.408284066178211 H 0.0 **** 0.0
179 H39083 0.176831155590606 -0.0142970370105993 0.406089021600296 H 0.0 **** 0.0
180 H39085 0.189408650146384 0.00723584948154035 0.467820964555294 H 0.0 **** 0.0
181 H39087 0.169235704485096 -0.00046328147020083 0.462283884546226 H 0.0 **** 0.0
182 H39089 0.201845939523671 -0.0212832653551343 0.462191942189472 H 0.0 **** 0.0
183 H39091 0.164513516976542 -0.0302712760630647 0.457359602621889 H 0.0 **** 0.0
184 H39093 0.180374168808982 -0.0458145229537779 0.459708998460209 H 0.0 **** 0.0
185 H39095 0.172266616378229 -0.0365031493155306 0.428834426386377 H 0.0 **** 0.0
186 H39097 0.193824974188974 -0.0390527564556985 0.434178160347959 H 0.0 **** 0.0
187 H39099 0.156878191909409 0.018030817709141 0.441709397283745 H 0.0 **** 0.0
188 H39101 0.102958595676166 0.0113527941564238 0.475299761292788 H 0.0 **** 0.0
189 H39103 0.0854765369648088 0.00974114270975155 0.50116783545176 H 0.0 **** 0.0
190 H39105 0.111733230961114 0.100712090053086 0.477073096282034 H 0.0 **** 0.0
191 H39107 0.0411606889148992 0.000796955771407847 0.562450804814169 H 0.0 **** 0.0
192 H39109 0.069409889464167 0.0088899557679899 0.556405371669364 H 0.0 **** 0.0
193 H39111 0.0662189127198323 -0.00540063773463576 0.52080714152854 H 0.0 **** 0.0
194 H39113 0.0782029635664338 -0.0235910138598351 0.544469110660303 H 0.0 **** 0.0
195 H39115 0.0755682898312354 -0.0177623594384974 0.565697899999855 H 0.0 **** 0.0
196 H39117 0.0472396616354028 -0.0288753869817147 0.566719815402215 H 0.0 **** 0.0
197 H39119 0.059063441772346 -0.043938317085227 0.555247044710527 H 0.0 **** 0.0
198 H39121 0.0492323850729998 -0.0310274316236373 0.528326286869954 H 0.0 **** 0.0
199 H39123 0.0340099433769215 -0.00684250844759054 0.525646012720278 H 0.0 **** 0.0
200 H39125 0.0148205690445028 -0.0128523694504032 0.558460885081731 H 0.0 **** 0.0
201 H39127 0.00956231430152612 0.00188262565767035 0.542604093761499 H 0.0 **** 0.0
202 H39129 -0.0028317751262863 -0.0189638122370095 0.52533393545497 H 0.0 **** 0.0
203 H39131 -0.00500190470178053 -0.0292001340972765 0.544935369799511 H 0.0 **** 0.0
204 H39133 0.0203555170224163 -0.0356526682263153 0.516584684379362 H 0.0 **** 0.0
205 H39135 0.00743511355317832 -0.0505143273379099 0.527071822111815 H 0.0 **** 0.0
206 H39137 0.0247289656351812 -0.0439256300942984 0.552131100429131 H 0.0 **** 0.0
207 H39139 0.0538951639214722 0.121789495418408 0.46413899753868 H 0.0 **** 0.0
208 H39141 0.0808025633135341 0.130431284327896 0.452989671492325 H 0.0 **** 0.0
209 H39143 0.0935840429056655 0.135416602863469 0.488826631179562 H 0.0 **** 0.0
210 H39145 0.104422775076291 0.139599098676951 0.469903226695255 H 0.0 **** 0.0
211 H39147 0.0955085805214187 0.167507309677882 0.47332072946514 H 0.0 **** 0.0
212 H39149 0.0810185788131542 0.161643127967569 0.489235658631469 H 0.0 **** 0.0
213 H39151 0.0742606506553383 0.15913454351739 0.45124067482168 H 0.0 **** 0.0
214 H39153 0.0656652556422938 0.174323543627117 0.465131291698346 H 0.0 **** 0.0
215 H39155 0.0455562001333 0.149788721200349 0.459655545494063 H 0.0 **** 0.0
216 H39157 0.0503361534788493 0.152994838218032 0.481114350413845 H 0.0 **** 0.0
217 H39159 0.0415675880153337 0.120412773414049 0.513400619712372 H 0.0 **** 0.0
218 H39161 0.0153012696413857 0.116659768002168 0.529826470504628 H 0.0 **** 0.0
219 H39163 0.014878602055036 0.0267066020121628 0.536404772553231 H 0.0 **** 0.0
220 H39165 -0.0161784993213096 0.0240862413727541 0.536199633525413 H 0.0 **** 0.0
221 H39167 -0.0403549508621865 0.0381482164961712 0.535143143164419 H 0.0 **** 0.0
222 H39169 -0.0398503351613941 0.0399039603297906 0.573697816440205 H 0.0 **** 0.0
223 H39171 -0.0463959065537892 0.00936732799063813 0.551054140970402 H 0.0 **** 0.0
224 H39173 -0.0503843745402719 0.00977203283302445 0.573051239211238 H 0.0 **** 0.0
225 H39175 -0.0201785029753409 -0.000821483250958976 0.559270701780726 H 0.0 **** 0.0
226 H39177 -0.0222688024000924 0.00666536123808995 0.580089248729316 H 0.0 **** 0.0
227 H39179 0.00180437365620433 0.0198669602310309 0.562638330554839 H 0.0 **** 0.0
228 H39181 -0.0114479656796793 0.0342507092891354 0.573071988920651 H 0.0 **** 0.0
229 H39183 0.193973275110835 -0.0110877646475164 0.490834919903766 H 0.0 **** 0.0
230 H39185 0.170078958798785 -0.0238853929995723 0.506185453644886 H 0.0 **** 0.0
231 H39187 0.16275379367875 -0.033965094468963 0.487491436077921 H 0.0 **** 0.0
232 H39189 0.162266808446601 -0.0115372156839521 0.489135251794974 H 0.0 **** 0.0
233 H39191 0.210795863299332 -0.037301686964754 0.486151929642799 H 0.0 **** 0.0
234 H39193 0.191900720334381 -0.0494638918855514 0.485718142199672 H 0.0 **** 0.0
235 H39195 0.198033790005926 -0.038812904800851 0.504552382968764 H 0.0 **** 0.0
236 H39197 0.0915205290656305 -0.00571286474580663 0.53626851710233 H 0.0 **** 0.0
237 H39199 -0.0298992742383163 0.121303934837123 0.544015241869291 H 0.0 **** 0.0
238 H39201 -0.0574215498956505 0.13372805926777 0.546930855584512 H 0.0 **** 0.0
239 H39203 -0.0868407891261755 0.131318866296086 0.550508386517645 H 0.0 **** 0.0
240 H39205 -0.117026735205422 0.12904066630439 0.554093874721168 H 0.0 **** 0.0
241 H39207 -0.141791653693692 0.112545365985095 0.559948663395107 H 0.0 **** 0.0
242 H39209 -0.153577346558367 0.0558709185518593 0.569075945834319 H 0.0 **** 0.0
243 H39211 -0.155413294900317 0.0856681057399064 0.565536384027169 H 0.0 **** 0.0
244 H39213 -0.0749496898388283 0.0176350385049701 0.567236932558387 H 0.0 **** 0.0
245 H39215 -0.0954355885088351 0.00341287806351803 0.561721083443346 H 0.0 **** 0.0
246 H39217 -0.10418206005176 0.00553139106745143 0.58217090323946 H 0.0 **** 0.0
247 H39219 -0.120964273694543 -0.0147447916052126 0.564909413973952 H 0.0 **** 0.0
248 H39221 -0.123637737161832 0.000716987619769999 0.548926793164453 H 0.0 **** 0.0
249 H39223 -0.137334597651891 0.00176788123806754 0.585425848394115 H 0.0 **** 0.0
250 H39225 -0.149658228863737 0.00217690031046591 0.566911676519434 H 0.0 **** 0.0
@<TRIPOS>BOND
1 3 2 1
2 4 3 1
3 5 4 1
4 6 5 1
5 1 2 1
6 1 6 1
7 8 7 1
8 9 8 1
9 10 9 1
10 4 7 1
11 3 10 1
12 12 11 1
13 13 12 1
14 14 13 1
15 8 11 1
16 7 14 1
17 16 15 1
18 17 16 Partial double
19 18 17 1
20 13 15 1
21 12 18 1
22 20 19 Partial double
23 21 20 Partial double
24 22 21 Partial double
25 17 19 Partial double
26 16 22 Partial double
27 24 23 1
28 25 24 1
29 15 25 Double
30 22 23 1
31 27 26 1
32 28 27 Partial double
33 29 28 Partial double
34 21 26 1
35 20 29 Partial double
36 31 30 1
37 32 31 1
38 18 30 1
39 19 32 1
40 34 33 Double
41 35 34 1
42 36 35 1
43 31 33 1
44 30 36 Double
45 38 37 1
46 39 38 1
47 40 39 Double
48 34 37 1
49 33 40 1
50 42 41 1
51 43 42 1
52 44 43 1
53 40 41 1
54 39 44 1
55 46 45 Partial double
56 32 46 1
57 29 45 Partial double
58 48 47 Partial double
59 49 48 1
60 45 49 Partial double
61 28 47 Partial double
62 51 50 Partial double
63 52 51 Partial double
64 53 52 Partial double
65 48 50 Partial double
66 47 53 Partial double
67 55 54 Partial double
68 56 55 Partial double
69 57 56 Partial double
70 52 54 Partial double
71 51 57 Partial double
72 59 58 Partial double
73 60 59 Partial double
74 61 60 Partial double
75 56 58 Partial double
76 55 61 Partial double
77 63 62 Partial double
78 27 63 Partial double
79 53 62 Partial double
80 65 64 Partial double
81 62 65 Partial double
82 54 64 Partial double
83 67 66 Partial double
84 64 67 Partial double
85 61 66 Partial double
86 69 68 Partial double
87 70 69 Partial double
88 66 70 Partial double
89 60 68 Partial double
90 72 71 1
91 73 72 1
92 74 73 1
93 59 71 1
94 58 74 1
95 76 75 1
96 77 76 1
97 78 77 1
98 73 75 1
99 72 78 1
100 80 79 1
101 81 80 1
102 82 81 1
103 78 79 1
104 77 82 1
105 84 83 Partial double
106 85 84 Partial double
107 67 85 Partial double
108 65 83 Partial double
109 87 86 1
110 88 87 1
111 89 88 1
112 84 86 1
113 83 89 1
114 91 90 1
115 92 91 1
116 93 92 1
117 88 90 1
118 87 93 1
119 95 94 Partial double
120 85 95 Partial double
121 70 94 Partial double
122 97 96 Partial double
123 98 97 Partial double
124 94 98 Partial double
125 69 96 Partial double
126 100 99 Partial double
127 101 100 Partial double
128 68 101 Partial double
129 96 99 Partial double
130 103 102 1
131 104 103 Partial double
132 97 102 1
133 99 104 1
134 106 105 1
135 107 106 1
136 100 105 1
137 104 107 Partial double
138 109 108 1
139 110 109 1
140 111 110 1
141 106 108 1
142 105 111 1
143 113 112 1
144 114 113 1
145 103 114 Partial double
146 107 112 Partial double
147 108 115 1
148 112 116 Partial double
149 115 116 Partial double
150 42 117 1
151 117 118 1
152 117 119 1
153 74 120 1
154 122 121 1
155 123 122 Partial double
156 124 123 1
157 114 121 Partial double
158 113 124 Partial double
159 126 125 Partial double
160 127 126 1
161 128 127 Partial double
162 124 125 Partial double
163 123 128 Partial double
164 130 129 Partial double
165 131 130 1
166 132 131 1
167 127 129 Partial double
168 126 132 Partial double
169 134 133 Partial double
170 135 134 Partial double
171 125 135 Partial double
172 132 133 Partial double
173 137 136 Partial double
174 138 137 Partial double
175 131 138 Partial double
176 133 136 Partial double
177 140 139 Partial double
178 134 140 Partial double
179 116 135 Partial double
180 115 139 Partial double
181 142 141 Partial double
182 140 142 Partial double
183 136 141 Partial double
184 144 143 1
185 145 144 1
186 146 145 1
187 142 143 1
188 141 146 1
189 146 147 Double
190 1 148 1
191 1 149 1
192 2 150 1
193 2 151 1
194 3 152 1
195 4 153 1
196 5 154 1
197 5 155 1
198 7 156 1
199 8 157 1
200 9 158 1
201 9 159 1
202 10 160 1
203 10 161 1
204 12 162 1
205 13 163 1
206 14 164 1
207 14 165 1
208 18 166 1
209 23 167 1
210 23 168 1
211 24 169 1
212 24 170 1
213 25 171 1
214 35 173 1
215 35 174 1
216 36 175 1
217 37 176 1
218 37 177 1
219 38 178 1
220 38 179 1
221 41 180 1
222 41 181 1
223 42 182 1
224 43 183 1
225 43 184 1
226 44 185 1
227 44 186 1
228 46 187 1
229 50 188 1
230 57 189 1
231 63 190 1
232 72 191 1
233 73 192 1
234 74 193 1
235 75 194 1
236 75 195 1
237 76 196 1
238 76 197 1
239 77 198 1
240 78 199 1
241 79 200 1
242 79 201 1
243 80 202 1
244 80 203 1
245 81 204 1
246 81 205 1
247 82 206 1
248 87 207 1
249 88 208 1
250 90 209 1
251 90 210 1
252 91 211 1
253 91 212 1
254 92 213 1
255 92 214 1
256 93 215 1
257 93 216 1
258 95 217 1
259 98 218 1
260 101 219 1
261 105 220 1
262 106 221 1
263 108 222 1
264 109 223 1
265 109 224 1
266 110 225 1
267 110 226 1
268 111 227 1
269 111 228 1
270 117 229 1
271 118 230 1
272 118 231 1
273 118 232 1
274 119 233 1
275 119 234 1
276 119 235 1
277 120 236 1
278 121 237 1
279 122 238 1
280 128 239 1
281 129 240 1
282 130 241 1
283 137 242 1
284 138 243 1
285 139 244 1
286 143 245 1
287 143 246 1
288 144 247 1
289 144 248 1
290 145 249 1
291 145 250 1
292 31 172 1
@<TRIPOS>MOLECULE
Sketch 4
250 292
SMALL
USER_CHARGES


@<TRIPOS>ATOM
1 C39228 0.285911976986937 0.644670516276948 0.901920537885126 C 0.0 **** 0.0
2 C39229 0.284678393407168 0.645465188475061 0.882379722819152 C 0.0 **** 0.0
3 C39230 0.280037122887632 0.62823815981396 0.874582185093667 C 0.0 **** 0.0
4 C39231 0.291889293760495 0.613860540232099 0.881324393780583 C 0.0 **** 0.0
5 C39232 0.300872802031948 0.619613552534927 0.897620832872278 C 0.0 **** 0.0
6 O39233 0.289227945057788 0.628171345784531 0.90827362312878 O 0.0 **** 0.0
7 C39240 0.303612361384736 0.606915622603477 0.867309077367794 C 0.0 **** 0.0
8 C39241 0.292735639065231 0.599251852571154 0.852973902959542 C 0.0 **** 0.0
9 C39242 0.277903484492814 0.610870051959479 0.847972941762639 C 0.0 **** 0.0
10 C39243 0.27969272233956 0.628766376957204 0.855146853419815 C 0.0 **** 0.0
11 O39249 0.285049998014443 0.583749845969097 0.858261451255271 O 0.0 **** 0.0
12 C39250 0.296326876274171 0.570626218066258 0.863671357826288 C 0.0 **** 0.0
13 C39251 0.307464099329306 0.577161925883772 0.878229571623154 C 0.0 **** 0.0
14 C39252 0.316452765916797 0.593568788412803 0.873331432896539 C 0.0 **** 0.0
15 C39258 0.319463438932979 0.563644126693795 0.884259453847676 C 0.0 **** 0.0
16 C39259 0.32814156011627 0.553356933857151 0.870853061293642 C 0.0 **** 0.0
17 C39260 0.32165268374512 0.552662869781941 0.854566806120151 C 0.0 **** 0.0
18 C39261 0.306530952659351 0.563129280821897 0.848887045973851 C 0.0 **** 0.0
19 C39267 0.32937465915966 0.542032205107145 0.842869263408009 C 0.0 **** 0.0
20 C39268 0.344415171017133 0.534159288030309 0.847109475129585 C 0.0 **** 0.0
21 C39269 0.351146227051052 0.535223370059438 0.863264159117871 C 0.0 **** 0.0
22 C39270 0.342408855584216 0.544237024155162 0.875469210130375 C 0.0 **** 0.0
23 C39276 0.348897964740078 0.544767612597235 0.893435415692743 C 0.0 **** 0.0
24 C39277 0.333914332687915 0.546053778931846 0.905906381702283 C 0.0 **** 0.0
25 C39278 0.322014098589595 0.560114627095403 0.900745151555756 C 0.0 **** 0.0
26 O39283 0.366316064636774 0.527459734226461 0.867520976059884 O 0.0 **** 0.0
27 C39284 0.373143630315368 0.515800861344124 0.856483306994287 C 0.0 **** 0.0
28 C39285 0.368229662187278 0.514585948219304 0.83973115657072 C 0.0 **** 0.0
29 C39286 0.353814923346497 0.525128495669818 0.833578429233204 C 0.0 **** 0.0
30 C39292 0.29682002569833 0.552194219724465 0.836700618782321 C 0.0 **** 0.0
31 C39293 0.306815975628043 0.549777912285535 0.820453797318183 C 0.0 **** 0.0
32 C39294 0.321584457498707 0.538053874031198 0.825720246045305 C 0.0 **** 0.0
33 C39299 0.295909307372368 0.542524910599106 0.805709216134714 C 0.0 **** 0.0
34 C39300 0.282658124111042 0.532337738899235 0.810192625181912 C 0.0 **** 0.0
35 C39301 0.276938962462534 0.529379772572807 0.82826497946411 C 0.0 **** 0.0
36 C39302 0.283279931381098 0.542660749352764 0.840390379458338 C 0.0 **** 0.0
37 C39308 0.270567417234906 0.524365972098796 0.797979314555046 C 0.0 **** 0.0
38 C39309 0.276003799747075 0.525829572716147 0.779433677316359 C 0.0 **** 0.0
39 C39310 0.288942254118602 0.539437721418359 0.776482699120231 C 0.0 **** 0.0
40 C39311 0.29846951612283 0.546586211149065 0.789019773551902 C 0.0 **** 0.0
41 C39317 0.311808474894586 0.559526057791054 0.783161559169122 C 0.0 **** 0.0
42 C39318 0.306401695132619 0.569133893960892 0.767313687821523 C 0.0 **** 0.0
43 C39319 0.303652738904249 0.556257533797129 0.753019992457849 C 0.0 **** 0.0
44 C39320 0.289979118306974 0.543481859214329 0.757839894531748 C 0.0 **** 0.0
45 C39326 0.349362175629673 0.526313499697417 0.817048133544458 C 0.0 **** 0.0
46 C39327 0.334394876471762 0.533320712376019 0.812194151416519 C 0.0 **** 0.0
47 C39331 0.376053453352312 0.502576844050355 0.829122201010442 C 0.0 **** 0.0
48 C39332 0.372841747781184 0.502105271648772 0.811568434211212 C 0.0 **** 0.0
49 S39333 0.363521879098723 0.519302053877724 0.801791878956949 S 0.0 **** 0.0
50 C39338 0.377171131838423 0.488513981376416 0.801844386552182 C 0.0 **** 0.0
51 C39339 0.385563848138881 0.47473260944617 0.809449364824725 C 0.0 **** 0.0
52 C39340 0.390405704068185 0.475636590788881 0.826733459754923 C 0.0 **** 0.0
53 C39341 0.386021751174673 0.489722142167212 0.836360172326402 C 0.0 **** 0.0
54 C39347 0.398532239451298 0.461860168209819 0.834110582853718 C 0.0 **** 0.0
55 C39348 0.400192217332217 0.44667523199603 0.825040842989229 C 0.0 **** 0.0
56 C39349 0.393147581770459 0.444909166293907 0.808721678815553 C 0.0 **** 0.0
57 C39350 0.387945838949794 0.45962200245085 0.800425393933124 C 0.0 **** 0.0
58 C39356 0.389487868733045 0.428767066875787 0.802250961974839 C 0.0 **** 0.0
59 C39357 0.394801100109784 0.414724468598301 0.811111139294011 C 0.0 **** 0.0
60 C39358 0.405723907033947 0.41661852923287 0.825092554188164 C 0.0 **** 0.0
61 C39359 0.407143046113012 0.432546103256923 0.832720735583819 C 0.0 **** 0.0
62 C39365 0.39013723537421 0.490303932825538 0.853670697077116 C 0.0 **** 0.0
63 C39366 0.385242773904336 0.504856889089684 0.862603030963618 C 0.0 **** 0.0
64 C39370 0.403051066255935 0.462429224714739 0.85117182721444 C 0.0 **** 0.0
65 C39371 0.397209807484344 0.475632699600166 0.861472056311843 C 0.0 **** 0.0
66 C39375 0.413844206057843 0.433886874488805 0.848950469446779 C 0.0 **** 0.0
67 C39376 0.411185004850139 0.448658112890101 0.858336918557972 C 0.0 **** 0.0
68 C39380 0.415315381642641 0.402913837351579 0.831675898137822 C 0.0 **** 0.0
69 C39381 0.42282818174732 0.404709526171597 0.847665180766375 C 0.0 **** 0.0
70 C39382 0.42131914144836 0.419787938599254 0.856445008856549 C 0.0 **** 0.0
71 O39387 0.390325261255232 0.398694798335451 0.805532262086127 O 0.0 **** 0.0
72 C39388 0.37306256425942 0.397076357716881 0.800219100028627 C 0.0 **** 0.0
73 C39389 0.365886275804662 0.412834089603383 0.790666839465224 C 0.0 **** 0.0
74 C39390 0.379872842714548 0.425560920263373 0.786160705644577 C 0.0 **** 0.0
75 C39396 0.351359318444125 0.42131412370746 0.800509141537975 C 0.0 **** 0.0
76 C39397 0.33665936736352 0.40898200849821 0.803830514126536 C 0.0 **** 0.0
77 C39398 0.342949497256868 0.391664612996666 0.810379527003298 C 0.0 **** 0.0
78 C39399 0.361798387523665 0.391822426138886 0.815332839712792 C 0.0 **** 0.0
79 C39405 0.367126174335375 0.374642517967438 0.82325837406559 C 0.0 **** 0.0
80 C39406 0.354249150792115 0.36061635036685 0.819006951832227 C 0.0 **** 0.0
81 C39407 0.348189936708286 0.362142872114638 0.800697982028177 C 0.0 **** 0.0
82 N39408 0.339316427153085 0.378427025729616 0.797941517079682 N 0.0 **** 0.0
83 C39414 0.396929108961329 0.473441317866869 0.87928583671389 C 0.0 **** 0.0
84 C39415 0.406074529179773 0.460336764035254 0.88649161549154 C 0.0 **** 0.0
85 C39416 0.414248476851978 0.448506648935229 0.875826732626766 C 0.0 **** 0.0
86 O39421 0.407292416179624 0.458196552640986 0.903850239645566 O 0.0 **** 0.0
87 C39422 0.392719821712402 0.464834740086814 0.912179445191028 C 0.0 **** 0.0
88 C39423 0.390286574353237 0.482954806196293 0.907172794095386 C 0.0 **** 0.0
89 O39424 0.387852321226182 0.484567276060787 0.88936946611791 O 0.0 **** 0.0
90 C39430 0.40485694502098 0.494481343615102 0.913247398988818 C 0.0 **** 0.0
91 C39431 0.412267019339634 0.489116359897036 0.930509185053192 C 0.0 **** 0.0
92 C39432 0.399454072559841 0.478966202690248 0.940867617744023 C 0.0 **** 0.0
93 C39433 0.394807625410267 0.462518731323716 0.931450992221274 C 0.0 **** 0.0
94 C39439 0.427113123084311 0.420593412267684 0.873339733451307 C 0.0 **** 0.0
95 C39440 0.423155627052452 0.434993982086807 0.883048884782942 C 0.0 **** 0.0
96 C39444 0.432426005356551 0.391385415772027 0.854288125886152 C 0.0 **** 0.0
97 C39445 0.439463718310278 0.392636241654111 0.870666338811062 C 0.0 **** 0.0
98 C39446 0.436359967630284 0.406875906392121 0.880095683330479 C 0.0 **** 0.0
99 C39451 0.435555810631003 0.37672691861959 0.844699620362978 C 0.0 **** 0.0
100 C39452 0.429097519904943 0.375213757905323 0.828519456718099 C 0.0 **** 0.0
101 C39453 0.419074230892728 0.388100247870048 0.822471958690172 C 0.0 **** 0.0
102 O39458 0.449258408716994 0.379982275305808 0.877581454838505 O 0.0 **** 0.0
103 C39459 0.45222092406416 0.365398667445427 0.868474753772449 C 0.0 **** 0.0
104 C39460 0.44609076326969 0.363110419256291 0.852472044342144 C 0.0 **** 0.0
105 C39465 0.432003065377641 0.359940361133622 0.817221589607258 C 0.0 **** 0.0
106 C39466 0.441649719280995 0.344763159759543 0.82643229213528 C 0.0 **** 0.0
107 C39467 0.449248216294491 0.348483959884762 0.84380559538 C 0.0 **** 0.0
108 C39472 0.454975644104166 0.336501560045869 0.814709832827902 C 0.0 **** 0.0
109 C39473 0.447411361386792 0.333356352662297 0.797046697118695 C 0.0 **** 0.0
110 C39474 0.44209357907689 0.350142342508709 0.788420356931631 C 0.0 **** 0.0
111 C39475 0.441086433906251 0.365079751229234 0.800856610016739 C 0.0 **** 0.0
112 C39481 0.459228683892539 0.336365556656848 0.851010929490086 C 0.0 **** 0.0
113 C39482 0.464741931023405 0.338304876041978 0.867342104286635 C 0.0 **** 0.0
114 C39483 0.461334808492738 0.352806420454038 0.875996210559839 C 0.0 **** 0.0
115 C39488 0.461890723692608 0.32060615825947 0.82338207008967 C 0.0 **** 0.0
116 C39490 0.463894702875674 0.320894176965258 0.840822664681533 C 0.0 **** 0.0
117 C39493 0.3188342994824 0.583564245905639 0.762792906603459 C 0.0 **** 0.0
118 C39495 0.336895245990641 0.577636450712204 0.758930294704656 C 0.0 **** 0.0
119 C39497 0.312356707993639 0.594461415327631 0.748113656778336 C 0.0 **** 0.0
120 O39499 0.391261138900302 0.419389662492804 0.773710099120817 O 0.0 **** 0.0
121 C39501 0.466961316787467 0.354660911144384 0.892248147557301 C 0.0 **** 0.0
122 C39502 0.475643859476881 0.342042080441578 0.900027865316795 C 0.0 **** 0.0
123 C39503 0.478978626513994 0.327437146109554 0.891548007943992 C 0.0 **** 0.0
124 C39504 0.473577430074859 0.325692677080771 0.87518544272291 C 0.0 **** 0.0
125 C39510 0.477363825215428 0.309839176763586 0.865969831816564 C 0.0 **** 0.0
126 C39511 0.486620257208684 0.297692811049524 0.87402829483271 C 0.0 **** 0.0
127 C39512 0.49180765875925 0.30020566223036 0.891813322703544 C 0.0 **** 0.0
128 C39513 0.48778096047838 0.314956616056773 0.899888405253237 C 0.0 **** 0.0
129 C39519 0.500859707225955 0.287865596770887 0.899850181488221 C 0.0 **** 0.0
130 C39520 0.50598798261864 0.273578767328447 0.891476492517682 C 0.0 **** 0.0
131 C39521 0.502143858587663 0.271025678807547 0.874787506539262 C 0.0 **** 0.0
132 C39522 0.49143200175012 0.283374341690105 0.86563972657456 C 0.0 **** 0.0
133 C39528 0.487443449004521 0.281073911932636 0.848497342978937 C 0.0 **** 0.0
134 C39529 0.477618238946616 0.293272732783122 0.84028970064461 C 0.0 **** 0.0
135 C39530 0.472320354224315 0.307714810064996 0.849109004950882 C 0.0 **** 0.0
136 C39535 0.494926343097917 0.267937440354319 0.839289111781407 C 0.0 **** 0.0
137 C39536 0.505067666358352 0.25528741016958 0.849621045569721 C 0.0 **** 0.0
138 C39537 0.508282539622498 0.257257876389641 0.866461924993322 C 0.0 **** 0.0
139 C39542 0.467670806691654 0.306598459833735 0.814722343323593 C 0.0 **** 0.0
140 C39543 0.475524591531693 0.292511745616209 0.822680719340825 C 0.0 **** 0.0
141 C39548 0.493201229552402 0.267426519356213 0.821768901655573 C 0.0 **** 0.0
142 C39549 0.482964248347396 0.279123859479839 0.813463977349902 C 0.0 **** 0.0
143 C39553 0.480680830187931 0.278178315703156 0.794322482366479 C 0.0 **** 0.0
144 C39554 0.480184054050965 0.259740351681909 0.788492469241037 C 0.0 **** 0.0
145 C39555 0.496372546784163 0.251087378083466 0.793731862653327 C 0.0 **** 0.0
146 C39556 0.502470225592404 0.254436058437379 0.811418880326251 C 0.0 **** 0.0
147 O39562 0.51508145635405 0.247003532352712 0.816015054952494 O 0.0 **** 0.0
148 H39564 0.273862910578922 0.648491188789814 0.907692401773712 H 0.0 **** 0.0
149 H39566 0.295624205634675 0.65356749774223 0.906483134775279 H 0.0 **** 0.0
150 H39568 0.275516833826857 0.655216893400103 0.878503816697383 H 0.0 **** 0.0
151 H39570 0.29694920367139 0.649415724010859 0.877049809093361 H 0.0 **** 0.0
152 H39572 0.267117609749028 0.62519214562825 0.878931850840499 H 0.0 **** 0.0
153 H39574 0.28349694830053 0.603374554124924 0.88513992031991 H 0.0 **** 0.0
154 H39576 0.311941362822139 0.627619769647913 0.894757530174716 H 0.0 **** 0.0
155 H39578 0.305436229994879 0.608637052354261 0.904816039858401 H 0.0 **** 0.0
156 H39580 0.310814925052904 0.617702435396001 0.862113571417453 H 0.0 **** 0.0
157 H39582 0.300864352119043 0.597221089733124 0.841829995475074 H 0.0 **** 0.0
158 H39584 0.266346378895224 0.605385761302792 0.853415530129197 H 0.0 **** 0.0
159 H39586 0.275970066254343 0.611178906457292 0.834186811327755 H 0.0 **** 0.0
160 H39588 0.269380278931583 0.636964726812686 0.850664845505919 H 0.0 **** 0.0
161 H39590 0.29151679005329 0.634435414469091 0.850489387756773 H 0.0 **** 0.0
162 H39592 0.287933620044577 0.560941343206144 0.869057295058597 H 0.0 **** 0.0
163 H39594 0.298918969875783 0.580089111792724 0.888842908105941 H 0.0 **** 0.0
164 H39596 0.325461804926798 0.591089749928381 0.862965431917595 H 0.0 **** 0.0
165 H39598 0.324106050663477 0.598397622879207 0.883922530442269 H 0.0 **** 0.0
166 H39600 0.311537998584555 0.573968288055952 0.841672358008748 H 0.0 **** 0.0
167 H39602 0.35650805304287 0.533501181233025 0.896370670055526 H 0.0 **** 0.0
168 H39604 0.357284848407321 0.555736600210419 0.894912789077692 H 0.0 **** 0.0
169 H39606 0.33859351326857 0.548137096381109 0.918851587566292 H 0.0 **** 0.0
170 H39608 0.326939844457729 0.533996537800503 0.906134644886058 H 0.0 **** 0.0
171 H39610 0.315439917624092 0.566668814592342 0.910925419377443 H 0.0 **** 0.0
172 H39612 0.311956230786961 0.562185955539318 0.816894461670011 H 0.0 **** 0.0
173 H39613 0.281019583819204 0.516778214469008 0.832578688139457 H 0.0 **** 0.0
174 H39615 0.262964624013203 0.529401409287073 0.828624389971622 H 0.0 **** 0.0
175 H39617 0.277200934545835 0.543205846894752 0.852731979769244 H 0.0 **** 0.0
176 H39619 0.268830170223268 0.510921092457092 0.801267476508298 H 0.0 **** 0.0
177 H39621 0.258135979486533 0.53045732063435 0.799629229800775 H 0.0 **** 0.0
178 H39623 0.264708219208999 0.5281750507615 0.771564363734432 H 0.0 **** 0.0
179 H39625 0.28138894346711 0.513694866663389 0.775147979296816 H 0.0 **** 0.0
180 H39627 0.314545942057068 0.568723111401372 0.793159476711602 H 0.0 **** 0.0
181 H39629 0.323721004350819 0.552818725862025 0.780561216207942 H 0.0 **** 0.0
182 H39631 0.29408780578885 0.575240765215707 0.769943117779471 H 0.0 **** 0.0
183 H39633 0.315670589122929 0.549730653857042 0.750495282151595 H 0.0 **** 0.0
184 H39635 0.300004802924039 0.562451653008662 0.741080742319952 H 0.0 **** 0.0
185 H39637 0.291547467558444 0.531598830547148 0.75072100817974 H 0.0 **** 0.0
186 H39639 0.27756840182679 0.54867995878072 0.754077340717586 H 0.0 **** 0.0
187 H39641 0.330982245258959 0.534764780502944 0.798976455170508 H 0.0 **** 0.0
188 H39643 0.374050080126208 0.488023680696754 0.788352260510006 H 0.0 **** 0.0
189 H39645 0.383296072151518 0.459272805717901 0.787381924199366 H 0.0 **** 0.0
190 H39647 0.389100294443513 0.507205181586482 0.875698623912366 H 0.0 **** 0.0
191 H39649 0.37305634316884 0.386578427483375 0.791125777228514 H 0.0 **** 0.0
192 H39651 0.360223900782274 0.40851239972681 0.77867830917638 H 0.0 **** 0.0
193 H39653 0.373780534476581 0.4370345286624 0.781274064227306 H 0.0 **** 0.0
194 H39655 0.356126721726855 0.426171795441818 0.812690827923754 H 0.0 **** 0.0
195 H39657 0.346633880661059 0.432430353054542 0.793557070184415 H 0.0 **** 0.0
196 H39659 0.329356628873105 0.407292495945262 0.792101436377565 H 0.0 **** 0.0
197 H39661 0.327846959201912 0.414864638399602 0.81286212601329 H 0.0 **** 0.0
198 H39663 0.335538075326582 0.388469523283567 0.821778484727623 H 0.0 **** 0.0
199 H39665 0.363540510080487 0.401662740576523 0.825044056798897 H 0.0 **** 0.0
200 H39667 0.368320980509664 0.375866726525409 0.837077398595027 H 0.0 **** 0.0
201 H39669 0.379740316857594 0.370901724479161 0.818672220757396 H 0.0 **** 0.0
202 H39671 0.343264569610566 0.36150973477703 0.82755651648048 H 0.0 **** 0.0
203 H39673 0.359858090826127 0.348044538934842 0.821071865658189 H 0.0 **** 0.0
204 H39675 0.339725972545974 0.351600237837594 0.797332541491625 H 0.0 **** 0.0
205 H39677 0.359372355997324 0.361026290597889 0.79247681676337 H 0.0 **** 0.0
206 H39679 0.340918112874831 0.382651074538468 0.786129560689404 H 0.0 **** 0.0
207 H39681 0.381678003689463 0.457567599505235 0.907731759055622 H 0.0 **** 0.0
208 H39683 0.378517701748677 0.487362477480991 0.913228693755069 H 0.0 **** 0.0
209 H39685 0.414854925821833 0.494380938454067 0.903559388889728 H 0.0 **** 0.0
210 H39687 0.400252939189259 0.507619163739662 0.913830356778433 H 0.0 **** 0.0
211 H39689 0.416831621388414 0.500237562348075 0.937536417128035 H 0.0 **** 0.0
212 H39691 0.423373657333772 0.480953311566714 0.928381435052605 H 0.0 **** 0.0
213 H39693 0.388011650899924 0.486661893919538 0.94290773981523 H 0.0 **** 0.0
214 H39695 0.404526565172986 0.475952589258114 0.953501935480225 H 0.0 **** 0.0
215 H39697 0.383599682102195 0.456770228556541 0.937369666394486 H 0.0 **** 0.0
216 H39699 0.405217544748149 0.453450519878685 0.933124270546016 H 0.0 **** 0.0
217 H39701 0.426170688103869 0.435037042098886 0.896609432716046 H 0.0 **** 0.0
218 H39703 0.441177033426856 0.407775849947366 0.893099946955408 H 0.0 **** 0.0
219 H39705 0.414408251683492 0.386649231162428 0.809504241756439 H 0.0 **** 0.0
220 H39707 0.419485687418171 0.354915758633005 0.813565009040269 H 0.0 **** 0.0
221 H39709 0.431821423247715 0.335082119923306 0.828686708009931 H 0.0 **** 0.0
222 H39711 0.465632078083838 0.345414472380945 0.81314015938872 H 0.0 **** 0.0
223 H39713 0.436330013741498 0.325017150793932 0.798398898626012 H 0.0 **** 0.0
224 H39715 0.456354199512122 0.326797389383689 0.788656505748429 H 0.0 **** 0.0
225 H39717 0.429711134006074 0.348525565544887 0.782234932910319 H 0.0 **** 0.0
226 H39719 0.451072973666694 0.353280024688341 0.778238856586388 H 0.0 **** 0.0
227 H39721 0.434804341534779 0.375808615674088 0.794559982239422 H 0.0 **** 0.0
228 H39723 0.453931571092962 0.369436169885284 0.804005286275297 H 0.0 **** 0.0
229 H39725 0.319567258068178 0.591875697269731 0.774016756580628 H 0.0 **** 0.0
230 H39727 0.342356756182058 0.570121937985204 0.76927614079242 H 0.0 **** 0.0
231 H39729 0.345241504235349 0.588601163593572 0.756990447667614 H 0.0 **** 0.0
232 H39731 0.337272105660682 0.569902409236843 0.747367010650698 H 0.0 **** 0.0
233 H39733 0.29928171327276 0.598700896638651 0.750226690550251 H 0.0 **** 0.0
234 H39735 0.312639368830546 0.587457881221295 0.736091808942201 H 0.0 **** 0.0
235 H39737 0.320215174469723 0.605836292223913 0.746540000981263 H 0.0 **** 0.0
236 H39739 0.384799667894946 0.418679828446062 0.763611710729208 H 0.0 **** 0.0
237 H39741 0.464561945559392 0.366165838697091 0.899402255544905 H 0.0 **** 0.0
238 H39743 0.479787378934134 0.343894153142025 0.913060164384412 H 0.0 **** 0.0
239 H39745 0.491768271030126 0.316945977667846 0.91296597107706 H 0.0 **** 0.0
240 H39747 0.504567302563349 0.289367207677189 0.913037247957338 H 0.0 **** 0.0
241 H39749 0.513662351018891 0.264407515275789 0.898370641544485 H 0.0 **** 0.0
242 H39751 0.510053134124887 0.24401822059963 0.843542003582967 H 0.0 **** 0.0
243 H39753 0.515996070385479 0.247807095368813 0.872903972910514 H 0.0 **** 0.0
244 H39755 0.46675190819508 0.306887308986923 0.800920925239159 H 0.0 **** 0.0
245 H39757 0.468822539677248 0.284197919182456 0.790293859490126 H 0.0 **** 0.0
246 H39759 0.491066581869995 0.284970022898049 0.787913404920177 H 0.0 **** 0.0
247 H39761 0.478467164835624 0.258768998493834 0.774710398846426 H 0.0 **** 0.0
248 H39763 0.469270637539567 0.253479929700527 0.794447138106225 H 0.0 **** 0.0
249 H39765 0.507268420170239 0.255096083620638 0.786040234151861 H 0.0 **** 0.0
250 H39767 0.496127790304151 0.23719309787857 0.79313694238868 H 0.0 **** 0.0
@<TRIPOS>BOND
1 3 2 1
2 4 3 1
3 5 4 1
4 6 5 1
5 1 2 1
6 1 6 1
7 8 7 1
8 9 8 1
9 10 9 1
10 4 7 1
11 3 10 1
12 12 11 1
13 13 12 1
14 14 13 1
15 8 11 1
16 7 14 1
17 16 15 1
18 17 16 Partial double
19 18 17 1
20 13 15 1
21 12 18 1
22 20 19 Partial double
23 21 20 Partial double
24 22 21 Partial double
25 17 19 Partial double
26 16 22 Partial double
27 24 23 1
28 25 24 1
29 15 25 Double
30 22 23 1
31 27 26 1
32 28 27 Partial double
33 29 28 Partial double
34 21 26 1
35 20 29 Partial double
36 31 30 1
37 32 31 1
38 18 30 1
39 19 32 1
40 34 33 Double
41 35 34 1
42 36 35 1
43 31 33 1
44 30 36 Double
45 38 37 1
46 39 38 1
47 40 39 Double
48 34 37 1
49 33 40 1
50 42 41 1
51 43 42 1
52 44 43 1
53 40 41 1
54 39 44 1
55 46 45 Partial double
56 32 46 1
57 29 45 Partial double
58 48 47 Partial double
59 49 48 1
60 45 49 Partial double
61 28 47 Partial double
62 51 50 Partial double
63 52 51 Partial double
64 53 52 Partial double
65 48 50 Partial double
66 47 53 Partial double
67 55 54 Partial double
68 56 55 Partial double
69 57 56 Partial double
70 52 54 Partial double
71 51 57 Partial double
72 59 58 Partial double
73 60 59 Partial double
74 61 60 Partial double
75 56 58 Partial double
76 55 61 Partial double
77 63 62 Partial double
78 27 63 Partial double
79 53 62 Partial double
80 65 64 Partial double
81 62 65 Partial double
82 54 64 Partial double
83 67 66 Partial double
84 64 67 Partial double
85 61 66 Partial double
86 69 68 Partial double
87 70 69 Partial double
88 66 70 Partial double
89 60 68 Partial double
90 72 71 1
91 73 72 1
92 74 73 1
93 59 71 1
94 58 74 1
95 76 75 1
96 77 76 1
97 78 77 1
98 73 75 1
99 72 78 1
100 80 79 1
101 81 80 1
102 82 81 1
103 78 79 1
104 77 82 1
105 84 83 Partial double
106 85 84 Partial double
107 67 85 Partial double
108 65 83 Partial double
109 87 86 1
110 88 87 1
111 89 88 1
112 84 86 1
113 83 89 1
114 91 90 1
115 92 91 1
116 93 92 1
117 88 90 1
118 87 93 1
119 95 94 Partial double
120 85 95 Partial double
121 70 94 Partial double
122 97 96 Partial double
123 98 97 Partial double
124 94 98 Partial double
125 69 96 Partial double
126 100 99 Partial double
127 101 100 Partial double
128 68 101 Partial double
129 96 99 Partial double
130 103 102 1
131 104 103 Partial double
132 97 102 1
133 99 104 1
134 106 105 1
135 107 106 1
136 100 105 1
137 104 107 Partial double
138 109 108 1
139 110 109 1
140 111 110 1
141 106 108 1
142 105 111 1
143 113 112 1
144 114 113 1
145 103 114 Partial double
146 107 112 Partial double
147 108 115 1
148 112 116 Partial double
149 115 116 Partial double
150 42 117 1
151 117 118 1
152 117 119 1
153 74 120 1
154 122 121 1
155 123 122 Partial double
156 124 123 1
157 114 121 Partial double
158 113 124 Partial double
159 126 125 Partial double
160 127 126 1
161 128 127 Partial double
162 124 125 Partial double
163 123 128 Partial double
164 130 129 Partial double
165 131 130 1
166 132 131 1
167 127 129 Partial double
168 126 132 Partial double
169 134 133 Partial double
170 135 134 Partial double
171 125 135 Partial double
172 132 133 Partial double
173 137 136 Partial double
174 138 137 Partial double
175 131 138 Partial double
176 133 136 Partial double
177 140 139 Partial double
178 134 140 Partial double
179 116 135 Partial double
180 115 139 Partial double
181 142 141 Partial double
182 140 142 Partial double
183 136 141 Partial double
184 144 143 1
185 145 144 1
186 146 145 1
187 142 143 1
188 141 146 1
189 146 147 Double
190 1 148 1
191 1 149 1
192 2 150 1
193 2 151 1
194 3 152 1
195 4 153 1
196 5 154 1
197 5 155 1
198 7 156 1
199 8 157 1
200 9 158 1
201 9 159 1
202 10 160 1
203 10 161 1
204 12 162 1
205 13 163 1
206 14 164 1
207 14 165 1
208 18 166 1
209 23 167 1
210 23 168 1
211 24 169 1
212 24 170 1
213 25 171 1
214 35 173 1
215 35 174 1
216 36 175 1
217 37 176 1
218 37 177 1
219 38 178 1
220 38 179 1
221 41 180 1
222 41 181 1
223 42 182 1
224 43 183 1
225 43 184 1
226 44 185 1
227 44 186 1
228 46 187 1
229 50 188 1
230 57 189 1
231 63 190 1
232 72 191 1
233 73 192 1
234 74 193 1
235 75 194 1
236 75 195 1
237 76 196 1
238 76 197 1
239 77 198 1
240 78 199 1
241 79 200 1
242 79 201 1
243 80 202 1
244 80 203 1
245 81 204 1
246 81 205 1
247 82 206 1
248 87 207 1
249 88 208 1
250 90 209 1
251 90 210 1
252 91 211 1
253 91 212 1
254 92 213 1
255 92 214 1
256 93 215 1
257 93 216 1
258 95 217 1
259 98 218 1
260 101 219 1
261 105 220 1
262 106 221 1
263 108 222 1
264 109 223 1
265 109 224 1
266 110 225 1
267 110 226 1
268 111 227 1
269 111 228 1
270 117 229 1
271 118 230 1
272 118 231 1
273 118 232 1
274 119 233 1
275 119 234 1
276 119 235 1
277 120 236 1
278 121 237 1
279 122 238 1
280 128 239 1
281 129 240 1
282 130 241 1
283 137 242 1
284 138 243 1
285 139 244 1
286 143 245 1
287 143 246 1
288 144 247 1
289 144 248 1
290 145 249 1
291 145 250 1
292 31 172 1
@<TRIPOS>MOLECULE
Sketch 4
250 292
SMALL
USER_CHARGES


@<TRIPOS>ATOM
1 C39770 0.423306796902882 0.389439123538507 -0.00675553407851239 C 0.0 **** 0.0
2 C39771 0.418249279688466 0.386549524741839 0.0119800566726213 C 0.0 **** 0.0
3 C39772 0.402662517239842 0.374961137899302 0.0132609279533489 C 0.0 **** 0.0
4 C39773 0.387580650634885 0.381852718342498 0.00230075338952549 C 0.0 **** 0.0
5 C39774 0.394748823141225 0.39195193836448 -0.0127997577402369 C 0.0 **** 0.0
6 O39775 0.410263368927693 0.38456322321143 -0.0181697816496314 O 0.0 **** 0.0
7 C39782 0.374705908928883 0.391041939802947 0.0138050690079396 C 0.0 **** 0.0
8 C39783 0.366812659223094 0.377795835087247 0.0259430907429425 C 0.0 **** 0.0
9 C39784 0.379506668348209 0.364305680080003 0.0317911200099132 C 0.0 **** 0.0
10 C39785 0.397551351840894 0.371107275342836 0.0316445552215678 C 0.0 **** 0.0
11 O39791 0.3534366751736 0.368816687657119 0.0178350390080877 O 0.0 **** 0.0
12 C39792 0.33963527946853 0.379438088256817 0.0129310450421526 C 0.0 **** 0.0
13 C39793 0.345311261905398 0.391816893538149 -0.000897118118167864 C 0.0 **** 0.0
14 C39794 0.360757732616132 0.401912732626944 0.00520153014714349 C 0.0 **** 0.0
15 C39800 0.330348672147982 0.40275302039869 -0.00655312718625774 C 0.0 **** 0.0
16 C39801 0.316799243119057 0.407172184157637 0.00628500409172297 C 0.0 **** 0.0
17 C39802 0.317814054063918 0.400541533610835 0.0224795820268455 C 0.0 **** 0.0
18 C39803 0.332011275465254 0.388901644907368 0.0278939177708846 C 0.0 **** 0.0
19 C39809 0.305625913657679 0.404835157979299 0.0343075403932684 C 0.0 **** 0.0
20 C39810 0.291633066776057 0.413891293963518 0.0291758434211373 C 0.0 **** 0.0
21 C39811 0.290645217885267 0.421160404929447 0.0132614805345295 C 0.0 **** 0.0
22 C39812 0.303569804035288 0.417950272179124 0.00170328871992663 C 0.0 **** 0.0
23 C39818 0.303270295250926 0.42632507892321 -0.0155445237985464 C 0.0 **** 0.0
24 C39819 0.312174393183807 0.415431768532215 -0.0292169723402619 C 0.0 **** 0.0
25 C39820 0.328038886563379 0.406839375188852 -0.0229414912719687 C 0.0 **** 0.0
26 O39825 0.27703985724739 0.431555944066091 0.00893318396079441 O 0.0 **** 0.0
27 C39826 0.264179858931852 0.434488763429046 0.020573003146224 C 0.0 **** 0.0
28 C39827 0.262812129505374 0.425619325566036 0.0356403066541768 C 0.0 **** 0.0
29 C39828 0.2767177616829 0.413856007737234 0.0406068741388309 C 0.0 **** 0.0
30 C39834 0.32547217460105 0.377733864254534 0.0418313671764851 C 0.0 **** 0.0
31 C39835 0.322199462675714 0.388633766232434 0.0570876454548043 C 0.0 **** 0.0
32 C39836 0.306618816540738 0.399644557092446 0.0527556857981613 C 0.0 **** 0.0
33 C39841 0.321463317095532 0.378756172228788 0.0739531131184401 C 0.0 **** 0.0
34 C39842 0.316967486017905 0.362102505271602 0.0730172781074048 C 0.0 **** 0.0
35 C39843 0.313850925361962 0.352619114080608 0.0565617859496465 C 0.0 **** 0.0
36 C39844 0.321369278596672 0.361310185559055 0.0412803352266054 C 0.0 **** 0.0
37 C39850 0.315286542184772 0.350641487424901 0.0879721200620708 C 0.0 **** 0.0
38 C39851 0.320628658640126 0.35859512918064 0.104883287628176 C 0.0 **** 0.0
39 C39852 0.325914116464087 0.376785764052009 0.103653630416172 C 0.0 **** 0.0
40 C39853 0.325995142793252 0.386003840488113 0.0890212587401766 C 0.0 **** 0.0
41 C39859 0.332154702260816 0.404508859179132 0.0902358057012797 C 0.0 **** 0.0
42 C39860 0.344675354496597 0.407136284940977 0.104610679724564 C 0.0 **** 0.0
43 C39861 0.336515190067294 0.401513933216936 0.121325680111339 C 0.0 **** 0.0
44 C39862 0.332048176253141 0.382781832383888 0.120716917788457 C 0.0 **** 0.0
45 C39868 0.275774734361801 0.40290551906791 0.053834058079841 C 0.0 **** 0.0
46 C39869 0.289549703722949 0.394333418886796 0.0596185538299513 C 0.0 **** 0.0
47 C39873 0.24850721135337 0.427830218255891 0.0460383109423705 C 0.0 **** 0.0
48 C39874 0.24479318783308 0.416782582582747 0.0596488577117599 C 0.0 **** 0.0
49 S39875 0.256371646074614 0.39857509171439 0.062888217316206 S 0.0 **** 0.0
50 C39880 0.230712725431305 0.418665516224392 0.0694138015707241 C 0.0 **** 0.0
51 C39881 0.218977242219677 0.431421383106283 0.0655347013111594 C 0.0 **** 0.0
52 C39882 0.222399966701981 0.442920891102036 0.0522403945800311 C 0.0 **** 0.0
53 C39883 0.23699041953457 0.440967765631188 0.0425065808163757 C 0.0 **** 0.0
54 C39889 0.210584192439559 0.455522375772316 0.0486555275830429 C 0.0 **** 0.0
55 C39890 0.195495528837732 0.456704404735588 0.0579167711630785 C 0.0 **** 0.0
56 C39891 0.190917256002564 0.443758752242293 0.0693584672322543 C 0.0 **** 0.0
57 C39892 0.203222381243248 0.431714875577977 0.0736223909090226 C 0.0 **** 0.0
58 C39898 0.175560230378375 0.444695946938864 0.0779106482827197 C 0.0 **** 0.0
59 C39899 0.167865523650949 0.460373051204343 0.0794281791053883 C 0.0 **** 0.0
60 C39900 0.171746768480779 0.47355639129671 0.0679859034723108 C 0.0 **** 0.0
61 C39901 0.18515992806562 0.470897188161672 0.0565720673351377 C 0.0 **** 0.0
62 C39907 0.239654137140996 0.451625502380052 0.0285551264753853 C 0.0 **** 0.0
63 C39908 0.252391182865795 0.446845211774077 0.0169590238167769 C 0.0 **** 0.0
64 C39912 0.2141737796773 0.467382869461668 0.0361567388284053 C 0.0 **** 0.0
65 C39913 0.229283555145111 0.466284335996767 0.026855565955418 C 0.0 **** 0.0
66 C39917 0.1888318300121 0.48283228473555 0.0441361670962702 C 0.0 **** 0.0
67 C39918 0.203165688805991 0.480834938123207 0.0339005357243569 C 0.0 **** 0.0
68 C39922 0.161894292256584 0.488645300660119 0.0666785177322882 C 0.0 **** 0.0
69 C39923 0.16510752706063 0.499883685535539 0.0532309715050384 C 0.0 **** 0.0
70 C39924 0.178518305313086 0.497017994567731 0.0423191600643695 C 0.0 **** 0.0
71 O39929 0.155782767925027 0.461869329576171 0.0921307369559463 O 0.0 **** 0.0
72 C39930 0.162877443140955 0.456125360876661 0.107958585539934 C 0.0 **** 0.0
73 C39931 0.169284993247209 0.437421281592111 0.106914076992401 C 0.0 **** 0.0
74 C39932 0.167324745893637 0.431223641748617 0.0887979835544002 C 0.0 **** 0.0
75 C39938 0.160658325248527 0.425960100253386 0.120024841465655 C 0.0 **** 0.0
76 C39939 0.163455443052343 0.433381269127116 0.137701002333205 C 0.0 **** 0.0
77 C39940 0.156098818427393 0.451381227715229 0.139462464255128 C 0.0 **** 0.0
78 C39941 0.150036199477069 0.458932644892691 0.122420811396524 C 0.0 **** 0.0
79 C39947 0.14533114486933 0.477890904449056 0.124175434628787 C 0.0 **** 0.0
80 C39948 0.143333479618477 0.482852046973788 0.142826204679872 C 0.0 **** 0.0
81 C39949 0.159376092728521 0.478631577865509 0.153226486505517 C 0.0 **** 0.0
82 N39950 0.167864487975479 0.462992758564273 0.147568186905316 N 0.0 **** 0.0
83 C39956 0.234369763476911 0.480056426693295 0.0165986987721972 C 0.0 **** 0.0
84 C39957 0.222970195838601 0.492959845964758 0.0133169091776244 C 0.0 **** 0.0
85 C39958 0.207261758001519 0.493198831929537 0.0218516726274485 C 0.0 **** 0.0
86 O39963 0.226531071479902 0.506207828786868 0.00237968738173482 O 0.0 **** 0.0
87 C39964 0.24077591994829 0.502910986256862 -0.00818923292590124 C 0.0 **** 0.0
88 C39965 0.255039572451797 0.496268560434759 0.0023939383900418 C 0.0 **** 0.0
89 O39966 0.25052868168697 0.480377348756655 0.00971499506874097 O 0.0 **** 0.0
90 C39972 0.260695738163104 0.509175636043813 0.0160672227991477 C 0.0 **** 0.0
91 C39973 0.256696941592235 0.527697097226722 0.0112478619841087 C 0.0 **** 0.0
92 C39974 0.258285534677918 0.530354884969915 -0.00788964486329349 C 0.0 **** 0.0
93 C39975 0.245458092906015 0.51924284903391 -0.01767992517115 C 0.0 **** 0.0
94 C39981 0.181934587709241 0.509009423497405 0.0294481331268152 C 0.0 **** 0.0
95 C39982 0.196325839919623 0.506868791068295 0.0192530573936644 C 0.0 **** 0.0
96 C39986 0.154606511992234 0.514039535123832 0.0509107499215036 C 0.0 **** 0.0
97 C39987 0.157732575578727 0.525787658211968 0.0377898041519636 C 0.0 **** 0.0
98 C39988 0.171295865433969 0.523205561385683 0.027347118364625 C 0.0 **** 0.0
99 C39993 0.140872700446706 0.517121446612814 0.061749595500184 C 0.0 **** 0.0
100 C39994 0.137959083596439 0.506644756581225 0.075381744571813 C 0.0 **** 0.0
101 C39995 0.148417009434737 0.492920812281527 0.0775493186582289 C 0.0 **** 0.0
102 O40000 0.147983507898686 0.540091549133501 0.0354102139373412 O 0.0 **** 0.0
103 C40001 0.13344074928664 0.542255057772502 0.0448140923201202 C 0.0 **** 0.0
104 C40002 0.129567062654208 0.531788664329706 0.0580079206913144 C 0.0 **** 0.0
105 C40007 0.123660029683002 0.509271288664287 0.0879285057341861 C 0.0 **** 0.0
106 C40008 0.109774328035872 0.522182427564789 0.0814190716462606 C 0.0 **** 0.0
107 C40009 0.115152002951787 0.534144920134661 0.0672208265625725 C 0.0 **** 0.0
108 C40014 0.10248699393793 0.532669443404544 0.0962352579498567 C 0.0 **** 0.0
109 C40015 0.0993498533787097 0.521677367027253 0.111910780999638 C 0.0 **** 0.0
110 C40016 0.11631632679078 0.514631361613838 0.11872689127157 C 0.0 **** 0.0
111 C40017 0.130402767476581 0.514922855657107 0.105208374789456 C 0.0 **** 0.0
112 C40023 0.104802629536547 0.547458541393726 0.0635098261838733 C 0.0 **** 0.0
113 C40024 0.108372562285447 0.557718632383484 0.0499927783483685 C 0.0 **** 0.0
114 C40025 0.122673444734768 0.55516064603768 0.0407017561827692 C 0.0 **** 0.0
115 C40030 0.0871857533952536 0.542318008304932 0.089652264676451 C 0.0 **** 0.0
116 C40032 0.0891051673871874 0.550093909867042 0.0740312874381385 C 0.0 **** 0.0
117 C40035 0.35194578872234 0.425266987670103 0.105065201419101 C 0.0 **** 0.0
118 C40037 0.340587286393447 0.438048471877197 0.114151576084876 C 0.0 **** 0.0
119 C40039 0.369565346294256 0.425378656201294 0.113078741494851 C 0.0 **** 0.0
120 O40041 0.173995032802279 0.414635621465099 0.0866472757961984 O 0.0 **** 0.0
121 C40043 0.12605418677303 0.565450223951481 0.0272092642998471 C 0.0 **** 0.0
122 C40044 0.115365970062022 0.578316173267817 0.0230988137666729 C 0.0 **** 0.0
123 C40045 0.101030208862121 0.580987703530156 0.0323133788043516 C 0.0 **** 0.0
124 C40046 0.0975272779287087 0.570457796987609 0.0455997244306406 C 0.0 **** 0.0
125 C40052 0.0814687428785616 0.572678788947439 0.0550002307550335 C 0.0 **** 0.0
126 C40053 0.0710127727493104 0.585701113578262 0.0506352985636355 C 0.0 **** 0.0
127 C40054 0.0758250301659136 0.597101533412944 0.0366159116653624 C 0.0 **** 0.0
128 C40055 0.0905241849595429 0.594199532014194 0.0278872273023324 C 0.0 **** 0.0
129 C40061 0.0654002756642882 0.610306177854648 0.0325654688794893 C 0.0 **** 0.0
130 C40062 0.0505108040455023 0.612972052289823 0.0410748030098679 C 0.0 **** 0.0
131 C40063 0.0455038913145026 0.60269372807965 0.0540906790578788 C 0.0 **** 0.0
132 C40064 0.0562282290111299 0.58828368393821 0.0592420127949888 C 0.0 **** 0.0
133 C40070 0.051477750761361 0.57780564046367 0.0727764572548893 C 0.0 **** 0.0
134 C40071 0.0622710075891053 0.564616267806346 0.0774009950518495 C 0.0 **** 0.0
135 C40072 0.0773057916635638 0.561965403404186 0.0684573340698606 C 0.0 **** 0.0
136 C40077 0.0367498921862613 0.580926142727071 0.0821006965828316 C 0.0 **** 0.0
137 C40078 0.0260192570009553 0.595538517008778 0.0756247665165139 C 0.0 **** 0.0
138 C40079 0.0306797462316303 0.605577606961387 0.062363926805149 C 0.0 **** 0.0
139 C40084 0.0722475550820257 0.544766100547586 0.0983116416640254 C 0.0 **** 0.0
140 C40085 0.0589641582631976 0.55518826528715 0.0920318689655653 C 0.0 **** 0.0
141 C40090 0.0329129942143887 0.570854441961018 0.0961074870953982 C 0.0 **** 0.0
142 C40091 0.0435514934651996 0.557548161290824 0.100704416525363 C 0.0 **** 0.0
143 C40095 0.0395534382439881 0.546005617924861 0.115663696260403 C 0.0 **** 0.0
144 C40096 0.0204933387453783 0.543736010376654 0.117914930116734 C 0.0 **** 0.0
145 C40097 0.012422265491733 0.560959399029043 0.119519378463985 C 0.0 **** 0.0
146 C40098 0.0174957104372514 0.574103107054296 0.106732019316153 C 0.0 **** 0.0
147 O40104 0.00905477519572177 0.586883581681458 0.106253675657005 O 0.0 **** 0.0
148 H40106 0.434368717488404 0.381724380321622 -0.0100771877499266 H 0.0 **** 0.0
149 H40108 0.426944980098069 0.402742570494246 -0.00883943266159338 H 0.0 **** 0.0
150 H40110 0.428846648799096 0.381140371781798 0.0192547875521104 H 0.0 **** 0.0
151 H40112 0.415226571085945 0.398685180002407 0.0181719854999391 H 0.0 **** 0.0
152 H40114 0.406416364849124 0.362826414828294 0.0075693683452368 H 0.0 **** 0.0
153 H40116 0.380982120460553 0.370737541820348 -0.00303431635000337 H 0.0 **** 0.0
154 H40118 0.396522564993759 0.405405542932428 -0.00954173306309804 H 0.0 **** 0.0
155 H40120 0.386103284708568 0.391530174356337 -0.0236733751288777 H 0.0 **** 0.0
156 H40122 0.382254364523882 0.399971460091805 0.0214701780519568 H 0.0 **** 0.0
157 H40124 0.362356877852123 0.384295751618464 0.0374369706758172 H 0.0 **** 0.0
158 H40126 0.378658624048079 0.353657005188377 0.0228736137528449 H 0.0 **** 0.0
159 H40128 0.37593985124555 0.359262002874044 0.0442809805592075 H 0.0 **** 0.0
160 H40130 0.406518389140168 0.362089186257458 0.0373016194486255 H 0.0 **** 0.0
161 H40132 0.39816888088193 0.382639203066094 0.0394605299646173 H 0.0 **** 0.0
162 H40134 0.330204947893206 0.370721723917273 0.00760296164767849 H 0.0 **** 0.0
163 H40136 0.349329594968786 0.384162420543661 -0.0118252581357085 H 0.0 **** 0.0
164 H40138 0.356519494383007 0.41110930675721 0.0147839643700194 H 0.0 **** 0.0
165 H40140 0.366095547288293 0.409443518235594 -0.00522088158673932 H 0.0 **** 0.0
166 H40142 0.341915522246104 0.397095158966975 0.0333498022716126 H 0.0 **** 0.0
167 H40144 0.290186327935917 0.428823135815058 -0.0195833474070181 H 0.0 **** 0.0
168 H40146 0.309560132624493 0.438753118965499 -0.0148122246768368 H 0.0 **** 0.0
169 H40148 0.315192697217604 0.423376486314765 -0.040294678276353 H 0.0 **** 0.0
170 H40150 0.30337334438727 0.405615612163654 -0.033756234991407 H 0.0 **** 0.0
171 H40152 0.336887642084876 0.402967102379018 -0.0327797648049438 H 0.0 **** 0.0
172 H40154 0.33321727349315 0.397108635417935 0.0578056179674043 H 0.0 **** 0.0
173 H40155 0.300181836796424 0.350584368848698 0.0547351869794313 H 0.0 **** 0.0
174 H40157 0.319739103978979 0.339980231659223 0.0576053740323306 H 0.0 **** 0.0
175 H40159 0.323100826902835 0.353838726510516 0.0298308560337523 H 0.0 **** 0.0
176 H40161 0.302018569383658 0.346398368466653 0.0887507446815095 H 0.0 **** 0.0
177 H40163 0.323044752006609 0.339237630632411 0.0857606640002322 H 0.0 **** 0.0
178 H40165 0.331216679196274 0.351198675090428 0.110174813984386 H 0.0 **** 0.0
179 H40167 0.310160935989854 0.357484398524692 0.114045421208742 H 0.0 **** 0.0
180 H40169 0.338447506020315 0.408489055611467 0.0785154916672117 H 0.0 **** 0.0
181 H40171 0.321254457363949 0.413010016405973 0.091681230317366 H 0.0 **** 0.0
182 H40173 0.355465791007673 0.398636099475393 0.102130226383309 H 0.0 **** 0.0
183 H40175 0.325058829854001 0.40908868137085 0.123613407191077 H 0.0 **** 0.0
184 H40177 0.345006600100301 0.40387704725092 0.132105247607116 H 0.0 **** 0.0
185 H40179 0.322609449223112 0.379634734280734 0.130496795344842 H 0.0 **** 0.0
186 H40181 0.343461678419919 0.375364660089398 0.123813402557965 H 0.0 **** 0.0
187 H40183 0.28884079978843 0.38465782488011 0.0693664316165844 H 0.0 **** 0.0
188 H40185 0.227642762085214 0.409580963889935 0.0793983202238924 H 0.0 **** 0.0
189 H40187 0.201031009868237 0.422448523666541 0.0836949484709056 H 0.0 **** 0.0
190 H40189 0.254094583286029 0.453536567184969 0.00492868089296104 H 0.0 **** 0.0
191 H40191 0.173900489800879 0.464256691083027 0.110582592671265 H 0.0 **** 0.0
192 H40193 0.182940147432379 0.436982849062888 0.109858108958769 H 0.0 **** 0.0
193 H40195 0.153634070309325 0.430717590813787 0.0858478068321455 H 0.0 **** 0.0
194 H40197 0.14706977766501 0.424845184408359 0.117232269583437 H 0.0 **** 0.0
195 H40199 0.165945777756191 0.413065852814353 0.119354659605023 H 0.0 **** 0.0
196 H40201 0.177181778584197 0.433746023930563 0.139772728905071 H 0.0 **** 0.0
197 H40203 0.158274504828632 0.424976775378676 0.147525435873696 H 0.0 **** 0.0
198 H40205 0.144983139936462 0.45030238349979 0.147835781439824 H 0.0 **** 0.0
199 H40207 0.138575562957523 0.451930370764632 0.118767993944223 H 0.0 **** 0.0
200 H40209 0.155487467622241 0.485720240706161 0.11871412062573 H 0.0 **** 0.0
201 H40211 0.133782116669268 0.480620556763171 0.116927602267649 H 0.0 **** 0.0
202 H40213 0.132472651656151 0.475842150762234 0.148075421609999 H 0.0 **** 0.0
203 H40215 0.140238829380525 0.496342648350666 0.144314851274639 H 0.0 **** 0.0
204 H40217 0.156055152076683 0.477154727762414 0.16668400043763 H 0.0 **** 0.0
205 H40219 0.168442714570508 0.489194219067335 0.152642074041195 H 0.0 **** 0.0
206 H40221 0.176873499902659 0.465865362465297 0.139150140354375 H 0.0 **** 0.0
207 H40223 0.237032423886267 0.493048627582592 -0.017309628696964 H 0.0 **** 0.0
208 H40225 0.265813995812981 0.493887407304133 -0.00613037152571268 H 0.0 **** 0.0
209 H40227 0.254357201624211 0.506018402928379 0.028040578797047 H 0.0 **** 0.0
210 H40229 0.274339216083858 0.507779352315588 0.0185508652958974 H 0.0 **** 0.0
211 H40231 0.264959433444067 0.536441325554928 0.018253553486339 H 0.0 **** 0.0
212 H40233 0.243662381131995 0.53083075929583 0.0151115443764612 H 0.0 **** 0.0
213 H40235 0.27125957023841 0.526969400814034 -0.0117287348616485 H 0.0 **** 0.0
214 H40237 0.256622260634585 0.543771867020961 -0.0112775957872054 H 0.0 **** 0.0
215 H40239 0.250371824328505 0.516470294929772 -0.0304027383648676 H 0.0 **** 0.0
216 H40241 0.233634353369304 0.52635538859735 -0.0195732776511492 H 0.0 **** 0.0
217 H40243 0.1994185564037 0.516578439108302 0.00981285851542678 H 0.0 **** 0.0
218 H40245 0.174126291192387 0.532405590096184 0.0173110329781333 H 0.0 **** 0.0
219 H40247 0.145086101683474 0.485190230686614 0.088476622161396 H 0.0 **** 0.0
220 H40249 0.11715353991121 0.497047278154298 0.0897554498159339 H 0.0 **** 0.0
221 H40251 0.0994099664611756 0.51439027083126 0.0762402938611201 H 0.0 **** 0.0
222 H40253 0.111936729962108 0.542317432450883 0.0999417234246498 H 0.0 **** 0.0
223 H40255 0.0908606497878472 0.511207663327416 0.108393856112977 H 0.0 **** 0.0
224 H40257 0.0930057463453832 0.528874881459599 0.121997199380845 H 0.0 **** 0.0
225 H40259 0.114474323507712 0.501627216911673 0.123347690602233 H 0.0 **** 0.0
226 H40261 0.120438857321163 0.522086009301459 0.12975374435226 H 0.0 **** 0.0
227 H40263 0.141231517170555 0.507274953380977 0.109362339828793 H 0.0 **** 0.0
228 H40265 0.135309523154681 0.527873623888621 0.103956987719256 H 0.0 **** 0.0
229 H40267 0.35348430858586 0.42965222654202 0.0918880047747969 H 0.0 **** 0.0
230 H40269 0.346152006419392 0.450774548438162 0.11345479330253 H 0.0 **** 0.0
231 H40271 0.339137330119814 0.434905782078714 0.127631520230148 H 0.0 **** 0.0
232 H40273 0.327875698049703 0.438669999881749 0.108527967389601 H 0.0 **** 0.0
233 H40275 0.378612610870153 0.417881138998368 0.10563824268318 H 0.0 **** 0.0
234 H40277 0.369057819285803 0.419907770328746 0.125827848783703 H 0.0 **** 0.0
235 H40279 0.374612324323981 0.438313257063919 0.114000484050912 H 0.0 **** 0.0
236 H40281 0.172156333826427 0.411831216969339 0.0750950260886575 H 0.0 **** 0.0
237 H40283 0.137313727957651 0.563595590577846 0.0194697823338774 H 0.0 **** 0.0
238 H40285 0.118496566651804 0.586269941387071 0.0122872460267378 H 0.0 **** 0.0
239 H40287 0.0939089995388803 0.60244091705796 0.0173435426529708 H 0.0 **** 0.0
240 H40289 0.0687281254749746 0.619018169704516 0.0224124733152261 H 0.0 **** 0.0
241 H40291 0.0426574965215179 0.623634160046629 0.0372311457338443 H 0.0 **** 0.0
242 H40293 0.0139961201689626 0.598354482278628 0.0816031989640776 H 0.0 **** 0.0
243 H40295 0.0223582336670041 0.615887450493921 0.0586341336917549 H 0.0 **** 0.0
244 H40297 0.0707490276154676 0.538406797434125 0.110524020648492 H 0.0 **** 0.0
245 H40299 0.045214752099182 0.533429415418672 0.11380465881227 H 0.0 **** 0.0
246 H40301 0.0451243907900529 0.551168970065505 0.127358170963521 H 0.0 **** 0.0
247 H40303 0.017605910798908 0.536060081717447 0.129169578668763 H 0.0 **** 0.0
248 H40305 0.0153287172817543 0.536907177336002 0.106909612186696 H 0.0 **** 0.0
249 H40307 0.0154711013400184 0.566958803672489 0.13171575348238 H 0.0 **** 0.0
250 H40309 -0.00141802175249161 0.561196010815033 0.118528439074411 H 0.0 **** 0.0
@<TRIPOS>BOND
1 3 2 1
2 4 3 1
3 5 4 1
4 6 5 1
5 1 2 1
6 1 6 1
7 8 7 1
8 9 8 1
9 10 9 1
10 4 7 1
11 3 10 1
12 12 11 1
13 13 12 1
14 14 13 1
15 8 11 1
16 7 14 1
17 16 15 1
18 17 16 Partial double
19 18 17 1
20 13 15 1
21 12 18 1
22 20 19 Partial double
23 21 20 Partial double
24 22 21 Partial double
25 17 19 Partial double
26 16 22 Partial double
27 24 23 1
28 25 24 1
29 15 25 Double
30 22 23 1
31 27 26 1
32 28 27 Partial double
33 29 28 Partial double
34 21 26 1
35 20 29 Partial double
36 31 30 1
37 32 31 1
38 18 30 1
39 19 32 1
40 34 33 Double
41 35 34 1
42 36 35 1
43 31 33 1
44 30 36 Double
45 38 37 1
46 39 38 1
47 40 39 Double
48 34 37 1
49 33 40 1
50 42 41 1
51 43 42 1
52 44 43 1
53 40 41 1
54 39 44 1
55 46 45 Partial double
56 32 46 1
57 29 45 Partial double
58 48 47 Partial double
59 49 48 1
60 45 49 Partial double
61 28 47 Partial double
62 51 50 Partial double
63 52 51 Partial double
64 53 52 Partial double
65 48 50 Partial double
66 47 53 Partial double
67 55 54 Partial double
68 56 55 Partial double
69 57 56 Partial double
70 52 54 Partial double
71 51 57 Partial double
72 59 58 Partial double
73 60 59 Partial double
74 61 60 Partial double
75 56 58 Partial double
76 55 61 Partial double
77 63 62 Partial double
78 27 63 Partial double
79 53 62 Partial double
80 65 64 Partial double
81 62 65 Partial double
82 54 64 Partial double
83 67 66 Partial double
84 64 67 Partial double
85 61 66 Partial double
86 69 68 Partial double
87 70 69 Partial double
88 66 70 Partial double
89 60 68 Partial double
90 72 71 1
91 73 72 1
92 74 73 1
93 59 71 1
94 58 74 1
95 76 75 1
96 77 76 1
97 78 77 1
98 73 75 1
99 72 78 1
100 80 79 1
101 81 80 1
102 82 81 1
103 78 79 1
104 77 82 1
105 84 83 Partial double
106 85 84 Partial double
107 67 85 Partial double
108 65 83 Partial double
109 87 86 1
110 88 87 1
111 89 88 1
112 84 86 1
113 83 89 1
114 91 90 1
115 92 91 1
116 93 92 1
117 88 90 1
118 87 93 1
119 95 94 Partial double
120 85 95 Partial double
121 70 94 Partial double
122 97 96 Partial double
123 98 97 Partial double
124 94 98 Partial double
125 69 96 Partial double
126 100 99 Partial double
127 101 100 Partial double
128 68 101 Partial double
129 96 99 Partial double
130 103 102 1
131 104 103 Partial double
132 97 102 1
133 99 104 1
134 106 105 1
135 107 106 1
136 100 105 1
137 104 107 Partial double
138 109 108 1
139 110 109 1
140 111 110 1
141 106 108 1
142 105 111 1
143 113 112 1
144 114 113 1
145 103 114 Partial double
146 107 112 Partial double
147 108 115 1
148 112 116 Partial double
149 115 116 Partial double
150 42 117 1
151 117 118 1
152 117 119 1
153 74 120 1
154 122 121 1
155 123 122 Partial double
156 124 123 1
157 114 121 Partial double
158 113 124 Partial double
159 126 125 Partial double
160 127 126 1
161 128 127 Partial double
162 124 125 Partial double
163 123 128 Partial double
164 130 129 Partial double
165 131 130 1
166 132 131 1
167 127 129 Partial double
168 126 132 Partial double
169 134 133 Partial double
170 135 134 Partial double
171 125 135 Partial double
172 132 133 Partial double
173 137 136 Partial double
174 138 137 Partial double
175 131 138 Partial double
176 133 136 Partial double
177 140 139 Partial double
178 134 140 Partial double
179 116 135 Partial double
180 115 139 Partial double
181 142 141 Partial double
182 140 142 Partial double
183 136 141 Partial double
184 144 143 1
185 145 144 1
186 146 145 1
187 142 143 1
188 141 146 1
189 146 147 Double
190 1 148 1
191 1 149 1
192 2 150 1
193 2 151 1
194 3 152 1
195 4 153 1
196 5 154 1
197 5 155 1
198 7 156 1
199 8 157 1
200 9 158 1
201 9 159 1
202 10 160 1
203 10 161 1
204 12 162 1
205 13 163 1
206 14 164 1
207 14 165 1
208 18 166 1
209 23 167 1
210 23 168 1
211 24 169 1
212 24 170 1
213 25 171 1
214 35 173 1
215 35 174 1
216 36 175 1
217 37 176 1
218 37 177 1
219 38 178 1
220 38 179 1
221 41 180 1
222 41 181 1
223 42 182 1
224 43 183 1
225 43 184 1
226 44 185 1
227 44 186 1
228 46 187 1
229 50 188 1
230 57 189 1
231 63 190 1
232 72 191 1
233 73 192 1
234 74 193 1
235 75 194 1
236 75 195 1
237 76 196 1
238 76 197 1
239 77 198 1
240 78 199 1
241 79 200 1
242 79 201 1
243 80 202 1
244 80 203 1
245 81 204 1
246 81 205 1
247 82 206 1
248 87 207 1
249 88 208 1
250 90 209 1
251 90 210 1
252 91 211 1
253 91 212 1
254 92 213 1
255 92 214 1
256 93 215 1
257 93 216 1
258 95 217 1
259 98 218 1
260 101 219 1
261 105 220 1
262 106 221 1
263 108 222 1
264 109 223 1
265 109 224 1
266 110 225 1
267 110 226 1
268 111 227 1
269 111 228 1
270 117 229 1
271 118 230 1
272 118 231 1
273 118 232 1
274 119 233 1
275 119 234 1
276 119 235 1
277 120 236 1
278 121 237 1
279 122 238 1
280 128 239 1
281 129 240 1
282 130 241 1
283 137 242 1
284 138 243 1
285 139 244 1
286 143 245 1
287 143 246 1
288 144 247 1
289 144 248 1
290 145 249 1
291 145 250 1
292 31 172 1
@<TRIPOS>MOLECULE
Sketch 4
250 292
SMALL
USER_CHARGES


@<TRIPOS>ATOM
1 C40312 0.761236257551224 0.160972879575506 0.84576143406186 C 0.0 **** 0.0
2 C40313 0.745900431868074 0.172454687347474 0.841160524575993 C 0.0 **** 0.0
3 C40314 0.74397646134663 0.187232844295344 0.853735761217254 C 0.0 **** 0.0
4 C40315 0.744777656901817 0.1804981820941 0.872157479227985 C 0.0 **** 0.0
5 C40316 0.760071867327973 0.168156361737364 0.874212793845785 C 0.0 **** 0.0
6 O40317 0.770614870453732 0.167364080487694 0.859657218563629 O 0.0 **** 0.0
7 C40324 0.728053454064881 0.172179435253929 0.878275125722051 C 0.0 **** 0.0
8 C40325 0.711853373031479 0.181304044425233 0.871567026101854 C 0.0 **** 0.0
9 C40326 0.716031897579642 0.199060277249259 0.865190653896332 C 0.0 **** 0.0
10 C40327 0.728172461540126 0.198281727496005 0.850094907968134 C 0.0 **** 0.0
11 O40333 0.698646770237291 0.182720669431898 0.883812993666237 O 0.0 **** 0.0
12 C40334 0.695789741521146 0.167351433430729 0.892987558861961 C 0.0 **** 0.0
13 C40335 0.710750067490179 0.164282053375385 0.905302782710107 C 0.0 **** 0.0
14 C40336 0.727741528890501 0.171224479931402 0.897719459462827 C 0.0 **** 0.0
15 C40342 0.712186341164397 0.146306822301755 0.911979472960221 C 0.0 **** 0.0
16 C40343 0.6999230154563 0.133004321622914 0.905883018373406 C 0.0 **** 0.0
17 C40344 0.689802462418212 0.135932728159576 0.891847069686855 C 0.0 **** 0.0
18 C40345 0.691621909146282 0.152221323722092 0.88155166569995 C 0.0 **** 0.0
19 C40351 0.678830301049138 0.123268654658621 0.886470476830975 C 0.0 **** 0.0
20 C40352 0.679094924392691 0.10756876708487 0.894262214217761 C 0.0 **** 0.0
21 C40353 0.689113129545159 0.104783072122539 0.908382675100836 C 0.0 **** 0.0
22 C40354 0.699337068477659 0.117684619483397 0.914458904861618 C 0.0 **** 0.0
23 C40360 0.709654831321492 0.11481756706006 0.930359187706947 C 0.0 **** 0.0
24 C40361 0.726667903230105 0.124415403930194 0.929642394947386 C 0.0 **** 0.0
25 C40362 0.724435965091686 0.142202629806801 0.923116726017539 C 0.0 **** 0.0
26 O40367 0.689045617067967 0.0893777826632024 0.916747157154808 O 0.0 **** 0.0
27 C40368 0.682329678988187 0.0754104892976689 0.908738432900356 C 0.0 **** 0.0
28 C40369 0.671723747247025 0.0764492377892723 0.894815769668427 C 0.0 **** 0.0
29 C40370 0.668429112749804 0.0935707375984918 0.887242451653993 C 0.0 **** 0.0
30 C40376 0.67615433266633 0.154575040912313 0.870550831729477 C 0.0 **** 0.0
31 C40377 0.673291230878275 0.139368848020127 0.859243834032468 C 0.0 **** 0.0
32 C40378 0.666583341132011 0.126407930539766 0.872154185927554 C 0.0 **** 0.0
33 C40383 0.66088946533265 0.142643345110664 0.844440376627297 C 0.0 **** 0.0
34 C40384 0.648683698908841 0.15462469531838 0.84693497952086 C 0.0 **** 0.0
35 C40385 0.648170941009152 0.166412084066486 0.862054509955853 C 0.0 **** 0.0
36 C40386 0.66452063538863 0.166860423021014 0.871958708102886 C 0.0 **** 0.0
37 C40392 0.63583313590089 0.159366381896905 0.833803101588293 C 0.0 **** 0.0
38 C40393 0.633592539894469 0.145586749284027 0.820343744908058 C 0.0 **** 0.0
39 C40394 0.649592309108233 0.135679510572201 0.817413262338074 C 0.0 **** 0.0
40 C40395 0.662194204975484 0.13452501143013 0.829182729775808 C 0.0 **** 0.0
41 C40401 0.677724586760662 0.1238187542762 0.824313349220163 C 0.0 **** 0.0
42 C40402 0.6805205485967 0.123578003034904 0.805173381591887 C 0.0 **** 0.0
43 C40403 0.664755360852697 0.115909585442698 0.796739008320757 C 0.0 **** 0.0
44 C40404 0.649088040930886 0.126574064038353 0.800628719282564 C 0.0 **** 0.0
45 C40410 0.657602498590601 0.0960830808336457 0.874146398744118 C 0.0 **** 0.0
46 C40411 0.656556624012344 0.111223466239018 0.865980444016327 C 0.0 **** 0.0
47 C40415 0.664994504037831 0.0614065829710891 0.887814310682183 C 0.0 **** 0.0
48 C40416 0.652765587552636 0.0614046338111945 0.874742895964687 C 0.0 **** 0.0
49 S40417 0.643858473629159 0.0801172056859501 0.867679662666838 S 0.0 **** 0.0
50 C40422 0.64625349176409 0.0467596821344997 0.868212560727015 C 0.0 **** 0.0
51 C40423 0.651453912032592 0.030987376247632 0.874718346219692 C 0.0 **** 0.0
52 C40424 0.664132692086263 0.0305103148440992 0.887330273379506 C 0.0 **** 0.0
53 C40425 0.670580405216245 0.0455627517347369 0.893912996946209 C 0.0 **** 0.0
54 C40431 0.669483458641736 0.0148517621867788 0.893408434352816 C 0.0 **** 0.0
55 C40432 0.660966379230584 -6.4034084177339e-05 0.888852912336317 C 0.0 **** 0.0
56 C40433 0.646082671021461 0.000769615221689792 0.878987570978015 C 0.0 **** 0.0
57 C40434 0.643031698318652 0.0159474258870638 0.87029169852662 C 0.0 **** 0.0
58 C40440 0.634921215517763 -0.0130749860413414 0.878864597192282 C 0.0 **** 0.0
59 C40441 0.640871302538156 -0.0286840081969093 0.884082975263584 C 0.0 **** 0.0
60 C40442 0.656929454986737 -0.0303394691766297 0.891823274281489 C 0.0 **** 0.0
61 C40443 0.666350088603095 -0.0156350451916675 0.89498540866919 C 0.0 **** 0.0
62 C40449 0.682822896957635 0.0447323722629622 0.906752384974495 C 0.0 **** 0.0
63 C40450 0.686857024660856 0.0598605967973554 0.915078233575287 C 0.0 **** 0.0
64 C40454 0.683196427920214 0.0141131627090857 0.904440636728243 C 0.0 **** 0.0
65 C40455 0.690864725417881 0.0290089186479102 0.910217633202602 C 0.0 **** 0.0
66 C40459 0.680672632655747 -0.0163268475960273 0.905272530056927 C 0.0 **** 0.0
67 C40460 0.689258559116729 -0.0014825250766633 0.909516541844521 C 0.0 **** 0.0
68 C40464 0.663067101208019 -0.0461740528971251 0.897925819983346 C 0.0 **** 0.0
69 C40465 0.676518074945415 -0.046241696510421 0.90953667901541 C 0.0 **** 0.0
70 C40466 0.685750250773772 -0.0316540425257237 0.912352430324869 C 0.0 **** 0.0
71 O40471 0.630196974333223 -0.0425823426567315 0.882376252172725 O 0.0 **** 0.0
72 C40472 0.62193890647894 -0.0441586224325506 0.866205798448075 C 0.0 **** 0.0
73 C40473 0.615490571411891 -0.02688653016224 0.859060882640678 C 0.0 **** 0.0
74 C40474 0.616592942738922 -0.0134895836440536 0.872959285594882 C 0.0 **** 0.0
75 C40480 0.597697050963659 -0.0282309004321383 0.85103053877162 C 0.0 **** 0.0
76 C40481 0.596341742008395 -0.0443237741892814 0.84037769077822 C 0.0 **** 0.0
77 C40482 0.596887169034911 -0.0601697799457411 0.85168029173272 C 0.0 **** 0.0
78 C40483 0.60754865279697 -0.057320386112801 0.868077950262794 C 0.0 **** 0.0
79 C40489 0.613783649804428 -0.0741071188218247 0.875893916733793 C 0.0 **** 0.0
80 C40490 0.601822718847732 -0.088428420037397 0.87086154977999 C 0.0 **** 0.0
81 C40491 0.601975694416806 -0.0910922392898775 0.851551879367302 C 0.0 **** 0.0
82 N40492 0.601333118219342 -0.0750566091775736 0.841766852599131 N 0.0 **** 0.0
83 C40498 0.706652463384907 0.0282484051211069 0.918701739262163 C 0.0 **** 0.0
84 C40499 0.712873725103286 0.0126990395116848 0.923823217982957 C 0.0 **** 0.0
85 C40500 0.70390963320965 -0.00213685702133103 0.919542832582227 C 0.0 **** 0.0
86 O40505 0.72767484283919 0.011013800662663 0.933089283606157 O 0.0 **** 0.0
87 C40506 0.732039414417434 0.0263339766144136 0.941565729230347 C 0.0 **** 0.0
88 C40507 0.732049738353627 0.0405849220941811 0.929052301492452 C 0.0 **** 0.0
89 O40508 0.715594927271958 0.0429981513022067 0.921991527678791 O 0.0 **** 0.0
90 C40514 0.745379388348619 0.0380380573153212 0.914918204064741 C 0.0 **** 0.0
91 C40515 0.7607439363999 0.0273591713409149 0.920514922939822 C 0.0 **** 0.0
92 C40516 0.764421938724887 0.0297874850026959 0.939385742994457 C 0.0 **** 0.0
93 C40517 0.749277858358698 0.024043215389071 0.950382590144666 C 0.0 **** 0.0
94 C40523 0.700056945976513 -0.0324200231085205 0.92311070677911 C 0.0 **** 0.0
95 C40524 0.709507202277726 -0.0176759243176493 0.925929880104966 C 0.0 **** 0.0
96 C40528 0.680651913543343 -0.0612220333871072 0.918085383980495 C 0.0 **** 0.0
97 C40529 0.693764074795989 -0.0615229420199876 0.930207005532254 C 0.0 **** 0.0
98 C40530 0.703773856208643 -0.0474924373330392 0.93196781443165 C 0.0 **** 0.0
99 C40535 0.672627009216219 -0.0765150954840652 0.913997769080161 C 0.0 **** 0.0
100 C40536 0.661127133840217 -0.0771284748110309 0.900864803224102 C 0.0 **** 0.0
101 C40537 0.656742868300944 -0.0621487658727723 0.893085661850519 C 0.0 **** 0.0
102 O40542 0.69738542985245 -0.0756256994040881 0.93979949932119 O 0.0 **** 0.0
103 C40543 0.68875509336387 -0.0904662324742207 0.936775672683524 C 0.0 **** 0.0
104 C40544 0.677205367661065 -0.0918692598031698 0.923992655738402 C 0.0 **** 0.0
105 C40549 0.652648023439463 -0.093354997342554 0.895087766421796 C 0.0 **** 0.0
106 C40550 0.655717930271822 -0.108983362322441 0.907372711764602 C 0.0 **** 0.0
107 C40551 0.669353617781042 -0.106908024539767 0.92084488088642 C 0.0 **** 0.0
108 C40556 0.658789940679926 -0.125538948248617 0.897452220844286 C 0.0 **** 0.0
109 C40557 0.646165787533724 -0.127300442893523 0.882797402118164 C 0.0 **** 0.0
110 C40558 0.648224082243818 -0.11272536931003 0.869899983694846 C 0.0 **** 0.0
111 C40559 0.658100148056784 -0.0975773622676506 0.877038338694709 C 0.0 **** 0.0
112 C40565 0.673434488512823 -0.120729864520762 0.930319551422062 C 0.0 **** 0.0
113 C40566 0.684162581386287 -0.119117782464022 0.943833351456491 C 0.0 **** 0.0
114 C40567 0.69184330824992 -0.104027993740375 0.947037361535117 C 0.0 **** 0.0
115 C40572 0.658373117926242 -0.140139752139942 0.910078580432109 C 0.0 **** 0.0
116 C40574 0.665644917529792 -0.137534676632512 0.925832070831517 C 0.0 **** 0.0
117 C40577 0.6976383789811 0.115705072572774 0.799779064195195 C 0.0 **** 0.0
118 C40579 0.701086457639309 0.0978209822057825 0.806294111383833 C 0.0 **** 0.0
119 C40581 0.699982855632784 0.11568375033199 0.780529413579378 C 0.0 **** 0.0
120 O40583 0.61009117907658 0.0022721112133882 0.867234820785757 O 0.0 **** 0.0
121 C40585 0.702617359083776 -0.102551522385326 0.960499552126505 C 0.0 **** 0.0
122 C40586 0.705948895239594 -0.116100758420959 0.970575505591671 C 0.0 **** 0.0
123 C40587 0.698426109539524 -0.131292988757325 0.9673711123473 C 0.0 **** 0.0
124 C40588 0.687302538641923 -0.132620999364332 0.954149819521037 C 0.0 **** 0.0
125 C40594 0.678805760604142 -0.149022937543681 0.950870680572575 C 0.0 **** 0.0
126 C40595 0.683096598578374 -0.162579245577065 0.960660858009623 C 0.0 **** 0.0
127 C40596 0.695692773169314 -0.160495262875081 0.974349134018514 C 0.0 **** 0.0
128 C40597 0.702621868758162 -0.144918743176337 0.977391745672436 C 0.0 **** 0.0
129 C40603 0.700684265958332 -0.174343403161867 0.983404456682036 C 0.0 **** 0.0
130 C40604 0.694183499721561 -0.190067200813728 0.980077545099434 C 0.0 **** 0.0
131 C40605 0.682489462304524 -0.192646636424691 0.967590709807443 C 0.0 **** 0.0
132 C40606 0.676468215948221 -0.178205540396964 0.957318410155325 C 0.0 **** 0.0
133 C40612 0.665339915610689 -0.180768889265566 0.943706820246555 C 0.0 **** 0.0
134 C40613 0.661022353588299 -0.166956938577928 0.933557814422981 C 0.0 **** 0.0
135 C40614 0.667742662424404 -0.150957498120112 0.937147098786101 C 0.0 **** 0.0
136 C40619 0.660499835856536 -0.197149095141064 0.939012181082833 C 0.0 **** 0.0
137 C40620 0.665792571082924 -0.211096690052798 0.951143792377991 C 0.0 **** 0.0
138 C40621 0.67651280415211 -0.208486081773799 0.964413358703042 C 0.0 **** 0.0
139 C40626 0.652087888107157 -0.155984895644846 0.906492578065421 C 0.0 **** 0.0
140 C40627 0.652750600397133 -0.169707551756158 0.918094205447947 C 0.0 **** 0.0
141 C40632 0.652028369871488 -0.199807873627964 0.923771266139575 C 0.0 **** 0.0
142 C40633 0.647467694992044 -0.18616028561026 0.913629403747876 C 0.0 **** 0.0
143 C40637 0.637994656155284 -0.188768053807867 0.89701070318012 C 0.0 **** 0.0
144 C40638 0.625775078154336 -0.203709011542107 0.898098593009039 C 0.0 **** 0.0
145 C40639 0.63537349737613 -0.219293512758702 0.903538427503958 C 0.0 **** 0.0
146 C40640 0.647984512126657 -0.217335195170157 0.917649774097456 C 0.0 **** 0.0
147 O40646 0.654836010589847 -0.230116805526092 0.922666829675554 O 0.0 **** 0.0
148 H40648 0.770201271985825 0.160250014910734 0.835167137935824 H 0.0 **** 0.0
149 H40650 0.757010170216286 0.147917964814915 0.848242677271804 H 0.0 **** 0.0
150 H40652 0.747156170992533 0.177646134871454 0.828287536023623 H 0.0 **** 0.0
151 H40654 0.734099421700577 0.165028826435794 0.841065145640592 H 0.0 **** 0.0
152 H40656 0.755306702928285 0.195252250366801 0.852059340014739 H 0.0 **** 0.0
153 H40658 0.746874671635593 0.191719172049421 0.88024259481106 H 0.0 **** 0.0
154 H40660 0.755686636038203 0.15536381706007 0.877629045878598 H 0.0 **** 0.0
155 H40662 0.768248936413582 0.172273313650218 0.884647786672816 H 0.0 **** 0.0
156 H40664 0.728000260765739 0.159091028446431 0.873447864270853 H 0.0 **** 0.0
157 H40666 0.707003480605413 0.174221689880011 0.860537113953726 H 0.0 **** 0.0
158 H40668 0.721585242500253 0.206481557854015 0.875609788115452 H 0.0 **** 0.0
159 H40670 0.70421001799853 0.205510390602217 0.861670981215842 H 0.0 **** 0.0
160 H40672 0.732059283328164 0.211094481630944 0.84633019279621 H 0.0 **** 0.0
161 H40674 0.721207369750682 0.193148254027277 0.839160478452151 H 0.0 **** 0.0
162 H40676 0.684613252261613 0.170056977658675 0.900841796458398 H 0.0 **** 0.0
163 H40678 0.708256611461691 0.172094927098812 0.916605731667654 H 0.0 **** 0.0
164 H40680 0.738925255073277 0.164385914824626 0.902427341862772 H 0.0 **** 0.0
165 H40682 0.729160635535233 0.184306311375933 0.902419929901765 H 0.0 **** 0.0
166 H40684 0.702374616589883 0.150248666070254 0.872852504780338 H 0.0 **** 0.0
167 H40686 0.702373970314018 0.119169468011853 0.941444613114133 H 0.0 **** 0.0
168 H40688 0.712114578858229 0.101273390184219 0.932358255834147 H 0.0 **** 0.0
169 H40690 0.735650941041451 0.117642183898225 0.921422012049559 H 0.0 **** 0.0
170 H40692 0.732399234578836 0.124712484478992 0.942363704977795 H 0.0 **** 0.0
171 H40694 0.733763420323796 0.15134254094129 0.927521286934669 H 0.0 **** 0.0
172 H40696 0.685597542471875 0.135047052886547 0.854424976965449 H 0.0 **** 0.0
173 H40697 0.637638454511099 0.162823010006982 0.870465088347958 H 0.0 **** 0.0
174 H40699 0.645453718837025 0.17935549431738 0.857479503823899 H 0.0 **** 0.0
175 H40701 0.666124437489973 0.177159374397553 0.880973655891672 H 0.0 **** 0.0
176 H40703 0.623545613418273 0.162016080790634 0.83988779964949 H 0.0 **** 0.0
177 H40705 0.639932249780678 0.171255572268237 0.827762070841914 H 0.0 **** 0.0
178 H40707 0.629214975371167 0.151423600248936 0.808442279315202 H 0.0 **** 0.0
179 H40709 0.623651208655012 0.136736014126813 0.824423778430153 H 0.0 **** 0.0
180 H40711 0.689191864206594 0.128939803168252 0.830292741337325 H 0.0 **** 0.0
181 H40713 0.676095912211906 0.110940070325197 0.829269935130763 H 0.0 **** 0.0
182 H40715 0.681286783057022 0.136877225877465 0.800906010159935 H 0.0 **** 0.0
183 H40717 0.662881930072989 0.102911430955713 0.801283403981701 H 0.0 **** 0.0
184 H40719 0.666126843844802 0.114997714722248 0.782911284196018 H 0.0 **** 0.0
185 H40721 0.63765120966384 0.118625437166581 0.800094646057818 H 0.0 **** 0.0
186 H40723 0.647604296157206 0.136187233942602 0.790630695947653 H 0.0 **** 0.0
187 H40725 0.647900684792485 0.113035171734485 0.85542968186102 H 0.0 **** 0.0
188 H40727 0.636231030658109 0.0470656503501508 0.858621416223134 H 0.0 **** 0.0
189 H40729 0.632948424567789 0.016994529462549 0.860848104702406 H 0.0 **** 0.0
190 H40731 0.695036127767812 0.0600937439697282 0.926274037702338 H 0.0 **** 0.0
191 H40733 0.631336581496309 -0.0493826404148737 0.857367980105924 H 0.0 **** 0.0
192 H40735 0.623988322392024 -0.0226945816496884 0.848781604883423 H 0.0 **** 0.0
193 H40737 0.608572568200558 -0.0177240349426236 0.883655014902461 H 0.0 **** 0.0
194 H40739 0.587847608116917 -0.0283638722541224 0.860905523342652 H 0.0 **** 0.0
195 H40741 0.595247331604321 -0.0169091471497528 0.843259116965833 H 0.0 **** 0.0
196 H40743 0.606999473487555 -0.0445096119983076 0.831416903099653 H 0.0 **** 0.0
197 H40745 0.584739663621902 -0.0444201760724214 0.832640168473734 H 0.0 **** 0.0
198 H40747 0.583788371850899 -0.0623921790626532 0.856000506375969 H 0.0 **** 0.0
199 H40749 0.598742192342019 -0.0515661728197359 0.877271116385764 H 0.0 **** 0.0
200 H40751 0.626434194407149 -0.0772017131456576 0.870949744540963 H 0.0 **** 0.0
201 H40753 0.614984577052475 -0.07292323064352 0.889710995772409 H 0.0 **** 0.0
202 H40755 0.588904546155051 -0.0852787222418812 0.875084306556977 H 0.0 **** 0.0
203 H40757 0.605139503198369 -0.100438797581713 0.877080010736758 H 0.0 **** 0.0
204 H40759 0.591367694300015 -0.0991954779100887 0.847812109995737 H 0.0 **** 0.0
205 H40761 0.61349441509536 -0.0980704487020444 0.847969839102205 H 0.0 **** 0.0
206 H40763 0.61224796619822 -0.0732572635098456 0.835553242789385 H 0.0 **** 0.0
207 H40765 0.722152999126336 0.0287982771534448 0.951089082933309 H 0.0 **** 0.0
208 H40767 0.735196635849807 0.0522393832587586 0.936033986989821 H 0.0 **** 0.0
209 H40769 0.739135603351468 0.031871460351648 0.904137905104499 H 0.0 **** 0.0
210 H40771 0.749667708118559 0.0504448558297278 0.910234857028929 H 0.0 **** 0.0
211 H40773 0.771890276704502 0.0304820645890653 0.912755522276466 H 0.0 **** 0.0
212 H40775 0.758071228556314 0.0138677089321292 0.918243987785566 H 0.0 **** 0.0
213 H40777 0.766983439507776 0.043302928202494 0.941698537775657 H 0.0 **** 0.0
214 H40779 0.77595149371601 0.0229332178391657 0.943180790584674 H 0.0 **** 0.0
215 H40781 0.749750642308291 0.0306604301583928 0.962618693290148 H 0.0 **** 0.0
216 H40783 0.750548570122535 0.0104810974928694 0.953300551709839 H 0.0 **** 0.0
217 H40785 0.720585360513382 -0.018191828712086 0.934300928576985 H 0.0 **** 0.0
218 H40787 0.714413448859561 -0.0476696742880309 0.94092852087728 H 0.0 **** 0.0
219 H40789 0.647493327941153 -0.0632381258602159 0.882875771026019 H 0.0 **** 0.0
220 H40791 0.638852788128522 -0.0912823862452558 0.894908289061422 H 0.0 **** 0.0
221 H40793 0.643694426311194 -0.110612048905261 0.91429646037918 H 0.0 **** 0.0
222 H40795 0.671600524707444 -0.125132335068921 0.89188189725031 H 0.0 **** 0.0
223 H40797 0.633236195734151 -0.127252036388054 0.887987845597127 H 0.0 **** 0.0
224 H40799 0.647790145733274 -0.139396464623292 0.876133065594659 H 0.0 **** 0.0
225 H40801 0.635694180749513 -0.108480729224993 0.865573708046358 H 0.0 **** 0.0
226 H40803 0.65481728099348 -0.117377456832883 0.858582020856001 H 0.0 **** 0.0
227 H40805 0.656330886703974 -0.0866480520494386 0.868682380827394 H 0.0 **** 0.0
228 H40807 0.671736451534169 -0.100397155462378 0.876983867212104 H 0.0 **** 0.0
229 H40809 0.707578877737605 0.123940779012514 0.805171544720745 H 0.0 **** 0.0
230 H40811 0.713949405961011 0.0939428574833587 0.802628882151172 H 0.0 **** 0.0
231 H40813 0.692182781064846 0.0886574205458068 0.800787403194132 H 0.0 **** 0.0
232 H40815 0.700266718517864 0.0969060424444551 0.820135333790304 H 0.0 **** 0.0
233 H40817 0.697928449533493 0.128270251116708 0.774971213391976 H 0.0 **** 0.0
234 H40819 0.691151106683065 0.10679484519832 0.774492168806707 H 0.0 **** 0.0
235 H40821 0.712822566173428 0.111547910341919 0.777105233308907 H 0.0 **** 0.0
236 H40823 0.611112211936365 0.00978288914650018 0.876577815839383 H 0.0 **** 0.0
237 H40825 0.708865404620715 -0.0906012564890211 0.963377605174723 H 0.0 **** 0.0
238 H40827 0.71481209929399 -0.114492086193557 0.981029093128899 H 0.0 **** 0.0
239 H40829 0.711982568394297 -0.143434384769381 0.987445212216078 H 0.0 **** 0.0
240 H40831 0.71019659662266 -0.173224922474336 0.993328154171017 H 0.0 **** 0.0
241 H40833 0.698810722336269 -0.20069687481685 0.987514647533449 H 0.0 **** 0.0
242 H40835 0.660935633767291 -0.223827597073119 0.949369371168328 H 0.0 **** 0.0
243 H40837 0.680172325715324 -0.21925543118685 0.972218967872392 H 0.0 **** 0.0
244 H40839 0.646916489987407 -0.158065499127882 0.893823568051936 H 0.0 **** 0.0
245 H40841 0.630541509856947 -0.177486500398342 0.893789552919143 H 0.0 **** 0.0
246 H40843 0.647062030983621 -0.190747468949376 0.886589907155197 H 0.0 **** 0.0
247 H40845 0.619502584403494 -0.205999241451676 0.885873683781598 H 0.0 **** 0.0
248 H40847 0.615727361458734 -0.200649110704786 0.907232596166664 H 0.0 **** 0.0
249 H40849 0.643245844702487 -0.224413190785198 0.893250633091783 H 0.0 **** 0.0
250 H40851 0.627505160988387 -0.229864463571116 0.907974647901385 H 0.0 **** 0.0
@<TRIPOS>BOND
1 3 2 1
2 4 3 1
3 5 4 1
4 6 5 1
5 1 2 1
6 1 6 1
7 8 7 1
8 9 8 1
9 10 9 1
10 4 7 1
11 3 10 1
12 12 11 1
13 13 12 1
14 14 13 1
15 8 11 1
16 7 14 1
17 16 15 1
18 17 16 Partial double
19 18 17 1
20 13 15 1
21 12 18 1
22 20 19 Partial double
23 21 20 Partial double
24 22 21 Partial double
25 17 19 Partial double
26 16 22 Partial double
27 24 23 1
28 25 24 1
29 15 25 Double
30 22 23 1
31 27 26 1
32 28 27 Partial double
33 29 28 Partial double
34 21 26 1
35 20 29 Partial double
36 31 30 1
37 32 31 1
38 18 30 1
39 19 32 1
40 34 33 Double
41 35 34 1
42 36 35 1
43 31 33 1
44 30 36 Double
45 38 37 1
46 39 38 1
47 40 39 Double
48 34 37 1
49 33 40 1
50 42 41 1
51 43 42 1
52 44 43 1
53 40 41 1
54 39 44 1
55 46 45 Partial double
56 32 46 1
57 29 45 Partial double
58 48 47 Partial double
59 49 48 1
60 45 49 Partial double
61 28 47 Partial double
62 51 50 Partial double
63 52 51 Partial double
64 53 52 Partial double
65 48 50 Partial double
66 47 53 Partial double
67 55 54 Partial double
68 56 55 Partial double
69 57 56 Partial double
70 52 54 Partial double
71 51 57 Partial double
72 59 58 Partial double
73 60 59 Partial double
74 61 60 Partial double
75 56 58 Partial double
76 55 61 Partial double
77 63 62 Partial double
78 27 63 Partial double
79 53 62 Partial double
80 65 64 Partial double
81 62 65 Partial double
82 54 64 Partial double
83 67 66 Partial double
84 64 67 Partial double
85 61 66 Partial double
86 69 68 Partial double
87 70 69 Partial double
88 66 70 Partial double
89 60 68 Partial double
90 72 71 1
91 73 72 1
92 74 73 1
93 59 71 1
94 58 74 1
95 76 75 1
96 77 76 1
97 78 77 1
98 73 75 1
99 72 78 1
100 80 79 1
101 81 80 1
102 82 81 1
103 78 79 1
104 77 82 1
105 84 83 Partial double
106 85 84 Partial double
107 67 85 Partial double
108 65 83 Partial double
109 87 86 1
110 88 87 1
111 89 88 1
112 84 86 1
113 83 89 1
114 91 90 1
115 92 91 1
116 93 92 1
117 88 90 1
118 87 93 1
119 95 94 Partial double
120 85 95 Partial double
121 70 94 Partial double
122 97 96 Partial double
123 98 97 Partial double
124 94 98 Partial double
125 69 96 Partial double
126 100 99 Partial double
127 101 100 Partial double
128 68 101 Partial double
129 96 99 Partial double
130 103 102 1
131 104 103 Partial double
132 97 102 1
133 99 104 1
134 106 105 1
135 107 106 1
136 100 105 1
137 104 107 Partial double
138 109 108 1
139 110 109 1
140 111 110 1
141 106 108 1
142 105 111 1
143 113 112 1
144 114 113 1
145 103 114 Partial double
146 107 112 Partial double
147 108 115 1
148 112 116 Partial double
149 115 116 Partial double
150 42 117 1
151 117 118 1
152 117 119 1
153 74 120 1
154 122 121 1
155 123 122 Partial double
156 124 123 1
157 114 121 Partial double
158 113 124 Partial double
159 126 125 Partial double
160 127 126 1
161 128 127 Partial double
162 124 125 Partial double
163 123 128 Partial double
164 130 129 Partial double
165 131 130 1
166 132 131 1
167 127 129 Partial double
168 126 132 Partial double
169 134 133 Partial double
170 135 134 Partial double
171 125 135 Partial double
172 132 133 Partial double
173 137 136 Partial double
174 138 137 Partial double
175 131 138 Partial double
176 133 136 Partial double
177 140 139 Partial double
178 134 140 Partial double
179 116 135 Partial double
180 115 139 Partial double
181 142 141 Partial double
182 140 142 Partial double
183 136 141 Partial double
184 144 143 1
185 145 144 1
186 146 145 1
187 142 143 1
188 141 146 1
189 146 147 Double
190 1 148 1
191 1 149 1
192 2 150 1
193 2 151 1
194 3 152 1
195 4 153 1
196 5 154 1
197 5 155 1
198 7 156 1
199 8 157 1
200 9 158 1
201 9 159 1
202 10 160 1
203 10 161 1
204 12 162 1
205 13 163 1
206 14 164 1
207 14 165 1
208 18 166 1
209 23 167 1
210 23 168 1
211 24 169 1
212 24 170 1
213 25 171 1
214 35 173 1
215 35 174 1
216 36 175 1
217 37 176 1
218 37 177 1
219 38 178 1
220 38 179 1
221 41 180 1
222 41 181 1
223 42 182 1
224 43 183 1
225 43 184 1
226 44 185 1
227 44 186 1
228 46 187 1
229 50 188 1
230 57 189 1
231 63 190 1
232 72 191 1
233 73 192 1
234 74 193 1
235 75 194 1
236 75 195 1
237 76 196 1
238 76 197 1
239 77 198 1
240 78 199 1
241 79 200 1
242 79 201 1
243 80 202 1
244 80 203 1
245 81 204 1
246 81 205 1
247 82 206 1
248 87 207 1
249 88 208 1
250 90 209 1
251 90 210 1
252 91 211 1
253 91 212 1
254 92 213 1
255 92 214 1
256 93 215 1
257 93 216 1
258 95 217 1
259 98 218 1
260 101 219 1
261 105 220 1
262 106 221 1
263 108 222 1
264 109 223 1
265 109 224 1
266 110 225 1
267 110 226 1
268 111 227 1
269 111 228 1
270 117 229 1
271 118 230 1
272 118 231 1
273 118 232 1
274 119 233 1
275 119 234 1
276 119 235 1
277 120 236 1
278 121 237 1
279 122 238 1
280 128 239 1
281 129 240 1
282 130 241 1
283 137 242 1
284 138 243 1
285 139 244 1
286 143 245 1
287 143 246 1
288 144 247 1
289 144 248 1
290 145 249 1
291 145 250 1
292 31 172 1
@<TRIPOS>MOLECULE
Sketch 4
250 292
SMALL
USER_CHARGES


@<TRIPOS>ATOM
1 C40854 0.452582279296507 0.141692326340358 0.560953532759405 C 0.0 **** 0.0
2 C40855 0.440677733685302 0.15248853729939 0.572244174311831 C 0.0 **** 0.0
3 C40856 0.437248318680885 0.143559129692004 0.589314134310904 C 0.0 **** 0.0
4 C40857 0.433601364565016 0.124582234988322 0.585948318235423 C 0.0 **** 0.0
5 C40858 0.448845797965029 0.116805926778613 0.576137420536457 C 0.0 **** 0.0
6 O40859 0.460863414776634 0.12906566161776 0.570641135396407 O 0.0 **** 0.0
7 C40866 0.41638813725365 0.122048464637416 0.576661568703116 C 0.0 **** 0.0
8 C40867 0.402074496242358 0.133373295835033 0.584526872541933 C 0.0 **** 0.0
9 C40868 0.407365337640153 0.141601638900522 0.601222838315874 C 0.0 **** 0.0
10 C40869 0.42335439455838 0.152420431787154 0.599850482042933 C 0.0 **** 0.0
11 O40875 0.386532908046785 0.125157038088584 0.58823527928314 O 0.0 **** 0.0
12 C40876 0.381045022558389 0.113511056397464 0.575608090594326 C 0.0 **** 0.0
13 C40877 0.392908091827416 0.0981151093794506 0.576314429094204 C 0.0 **** 0.0
14 C40878 0.411930976653447 0.102937591313635 0.57434283036125 C 0.0 **** 0.0
15 C40884 0.387165823286987 0.0842767139546399 0.564249387668824 C 0.0 **** 0.0
16 C40885 0.377150203720672 0.089319827866644 0.548789517925868 C 0.0 **** 0.0
17 C40886 0.372210254074352 0.106021217677742 0.546594175042992 C 0.0 **** 0.0
18 C40887 0.379724087161508 0.12016141361631 0.557487830317989 C 0.0 **** 0.0
19 C40893 0.360991648066242 0.109790971726452 0.533709591682205 C 0.0 **** 0.0
20 C40894 0.356689850987681 0.0975572235254753 0.521975109733167 C 0.0 **** 0.0
21 C40895 0.362668071999042 0.0811305354782366 0.523378576259365 C 0.0 **** 0.0
22 C40896 0.372685961103717 0.0768917805122013 0.537150052314499 C 0.0 **** 0.0
23 C40902 0.379512971136664 0.0591099270222647 0.538821624955178 C 0.0 **** 0.0
24 C40903 0.38063212252376 0.0540947320920103 0.557622296781404 C 0.0 **** 0.0
25 C40904 0.388653302758388 0.0677769197086846 0.56828184985426 C 0.0 **** 0.0
26 O40909 0.358625791965586 0.0688246795183299 0.511483683119489 O 0.0 **** 0.0
27 C40910 0.351700638214132 0.0737140612366685 0.496194313742529 C 0.0 **** 0.0
28 C40911 0.344734314114467 0.0896147672615752 0.49364925315667 C 0.0 **** 0.0
29 C40912 0.345856151188742 0.102542320759676 0.507436792591265 C 0.0 **** 0.0
30 C40918 0.370841746806831 0.136941634719485 0.554517598214334 C 0.0 **** 0.0
31 C40919 0.36800637282388 0.140255434323039 0.5357903836466 C 0.0 **** 0.0
32 C40920 0.353927702660843 0.127373878543937 0.53231130796168 C 0.0 **** 0.0
33 C40925 0.363512165703529 0.158667456862425 0.530841918529202 C 0.0 **** 0.0
34 C40926 0.358082158986393 0.169141613865116 0.543416954405339 C 0.0 **** 0.0
35 C40927 0.355881474765045 0.163731621161276 0.561652232487982 C 0.0 **** 0.0
36 C40928 0.364855696192691 0.147552051350022 0.566288783436324 C 0.0 **** 0.0
37 C40934 0.352431937787374 0.187045659806918 0.540591698281474 C 0.0 **** 0.0
38 C40935 0.357960985137491 0.194269354338454 0.523426028672096 C 0.0 **** 0.0
39 C40936 0.362069959859464 0.180908923644929 0.510541434047669 C 0.0 **** 0.0
40 C40937 0.364979439430352 0.164354324728336 0.514535386803015 C 0.0 **** 0.0
41 C40943 0.370195371154069 0.152573506854029 0.499917288964614 C 0.0 **** 0.0
42 C40944 0.379195694345621 0.161644933325824 0.485537314770407 C 0.0 **** 0.0
43 C40945 0.367519956401731 0.175845190321856 0.479180354450871 C 0.0 **** 0.0
44 C40946 0.36428205352194 0.188692684247319 0.49322910774497 C 0.0 **** 0.0
45 C40952 0.338560839917075 0.118056786326475 0.506406301748544 C 0.0 **** 0.0
46 C40953 0.341794510456758 0.130471651827349 0.517831716728638 C 0.0 **** 0.0
47 C40957 0.338343594705661 0.0939884503716919 0.477543235548779 C 0.0 **** 0.0
48 C40958 0.331018739374654 0.109916018499561 0.474124102822087 C 0.0 **** 0.0
49 S40959 0.324025352058679 0.122330538433636 0.490586447835114 S 0.0 **** 0.0
50 C40964 0.329026986473057 0.115919560256877 0.458031543052515 C 0.0 **** 0.0
51 C40965 0.333824967101997 0.105591276815894 0.444314807073743 C 0.0 **** 0.0
52 C40966 0.33967039049141 0.0889189850190103 0.447404422009728 C 0.0 **** 0.0
53 C40967 0.340915971018174 0.0829124368109816 0.463931284315454 C 0.0 **** 0.0
54 C40973 0.343872385780492 0.0786075919231734 0.433793874973873 C 0.0 **** 0.0
55 C40974 0.344447485315142 0.085261863129898 0.417396197400059 C 0.0 **** 0.0
56 C40975 0.340531128221306 0.102458982863679 0.414341305322595 C 0.0 **** 0.0
57 C40976 0.333401403596408 0.111717119460974 0.427700623728848 C 0.0 **** 0.0
58 C40982 0.343305330438733 0.10960403536162 0.398337639955892 C 0.0 **** 0.0
59 C40983 0.346382113235267 0.0988397313956583 0.384892606198649 C 0.0 **** 0.0
60 C40984 0.348134939184669 0.0811924972453233 0.387307809555084 C 0.0 **** 0.0
61 C40985 0.347204101461897 0.0746100028410828 0.403727361310869 C 0.0 **** 0.0
62 C40991 0.345900703763961 0.0661137024484642 0.466814231815712 C 0.0 **** 0.0
63 C40992 0.351706286999637 0.0620773199207052 0.483224026475493 C 0.0 **** 0.0
64 C40996 0.346016047205399 0.0612898185459735 0.436471077485843 C 0.0 **** 0.0
65 C40997 0.345798223595737 0.0546924862331547 0.452953207585328 C 0.0 **** 0.0
66 C41001 0.346666174239902 0.0571567523157365 0.406243720493421 C 0.0 **** 0.0
67 C41002 0.346317982536299 0.0505972275146472 0.422626182239933 C 0.0 **** 0.0
68 C41006 0.349286640847145 0.0697944797403599 0.373430161508807 C 0.0 **** 0.0
69 C41007 0.345062296302901 0.0527871305951817 0.376097648028463 C 0.0 **** 0.0
70 C41008 0.344382308602579 0.0464488818617051 0.392414845713458 C 0.0 **** 0.0
71 O41013 0.346473845893824 0.105436739704846 0.36866691971805 O 0.0 **** 0.0
72 C41014 0.357174622418261 0.119832982203962 0.366676262438905 C 0.0 **** 0.0
73 C41015 0.355628522259023 0.132763125462683 0.381369909570391 C 0.0 **** 0.0
74 C41016 0.341704899597185 0.128382521626052 0.394030146713495 C 0.0 **** 0.0
75 C41022 0.354550659185048 0.151200788469584 0.374962440740433 C 0.0 **** 0.0
76 C41023 0.368011201320667 0.153835132614566 0.36134153084477 C 0.0 **** 0.0
77 C41024 0.363663695834099 0.143760046137666 0.345271924818569 C 0.0 **** 0.0
78 C41025 0.353146254126815 0.127677691454993 0.349330898474124 C 0.0 **** 0.0
79 C41031 0.354318400208876 0.114327815138537 0.335202320708985 C 0.0 **** 0.0
80 C41032 0.357670474716813 0.123121934564961 0.318432697942437 C 0.0 **** 0.0
81 C41033 0.374859441777045 0.132461875858627 0.318686990474283 C 0.0 **** 0.0
82 N41034 0.378633439579333 0.140443811122098 0.335165992102505 N 0.0 **** 0.0
83 C41040 0.343915993115222 0.0370358903282047 0.455532850906024 C 0.0 **** 0.0
84 C41041 0.342640478524473 0.0264036036641244 0.44166727396274 C 0.0 **** 0.0
85 C41042 0.344059974193431 0.0331772697597675 0.425197674286768 C 0.0 **** 0.0
86 O41047 0.339996534679271 0.00913675561341728 0.443126144935005 O 0.0 **** 0.0
87 C41048 0.333996439238352 0.00432437924175185 0.459429210109572 C 0.0 **** 0.0
88 C41049 0.344326011755313 0.0127600952203571 0.472888335889172 C 0.0 **** 0.0
89 O41050 0.342722653446237 0.0307238539549705 0.47185549727194 O 0.0 **** 0.0
90 C41056 0.363151270400288 0.00723177756749249 0.472670691821905 C 0.0 **** 0.0
91 C41057 0.366302062383065 -0.00917320522920894 0.46259616657836 C 0.0 **** 0.0
92 C41058 0.352118296804441 -0.0220340637942056 0.465513134197126 C 0.0 **** 0.0
93 C41059 0.334442095542785 -0.0150618484543287 0.460702898551377 C 0.0 **** 0.0
94 C41065 0.341116145080452 0.0290199894490648 0.394801259192175 C 0.0 **** 0.0
95 C41066 0.341677023577873 0.0224373342024211 0.411282798120939 C 0.0 **** 0.0
96 C41070 0.343068525661674 0.0420162781507106 0.362215445677814 C 0.0 **** 0.0
97 C41071 0.33799907198261 0.0250641727284701 0.364581082873052 C 0.0 **** 0.0
98 C41072 0.337118684263136 0.0187478695237696 0.380719102476503 C 0.0 **** 0.0
99 C41077 0.347802827713132 0.0472582807837827 0.345875190057677 C 0.0 **** 0.0
100 C41078 0.354573576675029 0.0631933564873831 0.34344327365194 C 0.0 **** 0.0
101 C41079 0.355029132757183 0.0740630998148708 0.357067135570527 C 0.0 **** 0.0
102 O41084 0.334426930573649 0.0146269663579934 0.351076652888061 O 0.0 **** 0.0
103 C41085 0.341034327070866 0.0186636588617928 0.335423166658929 C 0.0 **** 0.0
104 C41086 0.347072427099237 0.034486547688631 0.331937610866467 C 0.0 **** 0.0
105 C41091 0.361242376564673 0.0693160805588449 0.326510492778983 C 0.0 **** 0.0
106 C41092 0.357712643592277 0.0565414676064381 0.311275348275961 C 0.0 **** 0.0
107 C41093 0.352396534871626 0.0385858243300249 0.316015973351145 C 0.0 **** 0.0
108 C41098 0.372814564948435 0.05614498454332 0.298880519376339 C 0.0 **** 0.0
109 C41099 0.378912892445022 0.0742152925572005 0.295244012526031 C 0.0 **** 0.0
110 C41100 0.386488187259371 0.082170693048837 0.311426519056775 C 0.0 **** 0.0
111 C41101 0.380158498655853 0.0735691416709454 0.327742022772931 C 0.0 **** 0.0
112 C41107 0.352647096390359 0.0263887663090818 0.303743828089739 C 0.0 **** 0.0
113 C41108 0.346800779418349 0.0104294278260323 0.307289915484778 C 0.0 **** 0.0
114 C41109 0.340983021657925 0.00659892394673575 0.323062092759319 C 0.0 **** 0.0
115 C41114 0.368031405690901 0.0456636713116664 0.28339401092498 C 0.0 **** 0.0
116 C41116 0.359087478093002 0.0308352086274919 0.286293920893759 C 0.0 **** 0.0
117 C41119 0.3850317138836 0.148997533439365 0.471780031211672 C 0.0 **** 0.0
118 C41121 0.370542269946754 0.140719756061134 0.461883944649611 C 0.0 **** 0.0
119 C41123 0.397643751138471 0.156976730724079 0.459454217173973 C 0.0 **** 0.0
120 O41125 0.343859646027184 0.139276309572894 0.408222405045416 O 0.0 **** 0.0
121 C41127 0.335083348707773 -0.00930928063766774 0.326478534009024 C 0.0 **** 0.0
122 C41128 0.335429713535266 -0.021539479660681 0.314392109469579 C 0.0 **** 0.0
123 C41129 0.341345013472464 -0.0179036200923838 0.298613912886325 C 0.0 **** 0.0
124 C41130 0.346638988939292 -0.00179478713831999 0.295056487266892 C 0.0 **** 0.0
125 C41136 0.352322201431255 0.0023118034857919 0.277676805982573 C 0.0 **** 0.0
126 C41137 0.35343489320029 -0.010503977829744 0.266148003441081 C 0.0 **** 0.0
127 C41138 0.348128032624705 -0.0277778196117997 0.270949844365363 C 0.0 **** 0.0
128 C41139 0.341928781306015 -0.0307358174158736 0.286838456136003 C 0.0 **** 0.0
129 C41145 0.349712582078833 -0.0406141029712229 0.259480198966215 C 0.0 **** 0.0
130 C41146 0.356426585247449 -0.0378384683936173 0.24373753201488 C 0.0 **** 0.0
131 C41147 0.361572753622288 -0.0220954113094993 0.238713031366186 C 0.0 **** 0.0
132 C41148 0.359773765543283 -0.00753558488199496 0.25034040652275 C 0.0 **** 0.0
133 C41154 0.365152885845473 0.00867340378283094 0.245530113640514 C 0.0 **** 0.0
134 C41155 0.363594923422725 0.0219357442061919 0.257148760112081 C 0.0 **** 0.0
135 C41156 0.357561187270131 0.0187036199012793 0.273493132443501 C 0.0 **** 0.0
136 C41161 0.372977714362816 0.0113519768516936 0.229864459390382 C 0.0 **** 0.0
137 C41162 0.373982461486876 -0.00408360387545721 0.218408837381491 C 0.0 **** 0.0
138 C41163 0.368474282061626 -0.0197523246935548 0.223110221964044 C 0.0 **** 0.0
139 C41168 0.373125276382913 0.0491476527206134 0.267072115271131 C 0.0 **** 0.0
140 C41169 0.370535163779616 0.0377814071687151 0.253330091310662 C 0.0 **** 0.0
141 C41174 0.378887653109841 0.0274258919328424 0.22567307891015 C 0.0 **** 0.0
142 C41175 0.37696827284481 0.0408291277054775 0.236966645495817 C 0.0 **** 0.0
143 C41179 0.383242942628784 0.0584728685798627 0.2324132110436 C 0.0 **** 0.0
144 C41180 0.379886820176436 0.0621465536175942 0.213708319294676 C 0.0 **** 0.0
145 C41181 0.388755055451117 0.048873892514011 0.203183206308442 C 0.0 **** 0.0
146 C41182 0.387441648056437 0.0308167273503316 0.209028592579315 C 0.0 **** 0.0
147 O41188 0.393934312552734 0.0200883436717132 0.200198963785309 O 0.0 **** 0.0
148 H41190 0.462593850826639 0.149505907735384 0.555317736950223 H 0.0 **** 0.0
149 H41192 0.445572821995792 0.135971855593226 0.550327753919465 H 0.0 **** 0.0
150 H41194 0.446093490395993 0.16506291139898 0.574681493240807 H 0.0 **** 0.0
151 H41196 0.428612399857521 0.15491561672125 0.565695437637789 H 0.0 **** 0.0
152 H41198 0.449158619629911 0.144142745042141 0.596594541173247 H 0.0 **** 0.0
153 H41200 0.432481055147723 0.118161895720251 0.598311765389825 H 0.0 **** 0.0
154 H41202 0.444612895626058 0.109079070075653 0.565322444757557 H 0.0 **** 0.0
155 H41204 0.455908264150183 0.108291249083639 0.584499816885986 H 0.0 **** 0.0
156 H41206 0.418367166073918 0.126878476264142 0.563702557525672 H 0.0 **** 0.0
157 H41208 0.399616994426369 0.143695842037639 0.575430981617453 H 0.0 **** 0.0
158 H41210 0.40929761500746 0.131413837935414 0.61054694016941 H 0.0 **** 0.0
159 H41212 0.39665591282725 0.149180192947787 0.605947091012944 H 0.0 **** 0.0
160 H41214 0.428069304596991 0.155309235967333 0.612629188556282 H 0.0 **** 0.0
161 H41216 0.4201519536126 0.164718771026455 0.594118215057564 H 0.0 **** 0.0
162 H41218 0.368349038699102 0.109676366270432 0.579791541791437 H 0.0 **** 0.0
163 H41220 0.391569517796533 0.0930745447706813 0.589227476042101 H 0.0 **** 0.0
164 H41222 0.416744599718366 0.0989900490315578 0.561875709618832 H 0.0 **** 0.0
165 H41224 0.419110765313022 0.0953609895048066 0.583575099475607 H 0.0 **** 0.0
166 H41226 0.392727156545038 0.12230292850269 0.552765270179247 H 0.0 **** 0.0
167 H41228 0.371476614835448 0.0499513850423096 0.532103253474896 H 0.0 **** 0.0
168 H41230 0.392125318672698 0.0584433255243405 0.532912149811984 H 0.0 **** 0.0
169 H41232 0.387612543621646 0.0421145331529656 0.559071016129745 H 0.0 **** 0.0
170 H41234 0.367729141221655 0.0517593093171662 0.562261799346492 H 0.0 **** 0.0
171 H41236 0.394571481226627 0.0635345829818717 0.579966055297714 H 0.0 **** 0.0
172 H41238 0.379644119708427 0.136569506836718 0.529053533537706 H 0.0 **** 0.0
173 H41239 0.342277405498601 0.162228750646664 0.564096354226648 H 0.0 **** 0.0
174 H41241 0.360597804748173 0.173929508302695 0.569970872414572 H 0.0 **** 0.0
175 H41243 0.366062628403 0.144776150245683 0.579718608444771 H 0.0 **** 0.0
176 H41245 0.338526533243155 0.187420033475682 0.54156975619962 H 0.0 **** 0.0
177 H41247 0.357328062633698 0.195267654823264 0.550767758153563 H 0.0 **** 0.0
178 H41249 0.36931779242976 0.202176857063435 0.525203719339015 H 0.0 **** 0.0
179 H41251 0.34794658851624 0.202700648451659 0.518572240942594 H 0.0 **** 0.0
180 H41253 0.378248192384004 0.142206416251352 0.504468995251892 H 0.0 **** 0.0
181 H41255 0.358688321775805 0.146641954384096 0.494813847112099 H 0.0 **** 0.0
182 H41257 0.390752950425701 0.167608045225424 0.490699770568883 H 0.0 **** 0.0
183 H41259 0.355421575584645 0.170280932988948 0.475055798609538 H 0.0 **** 0.0
184 H41261 0.372851506964376 0.182382404410706 0.468085420720819 H 0.0 **** 0.0
185 H41263 0.353094026301773 0.196465649462407 0.490173906085834 H 0.0 **** 0.0
186 H41265 0.375105697235022 0.197457699889006 0.493990900008819 H 0.0 **** 0.0
187 H41267 0.335552879622453 0.142730005714279 0.517144918260402 H 0.0 **** 0.0
188 H41269 0.3239384998364 0.128578474375918 0.455578452002265 H 0.0 **** 0.0
189 H41271 0.328322033846639 0.124481039148846 0.425867609671933 H 0.0 **** 0.0
190 H41273 0.357236894800144 0.0496629132695966 0.486067613834965 H 0.0 **** 0.0
191 H41275 0.37032289520792 0.115193975254474 0.366327969716274 H 0.0 **** 0.0
192 H41277 0.367435156451863 0.132170205766399 0.388823180334826 H 0.0 **** 0.0
193 H41279 0.329074447769512 0.131009674411209 0.388799377531704 H 0.0 **** 0.0
194 H41281 0.341878350545677 0.153847293466157 0.369798721596288 H 0.0 **** 0.0
195 H41283 0.356451316771035 0.159965058746701 0.385640574321913 H 0.0 **** 0.0
196 H41285 0.380014686301445 0.149177405433028 0.36658751897996 H 0.0 **** 0.0
197 H41287 0.370018390102501 0.167261115004329 0.358238804547308 H 0.0 **** 0.0
198 H41289 0.355492809388891 0.151941825919449 0.337501985466775 H 0.0 **** 0.0
199 H41291 0.339866309850971 0.131870922879885 0.350121962469111 H 0.0 **** 0.0
200 H41293 0.365063983359795 0.10583205342995 0.337660515355912 H 0.0 **** 0.0
201 H41295 0.342805373303911 0.106506607324232 0.334800759414479 H 0.0 **** 0.0
202 H41297 0.347315630322557 0.13214530731002 0.316217857049306 H 0.0 **** 0.0
203 H41299 0.35726899905954 0.114038605931966 0.307991064240014 H 0.0 **** 0.0
204 H41301 0.375313836863908 0.142239271810279 0.308824247317478 H 0.0 **** 0.0
205 H41303 0.385161203251146 0.123605200800204 0.315627249215079 H 0.0 **** 0.0
206 H41305 0.386781389605805 0.133308263897917 0.341741971496391 H 0.0 **** 0.0
207 H41307 0.320835528591876 0.0088137267378327 0.46055120639757 H 0.0 **** 0.0
208 H41309 0.338816682760637 0.00895197158747715 0.485052514467525 H 0.0 **** 0.0
209 H41311 0.370744944490522 0.0175621004721761 0.467311180040026 H 0.0 **** 0.0
210 H41313 0.367812770362936 0.00553507763770449 0.485699251749701 H 0.0 **** 0.0
211 H41315 0.378530345089535 -0.0147169019756807 0.466251813613373 H 0.0 **** 0.0
212 H41317 0.367202278900614 -0.00627931280315419 0.44898766508822 H 0.0 **** 0.0
213 H41319 0.352226296866358 -0.0252744211983532 0.479031463865725 H 0.0 **** 0.0
214 H41321 0.354726450767532 -0.0338736126887 0.458658483003252 H 0.0 **** 0.0
215 H41323 0.325007695747714 -0.019711179972435 0.469822523042736 H 0.0 **** 0.0
216 H41325 0.330642295222385 -0.0200357200141376 0.448269130996912 H 0.0 **** 0.0
217 H41327 0.33934632726962 0.00888818818612147 0.413267775648021 H 0.0 **** 0.0
218 H41329 0.333747652003561 0.00543208845089054 0.382756377585387 H 0.0 **** 0.0
219 H41331 0.360436813361441 0.086557921828927 0.354773075040174 H 0.0 **** 0.0
220 H41333 0.354529939722713 0.0811013120048974 0.323217248129007 H 0.0 **** 0.0
221 H41335 0.346885474052525 0.0619725098818861 0.304309282565879 H 0.0 **** 0.0
222 H41337 0.383405446714305 0.0493787554999033 0.305029944398417 H 0.0 **** 0.0
223 H41339 0.36804667332151 0.0817237723318125 0.290860618681416 H 0.0 **** 0.0
224 H41341 0.388488596190916 0.0746624457158965 0.28518481226914 H 0.0 **** 0.0
225 H41343 0.383479881200313 0.0957395124382634 0.311874813840749 H 0.0 **** 0.0
226 H41345 0.400366302580784 0.0813495612189193 0.310948219107795 H 0.0 **** 0.0
227 H41347 0.382998679054952 0.0817753889880706 0.338643491438347 H 0.0 **** 0.0
228 H41349 0.387270401288606 0.0617678183074097 0.329924555106488 H 0.0 **** 0.0
229 H41351 0.391904690460734 0.138761125808089 0.478396671227616 H 0.0 **** 0.0
230 H41353 0.37552790968603 0.131278839184487 0.452966821593144 H 0.0 **** 0.0
231 H41355 0.363447340070241 0.150162591526389 0.454528953257269 H 0.0 **** 0.0
232 H41357 0.361557244671057 0.134149255090106 0.470218461086047 H 0.0 **** 0.0
233 H41359 0.408454955717195 0.162493539268088 0.466241295987521 H 0.0 **** 0.0
234 H41361 0.391695642672511 0.167038627750311 0.451905284642528 H 0.0 **** 0.0
235 H41363 0.402703373851158 0.147463941263768 0.450667059938486 H 0.0 **** 0.0
236 H41365 0.352541316539586 0.134260302752034 0.414846487317726 H 0.0 **** 0.0
237 H41367 0.330221898564895 -0.012635243666068 0.338951444966767 H 0.0 **** 0.0
238 H41369 0.330947588304875 -0.0341760941291989 0.317643596070339 H 0.0 **** 0.0
239 H41371 0.337808381606586 -0.0434623765095882 0.290283054720351 H 0.0 **** 0.0
240 H41373 0.345921231162291 -0.0534723330590428 0.262730064490271 H 0.0 **** 0.0
241 H41375 0.357717734529984 -0.0486736064826891 0.235300531560515 H 0.0 **** 0.0
242 H41377 0.379307261486265 -0.0028976336735325 0.20581207006576 H 0.0 **** 0.0
243 H41379 0.369883854985064 -0.0302234761062576 0.214238966673033 H 0.0 **** 0.0
244 H41381 0.380076799600726 0.0609169739209276 0.264871102344728 H 0.0 **** 0.0
245 H41383 0.376881882700466 0.0681928776836131 0.240043635765709 H 0.0 **** 0.0
246 H41385 0.39689915598816 0.0595031108980853 0.235086668850391 H 0.0 **** 0.0
247 H41387 0.384384123471754 0.0748215297336094 0.210094234451143 H 0.0 **** 0.0
248 H41389 0.366155476596321 0.0619514106585271 0.21137630802075 H 0.0 **** 0.0
249 H41391 0.402541530675926 0.0507912375473434 0.202817999880106 H 0.0 **** 0.0
250 H41393 0.384683090032045 0.0481152597888017 0.189907733558469 H 0.0 **** 0.0
@<TRIPOS>BOND
1 3 2 1
2 4 3 1
3 5 4 1
4 6 5 1
5 1 2 1
6 1 6 1
7 8 7 1
8 9 8 1
9 10 9 1
10 4 7 1
11 3 10 1
12 12 11 1
13 13 12 1
14 14 13 1
15 8 11 1
16 7 14 1
17 16 15 1
18 17 16 Partial double
19 18 17 1
20 13 15 1
21 12 18 1
22 20 19 Partial double
23 21 20 Partial double
24 22 21 Partial double
25 17 19 Partial double
26 16 22 Partial double
27 24 23 1
28 25 24 1
29 15 25 Double
30 22 23 1
31 27 26 1
32 28 27 Partial double
33 29 28 Partial double
34 21 26 1
35 20 29 Partial double
36 31 30 1
37 32 31 1
38 18 30 1
39 19 32 1
40 34 33 Double
41 35 34 1
42 36 35 1
43 31 33 1
44 30 36 Double
45 38 37 1
46 39 38 1
47 40 39 Double
48 34 37 1
49 33 40 1
50 42 41 1
51 43 42 1
52 44 43 1
53 40 41 1
54 39 44 1
55 46 45 Partial double
56 32 46 1
57 29 45 Partial double
58 48 47 Partial double
59 49 48 1
60 45 49 Partial double
61 28 47 Partial double
62 51 50 Partial double
63 52 51 Partial double
64 53 52 Partial double
65 48 50 Partial double
66 47 53 Partial double
67 55 54 Partial double
68 56 55 Partial double
69 57 56 Partial double
70 52 54 Partial double
71 51 57 Partial double
72 59 58 Partial double
73 60 59 Partial double
74 61 60 Partial double
75 56 58 Partial double
76 55 61 Partial double
77 63 62 Partial double
78 27 63 Partial double
79 53 62 Partial double
80 65 64 Partial double
81 62 65 Partial double
82 54 64 Partial double
83 67 66 Partial double
84 64 67 Partial double
85 61 66 Partial double
86 69 68 Partial double
87 70 69 Partial double
88 66 70 Partial double
89 60 68 Partial double
90 72 71 1
91 73 72 1
92 74 73 1
93 59 71 1
94 58 74 1
95 76 75 1
96 77 76 1
97 78 77 1
98 73 75 1
99 72 78 1
100 80 79 1
101 81 80 1
102 82 81 1
103 78 79 1
104 77 82 1
105 84 83 Partial double
106 85 84 Partial double
107 67 85 Partial double
108 65 83 Partial double
109 87 86 1
110 88 87 1
111 89 88 1
112 84 86 1
113 83 89 1
114 91 90 1
115 92 91 1
116 93 92 1
117 88 90 1
118 87 93 1
119 95 94 Partial double
120 85 95 Partial double
121 70 94 Partial double
122 97 96 Partial double
123 98 97 Partial double
124 94 98 Partial double
125 69 96 Partial double
126 100 99 Partial double
127 101 100 Partial double
128 68 101 Partial double
129 96 99 Partial double
130 103 102 1
131 104 103 Partial double
132 97 102 1
133 99 104 1
134 106 105 1
135 107 106 1
136 100 105 1
137 104 107 Partial double
138 109 108 1
139 110 109 1
140 111 110 1
141 106 108 1
142 105 111 1
143 113 112 1
144 114 113 1
145 103 114 Partial double
146 107 112 Partial double
147 108 115 1
148 112 116 Partial double
149 115 116 Partial double
150 42 117 1
151 117 118 1
152 117 119 1
153 74 120 1
154 122 121 1
155 123 122 Partial double
156 124 123 1
157 114 121 Partial double
158 113 124 Partial double
159 126 125 Partial double
160 127 126 1
161 128 127 Partial double
162 124 125 Partial double
163 123 128 Partial double
164 130 129 Partial double
165 131 130 1
166 132 131 1
167 127 129 Partial double
168 126 132 Partial double
169 134 133 Partial double
170 135 134 Partial double
171 125 135 Partial double
172 132 133 Partial double
173 137 136 Partial double
174 138 137 Partial double
175 131 138 Partial double
176 133 136 Partial double
177 140 139 Partial double
178 134 140 Partial double
179 116 135 Partial double
180 115 139 Partial double
181 142 141 Partial double
182 140 142 Partial double
183 136 141 Partial double
184 144 143 1
185 145 144 1
186 146 145 1
187 142 143 1
188 141 146 1
189 146 147 Double
190 1 148 1
191 1 149 1
192 2 150 1
193 2 151 1
194 3 152 1
195 4 153 1
196 5 154 1
197 5 155 1
198 7 156 1
199 8 157 1
200 9 158 1
201 9 159 1
202 10 160 1
203 10 161 1
204 12 162 1
205 13 163 1
206 14 164 1
207 14 165 1
208 18 166 1
209 23 167 1
210 23 168 1
211 24 169 1
212 24 170 1
213 25 171 1
214 35 173 1
215 35 174 1
216 36 175 1
217 37 176 1
218 37 177 1
219 38 178 1
220 38 179 1
221 41 180 1
222 41 181 1
223 42 182 1
224 43 183 1
225 43 184 1
226 44 185 1
227 44 186 1
228 46 187 1
229 50 188 1
230 57 189 1
231 63 190 1
232 72 191 1
233 73 192 1
234 74 193 1
235 75 194 1
236 75 195 1
237 76 196 1
238 76 197 1
239 77 198 1
240 78 199 1
241 79 200 1
242 79 201 1
243 80 202 1
244 80 203 1
245 81 204 1
246 81 205 1
247 82 206 1
248 87 207 1
249 88 208 1
250 90 209 1
251 90 210 1
252 91 211 1
253 91 212 1
254 92 213 1
255 92 214 1
256 93 215 1
257 93 216 1
258 95 217 1
259 98 218 1
260 101 219 1
261 105 220 1
262 106 221 1
263 108 222 1
264 109 223 1
265 109 224 1
266 110 225 1
267 110 226 1
268 111 227 1
269 111 228 1
270 117 229 1
271 118 230 1
272 118 231 1
273 118 232 1
274 119 233 1
275 119 234 1
276 119 235 1
277 120 236 1
278 121 237 1
279 122 238 1
280 128 239 1
281 129 240 1
282 130 241 1
283 137 242 1
284 138 243 1
285 139 244 1
286 143 245 1
287 143 246 1
288 144 247 1
289 144 248 1
290 145 249 1
291 145 250 1
292 31 172 1
@<TRIPOS>MOLECULE
Sketch 4
250 292
SMALL
USER_CHARGES


@<TRIPOS>ATOM
1 C41396 -0.200164369194762 1.06688032266764 0.0320877637920363 C 0.0 **** 0.0
2 C41397 -0.207774674995731 1.0491145778449 0.0286520992023145 C 0.0 **** 0.0
3 C41398 -0.196243680716761 1.03486023758709 0.0352468859259418 C 0.0 **** 0.0
4 C41399 -0.177740987160684 1.03711271912429 0.0285027242317873 C 0.0 **** 0.0
5 C41400 -0.174951871403404 1.05538809963219 0.0222123531620031 C 0.0 **** 0.0
6 O41401 -0.18225914178952 1.06678629716766 0.0340302769496402 O 0.0 **** 0.0
7 C41408 -0.172741385387857 1.02273178786717 0.0162483691191718 C 0.0 **** 0.0
8 C41409 -0.17347720168255 1.00579115814614 0.025854292314101 C 0.0 **** 0.0
9 C41410 -0.190420544996037 1.00311094074699 0.0352033807869505 C 0.0 **** 0.0
10 C41411 -0.203413658798406 1.01711777663687 0.0315544732550219 C 0.0 **** 0.0
11 O41417 -0.16094976246897 1.00610912733124 0.0388244393036974 O 0.0 **** 0.0
12 C41418 -0.143649995129751 1.00751886950757 0.0335317556776198 C 0.0 **** 0.0
13 C41419 -0.14105670852044 1.02325212618392 0.0221598918655724 C 0.0 **** 0.0
14 C41420 -0.15493400316771 1.02440892746957 0.00864069907595105 C 0.0 **** 0.0
15 C41426 -0.123630740963935 1.02423178019276 0.0140903709192575 C 0.0 **** 0.0
16 C41427 -0.111230619261836 1.01027552744692 0.0177936888981322 C 0.0 **** 0.0
17 C41428 -0.116957709039802 0.994818588515516 0.0238628167498085 C 0.0 **** 0.0
18 C41429 -0.135959016024828 0.991539818014603 0.0256242332641306 C 0.0 **** 0.0
19 C41435 -0.105155184593113 0.982479086502469 0.0279259460025408 C 0.0 **** 0.0
20 C41436 -0.0880950176695177 0.985866197528448 0.0259920055412618 C 0.0 **** 0.0
21 C41437 -0.0824322118250928 1.00118287079227 0.0195998018279783 C 0.0 **** 0.0
22 C41438 -0.0941638524920159 1.01343714093491 0.0151092558462485 C 0.0 **** 0.0
23 C41444 -0.0881926020122304 1.03037313930001 0.00832371647838927 C 0.0 **** 0.0
24 C41445 -0.101596783619971 1.03836422819238 -0.0034726273197198 C 0.0 **** 0.0
25 C41446 -0.119030134730035 1.03740783651168 0.00430565681790397 C 0.0 **** 0.0
26 O41451 -0.0652767070008309 1.0045026137994 0.0176886881499609 O 0.0 **** 0.0
27 C41452 -0.0538197694736308 0.994307220465635 0.0260902175593702 C 0.0 **** 0.0
28 C41453 -0.0578384333529115 0.978348215918721 0.0319721488362552 C 0.0 **** 0.0
29 C41454 -0.0757065760723476 0.972425684427739 0.0304606806965249 C 0.0 **** 0.0
30 C41460 -0.138777232443323 0.975037990880107 0.0350619020446557 C 0.0 **** 0.0
31 C41461 -0.128093481211321 0.960738960006532 0.0278808466858486 C 0.0 **** 0.0
32 C41462 -0.110609306908613 0.965549573586136 0.0349441513604365 C 0.0 **** 0.0
33 C41467 -0.13365740472588 0.942670431327735 0.0331335660983905 C 0.0 **** 0.0
34 C41468 -0.142340261937298 0.941240762363297 0.047987707181786 C 0.0 **** 0.0
35 C41469 -0.1480338559228 0.956174577398608 0.0586240510528866 C 0.0 **** 0.0
36 C41470 -0.147468446033695 0.972934138373496 0.0494867197179556 C 0.0 **** 0.0
37 C41476 -0.149361574860784 0.924848512779905 0.0544412788874168 C 0.0 **** 0.0
38 C41477 -0.141203811620777 0.909224871696965 0.0463812660026345 C 0.0 **** 0.0
39 C41478 -0.134063050887039 0.912757773613104 0.029156901395659 C 0.0 **** 0.0
40 C41479 -0.130467137717369 0.928660894370989 0.0233721657549102 C 0.0 **** 0.0
41 C41485 -0.12251957238824 0.929893056921501 0.00558044506673369 C 0.0 **** 0.0
42 C41486 -0.126770769658989 0.914687687730726 -0.00554719679472734 C 0.0 **** 0.0
43 C41487 -0.120821155669635 0.898590035265837 0.00357548839205718 C 0.0 **** 0.0
44 C41488 -0.130580462005854 0.896338920280042 0.0200298404155588 C 0.0 **** 0.0
45 C41494 -0.0805109968373488 0.956264974368053 0.0334560617057927 C 0.0 **** 0.0
46 C41495 -0.0970708564516686 0.951882232071837 0.0348161307818464 C 0.0 **** 0.0
47 C41499 -0.0452920924610599 0.968336661740768 0.0397501853183749 C 0.0 **** 0.0
48 C41500 -0.0479522522559474 0.951028279248596 0.0433628023280808 C 0.0 **** 0.0
49 S41501 -0.0652829137259785 0.940574779720963 0.0350716578800405 S 0.0 **** 0.0
50 C41506 -0.0363115488619454 0.941525067411549 0.0518620355735127 C 0.0 **** 0.0
51 C41507 -0.0203108095958815 0.948541857949916 0.0555963888157793 C 0.0 **** 0.0
52 C41508 -0.0167597297224729 0.965467188290138 0.0508875283263522 C 0.0 **** 0.0
53 C41509 -0.0294460070026531 0.97547467595003 0.0437726831248103 C 0.0 **** 0.0
54 C41515 7.96318396662866e-05 0.970796928473866 0.0506147125369788 C 0.0 **** 0.0
55 C41516 0.0132640375781642 0.958999180667759 0.0523654892556235 C 0.0 **** 0.0
56 C41517 0.00993672495485691 0.94217923351657 0.0575911414360112 C 0.0 **** 0.0
57 C41518 -0.00705015286486416 0.937804361805997 0.0603920129540591 C 0.0 **** 0.0
58 C41524 0.0228140779886723 0.929999991082665 0.0569003706806943 C 0.0 **** 0.0
59 C41525 0.0374308489244137 0.933703122434047 0.0479862927332422 C 0.0 **** 0.0
60 C41526 0.0412129569432412 0.950449683060292 0.0430963982619981 C 0.0 **** 0.0
61 C41527 0.0294319469845955 0.963184252668203 0.0469137970799984 C 0.0 **** 0.0
62 C41533 -0.0256484226901227 0.992053968584931 0.0385845670445326 C 0.0 **** 0.0
63 C41534 -0.0378014788951834 1.00050242835482 0.0286236235914566 C 0.0 **** 0.0
64 C41538 0.00377715327503192 0.98746990338858 0.0461905884638287 C 0.0 **** 0.0
65 C41539 -0.00926729625198415 0.998756907955933 0.0420216960076687 C 0.0 **** 0.0
66 C41543 0.033311562242086 0.980038515712666 0.0435387990530963 C 0.0 **** 0.0
67 C41544 0.0204926428253557 0.992213898992089 0.0438867825689216 C 0.0 **** 0.0
68 C41548 0.0565538221828119 0.95490935794115 0.0348199713760876 C 0.0 **** 0.0
69 C41549 0.0613064102149786 0.972019732577278 0.0343555868695586 C 0.0 **** 0.0
70 C41550 0.0494939896244631 0.984423057016319 0.0380984947362709 C 0.0 **** 0.0
71 O41555 0.0485331407401578 0.92043114519372 0.0447199242846832 O 0.0 **** 0.0
72 C41556 0.0398393536835165 0.906594459916163 0.0365992508530695 C 0.0 **** 0.0
73 C41557 0.0234055272259024 0.901313102341241 0.0463471747418797 C 0.0 **** 0.0
74 C41558 0.0223047076923221 0.911628188441719 0.0626336299834872 C 0.0 **** 0.0
75 C41564 0.0219246801881106 0.882013252162802 0.0488370022355112 C 0.0 **** 0.0
76 C41565 0.0251530400704155 0.873446861961515 0.0317918277732309 C 0.0 **** 0.0
77 C41566 0.0437449341560351 0.875664684983239 0.0263834613607721 C 0.0 **** 0.0
78 C41567 0.052234324401269 0.891644754196162 0.0342308783068685 C 0.0 **** 0.0
79 C41573 0.0685033725022441 0.896684030078172 0.0245880880165695 C 0.0 **** 0.0
80 C41574 0.0758310308062904 0.881163388268111 0.0156780138110997 C 0.0 **** 0.0
81 C41575 0.0633651947953284 0.874313125051152 0.00228211442446793 C 0.0 **** 0.0
82 N41576 0.0455735238574923 0.874447964594665 0.0081214510764536 N 0.0 **** 0.0
83 C41582 -0.00554036321555491 1.01601037161392 0.0391908830658412 C 0.0 **** 0.0
84 C41583 0.0111558200323595 1.02114451040259 0.0377961248638795 C 0.0 **** 0.0
85 C41584 0.0241572280401301 1.00906212314298 0.0396469682513252 C 0.0 **** 0.0
86 O41589 0.015756940455528 1.03756381909765 0.0336291294508855 O 0.0 **** 0.0
87 C41590 0.00211595694560939 1.04938076464371 0.0331614532590787 C 0.0 **** 0.0
88 C41591 -0.0135353160358331 1.04126822218318 0.0262371772910314 C 0.0 **** 0.0
89 O41592 -0.0185350825327484 1.0275774132625 0.0368929311154049 O 0.0 **** 0.0
90 C41598 -0.0117049152007883 1.03571442853794 0.00746504247480573 C 0.0 **** 0.0
91 C41599 0.00178200460450312 1.04590419919784 -0.00230283256467742 C 0.0 **** 0.0
92 C41600 0.0024299754895377 1.06418899468234 0.00403750642101068 C 0.0 **** 0.0
93 C41601 0.00777887596928964 1.06489418378705 0.0228415443755509 C 0.0 **** 0.0
94 C41607 0.0535188405766281 1.00147903865236 0.0344181138162908 C 0.0 **** 0.0
95 C41608 0.0407447296390175 1.01374887865 0.0356106734989297 C 0.0 **** 0.0
96 C41612 0.0773056361554615 0.976469157994279 0.0281560915877425 C 0.0 **** 0.0
97 C41613 0.0820912603271493 0.99361267064923 0.0266508865100603 C 0.0 **** 0.0
98 C41614 0.0699935707754793 1.00581437988346 0.0289956067327334 C 0.0 **** 0.0
99 C41619 0.0880149844196464 0.964170044591138 0.0211128358979517 C 0.0 **** 0.0
100 C41620 0.0824864525650437 0.947699101070267 0.0191932068692107 C 0.0 **** 0.0
101 C41621 0.067058581198699 0.943449465173837 0.0260359961475343 C 0.0 **** 0.0
102 O41626 0.0981521195512633 0.998486096813296 0.0217872315710375 O 0.0 **** 0.0
103 C41627 0.109535151532297 0.986321379411965 0.0165486773051518 C 0.0 **** 0.0
104 C41628 0.10504465947225 0.969676456627654 0.0151436414557546 C 0.0 **** 0.0
105 C41633 0.0926508955047611 0.934189948773875 0.0101062296634163 C 0.0 **** 0.0
106 C41634 0.111934195262192 0.939165547419664 0.00786718607077069 C 0.0 **** 0.0
107 C41635 0.116238371158058 0.957937491467383 0.00928775013272941 C 0.0 **** 0.0
108 C41640 0.119281988457396 0.932175693166151 -0.00883613137076311 C 0.0 **** 0.0
109 C41641 0.112769398925249 0.914253271002816 -0.0124163348071338 C 0.0 **** 0.0
110 C41642 0.0934777724836699 0.914793530972575 -0.0157520098194982 C 0.0 **** 0.0
111 C41643 0.0846127325023993 0.929912119784587 -0.00704244500998911 C 0.0 **** 0.0
112 C41649 0.132117897992775 0.962923288580322 0.00478130804127036 C 0.0 **** 0.0
113 C41650 0.137085496712222 0.979356283572984 0.00726483458704062 C 0.0 **** 0.0
114 C41651 0.125792522291025 0.991076125886156 0.0129886069431183 C 0.0 **** 0.0
115 C41656 0.138435104312858 0.934318965266608 -0.00796973740482654 C 0.0 **** 0.0
116 C41658 0.144175321007163 0.949824872182369 -0.00203729486100655 C 0.0 **** 0.0
117 C41661 -0.120013217811659 0.916483807094638 -0.0238278318379521 C 0.0 **** 0.0
118 C41663 -0.100670155386397 0.916481705837465 -0.0251944487431164 C 0.0 **** 0.0
119 C41665 -0.127259133615953 0.902868332754719 -0.0356049324513611 C 0.0 **** 0.0
120 O41667 0.00791790236683132 0.906883064955378 0.0723105696960982 O 0.0 **** 0.0
121 C41669 0.130909048867472 1.00744664544644 0.0153879099651507 C 0.0 **** 0.0
122 C41670 0.147206932353678 1.01207137950378 0.0122108957902262 C 0.0 **** 0.0
123 C41671 0.158647814702495 1.0003870466078 0.00667767811219556 C 0.0 **** 0.0
124 C41672 0.153452254835338 0.984052071721809 0.00424342644393449 C 0.0 **** 0.0
125 C41678 0.16595747708042 0.971201776535397 -0.00121707856568377 C 0.0 **** 0.0
126 C41679 0.182265431046422 0.976123157886156 -0.00400271865932828 C 0.0 **** 0.0
127 C41680 0.187087160323661 0.993994151274781 -0.00137977595735262 C 0.0 **** 0.0
128 C41681 0.175118237235439 1.0054202218203 0.0038237579878975 C 0.0 **** 0.0
129 C41687 0.20350772775578 0.99874500345716 -0.00409279668324744 C 0.0 **** 0.0
130 C41688 0.215547411620312 0.987222547201204 -0.0089978431852881 C 0.0 **** 0.0
131 C41689 0.211681745597214 0.970513114569925 -0.0115205514229898 C 0.0 **** 0.0
132 C41690 0.194116449453323 0.964582014151357 -0.00907507376473835 C 0.0 **** 0.0
133 C41696 0.189819947368971 0.947561448526055 -0.011747336337877 C 0.0 **** 0.0
134 C41697 0.173058514552171 0.942576212281957 -0.00933144478446537 C 0.0 **** 0.0
135 C41698 0.161121683706789 0.954363890726521 -0.00373713863849455 C 0.0 **** 0.0
136 C41703 0.201947695289237 0.935707830457662 -0.0167877225170387 C 0.0 **** 0.0
137 C41704 0.219829956565185 0.942603037905905 -0.0185978426718174 C 0.0 **** 0.0
138 C41705 0.223872815775519 0.959227740474647 -0.0161414399347869 C 0.0 **** 0.0
139 C41710 0.150267177223112 0.922695590889376 -0.0133881234391326 C 0.0 **** 0.0
140 C41711 0.167969168907171 0.926033754212478 -0.0132023014882657 C 0.0 **** 0.0
141 C41716 0.197157399853299 0.918922832587177 -0.0194235899381641 C 0.0 **** 0.0
142 C41717 0.180369497636815 0.913906733398976 -0.0173697830365166 C 0.0 **** 0.0
143 C41721 0.175289878054538 0.895574497886287 -0.0203920035970426 C 0.0 **** 0.0
144 C41722 0.188897858922273 0.883723954181586 -0.0133941959114493 C 0.0 **** 0.0
145 C41723 0.205326885816223 0.887496712289804 -0.0223296838137128 C 0.0 **** 0.0
146 C41724 0.209808702338741 0.905806362212653 -0.0247322165623436 C 0.0 **** 0.0
147 O41730 0.223201123389058 0.908856989097019 -0.0315113260334419 O 0.0 **** 0.0
148 H41732 -0.205152116392135 1.0721394153995 0.0439339204348356 H 0.0 **** 0.0
149 H41734 -0.203794695594487 1.07572771331894 0.0219479096248238 H 0.0 **** 0.0
150 H41736 -0.220549830943463 1.04811246652895 0.034114074284332 H 0.0 **** 0.0
151 H41738 -0.209411504029927 1.04726744306962 0.0149083936856022 H 0.0 **** 0.0
152 H41740 -0.195609064527339 1.03625453049922 0.0491103075549091 H 0.0 **** 0.0
153 H41742 -0.169445982936776 1.03589778263972 0.0396838849029052 H 0.0 **** 0.0
154 H41744 -0.180093546604296 1.05737181868462 0.00938524444784485 H 0.0 **** 0.0
155 H41746 -0.161405074944601 1.05845262965318 0.02164346708185 H 0.0 **** 0.0
156 H41748 -0.181920971704194 1.02252669659806 0.00572813532370696 H 0.0 **** 0.0
157 H41750 -0.171090630593375 0.995250079584115 0.0170187294321654 H 0.0 **** 0.0
158 H41752 -0.187652650402186 1.00312108353238 0.0488489761479497 H 0.0 **** 0.0
159 H41754 -0.196120505471635 0.990688850924149 0.0324836648062609 H 0.0 **** 0.0
160 H41756 -0.215026666352638 1.01497320186042 0.038953091423603 H 0.0 **** 0.0
161 H41758 -0.207210967974927 1.01631834409906 0.0181506964695153 H 0.0 **** 0.0
162 H41760 -0.137022849923011 1.00978646985473 0.045572650563318 H 0.0 **** 0.0
163 H41762 -0.142289624322643 1.0344614058322 0.0303644078637305 H 0.0 **** 0.0
164 H41764 -0.153195717428419 1.01412514353143 -0.000642344910613718 H 0.0 **** 0.0
165 H41766 -0.153907743610581 1.03626686062033 0.00139562707959779 H 0.0 **** 0.0
166 H41768 -0.141434416960245 0.989753895017656 0.01286602100858 H 0.0 **** 0.0
167 H41770 -0.0856758939137253 1.03908734451648 0.0189172685315608 H 0.0 **** 0.0
168 H41772 -0.0761782935542789 1.02895870617218 0.00144377796279291 H 0.0 **** 0.0
169 H41774 -0.101688076295481 1.03175717243637 -0.0157371572192727 H 0.0 **** 0.0
170 H41776 -0.0982334353016208 1.05165058011855 -0.00611270618703117 H 0.0 **** 0.0
171 H41778 -0.127599690523065 1.04773283841432 0.00120777474943266 H 0.0 **** 0.0
172 H41780 -0.127992193607279 0.96186135915462 0.0140092468456175 H 0.0 **** 0.0
173 H41781 -0.140366466231619 0.956886198000756 0.0702554966667183 H 0.0 **** 0.0
174 H41783 -0.161247555581617 0.954006418442673 0.0626301049399011 H 0.0 **** 0.0
175 H41785 -0.154086627606004 0.983397238111562 0.0555191717058318 H 0.0 **** 0.0
176 H41787 -0.148190434760532 0.924226963718901 0.0683289264220138 H 0.0 **** 0.0
177 H41789 -0.162981890362988 0.924816247065799 0.0515627409766781 H 0.0 **** 0.0
178 H41791 -0.150622208236586 0.898941736653294 0.0456489206722885 H 0.0 **** 0.0
179 H41793 -0.130820968185007 0.904515390614093 0.0543792173035515 H 0.0 **** 0.0
180 H41795 -0.126863305921752 0.941421899210094 -0.000873588480281825 H 0.0 **** 0.0
181 H41797 -0.108709034634523 0.931067403280583 0.0069241984061855 H 0.0 **** 0.0
182 H41799 -0.140712651275123 0.914019137425997 -0.00661508393105368 H 0.0 **** 0.0
183 H41801 -0.1072033627089 0.899697259227596 0.0062680641060251 H 0.0 **** 0.0
184 H41803 -0.122411069618627 0.887217398535601 -0.00429223619944111 H 0.0 **** 0.0
185 H41805 -0.123772011666176 0.887655661079612 0.0285966848107152 H 0.0 **** 0.0
186 H41807 -0.142883226549348 0.890325583589208 0.0172764505648092 H 0.0 **** 0.0
187 H41809 -0.10083675792462 0.938798745777048 0.0367835585913127 H 0.0 **** 0.0
188 H41811 -0.0385259834178231 0.928016224544637 0.0541681438299134 H 0.0 **** 0.0
189 H41813 -0.0106575532193312 0.924624860545685 0.0626923248281224 H 0.0 **** 0.0
190 H41815 -0.0353802486946064 1.01274352732652 0.0226593135538733 H 0.0 **** 0.0
191 H41817 0.0361478091973366 0.911029540427597 0.0239097227986096 H 0.0 **** 0.0
192 H41819 0.0122194627286581 0.904819449722431 0.0387111091909083 H 0.0 **** 0.0
193 H41821 0.0337075643544692 0.908842498170401 0.0702739107147175 H 0.0 **** 0.0
194 H41823 0.031006671723183 0.877419786273057 0.0583731014211584 H 0.0 **** 0.0
195 H41825 0.00922240875681057 0.878885380372801 0.0536682773895748 H 0.0 **** 0.0
196 H41827 0.0167033010512289 0.879311773073978 0.0223747601342292 H 0.0 **** 0.0
197 H41829 0.0218640746161205 0.859902841661649 0.0319941089714667 H 0.0 **** 0.0
198 H41831 0.0505505516535448 0.864685316262386 0.0316091098656126 H 0.0 **** 0.0
199 H41833 0.0560407527443233 0.888013604175288 0.047170836296648 H 0.0 **** 0.0
200 H41835 0.0654510144074546 0.90605682863541 0.0147638799533371 H 0.0 **** 0.0
201 H41837 0.0776705195957525 0.902581004999817 0.0332410232984987 H 0.0 **** 0.0
202 H41839 0.0782525930186751 0.871412333288739 0.0253109538532034 H 0.0 **** 0.0
203 H41841 0.0880949848173072 0.883788617453564 0.00965908393828354 H 0.0 **** 0.0
204 H41843 0.0667658483444912 0.861310002175765 -0.00138164232655947 H 0.0 **** 0.0
205 H41845 0.0643472460930244 0.881951623050123 -0.00933083831475944 H 0.0 **** 0.0
206 H41847 0.0389224815399647 0.883648509139738 0.0025203420637142 H 0.0 **** 0.0
207 H41849 -0.000519678105510686 1.05309543606386 0.046314869544221 H 0.0 **** 0.0
208 H41851 -0.0236935946297392 1.05079362676059 0.0268668375100269 H 0.0 **** 0.0
209 H41853 -0.00853877402594891 1.02217873305553 0.00694994090861776 H 0.0 **** 0.0
210 H41855 -0.0240178161809322 1.03691603458787 0.0010374864850485 H 0.0 **** 0.0
211 H41857 -0.000741750867627169 1.04535821345928 -0.0159953340897115 H 0.0 **** 0.0
212 H41859 0.0143239219770094 1.04009218183728 -0.000405556876153484 H 0.0 **** 0.0
213 H41861 -0.0102201963347976 1.06986093403271 0.00252838745158884 H 0.0 **** 0.0
214 H41863 0.0111147576037915 1.07194120292877 -0.00363028685801887 H 0.0 **** 0.0
215 H41865 0.0033772423375882 1.0768350078764 0.0284518036267653 H 0.0 **** 0.0
216 H41867 0.0216662757133603 1.06515897488561 0.0234844669062449 H 0.0 **** 0.0
217 H41869 0.0436260943188162 1.02688835657697 0.0321477965871673 H 0.0 **** 0.0
218 H41871 0.0729839333713197 1.01915379495308 0.0265412272969387 H 0.0 **** 0.0
219 H41873 0.0631262959334398 0.930347420115693 0.0243222781362432 H 0.0 **** 0.0
220 H41875 0.0925336658244036 0.922583863376892 0.0178352319427861 H 0.0 **** 0.0
221 H41877 0.11870285260746 0.932806267465155 0.0182451676096412 H 0.0 **** 0.0
222 H41879 0.114786403492104 0.940181157261258 -0.0194108519714097 H 0.0 **** 0.0
223 H41881 0.11550283705161 0.906139444969516 -0.00143598447352714 H 0.0 **** 0.0
224 H41883 0.119127407130958 0.908518207320044 -0.0233966680893007 H 0.0 **** 0.0
225 H41885 0.0876273417383242 0.902870651338599 -0.011628566607005 H 0.0 **** 0.0
226 H41887 0.0911690822578949 0.915583923067682 -0.0294760732116609 H 0.0 **** 0.0
227 H41889 0.070986728413389 0.927250326796027 -0.00581342159955615 H 0.0 **** 0.0
228 H41891 0.0855890717444319 0.941152108731347 -0.0152502385044555 H 0.0 **** 0.0
229 H41893 -0.124533699219986 0.928816307262923 -0.0286460186192221 H 0.0 **** 0.0
230 H41895 -0.096740286392834 0.918472153734488 -0.0384102171964114 H 0.0 **** 0.0
231 H41897 -0.0953471357681746 0.904321829960329 -0.0210237412579102 H 0.0 **** 0.0
232 H41899 -0.0948209970656495 0.926542409209852 -0.017574692646658 H 0.0 **** 0.0
233 H41901 -0.14116325431161 0.90249237977201 -0.0351093984216408 H 0.0 **** 0.0
234 H41903 -0.122472151141296 0.890256568819889 -0.0322311892273355 H 0.0 **** 0.0
235 H41905 -0.123616282208482 0.905314798300193 -0.0488234294397054 H 0.0 **** 0.0
236 H41907 0.00900933618075142 0.912697004360285 0.0827899422082168 H 0.0 **** 0.0
237 H41909 0.122201507493776 1.01704796768825 0.0201309586867417 H 0.0 **** 0.0
238 H41911 0.150930487855227 1.0251807819584 0.0143818899530343 H 0.0 **** 0.0
239 H41913 0.178724025767167 1.0186199474307 0.00577570982052177 H 0.0 **** 0.0
240 H41915 0.207381288215025 1.01187199070921 -0.00230756382839353 H 0.0 **** 0.0
241 H41917 0.228455173403597 0.991741788191845 -0.0108614385545899 H 0.0 **** 0.0
242 H41919 0.230102735174581 0.934107541003289 -0.021905392177471 H 0.0 **** 0.0
243 H41921 0.236989675624439 0.963146993166508 -0.0178467215523627 H 0.0 **** 0.0
244 H41923 0.145588808566692 0.91037373536661 -0.0176560296893666 H 0.0 **** 0.0
245 H41925 0.163238192300297 0.892493579094722 -0.0142336267329877 H 0.0 **** 0.0
246 H41927 0.173514295755097 0.893231023339184 -0.034049242354379 H 0.0 **** 0.0
247 H41929 0.185439518040706 0.870350401246652 -0.0151665128435125 H 0.0 **** 0.0
248 H41931 0.190275351617877 0.885769740159282 0.000324004260118506 H 0.0 **** 0.0
249 H41933 0.205406950902406 0.8827792799588 -0.03543036496846 H 0.0 **** 0.0
250 H41935 0.216713389475745 0.882332696852998 -0.0162440471281084 H 0.0 **** 0.0
@<TRIPOS>BOND
1 3 2 1
2 4 3 1
3 5 4 1
4 6 5 1
5 1 2 1
6 1 6 1
7 8 7 1
8 9 8 1
9 10 9 1
10 4 7 1
11 3 10 1
12 12 11 1
13 13 12 1
14 14 13 1
15 8 11 1
16 7 14 1
17 16 15 1
18 17 16 Partial double
19 18 17 1
20 13 15 1
21 12 18 1
22 20 19 Partial double
23 21 20 Partial double
24 22 21 Partial double
25 17 19 Partial double
26 16 22 Partial double
27 24 23 1
28 25 24 1
29 15 25 Double
30 22 23 1
31 27 26 1
32 28 27 Partial double
33 29 28 Partial double
34 21 26 1
35 20 29 Partial double
36 31 30 1
37 32 31 1
38 18 30 1
39 19 32 1
40 34 33 Double
41 35 34 1
42 36 35 1
43 31 33 1
44 30 36 Double
45 38 37 1
46 39 38 1
47 40 39 Double
48 34 37 1
49 33 40 1
50 42 41 1
51 43 42 1
52 44 43 1
53 40 41 1
54 39 44 1
55 46 45 Partial double
56 32 46 1
57 29 45 Partial double
58 48 47 Partial double
59 49 48 1
60 45 49 Partial double
61 28 47 Partial double
62 51 50 Partial double
63 52 51 Partial double
64 53 52 Partial double
65 48 50 Partial double
66 47 53 Partial double
67 55 54 Partial double
68 56 55 Partial double
69 57 56 Partial double
70 52 54 Partial double
71 51 57 Partial double
72 59 58 Partial double
73 60 59 Partial double
74 61 60 Partial double
75 56 58 Partial double
76 55 61 Partial double
77 63 62 Partial double
78 27 63 Partial double
79 53 62 Partial double
80 65 64 Partial double
81 62 65 Partial double
82 54 64 Partial double
83 67 66 Partial double
84 64 67 Partial double
85 61 66 Partial double
86 69 68 Partial double
87 70 69 Partial double
88 66 70 Partial double
89 60 68 Partial double
90 72 71 1
91 73 72 1
92 74 73 1
93 59 71 1
94 58 74 1
95 76 75 1
96 77 76 1
97 78 77 1
98 73 75 1
99 72 78 1
100 80 79 1
101 81 80 1
102 82 81 1
103 78 79 1
104 77 82 1
105 84 83 Partial double
106 85 84 Partial double
107 67 85 Partial double
108 65 83 Partial double
109 87 86 1
110 88 87 1
111 89 88 1
112 84 86 1
113 83 89 1
114 91 90 1
115 92 91 1
116 93 92 1
117 88 90 1
118 87 93 1
119 95 94 Partial double
120 85 95 Partial double
121 70 94 Partial double
122 97 96 Partial double
123 98 97 Partial double
124 94 98 Partial double
125 69 96 Partial double
126 100 99 Partial double
127 101 100 Partial double
128 68 101 Partial double
129 96 99 Partial double
130 103 102 1
131 104 103 Partial double
132 97 102 1
133 99 104 1
134 106 105 1
135 107 106 1
136 100 105 1
137 104 107 Partial double
138 109 108 1
139 110 109 1
140 111 110 1
141 106 108 1
142 105 111 1
143 113 112 1
144 114 113 1
145 103 114 Partial double
146 107 112 Partial double
147 108 115 1
148 112 116 Partial double
149 115 116 Partial double
150 42 117 1
151 117 118 1
152 117 119 1
153 74 120 1
154 122 121 1
155 123 122 Partial double
156 124 123 1
157 114 121 Partial double
158 113 124 Partial double
159 126 125 Partial double
160 127 126 1
161 128 127 Partial double
162 124 125 Partial double
163 123 128 Partial double
164 130 129 Partial double
165 131 130 1
166 132 131 1
167 127 129 Partial double
168 126 132 Partial double
169 134 133 Partial double
170 135 134 Partial double
171 125 135 Partial double
172 132 133 Partial double
173 137 136 Partial double
174 138 137 Partial double
175 131 138 Partial double
176 133 136 Partial double
177 140 139 Partial double
178 134 140 Partial double
179 116 135 Partial double
180 115 139 Partial double
181 142 141 Partial double
182 140 142 Partial double
183 136 141 Partial double
184 144 143 1
185 145 144 1
186 146 145 1
187 142 143 1
188 141 146 1
189 146 147 Double
190 1 148 1
191 1 149 1
192 2 150 1
193 2 151 1
194 3 152 1
195 4 153 1
196 5 154 1
197 5 155 1
198 7 156 1
199 8 157 1
200 9 158 1
201 9 159 1
202 10 160 1
203 10 161 1
204 12 162 1
205 13 163 1
206 14 164 1
207 14 165 1
208 18 166 1
209 23 167 1
210 23 168 1
211 24 169 1
212 24 170 1
213 25 171 1
214 35 173 1
215 35 174 1
216 36 175 1
217 37 176 1
218 37 177 1
219 38 178 1
220 38 179 1
221 41 180 1
222 41 181 1
223 42 182 1
224 43 183 1
225 43 184 1
226 44 185 1
227 44 186 1
228 46 187 1
229 50 188 1
230 57 189 1
231 63 190 1
232 72 191 1
233 73 192 1
234 74 193 1
235 75 194 1
236 75 195 1
237 76 196 1
238 76 197 1
239 77 198 1
240 78 199 1
241 79 200 1
242 79 201 1
243 80 202 1
244 80 203 1
245 81 204 1
246 81 205 1
247 82 206 1
248 87 207 1
249 88 208 1
250 90 209 1
251 90 210 1
252 91 211 1
253 91 212 1
254 92 213 1
255 92 214 1
256 93 215 1
257 93 216 1
258 95 217 1
259 98 218 1
260 101 219 1
261 105 220 1
262 106 221 1
263 108 222 1
264 109 223 1
265 109 224 1
266 110 225 1
267 110 226 1
268 111 227 1
269 111 228 1
270 117 229 1
271 118 230 1
272 118 231 1
273 118 232 1
274 119 233 1
275 119 234 1
276 119 235 1
277 120 236 1
278 121 237 1
279 122 238 1
280 128 239 1
281 129 240 1
282 130 241 1
283 137 242 1
284 138 243 1
285 139 244 1
286 143 245 1
287 143 246 1
288 144 247 1
289 144 248 1
290 145 249 1
291 145 250 1
292 31 172 1
@<TRIPOS>MOLECULE
Sketch 4
250 292
SMALL
USER_CHARGES


@<TRIPOS>ATOM
1 C41938 0.699173524826459 0.672431887389659 0.727396126194659 C 0.0 **** 0.0
2 C41939 0.693411418327038 0.684788926421905 0.741538791806943 C 0.0 **** 0.0
3 C41940 0.689165648263951 0.675430144512629 0.758163716452589 C 0.0 **** 0.0
4 C41941 0.677854578624138 0.659634465138729 0.754663260410515 C 0.0 **** 0.0
5 C41942 0.68473063314292 0.649962665679144 0.738862653613316 C 0.0 **** 0.0
6 O41943 0.700929503607376 0.655667077180085 0.733528660822064 O 0.0 **** 0.0
7 C41950 0.658917037826186 0.664644928611522 0.752937226895565 C 0.0 **** 0.0
8 C41951 0.652346573947479 0.67439556143383 0.768964493735808 C 0.0 **** 0.0
9 C41952 0.66679458888587 0.679764593298147 0.780758552097327 C 0.0 **** 0.0
10 C41953 0.681716649516195 0.687675421921333 0.771472672893442 C 0.0 **** 0.0
11 O41959 0.641029885221932 0.665492123464558 0.779792044982633 O 0.0 **** 0.0
12 C41960 0.62760702928888 0.656831780108244 0.771408279438385 C 0.0 **** 0.0
13 C41961 0.635634512815622 0.642671997453003 0.760860017667032 C 0.0 **** 0.0
14 C41962 0.647275459193664 0.649862740355646 0.747094119860462 C 0.0 **** 0.0
15 C41968 0.622149930505479 0.631483214687695 0.753234792911676 C 0.0 **** 0.0
16 C41969 0.60602442298637 0.639940640940277 0.747564526222593 C 0.0 **** 0.0
17 C41970 0.602568368576558 0.656589901941972 0.752012557219086 C 0.0 **** 0.0
18 C41971 0.616206598540953 0.667739343329983 0.76011925516102 C 0.0 **** 0.0
19 C41977 0.586735835648565 0.663222697174624 0.748269262095131 C 0.0 **** 0.0
20 C41978 0.575396310127052 0.653931593860167 0.738657703960821 C 0.0 **** 0.0
21 C41979 0.579430113310182 0.63771519428201 0.733308044659898 C 0.0 **** 0.0
22 C41980 0.594651086048113 0.630499915160556 0.738153110354389 C 0.0 **** 0.0
23 C41986 0.598996162177247 0.612706057378674 0.732504695891269 C 0.0 **** 0.0
24 C41987 0.609403602404022 0.603485278755134 0.746239328266306 C 0.0 **** 0.0
25 C41988 0.623587489344372 0.614494530828032 0.752771658873653 C 0.0 **** 0.0
26 O41993 0.568606093358384 0.628251526792706 0.72335670716692 O 0.0 **** 0.0
27 C41994 0.552786893025718 0.634479513781223 0.719507399052076 C 0.0 **** 0.0
28 C41995 0.547283040374115 0.650549882356566 0.723847948087724 C 0.0 **** 0.0
29 C41996 0.558861567961475 0.661765707125133 0.733856835100941 C 0.0 **** 0.0
30 C42002 0.608548854762174 0.683539137112458 0.76759125460363 C 0.0 **** 0.0
31 C42003 0.59730473573751 0.69224059558316 0.754697030698241 C 0.0 **** 0.0
32 C42004 0.581822984832751 0.680479343600687 0.7547600435523 C 0.0 **** 0.0
33 C42009 0.593337417682938 0.711042093597546 0.75852524357943 C 0.0 **** 0.0
34 C42010 0.59493783975372 0.716227341346445 0.774904319011824 C 0.0 **** 0.0
35 C42011 0.600973694280514 0.705003733209418 0.789303845774891 C 0.0 **** 0.0
36 C42012 0.609961027969579 0.6891799704103 0.783498502776396 C 0.0 **** 0.0
37 C42018 0.59162289299345 0.733892126436231 0.780855820278383 C 0.0 **** 0.0
38 C42019 0.586809201207505 0.746493983588066 0.766875220037328 C 0.0 **** 0.0
39 C42020 0.585486221447043 0.738786524373832 0.749618389228626 C 0.0 **** 0.0
40 C42021 0.588857618098714 0.722222422996975 0.746049115020606 C 0.0 **** 0.0
41 C42027 0.587689711289619 0.716846769642406 0.72734336427484 C 0.0 **** 0.0
42 C42028 0.59006328036934 0.731426834191677 0.7149805210485 C 0.0 **** 0.0
43 C42029 0.577145966497925 0.745261947802038 0.719284452040071 C 0.0 **** 0.0
44 C42030 0.580762325403896 0.752226490852576 0.736877860610911 C 0.0 **** 0.0
45 C42036 0.554764352929856 0.677801278161659 0.738481875605199 C 0.0 **** 0.0
46 C42037 0.565232133221762 0.687435769326246 0.74815085100985 C 0.0 **** 0.0
47 C42041 0.530374030804445 0.655164073534648 0.720232461427532 C 0.0 **** 0.0
48 C42042 0.523169244952804 0.670573018599953 0.725677716542396 C 0.0 **** 0.0
49 S42043 0.535975809151709 0.687175219326276 0.731906258001998 S 0.0 **** 0.0
50 C42048 0.506025420216083 0.673061816186623 0.726104159697873 C 0.0 **** 0.0
51 C42049 0.495177522072842 0.660822822348519 0.718835158181941 C 0.0 **** 0.0
52 C42050 0.502412166104794 0.646705256251096 0.710509115073863 C 0.0 **** 0.0
53 C42051 0.519616424318632 0.643423136014139 0.712147059102634 C 0.0 **** 0.0
54 C42057 0.492583581011567 0.637392895561017 0.69913394472145 C 0.0 **** 0.0
55 C42058 0.475984985914607 0.642486671868126 0.695788514398647 C 0.0 **** 0.0
56 C42059 0.467579416251355 0.653934618190583 0.706571567268451 C 0.0 **** 0.0
57 C42060 0.477667484954869 0.663475692752828 0.71776565809745 C 0.0 **** 0.0
58 C42066 0.450114066891591 0.656425846813258 0.704468284036201 C 0.0 **** 0.0
59 C42067 0.442969701378999 0.653211654713962 0.688759497801307 C 0.0 **** 0.0
60 C42068 0.45251121211205 0.644741919329552 0.676217872771335 C 0.0 **** 0.0
61 C42069 0.467864976129629 0.637338376819808 0.681053770163219 C 0.0 **** 0.0
62 C42075 0.526202181121505 0.628516925890519 0.70518485018162 C 0.0 **** 0.0
63 C42076 0.542326578937847 0.62372523586753 0.710727159978234 C 0.0 **** 0.0
64 C42080 0.500014062461886 0.624663890674336 0.689441313559205 C 0.0 **** 0.0
65 C42081 0.516938877951817 0.61999370592441 0.692268421697834 C 0.0 **** 0.0
66 C42085 0.475731530301402 0.625536247686313 0.670632686300887 C 0.0 **** 0.0
67 C42086 0.491299500911665 0.618587853189949 0.675460749060609 C 0.0 **** 0.0
68 C42090 0.447314690802166 0.643582295152384 0.658993192964995 C 0.0 **** 0.0
69 C42091 0.455890184704684 0.632240707514726 0.648296317483321 C 0.0 **** 0.0
70 C42092 0.469091085764154 0.622511914174035 0.654516264953572 C 0.0 **** 0.0
71 O42097 0.426261037659425 0.657921774730334 0.685784730041278 O 0.0 **** 0.0
72 C42098 0.422105161721463 0.674551723683274 0.691907547253482 C 0.0 **** 0.0
73 C42099 0.427600373800422 0.677445787469267 0.710638232976837 C 0.0 **** 0.0
74 C42100 0.43807823975212 0.663036536658033 0.717839333047684 C 0.0 **** 0.0
75 C42106 0.412461048150478 0.680837738880388 0.72231083086912 C 0.0 **** 0.0
76 C42107 0.402407438289678 0.695919574739724 0.715893456591764 C 0.0 **** 0.0
77 C42108 0.394939381973239 0.692884115174851 0.698216806762424 C 0.0 **** 0.0
78 C42109 0.402930112883404 0.677544136153653 0.688755173478866 C 0.0 **** 0.0
79 C42115 0.398486116281052 0.677919991387915 0.669649259245018 C 0.0 **** 0.0
80 C42116 0.382559630831932 0.688596477032395 0.66662382862062 C 0.0 **** 0.0
81 C42117 0.384809060682773 0.70705192123466 0.67270411681391 C 0.0 **** 0.0
82 N42118 0.394912678679808 0.708420845160933 0.688383871073883 N 0.0 **** 0.0
83 C42124 0.525280557879174 0.60891712041218 0.680859220049702 C 0.0 **** 0.0
84 C42125 0.516446655435615 0.602297578962438 0.667331686872636 C 0.0 **** 0.0
85 C42126 0.499578519815597 0.607348136085479 0.664542300809255 C 0.0 **** 0.0
86 O42131 0.523726545134869 0.591608371553994 0.655489427372656 O 0.0 **** 0.0
87 C42132 0.539443969971232 0.584523875443686 0.660704127391006 C 0.0 **** 0.0
88 C42133 0.550399192067515 0.597925634390041 0.668448829512772 C 0.0 **** 0.0
89 O42134 0.542302688081101 0.605156572093429 0.682869897422739 O 0.0 **** 0.0
90 C42140 0.555565089867096 0.611982090128865 0.65577200573878 C 0.0 **** 0.0
91 C42141 0.553006587251806 0.606991634899431 0.637107908344179 C 0.0 **** 0.0
92 C42142 0.557996424364925 0.588501874110011 0.634141572931558 C 0.0 **** 0.0
93 C42143 0.547437104053718 0.576125244168571 0.645092110818626 C 0.0 **** 0.0
94 C42149 0.47787827188068 0.611769315665575 0.643257177623767 C 0.0 **** 0.0
95 C42150 0.492239804194556 0.603177057132423 0.648997800102127 C 0.0 **** 0.0
96 C42154 0.452414239407871 0.632460874096107 0.630883376567132 C 0.0 **** 0.0
97 C42155 0.46208515541169 0.62266937097734 0.619489385219028 C 0.0 **** 0.0
98 C42156 0.474321949453939 0.612240643988582 0.625774802999197 C 0.0 **** 0.0
99 C42161 0.439909699258496 0.643091472935826 0.624125701689688 C 0.0 **** 0.0
100 C42162 0.431370266115056 0.654310973377763 0.634418154592891 C 0.0 **** 0.0
101 C42163 0.435281621249088 0.654405684653009 0.651408375522522 C 0.0 **** 0.0
102 O42168 0.460127841144298 0.623625155115784 0.602224676516396 O 0.0 **** 0.0
103 C42169 0.445850911868832 0.631232883421379 0.595894919764825 C 0.0 **** 0.0
104 C42170 0.436058551201607 0.641542600387528 0.60568208776099 C 0.0 **** 0.0
105 C42175 0.417871527227551 0.666270301055917 0.627759996520577 C 0.0 **** 0.0
106 C42176 0.411268449399051 0.661504767013361 0.609290431460638 C 0.0 **** 0.0
107 C42177 0.42252451001468 0.649788747175285 0.59888902600791 C 0.0 **** 0.0
108 C42182 0.407516494821986 0.677525924763088 0.598689752629719 C 0.0 **** 0.0
109 C42183 0.398237056625648 0.690857308508131 0.60935956080196 C 0.0 **** 0.0
110 C42184 0.409696911208216 0.697146804309574 0.623978619678424 C 0.0 **** 0.0
111 C42185 0.424051914311794 0.68465711114907 0.628368540729983 C 0.0 **** 0.0
112 C42191 0.418723027433957 0.647482810147212 0.582187759366981 C 0.0 **** 0.0
113 C42192 0.427862485238189 0.636252847652068 0.572664633272029 C 0.0 **** 0.0
114 C42193 0.441619953820705 0.628391724321282 0.579407302313254 C 0.0 **** 0.0
115 C42198 0.398648996624441 0.672058883204508 0.582372302200212 C 0.0 **** 0.0
116 C42200 0.404448420604197 0.65750451166663 0.574492112421922 C 0.0 **** 0.0
117 C42203 0.589749625383992 0.725423152445375 0.696368676211212 C 0.0 **** 0.0
118 C42205 0.572591259899363 0.718571624185275 0.690479765572034 C 0.0 **** 0.0
119 C42207 0.595756688950893 0.739226108745435 0.684158090879165 C 0.0 **** 0.0
120 O42209 0.445922430576055 0.66895394426863 0.73296037274501 O 0.0 **** 0.0
121 C42211 0.45116175672015 0.617748813555131 0.56966484161869 C 0.0 **** 0.0
122 C42212 0.446713592044712 0.614549596471463 0.553368390260579 C 0.0 **** 0.0
123 C42213 0.432737000549856 0.622051138856374 0.54661571372536 C 0.0 **** 0.0
124 C42214 0.42337853236492 0.632936995009383 0.556319497055712 C 0.0 **** 0.0
125 C42220 0.408355885299334 0.641359535430934 0.54887292900461 C 0.0 **** 0.0
126 C42221 0.404919441354311 0.638544762717605 0.53219011906892 C 0.0 **** 0.0
127 C42222 0.41531461087625 0.626375063443272 0.522456814035235 C 0.0 **** 0.0
128 C42223 0.428700623305196 0.618492527248784 0.530064498393268 C 0.0 **** 0.0
129 C42229 0.41180433439245 0.623583388166909 0.505759303071106 C 0.0 **** 0.0
130 C42230 0.399621120224796 0.632773330786985 0.497553892089655 C 0.0 **** 0.0
131 C42231 0.390543466835725 0.645030962065849 0.505741642246795 C 0.0 **** 0.0
132 C42232 0.392529911004472 0.647572460916087 0.524203344855087 C 0.0 **** 0.0
133 C42238 0.383396705416227 0.660189967724135 0.532768139071591 C 0.0 **** 0.0
134 C42239 0.386251003218907 0.662552350313671 0.550094754954337 C 0.0 **** 0.0
135 C42240 0.398953440506669 0.653170082242417 0.558222014620513 C 0.0 **** 0.0
136 C42245 0.373943955138577 0.672047219169629 0.523547443125501 C 0.0 **** 0.0
137 C42246 0.372064744130343 0.668325291737965 0.504764071047091 C 0.0 **** 0.0
138 C42247 0.380076010733388 0.655315453373291 0.496793697327137 C 0.0 **** 0.0
139 C42252 0.386325992932696 0.681320538121333 0.574288539216781 C 0.0 **** 0.0
140 C42253 0.379737638855814 0.677024560872683 0.55809609420358 C 0.0 **** 0.0
141 C42258 0.367536085544678 0.686391252308665 0.531551527632271 C 0.0 **** 0.0
142 C42259 0.3695694679985 0.688485057121936 0.54891972659615 C 0.0 **** 0.0
143 C42263 0.362413748457232 0.703907557526217 0.558123456969323 C 0.0 **** 0.0
144 C42264 0.345906557056074 0.709982263731431 0.550140338790088 C 0.0 **** 0.0
145 C42265 0.348981037310544 0.713199023252687 0.531604452352875 C 0.0 **** 0.0
146 C42266 0.358481148349752 0.699969158795641 0.521813886901492 C 0.0 **** 0.0
147 O42272 0.358668175135058 0.70152712710501 0.506551901744064 O 0.0 **** 0.0
148 H42274 0.71154977763937 0.675985153575561 0.722230629331764 H 0.0 **** 0.0
149 H42276 0.690233476675531 0.67287648075662 0.716683462023316 H 0.0 **** 0.0
150 H42278 0.703026635758969 0.694525211368127 0.744181108718276 H 0.0 **** 0.0
151 H42280 0.682128582436411 0.691840063704644 0.737368058577674 H 0.0 **** 0.0
152 H42282 0.70122773315931 0.670469433513692 0.763144459789236 H 0.0 **** 0.0
153 H42284 0.678800906428268 0.651257903234722 0.765805262351861 H 0.0 **** 0.0
154 H42286 0.675727850081662 0.650849223595616 0.728236089483795 H 0.0 **** 0.0
155 H42288 0.686110112861384 0.636424968539659 0.741652818211714 H 0.0 **** 0.0
156 H42290 0.658830581257726 0.673909568803607 0.742469395247935 H 0.0 **** 0.0
157 H42292 0.64589110410399 0.68589411871464 0.764399433215524 H 0.0 **** 0.0
158 H42294 0.671037693939959 0.66840241539478 0.787658893222869 H 0.0 **** 0.0
159 H42296 0.661712325516009 0.688385758720697 0.790436374722165 H 0.0 **** 0.0
160 H42298 0.691607987564487 0.691615919608501 0.780451968604284 H 0.0 **** 0.0
161 H42300 0.677295150314469 0.69935548091503 0.765298356670927 H 0.0 **** 0.0
162 H42302 0.620090813557493 0.651327494269879 0.781751894934852 H 0.0 **** 0.0
163 H42304 0.643387603900682 0.635028549470208 0.769549307905566 H 0.0 **** 0.0
164 H42306 0.639430218015894 0.654546082734443 0.736575388881187 H 0.0 **** 0.0
165 H42308 0.654679284270872 0.639443960015843 0.741582080393612 H 0.0 **** 0.0
166 H42310 0.624179704186694 0.672574125372369 0.749671883085593 H 0.0 **** 0.0
167 H42312 0.587499603259122 0.605390276077672 0.729718409624706 H 0.0 **** 0.0
168 H42314 0.606322732422318 0.613229464468195 0.720636818741178 H 0.0 **** 0.0
169 H42316 0.614512992382532 0.591593751532249 0.741075551123419 H 0.0 **** 0.0
170 H42318 0.601109211467641 0.599952329942138 0.756867513060744 H 0.0 **** 0.0
171 H42320 0.634614451757515 0.60789748934656 0.757742319383234 H 0.0 **** 0.0
172 H42322 0.603724781434328 0.691393415905892 0.742370112925289 H 0.0 **** 0.0
173 H42323 0.590173169861769 0.701692311998831 0.797484491960459 H 0.0 **** 0.0
174 H42325 0.609890566317598 0.712330090753924 0.797189325944168 H 0.0 **** 0.0
175 H42327 0.61758504123148 0.682409454076871 0.792770017854131 H 0.0 **** 0.0
176 H42329 0.581531208656628 0.733492194886188 0.79046818033659 H 0.0 **** 0.0
177 H42331 0.6030722852696 0.738647479329968 0.787205053003544 H 0.0 **** 0.0
178 H42333 0.596364871104046 0.756669892966562 0.766463005832414 H 0.0 **** 0.0
179 H42335 0.574703792255157 0.752630961818011 0.770123225638848 H 0.0 **** 0.0
180 H42337 0.597303604470168 0.707247742453268 0.724500638179792 H 0.0 **** 0.0
181 H42339 0.575290159598657 0.710900314647946 0.72519611900995 H 0.0 **** 0.0
182 H42341 0.602787681622093 0.736810267500281 0.717133009786842 H 0.0 **** 0.0
183 H42343 0.564328236491449 0.7398441148203 0.718816625680694 H 0.0 **** 0.0
184 H42345 0.577403522533801 0.755707434826912 0.710071317189915 H 0.0 **** 0.0
185 H42347 0.569796906297217 0.759449512779356 0.741611464902138 H 0.0 **** 0.0
186 H42349 0.591400905370283 0.761239209195842 0.73608539404216 H 0.0 **** 0.0
187 H42351 0.561698681170957 0.70021498449587 0.751839488704821 H 0.0 **** 0.0
188 H42353 0.500579216687177 0.68478718377714 0.731124709044608 H 0.0 **** 0.0
189 H42355 0.47247415330686 0.67451698103512 0.724366621067496 H 0.0 **** 0.0
190 H42357 0.547807090510252 0.611332156873287 0.707879577810202 H 0.0 **** 0.0
191 H42359 0.42925360854762 0.683604939980043 0.684085130746113 H 0.0 **** 0.0
192 H42361 0.435742811505333 0.688782672941287 0.711227121261976 H 0.0 **** 0.0
193 H42363 0.429423227956953 0.652539871758096 0.721182027348579 H 0.0 **** 0.0
194 H42365 0.404325254101173 0.669561269870596 0.722916570522791 H 0.0 **** 0.0
195 H42367 0.416901109167805 0.683291572105322 0.735307165099963 H 0.0 **** 0.0
196 H42369 0.411002391765986 0.706864790112498 0.715635044275144 H 0.0 **** 0.0
197 H42371 0.392218886216776 0.698812069348324 0.724852055181465 H 0.0 **** 0.0
198 H42373 0.381515505830392 0.689539853247348 0.700204256499776 H 0.0 **** 0.0
199 H42375 0.3967938713595 0.666277961022911 0.694271577383931 H 0.0 **** 0.0
200 H42377 0.408919584409758 0.683793546669225 0.662537321138317 H 0.0 **** 0.0
201 H42379 0.397004671133304 0.664994901061768 0.664681033068052 H 0.0 **** 0.0
202 H42381 0.371984757185649 0.682870144494156 0.673662052519537 H 0.0 **** 0.0
203 H42383 0.378709123125988 0.688542417953423 0.653242482919619 H 0.0 **** 0.0
204 H42385 0.372310378769437 0.712797104869268 0.674952817672882 H 0.0 **** 0.0
205 H42387 0.390824750340375 0.714721734773425 0.662753146939717 H 0.0 **** 0.0
206 H42389 0.406873929578013 0.711587357741864 0.685614621522037 H 0.0 **** 0.0
207 H42391 0.536673446964228 0.57492079931754 0.670435588213256 H 0.0 **** 0.0
208 H42393 0.561969957211477 0.591629736133473 0.673023653188567 H 0.0 **** 0.0
209 H42395 0.548101963062573 0.623378284716773 0.658614138854768 H 0.0 **** 0.0
210 H42397 0.568867793239118 0.615611686830147 0.657802143029167 H 0.0 **** 0.0
211 H42399 0.560289653900363 0.615528828014909 0.628843569777947 H 0.0 **** 0.0
212 H42401 0.539609441285807 0.608702010853766 0.633668236446609 H 0.0 **** 0.0
213 H42403 0.571440789085988 0.587211976868717 0.637410712040539 H 0.0 **** 0.0
214 H42405 0.556929723585192 0.585101741787422 0.620673101390564 H 0.0 **** 0.0
215 H42407 0.555203670020514 0.565153871229749 0.648560382156065 H 0.0 **** 0.0
216 H42409 0.536889457064452 0.571081239121424 0.637521155415026 H 0.0 **** 0.0
217 H42411 0.499384887178665 0.595518204032621 0.639914512873509 H 0.0 **** 0.0
218 H42413 0.482323514810629 0.605034675363997 0.61702131256524 H 0.0 **** 0.0
219 H42415 0.428879869116232 0.664027342864727 0.658990359855358 H 0.0 **** 0.0
220 H42417 0.406732503015553 0.665347874275881 0.636119371767985 H 0.0 **** 0.0
221 H42419 0.399186420384583 0.654756876893279 0.611198117006261 H 0.0 **** 0.0
222 H42421 0.419716775034122 0.683233173907952 0.594856914339665 H 0.0 **** 0.0
223 H42423 0.386605503639288 0.685163609730671 0.614504119100935 H 0.0 **** 0.0
224 H42425 0.39433768756557 0.701834326049924 0.601753987237719 H 0.0 **** 0.0
225 H42427 0.401958193709602 0.699504735672903 0.635308288772058 H 0.0 **** 0.0
226 H42429 0.415296166575372 0.709444686152273 0.620568864823608 H 0.0 **** 0.0
227 H42431 0.429357432358154 0.687899338956819 0.640840242418824 H 0.0 **** 0.0
228 H42433 0.434496950583846 0.686150975422982 0.619242445626705 H 0.0 **** 0.0
229 H42435 0.598943023661946 0.714954347985279 0.695340748072431 H 0.0 **** 0.0
230 H42437 0.573456924531435 0.713971686440656 0.677362243357057 H 0.0 **** 0.0
231 H42439 0.562839077138268 0.728491067962243 0.690835070654357 H 0.0 **** 0.0
232 H42441 0.568156057024316 0.70795196339225 0.698291648347594 H 0.0 **** 0.0
233 H42443 0.608308117463497 0.744114896512072 0.687675453948544 H 0.0 **** 0.0
234 H42445 0.586920386512645 0.749967825077466 0.683910942712378 H 0.0 **** 0.0
235 H42447 0.59668759019665 0.734249998581323 0.671190537904636 H 0.0 **** 0.0
236 H42449 0.453077263795872 0.660080716013402 0.736792856274342 H 0.0 **** 0.0
237 H42451 0.462398399604823 0.611551436172215 0.574714491018414 H 0.0 **** 0.0
238 H42453 0.454532769909124 0.605943870943493 0.545952216579495 H 0.0 **** 0.0
239 H42455 0.43648290422126 0.609701616587976 0.522794482169905 H 0.0 **** 0.0
240 H42457 0.41911081499483 0.614457097713916 0.498434555952188 H 0.0 **** 0.0
241 H42459 0.397838511053765 0.630586840825132 0.484043603309592 H 0.0 **** 0.0
242 H42461 0.363901830673514 0.676178132995765 0.49703203197169 H 0.0 **** 0.0
243 H42463 0.378221002357723 0.653655100362829 0.483229970976432 H 0.0 **** 0.0
244 H42465 0.382413202227742 0.693135416705725 0.580344159777102 H 0.0 **** 0.0
245 H42467 0.359866125798285 0.700996734291868 0.571488704514312 H 0.0 **** 0.0
246 H42469 0.371784843806288 0.714263019921787 0.557934943312369 H 0.0 **** 0.0
247 H42471 0.341361426131019 0.721644333042112 0.556250786523762 H 0.0 **** 0.0
248 H42473 0.335989953464455 0.700375984210359 0.551942270188736 H 0.0 **** 0.0
249 H42475 0.356763704794176 0.724592748899771 0.52969659459058 H 0.0 **** 0.0
250 H42477 0.337559145874502 0.71486929118762 0.523877068912703 H 0.0 **** 0.0
@<TRIPOS>BOND
1 3 2 1
2 4 3 1
3 5 4 1
4 6 5 1
5 1 2 1
6 1 6 1
7 8 7 1
8 9 8 1
9 10 9 1
10 4 7 1
11 3 10 1
12 12 11 1
13 13 12 1
14 14 13 1
15 8 11 1
16 7 14 1
17 16 15 1
18 17 16 Partial double
19 18 17 1
20 13 15 1
21 12 18 1
22 20 19 Partial double
23 21 20 Partial double
24 22 21 Partial double
25 17 19 Partial double
26 16 22 Partial double
27 24 23 1
28 25 24 1
29 15 25 Double
30 22 23 1
31 27 26 1
32 28 27 Partial double
33 29 28 Partial double
34 21 26 1
35 20 29 Partial double
36 31 30 1
37 32 31 1
38 18 30 1
39 19 32 1
40 34 33 Double
41 35 34 1
42 36 35 1
43 31 33 1
44 30 36 Double
45 38 37 1
46 39 38 1
47 40 39 Double
48 34 37 1
49 33 40 1
50 42 41 1
51 43 42 1
52 44 43 1
53 40 41 1
54 39 44 1
55 46 45 Partial double
56 32 46 1
57 29 45 Partial double
58 48 47 Partial double
59 49 48 1
60 45 49 Partial double
61 28 47 Partial double
62 51 50 Partial double
63 52 51 Partial double
64 53 52 Partial double
65 48 50 Partial double
66 47 53 Partial double
67 55 54 Partial double
68 56 55 Partial double
69 57 56 Partial double
70 52 54 Partial double
71 51 57 Partial double
72 59 58 Partial double
73 60 59 Partial double
74 61 60 Partial double
75 56 58 Partial double
76 55 61 Partial double
77 63 62 Partial double
78 27 63 Partial double
79 53 62 Partial double
80 65 64 Partial double
81 62 65 Partial double
82 54 64 Partial double
83 67 66 Partial double
84 64 67 Partial double
85 61 66 Partial double
86 69 68 Partial double
87 70 69 Partial double
88 66 70 Partial double
89 60 68 Partial double
90 72 71 1
91 73 72 1
92 74 73 1
93 59 71 1
94 58 74 1
95 76 75 1
96 77 76 1
97 78 77 1
98 73 75 1
99 72 78 1
100 80 79 1
101 81 80 1
102 82 81 1
103 78 79 1
104 77 82 1
105 84 83 Partial double
106 85 84 Partial double
107 67 85 Partial double
108 65 83 Partial double
109 87 86 1
110 88 87 1
111 89 88 1
112 84 86 1
113 83 89 1
114 91 90 1
115 92 91 1
116 93 92 1
117 88 90 1
118 87 93 1
119 95 94 Partial double
120 85 95 Partial double
121 70 94 Partial double
122 97 96 Partial double
123 98 97 Partial double
124 94 98 Partial double
125 69 96 Partial double
126 100 99 Partial double
127 101 100 Partial double
128 68 101 Partial double
129 96 99 Partial double
130 103 102 1
131 104 103 Partial double
132 97 102 1
133 99 104 1
134 106 105 1
135 107 106 1
136 100 105 1
137 104 107 Partial double
138 109 108 1
139 110 109 1
140 111 110 1
141 106 108 1
142 105 111 1
143 113 112 1
144 114 113 1
145 103 114 Partial double
146 107 112 Partial double
147 108 115 1
148 112 116 Partial double
149 115 116 Partial double
150 42 117 1
151 117 118 1
152 117 119 1
153 74 120 1
154 122 121 1
155 123 122 Partial double
156 124 123 1
157 114 121 Partial double
158 113 124 Partial double
159 126 125 Partial double
160 127 126 1
161 128 127 Partial double
162 124 125 Partial double
163 123 128 Partial double
164 130 129 Partial double
165 131 130 1
166 132 131 1
167 127 129 Partial double
168 126 132 Partial double
169 134 133 Partial double
170 135 134 Partial double
171 125 135 Partial double
172 132 133 Partial double
173 137 136 Partial double
174 138 137 Partial double
175 131 138 Partial double
176 133 136 Partial double
177 140 139 Partial double
178 134 140 Partial double
179 116 135 Partial double
180 115 139 Partial double
181 142 141 Partial double
182 140 142 Partial double
183 136 141 Partial double
184 144 143 1
185 145 144 1
186 146 145 1
187 142 143 1
188 141 146 1
189 146 147 Double
190 1 148 1
191 1 149 1
192 2 150 1
193 2 151 1
194 3 152 1
195 4 153 1
196 5 154 1
197 5 155 1
198 7 156 1
199 8 157 1
200 9 158 1
201 9 159 1
202 10 160 1
203 10 161 1
204 12 162 1
205 13 163 1
206 14 164 1
207 14 165 1
208 18 166 1
209 23 167 1
210 23 168 1
211 24 169 1
212 24 170 1
213 25 171 1
214 35 173 1
215 35 174 1
216 36 175 1
217 37 176 1
218 37 177 1
219 38 178 1
220 38 179 1
221 41 180 1
222 41 181 1
223 42 182 1
224 43 183 1
225 43 184 1
226 44 185 1
227 44 186 1
228 46 187 1
229 50 188 1
230 57 189 1
231 63 190 1
232 72 191 1
233 73 192 1
234 74 193 1
235 75 194 1
236 75 195 1
237 76 196 1
238 76 197 1
239 77 198 1
240 78 199 1
241 79 200 1
242 79 201 1
243 80 202 1
244 80 203 1
245 81 204 1
246 81 205 1
247 82 206 1
248 87 207 1
249 88 208 1
250 90 209 1
251 90 210 1
252 91 211 1
253 91 212 1
254 92 213 1
255 92 214 1
256 93 215 1
257 93 216 1
258 95 217 1
259 98 218 1
260 101 219 1
261 105 220 1
262 106 221 1
263 108 222 1
264 109 223 1
265 109 224 1
266 110 225 1
267 110 226 1
268 111 227 1
269 111 228 1
270 117 229 1
271 118 230 1
272 118 231 1
273 118 232 1
274 119 233 1
275 119 234 1
276 119 235 1
277 120 236 1
278 121 237 1
279 122 238 1
280 128 239 1
281 129 240 1
282 130 241 1
283 137 242 1
284 138 243 1
285 139 244 1
286 143 245 1
287 143 246 1
288 144 247 1
289 144 248 1
290 145 249 1
291 145 250 1
292 31 172 1
@<TRIPOS>MOLECULE
Sketch 4
250 292
SMALL
USER_CHARGES


@<TRIPOS>ATOM
1 C42480 0.624026065556998 0.641751309627517 0.332152461679301 C 0.0 **** 0.0
2 C42481 0.641595535502452 0.633990631955381 0.327998007568597 C 0.0 **** 0.0
3 C42482 0.645159117511427 0.634860106355961 0.308771260924406 C 0.0 **** 0.0
4 C42483 0.628844499365524 0.630275751084999 0.298922709175147 C 0.0 **** 0.0
5 C42484 0.614301788908132 0.642410754940223 0.30433967002056 C 0.0 **** 0.0
6 O42485 0.618343785717497 0.65233826789694 0.318819392709283 O 0.0 **** 0.0
7 C42492 0.623994654177605 0.611369148873294 0.301055652808034 C 0.0 **** 0.0
8 C42493 0.639999213707566 0.599691237423785 0.301468490737296 C 0.0 **** 0.0
9 C42494 0.655367078962909 0.608267933801219 0.293513581451145 C 0.0 **** 0.0
10 C42495 0.660646139986716 0.624220509828383 0.303199419114247 C 0.0 **** 0.0
11 O42501 0.637996419814305 0.583971910500513 0.29296414845625 O 0.0 **** 0.0
12 C42502 0.622066029368187 0.576247659667882 0.296451702335653 C 0.0 **** 0.0
13 C42503 0.608160974015578 0.585828747755908 0.286736703121164 C 0.0 **** 0.0
14 C42504 0.61108293964786 0.605536177709859 0.287545079894247 C 0.0 **** 0.0
15 C42510 0.590405621776834 0.579920560735212 0.291304154965036 C 0.0 **** 0.0
16 C42511 0.588080451955263 0.567512072582473 0.305632997718783 C 0.0 **** 0.0
17 C42512 0.601177057862887 0.564637795858158 0.316916123794571 C 0.0 **** 0.0
18 C42513 0.617668677748109 0.574456210581539 0.315175704294217 C 0.0 **** 0.0
19 C42519 0.598601029761442 0.553902721557865 0.330580210690181 C 0.0 **** 0.0
20 C42520 0.582631957670011 0.54743736947124 0.333416239065855 C 0.0 **** 0.0
21 C42521 0.569690535989965 0.549710666756896 0.321762396407236 C 0.0 **** 0.0
22 C42522 0.572530903299342 0.559551181496821 0.307505769302154 C 0.0 **** 0.0
23 C42528 0.558727198445286 0.561934669990805 0.294465313752375 C 0.0 **** 0.0
24 C42529 0.559064369226186 0.580110337619888 0.287214585232438 C 0.0 **** 0.0
25 C42530 0.576809361243487 0.585681873897499 0.282834138136953 C 0.0 **** 0.0
26 O42535 0.553978124886697 0.542350928710067 0.32428816871835 O 0.0 **** 0.0
27 C42536 0.54929221717263 0.539206877028864 0.340801693964708 C 0.0 **** 0.0
28 C42537 0.560902750579757 0.536760359597077 0.353698147046442 C 0.0 **** 0.0
29 C42538 0.579305068640668 0.538682252023277 0.349779153585097 C 0.0 **** 0.0
30 C42544 0.630853265376526 0.56659256648664 0.326328182774421 C 0.0 **** 0.0
31 C42545 0.624366505701045 0.565551663152497 0.344271599344157 C 0.0 **** 0.0
32 C42546 0.61281730815576 0.54997282944109 0.342775447860451 C 0.0 **** 0.0
33 C42551 0.638772566630832 0.564361244843006 0.357349757575978 C 0.0 **** 0.0
34 C42552 0.652776343941103 0.555430968610141 0.352513416495038 C 0.0 **** 0.0
35 C42553 0.655675811831076 0.549269580334511 0.334525059406967 C 0.0 **** 0.0
36 C42554 0.645229089739563 0.558882708726281 0.321699103620224 C 0.0 **** 0.0
37 C42560 0.668144168752612 0.553558292468472 0.363454316022731 C 0.0 **** 0.0
38 C42561 0.664156066897941 0.556827610253983 0.382126943075687 C 0.0 **** 0.0
39 C42562 0.650596734440263 0.569980939741878 0.384424652527764 C 0.0 **** 0.0
40 C42563 0.638417506942098 0.572765781172546 0.37251366288969 C 0.0 **** 0.0
41 C42569 0.62491664753451 0.586073342320826 0.377032191796831 C 0.0 **** 0.0
42 C42570 0.632284601842406 0.599827485532867 0.388461517661405 C 0.0 **** 0.0
43 C42571 0.637736990885855 0.59125735324633 0.405048078943186 C 0.0 **** 0.0
44 C42572 0.651734120672706 0.578372091153682 0.401555227467005 C 0.0 **** 0.0
45 C42578 0.591693443358804 0.535076582208331 0.361098585635183 C 0.0 **** 0.0
46 C42579 0.607912435351542 0.540428655867873 0.358748371320947 C 0.0 **** 0.0
47 C42583 0.555156025408614 0.533856440449794 0.370342543262412 C 0.0 **** 0.0
48 C42584 0.566067473747021 0.528441716412528 0.383448401381058 C 0.0 **** 0.0
49 S42585 0.586891740972407 0.523187932429122 0.37901772311822 S 0.0 **** 0.0
50 C42590 0.560156333586736 0.52478748431463 0.399306713509238 C 0.0 **** 0.0
51 C42591 0.54273665347891 0.526266427643721 0.402827056875914 C 0.0 **** 0.0
52 C42592 0.531824972781107 0.533385068695623 0.390529676050603 C 0.0 **** 0.0
53 C42593 0.53787388038384 0.536079645743786 0.374140350355821 C 0.0 **** 0.0
54 C42599 0.514574461432753 0.534590759403738 0.394064733988047 C 0.0 **** 0.0
55 C42600 0.507878339612863 0.527615924846044 0.408958992074842 C 0.0 **** 0.0
56 C42601 0.517949748515292 0.516508631788 0.418665922668563 C 0.0 **** 0.0
57 C42602 0.535552459432073 0.517644579710083 0.416669495377432 C 0.0 **** 0.0
58 C42608 0.509962073652291 0.50479219109893 0.429351379382278 C 0.0 **** 0.0
59 C42609 0.493842397563306 0.508521274264197 0.435170349371708 C 0.0 **** 0.0
60 C42610 0.483972886633711 0.521231621719803 0.42712643793333 C 0.0 **** 0.0
61 C42611 0.490804942153515 0.529265819670268 0.412834182817592 C 0.0 **** 0.0
62 C42617 0.526295630436476 0.539653365165152 0.361126952580604 C 0.0 **** 0.0
63 C42618 0.532296580151768 0.538937749682529 0.344426217169318 C 0.0 **** 0.0
64 C42622 0.503588652433253 0.540862582328738 0.381807995959958 C 0.0 **** 0.0
65 C42623 0.50951003064854 0.544434730180839 0.365487692056015 C 0.0 **** 0.0
66 C42627 0.480152209288294 0.537191302750667 0.401166056824746 C 0.0 **** 0.0
67 C42628 0.486640714808101 0.542846417620963 0.385702591983723 C 0.0 **** 0.0
68 C42632 0.46657691195941 0.523862654883723 0.43111277665252 C 0.0 **** 0.0
69 C42633 0.455964005411743 0.531202945679064 0.418831481667477 C 0.0 **** 0.0
70 C42634 0.462790315437318 0.537885114595667 0.404162932450351 C 0.0 **** 0.0
71 O42639 0.487337939433159 0.49866442208233 0.4482310912741 O 0.0 **** 0.0
72 C42640 0.499435769376107 0.496058430510965 0.461599417030928 C 0.0 **** 0.0
73 C42641 0.516066206302569 0.487732887503535 0.455151762746744 C 0.0 **** 0.0
74 C42642 0.517260853585053 0.488217806918404 0.435929125180904 C 0.0 **** 0.0
75 C42648 0.518262016909903 0.469575099754918 0.461849326358141 C 0.0 **** 0.0
76 C42649 0.518744029504289 0.469581095301824 0.48120712054356 C 0.0 **** 0.0
77 C42650 0.503098366604299 0.478141573080174 0.489121192250887 C 0.0 **** 0.0
78 C42651 0.490812558197499 0.486040018684675 0.476027899041967 C 0.0 **** 0.0
79 C42657 0.476856916521537 0.496728835963851 0.484812958291478 C 0.0 **** 0.0
80 C42658 0.476868663011209 0.493942062182658 0.504005607588252 C 0.0 **** 0.0
81 C42659 0.494249815523004 0.497736455840004 0.511789396998724 C 0.0 **** 0.0
82 N42660 0.508289819596447 0.489991637977404 0.502122393135119 N 0.0 **** 0.0
83 C42666 0.498990512861071 0.552990400010034 0.35379978758449 C 0.0 **** 0.0
84 C42667 0.482045153276631 0.555222657565861 0.357565120554262 C 0.0 **** 0.0
85 C42668 0.475854531926507 0.549858653141441 0.37344093020538 C 0.0 **** 0.0
86 O42673 0.470776699472855 0.56253644099722 0.346276159901053 O 0.0 **** 0.0
87 C42674 0.476737073191795 0.561420017095612 0.329270721227909 C 0.0 **** 0.0
88 C42675 0.494370154564562 0.568351678839991 0.328344245849123 C 0.0 **** 0.0
89 O42676 0.505657494615116 0.558763504771766 0.338628432870248 O 0.0 **** 0.0
90 C42682 0.495252592434591 0.587317170657042 0.333086913365745 C 0.0 **** 0.0
91 C42683 0.478741357371202 0.596957870081757 0.329271497837037 C 0.0 **** 0.0
92 C42684 0.469580318236279 0.589356982885532 0.313983681345773 C 0.0 **** 0.0
93 C42685 0.464370366509018 0.570812321935354 0.317469525012616 C 0.0 **** 0.0
94 C42691 0.451748289440699 0.544707373268913 0.391800163976532 C 0.0 **** 0.0
95 C42692 0.458518423855652 0.551105777398721 0.376703235540296 C 0.0 **** 0.0
96 C42696 0.438366291438158 0.531005317978319 0.421207909520535 C 0.0 **** 0.0
97 C42697 0.427342697268805 0.537732542263594 0.408835306045717 C 0.0 **** 0.0
98 C42698 0.434094327912693 0.544512074976248 0.39442333029603 C 0.0 **** 0.0
99 C42703 0.431212955019185 0.523938204996441 0.435844285878939 C 0.0 **** 0.0
100 C42704 0.441492256750595 0.518007377534968 0.448663417116696 C 0.0 **** 0.0
101 C42705 0.458761290476734 0.518553561724371 0.446238528972091 C 0.0 **** 0.0
102 O42710 0.410031266544508 0.538191893719719 0.410901267922326 O 0.0 **** 0.0
103 C42711 0.402823532355426 0.529081089745486 0.423880733740922 C 0.0 **** 0.0
104 C42712 0.412369698099912 0.522590116637418 0.436746041124236 C 0.0 **** 0.0
105 C42717 0.434621215424911 0.510391789867906 0.464931821965933 C 0.0 **** 0.0
106 C42718 0.414958519814607 0.506079792819017 0.464156953050277 C 0.0 **** 0.0
107 C42719 0.40489638568242 0.514178775960391 0.449829273283921 C 0.0 **** 0.0
108 C42724 0.405916302805153 0.50964619170705 0.48113528918271 C 0.0 **** 0.0
109 C42725 0.416499430795645 0.503542289304967 0.496184485274111 C 0.0 **** 0.0
110 C42726 0.433959405657585 0.512393130957888 0.496848504197338 C 0.0 **** 0.0
111 C42727 0.438663273960793 0.521529869870478 0.480274840361608 C 0.0 **** 0.0
112 C42733 0.387724780790425 0.512483060837867 0.450111065717093 C 0.0 **** 0.0
113 C42734 0.37822889727371 0.518013805236839 0.436707737900213 C 0.0 **** 0.0
114 C42735 0.385725559159833 0.526514376279405 0.423729437914119 C 0.0 **** 0.0
115 C42740 0.388272568699842 0.501835641189585 0.480171497730887 C 0.0 **** 0.0
116 C42742 0.379605423546427 0.503885102508865 0.465055360640631 C 0.0 **** 0.0
117 C42745 0.620630209901559 0.615406962007229 0.390555172665834 C 0.0 **** 0.0
118 C42747 0.603863744651977 0.611936991925659 0.399606392701406 C 0.0 **** 0.0
119 C42749 0.629886361235103 0.630077520566805 0.399215681489883 C 0.0 **** 0.0
120 O42751 0.533908027103778 0.484653268207692 0.430130625429809 O 0.0 **** 0.0
121 C42753 0.376081651215367 0.532339886131446 0.410599584314556 C 0.0 **** 0.0
122 C42754 0.359149607044261 0.529200279031274 0.410129587371299 C 0.0 **** 0.0
123 C42755 0.351596293166763 0.520283141909127 0.422825580838548 C 0.0 **** 0.0
124 C42756 0.361228781063984 0.51490285299949 0.436162179505652 C 0.0 **** 0.0
125 C42762 0.353104665072664 0.505157108714708 0.449942765343312 C 0.0 **** 0.0
126 C42763 0.336156366440556 0.502017165962664 0.449022025710331 C 0.0 **** 0.0
127 C42764 0.326419392201819 0.508047513062455 0.43424844549721 C 0.0 **** 0.0
128 C42765 0.334493447535516 0.51696781987961 0.421760708862234 C 0.0 **** 0.0
129 C42771 0.309500190019159 0.504505016057992 0.433315990518309 C 0.0 **** 0.0
130 C42772 0.301451115326989 0.495519467443778 0.445807668056205 C 0.0 **** 0.0
131 C42773 0.309918176290429 0.489810200485428 0.459804049604201 C 0.0 **** 0.0
132 C42774 0.328221846532763 0.493224446469927 0.461626151949132 C 0.0 **** 0.0
133 C42780 0.337162601430765 0.487531113187259 0.475876355027394 C 0.0 **** 0.0
134 C42781 0.354401642398282 0.491114573876302 0.477075822960167 C 0.0 **** 0.0
135 C42782 0.362537820224565 0.499594414919292 0.463851268527846 C 0.0 **** 0.0
136 C42787 0.328948433338753 0.478978326062944 0.488993360634647 C 0.0 **** 0.0
137 C42788 0.310370938523241 0.475142873800842 0.485833496432212 C 0.0 **** 0.0
138 C42789 0.301752724508542 0.48064755612938 0.471908625076379 C 0.0 **** 0.0
139 C42794 0.380075039593552 0.493762288793456 0.493306086633679 C 0.0 **** 0.0
140 C42795 0.363290297135103 0.487362047961522 0.491961950931686 C 0.0 **** 0.0
141 C42800 0.337873833323975 0.474623238240192 0.503573783188665 C 0.0 **** 0.0
142 C42801 0.35504782509963 0.478404100392086 0.505037960029494 C 0.0 **** 0.0
143 C42805 0.364742931182286 0.473703119866312 0.521053972430964 C 0.0 **** 0.0
144 C42806 0.358932551372659 0.456515933852885 0.527807793292241 C 0.0 **** 0.0
145 C42807 0.340129208735124 0.457220373952986 0.531105479953551 C 0.0 **** 0.0
146 C42808 0.329265005450257 0.465939255058026 0.518131506002017 C 0.0 **** 0.0
147 O42814 0.314146134764398 0.465969078061681 0.520725575164421 O 0.0 **** 0.0
148 H42816 0.624603739905882 0.649737002569235 0.343512527691141 H 0.0 **** 0.0
149 H42818 0.614672511005018 0.631744817258267 0.334834198276855 H 0.0 **** 0.0
150 H42820 0.651800637297114 0.640634041302258 0.33479508894722 H 0.0 **** 0.0
151 H42822 0.642173444976083 0.620785233230643 0.332407777297953 H 0.0 **** 0.0
152 H42824 0.647885518548053 0.648283791486665 0.305991743379778 H 0.0 **** 0.0
153 H42826 0.631599405985549 0.632043816771926 0.285411303671721 H 0.0 **** 0.0
154 H42828 0.602401230219407 0.635448116906136 0.306489065717672 H 0.0 **** 0.0
155 H42830 0.611713183783239 0.651635564007531 0.294309282835703 H 0.0 **** 0.0
156 H42832 0.617568344215209 0.610476269028706 0.313388261345602 H 0.0 **** 0.0
157 H42834 0.643235355200516 0.59717883055422 0.314826592839867 H 0.0 **** 0.0
158 H42836 0.652292968168397 0.611398331638452 0.28027258042914 H 0.0 **** 0.0
159 H42838 0.665833797160036 0.599078192776706 0.292974541454817 H 0.0 **** 0.0
160 H42840 0.669193889628696 0.631790302976181 0.295249924405429 H 0.0 **** 0.0
161 H42842 0.668136702160467 0.620568737951612 0.314370536693244 H 0.0 **** 0.0
162 H42844 0.623206400003288 0.563502272332844 0.29115525727986 H 0.0 **** 0.0
163 H42846 0.609706522618009 0.582494688591499 0.273315142393611 H 0.0 **** 0.0
164 H42848 0.599179943983989 0.612634095847718 0.288867025953762 H 0.0 **** 0.0
165 H42850 0.616229968714847 0.609197081996812 0.275091093169884 H 0.0 **** 0.0
166 H42852 0.615310308145749 0.587080163945682 0.320609474899034 H 0.0 **** 0.0
167 H42854 0.560403698396532 0.552800302685625 0.284063134159853 H 0.0 **** 0.0
168 H42856 0.54619748554645 0.559359262887215 0.299926174157717 H 0.0 **** 0.0
169 H42858 0.553684411857049 0.588933528559723 0.296546463525217 H 0.0 **** 0.0
170 H42860 0.550930673286345 0.580783098918935 0.275893903322247 H 0.0 **** 0.0
171 H42862 0.577936369496187 0.595023721253729 0.272797224897301 H 0.0 **** 0.0
172 H42864 0.616461723301007 0.576696189064148 0.346824407287534 H 0.0 **** 0.0
173 H42865 0.652750073781779 0.535719837649077 0.333569091616053 H 0.0 **** 0.0
174 H42867 0.669193997369368 0.550829749027665 0.331304299527169 H 0.0 **** 0.0
175 H42869 0.649195361608459 0.55854084633657 0.308508061118548 H 0.0 **** 0.0
176 H42871 0.673654363345436 0.540818124211844 0.361964065926687 H 0.0 **** 0.0
177 H42873 0.677788088400939 0.562621176357981 0.359053158276589 H 0.0 **** 0.0
178 H42875 0.67581546748686 0.560484151288293 0.38886756202344 H 0.0 **** 0.0
179 H42877 0.659484177580428 0.545096222802146 0.387962584656078 H 0.0 **** 0.0
180 H42879 0.619846215380772 0.592157429944887 0.365619018411988 H 0.0 **** 0.0
181 H42881 0.614222782729983 0.579816679529129 0.383327216494701 H 0.0 **** 0.0
182 H42883 0.643855282496711 0.604689317560149 0.382246827734052 H 0.0 **** 0.0
183 H42885 0.62670143545495 0.584904022599279 0.410678102144855 H 0.0 **** 0.0
184 H42887 0.642277066503033 0.600409338598713 0.414515511459334 H 0.0 **** 0.0
185 H42889 0.651978672703631 0.568573804025956 0.411484636126706 H 0.0 **** 0.0
186 H42891 0.664058840594609 0.584925672913 0.402165055952817 H 0.0 **** 0.0
187 H42893 0.617807727371746 0.537596870317508 0.367890309267649 H 0.0 **** 0.0
188 H42895 0.568398199551522 0.518856611063611 0.408748578189311 H 0.0 **** 0.0
189 H42897 0.544092076856713 0.510631827660076 0.425038630226877 H 0.0 **** 0.0
190 H42899 0.523896456866763 0.540017446295771 0.333466003822803 H 0.0 **** 0.0
191 H42901 0.502763860259424 0.508613430826069 0.466628807051596 H 0.0 **** 0.0
192 H42903 0.526896957673999 0.495090452035759 0.459916304739041 H 0.0 **** 0.0
193 H42905 0.508853781486504 0.47818929068902 0.430871303248432 H 0.0 **** 0.0
194 H42907 0.507810128438088 0.46159564825966 0.457212051856926 H 0.0 **** 0.0
195 H42909 0.530065807183317 0.463993561970593 0.456950889459375 H 0.0 **** 0.0
196 H42911 0.52041303366241 0.456700133187551 0.486199546107482 H 0.0 **** 0.0
197 H42913 0.530207125444744 0.476439212915728 0.485001225319187 H 0.0 **** 0.0
198 H42915 0.495903194571261 0.468153902841761 0.49566141626474 H 0.0 **** 0.0
199 H42917 0.484643535165601 0.475225856174382 0.469736286694338 H 0.0 **** 0.0
200 H42919 0.479056218568939 0.510289625864208 0.482479427578828 H 0.0 **** 0.0
201 H42921 0.464425306758579 0.493697835914215 0.47942028898192 H 0.0 **** 0.0
202 H42923 0.473299294311899 0.48074655208909 0.506612987525201 H 0.0 **** 0.0
203 H42925 0.467438411566485 0.501892026370684 0.510427890142989 H 0.0 **** 0.0
204 H42927 0.494750950867402 0.493248694623221 0.524963604797438 H 0.0 **** 0.0
205 H42929 0.496041692594068 0.511550772918248 0.512238024265217 H 0.0 **** 0.0
206 H42931 0.515830186344443 0.498864058251684 0.497117661924956 H 0.0 **** 0.0
207 H42933 0.477114547479164 0.547899164631708 0.32585240843936 H 0.0 **** 0.0
208 H42935 0.498687371499816 0.566906834101806 0.315161823044264 H 0.0 **** 0.0
209 H42937 0.498221708384971 0.588288585209395 0.346651156104282 H 0.0 **** 0.0
210 H42939 0.505927871526869 0.593299684423193 0.326418922327612 H 0.0 **** 0.0
211 H42941 0.481381392019872 0.610498288213332 0.327394131796066 H 0.0 **** 0.0
212 H42943 0.470279923689613 0.596022075096788 0.340316043541105 H 0.0 **** 0.0
213 H42945 0.478101635945724 0.589856390013518 0.302952375324702 H 0.0 **** 0.0
214 H42947 0.458357457644762 0.596881019137312 0.310567422614123 H 0.0 **** 0.0
215 H42949 0.462688708565592 0.564129897720596 0.305366076176579 H 0.0 **** 0.0
216 H42951 0.451922441957341 0.570640036752923 0.323714426864468 H 0.0 **** 0.0
217 H42953 0.449955050644762 0.556340478307666 0.367097240091121 H 0.0 **** 0.0
218 H42955 0.425694986837785 0.549791967287104 0.384679330803175 H 0.0 **** 0.0
219 H42957 0.466424648276795 0.513742033319322 0.456689695700003 H 0.0 **** 0.0
220 H42959 0.44099657498602 0.49813602310858 0.46688426724081 H 0.0 **** 0.0
221 H42961 0.414318951421777 0.492292503704524 0.462059318679531 H 0.0 **** 0.0
222 H42963 0.404296377636783 0.523471372174331 0.482475563869119 H 0.0 **** 0.0
223 H42965 0.418381937378499 0.489809560117443 0.494852685638658 H 0.0 **** 0.0
224 H42967 0.409874444583983 0.505616503024249 0.50824595774459 H 0.0 **** 0.0
225 H42969 0.443571714730789 0.502734809031359 0.499550096339916 H 0.0 **** 0.0
226 H42971 0.434469066130433 0.52136314780547 0.507484615990244 H 0.0 **** 0.0
227 H42973 0.452122823287429 0.525113688651522 0.480625826701078 H 0.0 **** 0.0
228 H42975 0.431511590561123 0.533437894690077 0.479185597906631 H 0.0 **** 0.0
229 H42977 0.617447819537115 0.619797561340454 0.377654310206233 H 0.0 **** 0.0
230 H42979 0.596364366296224 0.623630890244921 0.400605514064983 H 0.0 **** 0.0
231 H42981 0.60589210971143 0.607103876000775 0.412483600101379 H 0.0 **** 0.0
232 H42983 0.596094213191078 0.602687091466624 0.392735395451969 H 0.0 **** 0.0
233 H42985 0.641639305964227 0.633310343731196 0.392497971363575 H 0.0 **** 0.0
234 H42987 0.6332316509395 0.626964376864011 0.412345398144113 H 0.0 **** 0.0
235 H42989 0.621944091067202 0.641511511023201 0.399493690561303 H 0.0 **** 0.0
236 H42991 0.536319765086511 0.473511884314391 0.433894105880952 H 0.0 **** 0.0
237 H42993 0.381716804200979 0.539393681516709 0.400163679810612 H 0.0 **** 0.0
238 H42995 0.351889606955763 0.53384930883254 0.399367076079975 H 0.0 **** 0.0
239 H42997 0.327304247930345 0.521412287900135 0.410845212050537 H 0.0 **** 0.0
240 H42999 0.302026379416526 0.508667390227426 0.422499793730441 H 0.0 **** 0.0
241 H43001 0.287980049008255 0.492889131291027 0.444270073467188 H 0.0 **** 0.0
242 H43003 0.303458543305877 0.467465298850389 0.494850395738078 H 0.0 **** 0.0
243 H43005 0.288380206644584 0.477432539037843 0.470686683067942 H 0.0 **** 0.0
244 H43007 0.387073997690412 0.492244047713283 0.505147840479299 H 0.0 **** 0.0
245 H43009 0.378411454819028 0.472938998279678 0.518724360086999 H 0.0 **** 0.0
246 H43011 0.362869469621887 0.483532583458767 0.530803563020229 H 0.0 **** 0.0
247 H43013 0.365669572898729 0.453158785945295 0.539525985981466 H 0.0 **** 0.0
248 H43015 0.361994817273327 0.446669700928652 0.518438151630343 H 0.0 **** 0.0
249 H43017 0.337087830899419 0.46440532652392 0.542644776360055 H 0.0 **** 0.0
250 H43019 0.333862126062984 0.444885328124449 0.532520289789069 H 0.0 **** 0.0
@<TRIPOS>BOND
1 3 2 1
2 4 3 1
3 5 4 1
4 6 5 1
5 1 2 1
6 1 6 1
7 8 7 1
8 9 8 1
9 10 9 1
10 4 7 1
11 3 10 1
12 12 11 1
13 13 12 1
14 14 13 1
15 8 11 1
16 7 14 1
17 16 15 1
18 17 16 Partial double
19 18 17 1
20 13 15 1
21 12 18 1
22 20 19 Partial double
23 21 20 Partial double
24 22 21 Partial double
25 17 19 Partial double
26 16 22 Partial double
27 24 23 1
28 25 24 1
29 15 25 Double
30 22 23 1
31 27 26 1
32 28 27 Partial double
33 29 28 Partial double
34 21 26 1
35 20 29 Partial double
36 31 30 1
37 32 31 1
38 18 30 1
39 19 32 1
40 34 33 Double
41 35 34 1
42 36 35 1
43 31 33 1
44 30 36 Double
45 38 37 1
46 39 38 1
47 40 39 Double
48 34 37 1
49 33 40 1
50 42 41 1
51 43 42 1
52 44 43 1
53 40 41 1
54 39 44 1
55 46 45 Partial double
56 32 46 1
57 29 45 Partial double
58 48 47 Partial double
59 49 48 1
60 45 49 Partial double
61 28 47 Partial double
62 51 50 Partial double
63 52 51 Partial double
64 53 52 Partial double
65 48 50 Partial double
66 47 53 Partial double
67 55 54 Partial double
68 56 55 Partial double
69 57 56 Partial double
70 52 54 Partial double
71 51 57 Partial double
72 59 58 Partial double
73 60 59 Partial double
74 61 60 Partial double
75 56 58 Partial double
76 55 61 Partial double
77 63 62 Partial double
78 27 63 Partial double
79 53 62 Partial double
80 65 64 Partial double
81 62 65 Partial double
82 54 64 Partial double
83 67 66 Partial double
84 64 67 Partial double
85 61 66 Partial double
86 69 68 Partial double
87 70 69 Partial double
88 66 70 Partial double
89 60 68 Partial double
90 72 71 1
91 73 72 1
92 74 73 1
93 59 71 1
94 58 74 1
95 76 75 1
96 77 76 1
97 78 77 1
98 73 75 1
99 72 78 1
100 80 79 1
101 81 80 1
102 82 81 1
103 78 79 1
104 77 82 1
105 84 83 Partial double
106 85 84 Partial double
107 67 85 Partial double
108 65 83 Partial double
109 87 86 1
110 88 87 1
111 89 88 1
112 84 86 1
113 83 89 1
114 91 90 1
115 92 91 1
116 93 92 1
117 88 90 1
118 87 93 1
119 95 94 Partial double
120 85 95 Partial double
121 70 94 Partial double
122 97 96 Partial double
123 98 97 Partial double
124 94 98 Partial double
125 69 96 Partial double
126 100 99 Partial double
127 101 100 Partial double
128 68 101 Partial double
129 96 99 Partial double
130 103 102 1
131 104 103 Partial double
132 97 102 1
133 99 104 1
134 106 105 1
135 107 106 1
136 100 105 1
137 104 107 Partial double
138 109 108 1
139 110 109 1
140 111 110 1
141 106 108 1
142 105 111 1
143 113 112 1
144 114 113 1
145 103 114 Partial double
146 107 112 Partial double
147 108 115 1
148 112 116 Partial double
149 115 116 Partial double
150 42 117 1
151 117 118 1
152 117 119 1
153 74 120 1
154 122 121 1
155 123 122 Partial double
156 124 123 1
157 114 121 Partial double
158 113 124 Partial double
159 126 125 Partial double
160 127 126 1
161 128 127 Partial double
162 124 125 Partial double
163 123 128 Partial double
164 130 129 Partial double
165 131 130 1
166 132 131 1
167 127 129 Partial double
168 126 132 Partial double
169 134 133 Partial double
170 135 134 Partial double
171 125 135 Partial double
172 132 133 Partial double
173 137 136 Partial double
174 138 137 Partial double
175 131 138 Partial double
176 133 136 Partial double
177 140 139 Partial double
178 134 140 Partial double
179 116 135 Partial double
180 115 139 Partial double
181 142 141 Partial double
182 140 142 Partial double
183 136 141 Partial double
184 144 143 1
185 145 144 1
186 146 145 1
187 142 143 1
188 141 146 1
189 146 147 Double
190 1 148 1
191 1 149 1
192 2 150 1
193 2 151 1
194 3 152 1
195 4 153 1
196 5 154 1
197 5 155 1
198 7 156 1
199 8 157 1
200 9 158 1
201 9 159 1
202 10 160 1
203 10 161 1
204 12 162 1
205 13 163 1
206 14 164 1
207 14 165 1
208 18 166 1
209 23 167 1
210 23 168 1
211 24 169 1
212 24 170 1
213 25 171 1
214 35 173 1
215 35 174 1
216 36 175 1
217 37 176 1
218 37 177 1
219 38 178 1
220 38 179 1
221 41 180 1
222 41 181 1
223 42 182 1
224 43 183 1
225 43 184 1
226 44 185 1
227 44 186 1
228 46 187 1
229 50 188 1
230 57 189 1
231 63 190 1
232 72 191 1
233 73 192 1
234 74 193 1
235 75 194 1
236 75 195 1
237 76 196 1
238 76 197 1
239 77 198 1
240 78 199 1
241 79 200 1
242 79 201 1
243 80 202 1
244 80 203 1
245 81 204 1
246 81 205 1
247 82 206 1
248 87 207 1
249 88 208 1
250 90 209 1
251 90 210 1
252 91 211 1
253 91 212 1
254 92 213 1
255 92 214 1
256 93 215 1
257 93 216 1
258 95 217 1
259 98 218 1
260 101 219 1
261 105 220 1
262 106 221 1
263 108 222 1
264 109 223 1
265 109 224 1
266 110 225 1
267 110 226 1
268 111 227 1
269 111 228 1
270 117 229 1
271 118 230 1
272 118 231 1
273 118 232 1
274 119 233 1
275 119 234 1
276 119 235 1
277 120 236 1
278 121 237 1
279 122 238 1
280 128 239 1
281 129 240 1
282 130 241 1
283 137 242 1
284 138 243 1
285 139 244 1
286 143 245 1
287 143 246 1
288 144 247 1
289 144 248 1
290 145 249 1
291 145 250 1
292 31 172 1
@<TRIPOS>MOLECULE
Sketch 4
250 292
SMALL
USER_CHARGES


@<TRIPOS>ATOM
1 C43022 0.507292762159688 0.125120900753372 0.208677729042971 C 0.0 **** 0.0
2 C43023 0.515987788165814 0.139485398183295 0.218852876922736 C 0.0 **** 0.0
3 C43024 0.524509280750786 0.132601444549425 0.235065157716217 C 0.0 **** 0.0
4 C43025 0.512492972972115 0.120072684468876 0.244207875574892 C 0.0 **** 0.0
5 C43026 0.505902969753546 0.106618820390218 0.231325025020334 C 0.0 **** 0.0
6 O43027 0.512290570609461 0.108984074501067 0.214681901085651 O 0.0 **** 0.0
7 C43034 0.49794931944568 0.129609662033111 0.253262792228584 C 0.0 **** 0.0
8 C43035 0.504325987435934 0.144721333002206 0.264373938138141 C 0.0 **** 0.0
9 C43036 0.523612087422417 0.146058785494628 0.264500358525572 C 0.0 **** 0.0
10 C43037 0.531041413885744 0.146995945235061 0.24666530834579 C 0.0 **** 0.0
11 O43043 0.499327443214306 0.143317957592244 0.281672303389123 O 0.0 **** 0.0
12 C43044 0.481411555196572 0.142746369948185 0.28415343925594 C 0.0 **** 0.0
13 C43045 0.472950503580915 0.128374882564869 0.273187720642841 C 0.0 **** 0.0
14 C43046 0.486812540194052 0.118000829236951 0.264239923377692 C 0.0 **** 0.0
15 C43052 0.459191744141095 0.134526568864066 0.261250732875981 C 0.0 **** 0.0
16 C43053 0.447653426910086 0.147479826810355 0.268800346932031 C 0.0 **** 0.0
17 C43054 0.454012143163772 0.158791444952135 0.280532800898181 C 0.0 **** 0.0
18 C43055 0.473165611353941 0.160291105425849 0.282465394318078 C 0.0 **** 0.0
19 C43061 0.442933092839028 0.169617812581371 0.288696317255804 C 0.0 **** 0.0
20 C43062 0.4260183642455 0.169514595271854 0.284247278010543 C 0.0 **** 0.0
21 C43063 0.42008635824371 0.159403152476148 0.271139705843894 C 0.0 **** 0.0
22 C43064 0.431060496795742 0.148227466504723 0.263269266366608 C 0.0 **** 0.0
23 C43070 0.425220495620427 0.13688074227846 0.249029570238658 C 0.0 **** 0.0
24 C43071 0.439975757606936 0.133922512169507 0.236459300866459 C 0.0 **** 0.0
25 C43072 0.455666926833176 0.128123479108518 0.245830422939887 C 0.0 **** 0.0
26 O43077 0.403441790388091 0.160279310403947 0.265775635705412 O 0.0 **** 0.0
27 C43078 0.391762228230954 0.166752543321606 0.276962515768308 C 0.0 **** 0.0
28 C43079 0.396033560866415 0.177256234397952 0.290327541715288 C 0.0 **** 0.0
29 C43080 0.414286223211565 0.180999193466875 0.293436077455718 C 0.0 **** 0.0
30 C43086 0.477568860406101 0.173215833316365 0.295972729448199 C 0.0 **** 0.0
31 C43087 0.466319773864524 0.188794617907946 0.294797007614448 C 0.0 **** 0.0
32 C43088 0.449477282660488 0.181871364560255 0.301735482881803 C 0.0 **** 0.0
33 C43093 0.473409938761548 0.204775566617132 0.303572841393743 C 0.0 **** 0.0
34 C43094 0.485118618273577 0.202378108807359 0.316038507839264 C 0.0 **** 0.0
35 C43095 0.491650709513161 0.185173706556285 0.321519483065189 C 0.0 **** 0.0
36 C43096 0.488892299407054 0.171453385297965 0.308474596677337 C 0.0 **** 0.0
37 C43102 0.492386959618964 0.216696467930418 0.326247573722915 C 0.0 **** 0.0
38 C43103 0.491574166896798 0.233642270866693 0.316810960595334 C 0.0 **** 0.0
39 C43104 0.47698239522978 0.234662834030221 0.304656258474238 C 0.0 **** 0.0
40 C43105 0.468726896673351 0.220730352161394 0.298591793014429 C 0.0 **** 0.0
41 C43111 0.454651354373449 0.223924225349047 0.285445289968668 C 0.0 **** 0.0
42 C43112 0.457653191161332 0.239731524580235 0.274829852546496 C 0.0 **** 0.0
43 C43113 0.459232449654882 0.254851514081309 0.286956908191641 C 0.0 **** 0.0
44 C43114 0.474656281854456 0.252558733682057 0.298298882424695 C 0.0 **** 0.0
45 C43120 0.41979016194883 0.192902402877257 0.304501607486789 C 0.0 **** 0.0
46 C43121 0.436491211755956 0.194392917852004 0.30853251843861 C 0.0 **** 0.0
47 C43125 0.383288948724539 0.183197378993865 0.301337541109828 C 0.0 **** 0.0
48 C43126 0.386635282822054 0.195098931585137 0.314223912304923 C 0.0 **** 0.0
49 S43127 0.405247754256086 0.206779431125102 0.313614954431645 S 0.0 **** 0.0
50 C43132 0.375286774020083 0.198229929617519 0.326936369487827 C 0.0 **** 0.0
51 C43133 0.359452536625738 0.189892688895162 0.326900988268445 C 0.0 **** 0.0
52 C43134 0.355312678401397 0.178982369138387 0.313297478060135 C 0.0 **** 0.0
53 C43135 0.367013804563155 0.176030458696638 0.300441617767476 C 0.0 **** 0.0
54 C43141 0.339634181443613 0.170978010898864 0.313246929716937 C 0.0 **** 0.0
55 C43142 0.328115776383156 0.173478540907026 0.32651201655289 C 0.0 **** 0.0
56 C43143 0.332724346403793 0.182729875691845 0.341113271825311 C 0.0 **** 0.0
57 C43144 0.347872917681095 0.191981482121407 0.340239218098688 C 0.0 **** 0.0
58 C43150 0.32237131124624 0.181842409410883 0.355588763944553 C 0.0 **** 0.0
59 C43151 0.306023544411346 0.175667185966169 0.353961654450282 C 0.0 **** 0.0
60 C43152 0.300216928903972 0.168887672891666 0.338524058861032 C 0.0 **** 0.0
61 C43153 0.312182277721841 0.166098251464692 0.325816750232452 C 0.0 **** 0.0
62 C43159 0.363018625347761 0.164764807503326 0.287238104784068 C 0.0 **** 0.0
63 C43160 0.375147680976542 0.162224820020705 0.274618832289797 C 0.0 **** 0.0
64 C43164 0.335976581083775 0.159279991113801 0.300539428186312 C 0.0 **** 0.0
65 C43165 0.348146736172772 0.154796994629048 0.288518810231003 C 0.0 **** 0.0
66 C43169 0.308107312930144 0.155730626292117 0.31220958481718 C 0.0 **** 0.0
67 C43170 0.320423801490097 0.1512362719227 0.300496560619272 C 0.0 **** 0.0
68 C43174 0.282748312288369 0.165237920306175 0.335056781707811 C 0.0 **** 0.0
69 C43175 0.278715406891216 0.157745528821297 0.319438728446705 C 0.0 **** 0.0
70 C43176 0.29130678256321 0.151097756800991 0.309350617841134 C 0.0 **** 0.0
71 O43181 0.295447453869821 0.175787927201739 0.368004047057248 O 0.0 **** 0.0
72 C43182 0.295328394909659 0.190763304448244 0.37824271296975 C 0.0 **** 0.0
73 C43183 0.312671091564944 0.200149057859353 0.378482251144304 C 0.0 **** 0.0
74 C43184 0.326527854719983 0.187605965370233 0.373488712148656 C 0.0 **** 0.0
75 C43190 0.316090769342444 0.209096845191963 0.395550753052154 C 0.0 **** 0.0
76 C43191 0.29959748936826 0.21595027827376 0.402971436516385 C 0.0 **** 0.0
77 C43192 0.288133953326295 0.201198525558652 0.408456382155229 C 0.0 **** 0.0
78 C43193 0.289631474596734 0.185705321852592 0.396280649883139 C 0.0 **** 0.0
79 C43199 0.273598025683145 0.174459128955645 0.396598685535171 C 0.0 **** 0.0
80 C43200 0.265802720853234 0.175432046508214 0.41429401583306 C 0.0 **** 0.0
81 C43201 0.259970097697153 0.193606981643836 0.418658416975899 C 0.0 **** 0.0
82 N43202 0.270882777977965 0.206844588010316 0.411318146176768 N 0.0 **** 0.0
83 C43208 0.34601687806853 0.139588948468052 0.279316851372149 C 0.0 **** 0.0
84 C43209 0.330467743347215 0.131542743230382 0.279265766540511 C 0.0 **** 0.0
85 C43210 0.316947272872628 0.138794829557809 0.288320529724722 C 0.0 **** 0.0
86 O43215 0.328392307394214 0.117130642219441 0.269579765931566 O 0.0 **** 0.0
87 C43216 0.342405163120119 0.106009959726612 0.273103598704835 C 0.0 **** 0.0
88 C43217 0.359676550037779 0.114734816993202 0.2724598234334 C 0.0 **** 0.0
89 O43218 0.358749706459118 0.132596646182342 0.269594807921401 O 0.0 **** 0.0
90 C43224 0.371890508174347 0.10698577829582 0.259430714804163 C 0.0 **** 0.0
91 C43225 0.363881749300739 0.105012310784863 0.24190066441256 C 0.0 **** 0.0
92 C43226 0.346228123572593 0.0966770655971897 0.242929993489381 C 0.0 **** 0.0
93 C43227 0.341480477052598 0.0909586197336918 0.26084186207656 C 0.0 **** 0.0
94 C43233 0.287007234642138 0.142359086463468 0.294357678080055 C 0.0 **** 0.0
95 C43234 0.299978814433494 0.134514907221532 0.285043703026909 C 0.0 **** 0.0
96 C43238 0.262214874376981 0.159039646894557 0.313051602384876 C 0.0 **** 0.0
97 C43239 0.258498579549937 0.153517026524131 0.296480245344853 C 0.0 **** 0.0
98 C43240 0.270447774378216 0.144368956900684 0.287823303416354 C 0.0 **** 0.0
99 C43245 0.24912475181695 0.165778673651884 0.322970914775579 C 0.0 **** 0.0
100 C43246 0.252380624032607 0.171063741565857 0.3393169264418 C 0.0 **** 0.0
101 C43247 0.268893702096827 0.170456417657579 0.345018043120297 C 0.0 **** 0.0
102 O43252 0.243067522744494 0.156461508719997 0.288954239101183 O 0.0 **** 0.0
103 C43253 0.230156035108984 0.163466506442814 0.298355732683209 C 0.0 **** 0.0
104 C43254 0.232004546600138 0.16739918010519 0.315090447331005 C 0.0 **** 0.0
105 C43259 0.238517996958574 0.177105040262898 0.351270491538618 C 0.0 **** 0.0
106 C43260 0.219830333798329 0.175976765969544 0.343429377662611 C 0.0 **** 0.0
107 C43261 0.218564855542151 0.173087508352031 0.324349021311636 C 0.0 **** 0.0
108 C43266 0.209041846653029 0.191362425222422 0.348878854487312 C 0.0 **** 0.0
109 C43267 0.210974197987498 0.194406908942716 0.367980858916734 C 0.0 **** 0.0
110 C43268 0.229428222609534 0.199312321769349 0.372423313138408 C 0.0 **** 0.0
111 C43269 0.242031334769832 0.194920133346028 0.35821384395312 C 0.0 **** 0.0
112 C43275 0.203424190081057 0.175916859075984 0.316423428083501 C 0.0 **** 0.0
113 C43276 0.201726058785186 0.172490636246185 0.299481136701462 C 0.0 **** 0.0
114 C43277 0.21508694113334 0.166403782200038 0.290484102466249 C 0.0 **** 0.0
115 C43282 0.190863207512331 0.189148248571778 0.34264674751826 C 0.0 **** 0.0
116 C43284 0.188632791388847 0.182551391191697 0.326546445645111 C 0.0 **** 0.0
117 C43287 0.444178097229759 0.241914952224066 0.260793904506388 C 0.0 **** 0.0
118 C43289 0.426240416132588 0.245251577893811 0.267382213726857 C 0.0 **** 0.0
119 C43291 0.449046570181398 0.255785863510122 0.248152920330663 C 0.0 **** 0.0
120 O43293 0.342810982544526 0.194906829811766 0.375619170392058 O 0.0 **** 0.0
121 C43295 0.213447864072461 0.163358711471974 0.273537897195776 C 0.0 **** 0.0
122 C43296 0.198553049806522 0.166332467763144 0.265503275715934 C 0.0 **** 0.0
123 C43297 0.184952333871423 0.171968951847495 0.274424720773027 C 0.0 **** 0.0
124 C43298 0.186610226230436 0.174901587293431 0.29142295055322 C 0.0 **** 0.0
125 C43304 0.171639778666129 0.180434471821577 0.301201481505822 C 0.0 **** 0.0
126 C43305 0.156797654887275 0.182982554484912 0.292744703058081 C 0.0 **** 0.0
127 C43306 0.155892680604568 0.17985029999904 0.274320711683635 C 0.0 **** 0.0
128 C43307 0.169978142208318 0.174414906478066 0.265878262848457 C 0.0 **** 0.0
129 C43313 0.140955296834004 0.182392329632295 0.265980213392367 C 0.0 **** 0.0
130 C43314 0.126868771536404 0.188085633035626 0.274345229533977 C 0.0 **** 0.0
131 C43315 0.12715373285357 0.19148330692544 0.291331287737601 C 0.0 **** 0.0
132 C43316 0.142790003454343 0.188517648849949 0.301209608231928 C 0.0 **** 0.0
133 C43322 0.143434394748612 0.192067922057186 0.318596056911831 C 0.0 **** 0.0
134 C43323 0.158594014915078 0.189478959397595 0.327320991909399 C 0.0 **** 0.0
135 C43324 0.17282559321291 0.183468935477749 0.318626073263275 C 0.0 **** 0.0
136 C43329 0.129729897135698 0.19983631014888 0.326632337811214 C 0.0 **** 0.0
137 C43330 0.113752652628698 0.201488651797535 0.316041912515933 C 0.0 **** 0.0
138 C43331 0.113107475769798 0.197555315136561 0.29924701781321 C 0.0 **** 0.0
139 C43336 0.176745051664808 0.194757650787173 0.351242992780623 C 0.0 **** 0.0
140 C43337 0.160261986732066 0.195179013023642 0.34404991570778 C 0.0 **** 0.0
141 C43342 0.131581088121196 0.206052741970702 0.343016320597859 C 0.0 **** 0.0
142 C43343 0.146396378583153 0.203096989594611 0.352096067768745 C 0.0 **** 0.0
143 C43347 0.148145378327122 0.209473887644224 0.370235267941591 C 0.0 **** 0.0
144 C43348 0.131207408772536 0.208546851160757 0.379545515733781 C 0.0 **** 0.0
145 C43349 0.11824460411202 0.218750905631956 0.369931806857162 C 0.0 **** 0.0
146 C43350 0.117796355454902 0.216346299379189 0.351095898538312 C 0.0 **** 0.0
147 O43356 0.106722088628309 0.223594001051629 0.343341851808092 O 0.0 **** 0.0
148 H43358 0.510892642575008 0.12558697705253 0.195269957043906 H 0.0 **** 0.0
149 H43360 0.493405943642996 0.126458163083256 0.209060954006297 H 0.0 **** 0.0
150 H43362 0.525554520917687 0.146042426419628 0.211145416405811 H 0.0 **** 0.0
151 H43364 0.506688477695913 0.149280263489166 0.222316899938462 H 0.0 **** 0.0
152 H43366 0.53544541395328 0.124996004595475 0.230869733338339 H 0.0 **** 0.0
153 H43368 0.519943912621511 0.113607463482038 0.254110065389156 H 0.0 **** 0.0
154 H43370 0.491970739923684 0.106346727951651 0.231047966995128 H 0.0 **** 0.0
155 H43372 0.509963447091411 0.0938702635522528 0.235000497449429 H 0.0 **** 0.0
156 H43374 0.489849282455521 0.134802206960701 0.243145247464012 H 0.0 **** 0.0
157 H43376 0.499419075225488 0.156595438725816 0.258929185775306 H 0.0 **** 0.0
158 H43378 0.528685114420968 0.134962714979068 0.271249098738249 H 0.0 **** 0.0
159 H43380 0.527327254700741 0.157212846667431 0.271997625305886 H 0.0 **** 0.0
160 H43382 0.544909499124023 0.146697930663685 0.247363910990131 H 0.0 **** 0.0
161 H43384 0.527799188089563 0.159386922514365 0.24116295853548 H 0.0 **** 0.0
162 H43386 0.480132031525186 0.138559155154756 0.297370192643284 H 0.0 **** 0.0
163 H43388 0.466421022659494 0.119626350061518 0.281920731689859 H 0.0 **** 0.0
164 H43390 0.481480210564067 0.107377197470597 0.257002897780066 H 0.0 **** 0.0
165 H43392 0.494872928736254 0.112214884385766 0.27407529349534 H 0.0 **** 0.0
166 H43394 0.47776295188392 0.165800930814477 0.270468357883945 H 0.0 **** 0.0
167 H43396 0.420823816953871 0.12467429290113 0.254139553248387 H 0.0 **** 0.0
168 H43398 0.414446225038189 0.142587878823543 0.242348068746044 H 0.0 **** 0.0
169 H43400 0.442753030513023 0.145677375339954 0.229519223727375 H 0.0 **** 0.0
170 H43402 0.436350370835356 0.12445115332333 0.226892478841404 H 0.0 **** 0.0
171 H43404 0.463182112878769 0.118471348511917 0.239548732550533 H 0.0 **** 0.0
172 H43406 0.464992936827196 0.191707457862392 0.281217739567408 H 0.0 **** 0.0
173 H43407 0.485727826956368 0.181575054996282 0.333604347734502 H 0.0 **** 0.0
174 H43409 0.505401842207005 0.186174470852472 0.323888411574257 H 0.0 **** 0.0
175 H43411 0.496456891238534 0.159992427280532 0.309648642174229 H 0.0 **** 0.0
176 H43413 0.485287023047211 0.217566522857918 0.338215315792034 H 0.0 **** 0.0
177 H43415 0.50565497471244 0.214040637967244 0.329676922391323 H 0.0 **** 0.0
178 H43417 0.503347782356095 0.235487437038195 0.309561571980589 H 0.0 **** 0.0
179 H43419 0.490950626603105 0.244068377239131 0.326071240195229 H 0.0 **** 0.0
180 H43421 0.452986634196049 0.213050117841423 0.276971360785479 H 0.0 **** 0.0
181 H43423 0.442588651952146 0.225292829515458 0.292293073419758 H 0.0 **** 0.0
182 H43425 0.469927630138461 0.238255697575868 0.268273167271189 H 0.0 **** 0.0
183 H43427 0.447655263130253 0.255726288093768 0.29466619101807 H 0.0 **** 0.0
184 H43429 0.460351656800845 0.266933135821308 0.280104286753164 H 0.0 **** 0.0
185 H43431 0.474236275397649 0.261432738150184 0.309048007947606 H 0.0 **** 0.0
186 H43433 0.486082761660343 0.255887578658292 0.290990072728936 H 0.0 **** 0.0
187 H43435 0.440852827737167 0.204063933294554 0.317308509754287 H 0.0 **** 0.0
188 H43437 0.378205214847626 0.2072126627276 0.337088307392751 H 0.0 **** 0.0
189 H43439 0.351650218170253 0.200768113636523 0.350240467780608 H 0.0 **** 0.0
190 H43441 0.372602109285302 0.154554486130225 0.263369252098915 H 0.0 **** 0.0
191 H43443 0.285670749860711 0.199271862873411 0.372900990081954 H 0.0 **** 0.0
192 H43445 0.312523484006644 0.210227778146626 0.368789605949062 H 0.0 **** 0.0
193 H43447 0.3256388179986 0.176609068593732 0.382134991828639 H 0.0 **** 0.0
194 H43449 0.321811578176988 0.200220823880599 0.404671573479375 H 0.0 **** 0.0
195 H43451 0.325445417876302 0.219264035237564 0.393672035982377 H 0.0 **** 0.0
196 H43453 0.293173546063362 0.223680271641449 0.393302765197532 H 0.0 **** 0.0
197 H43455 0.301926793020607 0.224391935458802 0.413819312749579 H 0.0 **** 0.0
198 H43457 0.292892377854172 0.196989889846747 0.420900648820261 H 0.0 **** 0.0
199 H43459 0.300073998804641 0.177855027042402 0.401242262707413 H 0.0 **** 0.0
200 H43461 0.264265774436071 0.178995385905746 0.387295963411114 H 0.0 **** 0.0
201 H43463 0.276745032439372 0.161356725592591 0.393056954703929 H 0.0 **** 0.0
202 H43465 0.275546193287214 0.17140998332872 0.423436326148616 H 0.0 **** 0.0
203 H43467 0.255185372785884 0.166607028605244 0.415916030669564 H 0.0 **** 0.0
204 H43469 0.259652128168139 0.195311240596019 0.432492134367376 H 0.0 **** 0.0
205 H43471 0.246923730849912 0.195647299020003 0.414234083288601 H 0.0 **** 0.0
206 H43473 0.265987824895975 0.211248794512473 0.400493786194655 H 0.0 **** 0.0
207 H43475 0.340193337770193 0.101088162576169 0.28597471187 H 0.0 **** 0.0
208 H43477 0.366121738867039 0.113226678136334 0.28468777834626 H 0.0 **** 0.0
209 H43479 0.383183308997509 0.115133752384467 0.258807103660149 H 0.0 **** 0.0
210 H43481 0.376238805819211 0.094510406189375 0.263845746592411 H 0.0 **** 0.0
211 H43483 0.37226811812859 0.0976589516694312 0.233588375113843 H 0.0 **** 0.0
212 H43485 0.362660130391137 0.117586509360499 0.236030774549181 H 0.0 **** 0.0
213 H43487 0.345145877567961 0.086186741204769 0.233875278093296 H 0.0 **** 0.0
214 H43489 0.336869293365971 0.106244001604149 0.239273728312401 H 0.0 **** 0.0
215 H43491 0.349794847319668 0.080596212896957 0.265023958738336 H 0.0 **** 0.0
216 H43493 0.328457821580603 0.0859779779860777 0.260975530799115 H 0.0 **** 0.0
217 H43495 0.296944999444206 0.126705774719303 0.273992377148696 H 0.0 **** 0.0
218 H43497 0.267476490786036 0.139281164683893 0.275278487603798 H 0.0 **** 0.0
219 H43499 0.270848052348163 0.175724708183952 0.357622050297102 H 0.0 **** 0.0
220 H43501 0.238499873267904 0.168468613652617 0.362270917234946 H 0.0 **** 0.0
221 H43503 0.214000168154169 0.164729329606043 0.349338785114174 H 0.0 **** 0.0
222 H43505 0.213995315885933 0.202696645886156 0.342352588687729 H 0.0 **** 0.0
223 H43507 0.20735604057004 0.182726970643957 0.374626749367473 H 0.0 **** 0.0
224 H43509 0.202510166833947 0.204387624150023 0.372654420477695 H 0.0 **** 0.0
225 H43511 0.23332220192085 0.192821049543569 0.384115723330097 H 0.0 **** 0.0
226 H43513 0.230153324264466 0.212943711949752 0.375206440129732 H 0.0 **** 0.0
227 H43515 0.254975696590828 0.196198254260349 0.363167875301094 H 0.0 **** 0.0
228 H43517 0.240970732266072 0.204170754166024 0.347833754220351 H 0.0 **** 0.0
229 H43519 0.443804476101617 0.229901645654316 0.253633144742847 H 0.0 **** 0.0
230 H43521 0.417256067939033 0.246068187147222 0.256769015462611 H 0.0 **** 0.0
231 H43523 0.425620509005018 0.257286982592446 0.274341838248321 H 0.0 **** 0.0
232 H43525 0.421737452970454 0.235175299066248 0.275848240260832 H 0.0 **** 0.0
233 H43527 0.461718326758617 0.253684770863196 0.24279168507201 H 0.0 **** 0.0
234 H43529 0.449030086885961 0.268325346561025 0.254181847896096 H 0.0 **** 0.0
235 H43531 0.440043384703216 0.256225892024857 0.237540772688567 H 0.0 **** 0.0
236 H43533 0.350663813253507 0.186209558733892 0.372953067355815 H 0.0 **** 0.0
237 H43535 0.224054253731993 0.158723274076148 0.266045977109114 H 0.0 **** 0.0
238 H43537 0.197785851561072 0.164036877743456 0.251942410299514 H 0.0 **** 0.0
239 H43539 0.169317090244951 0.17198981073545 0.252293619262431 H 0.0 **** 0.0
240 H43541 0.140002808912356 0.180025287547183 0.252416441861398 H 0.0 **** 0.0
241 H43543 0.115342448929072 0.190045387391995 0.267029227224465 H 0.0 **** 0.0
242 H43545 0.102180401843137 0.205950010919367 0.321956528244392 H 0.0 **** 0.0
243 H43547 0.101299004509491 0.199498755777583 0.292408598549869 H 0.0 **** 0.0
244 H43549 0.178686016014661 0.199706199089535 0.364011519155835 H 0.0 **** 0.0
245 H43551 0.157364154422968 0.20193423034895 0.377406745897007 H 0.0 **** 0.0
246 H43553 0.152791240503854 0.222637287219522 0.370242372311994 H 0.0 **** 0.0
247 H43555 0.132349453501388 0.213347244415841 0.392565336278639 H 0.0 **** 0.0
248 H43557 0.127242315705675 0.195224303011651 0.380399819891889 H 0.0 **** 0.0
249 H43559 0.120383879259735 0.232464651310813 0.371141408927021 H 0.0 **** 0.0
250 H43561 0.105003909635258 0.216582242674641 0.37358541750346 H 0.0 **** 0.0
@<TRIPOS>BOND
1 3 2 1
2 4 3 1
3 5 4 1
4 6 5 1
5 1 2 1
6 1 6 1
7 8 7 1
8 9 8 1
9 10 9 1
10 4 7 1
11 3 10 1
12 12 11 1
13 13 12 1
14 14 13 1
15 8 11 1
16 7 14 1
17 16 15 1
18 17 16 Partial double
19 18 17 1
20 13 15 1
21 12 18 1
22 20 19 Partial double
23 21 20 Partial double
24 22 21 Partial double
25 17 19 Partial double
26 16 22 Partial double
27 24 23 1
28 25 24 1
29 15 25 Double
30 22 23 1
31 27 26 1
32 28 27 Partial double
33 29 28 Partial double
34 21 26 1
35 20 29 Partial double
36 31 30 1
37 32 31 1
38 18 30 1
39 19 32 1
40 34 33 Double
41 35 34 1
42 36 35 1
43 31 33 1
44 30 36 Double
45 38 37 1
46 39 38 1
47 40 39 Double
48 34 37 1
49 33 40 1
50 42 41 1
51 43 42 1
52 44 43 1
53 40 41 1
54 39 44 1
55 46 45 Partial double
56 32 46 1
57 29 45 Partial double
58 48 47 Partial double
59 49 48 1
60 45 49 Partial double
61 28 47 Partial double
62 51 50 Partial double
63 52 51 Partial double
64 53 52 Partial double
65 48 50 Partial double
66 47 53 Partial double
67 55 54 Partial double
68 56 55 Partial double
69 57 56 Partial double
70 52 54 Partial double
71 51 57 Partial double
72 59 58 Partial double
73 60 59 Partial double
74 61 60 Partial double
75 56 58 Partial double
76 55 61 Partial double
77 63 62 Partial double
78 27 63 Partial double
79 53 62 Partial double
80 65 64 Partial double
81 62 65 Partial double
82 54 64 Partial double
83 67 66 Partial double
84 64 67 Partial double
85 61 66 Partial double
86 69 68 Partial double
87 70 69 Partial double
88 66 70 Partial double
89 60 68 Partial double
90 72 71 1
91 73 72 1
92 74 73 1
93 59 71 1
94 58 74 1
95 76 75 1
96 77 76 1
97 78 77 1
98 73 75 1
99 72 78 1
100 80 79 1
101 81 80 1
102 82 81 1
103 78 79 1
104 77 82 1
105 84 83 Partial double
106 85 84 Partial double
107 67 85 Partial double
108 65 83 Partial double
109 87 86 1
110 88 87 1
111 89 88 1
112 84 86 1
113 83 89 1
114 91 90 1
115 92 91 1
116 93 92 1
117 88 90 1
118 87 93 1
119 95 94 Partial double
120 85 95 Partial double
121 70 94 Partial double
122 97 96 Partial double
123 98 97 Partial double
124 94 98 Partial double
125 69 96 Partial double
126 100 99 Partial double
127 101 100 Partial double
128 68 101 Partial double
129 96 99 Partial double
130 103 102 1
131 104 103 Partial double
132 97 102 1
133 99 104 1
134 106 105 1
135 107 106 1
136 100 105 1
137 104 107 Partial double
138 109 108 1
139 110 109 1
140 111 110 1
141 106 108 1
142 105 111 1
143 113 112 1
144 114 113 1
145 103 114 Partial double
146 107 112 Partial double
147 108 115 1
148 112 116 Partial double
149 115 116 Partial double
150 42 117 1
151 117 118 1
152 117 119 1
153 74 120 1
154 122 121 1
155 123 122 Partial double
156 124 123 1
157 114 121 Partial double
158 113 124 Partial double
159 126 125 Partial double
160 127 126 1
161 128 127 Partial double
162 124 125 Partial double
163 123 128 Partial double
164 130 129 Partial double
165 131 130 1
166 132 131 1
167 127 129 Partial double
168 126 132 Partial double
169 134 133 Partial double
170 135 134 Partial double
171 125 135 Partial double
172 132 133 Partial double
173 137 136 Partial double
174 138 137 Partial double
175 131 138 Partial double
176 133 136 Partial double
177 140 139 Partial double
178 134 140 Partial double
179 116 135 Partial double
180 115 139 Partial double
181 142 141 Partial double
182 140 142 Partial double
183 136 141 Partial double
184 144 143 1
185 145 144 1
186 146 145 1
187 142 143 1
188 141 146 1
189 146 147 Double
190 1 148 1
191 1 149 1
192 2 150 1
193 2 151 1
194 3 152 1
195 4 153 1
196 5 154 1
197 5 155 1
198 7 156 1
199 8 157 1
200 9 158 1
201 9 159 1
202 10 160 1
203 10 161 1
204 12 162 1
205 13 163 1
206 14 164 1
207 14 165 1
208 18 166 1
209 23 167 1
210 23 168 1
211 24 169 1
212 24 170 1
213 25 171 1
214 35 173 1
215 35 174 1
216 36 175 1
217 37 176 1
218 37 177 1
219 38 178 1
220 38 179 1
221 41 180 1
222 41 181 1
223 42 182 1
224 43 183 1
225 43 184 1
226 44 185 1
227 44 186 1
228 46 187 1
229 50 188 1
230 57 189 1
231 63 190 1
232 72 191 1
233 73 192 1
234 74 193 1
235 75 194 1
236 75 195 1
237 76 196 1
238 76 197 1
239 77 198 1
240 78 199 1
241 79 200 1
242 79 201 1
243 80 202 1
244 80 203 1
245 81 204 1
246 81 205 1
247 82 206 1
248 87 207 1
249 88 208 1
250 90 209 1
251 90 210 1
252 91 211 1
253 91 212 1
254 92 213 1
255 92 214 1
256 93 215 1
257 93 216 1
258 95 217 1
259 98 218 1
260 101 219 1
261 105 220 1
262 106 221 1
263 108 222 1
264 109 223 1
265 109 224 1
266 110 225 1
267 110 226 1
268 111 227 1
269 111 228 1
270 117 229 1
271 118 230 1
272 118 231 1
273 118 232 1
274 119 233 1
275 119 234 1
276 119 235 1
277 120 236 1
278 121 237 1
279 122 238 1
280 128 239 1
281 129 240 1
282 130 241 1
283 137 242 1
284 138 243 1
285 139 244 1
286 143 245 1
287 143 246 1
288 144 247 1
289 144 248 1
290 145 249 1
291 145 250 1
292 31 172 1
@<TRIPOS>MOLECULE
Sketch 4
250 292
SMALL
USER_CHARGES


@<TRIPOS>ATOM
1 C43564 0.329182251501588 0.715109497653092 0.377580295477626 C 0.0 **** 0.0
2 C43565 0.334433959555723 0.730986319653107 0.36717818106424 C 0.0 **** 0.0
3 C43566 0.336559977042569 0.746343782004295 0.37901027156604 C 0.0 **** 0.0
4 C43567 0.319846966610522 0.748905239204684 0.389086356515778 C 0.0 **** 0.0
5 C43568 0.31408140929004 0.731594219710731 0.396588266490321 C 0.0 **** 0.0
6 O43569 0.326759090131817 0.71895633668756 0.39497396952042 O 0.0 **** 0.0
7 C43576 0.305606294158075 0.757399846783485 0.378536598614165 C 0.0 **** 0.0
8 C43577 0.312533164230855 0.771559983121291 0.366494563735604 C 0.0 **** 0.0
9 C43578 0.330378547811909 0.777090022453387 0.371233183455933 C 0.0 **** 0.0
10 C43579 0.342920673514899 0.762433240629945 0.369832793904096 C 0.0 **** 0.0
11 O43585 0.302501385840279 0.786508812550037 0.365611429771331 O 0.0 **** 0.0
12 C43586 0.284864052224238 0.78284181721605 0.364027256183798 C 0.0 **** 0.0
13 C43587 0.278488134313369 0.776796649568498 0.381421162019186 C 0.0 **** 0.0
14 C43588 0.290747466956305 0.763493492076178 0.389823055513064 C 0.0 **** 0.0
15 C43594 0.259919080365692 0.771727961008287 0.380971998138067 C 0.0 **** 0.0
16 C43595 0.252310427115235 0.765542814284647 0.364557969742126 C 0.0 **** 0.0
17 C43596 0.261630552895145 0.766208800797007 0.34971863622705 C 0.0 **** 0.0
18 C43597 0.280539693304356 0.770141384194492 0.35005656938776 C 0.0 **** 0.0
19 C43603 0.254050305117003 0.761530337595426 0.334625251467439 C 0.0 **** 0.0
20 C43604 0.23801650948907 0.75452061118005 0.334736349776867 C 0.0 **** 0.0
21 C43605 0.228799724059159 0.753423737593452 0.349630940192166 C 0.0 **** 0.0
22 C43606 0.235843452126338 0.759378464988612 0.364606864565929 C 0.0 **** 0.0
23 C43612 0.226065134321821 0.757686502611749 0.381012143874845 C 0.0 **** 0.0
24 C43613 0.231044063950364 0.771494883945258 0.393952701040409 C 0.0 **** 0.0
25 C43614 0.249837125510993 0.774671407449164 0.394406213728443 C 0.0 **** 0.0
26 O43619 0.212658763367872 0.746494753566656 0.349910122155269 O 0.0 **** 0.0
27 C43620 0.206417772727895 0.738467089064758 0.335688681007507 C 0.0 **** 0.0
28 C43621 0.214689447927945 0.738294749797069 0.320266250056456 C 0.0 **** 0.0
29 C43622 0.231177138308374 0.747415920343189 0.318631393004955 C 0.0 **** 0.0
30 C43628 0.287358321742141 0.773833210744012 0.332610283349906 C 0.0 **** 0.0
31 C43629 0.282376066468793 0.759950964451977 0.320389901086162 C 0.0 **** 0.0
32 C43630 0.263456960313805 0.763718359090919 0.318187848890631 C 0.0 **** 0.0
33 C43635 0.292127040796035 0.759657465029821 0.303434376800448 C 0.0 **** 0.0
34 C43636 0.300418174075952 0.774065927376142 0.298802458849638 C 0.0 **** 0.0
35 C43637 0.301762609619964 0.789797000599502 0.309653540602408 C 0.0 **** 0.0
36 C43638 0.295858325028952 0.787610044097498 0.327641801210995 C 0.0 **** 0.0
37 C43644 0.309948418776661 0.77630756608137 0.282588344471123 C 0.0 **** 0.0
38 C43645 0.309888765889168 0.760649797945423 0.271086419888519 C 0.0 **** 0.0
39 C43646 0.300435080623791 0.745775506423481 0.278109175492694 C 0.0 **** 0.0
40 C43647 0.292529990776905 0.745519269820942 0.293441095774404 C 0.0 **** 0.0
41 C43653 0.284096692010528 0.728740361349169 0.298892728074683 C 0.0 **** 0.0
42 C43654 0.291066513879229 0.713250536237855 0.289830108828064 C 0.0 **** 0.0
43 C43655 0.289810082773494 0.71644973207516 0.27070427489108 C 0.0 **** 0.0
44 C43656 0.301211274884524 0.731184433083584 0.265854289120096 C 0.0 **** 0.0
45 C43662 0.239690945508486 0.748762206306096 0.303782326388122 C 0.0 **** 0.0
46 C43663 0.254912646280881 0.756552236415445 0.302680753466249 C 0.0 **** 0.0
47 C43667 0.20798006035982 0.728561348647132 0.306883578109851 C 0.0 **** 0.0
48 C43668 0.216058509547695 0.727072469646307 0.291015778382715 C 0.0 **** 0.0
49 S43669 0.231419033126022 0.741258560389811 0.284945888541196 S 0.0 **** 0.0
50 C43674 0.211764681253452 0.714823413529837 0.279612577409297 C 0.0 **** 0.0
51 C43675 0.196889644653557 0.705268649920061 0.282313749677647 C 0.0 **** 0.0
52 C43676 0.186680563945698 0.709046241871637 0.296511161634349 C 0.0 **** 0.0
53 C43677 0.192920900875107 0.71921673146498 0.30944592068055 C 0.0 **** 0.0
54 C43683 0.169317449695173 0.70584364696246 0.295384101555034 C 0.0 **** 0.0
55 C43684 0.162601741894419 0.697901946396444 0.280995132092007 C 0.0 **** 0.0
56 C43685 0.173157645048252 0.691301361906006 0.268068087617979 C 0.0 **** 0.0
57 C43686 0.190432091892335 0.695277160231303 0.269213539922975 C 0.0 **** 0.0
58 C43692 0.166146136508909 0.682091789054891 0.254535568425134 C 0.0 **** 0.0
59 C43693 0.148780406511112 0.679846070761206 0.25403210394863 C 0.0 **** 0.0
60 C43694 0.13804101078131 0.688454859759919 0.265417914700326 C 0.0 **** 0.0
61 C43695 0.145277692652854 0.698160532994113 0.278357946228757 C 0.0 **** 0.0
62 C43701 0.182952782173888 0.722279777607563 0.323829426476309 C 0.0 **** 0.0
63 C43702 0.190946416546605 0.730615943116897 0.337298763833616 C 0.0 **** 0.0
64 C43706 0.158628518193554 0.713226024589555 0.307314310589847 C 0.0 **** 0.0
65 C43707 0.165021653887064 0.719535777876641 0.322618101973993 C 0.0 **** 0.0
66 C43711 0.135047819213491 0.708240068355875 0.288573890151816 C 0.0 **** 0.0
67 C43712 0.141697065129968 0.71531430666234 0.303319437611937 C 0.0 **** 0.0
68 C43716 0.120176939911242 0.687862829285846 0.264088584171095 C 0.0 **** 0.0
69 C43717 0.110603548862004 0.700517832363556 0.272049716472589 C 0.0 **** 0.0
70 C43718 0.118017179644646 0.710382088231291 0.284604566164297 C 0.0 **** 0.0
71 O43723 0.141981390692112 0.669826670575209 0.241211283229306 O 0.0 **** 0.0
72 C43724 0.150132696493301 0.653567464037602 0.240397240243105 C 0.0 **** 0.0
73 C43725 0.169807754061634 0.655158764584813 0.239667112458771 C 0.0 **** 0.0
74 C43726 0.174869728857473 0.673860921366097 0.239309035192311 C 0.0 **** 0.0
75 C43732 0.177689146202872 0.644495380336864 0.225344448304525 C 0.0 **** 0.0
76 C43733 0.170672863687518 0.626513967056835 0.226476255098339 C 0.0 **** 0.0
77 C43734 0.151677679379304 0.626078885107488 0.222214652312512 C 0.0 **** 0.0
78 C43735 0.142457316027059 0.643183780686923 0.225707453078269 C 0.0 **** 0.0
79 C43741 0.123173615448435 0.64062845381418 0.227978996393544 C 0.0 **** 0.0
80 C43742 0.117393020805453 0.625080687249465 0.218051636042496 C 0.0 **** 0.0
81 C43743 0.126087205441548 0.608749573219405 0.224368619838855 C 0.0 **** 0.0
82 N43744 0.143650681352766 0.611524966180438 0.230021468153565 N 0.0 **** 0.0
83 C43750 0.153604810083807 0.725095305677025 0.335225674763422 C 0.0 **** 0.0
84 C43751 0.136906829425139 0.728443787743377 0.330896767740102 C 0.0 **** 0.0
85 C43752 0.131160648553174 0.724162257910811 0.314505392488423 C 0.0 **** 0.0
86 O43757 0.12543288085547 0.735479342099796 0.342169105805657 O 0.0 **** 0.0
87 C43758 0.133391038486848 0.743332318405667 0.356354158112054 C 0.0 **** 0.0
88 C43759 0.14630735989129 0.731635257310367 0.363713070749445 C 0.0 **** 0.0
89 O43760 0.159258699368749 0.728119452552386 0.35158962623732 O 0.0 **** 0.0
90 C43766 0.138287426175805 0.715259469071451 0.370856528930834 C 0.0 **** 0.0
91 C43767 0.120144485749978 0.717809196397012 0.377699618022987 C 0.0 **** 0.0
92 C43768 0.117293889286346 0.735980789090852 0.383799892843765 C 0.0 **** 0.0
93 C43769 0.119776308463871 0.748763261495743 0.369232074671277 C 0.0 **** 0.0
94 C43775 0.107565211777335 0.720632940449145 0.294953231535441 C 0.0 **** 0.0
95 C43776 0.114399801699933 0.727566686607507 0.309867881963562 C 0.0 **** 0.0
96 C43780 0.0930415942047528 0.700571195230846 0.270057328183698 C 0.0 **** 0.0
97 C43781 0.0830559582439619 0.712787878479635 0.278391712030332 C 0.0 **** 0.0
98 C43782 0.0902228621447361 0.722388556131741 0.29097380963318 C 0.0 **** 0.0
99 C43787 0.0846909463173958 0.686571987463882 0.262769999406122 C 0.0 **** 0.0
100 C43788 0.0938420538828496 0.672613961302655 0.257552997286564 C 0.0 **** 0.0
101 C43789 0.111205860864485 0.673770498513839 0.257658864792129 C 0.0 **** 0.0
102 O43794 0.0660474809941911 0.714441670608859 0.274863352973618 O 0.0 **** 0.0
103 C43795 0.057462680387845 0.700322159309495 0.269271667441729 C 0.0 **** 0.0
104 C43796 0.0657882351575349 0.686469185078874 0.263078237838428 C 0.0 **** 0.0
105 C43801 0.0858261539245403 0.656159788169055 0.251811624413805 C 0.0 **** 0.0
106 C43802 0.0657722713655847 0.657139676247108 0.249881023677035 C 0.0 **** 0.0
107 C43803 0.0570487246340965 0.672651808974164 0.257469573194258 C 0.0 **** 0.0
108 C43808 0.0572802718819692 0.640822512725285 0.256580446446862 C 0.0 **** 0.0
109 C43809 0.0667356525283818 0.62495697980961 0.250456428111377 C 0.0 **** 0.0
110 C43810 0.0849090310452436 0.624507080203799 0.257732150137278 C 0.0 **** 0.0
111 C43811 0.0908857135347617 0.641933345370556 0.264045757442975 C 0.0 **** 0.0
112 C43817 0.0397952501135244 0.672610934463513 0.258532881187592 C 0.0 **** 0.0
113 C43818 0.0313905265567081 0.686726059305021 0.26415318644503 C 0.0 **** 0.0
114 C43819 0.0402074532402042 0.700518299991004 0.26956804101466 C 0.0 **** 0.0
115 C43824 0.0384666075125913 0.641374700353522 0.252228893064969 C 0.0 **** 0.0
116 C43826 0.0302528153469286 0.656825000035677 0.253612246576182 C 0.0 **** 0.0
117 C43829 0.282721762998792 0.696595466365216 0.295903874552975 C 0.0 **** 0.0
118 C43831 0.263493075838412 0.695755520604296 0.293475417464921 C 0.0 **** 0.0
119 C43833 0.290809319595974 0.681167440568258 0.287432014545612 C 0.0 **** 0.0
120 O43835 0.19270863382115 0.675739861166313 0.238500400213737 O 0.0 **** 0.0
121 C43837 0.03177869280741 0.714507596289406 0.275275537163266 C 0.0 **** 0.0
122 C43838 0.0145864680380935 0.714757478693247 0.275581367679077 C 0.0 **** 0.0
123 C43839 0.00560762413730047 0.701067756274774 0.27019383688676 C 0.0 **** 0.0
124 C43840 0.0141078738195335 0.687116226940577 0.264441609297886 C 0.0 **** 0.0
125 C43846 0.00433673787060639 0.672288289244018 0.258458294088224 C 0.0 **** 0.0
126 C43847 -0.0128964214214966 0.672842174496458 0.259439971133188 C 0.0 **** 0.0
127 C43848 -0.0213518486260026 0.688298911163819 0.265735962235889 C 0.0 **** 0.0
128 C43849 -0.0117923612334574 0.701810344223636 0.270810011243195 C 0.0 **** 0.0
129 C43855 -0.0386270547836844 0.688799423006367 0.266545184932329 C 0.0 **** 0.0
130 C43856 -0.048231182343604 0.675109940853581 0.261936766957394 C 0.0 **** 0.0
131 C43857 -0.0409625817042387 0.660385628213205 0.256424313082176 C 0.0 **** 0.0
132 C43858 -0.0223544167129781 0.659120564599674 0.254847953369602 C 0.0 **** 0.0
133 C43864 -0.0146463963386247 0.644050344129415 0.249463892029755 C 0.0 **** 0.0
134 C43865 0.00299352932365345 0.643409425970015 0.248539096931333 C 0.0 **** 0.0
135 C43866 0.0126059505509071 0.657678443410652 0.252771848724813 C 0.0 **** 0.0
136 C43871 -0.024296364368892 0.629519546978348 0.246406711454078 C 0.0 **** 0.0
137 C43872 -0.043359235746745 0.63199343017061 0.247565359931319 C 0.0 **** 0.0
138 C43873 -0.0507586161657594 0.64680982900187 0.252423821809824 C 0.0 **** 0.0
139 C43878 0.0288928758684291 0.627310043916136 0.248432083578976 C 0.0 **** 0.0
140 C43879 0.0110913636377012 0.62785666490757 0.245909277248458 C 0.0 **** 0.0
141 C43884 -0.0162502789646554 0.614189695350768 0.242967114269209 C 0.0 **** 0.0
142 C43885 0.00136454246597025 0.613274487897268 0.242550051268869 C 0.0 **** 0.0
143 C43889 0.0104508555607064 0.596511214913072 0.239562039175016 C 0.0 **** 0.0
144 C43890 0.000763726352545231 0.585628524735048 0.226983034149304 C 0.0 **** 0.0
145 C43891 -0.0171752473342653 0.583170943573069 0.232825162148338 C 0.0 **** 0.0
146 C43892 -0.0262306702915321 0.598313136815257 0.23987137732978 C 0.0 **** 0.0
147 O43898 -0.041090485717879 0.596399893607687 0.243134493461238 O 0.0 **** 0.0
148 H43900 0.339276400990736 0.705582801384158 0.377245070712442 H 0.0 **** 0.0
149 H43902 0.317819480807606 0.709030204469236 0.372211649205323 H 0.0 **** 0.0
150 H43904 0.346190163262378 0.728678836952474 0.360051622283223 H 0.0 **** 0.0
151 H43906 0.324847602442951 0.734075004078436 0.35752926935016 H 0.0 **** 0.0
152 H43908 0.346289837144518 0.742747980857425 0.388382658604172 H 0.0 **** 0.0
153 H43910 0.322897757436822 0.757572864061575 0.399525254023596 H 0.0 **** 0.0
154 H43912 0.302197293917597 0.727246531664511 0.390689008963374 H 0.0 **** 0.0
155 H43914 0.311482616390147 0.732721301520188 0.410185676415483 H 0.0 **** 0.0
156 H43916 0.300510336583016 0.74719173376315 0.370506394524177 H 0.0 **** 0.0
157 H43918 0.313539132984572 0.766066393156119 0.353674971563663 H 0.0 **** 0.0
158 H43920 0.330233634583057 0.782315179182683 0.384125933298764 H 0.0 **** 0.0
159 H43922 0.333973343937821 0.787556968845308 0.362813621895914 H 0.0 **** 0.0
160 H43924 0.355351867175924 0.766211794003258 0.374830239154206 H 0.0 **** 0.0
161 H43926 0.344910240037917 0.759617066196198 0.356340274227774 H 0.0 **** 0.0
162 H43928 0.278903218979905 0.795080786576659 0.361096761085684 H 0.0 **** 0.0
163 H43930 0.279062661626103 0.78804928695655 0.389655940408236 H 0.0 **** 0.0
164 H43932 0.283857241824786 0.752460017180673 0.394810936462931 H 0.0 **** 0.0
165 H43934 0.296252288112451 0.769783240308393 0.40099028859878 H 0.0 **** 0.0
166 H43936 0.286451728211821 0.757960164090401 0.353385091741644 H 0.0 **** 0.0
167 H43938 0.212353191557985 0.758288879797163 0.378723293460255 H 0.0 **** 0.0
168 H43940 0.228673571294882 0.745140906432266 0.386519205447476 H 0.0 **** 0.0
169 H43942 0.226529955439813 0.767897036337301 0.406658319736653 H 0.0 **** 0.0
170 H43944 0.224641502056968 0.783411475608789 0.390748767760404 H 0.0 **** 0.0
171 H43946 0.254540526727539 0.780586341561349 0.405930614886881 H 0.0 **** 0.0
172 H43948 0.284029056484541 0.747727744187318 0.32686018785204 H 0.0 **** 0.0
173 H43949 0.294864519244396 0.800212506485683 0.303514857206194 H 0.0 **** 0.0
174 H43951 0.315194760730326 0.793561331272134 0.310058763403018 H 0.0 **** 0.0
175 H43953 0.29888559734623 0.797715265578933 0.336510407549728 H 0.0 **** 0.0
176 H43955 0.304524344410598 0.787168960492665 0.275695846721663 H 0.0 **** 0.0
177 H43957 0.323150610625728 0.779741632819309 0.285563536835245 H 0.0 **** 0.0
178 H43959 0.323080185066765 0.756735716620696 0.268752346391869 H 0.0 **** 0.0
179 H43961 0.304439790001333 0.764029653621155 0.258684735759856 H 0.0 **** 0.0
180 H43963 0.28544578436905 0.726864872491108 0.312603871496074 H 0.0 **** 0.0
181 H43965 0.270470557948846 0.72956234863024 0.296308258029244 H 0.0 **** 0.0
182 H43967 0.304642940564868 0.712144622562277 0.293004988676335 H 0.0 **** 0.0
183 H43969 0.276578710379769 0.719328490192228 0.267455600925457 H 0.0 **** 0.0
184 H43971 0.293476801496519 0.705308019657604 0.263200913540133 H 0.0 **** 0.0
185 H43973 0.298107496975081 0.735804440893614 0.253077430404845 H 0.0 **** 0.0
186 H43975 0.314418293755583 0.726765436717494 0.265340007058629 H 0.0 **** 0.0
187 H43977 0.261155386542212 0.758193466333961 0.290516681350935 H 0.0 **** 0.0
188 H43979 0.218512759015631 0.713469464240179 0.267590805261743 H 0.0 **** 0.0
189 H43981 0.199099880641279 0.692631121748153 0.258784023202316 H 0.0 **** 0.0
190 H43983 0.184970326825026 0.732961230235142 0.349539565114627 H 0.0 **** 0.0
191 H43985 0.146836420232267 0.646810303302208 0.252073086268405 H 0.0 **** 0.0
192 H43987 0.175235550961727 0.649918540044183 0.251447469720585 H 0.0 **** 0.0
193 H43989 0.169391618063478 0.679585072891502 0.22777676661014 H 0.0 **** 0.0
194 H43991 0.174806149113616 0.649953439829941 0.212851012821419 H 0.0 **** 0.0
195 H43993 0.191571927568625 0.644327835572042 0.226589256523679 H 0.0 **** 0.0
196 H43995 0.172707938561625 0.621910785147652 0.23949011009592 H 0.0 **** 0.0
197 H43997 0.17755303670823 0.617686654695586 0.218160148291511 H 0.0 **** 0.0
198 H43999 0.150799101104119 0.62397940574288 0.208449217291408 H 0.0 **** 0.0
199 H44001 0.144491528090635 0.650952193158516 0.214301751023724 H 0.0 **** 0.0
200 H44003 0.120315726245816 0.638369434424331 0.241409999027105 H 0.0 **** 0.0
201 H44005 0.116161365981756 0.652031276862007 0.224204594482644 H 0.0 **** 0.0
202 H44007 0.120768373598229 0.627193783350927 0.204729058189832 H 0.0 **** 0.0
203 H44009 0.10357792401941 0.623423516133477 0.218372152446155 H 0.0 **** 0.0
204 H44011 0.126146907350572 0.5991820686812 0.214232343843309 H 0.0 **** 0.0
205 H44013 0.118807019901363 0.603172510193723 0.234853807031049 H 0.0 **** 0.0
206 H44015 0.144336379292239 0.612470152143137 0.242639359441337 H 0.0 **** 0.0
207 H44017 0.140097255022543 0.754585440880993 0.35167900310212 H 0.0 **** 0.0
208 H44019 0.152448350790993 0.738414680891724 0.374234068556707 H 0.0 **** 0.0
209 H44021 0.137987417870274 0.705720353686127 0.360760269994253 H 0.0 **** 0.0
210 H44023 0.146494535807127 0.709989469161005 0.380811616590997 H 0.0 **** 0.0
211 H44025 0.117459231687998 0.708604372025726 0.387810581152746 H 0.0 **** 0.0
212 H44027 0.110992313101051 0.715150422893227 0.367508730630888 H 0.0 **** 0.0
213 H44029 0.126355096247422 0.738804616101481 0.393996268151784 H 0.0 **** 0.0
214 H44031 0.104588980484026 0.737478251694067 0.389348479158347 H 0.0 **** 0.0
215 H44033 0.122378696168732 0.761352275191992 0.374584792727632 H 0.0 **** 0.0
216 H44035 0.10784595855959 0.749997485121635 0.362183601861903 H 0.0 **** 0.0
217 H44037 0.106123388010057 0.734654808663286 0.318481972119331 H 0.0 **** 0.0
218 H44039 0.0822341888014041 0.730751891127324 0.298681246228615 H 0.0 **** 0.0
219 H44041 0.118187435799247 0.66265520217568 0.253352885917717 H 0.0 **** 0.0
220 H44043 0.0908220273988261 0.652910087400959 0.23919688477469 H 0.0 **** 0.0
221 H44045 0.0633484368177147 0.657685104549903 0.236135641756792 H 0.0 **** 0.0
222 H44047 0.0581511634217917 0.640868382283521 0.270516483118943 H 0.0 **** 0.0
223 H44049 0.0671316536997564 0.625033814551441 0.236532115151672 H 0.0 **** 0.0
224 H44051 0.0602448448747947 0.613253908396506 0.254258381167966 H 0.0 **** 0.0
225 H44053 0.0937593693793818 0.619739058406789 0.248102522075826 H 0.0 **** 0.0
226 H44055 0.0855147618063393 0.615434810741185 0.268298351019898 H 0.0 **** 0.0
227 H44057 0.10462931974669 0.641533998253693 0.266229714388784 H 0.0 **** 0.0
228 H44059 0.0851755218173278 0.644554353268753 0.276490680072222 H 0.0 **** 0.0
229 H44061 0.28523212112779 0.695601779108344 0.309626653654319 H 0.0 **** 0.0
230 H44063 0.256783143692036 0.705806956906069 0.300366391830654 H 0.0 **** 0.0
231 H44065 0.258555684544193 0.683583887861856 0.298114391568264 H 0.0 **** 0.0
232 H44067 0.260116735937048 0.696821983622 0.280025831766134 H 0.0 **** 0.0
233 H44069 0.304649159225209 0.681218510426758 0.288784473700368 H 0.0 **** 0.0
234 H44071 0.287966362813095 0.681003088535594 0.273836028297924 H 0.0 **** 0.0
235 H44073 0.28597961501421 0.669302534274007 0.292858745054534 H 0.0 **** 0.0
236 H44075 0.196006706630405 0.669191077845147 0.228967829950292 H 0.0 **** 0.0
237 H44077 0.0385368437121787 0.72570894008085 0.279680067054208 H 0.0 **** 0.0
238 H44079 0.00826559367874927 0.72606357439256 0.280230860884522 H 0.0 **** 0.0
239 H44081 -0.0180439718500878 0.713163989429403 0.275548054078071 H 0.0 **** 0.0
240 H44083 -0.0451362187058296 0.700096475910934 0.271057215928575 H 0.0 **** 0.0
241 H44085 -0.0619549507238406 0.676150087430402 0.262986945576825 H 0.0 **** 0.0
242 H44087 -0.0518224544724171 0.621674791689263 0.244367456935545 H 0.0 **** 0.0
243 H44089 -0.0645244603823224 0.647403074000585 0.253137904269984 H 0.0 **** 0.0
244 H44091 0.0355262364743066 0.615189581549057 0.247761950914189 H 0.0 **** 0.0
245 H44093 0.0231541556666127 0.598433010854365 0.23425808819866 H 0.0 **** 0.0
246 H44095 0.0121374058973056 0.589763472445932 0.251648987234807 H 0.0 **** 0.0
247 H44097 0.00697868841816942 0.573335983870326 0.224997067112396 H 0.0 **** 0.0
248 H44099 0.00072379165536797 0.592244792355707 0.21478213782872 H 0.0 **** 0.0
249 H44101 -0.0183322684842461 0.573950388009501 0.243168334865776 H 0.0 **** 0.0
250 H44103 -0.0258633374621261 0.578970039797878 0.222839635357186 H 0.0 **** 0.0
@<TRIPOS>BOND
1 3 2 1
2 4 3 1
3 5 4 1
4 6 5 1
5 1 2 1
6 1 6 1
7 8 7 1
8 9 8 1
9 10 9 1
10 4 7 1
11 3 10 1
12 12 11 1
13 13 12 1
14 14 13 1
15 8 11 1
16 7 14 1
17 16 15 1
18 17 16 Partial double
19 18 17 1
20 13 15 1
21 12 18 1
22 20 19 Partial double
23 21 20 Partial double
24 22 21 Partial double
25 17 19 Partial double
26 16 22 Partial double
27 24 23 1
28 25 24 1
29 15 25 Double
30 22 23 1
31 27 26 1
32 28 27 Partial double
33 29 28 Partial double
34 21 26 1
35 20 29 Partial double
36 31 30 1
37 32 31 1
38 18 30 1
39 19 32 1
40 34 33 Double
41 35 34 1
42 36 35 1
43 31 33 1
44 30 36 Double
45 38 37 1
46 39 38 1
47 40 39 Double
48 34 37 1
49 33 40 1
50 42 41 1
51 43 42 1
52 44 43 1
53 40 41 1
54 39 44 1
55 46 45 Partial double
56 32 46 1
57 29 45 Partial double
58 48 47 Partial double
59 49 48 1
60 45 49 Partial double
61 28 47 Partial double
62 51 50 Partial double
63 52 51 Partial double
64 53 52 Partial double
65 48 50 Partial double
66 47 53 Partial double
67 55 54 Partial double
68 56 55 Partial double
69 57 56 Partial double
70 52 54 Partial double
71 51 57 Partial double
72 59 58 Partial double
73 60 59 Partial double
74 61 60 Partial double
75 56 58 Partial double
76 55 61 Partial double
77 63 62 Partial double
78 27 63 Partial double
79 53 62 Partial double
80 65 64 Partial double
81 62 65 Partial double
82 54 64 Partial double
83 67 66 Partial double
84 64 67 Partial double
85 61 66 Partial double
86 69 68 Partial double
87 70 69 Partial double
88 66 70 Partial double
89 60 68 Partial double
90 72 71 1
91 73 72 1
92 74 73 1
93 59 71 1
94 58 74 1
95 76 75 1
96 77 76 1
97 78 77 1
98 73 75 1
99 72 78 1
100 80 79 1
101 81 80 1
102 82 81 1
103 78 79 1
104 77 82 1
105 84 83 Partial double
106 85 84 Partial double
107 67 85 Partial double
108 65 83 Partial double
109 87 86 1
110 88 87 1
111 89 88 1
112 84 86 1
113 83 89 1
114 91 90 1
115 92 91 1
116 93 92 1
117 88 90 1
118 87 93 1
119 95 94 Partial double
120 85 95 Partial double
121 70 94 Partial double
122 97 96 Partial double
123 98 97 Partial double
124 94 98 Partial double
125 69 96 Partial double
126 100 99 Partial double
127 101 100 Partial double
128 68 101 Partial double
129 96 99 Partial double
130 103 102 1
131 104 103 Partial double
132 97 102 1
133 99 104 1
134 106 105 1
135 107 106 1
136 100 105 1
137 104 107 Partial double
138 109 108 1
139 110 109 1
140 111 110 1
141 106 108 1
142 105 111 1
143 113 112 1
144 114 113 1
145 103 114 Partial double
146 107 112 Partial double
147 108 115 1
148 112 116 Partial double
149 115 116 Partial double
150 42 117 1
151 117 118 1
152 117 119 1
153 74 120 1
154 122 121 1
155 123 122 Partial double
156 124 123 1
157 114 121 Partial double
158 113 124 Partial double
159 126 125 Partial double
160 127 126 1
161 128 127 Partial double
162 124 125 Partial double
163 123 128 Partial double
164 130 129 Partial double
165 131 130 1
166 132 131 1
167 127 129 Partial double
168 126 132 Partial double
169 134 133 Partial double
170 135 134 Partial double
171 125 135 Partial double
172 132 133 Partial double
173 137 136 Partial double
174 138 137 Partial double
175 131 138 Partial double
176 133 136 Partial double
177 140 139 Partial double
178 134 140 Partial double
179 116 135 Partial double
180 115 139 Partial double
181 142 141 Partial double
182 140 142 Partial double
183 136 141 Partial double
184 144 143 1
185 145 144 1
186 146 145 1
187 142 143 1
188 141 146 1
189 146 147 Double
190 1 148 1
191 1 149 1
192 2 150 1
193 2 151 1
194 3 152 1
195 4 153 1
196 5 154 1
197 5 155 1
198 7 156 1
199 8 157 1
200 9 158 1
201 9 159 1
202 10 160 1
203 10 161 1
204 12 162 1
205 13 163 1
206 14 164 1
207 14 165 1
208 18 166 1
209 23 167 1
210 23 168 1
211 24 169 1
212 24 170 1
213 25 171 1
214 35 173 1
215 35 174 1
216 36 175 1
217 37 176 1
218 37 177 1
219 38 178 1
220 38 179 1
221 41 180 1
222 41 181 1
223 42 182 1
224 43 183 1
225 43 184 1
226 44 185 1
227 44 186 1
228 46 187 1
229 50 188 1
230 57 189 1
231 63 190 1
232 72 191 1
233 73 192 1
234 74 193 1
235 75 194 1
236 75 195 1
237 76 196 1
238 76 197 1
239 77 198 1
240 78 199 1
241 79 200 1
242 79 201 1
243 80 202 1
244 80 203 1
245 81 204 1
246 81 205 1
247 82 206 1
248 87 207 1
249 88 208 1
250 90 209 1
251 90 210 1
252 91 211 1
253 91 212 1
254 92 213 1
255 92 214 1
256 93 215 1
257 93 216 1
258 95 217 1
259 98 218 1
260 101 219 1
261 105 220 1
262 106 221 1
263 108 222 1
264 109 223 1
265 109 224 1
266 110 225 1
267 110 226 1
268 111 227 1
269 111 228 1
270 117 229 1
271 118 230 1
272 118 231 1
273 118 232 1
274 119 233 1
275 119 234 1
276 119 235 1
277 120 236 1
278 121 237 1
279 122 238 1
280 128 239 1
281 129 240 1
282 130 241 1
283 137 242 1
284 138 243 1
285 139 244 1
286 143 245 1
287 143 246 1
288 144 247 1
289 144 248 1
290 145 249 1
291 145 250 1
292 31 172 1
@<TRIPOS>MOLECULE
Sketch 4
250 292
SMALL
USER_CHARGES


@<TRIPOS>ATOM
1 C44106 0.12899694017011 0.218859035870865 0.992577823879841 C 0.0 **** 0.0
2 C44107 0.136452553903887 0.226532159147257 0.976162064557009 C 0.0 **** 0.0
3 C44108 0.124723403157133 0.240314898221913 0.96907716159082 C 0.0 **** 0.0
4 C44109 0.106719777197029 0.232777085919129 0.965662896023866 C 0.0 **** 0.0
5 C44110 0.103349082944796 0.218025299041294 0.978115632936058 C 0.0 **** 0.0
6 O44111 0.111211945439422 0.221339465837447 0.993925265355618 O 0.0 **** 0.0
7 C44118 0.104358842315552 0.228562691022322 0.946709485839601 C 0.0 **** 0.0
8 C44119 0.105488430519813 0.245078478697724 0.93602006161283 C 0.0 **** 0.0
9 C44120 0.117984574810778 0.257883041313933 0.943647452779885 C 0.0 **** 0.0
10 C44121 0.132157449448341 0.249266270838115 0.953469171591653 C 0.0 **** 0.0
11 O44127 0.0900074245402133 0.254206826663432 0.935270718617531 O 0.0 **** 0.0
12 C44128 0.0759564893350006 0.244757128667649 0.929105910901949 C 0.0 **** 0.0
13 C44129 0.0727089363081911 0.230083872682276 0.941391692701162 C 0.0 **** 0.0
14 C44130 0.0881561115311068 0.218476791774575 0.942439319533492 C 0.0 **** 0.0
15 C44136 0.0564831625735369 0.221160470201119 0.936823126980199 C 0.0 **** 0.0
16 C44137 0.0520763961610657 0.220128623138097 0.918317214949416 C 0.0 **** 0.0
17 C44138 0.0617608989303688 0.228591523144433 0.906288731724286 C 0.0 **** 0.0
18 C44139 0.0777473764786688 0.238282477566566 0.910901729507975 C 0.0 **** 0.0
19 C44145 0.0567993413007154 0.22780478940138 0.889518061271565 C 0.0 **** 0.0
20 C44146 0.0418675133457691 0.219850592921114 0.885215436539414 C 0.0 **** 0.0
21 C44147 0.0328386734859804 0.210559771871441 0.897009651728815 C 0.0 **** 0.0
22 C44148 0.0380865066382236 0.210551726923343 0.91372994546141 C 0.0 **** 0.0
23 C44154 0.0286198933877754 0.200057434239862 0.926674597884822 C 0.0 **** 0.0
24 C44155 0.0282535857394459 0.208966343375728 0.944075932353201 C 0.0 **** 0.0
25 C44156 0.0453221730815042 0.216143183967498 0.94871004003899 C 0.0 **** 0.0
26 O44161 0.0187667485662243 0.201188467575989 0.892461772733544 O 0.0 **** 0.0
27 C44162 0.0133536346086276 0.20139746142934 0.875885451295793 C 0.0 **** 0.0
28 C44163 0.0200209849076377 0.211890186479551 0.863546826329779 C 0.0 **** 0.0
29 C44164 0.0351509653279855 0.22236710557324 0.867769043930668 C 0.0 **** 0.0
30 C44170 0.0815849503218529 0.251477643859156 0.897554103798583 C 0.0 **** 0.0
31 C44171 0.0841897739392621 0.243372750312541 0.880307040963451 C 0.0 **** 0.0
32 C44172 0.06720683019274 0.235034317040624 0.875326238063376 C 0.0 **** 0.0
33 C44177 0.0909788395776581 0.254966172684644 0.86609551729531 C 0.0 **** 0.0
34 C44178 0.0915893772728498 0.271929475734357 0.869116667232924 C 0.0 **** 0.0
35 C44179 0.0879868706886992 0.280124514144977 0.886057322285299 C 0.0 **** 0.0
36 C44180 0.0830217344462609 0.268162405187895 0.900044196680075 C 0.0 **** 0.0
37 C44186 0.0983078712559192 0.2844609290749 0.856554360447182 C 0.0 **** 0.0
38 C44187 0.0983652256960293 0.277757761290487 0.83836926840339 C 0.0 **** 0.0
39 C44188 0.100171265229164 0.258853694938753 0.837673640380257 C 0.0 **** 0.0
40 C44189 0.0964630802705621 0.248484276247774 0.85098540560908 C 0.0 **** 0.0
41 C44195 0.0985787941069379 0.22933020370678 0.848092345052325 C 0.0 **** 0.0
42 C44196 0.111575002194055 0.225505176830489 0.834320114843931 C 0.0 **** 0.0
43 C44197 0.1051595671649 0.233963285220254 0.817997090576178 C 0.0 **** 0.0
44 C44198 0.105333805103739 0.253132954649772 0.820214273688024 C 0.0 **** 0.0
45 C44204 0.0419909381636172 0.233888721190602 0.856986963369535 C 0.0 **** 0.0
46 C44205 0.0569464068299755 0.241652855741743 0.860470024957562 C 0.0 **** 0.0
47 C44209 0.0134554827659046 0.211301322955747 0.84686799457642 C 0.0 **** 0.0
48 C44210 0.0200503280166277 0.221481652745918 0.833795551942142 C 0.0 **** 0.0
49 S44211 0.031036513447995 0.239709555878312 0.838823716020828 S 0.0 **** 0.0
50 C44216 0.0185422308524766 0.217094531340059 0.81710453601625 C 0.0 **** 0.0
51 C44217 0.0096615471004079 0.202217928311468 0.812762387034755 C 0.0 **** 0.0
52 C44218 0.00127144218659218 0.192911549802941 0.825614469101826 C 0.0 **** 0.0
53 C44219 0.00214531300272919 0.198325193528991 0.842440525055265 C 0.0 **** 0.0
54 C44225 -0.00541612814193148 0.177059045491996 0.821693130471213 C 0.0 **** 0.0
55 C44226 -0.00303317146048565 0.169971372600695 0.805664633016856 C 0.0 **** 0.0
56 C44227 0.00608179102501197 0.178631515861922 0.792984089371838 C 0.0 **** 0.0
57 C44228 0.010904239457673 0.195376605070723 0.796437978294827 C 0.0 **** 0.0
58 C44234 0.0107507943888738 0.170500279756741 0.777789140393971 C 0.0 **** 0.0
59 C44235 0.00307892873973149 0.155282540370629 0.773863753361259 C 0.0 **** 0.0
60 C44236 -0.00755456460836677 0.14727097421736 0.785907107722517 C 0.0 **** 0.0
61 C44237 -0.00882258501416399 0.153810219757784 0.802274156893477 C 0.0 **** 0.0
62 C44243 -0.00535612358915796 0.188449839483495 0.85512294591813 C 0.0 **** 0.0
63 C44244 0.000601752685058641 0.190383899471701 0.871807324764959 C 0.0 **** 0.0
64 C44248 -0.0133266677958956 0.167605421693098 0.834307953510682 C 0.0 **** 0.0
65 C44249 -0.0154790023439998 0.174424880813054 0.850468292950223 C 0.0 **** 0.0
66 C44253 -0.0159390183933138 0.144073856383191 0.815150358573404 C 0.0 **** 0.0
67 C44254 -0.0182514775982233 0.151115960744836 0.831166854753667 C 0.0 **** 0.0
68 C44258 -0.0170055316239746 0.132587000132194 0.781790235248057 C 0.0 **** 0.0
69 C44259 -0.0231404939616365 0.122360943783985 0.794976958700542 C 0.0 **** 0.0
70 C44260 -0.0218694092716954 0.127842825876177 0.811637908897319 C 0.0 **** 0.0
71 O44265 0.00559773075033772 0.14714551480692 0.758445935961005 O 0.0 **** 0.0
72 C44266 0.0144473225070083 0.155636918275751 0.745224605613408 C 0.0 **** 0.0
73 C44267 0.0292111745959232 0.165646345138044 0.752575786823319 C 0.0 **** 0.0
74 C44268 0.0230890084848048 0.178661371117761 0.765433737232687 C 0.0 **** 0.0
75 C44274 0.0404159198076503 0.173505304801444 0.738569131218846 C 0.0 **** 0.0
76 C44275 0.0313806683067111 0.174431547956831 0.721376828562761 C 0.0 **** 0.0
77 C44276 0.0127579147729208 0.179543478899144 0.723180136251088 C 0.0 **** 0.0
78 C44277 0.00253645022523066 0.166303106625924 0.733893139128025 C 0.0 **** 0.0
79 C44283 -0.00902754577453287 0.15526721316216 0.722685492341636 C 0.0 **** 0.0
80 C44284 -0.02035095775676 0.16612602109477 0.710944835326829 C 0.0 **** 0.0
81 C44285 -0.0128749856664848 0.183820977460336 0.707329869504595 C 0.0 **** 0.0
82 N44286 0.00548064767215542 0.183294185121163 0.706578964491156 N 0.0 **** 0.0
83 C44292 -0.0258552033499255 0.166233913562654 0.862474509683835 C 0.0 **** 0.0
84 C44293 -0.0312650600911837 0.149842775454351 0.859368359104039 C 0.0 **** 0.0
85 C44294 -0.0263565060300438 0.141918932609772 0.844043607017865 C 0.0 **** 0.0
86 O44299 -0.0409253049146099 0.140802238092516 0.870907511734444 O 0.0 **** 0.0
87 C44300 -0.0488305890755741 0.151575085399365 0.883118166625087 C 0.0 **** 0.0
88 C44301 -0.0361291461844242 0.163637137947769 0.890324138827485 C 0.0 **** 0.0
89 O44302 -0.0297670005378549 0.174556251291522 0.877460758019111 O 0.0 **** 0.0
90 C44308 -0.021575351900056 0.154413258699947 0.899725822779544 C 0.0 **** 0.0
91 C44309 -0.0265326593805213 0.136638234804473 0.906128156206041 C 0.0 **** 0.0
92 C44310 -0.0450953363187817 0.136203776014995 0.911670294414947 C 0.0 **** 0.0
93 C44311 -0.0572495049405688 0.14087947600984 0.89702767404579 C 0.0 **** 0.0
94 C44317 -0.0295171564374086 0.118166639533777 0.824654152772785 C 0.0 **** 0.0
95 C44318 -0.0309489671804772 0.125096155697301 0.84098653905685 C 0.0 **** 0.0
96 C44322 -0.0338872637280907 0.108859009608552 0.791041541662153 C 0.0 **** 0.0
97 C44323 -0.0408505200385426 0.0986974657970286 0.804000094436675 C 0.0 **** 0.0
98 C44324 -0.038057298940116 0.103051715881289 0.820536763499037 C 0.0 **** 0.0
99 C44329 -0.0400175021703501 0.106584979441722 0.774458669843872 C 0.0 **** 0.0
100 C44330 -0.0346114655196757 0.116908865065519 0.761459241498419 C 0.0 **** 0.0
101 C44331 -0.0231693439806172 0.129404300191059 0.765291011803939 C 0.0 **** 0.0
102 O44336 -0.0504618827043146 0.0846416985583232 0.800257258302417 O 0.0 **** 0.0
103 C44337 -0.0598010110435155 0.0852629127802555 0.78556748007649 C 0.0 **** 0.0
104 C44338 -0.0544386423712246 0.0946647174815084 0.772091336694254 C 0.0 **** 0.0
105 C44343 -0.0410729932217866 0.115683598593645 0.743422117807443 C 0.0 **** 0.0
106 C44344 -0.0582779063910287 0.105432405334133 0.74200971167894 C 0.0 **** 0.0
107 C44345 -0.0630874096997942 0.0945243029684723 0.757176586393035 C 0.0 **** 0.0
108 C44350 -0.0591067905312619 0.0945620874845904 0.725762880465241 C 0.0 **** 0.0
109 C44351 -0.0523304904256362 0.104422158643016 0.710430356601319 C 0.0 **** 0.0
110 C44352 -0.0335959316028786 0.109787715650697 0.712924534772773 C 0.0 **** 0.0
111 C44353 -0.027627006389742 0.108463900963677 0.73145919025707 C 0.0 **** 0.0
112 C44359 -0.0770720994845641 0.08461070110477 0.755691661019911 C 0.0 **** 0.0
113 C44360 -0.0833078203280848 0.0763273903748235 0.769581628578536 C 0.0 **** 0.0
114 C44361 -0.0745940358318721 0.0764417925736151 0.784451484210612 C 0.0 **** 0.0
115 C44366 -0.0773188896813487 0.0881938258592517 0.724012664961948 C 0.0 **** 0.0
116 C44368 -0.0856614519300856 0.0834984428086718 0.738730529315491 C 0.0 **** 0.0
117 C44371 0.115691548928398 0.206459866518428 0.832807880160784 C 0.0 **** 0.0
118 C44373 0.12542610494521 0.20225612828155 0.81659557249311 C 0.0 **** 0.0
119 C44375 0.126382666861082 0.200595407739585 0.847907176009048 C 0.0 **** 0.0
120 O44377 0.0374064334486093 0.184881766527274 0.774398506383003 O 0.0 **** 0.0
121 C44379 -0.080742848065045 0.0678159951275445 0.798122721850452 C 0.0 **** 0.0
122 C44380 -0.0959283451618084 0.0597628469773108 0.797181709922113 C 0.0 **** 0.0
123 C44381 -0.104938985991574 0.0599173996477608 0.78249862945431 C 0.0 **** 0.0
124 C44382 -0.0984017727321118 0.0680165076596897 0.768667898680095 C 0.0 **** 0.0
125 C44388 -0.108038933618421 0.0680504666805093 0.752618342760113 C 0.0 **** 0.0
126 C44389 -0.123115655593852 0.059707690173079 0.752126080098532 C 0.0 **** 0.0
127 C44390 -0.129704354859291 0.0515190599438527 0.767600610771115 C 0.0 **** 0.0
128 C44391 -0.120382363884402 0.0518782211008897 0.78217592721014 C 0.0 **** 0.0
129 C44397 -0.145013362350861 0.0435601595968929 0.767043329375096 C 0.0 **** 0.0
130 C44398 -0.153949854019331 0.0425182587674765 0.75223651916902 C 0.0 **** 0.0
131 C44399 -0.148085911291083 0.0492620096498192 0.737432501505739 C 0.0 **** 0.0
132 C44400 -0.132001932534825 0.0587508596499444 0.737333684319972 C 0.0 **** 0.0
133 C44406 -0.125613370137292 0.0656787381957737 0.72228857236253 C 0.0 **** 0.0
134 C44407 -0.110216362592015 0.074299904785105 0.722724674033042 C 0.0 **** 0.0
135 C44408 -0.101548508577866 0.075857134089263 0.738082078619893 C 0.0 **** 0.0
136 C44413 -0.133435518964008 0.0622310563839454 0.706823429466859 C 0.0 **** 0.0
137 C44414 -0.15038880030161 0.0533007885013185 0.70799510640916 C 0.0 **** 0.0
138 C44415 -0.156933083483457 0.0472808265264195 0.722785350854762 C 0.0 **** 0.0
139 C44420 -0.0856125457149702 0.0858578431372696 0.708842673074074 C 0.0 **** 0.0
140 C44421 -0.102252458053848 0.0790936124028155 0.707586519501271 C 0.0 **** 0.0
141 C44426 -0.12527653830405 0.0663799408293616 0.6917654934916 C 0.0 **** 0.0
142 C44427 -0.110142337594686 0.0753936084147566 0.691976073943137 C 0.0 **** 0.0
143 C44431 -0.101578786976897 0.080304935945476 0.675410446823334 C 0.0 **** 0.0
144 C44432 -0.1146545853286 0.0847197086809185 0.66183624230877 C 0.0 **** 0.0
145 C44433 -0.126009843236514 0.0695843607464033 0.659332260960684 C 0.0 **** 0.0
146 C44434 -0.132410003814851 0.060972935664312 0.675005402093943 C 0.0 **** 0.0
147 O44440 -0.142433783894124 0.0495050327291749 0.673137060689817 O 0.0 **** 0.0
148 H44442 0.134430827660836 0.225051153463409 1.00377035043806 H 0.0 **** 0.0
149 H44444 0.132105312804376 0.205290474867667 0.993540245200247 H 0.0 **** 0.0
150 H44446 0.14926558513362 0.23152242280254 0.978328206481081 H 0.0 **** 0.0
151 H44448 0.137860832377547 0.216658285286812 0.966398123359224 H 0.0 **** 0.0
152 H44450 0.12319900162199 0.249913942328848 0.979112058749269 H 0.0 **** 0.0
153 H44452 0.0975328093112802 0.242839271584902 0.968619480336572 H 0.0 **** 0.0
154 H44454 0.107722676594979 0.20584419181269 0.97288268965703 H 0.0 **** 0.0
155 H44456 0.0897579566530503 0.216653807107918 0.980674591105148 H 0.0 **** 0.0
156 H44458 0.115255812021819 0.220557640534183 0.943171829685364 H 0.0 **** 0.0
157 H44460 0.109472162232512 0.241578134803198 0.923125380396862 H 0.0 **** 0.0
158 H44462 0.110760102631423 0.265863653971852 0.952513043268545 H 0.0 **** 0.0
159 H44464 0.122848387614848 0.266575531742749 0.933922766836632 H 0.0 **** 0.0
160 H44466 0.141885374928585 0.258436109455129 0.957270611802841 H 0.0 **** 0.0
161 H44468 0.138474353828767 0.239978467805255 0.945233211680866 H 0.0 **** 0.0
162 H44470 0.0653149483196081 0.253728193612086 0.929757714746127 H 0.0 **** 0.0
163 H44472 0.0709144015872337 0.235718498612519 0.953968594281822 H 0.0 **** 0.0
164 H44474 0.0900557640626368 0.212023695297619 0.930234459793536 H 0.0 **** 0.0
165 H44476 0.0860778344488507 0.208229562427823 0.951646124991758 H 0.0 **** 0.0
166 H44478 0.0885200362223386 0.229390665702923 0.910491125163646 H 0.0 **** 0.0
167 H44480 0.0155728301003077 0.19759337663226 0.922523415478163 H 0.0 **** 0.0
168 H44482 0.0347807810208206 0.187614044478367 0.92798875469397 H 0.0 **** 0.0
169 H44484 0.0239862150237622 0.200003363350132 0.953885869861003 H 0.0 **** 0.0
170 H44486 0.0189212966374504 0.219323493836708 0.943825921847591 H 0.0 **** 0.0
171 H44488 0.0476147359709517 0.217953479257305 0.962179273572705 H 0.0 **** 0.0
172 H44490 0.0935590499538973 0.233228137253471 0.882298730954527 H 0.0 **** 0.0
173 H44491 0.0781983249244644 0.289900149737052 0.884417946588569 H 0.0 **** 0.0
174 H44493 0.0996272649568277 0.286693456035246 0.89011841296709 H 0.0 **** 0.0
175 H44495 0.0812953281508055 0.273586687975199 0.912592467605836 H 0.0 **** 0.0
176 H44497 0.0910185038892958 0.296346307045937 0.857175596331742 H 0.0 **** 0.0
177 H44499 0.111362255730432 0.287478271892196 0.860299537646058 H 0.0 **** 0.0
178 H44501 0.108726820710682 0.283834343808068 0.831252988440885 H 0.0 **** 0.0
179 H44503 0.086496508382145 0.281273535661533 0.831955850227326 H 0.0 **** 0.0
180 H44505 0.102342798952942 0.223168570013466 0.85996962694015 H 0.0 **** 0.0
181 H44507 0.0862934683308784 0.223785554615922 0.844543941804352 H 0.0 **** 0.0
182 H44509 0.123644368081527 0.231768621739971 0.83763994917793 H 0.0 **** 0.0
183 H44511 0.092257188254867 0.229436554602486 0.815272673219409 H 0.0 **** 0.0
184 H44513 0.112900883199114 0.230794365891814 0.806863275547753 H 0.0 **** 0.0
185 H44515 0.0971382754572758 0.259265368484889 0.810721710361531 H 0.0 **** 0.0
186 H44517 0.118287206889895 0.257802582429269 0.817875194233062 H 0.0 **** 0.0
187 H44519 0.0619928591234632 0.251731060575672 0.852591877541258 H 0.0 **** 0.0
188 H44521 0.0247511584175 0.224472576841996 0.807141962328941 H 0.0 **** 0.0
189 H44523 0.0177695611027275 0.202800778523344 0.786943714124593 H 0.0 **** 0.0
190 H44525 -0.00350937015060745 0.181956820368119 0.88201402656146 H 0.0 **** 0.0
191 H44527 0.0199457154846017 0.14559300134551 0.737221968134767 H 0.0 **** 0.0
192 H44529 0.0369711663913447 0.156605150822413 0.759881625730747 H 0.0 **** 0.0
193 H44531 0.0166124015295925 0.189257096357199 0.758983219447337 H 0.0 **** 0.0
194 H44533 0.0442933397983081 0.186390514734999 0.742116361910675 H 0.0 **** 0.0
195 H44535 0.0522287434272238 0.166246657328769 0.737197543480424 H 0.0 **** 0.0
196 H44537 0.0320561822407667 0.162042578880891 0.715028069655532 H 0.0 **** 0.0
197 H44539 0.0380772125015594 0.183427586431694 0.713128305090446 H 0.0 **** 0.0
198 H44541 0.0126144501829185 0.191639090989913 0.730155525332016 H 0.0 **** 0.0
199 H44543 -0.00591677199154257 0.173347077296035 0.742482059997483 H 0.0 **** 0.0
200 H44545 -0.000943179825982637 0.147108528823523 0.714772538739547 H 0.0 **** 0.0
201 H44547 -0.0168346214023713 0.146700113695121 0.730346676769841 H 0.0 **** 0.0
202 H44549 -0.0330513020914575 0.16771534887571 0.716426105257221 H 0.0 **** 0.0
203 H44551 -0.0222885053832754 0.159266450798582 0.698955452775267 H 0.0 **** 0.0
204 H44553 -0.0165548067725897 0.192685719785624 0.71743550522306 H 0.0 **** 0.0
205 H44555 -0.0180923199655068 0.189102392878786 0.695524870236738 H 0.0 **** 0.0
206 H44557 0.00896987185053938 0.174476961494736 0.698165888254998 H 0.0 **** 0.0
207 H44559 -0.0585490994574416 0.158973897707804 0.876404589707458 H 0.0 **** 0.0
208 H44561 -0.0428557118745184 0.171703893047531 0.899502119071514 H 0.0 **** 0.0
209 H44563 -0.0106902280626557 0.153355064985478 0.89112315560886 H 0.0 **** 0.0
210 H44565 -0.0171912353937759 0.162205812707399 0.910421580732077 H 0.0 **** 0.0
211 H44567 -0.0181184004092988 0.132754945158722 0.916538918876475 H 0.0 **** 0.0
212 H44569 -0.0246606219419659 0.127315258969392 0.895921543773283 H 0.0 **** 0.0
213 H44571 -0.0466753219090678 0.145412774496864 0.921988854768377 H 0.0 **** 0.0
214 H44573 -0.0484796107844002 0.123780020494694 0.916985832214236 H 0.0 **** 0.0
215 H44575 -0.0683595076902152 0.147397965270586 0.902322473628398 H 0.0 **** 0.0
216 H44577 -0.0620516194572189 0.129352922647867 0.890965874358727 H 0.0 **** 0.0
217 H44579 -0.03768011602951 0.117922515499226 0.850782362603106 H 0.0 **** 0.0
218 H44581 -0.0437580258912184 0.0955702217677253 0.830725109620838 H 0.0 **** 0.0
219 H44583 -0.0200274537267711 0.138093096950476 0.754999724983891 H 0.0 **** 0.0
220 H44585 -0.0439440247443225 0.128613023363451 0.738986385212045 H 0.0 **** 0.0
221 H44587 -0.0682435677391745 0.115179245439579 0.740975136559411 H 0.0 **** 0.0
222 H44589 -0.0508672809749466 0.0833702607809381 0.727442224880185 H 0.0 **** 0.0
223 H44591 -0.0602371010750545 0.115742477948047 0.708556907285875 H 0.0 **** 0.0
224 H44593 -0.0532679532085338 0.0968620977277509 0.698800349846912 H 0.0 **** 0.0
225 H44595 -0.0319514200111927 0.122928043942023 0.708573336406523 H 0.0 **** 0.0
226 H44597 -0.0253661082615603 0.102065619678583 0.704771604814254 H 0.0 **** 0.0
227 H44599 -0.0154422866631443 0.1150773826019 0.732931460407151 H 0.0 **** 0.0
228 H44601 -0.0252719317195289 0.0951241899600847 0.734792661951077 H 0.0 **** 0.0
229 H44603 0.103766764593848 0.199185177904497 0.832690785932317 H 0.0 **** 0.0
230 H44605 0.13024746877989 0.189235304496892 0.816924648269316 H 0.0 **** 0.0
231 H44607 0.136280203400565 0.210771544959393 0.815322379629666 H 0.0 **** 0.0
232 H44609 0.117566895273209 0.203504630789725 0.805187002956797 H 0.0 **** 0.0
233 H44611 0.119786233395571 0.202080934968402 0.860056205220523 H 0.0 **** 0.0
234 H44613 0.13818243821653 0.207941388101742 0.848602021299492 H 0.0 **** 0.0
235 H44615 0.12986895378769 0.187176059647434 0.846696968913721 H 0.0 **** 0.0
236 H44617 0.0445150587230431 0.189767174761872 0.766030342132083 H 0.0 **** 0.0
237 H44619 -0.0738261249967297 0.0674686675556449 0.810046761595659 H 0.0 **** 0.0
238 H44621 -0.100776642027092 0.0533283450804171 0.80833902452937 H 0.0 **** 0.0
239 H44623 -0.125194955202868 0.0457111045739104 0.793563703226097 H 0.0 **** 0.0
240 H44625 -0.15032482099216 0.0377122978283041 0.778345621633884 H 0.0 **** 0.0
241 H44627 -0.165971841958329 0.0359543830086174 0.752442861534492 H 0.0 **** 0.0
242 H44629 -0.157792020352752 0.051535641357818 0.696598500882242 H 0.0 **** 0.0
243 H44631 -0.169063923403498 0.0407267884005603 0.72250935107068 H 0.0 **** 0.0
244 H44633 -0.0785750134669031 0.0889362606332719 0.697347585001144 H 0.0 **** 0.0
245 H44635 -0.0933316639661075 0.0912992961298973 0.677110099254426 H 0.0 **** 0.0
246 H44637 -0.0934769343754079 0.0698398596880738 0.670932056935508 H 0.0 **** 0.0
247 H44639 -0.108502189214422 0.0880666926989883 0.649802261521896 H 0.0 **** 0.0
248 H44641 -0.122020411977219 0.0958551275621191 0.665859582987125 H 0.0 **** 0.0
249 H44643 -0.119372803376654 0.059228426433682 0.652802244011212 H 0.0 **** 0.0
250 H44645 -0.137671645213368 0.0719124176845672 0.652132575672066 H 0.0 **** 0.0
@<TRIPOS>BOND
1 3 2 1
2 4 3 1
3 5 4 1
4 6 5 1
5 1 2 1
6 1 6 1
7 8 7 1
8 9 8 1
9 10 9 1
10 4 7 1
11 3 10 1
12 12 11 1
13 13 12 1
14 14 13 1
15 8 11 1
16 7 14 1
17 16 15 1
18 17 16 Partial double
19 18 17 1
20 13 15 1
21 12 18 1
22 20 19 Partial double
23 21 20 Partial double
24 22 21 Partial double
25 17 19 Partial double
26 16 22 Partial double
27 24 23 1
28 25 24 1
29 15 25 Double
30 22 23 1
31 27 26 1
32 28 27 Partial double
33 29 28 Partial double
34 21 26 1
35 20 29 Partial double
36 31 30 1
37 32 31 1
38 18 30 1
39 19 32 1
40 34 33 Double
41 35 34 1
42 36 35 1
43 31 33 1
44 30 36 Double
45 38 37 1
46 39 38 1
47 40 39 Double
48 34 37 1
49 33 40 1
50 42 41 1
51 43 42 1
52 44 43 1
53 40 41 1
54 39 44 1
55 46 45 Partial double
56 32 46 1
57 29 45 Partial double
58 48 47 Partial double
59 49 48 1
60 45 49 Partial double
61 28 47 Partial double
62 51 50 Partial double
63 52 51 Partial double
64 53 52 Partial double
65 48 50 Partial double
66 47 53 Partial double
67 55 54 Partial double
68 56 55 Partial double
69 57 56 Partial double
70 52 54 Partial double
71 51 57 Partial double
72 59 58 Partial double
73 60 59 Partial double
74 61 60 Partial double
75 56 58 Partial double
76 55 61 Partial double
77 63 62 Partial double
78 27 63 Partial double
79 53 62 Partial double
80 65 64 Partial double
81 62 65 Partial double
82 54 64 Partial double
83 67 66 Partial double
84 64 67 Partial double
85 61 66 Partial double
86 69 68 Partial double
87 70 69 Partial double
88 66 70 Partial double
89 60 68 Partial double
90 72 71 1
91 73 72 1
92 74 73 1
93 59 71 1
94 58 74 1
95 76 75 1
96 77 76 1
97 78 77 1
98 73 75 1
99 72 78 1
100 80 79 1
101 81 80 1
102 82 81 1
103 78 79 1
104 77 82 1
105 84 83 Partial double
106 85 84 Partial double
107 67 85 Partial double
108 65 83 Partial double
109 87 86 1
110 88 87 1
111 89 88 1
112 84 86 1
113 83 89 1
114 91 90 1
115 92 91 1
116 93 92 1
117 88 90 1
118 87 93 1
119 95 94 Partial double
120 85 95 Partial double
121 70 94 Partial double
122 97 96 Partial double
123 98 97 Partial double
124 94 98 Partial double
125 69 96 Partial double
126 100 99 Partial double
127 101 100 Partial double
128 68 101 Partial double
129 96 99 Partial double
130 103 102 1
131 104 103 Partial double
132 97 102 1
133 99 104 1
134 106 105 1
135 107 106 1
136 100 105 1
137 104 107 Partial double
138 109 108 1
139 110 109 1
140 111 110 1
141 106 108 1
142 105 111 1
143 113 112 1
144 114 113 1
145 103 114 Partial double
146 107 112 Partial double
147 108 115 1
148 112 116 Partial double
149 115 116 Partial double
150 42 117 1
151 117 118 1
152 117 119 1
153 74 120 1
154 122 121 1
155 123 122 Partial double
156 124 123 1
157 114 121 Partial double
158 113 124 Partial double
159 126 125 Partial double
160 127 126 1
161 128 127 Partial double
162 124 125 Partial double
163 123 128 Partial double
164 130 129 Partial double
165 131 130 1
166 132 131 1
167 127 129 Partial double
168 126 132 Partial double
169 134 133 Partial double
170 135 134 Partial double
171 125 135 Partial double
172 132 133 Partial double
173 137 136 Partial double
174 138 137 Partial double
175 131 138 Partial double
176 133 136 Partial double
177 140 139 Partial double
178 134 140 Partial double
179 116 135 Partial double
180 115 139 Partial double
181 142 141 Partial double
182 140 142 Partial double
183 136 141 Partial double
184 144 143 1
185 145 144 1
186 146 145 1
187 142 143 1
188 141 146 1
189 146 147 Double
190 1 148 1
191 1 149 1
192 2 150 1
193 2 151 1
194 3 152 1
195 4 153 1
196 5 154 1
197 5 155 1
198 7 156 1
199 8 157 1
200 9 158 1
201 9 159 1
202 10 160 1
203 10 161 1
204 12 162 1
205 13 163 1
206 14 164 1
207 14 165 1
208 18 166 1
209 23 167 1
210 23 168 1
211 24 169 1
212 24 170 1
213 25 171 1
214 35 173 1
215 35 174 1
216 36 175 1
217 37 176 1
218 37 177 1
219 38 178 1
220 38 179 1
221 41 180 1
222 41 181 1
223 42 182 1
224 43 183 1
225 43 184 1
226 44 185 1
227 44 186 1
228 46 187 1
229 50 188 1
230 57 189 1
231 63 190 1
232 72 191 1
233 73 192 1
234 74 193 1
235 75 194 1
236 75 195 1
237 76 196 1
238 76 197 1
239 77 198 1
240 78 199 1
241 79 200 1
242 79 201 1
243 80 202 1
244 80 203 1
245 81 204 1
246 81 205 1
247 82 206 1
248 87 207 1
249 88 208 1
250 90 209 1
251 90 210 1
252 91 211 1
253 91 212 1
254 92 213 1
255 92 214 1
256 93 215 1
257 93 216 1
258 95 217 1
259 98 218 1
260 101 219 1
261 105 220 1
262 106 221 1
263 108 222 1
264 109 223 1
265 109 224 1
266 110 225 1
267 110 226 1
268 111 227 1
269 111 228 1
270 117 229 1
271 118 230 1
272 118 231 1
273 118 232 1
274 119 233 1
275 119 234 1
276 119 235 1
277 120 236 1
278 121 237 1
279 122 238 1
280 128 239 1
281 129 240 1
282 130 241 1
283 137 242 1
284 138 243 1
285 139 244 1
286 143 245 1
287 143 246 1
288 144 247 1
289 144 248 1
290 145 249 1
291 145 250 1
292 31 172 1
@<TRIPOS>MOLECULE
Sketch 4
250 292
SMALL
USER_CHARGES


@<TRIPOS>ATOM
1 C44648 0.743156948711401 0.28440100314899 0.18497711058996 C 0.0 **** 0.0
2 C44649 0.749372257316293 0.267745007639888 0.176702256695209 C 0.0 **** 0.0
3 C44650 0.738435214707708 0.252613485276177 0.182521829826942 C 0.0 **** 0.0
4 C44651 0.73459954443407 0.254420516194344 0.201646271056303 C 0.0 **** 0.0
5 C44652 0.725549669046416 0.271618637555778 0.204902976266308 C 0.0 **** 0.0
6 O44653 0.726244358164121 0.282807369136496 0.190779847927967 O 0.0 **** 0.0
7 C44660 0.750799068469014 0.25245734033103 0.212635847445302 C 0.0 **** 0.0
8 C44661 0.763286247438841 0.23901414655737 0.205343881936167 C 0.0 **** 0.0
9 C44662 0.754506804946655 0.226742786627955 0.1933035285233 C 0.0 **** 0.0
10 C44663 0.746277100663586 0.235283260124889 0.177970606264132 C 0.0 **** 0.0
11 O44669 0.770689774512019 0.228605152618181 0.218003223962587 O 0.0 **** 0.0
12 C44670 0.777183379250159 0.237841744331557 0.232069432771389 C 0.0 **** 0.0
13 C44671 0.762163763811745 0.245080601795387 0.242668600637476 C 0.0 **** 0.0
14 C44672 0.746333462069357 0.24809636590276 0.231101505429142 C 0.0 **** 0.0
15 C44678 0.766966699029175 0.259920862247878 0.253948531811041 C 0.0 **** 0.0
16 C44679 0.785515671415187 0.263098087167122 0.256685760875969 C 0.0 **** 0.0
17 C44680 0.797041182582276 0.258332593622439 0.244368743840318 C 0.0 **** 0.0
18 C44681 0.790600928117074 0.251155414492304 0.227683080970509 C 0.0 **** 0.0
19 C44687 0.814123184419646 0.260814606445079 0.247364114668516 C 0.0 **** 0.0
20 C44688 0.819254385971039 0.267455247225947 0.262692427186965 C 0.0 **** 0.0
21 C44689 0.807712107204049 0.272376403624054 0.274962303924119 C 0.0 **** 0.0
22 C44690 0.790573965291331 0.270793658358613 0.271640826742882 C 0.0 **** 0.0
23 C44696 0.777638315725405 0.276714277801962 0.284433141582367 C 0.0 **** 0.0
24 C44697 0.761405336790885 0.282431351027327 0.275151937979781 C 0.0 **** 0.0
25 C44698 0.755579385390873 0.269007287385284 0.262779744110795 C 0.0 **** 0.0
26 O44703 0.813062904159777 0.278733858045287 0.290434152160732 O 0.0 **** 0.0
27 C44704 0.829310282798812 0.274780000318466 0.295515423565923 C 0.0 **** 0.0
28 C44705 0.842075556070507 0.271028308523562 0.284120576109767 C 0.0 **** 0.0
29 C44706 0.837674155969474 0.269206937587958 0.265893592354046 C 0.0 **** 0.0
30 C44712 0.805376768948923 0.245152454653079 0.216957523717978 C 0.0 **** 0.0
31 C44713 0.819608697697321 0.258075552408349 0.216615002023974 C 0.0 **** 0.0
32 C44714 0.827210514790554 0.255799136880783 0.234403558698192 C 0.0 **** 0.0
33 C44719 0.832624522198403 0.255746746461347 0.202180122344748 C 0.0 **** 0.0
34 C44720 0.834087420885419 0.239946699412749 0.195365536834369 C 0.0 **** 0.0
35 C44721 0.8229716067912 0.225056149091975 0.200129053408448 C 0.0 **** 0.0
36 C44722 0.807211339672362 0.229905285258338 0.2097465326233 C 0.0 **** 0.0
37 C44728 0.845475860243027 0.235770475625031 0.180791452147775 C 0.0 **** 0.0
38 C44729 0.859066672519249 0.24925803630647 0.177541935924215 C 0.0 **** 0.0
39 C44730 0.854335419237268 0.266423969527058 0.184209194518782 C 0.0 **** 0.0
40 C44731 0.841975230218903 0.26898900312683 0.196016661918434 C 0.0 **** 0.0
41 C44737 0.839261230481446 0.287377934455277 0.201986058706454 C 0.0 **** 0.0
42 C44738 0.844424485901511 0.300239489022277 0.188576764805703 C 0.0 **** 0.0
43 C44739 0.863227651665421 0.297397108668245 0.184526017966964 C 0.0 **** 0.0
44 C44740 0.865719157666737 0.279878885663534 0.176791328703985 C 0.0 **** 0.0
45 C44746 0.849343920647831 0.268003464702213 0.253418252480758 C 0.0 **** 0.0
46 C44747 0.844948247163374 0.262721314185477 0.237618736786155 C 0.0 **** 0.0
47 C44751 0.858672896039646 0.268267539429629 0.289907748634534 C 0.0 **** 0.0
48 C44752 0.872769012203172 0.268162916047752 0.278853643348365 C 0.0 **** 0.0
49 S44753 0.870229348201139 0.273581396144081 0.257704861344124 S 0.0 **** 0.0
50 C44758 0.888924938485218 0.266148480743237 0.284727333181581 C 0.0 **** 0.0
51 C44759 0.891778080057942 0.264283880225952 0.302262487153626 C 0.0 **** 0.0
52 C44760 0.877794898749285 0.263329132115119 0.313425626411306 C 0.0 **** 0.0
53 C44761 0.861479467207124 0.266109482929209 0.307357860351841 C 0.0 **** 0.0
54 C44767 0.880744348298975 0.261528734603221 0.330674545886891 C 0.0 **** 0.0
55 C44768 0.897190780938086 0.263390622935269 0.337217034829476 C 0.0 **** 0.0
56 C44769 0.910695183576782 0.268069726868722 0.326482009395709 C 0.0 **** 0.0
57 C44770 0.908158525677437 0.265860486571131 0.309070317926206 C 0.0 **** 0.0
58 C44776 0.925454306018223 0.275402174188998 0.333279958295409 C 0.0 **** 0.0
59 C44777 0.927920653635068 0.2745135247589 0.350593954687517 C 0.0 **** 0.0
60 C44778 0.914988496774209 0.268817028015084 0.361508896013597 C 0.0 **** 0.0
61 C44779 0.899803183550538 0.262848557022185 0.354545818604923 C 0.0 **** 0.0
62 C44785 0.848008680331701 0.26772367637653 0.318871425119029 C 0.0 **** 0.0
63 C44786 0.832730212258323 0.274328522119967 0.312573462164024 C 0.0 **** 0.0
64 C44790 0.867085920557433 0.259904761299871 0.341686294970714 C 0.0 **** 0.0
65 C44791 0.850477361132729 0.262300851150724 0.335891299857611 C 0.0 **** 0.0
66 C44795 0.886585165149794 0.258080211449407 0.365162255079838 C 0.0 **** 0.0
67 C44796 0.870178740326307 0.256976971590342 0.358648472808933 C 0.0 **** 0.0
68 C44800 0.916069795316877 0.270782036131466 0.379353701717861 C 0.0 **** 0.0
69 C44801 0.90425476034555 0.262435079270085 0.389636219304492 C 0.0 **** 0.0
70 C44802 0.889305108563054 0.256502985663385 0.382508910653236 C 0.0 **** 0.0
71 O44807 0.943508746496977 0.279094085240336 0.35733166841665 O 0.0 **** 0.0
72 C44808 0.94975719587425 0.295134091028116 0.351915935849795 C 0.0 **** 0.0
73 C44809 0.945194859729188 0.299407686746004 0.333321762641938 C 0.0 **** 0.0
74 C44810 0.939681063867048 0.283778329579118 0.323227476004354 C 0.0 **** 0.0
75 C44816 0.958943299874439 0.310442977841794 0.32486199475728 C 0.0 **** 0.0
76 C44817 0.96549616154554 0.323464733744909 0.337599351027909 C 0.0 **** 0.0
77 C44818 0.975272751610049 0.314879430192164 0.35210074595 C 0.0 **** 0.0
78 C44819 0.968961550635903 0.296511976383809 0.355362759536656 C 0.0 **** 0.0
79 C44825 0.974075324118223 0.289876661017578 0.373075495602007 C 0.0 **** 0.0
80 C44826 0.989453235691395 0.299753869544299 0.379443010800683 C 0.0 **** 0.0
81 C44827 0.985951313206179 0.318910154326781 0.380890589806131 C 0.0 **** 0.0
82 N44828 0.975152401261408 0.325462076452264 0.367134792411863 N 0.0 **** 0.0
83 C44834 0.83667455738277 0.259481449445442 0.346955409160125 C 0.0 **** 0.0
84 C44835 0.83967910241215 0.255876261627404 0.363813074755657 C 0.0 **** 0.0
85 C44836 0.856491200057452 0.254368785582709 0.369602348892865 C 0.0 **** 0.0
86 O44841 0.826875389847508 0.253877001999053 0.375584644083879 O 0.0 **** 0.0
87 C44842 0.810289300775131 0.252464537924146 0.368667495445839 C 0.0 **** 0.0
88 C44843 0.807960171961328 0.263856806062538 0.353653474708451 C 0.0 **** 0.0
89 O44844 0.820254154306852 0.260374246496972 0.340947819660536 O 0.0 **** 0.0
90 C44850 0.808064914855016 0.282963524228226 0.357990386449036 C 0.0 **** 0.0
91 C44851 0.806069763840483 0.286583894336486 0.376965506996501 C 0.0 **** 0.0
92 C44852 0.792877913231526 0.274977284072786 0.385020135425616 C 0.0 **** 0.0
93 C44853 0.797739259378349 0.256093760300726 0.383098880028476 C 0.0 **** 0.0
94 C44859 0.875851142506313 0.251948279363124 0.393432103441077 C 0.0 **** 0.0
95 C44860 0.859420665756819 0.250887555921804 0.386724983334456 C 0.0 **** 0.0
96 C44864 0.90572872242801 0.263563141159838 0.40724017674184 C 0.0 **** 0.0
97 C44865 0.893733841272744 0.255834183851621 0.417942700928176 C 0.0 **** 0.0
98 C44866 0.878713242348214 0.250510549369149 0.41101558914566 C 0.0 **** 0.0
99 C44871 0.917186951743733 0.275016895411698 0.41462074405255 C 0.0 **** 0.0
100 C44872 0.926861628753764 0.285536843239926 0.404586192575765 C 0.0 **** 0.0
101 C44873 0.926370159668171 0.283024399173997 0.387401970490429 C 0.0 **** 0.0
102 O44878 0.89603749915193 0.25485825353902 0.435256401744159 O 0.0 **** 0.0
103 C44879 0.908033068550522 0.265123450950465 0.442752499645346 C 0.0 **** 0.0
104 C44880 0.917927935563967 0.275826708522736 0.433428155170138 C 0.0 **** 0.0
105 C44885 0.93814170567493 0.299445781479983 0.411433978620549 C 0.0 **** 0.0
106 C44886 0.94097123806155 0.298192606112421 0.431272124432084 C 0.0 **** 0.0
107 C44887 0.92919612354327 0.286416584276142 0.441036024632957 C 0.0 **** 0.0
108 C44892 0.940978744809624 0.315782283841781 0.439838267057534 C 0.0 **** 0.0
109 C44893 0.951003217398019 0.328661781518609 0.429266779640106 C 0.0 **** 0.0
110 C44894 0.94282206685204 0.331318878904767 0.411656352337696 C 0.0 **** 0.0
111 C44895 0.930944088988065 0.316752220843668 0.406499409996695 C 0.0 **** 0.0
112 C44901 0.930546867011996 0.286302006480191 0.458191428950239 C 0.0 **** 0.0
113 C44902 0.922046123543447 0.274388605999574 0.467465935381341 C 0.0 **** 0.0
114 C44903 0.910606479801184 0.263980254962922 0.459832753215078 C 0.0 **** 0.0
115 C44908 0.947374118600264 0.313340451413176 0.45791134367755 C 0.0 **** 0.0
116 C44910 0.942115394963421 0.298945970951678 0.466451881894909 C 0.0 **** 0.0
117 C44913 0.83974742494071 0.318591790991914 0.193478520270714 C 0.0 **** 0.0
118 C44915 0.849951732699167 0.325792122596088 0.208309094345186 C 0.0 **** 0.0
119 C44917 0.841044069885873 0.330540857673329 0.178269068077812 C 0.0 **** 0.0
120 O44919 0.934549323907712 0.289094174336413 0.306827935904841 O 0.0 **** 0.0
121 C44921 0.902106783357165 0.25222894286851 0.469289916719726 C 0.0 **** 0.0
122 C44922 0.905608257315109 0.250344625069763 0.486065473193409 C 0.0 **** 0.0
123 C44923 0.917437878853607 0.260364187808569 0.493679503296149 C 0.0 **** 0.0
124 C44924 0.925294620424888 0.272638684073452 0.484348856036634 C 0.0 **** 0.0
125 C44930 0.938001527742826 0.283698412160612 0.492579005332918 C 0.0 **** 0.0
126 C44931 0.941445588971107 0.281362893024266 0.509323213216949 C 0.0 **** 0.0
127 C44932 0.932849872370063 0.267657024090784 0.518683403664976 C 0.0 **** 0.0
128 C44933 0.921203338802768 0.257715297701645 0.510512860820413 C 0.0 **** 0.0
129 C44939 0.936504109666397 0.265359435769808 0.535453460124472 C 0.0 **** 0.0
130 C44940 0.947695909327384 0.275723726664283 0.543756471665669 C 0.0 **** 0.0
131 C44941 0.955678242694414 0.288814928817103 0.53567582643222 C 0.0 **** 0.0
132 C44942 0.952701180587006 0.291700407954471 0.517434524026132 C 0.0 **** 0.0
133 C44948 0.960488928297633 0.30525025691332 0.508966621643702 C 0.0 **** 0.0
134 C44949 0.956948876052199 0.307719533889919 0.491857999710292 C 0.0 **** 0.0
135 C44950 0.946076478312681 0.296563252580121 0.483471361966082 C 0.0 **** 0.0
136 C44955 0.969950031446856 0.317246742928563 0.517867138437051 C 0.0 **** 0.0
137 C44956 0.973580588911501 0.31275063812758 0.536218277959757 C 0.0 **** 0.0
138 C44957 0.966412834574367 0.299225418332049 0.544243500171554 C 0.0 **** 0.0
139 C44962 0.957152874909107 0.324862986312976 0.466594077720703 C 0.0 **** 0.0
140 C44963 0.962424703897588 0.322464082007454 0.483630833582626 C 0.0 **** 0.0
141 C44968 0.974497786935349 0.332405062219167 0.510005311226581 C 0.0 **** 0.0
142 C44969 0.971437613641119 0.334850101815663 0.492812093792835 C 0.0 **** 0.0
143 C44973 0.976791567835471 0.351109336511373 0.483829340952303 C 0.0 **** 0.0
144 C44974 0.992756550125797 0.358684875895321 0.491616847456471 C 0.0 **** 0.0
145 C44975 0.989538698265995 0.361278457084727 0.510227251669821 C 0.0 **** 0.0
146 C44976 0.982391919869323 0.346562965718178 0.51989253831202 C 0.0 **** 0.0
147 O44982 0.982743959722534 0.347349348667052 0.535205539336164 O 0.0 **** 0.0
148 H44984 0.743210278521342 0.294896916039272 0.175867302287947 H 0.0 **** 0.0
149 H44986 0.751648152062451 0.288141984429985 0.195397234793346 H 0.0 **** 0.0
150 H44988 0.748979518165287 0.268577028427039 0.162816766680144 H 0.0 **** 0.0
151 H44990 0.762751430294408 0.265529637395 0.179895714110227 H 0.0 **** 0.0
152 H44992 0.726237686558534 0.253769128729352 0.175785841573753 H 0.0 **** 0.0
153 H44994 0.726071550416707 0.243933585638923 0.205174938932525 H 0.0 **** 0.0
154 H44996 0.730662784305648 0.277934650207973 0.216250651489163 H 0.0 **** 0.0
155 H44998 0.71200985831906 0.269643572749871 0.207282308084191 H 0.0 **** 0.0
156 H45000 0.757304445657529 0.264806623215957 0.212859153532219 H 0.0 **** 0.0
157 H45002 0.7733653533749 0.245534868001665 0.198206970584791 H 0.0 **** 0.0
158 H45004 0.744859820099015 0.219876404121259 0.200672918930165 H 0.0 **** 0.0
159 H45006 0.76381370087287 0.21723296915944 0.189208273287213 H 0.0 **** 0.0
160 H45008 0.736556061117501 0.226777095555272 0.172757978370257 H 0.0 **** 0.0
161 H45010 0.755778156692337 0.236880571747727 0.167903323395896 H 0.0 **** 0.0
162 H45012 0.78343983017465 0.228082495057903 0.239775990868481 H 0.0 **** 0.0
163 H45014 0.758272580281162 0.235066932658043 0.251583993394238 H 0.0 **** 0.0
164 H45016 0.737429832441864 0.257393531268344 0.236374723288881 H 0.0 **** 0.0
165 H45018 0.739317428262744 0.236006831463421 0.23082395921276 H 0.0 **** 0.0
166 H45020 0.784560331123778 0.261558595365637 0.220550425406756 H 0.0 **** 0.0
167 H45022 0.774722113762332 0.266457920209981 0.293390211294604 H 0.0 **** 0.0
168 H45024 0.782648956235068 0.287261378766997 0.29200296577809 H 0.0 **** 0.0
169 H45026 0.763918225916805 0.29420266703853 0.268200349549385 H 0.0 **** 0.0
170 H45028 0.75135455766702 0.28531555134613 0.28436581250114 H 0.0 **** 0.0
171 H45030 0.741986154516153 0.267120024920029 0.261790362782259 H 0.0 **** 0.0
172 H45032 0.813783562197182 0.270678198585527 0.215624342425119 H 0.0 **** 0.0
173 H45033 0.830389455400211 0.215838974809638 0.207515694861307 H 0.0 **** 0.0
174 H45035 0.819016356105175 0.218577528362512 0.188372906758579 H 0.0 **** 0.0
175 H45037 0.797437958770079 0.220267978137747 0.21073419101338 H 0.0 **** 0.0
176 H45039 0.851498871260187 0.223371258826564 0.182976979964877 H 0.0 **** 0.0
177 H45041 0.837546585929063 0.234340793977459 0.169400024846472 H 0.0 **** 0.0
178 H45043 0.861654594023474 0.249977159952927 0.163838338209923 H 0.0 **** 0.0
179 H45045 0.871007164810301 0.245513794534853 0.18367937933186 H 0.0 **** 0.0
180 H45047 0.825938139965335 0.289605369172589 0.205246296875784 H 0.0 **** 0.0
181 H45049 0.846586642233706 0.289523892330521 0.213633293333277 H 0.0 **** 0.0
182 H45051 0.83712712673469 0.297386359942389 0.176976360799784 H 0.0 **** 0.0
183 H45053 0.870634346135669 0.298513142868675 0.196286036726091 H 0.0 **** 0.0
184 H45055 0.868220309617453 0.307033296684594 0.175789609568325 H 0.0 **** 0.0
185 H45057 0.87902833697948 0.27584510751696 0.178019982087625 H 0.0 **** 0.0
186 H45059 0.863040176703788 0.280570710645982 0.16310153564345 H 0.0 **** 0.0
187 H45061 0.854166414891651 0.26226450534105 0.227410707359075 H 0.0 **** 0.0
188 H45063 0.899823165472462 0.2673468102609 0.276222878381282 H 0.0 **** 0.0
189 H45065 0.918590694520545 0.26723875043761 0.300052221089759 H 0.0 **** 0.0
190 H45067 0.822115623290696 0.277736111686105 0.320783866374378 H 0.0 **** 0.0
191 H45069 0.943659590694414 0.30481729107023 0.359882155695794 H 0.0 **** 0.0
192 H45071 0.933857646507969 0.307586171538254 0.333615647962697 H 0.0 **** 0.0
193 H45073 0.950253475038306 0.274925100967251 0.321396387689497 H 0.0 **** 0.0
194 H45075 0.969528394904165 0.302668546394656 0.320187410989732 H 0.0 **** 0.0
195 H45077 0.953522572904688 0.316977753528265 0.313819059328136 H 0.0 **** 0.0
196 H45079 0.954512952969114 0.330372652107914 0.342718724865102 H 0.0 **** 0.0
197 H45081 0.973525173904523 0.33305567470498 0.331483988466312 H 0.0 **** 0.0
198 H45083 0.988591543113264 0.313992809430636 0.348036329057802 H 0.0 **** 0.0
199 H45085 0.975314547670716 0.288408460864957 0.345927041855642 H 0.0 **** 0.0
200 H45087 0.963630758699137 0.29160244463449 0.382092631559455 H 0.0 **** 0.0
201 H45089 0.976683166520043 0.27620129697135 0.37260165473914 H 0.0 **** 0.0
202 H45091 0.999777053589 0.29781280705577 0.370277766986164 H 0.0 **** 0.0
203 H45093 0.994033412749577 0.294973350298888 0.391679274802714 H 0.0 **** 0.0
204 H45095 0.998004251406534 0.32591642014421 0.380766203312792 H 0.0 **** 0.0
205 H45097 0.97995366414023 0.321740684773971 0.393135367103121 H 0.0 **** 0.0
206 H45099 0.963246361049602 0.32709387864596 0.371084921310594 H 0.0 **** 0.0
207 H45101 0.808819998699963 0.239281664064177 0.364349052910931 H 0.0 **** 0.0
208 H45103 0.795539457319998 0.260703021796856 0.348186646862112 H 0.0 **** 0.0
209 H45105 0.820028693746381 0.288453696929291 0.353485776593542 H 0.0 **** 0.0
210 H45107 0.798045107465255 0.289541868429468 0.350908312179105 H 0.0 **** 0.0
211 H45109 0.802907150061728 0.299990930533496 0.379002765620586 H 0.0 **** 0.0
212 H45111 0.818286556095926 0.284269905332884 0.383197908801536 H 0.0 **** 0.0
213 H45113 0.78064482462821 0.27735026557543 0.378845683347384 H 0.0 **** 0.0
214 H45115 0.791089058880394 0.278090131508971 0.398484942605586 H 0.0 **** 0.0
215 H45117 0.786190322295397 0.248549127265656 0.381816524337243 H 0.0 **** 0.0
216 H45119 0.803903002163032 0.251712487636799 0.394798396903438 H 0.0 **** 0.0
217 H45121 0.848742432130375 0.248527941871395 0.395292523669034 H 0.0 **** 0.0
218 H45123 0.868382388331837 0.246293664200784 0.4193050830836 H 0.0 **** 0.0
219 H45125 0.934253297680985 0.291567002403842 0.379996692942221 H 0.0 **** 0.0
220 H45127 0.950768341720861 0.298268235144957 0.405631451766584 H 0.0 **** 0.0
221 H45129 0.953804589364383 0.292857621710612 0.432770463033687 H 0.0 **** 0.0
222 H45131 0.927801646242985 0.320354562276284 0.440657938767294 H 0.0 **** 0.0
223 H45133 0.964020589730953 0.323926444854123 0.427730281270847 H 0.0 **** 0.0
224 H45135 0.951930720282044 0.340989017625775 0.435650862538333 H 0.0 **** 0.0
225 H45137 0.952797466139252 0.332786896035194 0.402047066731399 H 0.0 **** 0.0
226 H45139 0.935638342576004 0.34326003066308 0.411538802371459 H 0.0 **** 0.0
227 H45141 0.928296645020387 0.317552717123862 0.392837595391668 H 0.0 **** 0.0
228 H45143 0.918694411652672 0.318262987152206 0.412944645730442 H 0.0 **** 0.0
229 H45145 0.826303482025233 0.318473075896282 0.197352185708826 H 0.0 **** 0.0
230 H45147 0.845399467213006 0.338537667701007 0.211588292053075 H 0.0 **** 0.0
231 H45149 0.863446315689564 0.326851513259855 0.205074581367449 H 0.0 **** 0.0
232 H45151 0.848894591271828 0.317930745571167 0.219735307610926 H 0.0 **** 0.0
233 H45153 0.833694459851449 0.325856720401586 0.16741843563828 H 0.0 **** 0.0
234 H45155 0.854246428724547 0.332000994130651 0.174165458087227 H 0.0 **** 0.0
235 H45157 0.836187646591612 0.343188891107304 0.181426594744797 H 0.0 **** 0.0
236 H45159 0.923933175446265 0.294574036326962 0.308368122328462 H 0.0 **** 0.0
237 H45161 0.892794576843351 0.243814859365337 0.46355718002094 H 0.0 **** 0.0
238 H45163 0.898946973749508 0.240549983862625 0.493132715048626 H 0.0 **** 0.0
239 H45165 0.914787328225886 0.247666635352875 0.517482613216005 H 0.0 **** 0.0
240 H45167 0.930379238660576 0.255322051705658 0.542672812201422 H 0.0 **** 0.0
241 H45169 0.949914887086127 0.273428175041412 0.557187752946655 H 0.0 **** 0.0
242 H45171 0.982334994116889 0.320475191823801 0.543470060181957 H 0.0 **** 0.0
243 H45173 0.969338285754637 0.297086898654711 0.557540897766745 H 0.0 **** 0.0
244 H45175 0.960514462854544 0.336498454430211 0.459912317516314 H 0.0 **** 0.0
245 H45177 0.979409963124837 0.3488297676562 0.470372813833516 H 0.0 **** 0.0
246 H45179 0.966402562930319 0.360436613487454 0.484398805220503 H 0.0 **** 0.0
247 H45181 0.995986013174963 0.37084770166508 0.485648797076464 H 0.0 **** 0.0
248 H45183 1.00349678867157 0.350093333091862 0.489417835778312 H 0.0 **** 0.0
249 H45185 0.980021714453586 0.371231605762595 0.512030314158119 H 0.0 **** 0.0
250 H45187 1.00049476878224 0.364930021227904 0.517930222756344 H 0.0 **** 0.0
@<TRIPOS>BOND
1 3 2 1
2 4 3 1
3 5 4 1
4 6 5 1
5 1 2 1
6 1 6 1
7 8 7 1
8 9 8 1
9 10 9 1
10 4 7 1
11 3 10 1
12 12 11 1
13 13 12 1
14 14 13 1
15 8 11 1
16 7 14 1
17 16 15 1
18 17 16 Partial double
19 18 17 1
20 13 15 1
21 12 18 1
22 20 19 Partial double
23 21 20 Partial double
24 22 21 Partial double
25 17 19 Partial double
26 16 22 Partial double
27 24 23 1
28 25 24 1
29 15 25 Double
30 22 23 1
31 27 26 1
32 28 27 Partial double
33 29 28 Partial double
34 21 26 1
35 20 29 Partial double
36 31 30 1
37 32 31 1
38 18 30 1
39 19 32 1
40 34 33 Double
41 35 34 1
42 36 35 1
43 31 33 1
44 30 36 Double
45 38 37 1
46 39 38 1
47 40 39 Double
48 34 37 1
49 33 40 1
50 42 41 1
51 43 42 1
52 44 43 1
53 40 41 1
54 39 44 1
55 46 45 Partial double
56 32 46 1
57 29 45 Partial double
58 48 47 Partial double
59 49 48 1
60 45 49 Partial double
61 28 47 Partial double
62 51 50 Partial double
63 52 51 Partial double
64 53 52 Partial double
65 48 50 Partial double
66 47 53 Partial double
67 55 54 Partial double
68 56 55 Partial double
69 57 56 Partial double
70 52 54 Partial double
71 51 57 Partial double
72 59 58 Partial double
73 60 59 Partial double
74 61 60 Partial double
75 56 58 Partial double
76 55 61 Partial double
77 63 62 Partial double
78 27 63 Partial double
79 53 62 Partial double
80 65 64 Partial double
81 62 65 Partial double
82 54 64 Partial double
83 67 66 Partial double
84 64 67 Partial double
85 61 66 Partial double
86 69 68 Partial double
87 70 69 Partial double
88 66 70 Partial double
89 60 68 Partial double
90 72 71 1
91 73 72 1
92 74 73 1
93 59 71 1
94 58 74 1
95 76 75 1
96 77 76 1
97 78 77 1
98 73 75 1
99 72 78 1
100 80 79 1
101 81 80 1
102 82 81 1
103 78 79 1
104 77 82 1
105 84 83 Partial double
106 85 84 Partial double
107 67 85 Partial double
108 65 83 Partial double
109 87 86 1
110 88 87 1
111 89 88 1
112 84 86 1
113 83 89 1
114 91 90 1
115 92 91 1
116 93 92 1
117 88 90 1
118 87 93 1
119 95 94 Partial double
120 85 95 Partial double
121 70 94 Partial double
122 97 96 Partial double
123 98 97 Partial double
124 94 98 Partial double
125 69 96 Partial double
126 100 99 Partial double
127 101 100 Partial double
128 68 101 Partial double
129 96 99 Partial double
130 103 102 1
131 104 103 Partial double
132 97 102 1
133 99 104 1
134 106 105 1
135 107 106 1
136 100 105 1
137 104 107 Partial double
138 109 108 1
139 110 109 1
140 111 110 1
141 106 108 1
142 105 111 1
143 113 112 1
144 114 113 1
145 103 114 Partial double
146 107 112 Partial double
147 108 115 1
148 112 116 Partial double
149 115 116 Partial double
150 42 117 1
151 117 118 1
152 117 119 1
153 74 120 1
154 122 121 1
155 123 122 Partial double
156 124 123 1
157 114 121 Partial double
158 113 124 Partial double
159 126 125 Partial double
160 127 126 1
161 128 127 Partial double
162 124 125 Partial double
163 123 128 Partial double
164 130 129 Partial double
165 131 130 1
166 132 131 1
167 127 129 Partial double
168 126 132 Partial double
169 134 133 Partial double
170 135 134 Partial double
171 125 135 Partial double
172 132 133 Partial double
173 137 136 Partial double
174 138 137 Partial double
175 131 138 Partial double
176 133 136 Partial double
177 140 139 Partial double
178 134 140 Partial double
179 116 135 Partial double
180 115 139 Partial double
181 142 141 Partial double
182 140 142 Partial double
183 136 141 Partial double
184 144 143 1
185 145 144 1
186 146 145 1
187 142 143 1
188 141 146 1
189 146 147 Double
190 1 148 1
191 1 149 1
192 2 150 1
193 2 151 1
194 3 152 1
195 4 153 1
196 5 154 1
197 5 155 1
198 7 156 1
199 8 157 1
200 9 158 1
201 9 159 1
202 10 160 1
203 10 161 1
204 12 162 1
205 13 163 1
206 14 164 1
207 14 165 1
208 18 166 1
209 23 167 1
210 23 168 1
211 24 169 1
212 24 170 1
213 25 171 1
214 35 173 1
215 35 174 1
216 36 175 1
217 37 176 1
218 37 177 1
219 38 178 1
220 38 179 1
221 41 180 1
222 41 181 1
223 42 182 1
224 43 183 1
225 43 184 1
226 44 185 1
227 44 186 1
228 46 187 1
229 50 188 1
230 57 189 1
231 63 190 1
232 72 191 1
233 73 192 1
234 74 193 1
235 75 194 1
236 75 195 1
237 76 196 1
238 76 197 1
239 77 198 1
240 78 199 1
241 79 200 1
242 79 201 1
243 80 202 1
244 80 203 1
245 81 204 1
246 81 205 1
247 82 206 1
248 87 207 1
249 88 208 1
250 90 209 1
251 90 210 1
252 91 211 1
253 91 212 1
254 92 213 1
255 92 214 1
256 93 215 1
257 93 216 1
258 95 217 1
259 98 218 1
260 101 219 1
261 105 220 1
262 106 221 1
263 108 222 1
264 109 223 1
265 109 224 1
266 110 225 1
267 110 226 1
268 111 227 1
269 111 228 1
270 117 229 1
271 118 230 1
272 118 231 1
273 118 232 1
274 119 233 1
275 119 234 1
276 119 235 1
277 120 236 1
278 121 237 1
279 122 238 1
280 128 239 1
281 129 240 1
282 130 241 1
283 137 242 1
284 138 243 1
285 139 244 1
286 143 245 1
287 143 246 1
288 144 247 1
289 144 248 1
290 145 249 1
291 145 250 1
292 31 172 1
@<TRIPOS>MOLECULE
Sketch 4
250 292
SMALL
USER_CHARGES


@<TRIPOS>ATOM
1 C45190 0.913090321564286 0.259831468887784 1.13399983034242 C 0.0 **** 0.0
2 C45191 0.909465934461676 0.278177757257772 1.13978495552137 C 0.0 **** 0.0
3 C45192 0.894983396823083 0.28571845134649 1.12924686483136 C 0.0 **** 0.0
4 C45193 0.89969867911302 0.285221849429095 1.1099832679395 C 0.0 **** 0.0
5 C45194 0.91337063004004 0.271593518855099 1.10682596604517 C 0.0 **** 0.0
6 O45195 0.909595785169205 0.256959652085423 1.11654169659474 O 0.0 **** 0.0
7 C45202 0.903780480753057 0.303155470209568 1.10336456361048 C 0.0 **** 0.0
8 C45203 0.887780155587267 0.314441922299784 1.10485007515547 C 0.0 **** 0.0
9 C45204 0.878351234616662 0.31191506697922 1.1217558072155 C 0.0 **** 0.0
10 C45205 0.889270217011575 0.303359487992962 1.13527611687865 C 0.0 **** 0.0
11 O45211 0.875560715382982 0.310227232764541 1.09224638873645 O 0.0 **** 0.0
12 C45212 0.881289049011967 0.311226732576497 1.07511612206872 C 0.0 **** 0.0
13 C45213 0.896502533399859 0.299429808253966 1.0726179628779 C 0.0 **** 0.0
14 C45214 0.910639806962097 0.303752152875094 1.08508651132863 C 0.0 **** 0.0
15 C45220 0.901625593397761 0.298925053151742 1.05417312372774 C 0.0 **** 0.0
16 C45221 0.899205165883011 0.314748420556124 1.04372580327511 C 0.0 **** 0.0
17 C45222 0.89119889053936 0.328814289388211 1.05063482441154 C 0.0 **** 0.0
18 C45223 0.885113902134485 0.32921919236079 1.06898573010683 C 0.0 **** 0.0
19 C45229 0.888838161493422 0.342986084807718 1.04049996593406 C 0.0 **** 0.0
20 C45230 0.894425627005111 0.342849310477878 1.02392857674766 C 0.0 **** 0.0
21 C45231 0.901786129639039 0.328633402737025 1.01682268903401 C 0.0 **** 0.0
22 C45232 0.904618779663018 0.314576548172881 1.02697055800713 C 0.0 **** 0.0
23 C45238 0.914220218003554 0.299576896316092 1.01983919638854 C 0.0 **** 0.0
24 C45239 0.908600661368379 0.282682317175441 1.02793237916476 C 0.0 **** 0.0
25 C45240 0.906085171380657 0.284215948480405 1.04676721613698 C 0.0 **** 0.0
26 O45245 0.906490272020383 0.328332505300031 0.999845553961574 O 0.0 **** 0.0
27 C45246 0.901281658680696 0.341328270350968 0.989286749133973 C 0.0 **** 0.0
28 C45247 0.895965246845623 0.356826001647507 0.995357391611499 C 0.0 **** 0.0
29 C45248 0.893167350507597 0.358777405310182 1.01393872388236 C 0.0 **** 0.0
30 C45254 0.870426528256199 0.341344074671277 1.06980978559175 C 0.0 **** 0.0
31 C45255 0.876037928561359 0.359214138293925 1.06567976258732 C 0.0 **** 0.0
32 C45256 0.879150229569787 0.358421217563481 1.04645086298192 C 0.0 **** 0.0
33 C45261 0.862741047946022 0.372904175785057 1.0701454356259 C 0.0 **** 0.0
34 C45262 0.846152488693556 0.368079300207794 1.06952143253529 C 0.0 **** 0.0
35 C45263 0.840228180129704 0.349951789489803 1.0675040354122 C 0.0 **** 0.0
36 C45264 0.854007904505701 0.337081822353116 1.0704787072626 C 0.0 **** 0.0
37 C45270 0.831619228711166 0.379602647733476 1.07331490443363 C 0.0 **** 0.0
38 C45271 0.836468912878704 0.39836216673676 1.07269884762858 C 0.0 **** 0.0
39 C45272 0.854880667995995 0.401273524482835 1.0764808050841 C 0.0 **** 0.0
40 C45273 0.866980501719456 0.38900166168984 1.07499637816913 C 0.0 **** 0.0
41 C45279 0.885345506228039 0.394226562389561 1.07910993518799 C 0.0 **** 0.0
42 C45280 0.88597803888366 0.409233404964907 1.09126049524256 C 0.0 **** 0.0
43 C45281 0.876716587095743 0.423992949089866 1.08263940308957 C 0.0 **** 0.0
44 C45282 0.858023735276254 0.419604226475314 1.08083741607009 C 0.0 **** 0.0
45 C45288 0.889505339102098 0.373826082438734 1.02130753974066 C 0.0 **** 0.0
46 C45289 0.883869627636613 0.374761399448569 1.03752883537909 C 0.0 **** 0.0
47 C45293 0.891723504034633 0.369893706826685 0.983925780338851 C 0.0 **** 0.0
48 C45294 0.887525112632578 0.38629501582944 0.989599055266642 C 0.0 **** 0.0
49 S45295 0.892700932028358 0.392291399868221 1.00990977028337 S 0.0 **** 0.0
50 C45300 0.879745403560489 0.397882311054954 0.979428738845756 C 0.0 **** 0.0
51 C45301 0.876044188817298 0.393456224539391 0.962557368322151 C 0.0 **** 0.0
52 C45302 0.881578062994568 0.377622477699737 0.956108304216302 C 0.0 **** 0.0
53 C45303 0.890196383970435 0.36630551024709 0.966571497312263 C 0.0 **** 0.0
54 C45309 0.876964893476831 0.373065114458798 0.939736013588988 C 0.0 **** 0.0
55 C45310 0.866369260542455 0.383581705470491 0.930125158500668 C 0.0 **** 0.0
56 C45311 0.85907100590642 0.398363544296076 0.937203738492982 C 0.0 **** 0.0
57 C45312 0.865662175710733 0.403915933547189 0.952674596627029 C 0.0 **** 0.0
58 C45318 0.845595276491382 0.406474138630419 0.928892272298738 C 0.0 **** 0.0
59 C45319 0.84313157539998 0.403163221706051 0.91189018948476 C 0.0 **** 0.0
60 C45320 0.851522131870525 0.389426095946781 0.904033092051422 C 0.0 **** 0.0
61 C45321 0.861588153661118 0.378779691758093 0.913954185993932 C 0.0 **** 0.0
62 C45327 0.895575724143801 0.350578684215676 0.960246513496728 C 0.0 **** 0.0
63 C45328 0.901439491462936 0.3385606926685 0.972109959779837 C 0.0 **** 0.0
64 C45332 0.881977301715155 0.357378268047654 0.933401160361388 C 0.0 **** 0.0
65 C45333 0.892675913780678 0.346793908562881 0.942817994566538 C 0.0 **** 0.0
66 C45337 0.865434564021275 0.362551514057858 0.908201816117841 C 0.0 **** 0.0
67 C45338 0.87576864265554 0.352059387476703 0.917890623466151 C 0.0 **** 0.0
68 C45342 0.847907048511734 0.384676485654068 0.887173478371263 C 0.0 **** 0.0
69 C45343 0.849411607123633 0.367549266701588 0.882740200833027 C 0.0 **** 0.0
70 C45344 0.858400561199766 0.356667956869237 0.893132313724526 C 0.0 **** 0.0
71 O45349 0.83137394720955 0.41275954568731 0.902976648882459 O 0.0 **** 0.0
72 C45350 0.833713184257139 0.430600067480897 0.905670697682663 C 0.0 **** 0.0
73 C45351 0.835535685558494 0.435421308794302 0.92482378907467 C 0.0 **** 0.0
74 C45352 0.833394061571721 0.419663621355532 0.935762160993382 C 0.0 **** 0.0
75 C45358 0.823599898669605 0.449966730937377 0.930150955316441 C 0.0 **** 0.0
76 C45359 0.824891501315699 0.465229008052203 0.918154655380449 C 0.0 **** 0.0
77 C45360 0.822294794267474 0.460002143514847 0.899484995972594 C 0.0 **** 0.0
78 C45361 0.819229739582633 0.440864900998682 0.897387619353553 C 0.0 **** 0.0
79 C45367 0.815416362934514 0.436527455270697 0.878657776996528 C 0.0 **** 0.0
80 C45368 0.822846213290282 0.449890914726019 0.866543833267554 C 0.0 **** 0.0
81 C45369 0.839585159435048 0.456821407495197 0.873210870816173 C 0.0 **** 0.0
82 N45370 0.836598253121745 0.466038544733238 0.889176784949578 N 0.0 **** 0.0
83 C45376 0.899216501945067 0.331969699097981 0.935260013471215 C 0.0 **** 0.0
84 C45377 0.891903743051018 0.325853139404683 0.920515467445175 C 0.0 **** 0.0
85 C45378 0.87974246643716 0.335806944016636 0.912021537061922 C 0.0 **** 0.0
86 O45383 0.896257413994368 0.310424738687801 0.913445427386516 O 0.0 **** 0.0
87 C45384 0.905421525611783 0.299845760996906 0.92483002339492 C 0.0 **** 0.0
88 C45385 0.919223407429967 0.309777045010696 0.933210830836126 C 0.0 **** 0.0
89 O45386 0.912253342366303 0.32316812662613 0.943094731831406 O 0.0 **** 0.0
90 C45392 0.93240034343439 0.316697693225654 0.920450219931366 C 0.0 **** 0.0
91 C45393 0.93204650421186 0.307679091223488 0.903177632265737 C 0.0 **** 0.0
92 C45394 0.928788717621832 0.28867706584636 0.90517705116768 C 0.0 **** 0.0
93 C45395 0.912289957378319 0.284627976761929 0.914949055520847 C 0.0 **** 0.0
94 C45401 0.86119276350941 0.339858084194969 0.887670250050602 C 0.0 **** 0.0
95 C45402 0.872125714711084 0.329590493190241 0.897236337837125 C 0.0 **** 0.0
96 C45406 0.843254013550829 0.362077581752576 0.867103943152412 C 0.0 **** 0.0
97 C45407 0.844308010309134 0.344858999846217 0.862492534062417 C 0.0 **** 0.0
98 C45408 0.853488689486741 0.334069152757485 0.872570358202914 C 0.0 **** 0.0
99 C45413 0.837764693124267 0.373872417660829 0.854975711484368 C 0.0 **** 0.0
100 C45414 0.838896119072422 0.391062137620652 0.858178482266772 C 0.0 **** 0.0
101 C45415 0.843598073711967 0.396157792348914 0.874167404206389 C 0.0 **** 0.0
102 O45420 0.837051426262982 0.338752527640746 0.847819343296229 O 0.0 **** 0.0
103 C45421 0.831319840323938 0.350075232440041 0.835775169079519 C 0.0 **** 0.0
104 C45422 0.831692476174916 0.367188700625095 0.838383938270488 C 0.0 **** 0.0
105 C45427 0.835131680919085 0.404487664303955 0.845022939351512 C 0.0 **** 0.0
106 C45428 0.825584969218837 0.397279364211886 0.828879596521384 C 0.0 **** 0.0
107 C45429 0.826073071130417 0.378129980221092 0.826266375929861 C 0.0 **** 0.0
108 C45434 0.831669193473985 0.406115035056688 0.812543339281182 C 0.0 **** 0.0
109 C45435 0.833894921085963 0.425209490566035 0.815207666316368 C 0.0 **** 0.0
110 C45436 0.848179349223289 0.428718101151346 0.828113661913838 C 0.0 **** 0.0
111 C45437 0.851525137642585 0.413663621984919 0.840086127841593 C 0.0 **** 0.0
112 C45443 0.820379687777981 0.371889333980645 0.811203708778897 C 0.0 **** 0.0
113 C45444 0.81933331758017 0.354751186267248 0.808762804165465 C 0.0 **** 0.0
114 C45445 0.824810293926852 0.343876107459108 0.820983831806139 C 0.0 **** 0.0
115 C45450 0.819724784704085 0.401042939652592 0.798249713254466 C 0.0 **** 0.0
116 C45452 0.814945221841338 0.384159576567373 0.797614048241944 C 0.0 **** 0.0
117 C45455 0.903963289281986 0.413409939054193 1.09773613176203 C 0.0 **** 0.0
118 C45457 0.916475054546847 0.418330354039449 1.083826816956 C 0.0 **** 0.0
119 C45459 0.903663492565554 0.427396794889007 1.1111771451498 C 0.0 **** 0.0
120 O45461 0.835518891288448 0.423707775438571 0.953170145797082 O 0.0 **** 0.0
121 C45463 0.823710939054446 0.326797218474699 0.818359634377794 C 0.0 **** 0.0
122 C45464 0.817480716551097 0.32056363642285 0.803569616101329 C 0.0 **** 0.0
123 C45465 0.812028111950219 0.331357198328064 0.791270505252502 C 0.0 **** 0.0
124 C45466 0.812769137346884 0.348432483812979 0.794063198428423 C 0.0 **** 0.0
125 C45472 0.806258782061092 0.360146559851241 0.780927294541104 C 0.0 **** 0.0
126 C45473 0.800627709057768 0.353522067141409 0.766007421148488 C 0.0 **** 0.0
127 C45474 0.800614830547257 0.334995436943429 0.763558788838604 C 0.0 **** 0.0
128 C45475 0.806048104740139 0.324642627328674 0.776343167794706 C 0.0 **** 0.0
129 C45481 0.795291709504212 0.328508942495304 0.748440403138877 C 0.0 **** 0.0
130 C45482 0.790012358031822 0.338784273048189 0.735503137157544 C 0.0 **** 0.0
131 C45483 0.789912608125697 0.356025183042255 0.737128548908901 C 0.0 **** 0.0
132 C45484 0.795296906917579 0.36391153454655 0.753243337598245 C 0.0 **** 0.0
133 C45490 0.795676848474684 0.381573663119675 0.755038153993827 C 0.0 **** 0.0
134 C45491 0.801501736300928 0.38843009709282 0.770267168449657 C 0.0 **** 0.0
135 C45492 0.806808241367604 0.377692267789238 0.783324526282682 C 0.0 **** 0.0
136 C45497 0.791862092193611 0.392143218474871 0.741343540256811 C 0.0 **** 0.0
137 C45498 0.785509684949282 0.383193442862338 0.725534837925961 C 0.0 **** 0.0
138 C45499 0.78497389222221 0.366009357159732 0.723981648874151 C 0.0 **** 0.0
139 C45504 0.814336581939495 0.41160054299701 0.785458340986175 C 0.0 **** 0.0
140 C45505 0.80456954532268 0.405862525889836 0.771451669254541 C 0.0 **** 0.0
141 C45510 0.794309776305785 0.409548804283346 0.742763460256475 C 0.0 **** 0.0
142 C45511 0.799894893898157 0.416548761490824 0.757945821696951 C 0.0 **** 0.0
143 C45515 0.802366073513928 0.435586800391021 0.759696302172586 C 0.0 **** 0.0
144 C45516 0.788866669809044 0.445212666853125 0.749719112302004 C 0.0 **** 0.0
145 C45517 0.79000986139059 0.439857037312642 0.731426711388131 C 0.0 **** 0.0
146 C45518 0.791342287036853 0.42118928074424 0.728022848822035 C 0.0 **** 0.0
147 O45524 0.790699510033334 0.416723855755433 0.713374033901078 O 0.0 **** 0.0
148 H45526 0.904779195719793 0.251042033752411 1.14085503397503 H 0.0 **** 0.0
149 H45528 0.926214317323905 0.256130391389296 1.13682678822919 H 0.0 **** 0.0
150 H45530 0.906542446771359 0.27846526187564 1.15340949742283 H 0.0 **** 0.0
151 H45532 0.920762938280857 0.28619654664831 1.13802789717153 H 0.0 **** 0.0
152 H45534 0.884011943595328 0.277230523148176 1.13092544464657 H 0.0 **** 0.0
153 H45536 0.8883054878656 0.28079651350514 1.10320920707926 H 0.0 **** 0.0
154 H45538 0.926130482302001 0.27637555715992 1.10973823870089 H 0.0 **** 0.0
155 H45540 0.913553958272763 0.267575166782245 1.09351404769371 H 0.0 **** 0.0
156 H45542 0.913606691144247 0.308414343610635 1.11179843112678 H 0.0 **** 0.0
157 H45544 0.891631666527716 0.327798819488002 1.1035904321199 H 0.0 **** 0.0
158 H45546 0.86740675051836 0.303668558920152 1.11917537159977 H 0.0 **** 0.0
159 H45548 0.873038647168265 0.323869128028262 1.12654229481967 H 0.0 **** 0.0
160 H45550 0.882217449612717 0.302120975768006 1.14723409702651 H 0.0 **** 0.0
161 H45552 0.900275944424956 0.311460228473517 1.13805803074025 H 0.0 **** 0.0
162 H45554 0.870645577671828 0.306070173718635 1.06776134960762 H 0.0 **** 0.0
163 H45556 0.892069887381529 0.286605990355525 1.0758366830773 H 0.0 **** 0.0
164 H45558 0.91556850026281 0.316552276476384 1.08256501130641 H 0.0 **** 0.0
165 H45560 0.92153045828799 0.29518016649531 1.08360895439958 H 0.0 **** 0.0
166 H45562 0.89529826677371 0.334477813856984 1.07700486582033 H 0.0 **** 0.0
167 H45564 0.912714417902303 0.298797983802033 1.00603062567009 H 0.0 **** 0.0
168 H45566 0.92783356419372 0.301393999987146 1.02225932419834 H 0.0 **** 0.0
169 H45568 0.918039033056144 0.272765702536804 1.02519471350241 H 0.0 **** 0.0
170 H45570 0.896625213201191 0.278463112658984 1.02217295947655 H 0.0 **** 0.0
171 H45572 0.906888043803249 0.272421234692315 1.05385257918553 H 0.0 **** 0.0
172 H45574 0.88809147927035 0.361703783154988 1.07215889600833 H 0.0 **** 0.0
173 H45575 0.834735215756665 0.348164057502498 1.0548094990379 H 0.0 **** 0.0
174 H45577 0.829963988074216 0.347573393120494 1.07671220776363 H 0.0 **** 0.0
175 H45579 0.850084780295972 0.323968507165978 1.07205311257016 H 0.0 **** 0.0
176 H45581 0.821215997886603 0.377187339468787 1.06433261395813 H 0.0 **** 0.0
177 H45583 0.826847188108051 0.376230125162795 1.08596227044154 H 0.0 **** 0.0
178 H45585 0.828532724641502 0.405559758773756 1.08163833904954 H 0.0 **** 0.0
179 H45587 0.833753241517447 0.40347090843436 1.06000972934096 H 0.0 **** 0.0
180 H45589 0.892198195978723 0.383551850565392 1.08481762612446 H 0.0 **** 0.0
181 H45591 0.892048862142475 0.397435587350152 1.06734078228441 H 0.0 **** 0.0
182 H45593 0.878629494096006 0.405811617939525 1.10266286978974 H 0.0 **** 0.0
183 H45595 0.882400245957675 0.426220460934019 1.07011536227453 H 0.0 **** 0.0
184 H45597 0.877929262177939 0.435938656118763 1.08968874703533 H 0.0 **** 0.0
185 H45599 0.851949728848244 0.427741353669761 1.07125365398038 H 0.0 **** 0.0
186 H45601 0.851598824993141 0.422259045253214 1.09294571432309 H 0.0 **** 0.0
187 H45603 0.881658723003232 0.386751975451188 1.04385445813789 H 0.0 **** 0.0
188 H45605 0.875950986912525 0.410321766747507 0.984243006218694 H 0.0 **** 0.0
189 H45607 0.861824687250271 0.41600144479475 0.958249490125017 H 0.0 **** 0.0
190 H45609 0.904907279872163 0.325648708462597 0.968505194361202 H 0.0 **** 0.0
191 H45611 0.845627857924578 0.433914129539759 0.89928521837487 H 0.0 **** 0.0
192 H45613 0.848459706471556 0.439996613209007 0.927304562350589 H 0.0 **** 0.0
193 H45615 0.820316522467237 0.414916401146943 0.93402294517262 H 0.0 **** 0.0
194 H45617 0.810417516333584 0.445417364768128 0.930494782840033 H 0.0 **** 0.0
195 H45619 0.826590118126988 0.453926473733879 0.94317416694754 H 0.0 **** 0.0
196 H45621 0.837411922669317 0.471070166342017 0.919850695391191 H 0.0 **** 0.0
197 H45623 0.815669033964192 0.474938975263935 0.921984153031746 H 0.0 **** 0.0
198 H45625 0.81095216218295 0.466566207969981 0.894666427338391 H 0.0 **** 0.0
199 H45627 0.807703282176649 0.437628257199762 0.904564436136863 H 0.0 **** 0.0
200 H45629 0.820209457714081 0.423884338581108 0.875501184236549 H 0.0 **** 0.0
201 H45631 0.801627622431462 0.435856711953309 0.876765565882831 H 0.0 **** 0.0
202 H45633 0.813844686923517 0.460465623321629 0.865273678558411 H 0.0 **** 0.0
203 H45635 0.824469863646784 0.444570211459011 0.853810497162631 H 0.0 **** 0.0
204 H45637 0.845464398909415 0.465399311156651 0.863946882100101 H 0.0 **** 0.0
205 H45639 0.848446370581138 0.446150573727305 0.874782954125924 H 0.0 **** 0.0
206 H45641 0.847173956428316 0.466993677281648 0.896068162180977 H 0.0 **** 0.0
207 H45643 0.896501729333673 0.295489967688687 0.934630770078288 H 0.0 **** 0.0
208 H45645 0.925716022739795 0.301166055164186 0.942047161744133 H 0.0 **** 0.0
209 H45647 0.929943974387496 0.330258435497874 0.918613205970334 H 0.0 **** 0.0
210 H45649 0.945225120429216 0.315825207703799 0.925834082316932 H 0.0 **** 0.0
211 H45651 0.943992286673741 0.309892592495088 0.896340154387955 H 0.0 **** 0.0
212 H45653 0.921990714492733 0.313166810231351 0.895224492672098 H 0.0 **** 0.0
213 H45655 0.939627963620185 0.283046832535013 0.911861445046044 H 0.0 **** 0.0
214 H45657 0.928288274762516 0.282683862764704 0.892680257298294 H 0.0 **** 0.0
215 H45659 0.914442969507908 0.273713254555059 0.923324487678412 H 0.0 **** 0.0
216 H45661 0.902378250709763 0.280735796211006 0.905975266769521 H 0.0 **** 0.0
217 H45663 0.875028852510298 0.316749272459897 0.892808423337127 H 0.0 **** 0.0
218 H45665 0.85527488005352 0.320848500044278 0.868659012971554 H 0.0 **** 0.0
219 H45667 0.84397008223688 0.409779378654799 0.876734297119471 H 0.0 **** 0.0
220 H45669 0.826565032215581 0.413961181765423 0.850599029450593 H 0.0 **** 0.0
221 H45671 0.812139325575513 0.4006025092147 0.830712802802346 H 0.0 **** 0.0
222 H45673 0.844304535211753 0.401060895036853 0.809240303316197 H 0.0 **** 0.0
223 H45675 0.82187577682572 0.430597485802098 0.819736961932102 H 0.0 **** 0.0
224 H45677 0.837048051765472 0.431638495517876 0.803295301114845 H 0.0 **** 0.0
225 H45679 0.845121364060227 0.440074281124153 0.835549081380589 H 0.0 **** 0.0
226 H45681 0.859950963142612 0.431707789392338 0.821280127833989 H 0.0 **** 0.0
227 H45683 0.858425336367594 0.418157918805507 0.851332167423941 H 0.0 **** 0.0
228 H45685 0.859975013159949 0.404538272396759 0.8337615396467 H 0.0 **** 0.0
229 H45687 0.908820254952679 0.401849635216257 1.10392753262167 H 0.0 **** 0.0
230 H45689 0.929016839039344 0.421063443473399 1.08923813190853 H 0.0 **** 0.0
231 H45691 0.912157723531028 0.429809762122225 1.0772978002747 H 0.0 **** 0.0
232 H45693 0.918111026499152 0.408323865422202 1.07431256073061 H 0.0 **** 0.0
233 H45695 0.894488927835391 0.424650236937847 1.12124552129215 H 0.0 **** 0.0
234 H45697 0.900278976414679 0.439666418112217 1.10554494673902 H 0.0 **** 0.0
235 H45699 0.916151111469161 0.428918584032493 1.11713252706237 H 0.0 **** 0.0
236 H45701 0.834312562859324 0.413316384230929 0.959094725836335 H 0.0 **** 0.0
237 H45703 0.827990375994044 0.317807163946094 0.827897712169642 H 0.0 **** 0.0
238 H45705 0.817031462021832 0.306877147070979 0.801834725519849 H 0.0 **** 0.0
239 H45707 0.805859021513754 0.310953516582687 0.774596145888372 H 0.0 **** 0.0
240 H45709 0.795309923049925 0.314903522849021 0.74635193705255 H 0.0 **** 0.0
241 H45711 0.78602922769119 0.332816763865526 0.723723900573063 H 0.0 **** 0.0
242 H45713 0.781139178059324 0.390592997463139 0.714814808881738 H 0.0 **** 0.0
243 H45715 0.780669600515249 0.360588801250399 0.712069180199298 H 0.0 **** 0.0
244 H45717 0.818213405356063 0.424873153767474 0.786085050564069 H 0.0 **** 0.0
245 H45719 0.801612073243045 0.439559816694215 0.772998456651018 H 0.0 **** 0.0
246 H45721 0.815078074500862 0.439079129831923 0.755092869472144 H 0.0 **** 0.0
247 H45723 0.79060768121016 0.458980603715586 0.750770738427938 H 0.0 **** 0.0
248 H45725 0.776270557587781 0.442313876395963 0.754958536995988 H 0.0 **** 0.0
249 H45727 0.801450947500229 0.444875218399485 0.725253920802236 H 0.0 **** 0.0
250 H45729 0.779355628108393 0.443655386008403 0.723357082148492 H 0.0 **** 0.0
@<TRIPOS>BOND
1 3 2 1
2 4 3 1
3 5 4 1
4 6 5 1
5 1 2 1
6 1 6 1
7 8 7 1
8 9 8 1
9 10 9 1
10 4 7 1
11 3 10 1
12 12 11 1
13 13 12 1
14 14 13 1
15 8 11 1
16 7 14 1
17 16 15 1
18 17 16 Partial double
19 18 17 1
20 13 15 1
21 12 18 1
22 20 19 Partial double
23 21 20 Partial double
24 22 21 Partial double
25 17 19 Partial double
26 16 22 Partial double
27 24 23 1
28 25 24 1
29 15 25 Double
30 22 23 1
31 27 26 1
32 28 27 Partial double
33 29 28 Partial double
34 21 26 1
35 20 29 Partial double
36 31 30 1
37 32 31 1
38 18 30 1
39 19 32 1
40 34 33 Double
41 35 34 1
42 36 35 1
43 31 33 1
44 30 36 Double
45 38 37 1
46 39 38 1
47 40 39 Double
48 34 37 1
49 33 40 1
50 42 41 1
51 43 42 1
52 44 43 1
53 40 41 1
54 39 44 1
55 46 45 Partial double
56 32 46 1
57 29 45 Partial double
58 48 47 Partial double
59 49 48 1
60 45 49 Partial double
61 28 47 Partial double
62 51 50 Partial double
63 52 51 Partial double
64 53 52 Partial double
65 48 50 Partial double
66 47 53 Partial double
67 55 54 Partial double
68 56 55 Partial double
69 57 56 Partial double
70 52 54 Partial double
71 51 57 Partial double
72 59 58 Partial double
73 60 59 Partial double
74 61 60 Partial double
75 56 58 Partial double
76 55 61 Partial double
77 63 62 Partial double
78 27 63 Partial double
79 53 62 Partial double
80 65 64 Partial double
81 62 65 Partial double
82 54 64 Partial double
83 67 66 Partial double
84 64 67 Partial double
85 61 66 Partial double
86 69 68 Partial double
87 70 69 Partial double
88 66 70 Partial double
89 60 68 Partial double
90 72 71 1
91 73 72 1
92 74 73 1
93 59 71 1
94 58 74 1
95 76 75 1
96 77 76 1
97 78 77 1
98 73 75 1
99 72 78 1
100 80 79 1
101 81 80 1
102 82 81 1
103 78 79 1
104 77 82 1
105 84 83 Partial double
106 85 84 Partial double
107 67 85 Partial double
108 65 83 Partial double
109 87 86 1
110 88 87 1
111 89 88 1
112 84 86 1
113 83 89 1
114 91 90 1
115 92 91 1
116 93 92 1
117 88 90 1
118 87 93 1
119 95 94 Partial double
120 85 95 Partial double
121 70 94 Partial double
122 97 96 Partial double
123 98 97 Partial double
124 94 98 Partial double
125 69 96 Partial double
126 100 99 Partial double
127 101 100 Partial double
128 68 101 Partial double
129 96 99 Partial double
130 103 102 1
131 104 103 Partial double
132 97 102 1
133 99 104 1
134 106 105 1
135 107 106 1
136 100 105 1
137 104 107 Partial double
138 109 108 1
139 110 109 1
140 111 110 1
141 106 108 1
142 105 111 1
143 113 112 1
144 114 113 1
145 103 114 Partial double
146 107 112 Partial double
147 108 115 1
148 112 116 Partial double
149 115 116 Partial double
150 42 117 1
151 117 118 1
152 117 119 1
153 74 120 1
154 122 121 1
155 123 122 Partial double
156 124 123 1
157 114 121 Partial double
158 113 124 Partial double
159 126 125 Partial double
160 127 126 1
161 128 127 Partial double
162 124 125 Partial double
163 123 128 Partial double
164 130 129 Partial double
165 131 130 1
166 132 131 1
167 127 129 Partial double
168 126 132 Partial double
169 134 133 Partial double
170 135 134 Partial double
171 125 135 Partial double
172 132 133 Partial double
173 137 136 Partial double
174 138 137 Partial double
175 131 138 Partial double
176 133 136 Partial double
177 140 139 Partial double
178 134 140 Partial double
179 116 135 Partial double
180 115 139 Partial double
181 142 141 Partial double
182 140 142 Partial double
183 136 141 Partial double
184 144 143 1
185 145 144 1
186 146 145 1
187 142 143 1
188 141 146 1
189 146 147 Double
190 1 148 1
191 1 149 1
192 2 150 1
193 2 151 1
194 3 152 1
195 4 153 1
196 5 154 1
197 5 155 1
198 7 156 1
199 8 157 1
200 9 158 1
201 9 159 1
202 10 160 1
203 10 161 1
204 12 162 1
205 13 163 1
206 14 164 1
207 14 165 1
208 18 166 1
209 23 167 1
210 23 168 1
211 24 169 1
212 24 170 1
213 25 171 1
214 35 173 1
215 35 174 1
216 36 175 1
217 37 176 1
218 37 177 1
219 38 178 1
220 38 179 1
221 41 180 1
222 41 181 1
223 42 182 1
224 43 183 1
225 43 184 1
226 44 185 1
227 44 186 1
228 46 187 1
229 50 188 1
230 57 189 1
231 63 190 1
232 72 191 1
233 73 192 1
234 74 193 1
235 75 194 1
236 75 195 1
237 76 196 1
238 76 197 1
239 77 198 1
240 78 199 1
241 79 200 1
242 79 201 1
243 80 202 1
244 80 203 1
245 81 204 1
246 81 205 1
247 82 206 1
248 87 207 1
249 88 208 1
250 90 209 1
251 90 210 1
252 91 211 1
253 91 212 1
254 92 213 1
255 92 214 1
256 93 215 1
257 93 216 1
258 95 217 1
259 98 218 1
260 101 219 1
261 105 220 1
262 106 221 1
263 108 222 1
264 109 223 1
265 109 224 1
266 110 225 1
267 110 226 1
268 111 227 1
269 111 228 1
270 117 229 1
271 118 230 1
272 118 231 1
273 118 232 1
274 119 233 1
275 119 234 1
276 119 235 1
277 120 236 1
278 121 237 1
279 122 238 1
280 128 239 1
281 129 240 1
282 130 241 1
283 137 242 1
284 138 243 1
285 139 244 1
286 143 245 1
287 143 246 1
288 144 247 1
289 144 248 1
290 145 249 1
291 145 250 1
292 31 172 1
@<TRIPOS>MOLECULE
Sketch 4
250 292
SMALL
USER_CHARGES


@<TRIPOS>ATOM
1 C45732 0.510356735141248 0.145400761351906 0.732298229640795 C 0.0 **** 0.0
2 C45733 0.497797028217864 0.149926655838372 0.718416864900774 C 0.0 **** 0.0
3 C45734 0.504903011078948 0.145547826945236 0.700848572714569 C 0.0 **** 0.0
4 C45735 0.523411610287461 0.152091657987216 0.698549263895963 C 0.0 **** 0.0
5 C45736 0.533618326472478 0.14810692608112 0.714664749145424 C 0.0 **** 0.0
6 O45737 0.525796822007746 0.154197645640284 0.729624771372813 O 0.0 **** 0.0
7 C45744 0.522811617285499 0.17065204746807 0.692258586024671 C 0.0 **** 0.0
8 C45745 0.515079652945698 0.170805665577482 0.674013463435195 C 0.0 **** 0.0
9 C45746 0.502828516164501 0.156008112089461 0.670974144640082 C 0.0 **** 0.0
10 C45747 0.492794866610065 0.151462106110806 0.686742466444992 C 0.0 **** 0.0
11 O45753 0.527228131520807 0.168883216057804 0.660831497625156 O 0.0 **** 0.0
12 C45754 0.54094051275246 0.180589765456108 0.661368953752155 C 0.0 **** 0.0
13 C45755 0.550896404734609 0.177697880138284 0.677801897194203 C 0.0 **** 0.0
14 C45756 0.539534623720186 0.180850181253447 0.693173692262961 C 0.0 **** 0.0
15 C45762 0.566812922072852 0.188321428263146 0.677344049990539 C 0.0 **** 0.0
16 C45763 0.565379605629095 0.205887615670831 0.670076474871203 C 0.0 **** 0.0
17 C45764 0.550644683912057 0.210910551332251 0.661961439981477 C 0.0 **** 0.0
18 C45765 0.535524213613432 0.199153677412239 0.659895252859593 C 0.0 **** 0.0
19 C45771 0.549579996097447 0.227289299820723 0.6557014955397 C 0.0 **** 0.0
20 C45772 0.563107376877524 0.238187102520688 0.657402111998802 C 0.0 **** 0.0
21 C45773 0.578264890289404 0.232709052753891 0.664236340113589 C 0.0 **** 0.0
22 C45774 0.579307690247535 0.216549295750317 0.671037728795165 C 0.0 **** 0.0
23 C45780 0.595460520885051 0.211117478873412 0.679776333824699 C 0.0 **** 0.0
24 C45781 0.598153843520408 0.191818915174655 0.67877216708645 C 0.0 **** 0.0
25 C45782 0.582051908674985 0.18198124861134 0.681541627444492 C 0.0 **** 0.0
26 O45787 0.59248383471082 0.242942528237787 0.664225778612751 O 0.0 **** 0.0
27 C45788 0.591649237778948 0.25887771732749 0.657182193738436 C 0.0 **** 0.0
28 C45789 0.576615867323646 0.266534747305083 0.652150539392073 C 0.0 **** 0.0
29 C45790 0.560758423922067 0.25626014876918 0.652423066551907 C 0.0 **** 0.0
30 C45796 0.526743557662627 0.204305121722715 0.64383783102795 C 0.0 **** 0.0
31 C45797 0.519069296553048 0.221705334183299 0.646115462121005 C 0.0 **** 0.0
32 C45798 0.534507042523296 0.233567588884867 0.645802302799458 C 0.0 **** 0.0
33 C45803 0.505833925084175 0.226282553833392 0.632439446534494 C 0.0 **** 0.0
34 C45804 0.507951981751751 0.219123039534136 0.616842165602328 C 0.0 **** 0.0
35 C45805 0.52096074521853 0.205488226876483 0.612986736321459 C 0.0 **** 0.0
36 C45806 0.527932615542988 0.196939825051667 0.628617880409282 C 0.0 **** 0.0
37 C45812 0.496927031221842 0.222623037943604 0.601801850246591 C 0.0 **** 0.0
38 C45813 0.482530109412928 0.235267901222608 0.605166992837686 C 0.0 **** 0.0
39 C45814 0.480563979821898 0.24003315242004 0.623461463954138 C 0.0 **** 0.0
40 C45815 0.492105056121412 0.236302479759819 0.635756576866276 C 0.0 **** 0.0
41 C45821 0.488071807807663 0.243541034314678 0.653387208058404 C 0.0 **** 0.0
42 C45822 0.469238967526519 0.241692839834032 0.657145961818474 C 0.0 **** 0.0
43 C45823 0.459808628564259 0.253349459924296 0.644736273767591 C 0.0 **** 0.0
44 C45824 0.464021243421248 0.249213966464634 0.626228082714058 C 0.0 **** 0.0
45 C45830 0.545128224589926 0.262708437172042 0.64920207123701 C 0.0 **** 0.0
46 C45831 0.531442923158711 0.252420115028963 0.647403292818213 C 0.0 **** 0.0
47 C45835 0.576251310480318 0.284317213163752 0.649302629247088 C 0.0 **** 0.0
48 C45836 0.561153411496241 0.293507879017198 0.651447324458876 C 0.0 **** 0.0
49 S45837 0.54184186718851 0.284344132051212 0.646706600395076 S 0.0 **** 0.0
50 C45842 0.560935710552061 0.308508881443748 0.660341346636497 C 0.0 **** 0.0
51 C45843 0.57640352803391 0.31599558249718 0.665113178244054 C 0.0 **** 0.0
52 C45844 0.591565084320415 0.309448503066486 0.658179055604926 C 0.0 **** 0.0
53 C45845 0.591504936154031 0.29328262907552 0.650619152841359 C 0.0 **** 0.0
54 C45851 0.606836782251205 0.317165103383833 0.662313467927663 C 0.0 **** 0.0
55 C45852 0.607384642017634 0.329881360783879 0.6746360928293 C 0.0 **** 0.0
56 C45853 0.592968993689848 0.333835528082644 0.684383436316935 C 0.0 **** 0.0
57 C45854 0.577329092104478 0.328086171902418 0.678168885104412 C 0.0 **** 0.0
58 C45860 0.59464452137807 0.342556904827037 0.699897558784805 C 0.0 **** 0.0
59 C45861 0.609779189789714 0.3508462933828 0.703068153863997 C 0.0 **** 0.0
60 C45862 0.623411083729478 0.349500354231771 0.691452341117478 C 0.0 **** 0.0
61 C45863 0.622634587554276 0.337465140918781 0.678592790786216 C 0.0 **** 0.0
62 C45869 0.60690269689963 0.284590822108365 0.64989020893033 C 0.0 **** 0.0
63 C45870 0.606657335921911 0.267361595852621 0.654973903723563 C 0.0 **** 0.0
64 C45874 0.621919498620101 0.310354215514342 0.656294203810039 C 0.0 **** 0.0
65 C45875 0.622041890865835 0.294002542329478 0.649344980585051 C 0.0 **** 0.0
66 C45879 0.63741926390161 0.332232719863592 0.670550964324288 C 0.0 **** 0.0
67 C45880 0.637043985387647 0.318381495031868 0.659649874388604 C 0.0 **** 0.0
68 C45884 0.638113469407902 0.359800339309797 0.692647768817759 C 0.0 **** 0.0
69 C45885 0.652908534895738 0.354581372304613 0.684245293846004 C 0.0 **** 0.0
70 C45886 0.652670101991021 0.340334568383823 0.67404337710026 C 0.0 **** 0.0
71 O45891 0.612373017011565 0.36068480575535 0.717421042504618 O 0.0 **** 0.0
72 C45892 0.599873693766897 0.361635745887902 0.730399465700744 C 0.0 **** 0.0
73 C45893 0.587861622241398 0.346500945521462 0.730205130105618 C 0.0 **** 0.0
74 C45894 0.580217559316953 0.344005537332024 0.712646442505184 C 0.0 **** 0.0
75 C45900 0.574315645614691 0.347593326400327 0.744429298217438 C 0.0 **** 0.0
76 C45901 0.57433581307072 0.364625691722147 0.753780766932476 C 0.0 **** 0.0
77 C45902 0.57478999117758 0.379471786862987 0.74132831192258 C 0.0 **** 0.0
78 C45903 0.590823404443773 0.378892839049817 0.729671416761442 C 0.0 **** 0.0
79 C45909 0.603312102487798 0.393251797154723 0.733623554402679 C 0.0 **** 0.0
80 C45910 0.594559868010759 0.410641031950256 0.733994674664653 C 0.0 **** 0.0
81 C45911 0.575672152840139 0.409640756438522 0.739001235499101 C 0.0 **** 0.0
82 N45912 0.572341914743899 0.395480493518976 0.750197505116556 N 0.0 **** 0.0
83 C45918 0.637311318382241 0.286586785771823 0.643703995240473 C 0.0 **** 0.0
84 C45919 0.652305019953571 0.295512620787736 0.645271611463313 C 0.0 **** 0.0
85 C45920 0.652147199837872 0.311469740070791 0.653400765285973 C 0.0 **** 0.0
86 O45925 0.667700656165071 0.289176359330326 0.639803673622827 O 0.0 **** 0.0
87 C45926 0.666370028255125 0.274136042569748 0.629867908145864 C 0.0 **** 0.0
88 C45927 0.653039666217288 0.262509663612224 0.636789895112921 C 0.0 **** 0.0
89 O45928 0.636876788011023 0.270555180867527 0.636613456773177 O 0.0 **** 0.0
90 C45934 0.657321075780253 0.255607509541981 0.654650495202618 C 0.0 **** 0.0
91 C45935 0.676328031549081 0.256440018295953 0.658978176308838 C 0.0 **** 0.0
92 C45936 0.687180185023769 0.252812144906575 0.643340106673196 C 0.0 **** 0.0
93 C45937 0.683993550475059 0.265881895351487 0.629099514109816 C 0.0 **** 0.0
94 C45943 0.667664308956815 0.335100227355713 0.665744612155909 C 0.0 **** 0.0
95 C45944 0.667388902945138 0.320133157616015 0.656123777699714 C 0.0 **** 0.0
96 C45948 0.666734742315919 0.365572063213574 0.683299606606557 C 0.0 **** 0.0
97 C45949 0.681687914992863 0.360734139786167 0.674731220354985 C 0.0 **** 0.0
98 C45950 0.682180399401212 0.345517870392902 0.666439181026719 C 0.0 **** 0.0
99 C45955 0.665254645850161 0.382457525969834 0.688753587361006 C 0.0 **** 0.0
100 C45956 0.650633287187379 0.388046105602413 0.696533293174331 C 0.0 **** 0.0
101 C45957 0.637698157419212 0.37660611707403 0.698819651699145 C 0.0 **** 0.0
102 O45962 0.695774917594329 0.371018395845574 0.674707934219818 O 0.0 **** 0.0
103 C45963 0.693091743552617 0.388193483668673 0.675902941448314 C 0.0 **** 0.0
104 C45964 0.678939457608803 0.394433678382194 0.68363603737808 C 0.0 **** 0.0
105 C45969 0.647954993033527 0.406258837517419 0.701993616981305 C 0.0 **** 0.0
106 C45970 0.660530242064569 0.419051589382134 0.692936645799525 C 0.0 **** 0.0
107 C45971 0.676526941806058 0.411429956960329 0.685267842299873 C 0.0 **** 0.0
108 C45976 0.665554592384555 0.433800110349804 0.704766161160173 C 0.0 **** 0.0
109 C45977 0.650205319606839 0.440285148159057 0.714753632236168 C 0.0 **** 0.0
110 C45978 0.643014011856828 0.42622791388191 0.726427563303071 C 0.0 **** 0.0
111 C45979 0.648800924164073 0.408303894452918 0.721257753050468 C 0.0 **** 0.0
112 C45985 0.688612731591038 0.422249967241116 0.679424774058733 C 0.0 **** 0.0
113 C45986 0.702353885648855 0.416083929738103 0.670821535497516 C 0.0 **** 0.0
114 C45987 0.704748296076221 0.399079608151452 0.66928031281579 C 0.0 **** 0.0
115 C45992 0.6748250611753 0.446997975629676 0.694096603161331 C 0.0 **** 0.0
116 C45994 0.68622139218767 0.440961802180337 0.682175183461503 C 0.0 **** 0.0
117 C45997 0.464955898570244 0.244512291502043 0.676027552656307 C 0.0 **** 0.0
118 C45999 0.465876549445798 0.263018881393479 0.68171490172558 C 0.0 **** 0.0
119 C46001 0.447791161288433 0.236841225419297 0.680721294625185 C 0.0 **** 0.0
120 O46003 0.570182520488392 0.329063680825508 0.712814561158153 O 0.0 **** 0.0
121 C46005 0.718736222061747 0.393039046505679 0.661091251956541 C 0.0 **** 0.0
122 C46006 0.730169043391056 0.403929929468947 0.654240388202361 C 0.0 **** 0.0
123 C46007 0.727598114841553 0.420968887227092 0.655196113073266 C 0.0 **** 0.0
124 C46008 0.713675442049392 0.426934528366334 0.663574483576809 C 0.0 **** 0.0
125 C46014 0.710797604431952 0.445430866862782 0.664587017654688 C 0.0 **** 0.0
126 C46015 0.722296224504068 0.45598554471824 0.657204098716362 C 0.0 **** 0.0
127 C46016 0.73700270928655 0.448798916983381 0.648155870445344 C 0.0 **** 0.0
128 C46017 0.739146910952186 0.431613380390081 0.647619593371908 C 0.0 **** 0.0
129 C46023 0.748367244247326 0.459494498869738 0.640683383333881 C 0.0 **** 0.0
130 C46024 0.746607445919531 0.476725014035612 0.641819902675884 C 0.0 **** 0.0
131 C46025 0.733522440552434 0.48397060508491 0.650574972261078 C 0.0 **** 0.0
132 C46026 0.720503997329618 0.473131056376181 0.658539626802659 C 0.0 **** 0.0
133 C46032 0.707167147288172 0.480249707736576 0.667864003524339 C 0.0 **** 0.0
134 C46033 0.695416952114951 0.469508132620971 0.675527529140647 C 0.0 **** 0.0
135 C46034 0.697046850710438 0.451986508650627 0.673638452586714 C 0.0 **** 0.0
136 C46039 0.706373387959871 0.497695501856597 0.670651084683458 C 0.0 **** 0.0
137 C46040 0.719652806214936 0.508106364785774 0.661445173678637 C 0.0 **** 0.0
138 C46041 0.732403512786801 0.501099216363223 0.652126212493018 C 0.0 **** 0.0
139 C46046 0.673496055912943 0.464267028702043 0.696162558750971 C 0.0 **** 0.0
140 C46047 0.683248059831318 0.476076610058023 0.686678651406006 C 0.0 **** 0.0
141 C46052 0.694065838806938 0.504291584976057 0.681409293917763 C 0.0 **** 0.0
142 C46053 0.682154885341624 0.493742409281183 0.688993892019591 C 0.0 **** 0.0
143 C46057 0.668698490100629 0.501204996264258 0.700612091937928 C 0.0 **** 0.0
144 C46058 0.662302520428099 0.518041936138547 0.693499412629609 C 0.0 **** 0.0
145 C46059 0.677046009912483 0.53009242517339 0.691838709495896 C 0.0 **** 0.0
146 C46060 0.69342194059732 0.52287630948884 0.6853372162058 C 0.0 **** 0.0
147 O46066 0.705449483418683 0.532368307727209 0.684458815668296 O 0.0 **** 0.0
148 H46068 0.51237986602126 0.131596699331942 0.73292701953077 H 0.0 **** 0.0
149 H46070 0.50558935637117 0.149341551220174 0.744729604238183 H 0.0 **** 0.0
150 H46072 0.485603784738235 0.143506171027271 0.720438774741655 H 0.0 **** 0.0
151 H46074 0.495380886229172 0.163640322054452 0.719180664545325 H 0.0 **** 0.0
152 H46076 0.505621662543713 0.131708163648617 0.700197533207943 H 0.0 **** 0.0
153 H46078 0.529523330014531 0.14474371743618 0.688346697902142 H 0.0 **** 0.0
154 H46080 0.54638223542437 0.153592998290694 0.714346909152438 H 0.0 **** 0.0
155 H46082 0.535404725810494 0.134302415033077 0.715482919866338 H 0.0 **** 0.0
156 H46084 0.513768336801029 0.177160053786892 0.700689952399726 H 0.0 **** 0.0
157 H46086 0.508113566294337 0.18278836411774 0.672335560246407 H 0.0 **** 0.0
158 H46088 0.51047518216605 0.145005895478754 0.667091996132654 H 0.0 **** 0.0
159 H46090 0.494524930691285 0.158775680304873 0.660172919727846 H 0.0 **** 0.0
160 H46092 0.483286027773269 0.1416396852913 0.684096570756418 H 0.0 **** 0.0
161 H46094 0.485741815923604 0.162751410861327 0.690895772656154 H 0.0 **** 0.0
162 H46096 0.548950811206764 0.177012629892211 0.650555436331279 H 0.0 **** 0.0
163 H46098 0.554698364213479 0.164289028805257 0.677980529377149 H 0.0 **** 0.0
164 H46100 0.536238742768035 0.194379178646376 0.693801039068972 H 0.0 **** 0.0
165 H46102 0.546317208910461 0.178349634020995 0.705073061996005 H 0.0 **** 0.0
166 H46104 0.526587426406023 0.20174611794903 0.670325247920532 H 0.0 **** 0.0
167 H46106 0.606530755244804 0.217566672667662 0.674341702074561 H 0.0 **** 0.0
168 H46108 0.594951563619307 0.214831842297302 0.693152953620122 H 0.0 **** 0.0
169 H46110 0.607727724071 0.188054616756781 0.688177220704753 H 0.0 **** 0.0
170 H46112 0.603249397005551 0.188555190842471 0.666232043405669 H 0.0 **** 0.0
171 H46114 0.583638706491629 0.169052181839348 0.685980858652681 H 0.0 **** 0.0
172 H46116 0.513313987475544 0.221998457717279 0.658759301497506 H 0.0 **** 0.0
173 H46117 0.531368150784549 0.210875951545219 0.605433001112307 H 0.0 **** 0.0
174 H46119 0.514831318165661 0.195714995643009 0.605125435960078 H 0.0 **** 0.0
175 H46121 0.534885455537946 0.185151257729326 0.626982863343183 H 0.0 **** 0.0
176 H46123 0.504875840353263 0.227275967452224 0.591309858982397 H 0.0 **** 0.0
177 H46125 0.49136452144949 0.210609524454445 0.597406284859232 H 0.0 **** 0.0
178 H46127 0.470577531281683 0.229766090433432 0.600494235169161 H 0.0 **** 0.0
179 H46129 0.484638354652919 0.246903001287315 0.597761755001713 H 0.0 **** 0.0
180 H46131 0.495345697831317 0.237415490841199 0.663472195091523 H 0.0 **** 0.0
181 H46133 0.491585539554525 0.257021455216391 0.653804186535317 H 0.0 **** 0.0
182 H46135 0.465646545963256 0.228507416261332 0.654231565031926 H 0.0 **** 0.0
183 H46137 0.463385154998667 0.266556990655873 0.647392680251241 H 0.0 **** 0.0
184 H46139 0.446030461003147 0.252464923272024 0.646494431199071 H 0.0 **** 0.0
185 H46141 0.46380951177546 0.260767700673304 0.618416084490369 H 0.0 **** 0.0
186 H46143 0.45392844037382 0.240985088971361 0.621204495114511 H 0.0 **** 0.0
187 H46145 0.518732879184936 0.257323615685332 0.645648802672666 H 0.0 **** 0.0
188 H46147 0.549020982354923 0.314118871775001 0.664675873375248 H 0.0 **** 0.0
189 H46149 0.565475527237762 0.331803043045719 0.684326550793163 H 0.0 **** 0.0
190 H46151 0.618419444353012 0.260632356786509 0.657983017672103 H 0.0 **** 0.0
191 H46153 0.606848245379265 0.361056920104139 0.742490852949625 H 0.0 **** 0.0
192 H46155 0.595672506693017 0.335210785769153 0.732648512456417 H 0.0 **** 0.0
193 H46157 0.572133114051628 0.354950746268268 0.709405340291087 H 0.0 **** 0.0
194 H46159 0.561547076568416 0.345713274419245 0.739184713545569 H 0.0 **** 0.0
195 H46161 0.576192701342978 0.337242702658551 0.753567268709328 H 0.0 **** 0.0
196 H46163 0.585311907115284 0.365426082748454 0.762351895894671 H 0.0 **** 0.0
197 H46165 0.562993724710014 0.365592854568915 0.761851745920556 H 0.0 **** 0.0
198 H46167 0.563604537967931 0.377948246193873 0.733097849812335 H 0.0 **** 0.0
199 H46169 0.586707393586347 0.380686585415466 0.71645910741539 H 0.0 **** 0.0
200 H46171 0.608878505782295 0.390749166408462 0.74615580520844 H 0.0 **** 0.0
201 H46173 0.613842657636859 0.393332307950006 0.724572541324296 H 0.0 **** 0.0
202 H46175 0.595596038915384 0.416746389730971 0.721528334417069 H 0.0 **** 0.0
203 H46177 0.601477579480016 0.418874282995159 0.742865968367042 H 0.0 **** 0.0
204 H46179 0.567820239557553 0.408033102262246 0.727596107287836 H 0.0 **** 0.0
205 H46181 0.571456312954093 0.421535637252413 0.744876308294306 H 0.0 **** 0.0
206 H46183 0.580110050217326 0.396079518864987 0.760214448213369 H 0.0 **** 0.0
207 H46185 0.662447464064211 0.278024196079485 0.617079460697411 H 0.0 **** 0.0
208 H46187 0.652213222970637 0.251681411302621 0.62807989071449 H 0.0 **** 0.0
209 H46189 0.650063443997683 0.262820157214472 0.664051963280951 H 0.0 **** 0.0
210 H46191 0.652832839572893 0.242459966997635 0.655816211296753 H 0.0 **** 0.0
211 H46193 0.679296086178092 0.247563416392001 0.669311925797222 H 0.0 **** 0.0
212 H46195 0.679480229182804 0.269155258913952 0.663761415667673 H 0.0 **** 0.0
213 H46197 0.684104733877493 0.240045976529736 0.63870850300421 H 0.0 **** 0.0
214 H46199 0.700715494747894 0.252557348517632 0.646656178593211 H 0.0 **** 0.0
215 H46201 0.686466403707982 0.260015757394003 0.616730719968231 H 0.0 **** 0.0
216 H46203 0.693223640377134 0.276205736326815 0.630382103765436 H 0.0 **** 0.0
217 H46205 0.679173525496229 0.315375198339564 0.650541814404606 H 0.0 **** 0.0
218 H46207 0.693706959615602 0.341635857657028 0.659721803332002 H 0.0 **** 0.0
219 H46209 0.625878946852978 0.381602572620768 0.704036941475937 H 0.0 **** 0.0
220 H46211 0.635104576710686 0.410082191518234 0.698073159616385 H 0.0 **** 0.0
221 H46213 0.65330044268589 0.424488625277057 0.682286237031847 H 0.0 **** 0.0
222 H46215 0.674741327332534 0.429018345953695 0.714187962708273 H 0.0 **** 0.0
223 H46217 0.640414230206171 0.444492909417356 0.705774679920881 H 0.0 **** 0.0
224 H46219 0.653515829276958 0.45132432417407 0.722543994353357 H 0.0 **** 0.0
225 H46221 0.629095433567498 0.426756141716468 0.726286106755149 H 0.0 **** 0.0
226 H46223 0.646774114398393 0.428719156074755 0.739597333338298 H 0.0 **** 0.0
227 H46225 0.641032299655676 0.398775627698855 0.727802757449199 H 0.0 **** 0.0
228 H46227 0.66191069149925 0.406135756534843 0.72549098285153 H 0.0 **** 0.0
229 H46229 0.47448786832753 0.237475900696647 0.683469505985274 H 0.0 **** 0.0
230 H46231 0.463801055514218 0.264016562348326 0.695447301767138 H 0.0 **** 0.0
231 H46233 0.456144405386501 0.27073753789817 0.675458051546007 H 0.0 **** 0.0
232 H46235 0.478263623220469 0.268700444318348 0.678914366414393 H 0.0 **** 0.0
233 H46237 0.44763342580784 0.223134441744452 0.678378212868852 H 0.0 **** 0.0
234 H46239 0.4375041489292 0.242487290367699 0.673323045035746 H 0.0 **** 0.0
235 H46241 0.444916174261516 0.238792602709116 0.694203807871824 H 0.0 **** 0.0
236 H46243 0.5631884150992 0.33009763091309 0.722512573646209 H 0.0 **** 0.0
237 H46245 0.721052054900891 0.379510328662174 0.65980861308184 H 0.0 **** 0.0
238 H46247 0.74128091629448 0.398735183010114 0.64789583718942 H 0.0 **** 0.0
239 H46249 0.750156405553052 0.426321008882851 0.641173970318213 H 0.0 **** 0.0
240 H46251 0.759252100860465 0.45450012711287 0.633821399177531 H 0.0 **** 0.0
241 H46253 0.756192171999744 0.484583577662945 0.635765114775845 H 0.0 **** 0.0
242 H46255 0.719124778836098 0.521804072714555 0.662144807913375 H 0.0 **** 0.0
243 H46257 0.741593305904384 0.509433630706677 0.646111164266703 H 0.0 **** 0.0
244 H46259 0.664531729159531 0.468817059302007 0.705694366317565 H 0.0 **** 0.0
245 H46261 0.657777749500463 0.492742545046402 0.702017937556738 H 0.0 **** 0.0
246 H46263 0.673963622941942 0.503100419276443 0.713401292559172 H 0.0 **** 0.0
247 H46265 0.65251963003434 0.523567416432135 0.701722065893108 H 0.0 **** 0.0
248 H46267 0.656376048948738 0.515777073565987 0.68109722447009 H 0.0 **** 0.0
249 H46269 0.680992184635649 0.535366955040202 0.704103260254721 H 0.0 **** 0.0
250 H46271 0.67483813280965 0.540995163133531 0.6834870565193 H 0.0 **** 0.0
@<TRIPOS>BOND
1 3 2 1
2 4 3 1
3 5 4 1
4 6 5 1
5 1 2 1
6 1 6 1
7 8 7 1
8 9 8 1
9 10 9 1
10 4 7 1
11 3 10 1
12 12 11 1
13 13 12 1
14 14 13 1
15 8 11 1
16 7 14 1
17 16 15 1
18 17 16 Partial double
19 18 17 1
20 13 15 1
21 12 18 1
22 20 19 Partial double
23 21 20 Partial double
24 22 21 Partial double
25 17 19 Partial double
26 16 22 Partial double
27 24 23 1
28 25 24 1
29 15 25 Double
30 22 23 1
31 27 26 1
32 28 27 Partial double
33 29 28 Partial double
34 21 26 1
35 20 29 Partial double
36 31 30 1
37 32 31 1
38 18 30 1
39 19 32 1
40 34 33 Double
41 35 34 1
42 36 35 1
43 31 33 1
44 30 36 Double
45 38 37 1
46 39 38 1
47 40 39 Double
48 34 37 1
49 33 40 1
50 42 41 1
51 43 42 1
52 44 43 1
53 40 41 1
54 39 44 1
55 46 45 Partial double
56 32 46 1
57 29 45 Partial double
58 48 47 Partial double
59 49 48 1
60 45 49 Partial double
61 28 47 Partial double
62 51 50 Partial double
63 52 51 Partial double
64 53 52 Partial double
65 48 50 Partial double
66 47 53 Partial double
67 55 54 Partial double
68 56 55 Partial double
69 57 56 Partial double
70 52 54 Partial double
71 51 57 Partial double
72 59 58 Partial double
73 60 59 Partial double
74 61 60 Partial double
75 56 58 Partial double
76 55 61 Partial double
77 63 62 Partial double
78 27 63 Partial double
79 53 62 Partial double
80 65 64 Partial double
81 62 65 Partial double
82 54 64 Partial double
83 67 66 Partial double
84 64 67 Partial double
85 61 66 Partial double
86 69 68 Partial double
87 70 69 Partial double
88 66 70 Partial double
89 60 68 Partial double
90 72 71 1
91 73 72 1
92 74 73 1
93 59 71 1
94 58 74 1
95 76 75 1
96 77 76 1
97 78 77 1
98 73 75 1
99 72 78 1
100 80 79 1
101 81 80 1
102 82 81 1
103 78 79 1
104 77 82 1
105 84 83 Partial double
106 85 84 Partial double
107 67 85 Partial double
108 65 83 Partial double
109 87 86 1
110 88 87 1
111 89 88 1
112 84 86 1
113 83 89 1
114 91 90 1
115 92 91 1
116 93 92 1
117 88 90 1
118 87 93 1
119 95 94 Partial double
120 85 95 Partial double
121 70 94 Partial double
122 97 96 Partial double
123 98 97 Partial double
124 94 98 Partial double
125 69 96 Partial double
126 100 99 Partial double
127 101 100 Partial double
128 68 101 Partial double
129 96 99 Partial double
130 103 102 1
131 104 103 Partial double
132 97 102 1
133 99 104 1
134 106 105 1
135 107 106 1
136 100 105 1
137 104 107 Partial double
138 109 108 1
139 110 109 1
140 111 110 1
141 106 108 1
142 105 111 1
143 113 112 1
144 114 113 1
145 103 114 Partial double
146 107 112 Partial double
147 108 115 1
148 112 116 Partial double
149 115 116 Partial double
150 42 117 1
151 117 118 1
152 117 119 1
153 74 120 1
154 122 121 1
155 123 122 Partial double
156 124 123 1
157 114 121 Partial double
158 113 124 Partial double
159 126 125 Partial double
160 127 126 1
161 128 127 Partial double
162 124 125 Partial double
163 123 128 Partial double
164 130 129 Partial double
165 131 130 1
166 132 131 1
167 127 129 Partial double
168 126 132 Partial double
169 134 133 Partial double
170 135 134 Partial double
171 125 135 Partial double
172 132 133 Partial double
173 137 136 Partial double
174 138 137 Partial double
175 131 138 Partial double
176 133 136 Partial double
177 140 139 Partial double
178 134 140 Partial double
179 116 135 Partial double
180 115 139 Partial double
181 142 141 Partial double
182 140 142 Partial double
183 136 141 Partial double
184 144 143 1
185 145 144 1
186 146 145 1
187 142 143 1
188 141 146 1
189 146 147 Double
190 1 148 1
191 1 149 1
192 2 150 1
193 2 151 1
194 3 152 1
195 4 153 1
196 5 154 1
197 5 155 1
198 7 156 1
199 8 157 1
200 9 158 1
201 9 159 1
202 10 160 1
203 10 161 1
204 12 162 1
205 13 163 1
206 14 164 1
207 14 165 1
208 18 166 1
209 23 167 1
210 23 168 1
211 24 169 1
212 24 170 1
213 25 171 1
214 35 173 1
215 35 174 1
216 36 175 1
217 37 176 1
218 37 177 1
219 38 178 1
220 38 179 1
221 41 180 1
222 41 181 1
223 42 182 1
224 43 183 1
225 43 184 1
226 44 185 1
227 44 186 1
228 46 187 1
229 50 188 1
230 57 189 1
231 63 190 1
232 72 191 1
233 73 192 1
234 74 193 1
235 75 194 1
236 75 195 1
237 76 196 1
238 76 197 1
239 77 198 1
240 78 199 1
241 79 200 1
242 79 201 1
243 80 202 1
244 80 203 1
245 81 204 1
246 81 205 1
247 82 206 1
248 87 207 1
249 88 208 1
250 90 209 1
251 90 210 1
252 91 211 1
253 91 212 1
254 92 213 1
255 92 214 1
256 93 215 1
257 93 216 1
258 95 217 1
259 98 218 1
260 101 219 1
261 105 220 1
262 106 221 1
263 108 222 1
264 109 223 1
265 109 224 1
266 110 225 1
267 110 226 1
268 111 227 1
269 111 228 1
270 117 229 1
271 118 230 1
272 118 231 1
273 118 232 1
274 119 233 1
275 119 234 1
276 119 235 1
277 120 236 1
278 121 237 1
279 122 238 1
280 128 239 1
281 129 240 1
282 130 241 1
283 137 242 1
284 138 243 1
285 139 244 1
286 143 245 1
287 143 246 1
288 144 247 1
289 144 248 1
290 145 249 1
291 145 250 1
292 31 172 1
@<TRIPOS>MOLECULE
Sketch 4
250 292
SMALL
USER_CHARGES


@<TRIPOS>ATOM
1 C46274 0.576476965948559 0.665499927489702 0.3229493004194 C 0.0 **** 0.0
2 C46275 0.581950265123424 0.683136114151333 0.31660668918734 C 0.0 **** 0.0
3 C46276 0.578266916471204 0.697007791866186 0.3297214564898 C 0.0 **** 0.0
4 C46277 0.559408406348258 0.696214157994641 0.335910422224248 C 0.0 **** 0.0
5 C46278 0.55115685349398 0.679462583990752 0.330220338724933 C 0.0 **** 0.0
6 O46279 0.562099789657272 0.665668784098014 0.333829348908507 O 0.0 **** 0.0
7 C46286 0.549404627105001 0.712381710613876 0.331338062159625 C 0.0 **** 0.0
8 C46287 0.558340224124808 0.728136347073457 0.338748839992071 C 0.0 **** 0.0
9 C46288 0.577548330579684 0.728490031979572 0.335427114695381 C 0.0 **** 0.0
10 C46289 0.583395164737749 0.714612143843906 0.32323778505358 C 0.0 **** 0.0
11 O46295 0.556699197234134 0.728339876227417 0.35672965964819 O 0.0 **** 0.0
12 C46296 0.539674782067542 0.729576851836635 0.36279408975236 C 0.0 **** 0.0
13 C46297 0.529468464481407 0.714219254963012 0.356579029329837 C 0.0 **** 0.0
14 C46298 0.530785973148119 0.712383434870178 0.337312661041696 C 0.0 **** 0.0
15 C46304 0.511414892435795 0.714825325450471 0.363028807282382 C 0.0 **** 0.0
16 C46305 0.503190229649211 0.731887850211931 0.365477939055018 C 0.0 **** 0.0
17 C46306 0.512732302036955 0.746600083157223 0.364585521954186 C 0.0 **** 0.0
18 C46307 0.530963102584073 0.746233299477094 0.358121425729241 C 0.0 **** 0.0
19 C46313 0.505179786158814 0.761888814550372 0.368849150187977 C 0.0 **** 0.0
20 C46314 0.48793405399739 0.762477132206691 0.371939147816561 C 0.0 **** 0.0
21 C46315 0.478151567721838 0.747928791854794 0.371373274183182 C 0.0 **** 0.0
22 C46316 0.485975563899513 0.732414345827683 0.368931037466273 C 0.0 **** 0.0
23 C46322 0.475587764547142 0.716330014580047 0.369222526395572 C 0.0 **** 0.0
24 C46323 0.486166184105964 0.701638856707454 0.376555963738827 C 0.0 **** 0.0
25 C46324 0.503413165913833 0.700744765256388 0.368383725530883 C 0.0 **** 0.0
26 O46329 0.460694174816001 0.748479139125733 0.373176831157058 O 0.0 **** 0.0
27 C46330 0.453129937518596 0.763183228520137 0.378817511017783 C 0.0 **** 0.0
28 C46331 0.461525616296262 0.778486805012782 0.379989312872828 C 0.0 **** 0.0
29 C46332 0.479822047750914 0.77921760992973 0.375139256729012 C 0.0 **** 0.0
30 C46338 0.540116286742629 0.762187844206441 0.363182778420816 C 0.0 **** 0.0
31 C46339 0.530324848167533 0.777615695285167 0.357441816487564 C 0.0 **** 0.0
32 C46340 0.515626406600772 0.777875355861765 0.370195179165098 C 0.0 **** 0.0
33 C46345 0.540685350234967 0.794236258269465 0.357122969494137 C 0.0 **** 0.0
34 C46346 0.554561645951537 0.795060116847059 0.367389606970986 C 0.0 **** 0.0
35 C46347 0.561204335987021 0.780390148523844 0.377871511723328 C 0.0 **** 0.0
36 C46348 0.554000689932298 0.763434783986692 0.372835414390527 C 0.0 **** 0.0
37 C46354 0.566110096295574 0.810044344449258 0.368494782410225 C 0.0 **** 0.0
38 C46355 0.559321209162985 0.825925590050246 0.359608319673529 C 0.0 **** 0.0
39 C46356 0.545114693126265 0.822434652488647 0.347493052750982 C 0.0 **** 0.0
40 C46357 0.536489698814965 0.807480797241378 0.346746779250124 C 0.0 **** 0.0
41 C46363 0.521890346449628 0.806412110268898 0.333804316671395 C 0.0 **** 0.0
42 C46364 0.524315325774481 0.818352084111501 0.318856944830148 C 0.0 **** 0.0
43 C46365 0.525770498464264 0.836413101032774 0.325893768084102 C 0.0 **** 0.0
44 C46366 0.541496561053635 0.837960119449456 0.336956275555187 C 0.0 **** 0.0
45 C46372 0.488614879945834 0.793903589625554 0.373989042357988 C 0.0 **** 0.0
46 C46373 0.505571407265667 0.794168725548658 0.371290656084793 C 0.0 **** 0.0
47 C46377 0.452895210928889 0.792749553971804 0.386434685124068 C 0.0 **** 0.0
48 C46378 0.460393062019648 0.808969975624255 0.386970626876223 C 0.0 **** 0.0
49 S46379 0.478372564143747 0.813265564291686 0.37533797735186 S 0.0 **** 0.0
50 C46384 0.453404460911141 0.822061059370403 0.395810100411101 C 0.0 **** 0.0
51 C46385 0.437226718466923 0.820024211605143 0.403084745099245 C 0.0 **** 0.0
52 C46386 0.428465880085468 0.804567957113599 0.400897391806798 C 0.0 **** 0.0
53 C46387 0.436543067897823 0.790851393366477 0.393326773304898 C 0.0 **** 0.0
54 C46393 0.411215867052049 0.804000409753845 0.404543961352516 C 0.0 **** 0.0
55 C46394 0.402422000963521 0.818644176978243 0.409340863490881 C 0.0 **** 0.0
56 C46395 0.41127584170878 0.833808035956806 0.412839875332523 C 0.0 **** 0.0
57 C46396 0.428783545731545 0.833994408040407 0.40994317629298 C 0.0 **** 0.0
58 C46402 0.402254531901663 0.848496246757006 0.416721497626577 C 0.0 **** 0.0
59 C46403 0.384974799517012 0.848737472937254 0.413916138025649 C 0.0 **** 0.0
60 C46404 0.375711163781705 0.833592691977146 0.412382166314303 C 0.0 **** 0.0
61 C46405 0.384848315470801 0.818519098871931 0.410261531638767 C 0.0 **** 0.0
62 C46411 0.427913399036242 0.775369090551216 0.391768812974886 C 0.0 **** 0.0
63 C46412 0.436408347961736 0.762176122213107 0.383413654413203 C 0.0 **** 0.0
64 C46416 0.402592344501341 0.788710358727431 0.402907399236053 C 0.0 **** 0.0
65 C46417 0.41126680968978 0.773906317011421 0.398510235391612 C 0.0 **** 0.0
66 C46421 0.376355098870693 0.803100558249372 0.409176373896335 C 0.0 **** 0.0
67 C46422 0.385446641250749 0.788241096511857 0.406278416352014 C 0.0 **** 0.0
68 C46426 0.357765700851836 0.832865611635309 0.414499633279118 C 0.0 **** 0.0
69 C46427 0.349644659523519 0.817003331271223 0.41408246060691 C 0.0 **** 0.0
70 C46428 0.358967421649285 0.802363163423264 0.411886976378838 C 0.0 **** 0.0
71 O46433 0.37716625650497 0.864490980669139 0.4140267477482 O 0.0 **** 0.0
72 C46434 0.385594822523345 0.876661240040877 0.403429829133603 C 0.0 **** 0.0
73 C46435 0.405208745712691 0.876853867785764 0.406282165041528 C 0.0 **** 0.0
74 C46436 0.408982366025538 0.865774619553005 0.421677856721664 C 0.0 **** 0.0
75 C46442 0.412528934620546 0.894894466328778 0.40713128295606 C 0.0 **** 0.0
76 C46443 0.40484202822359 0.905527139581157 0.392894502514255 C 0.0 **** 0.0
77 C46444 0.385830634729276 0.908577774597883 0.39595615290624 C 0.0 **** 0.0
78 C46445 0.377463918765495 0.894175391025719 0.406517460533655 C 0.0 **** 0.0
79 C46451 0.357973609495278 0.893819036736048 0.404545492429845 C 0.0 **** 0.0
80 C46452 0.351634309983996 0.911462010469504 0.399711030640953 C 0.0 **** 0.0
81 C46453 0.359404046714749 0.917729152568208 0.382875930736449 C 0.0 **** 0.0
82 N46454 0.37703937165745 0.912219267135572 0.380226521489351 N 0.0 **** 0.0
83 C46460 0.403432537116038 0.757958687382129 0.40093806504963 C 0.0 **** 0.0
84 C46461 0.386507055535178 0.757261949233243 0.405358414352192 C 0.0 **** 0.0
85 C46462 0.377438314001926 0.772454389516333 0.407563801635085 C 0.0 **** 0.0
86 O46467 0.377805488815751 0.742181722700386 0.407434109213819 O 0.0 **** 0.0
87 C46468 0.388689346244609 0.728005866607516 0.409749306526542 C 0.0 **** 0.0
88 C46469 0.402564928709866 0.728349612289351 0.39685731486694 C 0.0 **** 0.0
89 O46470 0.412605723066835 0.743184817874225 0.398749368165034 O 0.0 **** 0.0
90 C46476 0.395999615670431 0.726838538106112 0.378467751226182 C 0.0 **** 0.0
91 C46477 0.378940057960778 0.717551867692447 0.377090848396916 C 0.0 **** 0.0
92 C46478 0.377222426256611 0.704026736428038 0.390829913128203 C 0.0 **** 0.0
93 C46479 0.378022959575027 0.7117510745114 0.408808924518765 C 0.0 **** 0.0
94 C46485 0.3508487765228 0.786479416820733 0.41389862743637 C 0.0 **** 0.0
95 C46486 0.360280426843943 0.771622369533747 0.41172282957152 C 0.0 **** 0.0
96 C46490 0.332384161966608 0.815823791731244 0.418019096746083 C 0.0 **** 0.0
97 C46491 0.324016973655532 0.8000538875193 0.418895940890841 C 0.0 **** 0.0
98 C46492 0.333439916461413 0.785624589339394 0.417762941378194 C 0.0 **** 0.0
99 C46497 0.323309640402133 0.830119878746447 0.423293269359678 C 0.0 **** 0.0
100 C46498 0.330889995801827 0.845792392382828 0.423405954273479 C 0.0 **** 0.0
101 C46499 0.347608161297018 0.846860358096331 0.418874223881443 C 0.0 **** 0.0
102 O46504 0.306717747625594 0.798947839766404 0.42109653411863 O 0.0 **** 0.0
103 C46505 0.298967748804941 0.811776207709272 0.429939228094141 C 0.0 **** 0.0
104 C46506 0.306179818277993 0.827434337958297 0.430697445667699 C 0.0 **** 0.0
105 C46511 0.321878395326868 0.861739150986028 0.42886107952966 C 0.0 **** 0.0
106 C46512 0.306626961895973 0.857687825854191 0.440994430958889 C 0.0 **** 0.0
107 C46513 0.298619703223797 0.840241371206682 0.43933527445418 C 0.0 **** 0.0
108 C46518 0.292599497841664 0.871136547753379 0.439279008199294 C 0.0 **** 0.0
109 C46519 0.299953855108379 0.888926805777384 0.437074005819548 C 0.0 **** 0.0
110 C46520 0.309539127243505 0.88996882406366 0.419971542385981 C 0.0 **** 0.0
111 C46521 0.316167073761948 0.872589087471918 0.413851482461827 C 0.0 **** 0.0
112 C46527 0.283542813500053 0.837413009129718 0.447189178245719 C 0.0 **** 0.0
113 C46528 0.276323714461171 0.821667425500932 0.446684239800541 C 0.0 **** 0.0
114 C46529 0.283854326913783 0.808920585262182 0.437831952968076 C 0.0 **** 0.0
115 C46534 0.280089057247041 0.868435273416713 0.453690396725836 C 0.0 **** 0.0
116 C46536 0.275364395932288 0.851780703850511 0.456654269402549 C 0.0 **** 0.0
117 C46539 0.510603140556292 0.816098402684092 0.305077720882433 C 0.0 **** 0.0
118 C46541 0.492722211788917 0.821031729563675 0.310698582790807 C 0.0 **** 0.0
119 C46543 0.515118507014135 0.825598759712168 0.288790069851808 C 0.0 **** 0.0
120 O46545 0.426270098279165 0.866089269078999 0.426585629686841 O 0.0 **** 0.0
121 C46547 0.276135016964541 0.793467215656551 0.436800825934992 C 0.0 **** 0.0
122 C46548 0.260947053794167 0.790796584372305 0.44449562830111 C 0.0 **** 0.0
123 C46549 0.253545416840055 0.803348495937389 0.453760044983935 C 0.0 **** 0.0
124 C46550 0.261476143341089 0.818677225721198 0.45498832936072 C 0.0 **** 0.0
125 C46556 0.253894394501001 0.832123114252454 0.465618186756761 C 0.0 **** 0.0
126 C46557 0.238880004175508 0.828941477306501 0.473502503425175 C 0.0 **** 0.0
127 C46558 0.230635058580498 0.812308600081721 0.471320305537507 C 0.0 **** 0.0
128 C46559 0.238297312812717 0.800159764517326 0.461608477863337 C 0.0 **** 0.0
129 C46565 0.215460124763635 0.809356462461639 0.479097361234092 C 0.0 **** 0.0
130 C46566 0.207843123189732 0.821476776037222 0.488919737990248 C 0.0 **** 0.0
131 C46567 0.215033007065741 0.837057984776576 0.491321404400739 C 0.0 **** 0.0
132 C46568 0.231399546554224 0.841119566139561 0.483230837085724 C 0.0 **** 0.0
133 C46574 0.23864699915901 0.857249455668405 0.484951356282302 C 0.0 **** 0.0
134 C46575 0.253692427636533 0.860778347498622 0.476387333883915 C 0.0 **** 0.0
135 C46576 0.261524944209503 0.848061633859942 0.466911479769936 C 0.0 **** 0.0
136 C46581 0.23020136772166 0.870086219079348 0.493700483981514 C 0.0 **** 0.0
137 C46582 0.214212212685428 0.864616973331186 0.502871098089727 C 0.0 **** 0.0
138 C46583 0.207264509777543 0.848899285974159 0.501133063177223 C 0.0 **** 0.0
139 C46588 0.272391389244613 0.880962709648016 0.463046844143077 C 0.0 **** 0.0
140 C46589 0.259549818340933 0.877509930982415 0.475224267643677 C 0.0 **** 0.0
141 C46594 0.236386000253391 0.886592954277062 0.493142844006029 C 0.0 **** 0.0
142 C46595 0.251316978434381 0.890310759443258 0.48453821081875 C 0.0 **** 0.0
143 C46599 0.258128144992423 0.908357455652349 0.484006077454566 C 0.0 **** 0.0
144 C46600 0.25511710544744 0.917313879630153 0.500909200710991 C 0.0 **** 0.0
145 C46601 0.236423434765249 0.917017758470251 0.504909540000226 C 0.0 **** 0.0
146 C46602 0.226992291503273 0.900848237358378 0.501459281322074 C 0.0 **** 0.0
147 O46608 0.212045651844243 0.900563210551579 0.50490733913009 O 0.0 **** 0.0
148 H46610 0.586692355112696 0.659803048935027 0.330458578343847 H 0.0 **** 0.0
149 H46612 0.574104513872342 0.656980985689749 0.312197281640448 H 0.0 **** 0.0
150 H46614 0.595477194665071 0.682980982312298 0.313229595784161 H 0.0 **** 0.0
151 H46616 0.575056479450083 0.686315053172365 0.304893035478426 H 0.0 **** 0.0
152 H46618 0.586290431290425 0.694261288003555 0.340823583603993 H 0.0 **** 0.0
153 H46620 0.55992832883942 0.69558845047054 0.349852896949475 H 0.0 **** 0.0
154 H46622 0.547728123253744 0.679815727482151 0.316687940247914 H 0.0 **** 0.0
155 H46624 0.539460951135713 0.676993046085831 0.337319331559526 H 0.0 **** 0.0
156 H46626 0.549423186717203 0.713489146786033 0.317408203020275 H 0.0 **** 0.0
157 H46628 0.552601765778905 0.739547689075681 0.333144898734863 H 0.0 **** 0.0
158 H46630 0.583878942128188 0.726472824875635 0.347667501528962 H 0.0 **** 0.0
159 H46632 0.581841049947006 0.740952363157581 0.330910713073283 H 0.0 **** 0.0
160 H46634 0.597226162430368 0.715166248971005 0.321528560787103 H 0.0 **** 0.0
161 H46636 0.577776615918137 0.716847419471887 0.31066476343333 H 0.0 **** 0.0
162 H46638 0.540933534269652 0.728818286297408 0.376641859792611 H 0.0 **** 0.0
163 H46640 0.535403050402607 0.702931412564527 0.362206395926413 H 0.0 **** 0.0
164 H46642 0.52430508473354 0.723083279224605 0.331182061918825 H 0.0 **** 0.0
165 H46644 0.524109876000556 0.700970462364766 0.332916222951245 H 0.0 **** 0.0
166 H46646 0.530147520362935 0.746746319265263 0.34415754754183 H 0.0 **** 0.0
167 H46648 0.464036610161283 0.717959681327722 0.376802678466621 H 0.0 **** 0.0
168 H46650 0.471444638150584 0.713142934158701 0.356304106269299 H 0.0 **** 0.0
169 H46652 0.479423047720754 0.689584335757305 0.374862016027838 H 0.0 **** 0.0
170 H46654 0.487722284436935 0.703345290753948 0.390300636517858 H 0.0 **** 0.0
171 H46656 0.509293868182731 0.688290003334179 0.367996458926971 H 0.0 **** 0.0
172 H46658 0.525356346177196 0.774965286826822 0.344714187262261 H 0.0 **** 0.0
173 H46659 0.558745369791946 0.782786610561952 0.391391597639953 H 0.0 **** 0.0
174 H46661 0.575100538164154 0.779820842634764 0.376337604204218 H 0.0 **** 0.0
175 H46663 0.560377515665397 0.752189963918649 0.377610703091315 H 0.0 **** 0.0
176 H46665 0.568516959647513 0.812991568979438 0.381913838642604 H 0.0 **** 0.0
177 H46667 0.578397728617547 0.806503349165972 0.362909422028068 H 0.0 **** 0.0
178 H46669 0.569800004095143 0.832225087316043 0.352861058413742 H 0.0 **** 0.0
179 H46671 0.554739819680683 0.83499882413591 0.369168678975953 H 0.0 **** 0.0
180 H46673 0.520514429765682 0.793479816836409 0.328932209786691 H 0.0 **** 0.0
181 H46675 0.509929685025902 0.809458507807821 0.340246166513592 H 0.0 **** 0.0
182 H46677 0.536505693761248 0.815170566408793 0.312761089377049 H 0.0 **** 0.0
183 H46679 0.514375666318383 0.839291821247719 0.333393256543943 H 0.0 **** 0.0
184 H46681 0.526367242747258 0.845965478693997 0.315773404031623 H 0.0 **** 0.0
185 H46683 0.540470855557987 0.849077377827358 0.345340307874345 H 0.0 **** 0.0
186 H46685 0.552585801008187 0.840174939261703 0.328761062687508 H 0.0 **** 0.0
187 H46687 0.512372543013929 0.806105586453983 0.370455059621097 H 0.0 **** 0.0
188 H46689 0.459498613100593 0.834517090450591 0.396253903407951 H 0.0 **** 0.0
189 H46691 0.436035700658593 0.845782868532842 0.410502369911556 H 0.0 **** 0.0
190 H46693 0.430417753032097 0.750019766251582 0.380636918411132 H 0.0 **** 0.0
191 H46695 0.383014086693254 0.873025199172773 0.390226931594739 H 0.0 **** 0.0
192 H46697 0.411509542345703 0.870893881358622 0.395307607115786 H 0.0 **** 0.0
193 H46699 0.40154435456241 0.870699834178579 0.432484281763935 H 0.0 **** 0.0
194 H46701 0.409829374512806 0.900729962578615 0.419483072253636 H 0.0 **** 0.0
195 H46703 0.426405840935446 0.894297657368504 0.40595729639216 H 0.0 **** 0.0
196 H46705 0.406672919338702 0.898630028715145 0.38091401578931 H 0.0 **** 0.0
197 H46707 0.411424612461751 0.917720520384009 0.391361548241327 H 0.0 **** 0.0
198 H46709 0.384864834090749 0.920186480872561 0.403634145384517 H 0.0 **** 0.0
199 H46711 0.380198064612569 0.897133172529628 0.419893539053288 H 0.0 **** 0.0
200 H46713 0.354348135132592 0.884834957347945 0.394516016531829 H 0.0 **** 0.0
201 H46715 0.352006557462981 0.889347902870368 0.416304098191659 H 0.0 **** 0.0
202 H46717 0.355211172822471 0.920243802075846 0.409949863821819 H 0.0 **** 0.0
203 H46719 0.337752240682357 0.912024896968081 0.398860003010682 H 0.0 **** 0.0
204 H46721 0.359136258043769 0.931637386138671 0.382531197524022 H 0.0 **** 0.0
205 H46723 0.351665030169705 0.913423921874568 0.37212354234095 H 0.0 **** 0.0
206 H46725 0.377471833315379 0.901989216513392 0.372763521360629 H 0.0 **** 0.0
207 H46727 0.394438280648363 0.729203419647597 0.422400186059246 H 0.0 **** 0.0
208 H46729 0.410848551735874 0.717473383725367 0.399535675489773 H 0.0 **** 0.0
209 H46731 0.394694981517795 0.73965858830876 0.373244458725743 H 0.0 **** 0.0
210 H46733 0.405537248666413 0.720485772782257 0.370550373266049 H 0.0 **** 0.0
211 H46735 0.377372716039954 0.712064015767156 0.364376284326295 H 0.0 **** 0.0
212 H46737 0.368612445234465 0.726750969389443 0.378710843000028 H 0.0 **** 0.0
213 H46739 0.387483306511728 0.69473766040996 0.38924988046584 H 0.0 **** 0.0
214 H46741 0.365312484060886 0.697015877452165 0.38927196670592 H 0.0 **** 0.0
215 H46743 0.382477442319349 0.702104849666435 0.417801980128224 H 0.0 **** 0.0
216 H46745 0.36513698439671 0.715151918616236 0.412862372607089 H 0.0 **** 0.0
217 H46747 0.353975127777924 0.759320824484206 0.413111681600329 H 0.0 **** 0.0
218 H46749 0.327390596610688 0.773250231449896 0.419466854086588 H 0.0 **** 0.0
219 H46751 0.35267881317397 0.859621273029725 0.42009458782902 H 0.0 **** 0.0
220 H46753 0.330851047883956 0.869476304143475 0.436211137839109 H 0.0 **** 0.0
221 H46755 0.311979403676956 0.858124163514547 0.453785010150264 H 0.0 **** 0.0
222 H46757 0.285630972401558 0.86848503735842 0.427446639920532 H 0.0 **** 0.0
223 H46759 0.30860278698025 0.891583565651463 0.447653048964865 H 0.0 **** 0.0
224 H46761 0.290030851655278 0.898683492568047 0.437372627829658 H 0.0 **** 0.0
225 H46763 0.32021246723844 0.898824354848534 0.421080073851271 H 0.0 **** 0.0
226 H46765 0.301138933522331 0.895322836041666 0.410226980247032 H 0.0 **** 0.0
227 H46767 0.326506344866324 0.874461376617559 0.404706358458587 H 0.0 **** 0.0
228 H46769 0.306088832690914 0.865820774737286 0.406996240031477 H 0.0 **** 0.0
229 H46771 0.510260161438139 0.802508461439459 0.301822206396107 H 0.0 **** 0.0
230 H46773 0.483587270330934 0.818482551707872 0.30049911948786 H 0.0 **** 0.0
231 H46775 0.491950681318663 0.834586470934085 0.313735465450511 H 0.0 **** 0.0
232 H46777 0.488535219251098 0.813894606085143 0.321877670141877 H 0.0 **** 0.0
233 H46779 0.527562661344824 0.821754829640115 0.283882115866074 H 0.0 **** 0.0
234 H46781 0.515394815745227 0.839348561296168 0.2908611174288 H 0.0 **** 0.0
235 H46783 0.505728028176667 0.823088924734852 0.278837674953939 H 0.0 **** 0.0
236 H46785 0.427415490226472 0.857454232937884 0.434892793541798 H 0.0 **** 0.0
237 H46787 0.281799292992694 0.783074530437254 0.429703996136944 H 0.0 **** 0.0
238 H46789 0.255002870143647 0.778409790067853 0.443253770634964 H 0.0 **** 0.0
239 H46791 0.232278073914965 0.787819234170681 0.460144483148662 H 0.0 **** 0.0
240 H46793 0.209111818913655 0.797197948553919 0.477638623213508 H 0.0 **** 0.0
241 H46795 0.195749189528371 0.818386442131113 0.494794183434379 H 0.0 **** 0.0
242 H46797 0.207775964213188 0.873478283207852 0.511163317076995 H 0.0 **** 0.0
243 H46799 0.19540049744967 0.846136004848142 0.50756286868855 H 0.0 **** 0.0
244 H46801 0.276407087723451 0.8940091215229 0.46067331393592 H 0.0 **** 0.0
245 H46803 0.271790772950353 0.908521216107173 0.481419878525275 H 0.0 **** 0.0
246 H46805 0.251974399629677 0.915474229992826 0.473683113701058 H 0.0 **** 0.0
247 H46807 0.259664613127951 0.930475086525135 0.500531667237099 H 0.0 **** 0.0
248 H46809 0.262405128026779 0.910844254893637 0.510858497316895 H 0.0 **** 0.0
249 H46811 0.229251500493286 0.926185098459654 0.497260181212233 H 0.0 **** 0.0
250 H46813 0.233181411813299 0.919726483015335 0.518158219137048 H 0.0 **** 0.0
@<TRIPOS>BOND
1 3 2 1
2 4 3 1
3 5 4 1
4 6 5 1
5 1 2 1
6 1 6 1
7 8 7 1
8 9 8 1
9 10 9 1
10 4 7 1
11 3 10 1
12 12 11 1
13 13 12 1
14 14 13 1
15 8 11 1
16 7 14 1
17 16 15 1
18 17 16 Partial double
19 18 17 1
20 13 15 1
21 12 18 1
22 20 19 Partial double
23 21 20 Partial double
24 22 21 Partial double
25 17 19 Partial double
26 16 22 Partial double
27 24 23 1
28 25 24 1
29 15 25 Double
30 22 23 1
31 27 26 1
32 28 27 Partial double
33 29 28 Partial double
34 21 26 1
35 20 29 Partial double
36 31 30 1
37 32 31 1
38 18 30 1
39 19 32 1
40 34 33 Double
41 35 34 1
42 36 35 1
43 31 33 1
44 30 36 Double
45 38 37 1
46 39 38 1
47 40 39 Double
48 34 37 1
49 33 40 1
50 42 41 1
51 43 42 1
52 44 43 1
53 40 41 1
54 39 44 1
55 46 45 Partial double
56 32 46 1
57 29 45 Partial double
58 48 47 Partial double
59 49 48 1
60 45 49 Partial double
61 28 47 Partial double
62 51 50 Partial double
63 52 51 Partial double
64 53 52 Partial double
65 48 50 Partial double
66 47 53 Partial double
67 55 54 Partial double
68 56 55 Partial double
69 57 56 Partial double
70 52 54 Partial double
71 51 57 Partial double
72 59 58 Partial double
73 60 59 Partial double
74 61 60 Partial double
75 56 58 Partial double
76 55 61 Partial double
77 63 62 Partial double
78 27 63 Partial double
79 53 62 Partial double
80 65 64 Partial double
81 62 65 Partial double
82 54 64 Partial double
83 67 66 Partial double
84 64 67 Partial double
85 61 66 Partial double
86 69 68 Partial double
87 70 69 Partial double
88 66 70 Partial double
89 60 68 Partial double
90 72 71 1
91 73 72 1
92 74 73 1
93 59 71 1
94 58 74 1
95 76 75 1
96 77 76 1
97 78 77 1
98 73 75 1
99 72 78 1
100 80 79 1
101 81 80 1
102 82 81 1
103 78 79 1
104 77 82 1
105 84 83 Partial double
106 85 84 Partial double
107 67 85 Partial double
108 65 83 Partial double
109 87 86 1
110 88 87 1
111 89 88 1
112 84 86 1
113 83 89 1
114 91 90 1
115 92 91 1
116 93 92 1
117 88 90 1
118 87 93 1
119 95 94 Partial double
120 85 95 Partial double
121 70 94 Partial double
122 97 96 Partial double
123 98 97 Partial double
124 94 98 Partial double
125 69 96 Partial double
126 100 99 Partial double
127 101 100 Partial double
128 68 101 Partial double
129 96 99 Partial double
130 103 102 1
131 104 103 Partial double
132 97 102 1
133 99 104 1
134 106 105 1
135 107 106 1
136 100 105 1
137 104 107 Partial double
138 109 108 1
139 110 109 1
140 111 110 1
141 106 108 1
142 105 111 1
143 113 112 1
144 114 113 1
145 103 114 Partial double
146 107 112 Partial double
147 108 115 1
148 112 116 Partial double
149 115 116 Partial double
150 42 117 1
151 117 118 1
152 117 119 1
153 74 120 1
154 122 121 1
155 123 122 Partial double
156 124 123 1
157 114 121 Partial double
158 113 124 Partial double
159 126 125 Partial double
160 127 126 1
161 128 127 Partial double
162 124 125 Partial double
163 123 128 Partial double
164 130 129 Partial double
165 131 130 1
166 132 131 1
167 127 129 Partial double
168 126 132 Partial double
169 134 133 Partial double
170 135 134 Partial double
171 125 135 Partial double
172 132 133 Partial double
173 137 136 Partial double
174 138 137 Partial double
175 131 138 Partial double
176 133 136 Partial double
177 140 139 Partial double
178 134 140 Partial double
179 116 135 Partial double
180 115 139 Partial double
181 142 141 Partial double
182 140 142 Partial double
183 136 141 Partial double
184 144 143 1
185 145 144 1
186 146 145 1
187 142 143 1
188 141 146 1
189 146 147 Double
190 1 148 1
191 1 149 1
192 2 150 1
193 2 151 1
194 3 152 1
195 4 153 1
196 5 154 1
197 5 155 1
198 7 156 1
199 8 157 1
200 9 158 1
201 9 159 1
202 10 160 1
203 10 161 1
204 12 162 1
205 13 163 1
206 14 164 1
207 14 165 1
208 18 166 1
209 23 167 1
210 23 168 1
211 24 169 1
212 24 170 1
213 25 171 1
214 35 173 1
215 35 174 1
216 36 175 1
217 37 176 1
218 37 177 1
219 38 178 1
220 38 179 1
221 41 180 1
222 41 181 1
223 42 182 1
224 43 183 1
225 43 184 1
226 44 185 1
227 44 186 1
228 46 187 1
229 50 188 1
230 57 189 1
231 63 190 1
232 72 191 1
233 73 192 1
234 74 193 1
235 75 194 1
236 75 195 1
237 76 196 1
238 76 197 1
239 77 198 1
240 78 199 1
241 79 200 1
242 79 201 1
243 80 202 1
244 80 203 1
245 81 204 1
246 81 205 1
247 82 206 1
248 87 207 1
249 88 208 1
250 90 209 1
251 90 210 1
252 91 211 1
253 91 212 1
254 92 213 1
255 92 214 1
256 93 215 1
257 93 216 1
258 95 217 1
259 98 218 1
260 101 219 1
261 105 220 1
262 106 221 1
263 108 222 1
264 109 223 1
265 109 224 1
266 110 225 1
267 110 226 1
268 111 227 1
269 111 228 1
270 117 229 1
271 118 230 1
272 118 231 1
273 118 232 1
274 119 233 1
275 119 234 1
276 119 235 1
277 120 236 1
278 121 237 1
279 122 238 1
280 128 239 1
281 129 240 1
282 130 241 1
283 137 242 1
284 138 243 1
285 139 244 1
286 143 245 1
287 143 246 1
288 144 247 1
289 144 248 1
290 145 249 1
291 145 250 1
292 31 172 1
@<TRIPOS>MOLECULE
Sketch 4
250 292
SMALL
USER_CHARGES


@<TRIPOS>ATOM
1 C46816 0.666262139929513 0.298289310285922 -0.137738942329913 C 0.0 **** 0.0
2 C46817 0.6536647569817 0.308553397660994 -0.148631468574411 C 0.0 **** 0.0
3 C46818 0.662780274974075 0.317650917684957 -0.163418125425393 C 0.0 **** 0.0
4 C46819 0.680982833897689 0.322477250531106 -0.158160711381089 C 0.0 **** 0.0
5 C46820 0.6908194119111 0.30647122543966 -0.152390992707588 C 0.0 **** 0.0
6 O46821 0.680273861934697 0.292726797549166 -0.147416571189778 O 0.0 **** 0.0
7 C46828 0.681066720830086 0.336110369638197 -0.14401578938131 C 0.0 **** 0.0
8 C46829 0.665753119531598 0.348591123573579 -0.145096273523171 C 0.0 **** 0.0
9 C46830 0.659312512850801 0.349955966630688 -0.163279729224513 C 0.0 **** 0.0
10 C46831 0.652810805154974 0.332998607105048 -0.170358653328899 C 0.0 **** 0.0
11 O46837 0.669501189163601 0.365336117784656 -0.139409245260576 O 0.0 **** 0.0
12 C46838 0.679804938188466 0.365553917308787 -0.124516645890365 C 0.0 **** 0.0
13 C46839 0.697911208552189 0.360188196551363 -0.129631135979647 C 0.0 **** 0.0
14 C46840 0.697836065043604 0.345878898948293 -0.143325003795988 C 0.0 **** 0.0
15 C46846 0.709493908664237 0.356383878727307 -0.114829777675659 C 0.0 **** 0.0
16 C46847 0.702012312023603 0.352422964851428 -0.0977436668267132 C 0.0 **** 0.0
17 C46848 0.684744152277025 0.354019285096562 -0.0948928460403703 C 0.0 **** 0.0
18 C46849 0.672376876382044 0.355472856220291 -0.109659696882617 C 0.0 **** 0.0
19 C46855 0.678667767824708 0.35278570307207 -0.0784618997003441 C 0.0 **** 0.0
20 C46856 0.689665744842407 0.34815745588725 -0.065617174203435 C 0.0 **** 0.0
21 C46857 0.706609990721977 0.34486920991397 -0.0687912498930898 C 0.0 **** 0.0
22 C46858 0.71293655597025 0.347447190192272 -0.0849234701875438 C 0.0 **** 0.0
23 C46864 0.731438263181077 0.344055774454433 -0.0885341034732596 C 0.0 **** 0.0
24 C46865 0.738354929177521 0.356632008411825 -0.101788737290431 C 0.0 **** 0.0
25 C46866 0.726320775985168 0.358707273542514 -0.11643814184979 C 0.0 **** 0.0
26 O46871 0.717459043894936 0.33918565238831 -0.0561787242300713 O 0.0 **** 0.0
27 C46872 0.712560303921586 0.340915410631592 -0.0395046948230893 C 0.0 **** 0.0
28 C46873 0.695906174861889 0.343541181606792 -0.0348102419815097 C 0.0 **** 0.0
29 C46874 0.682813061669473 0.345844760365227 -0.0482643879920943 C 0.0 **** 0.0
30 C46880 0.655091915456226 0.361073507585756 -0.103734111763464 C 0.0 **** 0.0
31 C46881 0.648810796438318 0.350248784186478 -0.0891285244073551 C 0.0 **** 0.0
32 C46882 0.660224419397827 0.356404461408138 -0.0745388831366518 C 0.0 **** 0.0
33 C46887 0.6294303375524 0.351513138406578 -0.0856907587382589 C 0.0 **** 0.0
34 C46888 0.621114477906923 0.365262814394127 -0.0920929321079623 C 0.0 **** 0.0
35 C46889 0.629240737096576 0.379025848409395 -0.102688623390249 C 0.0 **** 0.0
36 C46890 0.6463578185921 0.3743715648573 -0.109580176024798 C 0.0 **** 0.0
37 C46896 0.602293893478224 0.367594673991232 -0.0914540362091724 C 0.0 **** 0.0
38 C46897 0.59337261194427 0.35591122078937 -0.0788230912230189 C 0.0 **** 0.0
39 C46898 0.60394723437765 0.341137350024074 -0.0734181943401531 C 0.0 **** 0.0
40 C46899 0.620722601286634 0.3391512633475 -0.077143624082093 C 0.0 **** 0.0
41 C46905 0.629468966152019 0.322646462392156 -0.0712024917096535 C 0.0 **** 0.0
42 C46906 0.617673526214314 0.309077211340906 -0.0641117137156391 C 0.0 **** 0.0
43 C46907 0.604443152062746 0.317318368136002 -0.0525211606223503 C 0.0 **** 0.0
44 C46908 0.593450201479467 0.329250268747768 -0.0627720771903205 C 0.0 **** 0.0
45 C46914 0.666028510963988 0.346660526429556 -0.0449392030559239 C 0.0 **** 0.0
46 C46915 0.654648683024403 0.351416586214143 -0.0568870042156296 C 0.0 **** 0.0
47 C46919 0.691826940403914 0.345353057015985 -0.0175456087440907 C 0.0 **** 0.0
48 C46920 0.674957607935415 0.34693816500946 -0.0119849420383146 C 0.0 **** 0.0
49 S46921 0.658553059086576 0.34103082699711 -0.0250976869967995 S 0.0 **** 0.0
50 C46926 0.67101828300287 0.352655538322893 0.00380654787984038 C 0.0 **** 0.0
51 C46927 0.684111587910545 0.355556713633831 0.0155721654163991 C 0.0 **** 0.0
52 C46928 0.701009035219162 0.351686963330824 0.0110092507574199 C 0.0 **** 0.0
53 C46929 0.704858912822769 0.34714549643177 -0.00556196374009199 C 0.0 **** 0.0
54 C46935 0.713546239675939 0.352189456981203 0.0233614589723643 C 0.0 **** 0.0
55 C46936 0.709361538294424 0.355417646361983 0.0402685141719205 C 0.0 **** 0.0
56 C46937 0.693080805279433 0.361630281492471 0.0445418887612259 C 0.0 **** 0.0
57 C46938 0.680539120251098 0.36106512738257 0.0320255705834191 C 0.0 **** 0.0
58 C46944 0.69007052311437 0.367671573359412 0.0609104496306165 C 0.0 **** 0.0
59 C46945 0.701023791228292 0.362867955507097 0.0737133139630306 C 0.0 **** 0.0
60 C46946 0.717384575243473 0.356533186157345 0.0697935841250837 C 0.0 **** 0.0
61 C46947 0.721698595971679 0.354528530789476 0.0527081918864968 C 0.0 **** 0.0
62 C46953 0.721862617137773 0.345054946773085 -0.0104015601235767 C 0.0 **** 0.0
63 C46954 0.724927300206041 0.340244419331236 -0.0272493122751437 C 0.0 **** 0.0
64 C46958 0.730507488777953 0.350847854941896 0.0185413383846273 C 0.0 **** 0.0
65 C46959 0.734766070883036 0.349382667775002 0.00140164909596828 C 0.0 **** 0.0
66 C46963 0.738714355794106 0.354624951597655 0.0477447988783819 C 0.0 **** 0.0
67 C46964 0.742891640700069 0.353527194492593 0.0305966402390204 C 0.0 **** 0.0
68 C46968 0.7305533873641 0.356501966593354 0.0820611528526575 C 0.0 **** 0.0
69 C46969 0.747178441441255 0.359773823830448 0.0765960414388581 C 0.0 **** 0.0
70 C46970 0.751150275218392 0.358643312659766 0.0595911134683123 C 0.0 **** 0.0
71 O46975 0.696252641720132 0.366230111145549 0.0903285515435849 O 0.0 **** 0.0
72 C46976 0.67900403695309 0.361188508906063 0.0935751603741359 C 0.0 **** 0.0
73 C46977 0.666230770501163 0.36986686206235 0.081275465668033 C 0.0 **** 0.0
74 C46978 0.675560596038911 0.378746561245519 0.0669692093440834 C 0.0 **** 0.0
75 C46984 0.654287945449957 0.382263158733451 0.0903996412651101 C 0.0 **** 0.0
76 C46985 0.644679884317084 0.373265332047265 0.104570492548209 C 0.0 **** 0.0
77 C46986 0.656481180107088 0.365221083386426 0.11787698421078 C 0.0 **** 0.0
78 C46987 0.675421659275123 0.364562274113049 0.112522679845645 C 0.0 **** 0.0
79 C46993 0.685754554548583 0.352498336463837 0.124054941845101 C 0.0 **** 0.0
80 C46994 0.676566368186882 0.3495674535178 0.140863366992955 C 0.0 **** 0.0
81 C46995 0.658918878925502 0.341691274418729 0.13814274501604 C 0.0 **** 0.0
82 N46996 0.649852997330761 0.349072231452707 0.123547622273019 N 0.0 **** 0.0
83 C47002 0.751146355100802 0.354316341122522 -0.00411321998686847 C 0.0 **** 0.0
84 C47003 0.763220166025948 0.358839407979824 0.00773323144004908 C 0.0 **** 0.0
85 C47004 0.759290302841173 0.357731537041292 0.0251270799130311 C 0.0 **** 0.0
86 O47009 0.779313165291245 0.364233665296653 0.00322436102534779 O 0.0 **** 0.0
87 C47010 0.779875864240029 0.370422532330282 -0.0137232290745973 C 0.0 **** 0.0
88 C47011 0.77223179840559 0.357498427808924 -0.0252677695203244 C 0.0 **** 0.0
89 O47012 0.754828036775528 0.354948825854126 -0.0212556073546209 O 0.0 **** 0.0
90 C47018 0.78211313558975 0.340574428047866 -0.0250091160546272 C 0.0 **** 0.0
91 C47019 0.801079702679182 0.342769658238874 -0.0208270760709186 C 0.0 **** 0.0
92 C47020 0.807670527942173 0.35988103070125 -0.0271258997525867 C 0.0 **** 0.0
93 C47021 0.798303719257029 0.374711423378617 -0.0184234520526532 C 0.0 **** 0.0
94 C47027 0.767579686140638 0.363353588069427 0.0542436015343541 C 0.0 **** 0.0
95 C47028 0.77157883270811 0.362447571536563 0.0369734696388257 C 0.0 **** 0.0
96 C47032 0.759166696204806 0.365615558109406 0.0883033511375524 C 0.0 **** 0.0
97 C47033 0.775322306717309 0.371012254711797 0.0828936700684085 C 0.0 **** 0.0
98 C47034 0.779358215594846 0.36970266942519 0.0660948191545001 C 0.0 **** 0.0
99 C47039 0.755263742217434 0.366456535938267 0.105608602460868 C 0.0 **** 0.0
100 C47040 0.739756210888414 0.360824031417832 0.111424796509952 C 0.0 **** 0.0
101 C47041 0.727915518472972 0.355717734985421 0.0996557382900814 C 0.0 **** 0.0
102 O47046 0.787364338659524 0.377181039090229 0.0939130978356636 O 0.0 **** 0.0
103 C47047 0.783263073612065 0.379349464982664 0.110737120687191 C 0.0 **** 0.0
104 C47048 0.76820867951009 0.373850784103955 0.117242010353561 C 0.0 **** 0.0
105 C47053 0.735034466072206 0.360462003513201 0.130023897179714 C 0.0 **** 0.0
106 C47054 0.747575620969585 0.371035564003746 0.14166085784113 C 0.0 **** 0.0
107 C47055 0.764627072670097 0.375856814865969 0.13400795055531 C 0.0 **** 0.0
108 C47060 0.750282229566365 0.362430926294018 0.15899529093366 C 0.0 **** 0.0
109 C47061 0.733466470445127 0.355702716387835 0.166014646070383 C 0.0 **** 0.0
110 C47062 0.726434962415154 0.341440259976833 0.154569329437607 C 0.0 **** 0.0
111 C47063 0.733320707240035 0.342179350688944 0.136308073298453 C 0.0 **** 0.0
112 C47069 0.776481024374232 0.382853365902391 0.144441301414669 C 0.0 **** 0.0
113 C47070 0.79119289196883 0.389226747521691 0.137824691995354 C 0.0 **** 0.0
114 C47071 0.794587538522746 0.387427284877159 0.121030109362559 C 0.0 **** 0.0
115 C47076 0.759636413100451 0.374918432871772 0.170378668886686 C 0.0 **** 0.0
116 C47078 0.772735890350394 0.384066548004814 0.163094447270975 C 0.0 **** 0.0
117 C47081 0.627565274761802 0.294575004927253 -0.0554337463599962 C 0.0 **** 0.0
118 C47083 0.63563354915306 0.299690403843755 -0.0385502833296561 C 0.0 **** 0.0
119 C47085 0.616533341378685 0.278901626167036 -0.0525088414885957 C 0.0 **** 0.0
120 O47087 0.663946940608561 0.383966127142308 0.0541933165468421 O 0.0 **** 0.0
121 C47089 0.809278508072022 0.393860644678589 0.114547859050208 C 0.0 **** 0.0
122 C47090 0.820472680039387 0.402198019480745 0.124632348272255 C 0.0 **** 0.0
123 C47091 0.817100534006241 0.404258702608712 0.141423793421018 C 0.0 **** 0.0
124 C47092 0.802467175263496 0.397642027391243 0.147911596131966 C 0.0 **** 0.0
125 C47098 0.798670781154148 0.400036717253263 0.166088914022546 C 0.0 **** 0.0
126 C47099 0.810081108425778 0.408526717068924 0.175902057230403 C 0.0 **** 0.0
127 C47100 0.825613823305284 0.415477125286673 0.168164153934841 C 0.0 **** 0.0
128 C47101 0.828538050457794 0.413049890401346 0.151254445177492 C 0.0 **** 0.0
129 C47107 0.836758038680945 0.424263079682739 0.178078013959548 C 0.0 **** 0.0
130 C47108 0.833890750114993 0.426531961542237 0.195048902562745 C 0.0 **** 0.0
131 C47109 0.819839372557501 0.420063641017936 0.202858972274018 C 0.0 **** 0.0
132 C47110 0.807178432052117 0.410630901569161 0.192815336982442 C 0.0 **** 0.0
133 C47116 0.792662486685064 0.403910377795466 0.200491845751188 C 0.0 **** 0.0
134 C47117 0.780931536417897 0.395279186892928 0.190489410963058 C 0.0 **** 0.0
135 C47118 0.783828204926376 0.393457098558281 0.173137609367232 C 0.0 **** 0.0
136 C47123 0.789988796347758 0.405517591011857 0.217884800907945 C 0.0 **** 0.0
137 C47124 0.803273153816487 0.415661966780654 0.227368584752241 C 0.0 **** 0.0
138 C47125 0.817299866084891 0.422299637620002 0.219768004572073 C 0.0 **** 0.0
139 C47130 0.756688494078628 0.376995165922759 0.187443585618223 C 0.0 **** 0.0
140 C47131 0.766694434606875 0.387708203058036 0.197873971564271 C 0.0 **** 0.0
141 C47136 0.775529216277869 0.398539582102612 0.225129389533134 C 0.0 **** 0.0
142 C47137 0.763568506969158 0.390173880296053 0.215243901923034 C 0.0 **** 0.0
143 C47141 0.747584128739106 0.383149978648675 0.223367367414847 C 0.0 **** 0.0
144 C47142 0.740936891197134 0.396021959362443 0.236156590801138 C 0.0 **** 0.0
145 C47143 0.754264767772867 0.398678631646144 0.249582866594083 C 0.0 **** 0.0
146 C47144 0.772319486072291 0.399925953810298 0.243737374307305 C 0.0 **** 0.0
147 O47150 0.783230683286517 0.401370288101504 0.254424450946145 O 0.0 **** 0.0
148 H47152 0.660314008471512 0.286837429906121 -0.132719240653523 H 0.0 **** 0.0
149 H47154 0.670420472143285 0.3056219302237 -0.126634298310998 H 0.0 **** 0.0
150 H47156 0.64378986495573 0.300249684897941 -0.153924716892086 H 0.0 **** 0.0
151 H47158 0.646887473081663 0.317635278656555 -0.14054760332109 H 0.0 **** 0.0
152 H47160 0.663883984848152 0.308202539455158 -0.173654349636025 H 0.0 **** 0.0
153 H47162 0.687302881238866 0.327982555966421 -0.169336440770482 H 0.0 **** 0.0
154 H47164 0.699631392639298 0.30962509293924 -0.142063635664056 H 0.0 **** 0.0
155 H47166 0.698516884953424 0.301388901353526 -0.162763230509133 H 0.0 **** 0.0
156 H47168 0.680325095514027 0.329229185544357 -0.131949720435485 H 0.0 **** 0.0
157 H47170 0.655267300263797 0.343595246470546 -0.13734808597373 H 0.0 **** 0.0
158 H47172 0.669825980362886 0.354652865622707 -0.171145428058456 H 0.0 **** 0.0
159 H47174 0.649376442840769 0.359702165154481 -0.163870324177395 H 0.0 **** 0.0
160 H47176 0.653612588552682 0.333289197596132 -0.184263800664958 H 0.0 **** 0.0
161 H47178 0.639275366978356 0.331503876123412 -0.167390719945922 H 0.0 **** 0.0
162 H47180 0.680363782297066 0.378966280469065 -0.120809255655757 H 0.0 **** 0.0
163 H47182 0.703515844764781 0.371334083911486 -0.135887741906136 H 0.0 **** 0.0
164 H47184 0.708521930138915 0.337120039711422 -0.141632839709878 H 0.0 **** 0.0
165 H47186 0.699789258197688 0.351937830001774 -0.15574253561856 H 0.0 **** 0.0
166 H47188 0.670322644811429 0.342340631853741 -0.113863330322016 H 0.0 **** 0.0
167 H47190 0.739064714877492 0.344886013298833 -0.076934002297922 H 0.0 **** 0.0
168 H47192 0.732900253158571 0.33102097887721 -0.0932835143375478 H 0.0 **** 0.0
169 H47194 0.750769332909685 0.352244630566968 -0.106426554020122 H 0.0 **** 0.0
170 H47196 0.740467826141691 0.369063179771905 -0.0958519179895217 H 0.0 **** 0.0
171 H47198 0.732006061846616 0.362938419690815 -0.128261118211859 H 0.0 **** 0.0
172 H47200 0.651834233857418 0.33694284965162 -0.0920097785542217 H 0.0 **** 0.0
173 H47201 0.63018949506119 0.39076028159786 -0.0952461324265428 H 0.0 **** 0.0
174 H47203 0.620833868305913 0.381812648412659 -0.113521844459271 H 0.0 **** 0.0
175 H47205 0.651385143878423 0.382346521117581 -0.11963414825031 H 0.0 **** 0.0
176 H47207 0.599254040672935 0.380876464880194 -0.0884929096309756 H 0.0 **** 0.0
177 H47209 0.59726689021857 0.365214880511703 -0.104250965768251 H 0.0 **** 0.0
178 H47211 0.581445035581739 0.351297728324956 -0.0844408590689625 H 0.0 **** 0.0
179 H47213 0.589808900916764 0.363129665178998 -0.0674554402756067 H 0.0 **** 0.0
180 H47215 0.636707293922972 0.317191772738496 -0.0817823278471309 H 0.0 **** 0.0
181 H47217 0.638755744162249 0.325715665067866 -0.0613974625227483 H 0.0 **** 0.0
182 H47219 0.610832905241019 0.303472941532472 -0.0749280916124961 H 0.0 **** 0.0
183 H47221 0.610900199002663 0.324473231695104 -0.0424408575603413 H 0.0 **** 0.0
184 H47223 0.596531822392749 0.307800082579447 -0.0461614128387281 H 0.0 **** 0.0
185 H47225 0.585210491723686 0.336672420732763 -0.0542745170784208 H 0.0 **** 0.0
186 H47227 0.585062241337854 0.32199265435478 -0.0712237486859034 H 0.0 **** 0.0
187 H47229 0.641232583050548 0.352122957521672 -0.0539461785783981 H 0.0 **** 0.0
188 H47231 0.657849388472458 0.354290478467853 0.0076066293509383 H 0.0 **** 0.0
189 H47233 0.667322581032628 0.363848095221309 0.0350267927215182 H 0.0 **** 0.0
190 H47235 0.737655987331287 0.337245929460514 -0.0318302380679216 H 0.0 **** 0.0
191 H47237 0.67827189300176 0.34744895414071 0.091332711909684 H 0.0 **** 0.0
192 H47239 0.658172338582029 0.360106724779339 0.0753998437737572 H 0.0 **** 0.0
193 H47241 0.681252483235185 0.390314738138589 0.0724355498031681 H 0.0 **** 0.0
194 H47243 0.661590045320838 0.393002683814607 0.0954519114188483 H 0.0 **** 0.0
195 H47245 0.645196869516969 0.387627357080041 0.0812695456142036 H 0.0 **** 0.0
196 H47247 0.636991849097908 0.363380569800911 0.0986130517977167 H 0.0 **** 0.0
197 H47249 0.635589095260902 0.381882853783579 0.110674716704482 H 0.0 **** 0.0
198 H47251 0.656006362411713 0.373503665152101 0.129098879199839 H 0.0 **** 0.0
199 H47253 0.680197466967541 0.377514485612191 0.114576117445676 H 0.0 **** 0.0
200 H47255 0.687413846388608 0.340153463754379 0.117781276659358 H 0.0 **** 0.0
201 H47257 0.698467003770623 0.357609509803928 0.126212021754153 H 0.0 **** 0.0
202 H47259 0.675272163227088 0.361833637015511 0.14739036655748 H 0.0 **** 0.0
203 H47261 0.68389973285711 0.341387058958305 0.149406985070862 H 0.0 **** 0.0
204 H47263 0.651087640456823 0.343294888276728 0.149561668040594 H 0.0 **** 0.0
205 H47265 0.660183836846946 0.32795041286477 0.136192374577216 H 0.0 **** 0.0
206 H47267 0.649300367933563 0.340924435063334 0.113854902980064 H 0.0 **** 0.0
207 H47269 0.772072896095222 0.381972888183782 -0.0142235249288951 H 0.0 **** 0.0
208 H47271 0.772672895026166 0.362649171540567 -0.0382184401661559 H 0.0 **** 0.0
209 H47273 0.776198183018238 0.332162272066616 -0.0156295645943175 H 0.0 **** 0.0
210 H47275 0.780676899337187 0.334133127517228 -0.0372862242540839 H 0.0 **** 0.0
211 H47277 0.808459678531505 0.332234409593586 -0.0261883049116536 H 0.0 **** 0.0
212 H47279 0.802898283107032 0.342145959746212 -0.00700851812609791 H 0.0 **** 0.0
213 H47281 0.805694344461933 0.360566190568853 -0.0409180573375777 H 0.0 **** 0.0
214 H47283 0.821414034887816 0.361020008037649 -0.0250990228623392 H 0.0 **** 0.0
215 H47285 0.799046220818953 0.386023518165352 -0.0265106629555627 H 0.0 **** 0.0
216 H47287 0.804828475578919 0.377989937576757 -0.00656720229748932 H 0.0 **** 0.0
217 H47289 0.784230502657128 0.366296800944812 0.0327376048080143 H 0.0 **** 0.0
218 H47291 0.791906234188542 0.373690589712928 0.0616653190389327 H 0.0 **** 0.0
219 H47293 0.715516868691045 0.351934630905067 0.104539491253129 H 0.0 **** 0.0
220 H47295 0.722608356216264 0.366613059383285 0.131480022668213 H 0.0 **** 0.0
221 H47297 0.740964637465367 0.38311027334346 0.144081973404923 H 0.0 **** 0.0
222 H47299 0.758690982274918 0.351373388302061 0.157262436528464 H 0.0 **** 0.0
223 H47301 0.724354998249489 0.366227924077555 0.166626242171209 H 0.0 **** 0.0
224 H47303 0.734811191447368 0.350794113415071 0.178961442777099 H 0.0 **** 0.0
225 H47305 0.712535194487402 0.342097942014419 0.15432874975873 H 0.0 **** 0.0
226 H47307 0.729565919761976 0.329026268463957 0.160079237573254 H 0.0 **** 0.0
227 H47309 0.725085175568554 0.334644734818736 0.127955156903027 H 0.0 **** 0.0
228 H47311 0.74588017270608 0.336124774209404 0.135831318490202 H 0.0 **** 0.0
229 H47313 0.637859926467611 0.290715742468285 -0.0640822660734111 H 0.0 **** 0.0
230 H47315 0.641902026427367 0.288746476002165 -0.0327331977126166 H 0.0 **** 0.0
231 H47317 0.626050590872506 0.304162053746818 -0.0295142911469584 H 0.0 **** 0.0
232 H47319 0.645183628006576 0.309679944740991 -0.040009239646328 H 0.0 **** 0.0
233 H47321 0.611232384075284 0.27401858406866 -0.0643815046380327 H 0.0 **** 0.0
234 H47323 0.605926068218441 0.281751171247865 -0.0440028577087253 H 0.0 **** 0.0
235 H47325 0.623949457389227 0.268613076074633 -0.0467613337099895 H 0.0 **** 0.0
236 H47327 0.670579146880472 0.389840601923392 0.0460233638142171 H 0.0 **** 0.0
237 H47329 0.812213188985315 0.392660635776521 0.101162976956528 H 0.0 **** 0.0
238 H47331 0.831996769813948 0.407225001902675 0.118954851180773 H 0.0 **** 0.0
239 H47333 0.840026058053845 0.418143280447546 0.145534533895912 H 0.0 **** 0.0
240 H47335 0.848264880704964 0.429619701543143 0.172673766058822 H 0.0 **** 0.0
241 H47337 0.843288959245228 0.433599094928484 0.202251267637447 H 0.0 **** 0.0
242 H47339 0.801623918418978 0.418042035698541 0.240802735169456 H 0.0 **** 0.0
243 H47341 0.82619991602119 0.429455066867509 0.227498242431555 H 0.0 **** 0.0
244 H47343 0.746180649604056 0.369914161669575 0.193020357655961 H 0.0 **** 0.0
245 H47345 0.737597568586751 0.380748726377833 0.214031181849396 H 0.0 **** 0.0
246 H47347 0.750179883232854 0.370995705456356 0.229718333408611 H 0.0 **** 0.0
247 H47349 0.729021491114566 0.391845615023395 0.241973687276076 H 0.0 **** 0.0
248 H47351 0.738171243486967 0.407969577521074 0.229534239585916 H 0.0 **** 0.0
249 H47353 0.754972703965238 0.388149676091559 0.258651361989251 H 0.0 **** 0.0
250 H47355 0.752591718270639 0.410270664677198 0.257017471165965 H 0.0 **** 0.0
@<TRIPOS>BOND
1 3 2 1
2 4 3 1
3 5 4 1
4 6 5 1
5 1 2 1
6 1 6 1
7 8 7 1
8 9 8 1
9 10 9 1
10 4 7 1
11 3 10 1
12 12 11 1
13 13 12 1
14 14 13 1
15 8 11 1
16 7 14 1
17 16 15 1
18 17 16 Partial double
19 18 17 1
20 13 15 1
21 12 18 1
22 20 19 Partial double
23 21 20 Partial double
24 22 21 Partial double
25 17 19 Partial double
26 16 22 Partial double
27 24 23 1
28 25 24 1
29 15 25 Double
30 22 23 1
31 27 26 1
32 28 27 Partial double
33 29 28 Partial double
34 21 26 1
35 20 29 Partial double
36 31 30 1
37 32 31 1
38 18 30 1
39 19 32 1
40 34 33 Double
41 35 34 1
42 36 35 1
43 31 33 1
44 30 36 Double
45 38 37 1
46 39 38 1
47 40 39 Double
48 34 37 1
49 33 40 1
50 42 41 1
51 43 42 1
52 44 43 1
53 40 41 1
54 39 44 1
55 46 45 Partial double
56 32 46 1
57 29 45 Partial double
58 48 47 Partial double
59 49 48 1
60 45 49 Partial double
61 28 47 Partial double
62 51 50 Partial double
63 52 51 Partial double
64 53 52 Partial double
65 48 50 Partial double
66 47 53 Partial double
67 55 54 Partial double
68 56 55 Partial double
69 57 56 Partial double
70 52 54 Partial double
71 51 57 Partial double
72 59 58 Partial double
73 60 59 Partial double
74 61 60 Partial double
75 56 58 Partial double
76 55 61 Partial double
77 63 62 Partial double
78 27 63 Partial double
79 53 62 Partial double
80 65 64 Partial double
81 62 65 Partial double
82 54 64 Partial double
83 67 66 Partial double
84 64 67 Partial double
85 61 66 Partial double
86 69 68 Partial double
87 70 69 Partial double
88 66 70 Partial double
89 60 68 Partial double
90 72 71 1
91 73 72 1
92 74 73 1
93 59 71 1
94 58 74 1
95 76 75 1
96 77 76 1
97 78 77 1
98 73 75 1
99 72 78 1
100 80 79 1
101 81 80 1
102 82 81 1
103 78 79 1
104 77 82 1
105 84 83 Partial double
106 85 84 Partial double
107 67 85 Partial double
108 65 83 Partial double
109 87 86 1
110 88 87 1
111 89 88 1
112 84 86 1
113 83 89 1
114 91 90 1
115 92 91 1
116 93 92 1
117 88 90 1
118 87 93 1
119 95 94 Partial double
120 85 95 Partial double
121 70 94 Partial double
122 97 96 Partial double
123 98 97 Partial double
124 94 98 Partial double
125 69 96 Partial double
126 100 99 Partial double
127 101 100 Partial double
128 68 101 Partial double
129 96 99 Partial double
130 103 102 1
131 104 103 Partial double
132 97 102 1
133 99 104 1
134 106 105 1
135 107 106 1
136 100 105 1
137 104 107 Partial double
138 109 108 1
139 110 109 1
140 111 110 1
141 106 108 1
142 105 111 1
143 113 112 1
144 114 113 1
145 103 114 Partial double
146 107 112 Partial double
147 108 115 1
148 112 116 Partial double
149 115 116 Partial double
150 42 117 1
151 117 118 1
152 117 119 1
153 74 120 1
154 122 121 1
155 123 122 Partial double
156 124 123 1
157 114 121 Partial double
158 113 124 Partial double
159 126 125 Partial double
160 127 126 1
161 128 127 Partial double
162 124 125 Partial double
163 123 128 Partial double
164 130 129 Partial double
165 131 130 1
166 132 131 1
167 127 129 Partial double
168 126 132 Partial double
169 134 133 Partial double
170 135 134 Partial double
171 125 135 Partial double
172 132 133 Partial double
173 137 136 Partial double
174 138 137 Partial double
175 131 138 Partial double
176 133 136 Partial double
177 140 139 Partial double
178 134 140 Partial double
179 116 135 Partial double
180 115 139 Partial double
181 142 141 Partial double
182 140 142 Partial double
183 136 141 Partial double
184 144 143 1
185 145 144 1
186 146 145 1
187 142 143 1
188 141 146 1
189 146 147 Double
190 1 148 1
191 1 149 1
192 2 150 1
193 2 151 1
194 3 152 1
195 4 153 1
196 5 154 1
197 5 155 1
198 7 156 1
199 8 157 1
200 9 158 1
201 9 159 1
202 10 160 1
203 10 161 1
204 12 162 1
205 13 163 1
206 14 164 1
207 14 165 1
208 18 166 1
209 23 167 1
210 23 168 1
211 24 169 1
212 24 170 1
213 25 171 1
214 35 173 1
215 35 174 1
216 36 175 1
217 37 176 1
218 37 177 1
219 38 178 1
220 38 179 1
221 41 180 1
222 41 181 1
223 42 182 1
224 43 183 1
225 43 184 1
226 44 185 1
227 44 186 1
228 46 187 1
229 50 188 1
230 57 189 1
231 63 190 1
232 72 191 1
233 73 192 1
234 74 193 1
235 75 194 1
236 75 195 1
237 76 196 1
238 76 197 1
239 77 198 1
240 78 199 1
241 79 200 1
242 79 201 1
243 80 202 1
244 80 203 1
245 81 204 1
246 81 205 1
247 82 206 1
248 87 207 1
249 88 208 1
250 90 209 1
251 90 210 1
252 91 211 1
253 91 212 1
254 92 213 1
255 92 214 1
256 93 215 1
257 93 216 1
258 95 217 1
259 98 218 1
260 101 219 1
261 105 220 1
262 106 221 1
263 108 222 1
264 109 223 1
265 109 224 1
266 110 225 1
267 110 226 1
268 111 227 1
269 111 228 1
270 117 229 1
271 118 230 1
272 118 231 1
273 118 232 1
274 119 233 1
275 119 234 1
276 119 235 1
277 120 236 1
278 121 237 1
279 122 238 1
280 128 239 1
281 129 240 1
282 130 241 1
283 137 242 1
284 138 243 1
285 139 244 1
286 143 245 1
287 143 246 1
288 144 247 1
289 144 248 1
290 145 249 1
291 145 250 1
292 31 172 1
@<TRIPOS>MOLECULE
Sketch 4
250 292
SMALL
USER_CHARGES


@<TRIPOS>ATOM
1 C47358 0.418205763431048 0.771761345193339 1.06277118508203 C 0.0 **** 0.0
2 C47359 0.42445215824824 0.754941551028741 1.05499202015109 C 0.0 **** 0.0
3 C47360 0.429700738441958 0.757194638457792 1.03630538642281 C 0.0 **** 0.0
4 C47361 0.417284307783966 0.769282299868866 1.02706537851165 C 0.0 **** 0.0
5 C47362 0.415961663450578 0.786203667413971 1.03725955318895 C 0.0 **** 0.0
6 O47363 0.424179149999601 0.78575428905002 1.05329829211686 O 0.0 **** 0.0
7 C47370 0.399611102177841 0.761071730367429 1.02386262536834 C 0.0 **** 0.0
8 C47371 0.40108326486885 0.742382745844144 1.01704000277867 C 0.0 **** 0.0
9 C47372 0.419417301582646 0.737617978944328 1.01294366530887 C 0.0 **** 0.0
10 C47373 0.432019413068639 0.739954240222501 1.02738473166129 C 0.0 **** 0.0
11 O47379 0.392277087541205 0.737805314925707 1.00194489321702 O 0.0 **** 0.0
12 C47380 0.37749946467689 0.747129714881879 0.997536190131615 C 0.0 **** 0.0
13 C47381 0.382255312269833 0.765858535564571 0.996316321632751 C 0.0 **** 0.0
14 C47382 0.387850345982335 0.773023132432942 1.01346143009815 C 0.0 **** 0.0
15 C47388 0.367738431996825 0.775700004866251 0.988751149544899 C 0.0 **** 0.0
16 C47389 0.350070627292497 0.770284067187218 0.993623518716859 C 0.0 **** 0.0
17 C47390 0.347356396562425 0.755265914528647 1.0024349350364 C 0.0 **** 0.0
18 C47391 0.362162220838699 0.744684829148384 1.00914266951983 C 0.0 **** 0.0
19 C47397 0.330806228512548 0.750030234820195 1.00531409284388 C 0.0 **** 0.0
20 C47398 0.317487827303194 0.760367466285769 1.00048841725819 C 0.0 **** 0.0
21 C47399 0.3202833217317 0.77558285337282 0.992232415635113 C 0.0 **** 0.0
22 C47400 0.336701916987857 0.78046591575856 0.988537813839013 C 0.0 **** 0.0
23 C47406 0.339783240713911 0.797113016185543 0.979528763921309 C 0.0 **** 0.0
24 C47407 0.355494742994476 0.796006493178657 0.967953181822661 C 0.0 **** 0.0
25 C47408 0.370181770323192 0.787602605351436 0.976776567940193 C 0.0 **** 0.0
26 O47413 0.307031935396185 0.786088322178156 0.987520746520902 O 0.0 **** 0.0
27 C47414 0.290773241894119 0.779721812620533 0.987600257411445 C 0.0 **** 0.0
28 C47415 0.286222196318166 0.765385063938756 0.996545366323288 C 0.0 **** 0.0
29 C47416 0.299861472663893 0.755116895290118 1.0047418162342 C 0.0 **** 0.0
30 C47422 0.356422513019167 0.726687700119138 1.01185878782565 C 0.0 **** 0.0
31 C47423 0.34148753416482 0.725927783268313 1.02392402803996 C 0.0 **** 0.0
32 C47424 0.32690462497859 0.732842320102732 1.01291581947434 C 0.0 **** 0.0
33 C47429 0.337810228799024 0.708011502086636 1.03118543366522 C 0.0 **** 0.0
34 C47430 0.343344985749154 0.694481228713937 1.0219552818594 C 0.0 **** 0.0
35 C47431 0.354065265479881 0.695806459662762 1.00608499880789 C 0.0 **** 0.0
36 C47432 0.361951640347597 0.712991167302844 1.00352701549765 C 0.0 **** 0.0
37 C47438 0.340853928785893 0.676350956374497 1.02688942377087 C 0.0 **** 0.0
38 C47439 0.329206217265007 0.673806621120129 1.04222861542139 C 0.0 **** 0.0
39 C47440 0.325208481760211 0.689794320255817 1.05163681436633 C 0.0 **** 0.0
40 C47441 0.329604177325812 0.70563666102827 1.04628620013541 C 0.0 **** 0.0
41 C47447 0.32479027036623 0.720655972572661 1.05783685058168 C 0.0 **** 0.0
42 C47448 0.321355794100015 0.715558335234273 1.07610337298327 C 0.0 **** 0.0
43 C47449 0.30814008240375 0.701322180963601 1.07623272985594 C 0.0 **** 0.0
44 C47450 0.314977954655649 0.685714167360223 1.06724774193879 C 0.0 **** 0.0
45 C47456 0.296537426947669 0.741553443788276 1.01469216628631 C 0.0 **** 0.0
46 C47457 0.30899935848189 0.730810251923995 1.01965859586217 C 0.0 **** 0.0
47 C47461 0.269276864388065 0.759472249020615 0.995838212741663 C 0.0 **** 0.0
48 C47462 0.264225564851509 0.744683935537962 1.00435624650199 C 0.0 **** 0.0
49 S47463 0.275927930631998 0.737920897400749 1.02154664569676 S 0.0 **** 0.0
50 C47468 0.250840619001352 0.735096120984356 0.998924969806062 C 0.0 **** 0.0
51 C47469 0.241412820713259 0.740578348532235 0.984774508822843 C 0.0 **** 0.0
52 C47470 0.24474788603932 0.756700514104904 0.977661520367066 C 0.0 **** 0.0
53 C47471 0.258070676843585 0.766513373245894 0.984004625231454 C 0.0 **** 0.0
54 C47477 0.236173745979697 0.761489351111309 0.963004179395333 C 0.0 **** 0.0
55 C47478 0.224771166727202 0.750469399370155 0.955073479317907 C 0.0 **** 0.0
56 C47479 0.222497372333494 0.733749820060321 0.961105615456685 C 0.0 **** 0.0
57 C47480 0.230023978163386 0.729658061787384 0.976674921268656 C 0.0 **** 0.0
58 C47486 0.212702810945978 0.722295336133218 0.951705173818428 C 0.0 **** 0.0
59 C47487 0.202003608356917 0.728513226588766 0.939318875945596 C 0.0 **** 0.0
60 C47488 0.203436391223875 0.745412729920397 0.933623108124586 C 0.0 **** 0.0
61 C47489 0.216105596394618 0.755608983501634 0.940675369475747 C 0.0 **** 0.0
62 C47495 0.262236723608534 0.781790732730352 0.976046619759303 C 0.0 **** 0.0
63 C47496 0.27875588041459 0.788203796689992 0.97835700979123 C 0.0 **** 0.0
64 C47500 0.239767738518338 0.777116601319449 0.95568582478251 C 0.0 **** 0.0
65 C47501 0.251326096248424 0.788151013465853 0.963330731981286 C 0.0 **** 0.0
66 C47505 0.2203021241204 0.770948963124881 0.933024572313189 C 0.0 **** 0.0
67 C47506 0.232026343890097 0.781683635989135 0.940688980733502 C 0.0 **** 0.0
68 C47510 0.193468276278154 0.751928815552029 0.920131080770573 C 0.0 **** 0.0
69 C47511 0.199047193209619 0.766521930024997 0.911606864028075 C 0.0 **** 0.0
70 C47512 0.212469810318572 0.775786391851364 0.918004567028068 C 0.0 **** 0.0
71 O47517 0.190579983617239 0.717333926223915 0.931892003899972 O 0.0 **** 0.0
72 C47518 0.181089531462192 0.707420785829752 0.943930333253226 C 0.0 **** 0.0
73 C47519 0.192506828505323 0.699835861881338 0.958197303555831 C 0.0 **** 0.0
74 C47520 0.211027429758496 0.70327571568484 0.95398202675612 C 0.0 **** 0.0
75 C47526 0.18873530574306 0.681016666867782 0.961834063452566 C 0.0 **** 0.0
76 C47527 0.169616134281925 0.678422508934069 0.962955917633995 C 0.0 **** 0.0
77 C47528 0.16136185540014 0.680833654456548 0.9454941390704 C 0.0 **** 0.0
78 C47529 0.171085897566644 0.693722302430197 0.934106107320126 C 0.0 **** 0.0
79 C47535 0.159563793222918 0.701410634409315 0.920284125657094 C 0.0 **** 0.0
80 C47536 0.145643914078041 0.688806817608598 0.915572519149551 C 0.0 **** 0.0
81 C47537 0.134290764913576 0.684268874687772 0.93088168749933 C 0.0 **** 0.0
82 N47538 0.143406490010529 0.684293846827568 0.94715351118896 N 0.0 **** 0.0
83 C47544 0.252849523828764 0.805021405035807 0.957657625347893 C 0.0 **** 0.0
84 C47545 0.2457679478815 0.809504540914129 0.942280844135149 C 0.0 **** 0.0
85 C47546 0.235777517718215 0.797505899259767 0.933532542608527 C 0.0 **** 0.0
86 O47551 0.247940081512364 0.825360719930668 0.935144037113689 O 0.0 **** 0.0
87 C47552 0.26130784343089 0.834745076214255 0.942877110233291 C 0.0 **** 0.0
88 C47553 0.259982930960789 0.83362868778381 0.961780038686835 C 0.0 **** 0.0
89 O47554 0.261987458184887 0.816555514935916 0.967264103683016 O 0.0 **** 0.0
90 C47560 0.243271719049781 0.841296319702447 0.968613313736076 C 0.0 **** 0.0
91 C47561 0.235153909151482 0.854141928350303 0.956373773006537 C 0.0 **** 0.0
92 C47562 0.248799690136943 0.86444724168932 0.947258977683042 C 0.0 **** 0.0
93 C47563 0.26053874100541 0.853091879843074 0.936444067045193 C 0.0 **** 0.0
94 C47569 0.217065796323248 0.791112867178681 0.909947121512092 C 0.0 **** 0.0
95 C47570 0.228864994885442 0.80181576198243 0.917822051953689 C 0.0 **** 0.0
96 C47574 0.190087454941808 0.77237994719044 0.897466981489906 C 0.0 **** 0.0
97 C47575 0.195283727850782 0.787132070604331 0.888811822321515 C 0.0 **** 0.0
98 C47576 0.208686522216129 0.796189429059469 0.89502471723004 C 0.0 **** 0.0
99 C47581 0.175188443949955 0.764302861959076 0.892142664243754 C 0.0 **** 0.0
100 C47582 0.168777229983947 0.750816003380078 0.901214949666567 C 0.0 **** 0.0
101 C47583 0.177841569441661 0.745056439656953 0.914919199522328 C 0.0 **** 0.0
102 O47588 0.186972520805357 0.793220357765637 0.874730724449549 O 0.0 **** 0.0
103 C47589 0.173198058173966 0.78454741305327 0.868470040893642 C 0.0 **** 0.0
104 C47590 0.166677091930047 0.770729697246948 0.876536273328642 C 0.0 **** 0.0
105 C47595 0.15245640259553 0.741880289695813 0.896604403975979 C 0.0 **** 0.0
106 C47596 0.145872648191134 0.746435292501057 0.878172433264028 C 0.0 **** 0.0
107 C47597 0.153002745449805 0.762405935692578 0.870073567154843 C 0.0 **** 0.0
108 C47602 0.126365659183918 0.746975017581545 0.877601543916237 C 0.0 **** 0.0
109 C47603 0.118862934937203 0.732260877090279 0.88777078871096 C 0.0 **** 0.0
110 C47604 0.122821494938708 0.734571016096312 0.906787074493651 C 0.0 **** 0.0
111 C47605 0.138819849456402 0.74529024611403 0.909972002386455 C 0.0 **** 0.0
112 C47611 0.145511806006766 0.768214622842032 0.855624165704728 C 0.0 **** 0.0
113 C47612 0.15237449100349 0.781724354030692 0.847209108839867 C 0.0 **** 0.0
114 C47613 0.166099031295294 0.789942762566485 0.853665172687087 C 0.0 **** 0.0
115 C47618 0.120867501234293 0.7483087715253 0.859136819919632 C 0.0 **** 0.0
116 C47620 0.130011507920193 0.759248978311795 0.848935693864207 C 0.0 **** 0.0
117 C47623 0.316417264206346 0.730498194741652 1.08774078902974 C 0.0 **** 0.0
118 C47625 0.330616231334546 0.743643936748191 1.08911561426218 C 0.0 **** 0.0
119 C47627 0.299861165499508 0.739246954812286 1.08269360860392 C 0.0 **** 0.0
120 O47629 0.221756561981862 0.696195756035118 0.966505062273353 O 0.0 **** 0.0
121 C47631 0.172796834535323 0.803493790630259 0.845236934196221 C 0.0 **** 0.0
122 C47632 0.165900550661484 0.808783161821247 0.830390285127672 C 0.0 **** 0.0
123 C47633 0.152220840355843 0.800600411001347 0.823803427418447 C 0.0 **** 0.0
124 C47634 0.145602633701224 0.786975870458545 0.832201946125548 C 0.0 **** 0.0
125 C47640 0.131087553061386 0.777710670518662 0.824717382461826 C 0.0 **** 0.0
126 C47641 0.124099138942405 0.783837001991419 0.810178376374 C 0.0 **** 0.0
127 C47642 0.131575562794369 0.798861122107687 0.801922094667802 C 0.0 **** 0.0
128 C47643 0.145474771649971 0.806476567524922 0.808869338322217 C 0.0 **** 0.0
129 C47649 0.124395224233349 0.805060896513112 0.787478432220593 C 0.0 **** 0.0
130 C47650 0.110060851976399 0.797968115381101 0.780795022961951 C 0.0 **** 0.0
131 C47651 0.102506700469914 0.784231500180497 0.78815473986789 C 0.0 **** 0.0
132 C47652 0.110111720250235 0.776324056271246 0.80335483465908 C 0.0 **** 0.0
133 C47658 0.102529359417405 0.762249979913286 0.811130492480829 C 0.0 **** 0.0
134 C47659 0.109600549079601 0.755875398929862 0.826065373797216 C 0.0 **** 0.0
135 C47660 0.124050264781599 0.763624133640924 0.832874725752649 C 0.0 **** 0.0
136 C47665 0.0868357787404652 0.756356167542862 0.805429447766838 C 0.0 **** 0.0
137 C47666 0.0800975047760312 0.764631172116813 0.789426516688531 C 0.0 **** 0.0
138 C47667 0.0879203726426206 0.777860595161243 0.781603565914891 C 0.0 **** 0.0
139 C47672 0.106778005217816 0.740594387312282 0.85237649107694 C 0.0 **** 0.0
140 C47673 0.100412601779659 0.744260032067758 0.835957744497919 C 0.0 **** 0.0
141 C47678 0.0777473140818526 0.744923992871107 0.815244419686455 C 0.0 **** 0.0
142 C47679 0.0843696445890336 0.738757133597427 0.830344702354698 C 0.0 **** 0.0
143 C47683 0.0737628386764533 0.726299920756348 0.840470717745999 C 0.0 **** 0.0
144 C47684 0.0554708942695775 0.732589702226861 0.841639698760057 C 0.0 **** 0.0
145 C47685 0.0484335070510345 0.733488217369814 0.823892144962181 C 0.0 **** 0.0
146 C47686 0.0602911459966143 0.739351254730602 0.810163148498044 C 0.0 **** 0.0
147 O47692 0.0550955918994837 0.738756684552442 0.795742822721515 O 0.0 **** 0.0
148 H47694 0.423061872951049 0.773318093091286 1.07569217925043 H 0.0 **** 0.0
149 H47696 0.404281935311807 0.771974173690924 1.06368181517158 H 0.0 **** 0.0
150 H47698 0.435356298351233 0.749892383439146 1.06206369680015 H 0.0 **** 0.0
151 H47700 0.414487888308271 0.745270842767001 1.05589510993324 H 0.0 **** 0.0
152 H47702 0.441989850096857 0.763815729262984 1.0364571993458 H 0.0 **** 0.0
153 H47704 0.422728725616803 0.77202783352565 1.0144805531309 H 0.0 **** 0.0
154 H47706 0.402659368341421 0.790076011616854 1.03892145527242 H 0.0 **** 0.0
155 H47708 0.422167091811981 0.796506937609414 1.03030421392061 H 0.0 **** 0.0
156 H47710 0.393755619726051 0.760081072116948 1.03650906224722 H 0.0 **** 0.0
157 H47712 0.396465719838123 0.733994312981184 1.02717784426847 H 0.0 **** 0.0
158 H47714 0.423347212370215 0.745458966418377 1.00208933959078 H 0.0 **** 0.0
159 H47716 0.419558159060995 0.724483603690609 1.00834557506551 H 0.0 **** 0.0
160 H47718 0.444944079732877 0.73865969347897 1.02236969720796 H 0.0 **** 0.0
161 H47720 0.430500502597343 0.729583576672302 1.03656053576671 H 0.0 **** 0.0
162 H47722 0.374395834447985 0.742421849730121 0.984791044508473 H 0.0 **** 0.0
163 H47724 0.393111385593844 0.76663044724757 0.987613547812142 H 0.0 **** 0.0
164 H47726 0.376604104638837 0.775837981727476 1.0211926125771 H 0.0 **** 0.0
165 H47728 0.3940390648378 0.785335857305848 1.01140704808565 H 0.0 **** 0.0
166 H47730 0.365646887242751 0.749497729756954 1.0218214517009 H 0.0 **** 0.0
167 H47732 0.328731705326997 0.800743738932238 0.971886855739513 H 0.0 **** 0.0
168 H47734 0.341526233345816 0.807239560231605 0.988939179043786 H 0.0 **** 0.0
169 H47736 0.359105599536681 0.808727915831044 0.963610502923874 H 0.0 **** 0.0
170 H47738 0.352335565275741 0.788698818005476 0.95650724661074 H 0.0 **** 0.0
171 H47740 0.382739140506043 0.790923690575443 0.972159745152917 H 0.0 **** 0.0
172 H47742 0.343965041844734 0.734804355336908 1.03435562793288 H 0.0 **** 0.0
173 H47743 0.346376012590335 0.692418097588358 0.994944751113722 H 0.0 **** 0.0
174 H47745 0.364362505848174 0.686367354718483 1.00689056173028 H 0.0 **** 0.0
175 H47747 0.372015083455723 0.713965115703901 0.994159224195746 H 0.0 **** 0.0
176 H47749 0.335703964824458 0.669305200503555 1.01598681148254 H 0.0 **** 0.0
177 H47751 0.35335019584365 0.670768259487132 1.02960366943288 H 0.0 **** 0.0
178 H47753 0.335170989292937 0.664718291888485 1.05097899988899 H 0.0 **** 0.0
179 H47755 0.317217614925321 0.668006924729188 1.03805810819863 H 0.0 **** 0.0
180 H47757 0.335003744615424 0.730082415908821 1.05764388436321 H 0.0 **** 0.0
181 H47759 0.313493945527675 0.726930591969589 1.05272115466947 H 0.0 **** 0.0
182 H47761 0.333124940613346 0.710268172303581 1.08142497080007 H 0.0 **** 0.0
183 H47763 0.296585281889415 0.705721940335481 1.06978921658398 H 0.0 **** 0.0
184 H47765 0.304424152534892 0.697978242614802 1.08925131620733 H 0.0 **** 0.0
185 H47767 0.30443691867246 0.677260526740205 1.06371467918876 H 0.0 **** 0.0
186 H47769 0.323068340802302 0.678460530240101 1.07597004311325 H 0.0 **** 0.0
187 H47771 0.3061829770027 0.720125084796093 1.0277928116439 H 0.0 **** 0.0
188 H47773 0.247818671425875 0.722983491898474 1.00491933392417 H 0.0 **** 0.0
189 H47775 0.227878934402437 0.717450040266255 0.982826504203438 H 0.0 **** 0.0
190 H47777 0.283325961526216 0.799082696938357 0.971056743342172 H 0.0 **** 0.0
191 H47779 0.17185244145813 0.716013000876045 0.949846373345785 H 0.0 **** 0.0
192 H47781 0.189848459428658 0.706500059283234 0.970187371263842 H 0.0 **** 0.0
193 H47783 0.213930321811678 0.696993394712697 0.941788953013791 H 0.0 **** 0.0
194 H47785 0.194022508484158 0.672851506708259 0.95183328175373 H 0.0 **** 0.0
195 H47787 0.194994713709266 0.67724123178677 0.973713597290989 H 0.0 **** 0.0
196 H47789 0.164454471522188 0.68770297851413 0.971998426513243 H 0.0 **** 0.0
197 H47791 0.166339179493915 0.66584671886604 0.968001516100267 H 0.0 **** 0.0
198 H47793 0.162293361051955 0.668492893209777 0.938999820415719 H 0.0 **** 0.0
199 H47795 0.180899746132194 0.686180184632438 0.927670428201895 H 0.0 **** 0.0
200 H47797 0.15350322207298 0.712985921317982 0.925126439929571 H 0.0 **** 0.0
201 H47799 0.167063692393733 0.70509063935695 0.909147276431473 H 0.0 **** 0.0
202 H47801 0.151786017751426 0.677273137005238 0.910709474989611 H 0.0 **** 0.0
203 H47803 0.137675813652558 0.693585923565093 0.90522644255354 H 0.0 **** 0.0
204 H47805 0.12856254639474 0.671696192738062 0.929045681867625 H 0.0 **** 0.0
205 H47807 0.123650929095152 0.693224744620769 0.931718574221431 H 0.0 **** 0.0
206 H47809 0.141690334184142 0.69526705602933 0.95322604290621 H 0.0 **** 0.0
207 H47811 0.273337511875288 0.828854792987713 0.938997667636221 H 0.0 **** 0.0
208 H47813 0.270655112408614 0.84087703426455 0.967080286283138 H 0.0 **** 0.0
209 H47815 0.234346723995001 0.830932654608665 0.971133332430068 H 0.0 **** 0.0
210 H47817 0.245541419701796 0.84741146013026 0.980933008978758 H 0.0 **** 0.0
211 H47819 0.226439582711171 0.862470769517474 0.963314474699615 H 0.0 **** 0.0
212 H47821 0.22742802551734 0.84743324857762 0.946897929379545 H 0.0 **** 0.0
213 H47823 0.256425102211929 0.870857379769108 0.956974949711091 H 0.0 **** 0.0
214 H47825 0.243194088792602 0.874522786007794 0.939434327182355 H 0.0 **** 0.0
215 H47827 0.273206189971502 0.858850220620844 0.935824270665207 H 0.0 **** 0.0
216 H47829 0.255842116132479 0.85259953222044 0.923345825771081 H 0.0 **** 0.0
217 H47831 0.231851937487196 0.814078583479396 0.912026741414324 H 0.0 **** 0.0
218 H47833 0.21240960310259 0.808096078497577 0.888881747138345 H 0.0 **** 0.0
219 H47835 0.172150299826934 0.734565244868114 0.921895640673762 H 0.0 **** 0.0
220 H47837 0.154852954529867 0.728138427305758 0.89649157074472 H 0.0 **** 0.0
221 H47839 0.150028832647976 0.735932998511783 0.870001630659279 H 0.0 **** 0.0
222 H47841 0.122071014239514 0.75874758427464 0.883845178373622 H 0.0 **** 0.0
223 H47843 0.124283412294197 0.720336811359213 0.883130675042447 H 0.0 **** 0.0
224 H47845 0.105117799426091 0.731210333493698 0.886170355000892 H 0.0 **** 0.0
225 H47847 0.124114520258896 0.722139966161168 0.912923982161606 H 0.0 **** 0.0
226 H47849 0.112016524804025 0.74082964091962 0.9129359653619 H 0.0 **** 0.0
227 H47851 0.143518357748151 0.742902947272193 0.922871675705601 H 0.0 **** 0.0
228 H47853 0.135483972490152 0.758828975597304 0.909529968161524 H 0.0 **** 0.0
229 H47855 0.314523495940057 0.725174689257306 1.1005428736035 H 0.0 **** 0.0
230 H47857 0.327598652946165 0.753296397346977 1.0986608455333 H 0.0 **** 0.0
231 H47859 0.332553851023187 0.750225203144507 1.07701088629697 H 0.0 **** 0.0
232 H47861 0.342695647444209 0.737820882270802 1.09278768242291 H 0.0 **** 0.0
233 H47863 0.289160464373986 0.730370993695388 1.08218099381706 H 0.0 **** 0.0
234 H47865 0.300949512431028 0.745345018343336 1.07023479227521 H 0.0 **** 0.0
235 H47867 0.296550252443694 0.749119505668089 1.09191166637362 H 0.0 **** 0.0
236 H47869 0.232985264147849 0.698505065318557 0.962895053435116 H 0.0 **** 0.0
237 H47871 0.183757281757199 0.810304205760252 0.850129277229031 H 0.0 **** 0.0
238 H47873 0.171584247029315 0.81958394323699 0.823969547960291 H 0.0 **** 0.0
239 H47875 0.151057432965525 0.817449750682972 0.802646976548783 H 0.0 **** 0.0
240 H47877 0.12983621722969 0.816003169815571 0.78113041420195 H 0.0 **** 0.0
241 H47879 0.104682670915152 0.803669082490906 0.769434471386581 H 0.0 **** 0.0
242 H47881 0.0684558520939224 0.76006364622774 0.783768071626786 H 0.0 **** 0.0
243 H47883 0.082163624353293 0.783227339798747 0.770275917081236 H 0.0 **** 0.0
244 H47885 0.0999262901748134 0.731970358059676 0.860717206661038 H 0.0 **** 0.0
245 H47887 0.0738163735746408 0.713958634817736 0.834032315990222 H 0.0 **** 0.0
246 H47889 0.0786590021712665 0.723808489591318 0.85315599893865 H 0.0 **** 0.0
247 H47891 0.0551244379132439 0.745078929647242 0.847790647304393 H 0.0 **** 0.0
248 H47893 0.0477014203627177 0.724005463384233 0.849375536890762 H 0.0 **** 0.0
249 H47895 0.0373632714107435 0.741762477053453 0.822339400879933 H 0.0 **** 0.0
250 H47897 0.0445786242601957 0.72103858746716 0.819067663801809 H 0.0 **** 0.0
@<TRIPOS>BOND
1 3 2 1
2 4 3 1
3 5 4 1
4 6 5 1
5 1 2 1
6 1 6 1
7 8 7 1
8 9 8 1
9 10 9 1
10 4 7 1
11 3 10 1
12 12 11 1
13 13 12 1
14 14 13 1
15 8 11 1
16 7 14 1
17 16 15 1
18 17 16 Partial double
19 18 17 1
20 13 15 1
21 12 18 1
22 20 19 Partial double
23 21 20 Partial double
24 22 21 Partial double
25 17 19 Partial double
26 16 22 Partial double
27 24 23 1
28 25 24 1
29 15 25 Double
30 22 23 1
31 27 26 1
32 28 27 Partial double
33 29 28 Partial double
34 21 26 1
35 20 29 Partial double
36 31 30 1
37 32 31 1
38 18 30 1
39 19 32 1
40 34 33 Double
41 35 34 1
42 36 35 1
43 31 33 1
44 30 36 Double
45 38 37 1
46 39 38 1
47 40 39 Double
48 34 37 1
49 33 40 1
50 42 41 1
51 43 42 1
52 44 43 1
53 40 41 1
54 39 44 1
55 46 45 Partial double
56 32 46 1
57 29 45 Partial double
58 48 47 Partial double
59 49 48 1
60 45 49 Partial double
61 28 47 Partial double
62 51 50 Partial double
63 52 51 Partial double
64 53 52 Partial double
65 48 50 Partial double
66 47 53 Partial double
67 55 54 Partial double
68 56 55 Partial double
69 57 56 Partial double
70 52 54 Partial double
71 51 57 Partial double
72 59 58 Partial double
73 60 59 Partial double
74 61 60 Partial double
75 56 58 Partial double
76 55 61 Partial double
77 63 62 Partial double
78 27 63 Partial double
79 53 62 Partial double
80 65 64 Partial double
81 62 65 Partial double
82 54 64 Partial double
83 67 66 Partial double
84 64 67 Partial double
85 61 66 Partial double
86 69 68 Partial double
87 70 69 Partial double
88 66 70 Partial double
89 60 68 Partial double
90 72 71 1
91 73 72 1
92 74 73 1
93 59 71 1
94 58 74 1
95 76 75 1
96 77 76 1
97 78 77 1
98 73 75 1
99 72 78 1
100 80 79 1
101 81 80 1
102 82 81 1
103 78 79 1
104 77 82 1
105 84 83 Partial double
106 85 84 Partial double
107 67 85 Partial double
108 65 83 Partial double
109 87 86 1
110 88 87 1
111 89 88 1
112 84 86 1
113 83 89 1
114 91 90 1
115 92 91 1
116 93 92 1
117 88 90 1
118 87 93 1
119 95 94 Partial double
120 85 95 Partial double
121 70 94 Partial double
122 97 96 Partial double
123 98 97 Partial double
124 94 98 Partial double
125 69 96 Partial double
126 100 99 Partial double
127 101 100 Partial double
128 68 101 Partial double
129 96 99 Partial double
130 103 102 1
131 104 103 Partial double
132 97 102 1
133 99 104 1
134 106 105 1
135 107 106 1
136 100 105 1
137 104 107 Partial double
138 109 108 1
139 110 109 1
140 111 110 1
141 106 108 1
142 105 111 1
143 113 112 1
144 114 113 1
145 103 114 Partial double
146 107 112 Partial double
147 108 115 1
148 112 116 Partial double
149 115 116 Partial double
150 42 117 1
151 117 118 1
152 117 119 1
153 74 120 1
154 122 121 1
155 123 122 Partial double
156 124 123 1
157 114 121 Partial double
158 113 124 Partial double
159 126 125 Partial double
160 127 126 1
161 128 127 Partial double
162 124 125 Partial double
163 123 128 Partial double
164 130 129 Partial double
165 131 130 1
166 132 131 1
167 127 129 Partial double
168 126 132 Partial double
169 134 133 Partial double
170 135 134 Partial double
171 125 135 Partial double
172 132 133 Partial double
173 137 136 Partial double
174 138 137 Partial double
175 131 138 Partial double
176 133 136 Partial double
177 140 139 Partial double
178 134 140 Partial double
179 116 135 Partial double
180 115 139 Partial double
181 142 141 Partial double
182 140 142 Partial double
183 136 141 Partial double
184 144 143 1
185 145 144 1
186 146 145 1
187 142 143 1
188 141 146 1
189 146 147 Double
190 1 148 1
191 1 149 1
192 2 150 1
193 2 151 1
194 3 152 1
195 4 153 1
196 5 154 1
197 5 155 1
198 7 156 1
199 8 157 1
200 9 158 1
201 9 159 1
202 10 160 1
203 10 161 1
204 12 162 1
205 13 163 1
206 14 164 1
207 14 165 1
208 18 166 1
209 23 167 1
210 23 168 1
211 24 169 1
212 24 170 1
213 25 171 1
214 35 173 1
215 35 174 1
216 36 175 1
217 37 176 1
218 37 177 1
219 38 178 1
220 38 179 1
221 41 180 1
222 41 181 1
223 42 182 1
224 43 183 1
225 43 184 1
226 44 185 1
227 44 186 1
228 46 187 1
229 50 188 1
230 57 189 1
231 63 190 1
232 72 191 1
233 73 192 1
234 74 193 1
235 75 194 1
236 75 195 1
237 76 196 1
238 76 197 1
239 77 198 1
240 78 199 1
241 79 200 1
242 79 201 1
243 80 202 1
244 80 203 1
245 81 204 1
246 81 205 1
247 82 206 1
248 87 207 1
249 88 208 1
250 90 209 1
251 90 210 1
252 91 211 1
253 91 212 1
254 92 213 1
255 92 214 1
256 93 215 1
257 93 216 1
258 95 217 1
259 98 218 1
260 101 219 1
261 105 220 1
262 106 221 1
263 108 222 1
264 109 223 1
265 109 224 1
266 110 225 1
267 110 226 1
268 111 227 1
269 111 228 1
270 117 229 1
271 118 230 1
272 118 231 1
273 118 232 1
274 119 233 1
275 119 234 1
276 119 235 1
277 120 236 1
278 121 237 1
279 122 238 1
280 128 239 1
281 129 240 1
282 130 241 1
283 137 242 1
284 138 243 1
285 139 244 1
286 143 245 1
287 143 246 1
288 144 247 1
289 144 248 1
290 145 249 1
291 145 250 1
292 31 172 1
@<TRIPOS>MOLECULE
Sketch 4
250 292
SMALL
USER_CHARGES


@<TRIPOS>ATOM
1 C47900 0.0769187416318105 0.744277352748287 0.139180731002988 C 0.0 **** 0.0
2 C47901 0.0640074333954585 0.740811716599672 0.124777074290434 C 0.0 **** 0.0
3 C47902 0.0733686274607254 0.737594051359087 0.107930877417331 C 0.0 **** 0.0
4 C47903 0.0873577803098553 0.751107110465463 0.105817519891207 C 0.0 **** 0.0
5 C47904 0.0995459707502993 0.750150135036758 0.12127457071038 C 0.0 **** 0.0
6 O47905 0.0934415428012104 0.739272858756165 0.134293063502243 O 0.0 **** 0.0
7 C47912 0.0797297722504078 0.769044511764932 0.103185877586975 C 0.0 **** 0.0
8 C47913 0.0638926638364056 0.768763644424004 0.0913097512642826 C 0.0 **** 0.0
9 C47914 0.0624542101358651 0.752258901017941 0.0813707249734307 C 0.0 **** 0.0
10 C47915 0.061528029178378 0.736397702201662 0.0924404682253409 C 0.0 **** 0.0
11 O47921 0.0642867109425841 0.781551964804613 0.078678565577773 O 0.0 **** 0.0
12 C47922 0.0674224278705129 0.79807174431315 0.0851765630299094 C 0.0 **** 0.0
13 C47923 0.0860155444097106 0.799346758448447 0.0919138177079286 C 0.0 **** 0.0
14 C47924 0.0931204715691871 0.78139524850684 0.0962749910005511 C 0.0 **** 0.0
15 C47930 0.0884473666345304 0.812841019230726 0.105358989830413 C 0.0 **** 0.0
16 C47931 0.0752825585474934 0.826543896943827 0.106012690739573 C 0.0 **** 0.0
17 C47932 0.0586550375840177 0.822880954195662 0.101891097009948 C 0.0 **** 0.0
18 C47933 0.0538966133026979 0.804749275190701 0.0974242290600543 C 0.0 **** 0.0
19 C47939 0.0467168324123708 0.835699544906917 0.102904558616323 C 0.0 **** 0.0
20 C47940 0.051819392040378 0.851837892272819 0.10743694817541 C 0.0 **** 0.0
21 C47941 0.0685989796068142 0.855615061340613 0.110887420255135 C 0.0 **** 0.0
22 C47942 0.0802850753390629 0.842577919508304 0.111074100784953 C 0.0 **** 0.0
23 C47948 0.0982681446347738 0.845597597937671 0.116685951726587 C 0.0 **** 0.0
24 C47949 0.104436136835137 0.829743017119925 0.126340579873225 C 0.0 **** 0.0
25 C47950 0.102286888355262 0.814256012654861 0.115206129033556 C 0.0 **** 0.0
26 O47955 0.0737753199646113 0.87201063770806 0.114464016963389 O 0.0 **** 0.0
27 C47956 0.0626163662766384 0.885094855417542 0.11143994245115 C 0.0 **** 0.0
28 C47957 0.045265759836276 0.882709597402925 0.110655959914497 C 0.0 **** 0.0
29 C47958 0.0386818712856852 0.865080595824343 0.10979868394496 C 0.0 **** 0.0
30 C47964 0.0359202367457824 0.804455372867548 0.0906839241133765 C 0.0 **** 0.0
31 C47965 0.023666680924672 0.813915278582643 0.102120976602389 C 0.0 **** 0.0
32 C47966 0.0283101416996518 0.832562149790425 0.098737507736217 C 0.0 **** 0.0
33 C47971 0.00469504840228372 0.810308454672329 0.0985910558075621 C 0.0 **** 0.0
34 C47972 0.000531744495352622 0.805059891253223 0.082677700015369 C 0.0 **** 0.0
35 C47973 0.0132528513486705 0.800778111967897 0.0690074953243708 C 0.0 **** 0.0
36 C47974 0.031049413268297 0.798648099102082 0.0754957957162824 C 0.0 **** 0.0
37 C47980 -0.0170680617175133 0.800642410569738 0.0772700228627019 C 0.0 **** 0.0
38 C47981 -0.0307604165608834 0.807290388284599 0.0892889417237589 C 0.0 **** 0.0
39 C47982 -0.024282365461129 0.810434257647556 0.106865042011572 C 0.0 **** 0.0
40 C47983 -0.00752673738829373 0.811881744043782 0.11080505371354 C 0.0 **** 0.0
41 C47989 -0.00294489013275308 0.815485788876953 0.12942061292543 C 0.0 **** 0.0
42 C47990 -0.016881369060642 0.811345574321424 0.142119202040054 C 0.0 **** 0.0
43 C47991 -0.0333785324192462 0.819710285669545 0.136156459176201 C 0.0 **** 0.0
44 C47992 -0.0387882335975682 0.812763666260406 0.119036204539133 C 0.0 **** 0.0
45 C47998 0.0220136514781307 0.861290023220917 0.110510145783262 C 0.0 **** 0.0
46 C47999 0.0162593363125567 0.84572140899034 0.106026248115899 C 0.0 **** 0.0
47 C48003 0.0342766782385543 0.896719656179814 0.109645563744223 C 0.0 **** 0.0
48 C48004 0.0165559097721608 0.895372558426084 0.111628441620778 C 0.0 **** 0.0
49 S48005 0.00774174447563238 0.876343451696754 0.117852125346765 S 0.0 **** 0.0
50 C48010 0.00607395092389159 0.909100574139782 0.110369138065408 C 0.0 **** 0.0
51 C48011 0.0129710602152459 0.92522032097087 0.106886168878493 C 0.0 **** 0.0
52 C48012 0.0306760722332879 0.926905288754986 0.104838353095862 C 0.0 **** 0.0
53 C48013 0.0411254515655381 0.912812851015933 0.106453448564618 C 0.0 **** 0.0
54 C48019 0.0374065320472922 0.942666454134394 0.10081504736341 C 0.0 **** 0.0
55 C48020 0.0270189728736632 0.956981172604694 0.0999486290312397 C 0.0 **** 0.0
56 C48021 0.00913693698969761 0.955488154220239 0.100932830015785 C 0.0 **** 0.0
57 C48022 0.00260429179572661 0.939517324221561 0.105161732347336 C 0.0 **** 0.0
58 C48028 -0.00110015410086596 0.96964124574973 0.0976050345019904 C 0.0 **** 0.0
59 C48029 0.00648916000916828 0.985410502394185 0.096772517596211 C 0.0 **** 0.0
60 C48030 0.024308371484411 0.987226397236973 0.0969099244516406 C 0.0 **** 0.0
61 C48031 0.0342298199254956 0.972628324219667 0.0966496966671034 C 0.0 **** 0.0
62 C48037 0.0586314858779741 0.91458171936722 0.103987445384596 C 0.0 **** 0.0
63 C48038 0.0691137617105481 0.901049320570458 0.108827125880668 C 0.0 **** 0.0
64 C48042 0.054413593586711 0.943791721539936 0.0960268825960789 C 0.0 **** 0.0
65 C48043 0.0645328246036064 0.929310675968849 0.0956611921203257 C 0.0 **** 0.0
66 C48047 0.0509748274794367 0.973529974310609 0.0909524426286562 C 0.0 **** 0.0
67 C48048 0.0606261977001845 0.958840555642433 0.0897491309749939 C 0.0 **** 0.0
68 C48052 0.0322111997860144 1.00321444382944 0.0944168066485917 C 0.0 **** 0.0
69 C48053 0.0481247082996959 1.0034646960257 0.0864306093522484 C 0.0 **** 0.0
70 C48054 0.0573474157021361 0.988712184692521 0.0847160754729582 C 0.0 **** 0.0
71 O48059 -0.00356083002043173 0.999649394914522 0.0946039610441324 O 0.0 **** 0.0
72 C48060 -0.0184607469716676 1.00065663527106 0.104898158398314 C 0.0 **** 0.0
73 C48061 -0.0264095025814553 0.98308474654085 0.108891497760991 C 0.0 **** 0.0
74 C48062 -0.0202710261445304 0.970491234664513 0.0955337384747093 C 0.0 **** 0.0
75 C48068 -0.0458685894188381 0.98394322535803 0.110317889928958 C 0.0 **** 0.0
76 C48069 -0.0513789599177762 1.00079897536434 0.117999233243441 C 0.0 **** 0.0
77 C48070 -0.0479094766959185 1.0152430238973 0.105452134149111 C 0.0 **** 0.0
78 C48071 -0.0309151788742729 1.01263194983569 0.0957519210386484 C 0.0 **** 0.0
79 C48077 -0.0224269238363169 1.02949312100363 0.0907979664313329 C 0.0 **** 0.0
80 C48078 -0.0360067580962692 1.04270082173308 0.0869646327396029 C 0.0 **** 0.0
81 C48079 -0.0473770432592092 1.04631388503758 0.10252121299363 C 0.0 **** 0.0
82 N48080 -0.0499403286138067 1.03154864150933 0.113671047403975 N 0.0 **** 0.0
83 C48086 0.079270336015477 0.928821229157318 0.0854081398637019 C 0.0 **** 0.0
84 C48087 0.0848318372166487 0.943546984176078 0.0777075868770371 C 0.0 **** 0.0
85 C48088 0.0759109741918976 0.958787776962253 0.0806262647298921 C 0.0 **** 0.0
86 O48093 0.0991392410233683 0.944048968976898 0.0675717164294943 O 0.0 **** 0.0
87 C48094 0.103574501582353 0.927695020451404 0.0613117635139758 C 0.0 **** 0.0
88 C48095 0.103914339858205 0.915183128874091 0.0755507060868069 C 0.0 **** 0.0
89 O48096 0.0876603813315571 0.913578047190252 0.0831776678939088 O 0.0 **** 0.0
90 C48102 0.117492375259914 0.919489835911332 0.0890186751154286 C 0.0 **** 0.0
91 C48103 0.131814784731579 0.930862544435907 0.0822494841738921 C 0.0 **** 0.0
92 C48104 0.136120464811294 0.92615844220567 0.0639653332425943 C 0.0 **** 0.0
93 C48105 0.120715030273908 0.928702096649166 0.0521245588996823 C 0.0 **** 0.0
94 C48111 0.0727153861407702 0.98902506786921 0.0754897468764886 C 0.0 **** 0.0
95 C48112 0.0818765172438033 0.973905859068548 0.0735547484901145 C 0.0 **** 0.0
96 C48116 0.0537061863783913 1.01841826625907 0.0788085670258689 C 0.0 **** 0.0
97 C48117 0.0685974354599024 1.01868254601284 0.0689073653055705 C 0.0 **** 0.0
98 C48118 0.0781221379207202 1.00423606062342 0.0677784172699323 C 0.0 **** 0.0
99 C48123 0.0442556587717869 1.03335279941528 0.0803758680011495 C 0.0 **** 0.0
100 C48124 0.0301317988319473 1.03397063917897 0.0906818749493642 C 0.0 **** 0.0
101 C48125 0.0246407135610941 1.01903357844654 0.0978611441632504 C 0.0 **** 0.0
102 O48130 0.0741325630790287 1.03325199610572 0.0610242911295319 O 0.0 **** 0.0
103 C48131 0.0625275029691906 1.04607837839114 0.0585982140232113 C 0.0 **** 0.0
104 C48132 0.0488324543835308 1.04768061840443 0.069021231887869 C 0.0 **** 0.0
105 C48137 0.020122682413498 1.05013504843924 0.0934631812026985 C 0.0 **** 0.0
106 C48138 0.0221782952854289 1.06296052260565 0.0782851815266826 C 0.0 **** 0.0
107 C48139 0.0380240994332361 1.06099705781226 0.0675094778289038 C 0.0 **** 0.0
108 C48144 0.0208493927802028 1.08160269242394 0.0840243027921355 C 0.0 **** 0.0
109 C48145 0.00721061555037292 1.083726378444 0.097651042518755 C 0.0 **** 0.0
110 C48146 0.0121241393676592 1.07374232284933 0.113828179520487 C 0.0 **** 0.0
111 C48147 0.0242457800855403 1.05872798076052 0.110337798345539 C 0.0 **** 0.0
112 C48153 0.040923896966208 1.07289552977812 0.0554361236477527 C 0.0 **** 0.0
113 C48154 0.0533710021129994 1.07028681426224 0.0436688221101984 C 0.0 **** 0.0
114 C48155 0.0643549910043882 1.057086595514 0.0453739907754458 C 0.0 **** 0.0
115 C48160 0.0187830145079879 1.09218222045118 0.0679701593262699 C 0.0 **** 0.0
116 C48162 0.0292103746034943 1.08788709946416 0.0545177279352744 C 0.0 **** 0.0
117 C48165 -0.0118699933192235 0.816701422059242 0.160251740398535 C 0.0 **** 0.0
118 C48167 -0.0252736480607726 0.812286457646429 0.173572110025209 C 0.0 **** 0.0
119 C48169 0.00493458702632839 0.808881620928465 0.165936161164978 C 0.0 **** 0.0
120 O48171 -0.0292117567892092 0.954899365996144 0.0967012079677684 O 0.0 **** 0.0
121 C48173 0.0767416340448404 1.05469719174801 0.0335442679292033 C 0.0 **** 0.0
122 C48174 0.0773948514876617 1.06470455569474 0.0195358548052717 C 0.0 **** 0.0
123 C48175 0.0661160292752596 1.07759685880653 0.0174499380590135 C 0.0 **** 0.0
124 C48176 0.0544569981023983 1.08061491053894 0.0298663390608248 C 0.0 **** 0.0
125 C48182 0.0421086112397322 1.09454930207178 0.0276793705332171 C 0.0 **** 0.0
126 C48183 0.0425574661493066 1.10381194942308 0.0131436480174176 C 0.0 **** 0.0
127 C48184 0.0551860162786305 1.09970149762899 -3.50486588072637e-06 C 0.0 **** 0.0
128 C48185 0.0666120263015801 1.08694680441948 0.00273296484473282 C 0.0 **** 0.0
129 C48191 0.0550402074089676 1.10862220076923 -0.0148109921899631 C 0.0 **** 0.0
130 C48192 0.0437291321715905 1.12152539095233 -0.0174760548527042 C 0.0 **** 0.0
131 C48193 0.0320956982538535 1.12606958977736 -0.00547136813723059 C 0.0 **** 0.0
132 C48194 0.0312034818144586 1.11662081525699 0.010630670591003 C 0.0 **** 0.0
133 C48200 0.0191390261741347 1.12080370620691 0.022979314484397 C 0.0 **** 0.0
134 C48201 0.0186307287924707 1.1113575452902 0.0378745872095254 C 0.0 **** 0.0
135 C48202 0.0298869617678403 1.0978950036645 0.0400347129151609 C 0.0 **** 0.0
136 C48207 0.00809671738610047 1.13443527998206 0.0207477876028262 C 0.0 **** 0.0
137 C48208 0.00959370009717715 1.14344981224239 0.0037923138780852 C 0.0 **** 0.0
138 C48209 0.0211892251150606 1.13911540750696 -0.00826698609989041 C 0.0 **** 0.0
139 C48214 0.00815282842061604 1.10588319187943 0.0660366815231596 C 0.0 **** 0.0
140 C48215 0.00717786889735532 1.1154720913257 0.0507950780143305 C 0.0 **** 0.0
141 C48220 -0.00321533513047644 1.13872180418601 0.0336078418292053 C 0.0 **** 0.0
142 C48221 -0.00416643989922585 1.12906258828924 0.0483511977590664 C 0.0 **** 0.0
143 C48225 -0.0168156911671237 1.1335736324246 0.0622201508144253 C 0.0 **** 0.0
144 C48226 -0.033370371732971 1.14023187730588 0.0547222432576829 C 0.0 **** 0.0
145 C48227 -0.0295248363166332 1.15528883613404 0.0436343337814664 C 0.0 **** 0.0
146 C48228 -0.0145966309225983 1.15386718084996 0.0319409365175721 C 0.0 **** 0.0
147 O48234 -0.0122743309237353 1.16551048671962 0.0222313088524882 O 0.0 **** 0.0
148 H48236 0.0738303918697211 0.736924304815337 0.15056011970332 H 0.0 **** 0.0
149 H48238 0.0767482501136738 0.75771000170724 0.142966618403197 H 0.0 **** 0.0
150 H48240 0.0558795906097583 0.729906235311763 0.127739146917867 H 0.0 **** 0.0
151 H48242 0.0552874539339463 0.751586398276008 0.123327525685043 H 0.0 **** 0.0
152 H48244 0.0798488460082451 0.725331302725808 0.109275468841677 H 0.0 **** 0.0
153 H48246 0.0944559024089079 0.748032367965006 0.0941799662187814 H 0.0 **** 0.0
154 H48248 0.10223131334025 0.762829466157416 0.126445499024411 H 0.0 **** 0.0
155 H48250 0.11179392984956 0.744795749822535 0.117489949061403 H 0.0 **** 0.0
156 H48252 0.075790904160502 0.773903633948569 0.115670832777991 H 0.0 **** 0.0
157 H48254 0.0523514961017594 0.77014068678318 0.0990532675767763 H 0.0 **** 0.0
158 H48256 0.0736239914915809 0.751481868586374 0.0730454681416706 H 0.0 **** 0.0
159 H48258 0.0514141435882235 0.753053525866542 0.0728929690471471 H 0.0 **** 0.0
160 H48260 0.0650208904911228 0.725424071810029 0.0846228727557568 H 0.0 **** 0.0
161 H48262 0.0484029148539939 0.734186752790989 0.0965506049774348 H 0.0 **** 0.0
162 H48264 0.0667769054649788 0.806045855208414 0.0738292830650609 H 0.0 **** 0.0
163 H48266 0.093958650041865 0.803711713682665 0.0812768347462564 H 0.0 **** 0.0
164 H48268 0.10430051211667 0.781815085997094 0.104544917608748 H 0.0 **** 0.0
165 H48270 0.0977104223274279 0.776033791406027 0.0842066939044779 H 0.0 **** 0.0
166 H48272 0.054095389812515 0.797092462822322 0.109127909221675 H 0.0 **** 0.0
167 H48274 0.106405054306995 0.848087939590225 0.105675246199972 H 0.0 **** 0.0
168 H48276 0.0990630282121778 0.856795812847312 0.124850960890451 H 0.0 **** 0.0
169 H48278 0.0971347015864613 0.828169259606246 0.138095772957351 H 0.0 **** 0.0
170 H48280 0.117731460802931 0.831229569726691 0.130169182546297 H 0.0 **** 0.0
171 H48282 0.11268385439606 0.805256157316553 0.115166944089021 H 0.0 **** 0.0
172 H48284 0.0267558292353412 0.810714660945172 0.115311665410353 H 0.0 **** 0.0
173 H48285 0.0129928083847297 0.810563579683527 0.0590652314458214 H 0.0 **** 0.0
174 H48287 0.00939090910506325 0.788764489024125 0.0629570846358395 H 0.0 **** 0.0
175 H48289 0.0400050532284492 0.792741901393055 0.066871981326293 H 0.0 **** 0.0
176 H48291 -0.0194043802087261 0.805497160955393 0.0643847787270426 H 0.0 **** 0.0
177 H48293 -0.0178607860412946 0.786733120831335 0.0765526977857554 H 0.0 **** 0.0
178 H48295 -0.0413609757096956 0.79820608425658 0.089671536608636 H 0.0 **** 0.0
179 H48297 -0.0359502693520989 0.819260977335043 0.0843518699399227 H 0.0 **** 0.0
180 H48299 0.0084061849014353 0.808157430307507 0.132691982370309 H 0.0 **** 0.0
181 H48301 0.000426053913281197 0.828918402733646 0.130797221028043 H 0.0 **** 0.0
182 H48303 -0.0188696581220407 0.79751085039629 0.142211515880856 H 0.0 **** 0.0
183 H48305 -0.0313580039278817 0.833475110475374 0.135335543174905 H 0.0 **** 0.0
184 H48307 -0.0437799042119155 0.817760040384538 0.145207646008741 H 0.0 **** 0.0
185 H48309 -0.0483787011022561 0.821120037797476 0.113270721136666 H 0.0 **** 0.0
186 H48311 -0.0449174109702717 0.800351779391601 0.120854581595477 H 0.0 **** 0.0
187 H48313 0.0028802556177927 0.842716727031219 0.106730112895758 H 0.0 **** 0.0
188 H48315 -0.00761734743375046 0.907873017851849 0.112301765173071 H 0.0 **** 0.0
189 H48317 -0.0109254905416327 0.937507746662359 0.107217469731552 H 0.0 **** 0.0
190 H48319 0.0829438374413236 0.902250754245587 0.108687747075285 H 0.0 **** 0.0
191 H48321 -0.0147550396178869 1.00663856973086 0.116897820462667 H 0.0 **** 0.0
192 H48323 -0.0217583824726316 0.978713267040404 0.12133214127447 H 0.0 **** 0.0
193 H48325 -0.0232439745166741 0.976060842733661 0.0830415213720095 H 0.0 **** 0.0
194 H48327 -0.0515670646404653 0.982730574351215 0.0976592309589785 H 0.0 **** 0.0
195 H48329 -0.0504515570256736 0.973157621185678 0.117842230625986 H 0.0 **** 0.0
196 H48331 -0.0442267836878164 1.0029229963431 0.129756836297861 H 0.0 **** 0.0
197 H48333 -0.0648495488051165 1.00078293019898 0.121565794455826 H 0.0 **** 0.0
198 H48335 -0.0579730921153399 1.01460345750372 0.0958950939080513 H 0.0 **** 0.0
199 H48337 -0.0341536445539591 1.00603584658697 0.0838647871551223 H 0.0 **** 0.0
200 H48339 -0.0146971640980571 1.03398922338918 0.10145442761189 H 0.0 **** 0.0
201 H48341 -0.013856234915942 1.02765592288733 0.0799622065995376 H 0.0 **** 0.0
202 H48343 -0.0437220657099979 1.03780557418315 0.0764323336332366 H 0.0 **** 0.0
203 H48345 -0.030531657636749 1.0546600132739 0.0823977238065595 H 0.0 **** 0.0
204 H48347 -0.059834163038355 1.05098669219545 0.0983928893146214 H 0.0 **** 0.0
205 H48349 -0.0417893427019362 1.05660969216465 0.110063082191618 H 0.0 **** 0.0
206 H48351 -0.0425924066399251 1.03210611672127 0.123979407435347 H 0.0 **** 0.0
207 H48353 0.0936418201593771 0.923884658759562 0.0522881546401552 H 0.0 **** 0.0
208 H48355 0.107013301464436 0.902766069449719 0.0700102604373153 H 0.0 **** 0.0
209 H48357 0.11123519062987 0.925685493769743 0.0997915978019706 H 0.0 **** 0.0
210 H48359 0.122951881875735 0.907696784647107 0.0940438479088544 H 0.0 **** 0.0
211 H48361 0.142993816222816 0.929906445535356 0.0904780212318095 H 0.0 **** 0.0
212 H48363 0.127829605673505 0.944222602490366 0.0826668305916882 H 0.0 **** 0.0
213 H48365 0.14001727765348 0.912767517698518 0.0637041574435067 H 0.0 **** 0.0
214 H48367 0.147022905919743 0.933468017448875 0.0592922703200096 H 0.0 **** 0.0
215 H48369 0.121383138240783 0.919398343369719 0.0417984626522856 H 0.0 **** 0.0
216 H48371 0.121404762548176 0.941289336684641 0.0462158473983374 H 0.0 **** 0.0
217 H48373 0.0936002390063164 0.973948484708982 0.0661087808666564 H 0.0 **** 0.0
218 H48375 0.0899399967131969 1.00429871118756 0.0604671923473072 H 0.0 **** 0.0
219 H48377 0.01296360979495 1.01967309292845 0.105313498076986 H 0.0 **** 0.0
220 H48379 0.00660607444135159 1.04691174566657 0.0937778289470827 H 0.0 **** 0.0
221 H48381 0.0113541106284699 1.06035602441104 0.0698735040689497 H 0.0 **** 0.0
222 H48383 0.0329842070748094 1.08535085382365 0.0899215234095096 H 0.0 **** 0.0
223 H48385 -0.0048970687195089 1.07896670117862 0.092657492797477 H 0.0 **** 0.0
224 H48387 0.00525632681335648 1.09711276243344 0.100942624624318 H 0.0 **** 0.0
225 H48389 0.000528221399030883 1.0690979966065 0.119965224157063 H 0.0 **** 0.0
226 H48391 0.0181381167726831 1.08235437912565 0.122986014714377 H 0.0 **** 0.0
227 H48393 0.02371762739356 1.04962191631429 0.120861663134195 H 0.0 **** 0.0
228 H48395 0.037391018314681 1.06336864669836 0.109876425408044 H 0.0 **** 0.0
229 H48397 -0.0102926626118361 0.830593212184656 0.160278315605528 H 0.0 **** 0.0
230 H48399 -0.0210888087830542 0.81632821242394 0.186220948606665 H 0.0 **** 0.0
231 H48401 -0.0274500161627205 0.798546750739343 0.174008192992429 H 0.0 **** 0.0
232 H48403 -0.0374976958855635 0.818478787776598 0.171243304403356 H 0.0 **** 0.0
233 H48405 0.0157142664126607 0.81291353103136 0.158132686654851 H 0.0 **** 0.0
234 H48407 0.00428794055166673 0.794984214616509 0.165588993062507 H 0.0 **** 0.0
235 H48409 0.00778868415858414 0.812698788918836 0.178968099891633 H 0.0 **** 0.0
236 H48411 -0.0277000435815959 0.949560873455307 0.086014063693634 H 0.0 **** 0.0
237 H48413 0.0858827131208733 1.04443192992746 0.0346380852348066 H 0.0 **** 0.0
238 H48415 0.0868845997074164 1.06193381617059 0.00993226254721387 H 0.0 **** 0.0
239 H48417 0.0759741887886378 1.08396427848784 -0.00697431445237264 H 0.0 **** 0.0
240 H48419 0.0640361686923017 1.10563997610796 -0.0248300672415416 H 0.0 **** 0.0
241 H48421 0.0442900464612209 1.12822171099319 -0.0295218825869117 H 0.0 **** 0.0
242 H48423 0.00106599034819725 1.15378976591638 0.000796123389239482 H 0.0 **** 0.0
243 H48425 0.0214886517789339 1.14627018161563 -0.0200522992919583 H 0.0 **** 0.0
244 H48427 0.000131413751689573 1.10912669150223 0.0768460763137763 H 0.0 **** 0.0
245 H48429 -0.019897775869894 1.12257642191012 0.0701217674994935 H 0.0 **** 0.0
246 H48431 -0.0112533655057481 1.14316259582495 0.0707103840785827 H 0.0 **** 0.0
247 H48433 -0.0423372328726542 1.14388582496267 0.0647331070874089 H 0.0 **** 0.0
248 H48435 -0.0394987265223807 1.13011692337721 0.0473562780501357 H 0.0 **** 0.0
249 H48437 -0.0263679393590206 1.16662500510651 0.0510875692338647 H 0.0 **** 0.0
250 H48439 -0.0397533087625418 1.15910375134531 0.0350160398546116 H 0.0 **** 0.0
@<TRIPOS>BOND
1 3 2 1
2 4 3 1
3 5 4 1
4 6 5 1
5 1 2 1
6 1 6 1
7 8 7 1
8 9 8 1
9 10 9 1
10 4 7 1
11 3 10 1
12 12 11 1
13 13 12 1
14 14 13 1
15 8 11 1
16 7 14 1
17 16 15 1
18 17 16 Partial double
19 18 17 1
20 13 15 1
21 12 18 1
22 20 19 Partial double
23 21 20 Partial double
24 22 21 Partial double
25 17 19 Partial double
26 16 22 Partial double
27 24 23 1
28 25 24 1
29 15 25 Double
30 22 23 1
31 27 26 1
32 28 27 Partial double
33 29 28 Partial double
34 21 26 1
35 20 29 Partial double
36 31 30 1
37 32 31 1
38 18 30 1
39 19 32 1
40 34 33 Double
41 35 34 1
42 36 35 1
43 31 33 1
44 30 36 Double
45 38 37 1
46 39 38 1
47 40 39 Double
48 34 37 1
49 33 40 1
50 42 41 1
51 43 42 1
52 44 43 1
53 40 41 1
54 39 44 1
55 46 45 Partial double
56 32 46 1
57 29 45 Partial double
58 48 47 Partial double
59 49 48 1
60 45 49 Partial double
61 28 47 Partial double
62 51 50 Partial double
63 52 51 Partial double
64 53 52 Partial double
65 48 50 Partial double
66 47 53 Partial double
67 55 54 Partial double
68 56 55 Partial double
69 57 56 Partial double
70 52 54 Partial double
71 51 57 Partial double
72 59 58 Partial double
73 60 59 Partial double
74 61 60 Partial double
75 56 58 Partial double
76 55 61 Partial double
77 63 62 Partial double
78 27 63 Partial double
79 53 62 Partial double
80 65 64 Partial double
81 62 65 Partial double
82 54 64 Partial double
83 67 66 Partial double
84 64 67 Partial double
85 61 66 Partial double
86 69 68 Partial double
87 70 69 Partial double
88 66 70 Partial double
89 60 68 Partial double
90 72 71 1
91 73 72 1
92 74 73 1
93 59 71 1
94 58 74 1
95 76 75 1
96 77 76 1
97 78 77 1
98 73 75 1
99 72 78 1
100 80 79 1
101 81 80 1
102 82 81 1
103 78 79 1
104 77 82 1
105 84 83 Partial double
106 85 84 Partial double
107 67 85 Partial double
108 65 83 Partial double
109 87 86 1
110 88 87 1
111 89 88 1
112 84 86 1
113 83 89 1
114 91 90 1
115 92 91 1
116 93 92 1
117 88 90 1
118 87 93 1
119 95 94 Partial double
120 85 95 Partial double
121 70 94 Partial double
122 97 96 Partial double
123 98 97 Partial double
124 94 98 Partial double
125 69 96 Partial double
126 100 99 Partial double
127 101 100 Partial double
128 68 101 Partial double
129 96 99 Partial double
130 103 102 1
131 104 103 Partial double
132 97 102 1
133 99 104 1
134 106 105 1
135 107 106 1
136 100 105 1
137 104 107 Partial double
138 109 108 1
139 110 109 1
140 111 110 1
141 106 108 1
142 105 111 1
143 113 112 1
144 114 113 1
145 103 114 Partial double
146 107 112 Partial double
147 108 115 1
148 112 116 Partial double
149 115 116 Partial double
150 42 117 1
151 117 118 1
152 117 119 1
153 74 120 1
154 122 121 1
155 123 122 Partial double
156 124 123 1
157 114 121 Partial double
158 113 124 Partial double
159 126 125 Partial double
160 127 126 1
161 128 127 Partial double
162 124 125 Partial double
163 123 128 Partial double
164 130 129 Partial double
165 131 130 1
166 132 131 1
167 127 129 Partial double
168 126 132 Partial double
169 134 133 Partial double
170 135 134 Partial double
171 125 135 Partial double
172 132 133 Partial double
173 137 136 Partial double
174 138 137 Partial double
175 131 138 Partial double
176 133 136 Partial double
177 140 139 Partial double
178 134 140 Partial double
179 116 135 Partial double
180 115 139 Partial double
181 142 141 Partial double
182 140 142 Partial double
183 136 141 Partial double
184 144 143 1
185 145 144 1
186 146 145 1
187 142 143 1
188 141 146 1
189 146 147 Double
190 1 148 1
191 1 149 1
192 2 150 1
193 2 151 1
194 3 152 1
195 4 153 1
196 5 154 1
197 5 155 1
198 7 156 1
199 8 157 1
200 9 158 1
201 9 159 1
202 10 160 1
203 10 161 1
204 12 162 1
205 13 163 1
206 14 164 1
207 14 165 1
208 18 166 1
209 23 167 1
210 23 168 1
211 24 169 1
212 24 170 1
213 25 171 1
214 35 173 1
215 35 174 1
216 36 175 1
217 37 176 1
218 37 177 1
219 38 178 1
220 38 179 1
221 41 180 1
222 41 181 1
223 42 182 1
224 43 183 1
225 43 184 1
226 44 185 1
227 44 186 1
228 46 187 1
229 50 188 1
230 57 189 1
231 63 190 1
232 72 191 1
233 73 192 1
234 74 193 1
235 75 194 1
236 75 195 1
237 76 196 1
238 76 197 1
239 77 198 1
240 78 199 1
241 79 200 1
242 79 201 1
243 80 202 1
244 80 203 1
245 81 204 1
246 81 205 1
247 82 206 1
248 87 207 1
249 88 208 1
250 90 209 1
251 90 210 1
252 91 211 1
253 91 212 1
254 92 213 1
255 92 214 1
256 93 215 1
257 93 216 1
258 95 217 1
259 98 218 1
260 101 219 1
261 105 220 1
262 106 221 1
263 108 222 1
264 109 223 1
265 109 224 1
266 110 225 1
267 110 226 1
268 111 227 1
269 111 228 1
270 117 229 1
271 118 230 1
272 118 231 1
273 118 232 1
274 119 233 1
275 119 234 1
276 119 235 1
277 120 236 1
278 121 237 1
279 122 238 1
280 128 239 1
281 129 240 1
282 130 241 1
283 137 242 1
284 138 243 1
285 139 244 1
286 143 245 1
287 143 246 1
288 144 247 1
289 144 248 1
290 145 249 1
291 145 250 1
292 31 172 1
@<TRIPOS>MOLECULE
Sketch 4
250 292
SMALL
USER_CHARGES


@<TRIPOS>ATOM
1 C48442 0.690625111594063 0.116185997518463 0.2931224593147 C 0.0 **** 0.0
2 C48443 0.675939740128218 0.105180675855826 0.300018015590868 C 0.0 **** 0.0
3 C48444 0.671141770962869 0.110416994798361 0.31826085330452 C 0.0 **** 0.0
4 C48445 0.687080713704277 0.115678558525818 0.328297652478311 C 0.0 **** 0.0
5 C48446 0.69706718378385 0.129597961683812 0.318563067835014 C 0.0 **** 0.0
6 O48447 0.691437392734336 0.13194962414477 0.301623430372391 O 0.0 **** 0.0
7 C48454 0.698554940248246 0.100466241767225 0.333159622456164 C 0.0 **** 0.0
8 C48455 0.688750308876419 0.0834654109804185 0.334109828240944 C 0.0 **** 0.0
9 C48456 0.67057304116098 0.0861627342109833 0.340312783988708 C 0.0 **** 0.0
10 C48457 0.660307020589184 0.0971460416954627 0.327813986759443 C 0.0 **** 0.0
11 O48463 0.697881457071214 0.0705032010575137 0.342816685953995 O 0.0 **** 0.0
12 C48464 0.703912219001712 0.0749079131589793 0.359239745004316 C 0.0 **** 0.0
13 C48465 0.716628432121543 0.0891056021768107 0.357850397946353 C 0.0 **** 0.0
14 C48466 0.707434544493673 0.104415216082755 0.350103083992735 C 0.0 **** 0.0
15 C48472 0.732743502107463 0.0837920348463242 0.348697443164707 C 0.0 **** 0.0
16 C48473 0.739780496377394 0.0668237534060806 0.353789160651173 C 0.0 **** 0.0
17 C48474 0.73035005215029 0.0561679768236078 0.364069607223714 C 0.0 **** 0.0
18 C48475 0.711349831109327 0.0581446437118437 0.366587721617435 C 0.0 **** 0.0
19 C48481 0.738571579700018 0.0430170847573319 0.37238290131148 C 0.0 **** 0.0
20 C48482 0.75483540121868 0.0386868202791172 0.367492217436853 C 0.0 **** 0.0
21 C48483 0.763399531323904 0.0478972389926529 0.355260019603062 C 0.0 **** 0.0
22 C48484 0.75599593072166 0.0623966343502846 0.348668149977363 C 0.0 **** 0.0
23 C48490 0.76534295039799 0.0724330280601487 0.335283951546175 C 0.0 **** 0.0
24 C48491 0.760301948233543 0.0913557959837562 0.334722539305905 C 0.0 **** 0.0
25 C48492 0.742262788930974 0.0947990270395806 0.339748737012264 C 0.0 **** 0.0
26 O48497 0.779463261437636 0.0432767250697052 0.3498276105585 O 0.0 **** 0.0
27 C48498 0.788284799258883 0.0309847561618897 0.35857637184082 C 0.0 **** 0.0
28 C48499 0.780829543210382 0.0203689889646159 0.370256060503543 C 0.0 **** 0.0
29 C48500 0.762673895892308 0.0232560113067291 0.374944410622617 C 0.0 **** 0.0
30 C48506 0.707779978544747 0.0541209870258111 0.384726038367975 C 0.0 **** 0.0
31 C48507 0.710954389472445 0.0354740515769 0.38815738709838 C 0.0 **** 0.0
32 C48508 0.730528377252664 0.034064948275419 0.387428598883627 C 0.0 **** 0.0
33 C48513 0.702700303708168 0.0294276594971597 0.405018081073784 C 0.0 **** 0.0
34 C48514 0.700433132113931 0.0413235285702156 0.417367102949874 C 0.0 **** 0.0
35 C48515 0.704883382841644 0.0598756988637559 0.415421158224781 C 0.0 **** 0.0
36 C48516 0.705480262139477 0.0653588780761055 0.397188387381929 C 0.0 **** 0.0
37 C48522 0.692765785790474 0.0379233781670163 0.434376743700395 C 0.0 **** 0.0
38 C48523 0.685039414795414 0.0202090960022375 0.436215375939581 C 0.0 **** 0.0
39 C48524 0.690215856029843 0.00821973435645626 0.422437444251308 C 0.0 **** 0.0
40 C48525 0.697393370696599 0.0131156684583923 0.407505224028613 C 0.0 **** 0.0
41 C48531 0.69896218180762 -0.000190494909740066 0.393337517888241 C 0.0 **** 0.0
42 C48532 0.69464085052602 -0.0187319867105286 0.39772243383618 C 0.0 **** 0.0
43 C48533 0.696075337029333 -0.0222721134490254 0.416764153258795 C 0.0 **** 0.0
44 C48534 0.685277097077667 -0.00977030477371259 0.426622038335169 C 0.0 **** 0.0
45 C48540 0.754011339705354 0.0129817767137661 0.38561305422359 C 0.0 **** 0.0
46 C48541 0.738558477128595 0.017212808896241 0.391891876287545 C 0.0 **** 0.0
47 C48545 0.79103092717223 0.00845868720614172 0.378890411522973 C 0.0 **** 0.0
48 C48546 0.784001939088374 -0.00241632748038567 0.391151788252267 C 0.0 **** 0.0
49 S48547 0.762561898956531 -0.006439023296427 0.391186485949706 S 0.0 **** 0.0
50 C48552 0.793581468731772 -0.00956892481160694 0.403594689333359 C 0.0 **** 0.0
51 C48553 0.811230051218471 -0.0071404342568929 0.403266627411835 C 0.0 **** 0.0
52 C48554 0.818921496458713 0.00118736189418277 0.389360776656218 C 0.0 **** 0.0
53 C48555 0.808792008138298 0.00906338306448873 0.377217361832145 C 0.0 **** 0.0
54 C48561 0.836515464231202 0.00207443211812361 0.388676867576784 C 0.0 **** 0.0
55 C48562 0.846375757658498 -0.0049058522228096 0.401728336689919 C 0.0 **** 0.0
56 C48563 0.838723100622757 -0.0106671740856819 0.416865367688558 C 0.0 **** 0.0
57 C48564 0.821138101475927 -0.0126286604397612 0.416849643672306 C 0.0 **** 0.0
58 C48570 0.848747537044482 -0.0145780940120834 0.430954051846215 C 0.0 **** 0.0
59 C48571 0.865783739953721 -0.0178271953323084 0.428534991926233 C 0.0 **** 0.0
60 C48572 0.873805373022764 -0.0125934923587149 0.413385193060481 C 0.0 **** 0.0
61 C48573 0.863913031868697 -0.00487247927558369 0.400778011747769 C 0.0 **** 0.0
62 C48579 0.816321461978486 0.0190965400092367 0.364615923080309 C 0.0 **** 0.0
63 C48580 0.805305335266469 0.0296019518779817 0.355334466119639 C 0.0 **** 0.0
64 C48584 0.844225240619239 0.0109636447421142 0.375534389502313 C 0.0 **** 0.0
65 C48585 0.834381928181991 0.019649914451895 0.363439665521597 C 0.0 **** 0.0
66 C48589 0.871667981679067 0.00415067932484513 0.387772155994909 C 0.0 **** 0.0
67 C48590 0.861763756782441 0.0121437798567814 0.375487378982054 C 0.0 **** 0.0
68 C48594 0.891670582196166 -0.0130217759946583 0.411436473557478 C 0.0 **** 0.0
69 C48595 0.899217525614482 -0.00234097868208527 0.39943666829333 C 0.0 **** 0.0
70 C48596 0.889224823194107 0.00612098016237168 0.387781479783626 C 0.0 **** 0.0
71 O48601 0.874814202323223 -0.0250885719696698 0.441861278182564 O 0.0 **** 0.0
72 C48602 0.865538520022028 -0.0392242575314224 0.44879979358857 C 0.0 **** 0.0
73 C48603 0.848083247135427 -0.0336771194661481 0.45604186159917 C 0.0 **** 0.0
74 C48604 0.843064865075658 -0.0164005398557129 0.449234476571815 C 0.0 **** 0.0
75 C48610 0.847721111969096 -0.0334852420178831 0.475531874114561 C 0.0 **** 0.0
76 C48611 0.852215568374365 -0.0506572705665736 0.483614632010826 C 0.0 **** 0.0
77 C48612 0.864949410989665 -0.0607463457405984 0.472891031664244 C 0.0 **** 0.0
78 C48613 0.876177029565671 -0.0493274638958313 0.461801028834393 C 0.0 **** 0.0
79 C48619 0.890198063151 -0.0601732928875966 0.453366799713436 C 0.0 **** 0.0
80 C48620 0.885531394584113 -0.0791444445600572 0.453130250508354 C 0.0 **** 0.0
81 C48621 0.866679147133391 -0.0818484741481894 0.449563494897134 C 0.0 **** 0.0
82 N48622 0.856196987192567 -0.0734708409621623 0.462682654648876 N 0.0 **** 0.0
83 C48628 0.842687187782505 0.0299929369749118 0.351422091175023 C 0.0 **** 0.0
84 C48629 0.860002751113337 0.0320022984237206 0.352024028954219 C 0.0 **** 0.0
85 C48630 0.869665635911425 0.0227056393909239 0.363628534531628 C 0.0 **** 0.0
86 O48635 0.86808632819776 0.0430070682210893 0.341107597704744 O 0.0 **** 0.0
87 C48636 0.858362119548247 0.058224527721901 0.340947243572937 C 0.0 **** 0.0
88 C48637 0.84059771700972 0.0549252558568712 0.33459541543233 C 0.0 **** 0.0
89 O48638 0.83414415369477 0.0384368807565406 0.338687947299939 O 0.0 **** 0.0
90 C48644 0.839003443463082 0.0576227450972003 0.315340019953033 C 0.0 **** 0.0
91 C48645 0.855399455716636 0.0531671868246343 0.305923013370147 C 0.0 **** 0.0
92 C48646 0.87046712570568 0.064120800537852 0.311914259020784 C 0.0 **** 0.0
93 C48647 0.867573434017864 0.0712234194513568 0.329839903768731 C 0.0 **** 0.0
94 C48653 0.897267686280561 0.0164664279561428 0.37557134318239 C 0.0 **** 0.0
95 C48654 0.887236967486525 0.0247647195050209 0.363555845221402 C 0.0 **** 0.0
96 C48658 0.916886045395475 -0.00172167778673328 0.398187685652471 C 0.0 **** 0.0
97 C48659 0.924844600894573 0.00943128797047154 0.386728344872767 C 0.0 **** 0.0
98 C48660 0.915051739140779 0.0182561276996694 0.375497277398038 C 0.0 **** 0.0
99 C48665 0.927076382502209 -0.0135712601503805 0.406729223357375 C 0.0 **** 0.0
100 C48666 0.919654659531172 -0.0256160596341374 0.416983961152652 C 0.0 **** 0.0
101 C48667 0.902481376871825 -0.024515368879486 0.419809435150543 C 0.0 **** 0.0
102 O48672 0.942172174333557 0.0114406665649641 0.386446912561017 O 0.0 **** 0.0
103 C48673 0.952062572202576 -0.00170476238522213 0.392223204377624 C 0.0 **** 0.0
104 C48674 0.945589816088725 -0.0138592015676418 0.402698601926908 C 0.0 **** 0.0
105 C48679 0.92943727559161 -0.0399543967127351 0.425177762321316 C 0.0 **** 0.0
106 C48680 0.949408177859975 -0.0391270841539065 0.422100188387101 C 0.0 **** 0.0
107 C48681 0.955728053810094 -0.0263272579388495 0.409047117841583 C 0.0 **** 0.0
108 C48686 0.956689836711658 -0.0569112414091125 0.418398221394109 C 0.0 **** 0.0
109 C48687 0.94961159018023 -0.0699230243474685 0.430988820871246 C 0.0 **** 0.0
110 C48688 0.930280749926134 -0.071857832360802 0.428630857739463 C 0.0 **** 0.0
111 C48689 0.922496160929441 -0.0569422716325587 0.418884258017082 C 0.0 **** 0.0
112 C48695 0.972172540644392 -0.0273315825075524 0.403762644702257 C 0.0 **** 0.0
113 C48696 0.978695076457385 -0.0151436925396395 0.393228187571474 C 0.0 **** 0.0
114 C48697 0.968729254728551 -0.00221597590553169 0.387672240493186 C 0.0 **** 0.0
115 C48702 0.975938191092296 -0.0558556826308093 0.417784572314697 C 0.0 **** 0.0
116 C48704 0.982993820738877 -0.0418535894072609 0.409846423319722 C 0.0 **** 0.0
117 C48707 0.704428500304908 -0.0314393817745645 0.386457582519176 C 0.0 **** 0.0
118 C48709 0.723690470164333 -0.0314521097786576 0.388730505768043 C 0.0 **** 0.0
119 C48711 0.698039171590239 -0.0495526217271312 0.388894451028339 C 0.0 **** 0.0
120 O48713 0.825503327259529 -0.0137954979379849 0.452080305558418 O 0.0 **** 0.0
121 C48715 0.975426915170076 0.0101301889952565 0.377535630143796 C 0.0 **** 0.0
122 C48716 0.991873016096428 0.0093408785541525 0.372495311824724 C 0.0 **** 0.0
123 C48717 1.00176903203824 -0.00391781599234539 0.377368462189243 C 0.0 **** 0.0
124 C48718 0.995206444195484 -0.0158353089501115 0.388091195992314 C 0.0 **** 0.0
125 C48724 1.00614525758237 -0.0298952463372447 0.393828892406294 C 0.0 **** 0.0
126 C48725 1.02186668864696 -0.0315262855687418 0.386850510437875 C 0.0 **** 0.0
127 C48726 1.02793277604603 -0.018723260196564 0.37466076724064 C 0.0 **** 0.0
128 C48727 1.01792176309188 -0.00509656733626961 0.37087987122615 C 0.0 **** 0.0
129 C48733 1.04340400969728 -0.0208401761659807 0.367220065314374 C 0.0 **** 0.0
130 C48734 1.05354127815497 -0.0343590751031259 0.371196403315986 C 0.0 **** 0.0
131 C48735 1.04874169021631 -0.0461912521495495 0.382908186161551 C 0.0 **** 0.0
132 C48736 1.03197643362844 -0.0449081701715207 0.391078261116539 C 0.0 **** 0.0
133 C48742 1.02678787647592 -0.0568923993606664 0.40310174205004 C 0.0 **** 0.0
134 C48743 1.01067834859067 -0.055236065382019 0.410172123780906 C 0.0 **** 0.0
135 C48744 1.00009344931396 -0.0419212488045909 0.405296311627487 C 0.0 **** 0.0
136 C48749 1.03740650726509 -0.0701517855377514 0.408151172148772 C 0.0 **** 0.0
137 C48750 1.05445250959753 -0.0706588818670108 0.399152521033829 C 0.0 **** 0.0
138 C48751 1.05928438365287 -0.0591231427683011 0.387216467546512 C 0.0 **** 0.0
139 C48756 0.986667725624411 -0.0684445273004576 0.423371229191215 C 0.0 **** 0.0
140 C48757 1.00446721677596 -0.0679248862221422 0.420782521169018 C 0.0 **** 0.0
141 C48762 1.03206505766525 -0.0813051798165885 0.420818206520374 C 0.0 **** 0.0
142 C48763 1.01566060887615 -0.0802062602714127 0.427248705535316 C 0.0 **** 0.0
143 C48767 1.00892497445747 -0.0926152756826157 0.440407900550919 C 0.0 **** 0.0
144 C48768 1.02281218003237 -0.098377501615568 0.452501350971663 C 0.0 **** 0.0
145 C48769 1.0372241157651 -0.105536664640496 0.442248488564613 C 0.0 **** 0.0
146 C48770 1.04353729317645 -0.0947478509400239 0.427846493935583 C 0.0 **** 0.0
147 O48776 1.05770903345143 -0.0976678434717016 0.422856626448417 O 0.0 **** 0.0
148 H48778 0.688857074968959 0.119068115457136 0.279640134673382 H 0.0 **** 0.0
149 H48780 0.702766064979176 0.109378164747011 0.294174402086801 H 0.0 **** 0.0
150 H48782 0.664623428910581 0.106270539545759 0.291943047717573 H 0.0 **** 0.0
151 H48784 0.679595896688175 0.0917872346201738 0.299519610341648 H 0.0 **** 0.0
152 H48786 0.66338343397816 0.121967480818325 0.316891940180497 H 0.0 **** 0.0
153 H48788 0.68234734708323 0.12109229958698 0.340285259233789 H 0.0 **** 0.0
154 H48790 0.710771134672121 0.126956379699724 0.318720499407625 H 0.0 **** 0.0
155 H48792 0.695438543088091 0.141960018899231 0.324683926046495 H 0.0 **** 0.0
156 H48794 0.708458120744668 0.098799386925759 0.323461549529911 H 0.0 **** 0.0
157 H48796 0.687756950371244 0.0782454285731577 0.3212427913675 H 0.0 **** 0.0
158 H48798 0.670821556255376 0.0922858040886437 0.35282478903453 H 0.0 **** 0.0
159 H48800 0.664411520431814 0.0738086049830151 0.342117667790617 H 0.0 **** 0.0
160 H48802 0.650145860159876 0.103630978608298 0.33480467711379 H 0.0 **** 0.0
161 H48804 0.653807992740707 0.0889588022030067 0.318616352749006 H 0.0 **** 0.0
162 H48806 0.693116191632791 0.0792732518399778 0.366966776473399 H 0.0 **** 0.0
163 H48808 0.720562413520426 0.0926734039896158 0.370768917307512 H 0.0 **** 0.0
164 H48810 0.715603318117672 0.115624510962076 0.348854989399446 H 0.0 **** 0.0
165 H48812 0.697547874658501 0.108128384787789 0.359243234921244 H 0.0 **** 0.0
166 H48814 0.705022125849046 0.0481765806590651 0.359034913672224 H 0.0 **** 0.0
167 H48816 0.779117482992951 0.0714195715651832 0.336951840082565 H 0.0 **** 0.0
168 H48818 0.762488847793967 0.0667636536698946 0.3229232797506 H 0.0 **** 0.0
169 H48820 0.762616825253695 0.096437457925324 0.321927450851142 H 0.0 **** 0.0
170 H48822 0.768562718197707 0.098556201299115 0.343349756951245 H 0.0 **** 0.0
171 H48824 0.738298428963493 0.10772819650568 0.337162705126047 H 0.0 **** 0.0
172 H48826 0.705454338228574 0.02814648685944 0.377650371383344 H 0.0 **** 0.0
173 H48827 0.71703823268428 0.062562469542719 0.421689068670662 H 0.0 **** 0.0
174 H48829 0.695206651198233 0.0675333559879747 0.421928302591761 H 0.0 **** 0.0
175 H48831 0.704923591340009 0.0788371638428857 0.394522677006077 H 0.0 **** 0.0
176 H48833 0.70255647121735 0.0399354993467287 0.44410277487062 H 0.0 **** 0.0
177 H48835 0.682794608000332 0.0473450238147082 0.436830841475903 H 0.0 **** 0.0
178 H48837 0.671119023443118 0.0212267419065416 0.436016936656204 H 0.0 **** 0.0
179 H48839 0.68834601570344 0.014961255536687 0.448711465324041 H 0.0 **** 0.0
180 H48841 0.690794248164445 0.0038442237946133 0.382788403300329 H 0.0 **** 0.0
181 H48843 0.711819431082733 0.000302240141406439 0.388329247462908 H 0.0 **** 0.0
182 H48845 0.68110928092606 -0.0203940336841583 0.394599494287236 H 0.0 **** 0.0
183 H48847 0.709360012236596 -0.0211965014050114 0.420850348081874 H 0.0 **** 0.0
184 H48849 0.692024920632747 -0.035285544969657 0.419662283856842 H 0.0 **** 0.0
185 H48851 0.686796393187091 -0.0120358389039205 0.440318492139868 H 0.0 **** 0.0
186 H48853 0.671786749325479 -0.0116272248131875 0.423692113571745 H 0.0 **** 0.0
187 H48855 0.732036145461907 0.00893990878291822 0.400717318313212 H 0.0 **** 0.0
188 H48857 0.787817410942277 -0.016882931340262 0.413873344823042 H 0.0 **** 0.0
189 H48859 0.814428617092093 -0.0187738606537517 0.427286234719982 H 0.0 **** 0.0
190 H48861 0.809467993652146 0.038553389993796 0.345690061020539 H 0.0 **** 0.0
191 H48863 0.862874977248717 -0.0477753468516309 0.438134139631973 H 0.0 **** 0.0
192 H48865 0.838326430773743 -0.0427117500516182 0.451874132872581 H 0.0 **** 0.0
193 H48867 0.850084593050368 -0.00674191722689217 0.456595398448695 H 0.0 **** 0.0
194 H48869 0.856919120472159 -0.0239600621306576 0.479938473849568 H 0.0 **** 0.0
195 H48871 0.835256303840681 -0.0291865542467026 0.480085318800079 H 0.0 **** 0.0
196 H48873 0.840704421589667 -0.0582260077493947 0.485649947805691 H 0.0 **** 0.0
197 H48875 0.857468516352368 -0.0482193049520264 0.496279190972544 H 0.0 **** 0.0
198 H48877 0.873160672951392 -0.0677888881789627 0.481734838511519 H 0.0 **** 0.0
199 H48879 0.882140627917821 -0.039915399517872 0.470165139700835 H 0.0 **** 0.0
200 H48881 0.892123766535109 -0.0560302503451736 0.440293471586828 H 0.0 **** 0.0
201 H48883 0.902385464588315 -0.0584129955191023 0.459852412507247 H 0.0 **** 0.0
202 H48885 0.888655936329985 -0.0849459158815644 0.465422085847154 H 0.0 **** 0.0
203 H48887 0.893099939639263 -0.0858819839600046 0.443577358953902 H 0.0 **** 0.0
204 H48889 0.863682181375504 -0.0954628179849313 0.449248477237033 H 0.0 **** 0.0
205 H48891 0.863855082509135 -0.0768584177178118 0.43684490804376 H 0.0 **** 0.0
206 H48893 0.84545741163597 -0.0687942767993074 0.45789301404948 H 0.0 **** 0.0
207 H48895 0.857816782393108 0.063049792598299 0.354048126840442 H 0.0 **** 0.0
208 H48897 0.831999325790983 0.0639888746058199 0.340776251120818 H 0.0 **** 0.0
209 H48899 0.828399543557113 0.0498188757940627 0.310853919980728 H 0.0 **** 0.0
210 H48901 0.83560208120336 0.0708103992011043 0.312457673875409 H 0.0 **** 0.0
211 H48903 0.853749667898374 0.0545362990582351 0.292198563048809 H 0.0 **** 0.0
212 H48905 0.858261824857617 0.0397174781208112 0.308249889696889 H 0.0 **** 0.0
213 H48907 0.872781355787071 0.0745766020280423 0.303028630159919 H 0.0 **** 0.0
214 H48909 0.882066809362792 0.056391726725861 0.31176341316349 H 0.0 **** 0.0
215 H48911 0.860061556028015 0.0829453494271966 0.329143454045811 H 0.0 **** 0.0
216 H48913 0.879764224502149 0.074674461349817 0.33564894246665 H 0.0 **** 0.0
217 H48915 0.89326343030348 0.0329847139476052 0.354121937753307 H 0.0 **** 0.0
218 H48917 0.9210343695448 0.0266030566294847 0.366129066344879 H 0.0 **** 0.0
219 H48919 0.897111449158225 -0.03385246278867 0.428437925496445 H 0.0 **** 0.0
220 H48921 0.927447005235546 -0.0393726023471549 0.438988625718683 H 0.0 **** 0.0
221 H48923 0.954876014143548 -0.0350521886589843 0.434296141424076 H 0.0 **** 0.0
222 H48925 0.952605816891351 -0.0608924169062232 0.405611676557672 H 0.0 **** 0.0
223 H48927 0.952443502866161 -0.0656140914426865 0.443931520210192 H 0.0 **** 0.0
224 H48929 0.955606659283487 -0.0823744550232755 0.429515438007175 H 0.0 **** 0.0
225 H48931 0.924074902480244 -0.0730764972885407 0.441037790409633 H 0.0 **** 0.0
226 H48933 0.927392264593896 -0.0835863128311664 0.421712331317094 H 0.0 **** 0.0
227 H48935 0.90865599277613 -0.0577128501468056 0.419797387499577 H 0.0 **** 0.0
228 H48937 0.925397273081482 -0.0581845694029806 0.405291628830371 H 0.0 **** 0.0
229 H48939 0.701774291810123 -0.0279597898853895 0.373186968833958 H 0.0 **** 0.0
230 H48941 0.729493502157956 -0.0408251234877075 0.380208945666964 H 0.0 **** 0.0
231 H48943 0.727211367355677 -0.0348564215670485 0.40175400463062 H 0.0 **** 0.0
232 H48945 0.729502744664569 -0.0191885713596071 0.385825706956311 H 0.0 **** 0.0
233 H48947 0.684195563149503 -0.0500710929014891 0.388305290923573 H 0.0 **** 0.0
234 H48949 0.701928655253929 -0.0546344465809094 0.401251205492258 H 0.0 **** 0.0
235 H48951 0.703063267226176 -0.0580244360192372 0.379058079602069 H 0.0 **** 0.0
236 H48953 0.823068798396995 -0.00274770872128538 0.448018260391236 H 0.0 **** 0.0
237 H48955 0.967774362837297 0.0207344039204027 0.373126503671737 H 0.0 **** 0.0
238 H48957 0.996766654246948 0.019233703895691 0.364204226463608 H 0.0 **** 0.0
239 H48959 1.02253578120186 0.00450800718301602 0.362084047074072 H 0.0 **** 0.0
240 H48961 1.04800362950948 -0.0117240057059456 0.357938531776111 H 0.0 **** 0.0
241 H48963 1.0657937387428 -0.0353243601430359 0.364920181055617 H 0.0 **** 0.0
242 H48965 1.06344608399382 -0.0806038457213243 0.402034655816008 H 0.0 **** 0.0
243 H48967 1.07174628473187 -0.0604189194569789 0.381430449906449 H 0.0 **** 0.0
244 H48969 0.981139122705295 -0.0792059725511999 0.430100996035924 H 0.0 **** 0.0
245 H48971 0.998766998175405 -0.0867960034148559 0.447935982948961 H 0.0 **** 0.0
246 H48973 1.00328971905569 -0.103674419874463 0.434028393454053 H 0.0 **** 0.0
247 H48975 1.01804849189799 -0.107939894072796 0.461400504840689 H 0.0 **** 0.0
248 H48977 1.02710751758069 -0.0875236178705354 0.460125482330718 H 0.0 **** 0.0
249 H48979 1.03368004285036 -0.117642810893072 0.436317413319132 H 0.0 **** 0.0
250 H48981 1.04895436403724 -0.107897662795323 0.449312412927155 H 0.0 **** 0.0
@<TRIPOS>BOND
1 3 2 1
2 4 3 1
3 5 4 1
4 6 5 1
5 1 2 1
6 1 6 1
7 8 7 1
8 9 8 1
9 10 9 1
10 4 7 1
11 3 10 1
12 12 11 1
13 13 12 1
14 14 13 1
15 8 11 1
16 7 14 1
17 16 15 1
18 17 16 Partial double
19 18 17 1
20 13 15 1
21 12 18 1
22 20 19 Partial double
23 21 20 Partial double
24 22 21 Partial double
25 17 19 Partial double
26 16 22 Partial double
27 24 23 1
28 25 24 1
29 15 25 Double
30 22 23 1
31 27 26 1
32 28 27 Partial double
33 29 28 Partial double
34 21 26 1
35 20 29 Partial double
36 31 30 1
37 32 31 1
38 18 30 1
39 19 32 1
40 34 33 Double
41 35 34 1
42 36 35 1
43 31 33 1
44 30 36 Double
45 38 37 1
46 39 38 1
47 40 39 Double
48 34 37 1
49 33 40 1
50 42 41 1
51 43 42 1
52 44 43 1
53 40 41 1
54 39 44 1
55 46 45 Partial double
56 32 46 1
57 29 45 Partial double
58 48 47 Partial double
59 49 48 1
60 45 49 Partial double
61 28 47 Partial double
62 51 50 Partial double
63 52 51 Partial double
64 53 52 Partial double
65 48 50 Partial double
66 47 53 Partial double
67 55 54 Partial double
68 56 55 Partial double
69 57 56 Partial double
70 52 54 Partial double
71 51 57 Partial double
72 59 58 Partial double
73 60 59 Partial double
74 61 60 Partial double
75 56 58 Partial double
76 55 61 Partial double
77 63 62 Partial double
78 27 63 Partial double
79 53 62 Partial double
80 65 64 Partial double
81 62 65 Partial double
82 54 64 Partial double
83 67 66 Partial double
84 64 67 Partial double
85 61 66 Partial double
86 69 68 Partial double
87 70 69 Partial double
88 66 70 Partial double
89 60 68 Partial double
90 72 71 1
91 73 72 1
92 74 73 1
93 59 71 1
94 58 74 1
95 76 75 1
96 77 76 1
97 78 77 1
98 73 75 1
99 72 78 1
100 80 79 1
101 81 80 1
102 82 81 1
103 78 79 1
104 77 82 1
105 84 83 Partial double
106 85 84 Partial double
107 67 85 Partial double
108 65 83 Partial double
109 87 86 1
110 88 87 1
111 89 88 1
112 84 86 1
113 83 89 1
114 91 90 1
115 92 91 1
116 93 92 1
117 88 90 1
118 87 93 1
119 95 94 Partial double
120 85 95 Partial double
121 70 94 Partial double
122 97 96 Partial double
123 98 97 Partial double
124 94 98 Partial double
125 69 96 Partial double
126 100 99 Partial double
127 101 100 Partial double
128 68 101 Partial double
129 96 99 Partial double
130 103 102 1
131 104 103 Partial double
132 97 102 1
133 99 104 1
134 106 105 1
135 107 106 1
136 100 105 1
137 104 107 Partial double
138 109 108 1
139 110 109 1
140 111 110 1
141 106 108 1
142 105 111 1
143 113 112 1
144 114 113 1
145 103 114 Partial double
146 107 112 Partial double
147 108 115 1
148 112 116 Partial double
149 115 116 Partial double
150 42 117 1
151 117 118 1
152 117 119 1
153 74 120 1
154 122 121 1
155 123 122 Partial double
156 124 123 1
157 114 121 Partial double
158 113 124 Partial double
159 126 125 Partial double
160 127 126 1
161 128 127 Partial double
162 124 125 Partial double
163 123 128 Partial double
164 130 129 Partial double
165 131 130 1
166 132 131 1
167 127 129 Partial double
168 126 132 Partial double
169 134 133 Partial double
170 135 134 Partial double
171 125 135 Partial double
172 132 133 Partial double
173 137 136 Partial double
174 138 137 Partial double
175 131 138 Partial double
176 133 136 Partial double
177 140 139 Partial double
178 134 140 Partial double
179 116 135 Partial double
180 115 139 Partial double
181 142 141 Partial double
182 140 142 Partial double
183 136 141 Partial double
184 144 143 1
185 145 144 1
186 146 145 1
187 142 143 1
188 141 146 1
189 146 147 Double
190 1 148 1
191 1 149 1
192 2 150 1
193 2 151 1
194 3 152 1
195 4 153 1
196 5 154 1
197 5 155 1
198 7 156 1
199 8 157 1
200 9 158 1
201 9 159 1
202 10 160 1
203 10 161 1
204 12 162 1
205 13 163 1
206 14 164 1
207 14 165 1
208 18 166 1
209 23 167 1
210 23 168 1
211 24 169 1
212 24 170 1
213 25 171 1
214 35 173 1
215 35 174 1
216 36 175 1
217 37 176 1
218 37 177 1
219 38 178 1
220 38 179 1
221 41 180 1
222 41 181 1
223 42 182 1
224 43 183 1
225 43 184 1
226 44 185 1
227 44 186 1
228 46 187 1
229 50 188 1
230 57 189 1
231 63 190 1
232 72 191 1
233 73 192 1
234 74 193 1
235 75 194 1
236 75 195 1
237 76 196 1
238 76 197 1
239 77 198 1
240 78 199 1
241 79 200 1
242 79 201 1
243 80 202 1
244 80 203 1
245 81 204 1
246 81 205 1
247 82 206 1
248 87 207 1
249 88 208 1
250 90 209 1
251 90 210 1
252 91 211 1
253 91 212 1
254 92 213 1
255 92 214 1
256 93 215 1
257 93 216 1
258 95 217 1
259 98 218 1
260 101 219 1
261 105 220 1
262 106 221 1
263 108 222 1
264 109 223 1
265 109 224 1
266 110 225 1
267 110 226 1
268 111 227 1
269 111 228 1
270 117 229 1
271 118 230 1
272 118 231 1
273 118 232 1
274 119 233 1
275 119 234 1
276 119 235 1
277 120 236 1
278 121 237 1
279 122 238 1
280 128 239 1
281 129 240 1
282 130 241 1
283 137 242 1
284 138 243 1
285 139 244 1
286 143 245 1
287 143 246 1
288 144 247 1
289 144 248 1
290 145 249 1
291 145 250 1
292 31 172 1
@<TRIPOS>MOLECULE
Sketch 4
250 292
SMALL
USER_CHARGES


@<TRIPOS>ATOM
1 C48984 0.543522753892933 0.821041042167569 0.0911192420731588 C 0.0 **** 0.0
2 C48985 0.556480271615947 0.820133094757131 0.105757129529905 C 0.0 **** 0.0
3 C48986 0.574188385980053 0.815226346647035 0.0992963990289453 C 0.0 **** 0.0
4 C48987 0.573513804956539 0.798187573824015 0.0891488304290451 C 0.0 **** 0.0
5 C48988 0.555526337702256 0.795669882247734 0.0818495366568252 C 0.0 **** 0.0
6 O48989 0.548527231459112 0.811386584244686 0.0768087143031472 O 0.0 **** 0.0
7 C48996 0.579861131680367 0.783085348112661 0.0998325536515101 C 0.0 **** 0.0
8 C48997 0.598482527216276 0.78578896833926 0.105601921931287 C 0.0 **** 0.0
9 C48998 0.602682495955073 0.80450645532432 0.108770062285501 C 0.0 **** 0.0
10 C48999 0.587272814958501 0.815014918500679 0.1137231613533 C 0.0 **** 0.0
11 O49005 0.610561920571424 0.78082151969299 0.0932113010986414 O 0.0 **** 0.0
12 C49006 0.608978502910802 0.763865757496482 0.0872902027519417 C 0.0 **** 0.0
13 C49007 0.591790536818311 0.761792204168251 0.078631159510695 C 0.0 **** 0.0
14 C49008 0.577595579280681 0.765622677160508 0.0912556066218666 C 0.0 **** 0.0
15 C49014 0.590293089772849 0.744489174949369 0.0705155517899249 C 0.0 **** 0.0
16 C49015 0.600904637375855 0.730346020823321 0.0776189243067039 C 0.0 **** 0.0
17 C49016 0.610135764091238 0.732865296610479 0.0923441077043468 C 0.0 **** 0.0
18 C49017 0.611560533421161 0.750164791814727 0.100707518066825 C 0.0 **** 0.0
19 C49023 0.618065291796525 0.719066018823877 0.0997211885411686 C 0.0 **** 0.0
20 C49024 0.616454905981946 0.703248067192445 0.0924476343437294 C 0.0 **** 0.0
21 C49025 0.608684555400222 0.701039788649512 0.0768938723045102 C 0.0 **** 0.0
22 C49026 0.601035084792149 0.714876443882307 0.0692332068354794 C 0.0 **** 0.0
23 C49032 0.59297870876198 0.713047603887243 0.0519511818259035 C 0.0 **** 0.0
24 C49033 0.577028643888842 0.724280296462562 0.0500188329689618 C 0.0 **** 0.0
25 C49034 0.579115043898619 0.741453885063906 0.058050371538177 C 0.0 **** 0.0
26 O49039 0.608047410138964 0.685280957124688 0.0691018547137231 O 0.0 **** 0.0
27 C49040 0.616122617149244 0.671629069324177 0.0765427760315902 C 0.0 **** 0.0
28 C49041 0.622646315870072 0.672057464466346 0.092790573962584 C 0.0 **** 0.0
29 C49042 0.622288430994612 0.688343440076835 0.102354509124998 C 0.0 **** 0.0
30 C49048 0.628239648262252 0.750484844428787 0.109830131517718 C 0.0 **** 0.0
31 C49049 0.627914589577744 0.737949117374999 0.124299760742859 C 0.0 **** 0.0
32 C49050 0.628949502338078 0.720614448979488 0.115387218167583 C 0.0 **** 0.0
33 C49055 0.642575768441377 0.740314043015185 0.137048108300777 C 0.0 **** 0.0
34 C49056 0.657397663457064 0.746715351165719 0.130832873928073 C 0.0 **** 0.0
35 C49057 0.659285651395532 0.754370096482755 0.113297350263622 C 0.0 **** 0.0
36 C49058 0.642604958795237 0.757857701021541 0.104623103392837 C 0.0 **** 0.0
37 C49064 0.672872637576527 0.74951235221906 0.141450317302944 C 0.0 **** 0.0
38 C49065 0.672473688557015 0.739604173022106 0.158141541641197 C 0.0 **** 0.0
39 C49066 0.654722168220082 0.736732183350405 0.164386595170823 C 0.0 **** 0.0
40 C49067 0.640942395950929 0.736938971345744 0.153971279758624 C 0.0 **** 0.0
41 C49073 0.623693006269679 0.733563789128892 0.162374886029355 C 0.0 **** 0.0
42 C49074 0.623536222949198 0.73927220633584 0.180858308260997 C 0.0 **** 0.0
43 C49075 0.636924255351803 0.728464259426954 0.189987991757136 C 0.0 **** 0.0
44 C49076 0.654491487944515 0.732605254082084 0.183035119121672 C 0.0 **** 0.0
45 C49082 0.626410751970568 0.689687328205739 0.118984325618223 C 0.0 **** 0.0
46 C49083 0.628492477619543 0.705011426594802 0.126546260610771 C 0.0 **** 0.0
47 C49087 0.630279082198283 0.657480899501382 0.0996956335866455 C 0.0 **** 0.0
48 C49088 0.635537889123414 0.656698355304051 0.116780079328069 C 0.0 **** 0.0
49 S49089 0.628430806279432 0.671559889758033 0.131180168998124 S 0.0 **** 0.0
50 C49094 0.645560790768576 0.643946419931151 0.122732871756371 C 0.0 **** 0.0
51 C49095 0.649299721308895 0.630111169874659 0.112078767042121 C 0.0 **** 0.0
52 C49096 0.642218405772589 0.629522838113155 0.0956159250717365 C 0.0 **** 0.0
53 C49097 0.633427707438169 0.643403560257939 0.089245221974226 C 0.0 **** 0.0
54 C49103 0.642690751284688 0.614316932991381 0.0867007483602363 C 0.0 **** 0.0
55 C49104 0.649815455033924 0.599802602651342 0.0939527052457096 C 0.0 **** 0.0
56 C49105 0.657604317834578 0.600344425028789 0.110045818401906 C 0.0 **** 0.0
57 C49106 0.65778305805493 0.615951294905073 0.11849701831223 C 0.0 **** 0.0
58 C49112 0.665299490735233 0.585923132508943 0.117168882700248 C 0.0 **** 0.0
59 C49113 0.666990681273858 0.571780174011595 0.107009806706136 C 0.0 **** 0.0
60 C49114 0.657000138601731 0.570196785162503 0.0922779202177175 C 0.0 **** 0.0
61 C49115 0.649027293709275 0.584474451673966 0.0855119261691238 C 0.0 **** 0.0
62 C49121 0.627014126417124 0.642978856953406 0.0726385114729114 C 0.0 **** 0.0
63 C49122 0.617569589301249 0.657051170500021 0.0671563808945234 C 0.0 **** 0.0
64 C49126 0.635425708717531 0.613519947489525 0.0706339996304661 C 0.0 **** 0.0
65 C49127 0.62980252473937 0.628266558902957 0.0625928823528792 C 0.0 **** 0.0
66 C49131 0.640806214563982 0.583446783285626 0.0699500410015466 C 0.0 **** 0.0
67 C49132 0.634529217438063 0.598104521920567 0.0623864040668589 C 0.0 **** 0.0
68 C49136 0.653653303051386 0.554079921582428 0.084891395055025 C 0.0 **** 0.0
69 C49137 0.646331253744744 0.55349894205142 0.0687198691970982 C 0.0 **** 0.0
70 C49138 0.64012910001278 0.568084417785903 0.0613294375219367 C 0.0 **** 0.0
71 O49143 0.677473260466655 0.558331368129461 0.111211431371782 O 0.0 **** 0.0
72 C49144 0.686314853906912 0.557943886146227 0.126865298869493 C 0.0 **** 0.0
73 C49145 0.677288307672494 0.568090269294197 0.140676885688297 C 0.0 **** 0.0
74 C49146 0.672916207429772 0.585990936938174 0.134906030231716 C 0.0 **** 0.0
75 C49152 0.687761258327198 0.568325055059111 0.15730414634959 C 0.0 **** 0.0
76 C49153 0.701109802919083 0.554258429792763 0.15761085570752 C 0.0 **** 0.0
77 C49154 0.713723207589255 0.555821947014632 0.142732798542462 C 0.0 **** 0.0
78 C49155 0.705251886829345 0.563092990778695 0.126384631993548 C 0.0 **** 0.0
79 C49161 0.715102071011909 0.558704099594251 0.110036894205957 C 0.0 **** 0.0
80 C49162 0.733684773707765 0.55546088746335 0.114480549272513 C 0.0 **** 0.0
81 C49163 0.735796469664404 0.540754105865243 0.127247583148749 C 0.0 **** 0.0
82 N49164 0.722102636732944 0.539736033915339 0.139870315063116 N 0.0 **** 0.0
83 C49170 0.627182174648436 0.62817855984874 0.0448474355420999 C 0.0 **** 0.0
84 C49171 0.62679966139772 0.612842126802813 0.0363256712734733 C 0.0 **** 0.0
85 C49172 0.62907092474912 0.597684386000105 0.0455102847392566 C 0.0 **** 0.0
86 O49177 0.623979401469365 0.611672437471859 0.0190631903215827 O 0.0 **** 0.0
87 C49178 0.628916926628815 0.626894211308976 0.0107340685249703 C 0.0 **** 0.0
88 C49179 0.619814075277728 0.641412543433246 0.0188539821301424 C 0.0 **** 0.0
89 O49180 0.62466675075107 0.643247364299516 0.0361796192211737 O 0.0 **** 0.0
90 C49186 0.600344577556794 0.639651691345273 0.0171819492563497 C 0.0 **** 0.0
91 C49187 0.594784308655741 0.629096836955358 0.00169363210273067 C 0.0 **** 0.0
92 C49188 0.607125956640814 0.631421335358646 -0.013073626381707 C 0.0 **** 0.0
93 C49189 0.625108816725235 0.625291500911965 -0.00830804676382365 C 0.0 **** 0.0
94 C49195 0.633125682045002 0.567154316119081 0.0448653205262318 C 0.0 **** 0.0
95 C49196 0.627680217710784 0.582178266976748 0.0370739342112769 C 0.0 **** 0.0
96 C49200 0.64492675337432 0.537958205710632 0.060374406829062 C 0.0 **** 0.0
97 C49201 0.638031663752617 0.536896544913666 0.0439091491194062 C 0.0 **** 0.0
98 C49202 0.632044833031924 0.551374443833588 0.0364945537080832 C 0.0 **** 0.0
99 C49207 0.649799263791233 0.52294918730414 0.0684644025241045 C 0.0 **** 0.0
100 C49208 0.654623811971872 0.523032343755851 0.0852567688668309 C 0.0 **** 0.0
101 C49209 0.656157663084741 0.538428645761836 0.0932092068451091 C 0.0 **** 0.0
102 O49214 0.636305163331522 0.521655116305723 0.0355132019708611 O 0.0 **** 0.0
103 C49215 0.644741954673139 0.507671368957756 0.0417597107323014 C 0.0 **** 0.0
104 C49216 0.650414057384742 0.507250726674436 0.0580893741046377 C 0.0 **** 0.0
105 C49221 0.659209308750389 0.507068379160055 0.0948146595865421 C 0.0 **** 0.0
106 C49222 0.665219562427948 0.492560547929238 0.0824900169254392 C 0.0 **** 0.0
107 C49223 0.658178801749805 0.493275629247435 0.0644993649029897 C 0.0 **** 0.0
108 C49228 0.661377164171566 0.47495773766088 0.0900289171524282 C 0.0 **** 0.0
109 C49229 0.664692517238457 0.474528010919484 0.10914631130084 C 0.0 **** 0.0
110 C49230 0.652186907113663 0.486591361304295 0.118360902198287 C 0.0 **** 0.0
111 C49231 0.645286814394282 0.500845504646633 0.106785525999342 C 0.0 **** 0.0
112 C49237 0.66025786563553 0.479465263925993 0.0544260315790276 C 0.0 **** 0.0
113 C49238 0.65557219299195 0.480090688278478 0.037731959433976 C 0.0 **** 0.0
114 C49239 0.64762192199454 0.494057281795883 0.0314484366196983 C 0.0 **** 0.0
115 C49244 0.670678863727221 0.462062411832225 0.0791291824503834 C 0.0 **** 0.0
116 C49246 0.668921902466135 0.464193524891148 0.0617761643569495 C 0.0 **** 0.0
117 C49249 0.605594689463887 0.738833606800031 0.188629979274152 C 0.0 **** 0.0
118 C49251 0.605335447934198 0.741066506320366 0.207908827689718 C 0.0 **** 0.0
119 C49253 0.594146328475105 0.752511201198417 0.180953681227907 C 0.0 **** 0.0
120 O49255 0.661215407813077 0.592658762069798 0.146880777592245 O 0.0 **** 0.0
121 C49257 0.642936770244048 0.494423375049632 0.0147912091635682 C 0.0 **** 0.0
122 C49258 0.646366450877727 0.481086486607433 0.0044089726146181 C 0.0 **** 0.0
123 C49259 0.65469620169304 0.467240226961966 0.0104769728314363 C 0.0 **** 0.0
124 C49260 0.659184687118334 0.466863644335801 0.0271884493339652 C 0.0 **** 0.0
125 C49266 0.668963730350072 0.452264322317028 0.0336629720964521 C 0.0 **** 0.0
126 C49267 0.673159243348102 0.439546353742974 0.0227769312275041 C 0.0 **** 0.0
127 C49268 0.66758839624642 0.440425721364399 0.00495171252146106 C 0.0 **** 0.0
128 C49269 0.658553848302354 0.454205395836572 -0.000492084879009608 C 0.0 **** 0.0
129 C49275 0.671872888901423 0.427556003099098 -0.00581097903975889 C 0.0 **** 0.0
130 C49276 0.681775082523716 0.414298475351702 -0.000509620829280752 C 0.0 **** 0.0
131 C49277 0.687830650918369 0.413342477194996 0.0157079457476871 C 0.0 **** 0.0
132 C49278 0.682825413167884 0.426270896946768 0.0282412697983485 C 0.0 **** 0.0
133 C49284 0.68857841202757 0.425389990083298 0.0450235674107975 C 0.0 **** 0.0
134 C49285 0.683296066857963 0.437725842424519 0.0564456241192382 C 0.0 **** 0.0
135 C49286 0.67398652128029 0.451567993180044 0.0506125645348363 C 0.0 **** 0.0
136 C49291 0.700259110659006 0.413150752144128 0.0501421429300521 C 0.0 **** 0.0
137 C49292 0.705085459088414 0.400452563385908 0.0364804915468303 C 0.0 **** 0.0
138 C49293 0.698720600130199 0.400831001300069 0.0204026173940023 C 0.0 **** 0.0
139 C49298 0.679742738176306 0.448277704132996 0.084844210485527 C 0.0 **** 0.0
140 C49299 0.68756446949564 0.43655086965328 0.0736139199476427 C 0.0 **** 0.0
141 C49304 0.706533208531781 0.413438876908523 0.0666880234988054 C 0.0 **** 0.0
142 C49305 0.699756591220969 0.424492028729526 0.0786726456226203 C 0.0 **** 0.0
143 C49309 0.704965730411153 0.423743803327686 0.0972524974872497 C 0.0 **** 0.0
144 C49310 0.72305470962267 0.417475823247044 0.0997214422393548 C 0.0 **** 0.0
145 C49311 0.725087550971266 0.40087739820181 0.0904675636945835 C 0.0 **** 0.0
146 C49312 0.720748812260212 0.401945218838472 0.0719039801273405 C 0.0 **** 0.0
147 O49318 0.729537021691233 0.394267124032013 0.0619802154200974 O 0.0 **** 0.0
148 H49320 0.542375621052644 0.834096175481731 0.0865083545648926 H 0.0 **** 0.0
149 H49322 0.53084687124758 0.817108834508736 0.0954196386339653 H 0.0 **** 0.0
150 H49324 0.556947530010765 0.832218422767796 0.112681412493527 H 0.0 **** 0.0
151 H49326 0.552515083193012 0.810582443574265 0.115130397108873 H 0.0 **** 0.0
152 H49328 0.5780777728279 0.825135705663429 0.0902374007561376 H 0.0 **** 0.0
153 H49330 0.582257959167635 0.799542257559929 0.0783403245751888 H 0.0 **** 0.0
154 H49332 0.54721093002231 0.789282421688026 0.0910691061664734 H 0.0 **** 0.0
155 H49334 0.555820839980831 0.787677902965919 0.0704882049300919 H 0.0 **** 0.0
156 H49336 0.571960033707719 0.783108726809795 0.111365157154803 H 0.0 **** 0.0
157 H49338 0.600456688566599 0.778522055806154 0.11736302445592 H 0.0 **** 0.0
158 H49340 0.607819042411972 0.809556597038114 0.0968351683610269 H 0.0 **** 0.0
159 H49342 0.612894840936692 0.80571156390687 0.118150068500196 H 0.0 **** 0.0
160 H49344 0.590939422887721 0.828067828070334 0.116955201179098 H 0.0 **** 0.0
161 H49346 0.581586276734314 0.809545322851736 0.125222811300062 H 0.0 **** 0.0
162 H49348 0.61905093313203 0.7627299518865 0.0778207002700182 H 0.0 **** 0.0
163 H49350 0.591081361998521 0.771295890545059 0.0684877916098242 H 0.0 **** 0.0
164 H49352 0.577513890794349 0.755884618224443 0.101208172445952 H 0.0 **** 0.0
165 H49354 0.565102583261311 0.764641885728079 0.0851742866965153 H 0.0 **** 0.0
166 H49356 0.601603653032459 0.751445601870708 0.110429283141246 H 0.0 **** 0.0
167 H49358 0.602288763779259 0.716633397989712 0.04219195227302 H 0.0 **** 0.0
168 H49360 0.589635711843936 0.699804066667523 0.0493658482184311 H 0.0 **** 0.0
169 H49362 0.566025672541949 0.717927945969836 0.0556817969099386 H 0.0 **** 0.0
170 H49364 0.574095269910218 0.725748848543869 0.0364471214950882 H 0.0 **** 0.0
171 H49366 0.570620991271723 0.751283537782427 0.0534833518676833 H 0.0 **** 0.0
172 H49368 0.615598693064099 0.739010679684408 0.130661429603254 H 0.0 **** 0.0
173 H49369 0.667137302741209 0.746087996402962 0.105280851139824 H 0.0 **** 0.0
174 H49371 0.66617008041826 0.766494393731557 0.11448762608851 H 0.0 **** 0.0
175 H49373 0.642874585219509 0.765793568772799 0.093359957265871 H 0.0 **** 0.0
176 H49375 0.684298412847553 0.746023140350866 0.134216454458789 H 0.0 **** 0.0
177 H49377 0.673867744565105 0.763160759292123 0.144156865504213 H 0.0 **** 0.0
178 H49379 0.679948560877105 0.746477606228788 0.167725069990133 H 0.0 **** 0.0
179 H49381 0.678594316455912 0.727193873898267 0.156443308752331 H 0.0 **** 0.0
180 H49383 0.613683464855664 0.740216534203302 0.155435793740533 H 0.0 **** 0.0
181 H49385 0.620581168247306 0.720004719139564 0.161738704238933 H 0.0 **** 0.0
182 H49387 0.627773913335292 0.752586368317495 0.181560283049558 H 0.0 **** 0.0
183 H49389 0.633953373965934 0.714979333642033 0.188058967125266 H 0.0 **** 0.0
184 H49391 0.637056583256855 0.730540440072417 0.203751528772085 H 0.0 **** 0.0
185 H49393 0.663395274956471 0.722145270648461 0.18550261714845 H 0.0 **** 0.0
186 H49395 0.659457841893199 0.743735725627347 0.189860941201867 H 0.0 **** 0.0
187 H49397 0.630895584358307 0.706302680529768 0.140008556647431 H 0.0 **** 0.0
188 H49399 0.649724079583234 0.64361108747557 0.135956720141303 H 0.0 **** 0.0
189 H49401 0.663291938827922 0.617030990591506 0.131175910356923 H 0.0 **** 0.0
190 H49403 0.611277304099207 0.657320553985465 0.0548203532721514 H 0.0 **** 0.0
191 H49405 0.685963384284595 0.544505231212399 0.13059055102582 H 0.0 **** 0.0
192 H49407 0.665093833633076 0.561751508346102 0.14317295621236 H 0.0 **** 0.0
193 H49409 0.684444410471435 0.593927688759753 0.1347385233938 H 0.0 **** 0.0
194 H49411 0.694400314632103 0.580518396586677 0.158668324827021 H 0.0 **** 0.0
195 H49413 0.679316071557874 0.567240710856119 0.168314707735507 H 0.0 **** 0.0
196 H49415 0.69461240317062 0.541931183744258 0.157002792929702 H 0.0 **** 0.0
197 H49417 0.708106739818796 0.554240715756243 0.169663516781512 H 0.0 **** 0.0
198 H49419 0.723626953152307 0.564791560755761 0.146782732998522 H 0.0 **** 0.0
199 H49421 0.705811724423193 0.576984012676559 0.127573500102545 H 0.0 **** 0.0
200 H49423 0.709880836344685 0.547342678442792 0.104005218823544 H 0.0 **** 0.0
201 H49425 0.71380834591687 0.568980513016508 0.100723795662043 H 0.0 **** 0.0
202 H49427 0.738847833137192 0.567169285861949 0.120055966110981 H 0.0 **** 0.0
203 H49429 0.741397387481496 0.552862558178338 0.103181194727769 H 0.0 **** 0.0
204 H49431 0.747859339905792 0.542071047795844 0.134093189155343 H 0.0 **** 0.0
205 H49433 0.73652655658221 0.528628526013997 0.120438782096567 H 0.0 **** 0.0
206 H49435 0.713368160849572 0.531233376350371 0.136270478267704 H 0.0 **** 0.0
207 H49437 0.642640234771073 0.628541505690671 0.0126391560073963 H 0.0 **** 0.0
208 H49439 0.623788286393457 0.653059315430277 0.0123051806377433 H 0.0 **** 0.0
209 H49441 0.595468574428423 0.633789007662352 0.0288227647741686 H 0.0 **** 0.0
210 H49443 0.594513591178811 0.652292001016904 0.0165834773865218 H 0.0 **** 0.0
211 H49445 0.581776473457919 0.6324370684287 -0.00201968751212195 H 0.0 **** 0.0
212 H49447 0.594470682549614 0.615585128227906 0.00513024061147935 H 0.0 **** 0.0
213 H49449 0.607544494136319 0.644971696503688 -0.016350072335507 H 0.0 **** 0.0
214 H49451 0.602631105035904 0.624790279674662 -0.024474819958969 H 0.0 **** 0.0
215 H49453 0.634541374001875 0.632068830795778 -0.0159947501812927 H 0.0 **** 0.0
216 H49455 0.626483041982951 0.611818980841738 -0.0115556660846881 H 0.0 **** 0.0
217 H49457 0.623136071218929 0.581825015283265 0.0239570953053607 H 0.0 **** 0.0
218 H49459 0.626257136079516 0.550752540556983 0.0238789837283316 H 0.0 **** 0.0
219 H49461 0.660003187505462 0.53794814253708 0.106522348533333 H 0.0 **** 0.0
220 H49463 0.670018249975191 0.50990870246317 0.103047876085591 H 0.0 **** 0.0
221 H49465 0.679075297583834 0.493907014122434 0.0814147793172938 H 0.0 **** 0.0
222 H49467 0.647697773474974 0.4723784978365 0.0884562085498503 H 0.0 **** 0.0
223 H49469 0.677818458668591 0.4784933543935 0.11157640271368 H 0.0 **** 0.0
224 H49471 0.663329669402364 0.461659850243565 0.114292096863438 H 0.0 **** 0.0
225 H49473 0.658501864358206 0.492299881117369 0.129393818217063 H 0.0 **** 0.0
226 H49475 0.641499030309937 0.479258711216159 0.123478373227325 H 0.0 **** 0.0
227 H49477 0.640376290018263 0.511267455423277 0.114622806527046 H 0.0 **** 0.0
228 H49479 0.634511243461176 0.496146899299792 0.0992953062614964 H 0.0 **** 0.0
229 H49481 0.599910371246276 0.72646704870059 0.185619759922539 H 0.0 **** 0.0
230 H49483 0.592226051763108 0.741057548345282 0.212625277612947 H 0.0 **** 0.0
231 H49485 0.61115203014208 0.753188880356802 0.211509077624988 H 0.0 **** 0.0
232 H49487 0.612066967797628 0.730939448485972 0.214644178190958 H 0.0 **** 0.0
233 H49489 0.59241521284867 0.751035608762052 0.167240364424349 H 0.0 **** 0.0
234 H49491 0.599459779024629 0.76517360935349 0.183241125676758 H 0.0 **** 0.0
235 H49493 0.581471030162623 0.752130486306655 0.186718258362344 H 0.0 **** 0.0
236 H49495 0.666014914627316 0.590035479761811 0.157593768263144 H 0.0 **** 0.0
237 H49497 0.636697232993624 0.505485270666576 0.00942653822241712 H 0.0 **** 0.0
238 H49499 0.642708253005162 0.481894565312264 -0.00886334305753633 H 0.0 **** 0.0
239 H49501 0.654678910369527 0.455005008714013 -0.0137287587755686 H 0.0 **** 0.0
240 H49503 0.667786214544412 0.427762652129605 -0.0189962993932287 H 0.0 **** 0.0
241 H49505 0.685063090887139 0.404612607709584 -0.00976120478858927 H 0.0 **** 0.0
242 H49507 0.713899260364112 0.390345826041022 0.0394141652177265 H 0.0 **** 0.0
243 H49509 0.702807191932109 0.391145874288079 0.0114607681645976 H 0.0 **** 0.0
244 H49511 0.681582675569544 0.447242492006637 0.0985385328278691 H 0.0 **** 0.0
245 H49513 0.703917258100033 0.436230283400562 0.103246921234051 H 0.0 **** 0.0
246 H49515 0.69619543633357 0.415310085829744 0.104137635319353 H 0.0 **** 0.0
247 H49517 0.725971196619825 0.415817403469608 0.113237669299668 H 0.0 **** 0.0
248 H49519 0.73202176888314 0.426951860737332 0.0948052083821114 H 0.0 **** 0.0
249 H49521 0.717105609493908 0.391149327485047 0.0964262535650461 H 0.0 **** 0.0
250 H49523 0.738071925554811 0.396035391646717 0.0899436856593269 H 0.0 **** 0.0
@<TRIPOS>BOND
1 3 2 1
2 4 3 1
3 5 4 1
4 6 5 1
5 1 2 1
6 1 6 1
7 8 7 1
8 9 8 1
9 10 9 1
10 4 7 1
11 3 10 1
12 12 11 1
13 13 12 1
14 14 13 1
15 8 11 1
16 7 14 1
17 16 15 1
18 17 16 Partial double
19 18 17 1
20 13 15 1
21 12 18 1
22 20 19 Partial double
23 21 20 Partial double
24 22 21 Partial double
25 17 19 Partial double
26 16 22 Partial double
27 24 23 1
28 25 24 1
29 15 25 Double
30 22 23 1
31 27 26 1
32 28 27 Partial double
33 29 28 Partial double
34 21 26 1
35 20 29 Partial double
36 31 30 1
37 32 31 1
38 18 30 1
39 19 32 1
40 34 33 Double
41 35 34 1
42 36 35 1
43 31 33 1
44 30 36 Double
45 38 37 1
46 39 38 1
47 40 39 Double
48 34 37 1
49 33 40 1
50 42 41 1
51 43 42 1
52 44 43 1
53 40 41 1
54 39 44 1
55 46 45 Partial double
56 32 46 1
57 29 45 Partial double
58 48 47 Partial double
59 49 48 1
60 45 49 Partial double
61 28 47 Partial double
62 51 50 Partial double
63 52 51 Partial double
64 53 52 Partial double
65 48 50 Partial double
66 47 53 Partial double
67 55 54 Partial double
68 56 55 Partial double
69 57 56 Partial double
70 52 54 Partial double
71 51 57 Partial double
72 59 58 Partial double
73 60 59 Partial double
74 61 60 Partial double
75 56 58 Partial double
76 55 61 Partial double
77 63 62 Partial double
78 27 63 Partial double
79 53 62 Partial double
80 65 64 Partial double
81 62 65 Partial double
82 54 64 Partial double
83 67 66 Partial double
84 64 67 Partial double
85 61 66 Partial double
86 69 68 Partial double
87 70 69 Partial double
88 66 70 Partial double
89 60 68 Partial double
90 72 71 1
91 73 72 1
92 74 73 1
93 59 71 1
94 58 74 1
95 76 75 1
96 77 76 1
97 78 77 1
98 73 75 1
99 72 78 1
100 80 79 1
101 81 80 1
102 82 81 1
103 78 79 1
104 77 82 1
105 84 83 Partial double
106 85 84 Partial double
107 67 85 Partial double
108 65 83 Partial double
109 87 86 1
110 88 87 1
111 89 88 1
112 84 86 1
113 83 89 1
114 91 90 1
115 92 91 1
116 93 92 1
117 88 90 1
118 87 93 1
119 95 94 Partial double
120 85 95 Partial double
121 70 94 Partial double
122 97 96 Partial double
123 98 97 Partial double
124 94 98 Partial double
125 69 96 Partial double
126 100 99 Partial double
127 101 100 Partial double
128 68 101 Partial double
129 96 99 Partial double
130 103 102 1
131 104 103 Partial double
132 97 102 1
133 99 104 1
134 106 105 1
135 107 106 1
136 100 105 1
137 104 107 Partial double
138 109 108 1
139 110 109 1
140 111 110 1
141 106 108 1
142 105 111 1
143 113 112 1
144 114 113 1
145 103 114 Partial double
146 107 112 Partial double
147 108 115 1
148 112 116 Partial double
149 115 116 Partial double
150 42 117 1
151 117 118 1
152 117 119 1
153 74 120 1
154 122 121 1
155 123 122 Partial double
156 124 123 1
157 114 121 Partial double
158 113 124 Partial double
159 126 125 Partial double
160 127 126 1
161 128 127 Partial double
162 124 125 Partial double
163 123 128 Partial double
164 130 129 Partial double
165 131 130 1
166 132 131 1
167 127 129 Partial double
168 126 132 Partial double
169 134 133 Partial double
170 135 134 Partial double
171 125 135 Partial double
172 132 133 Partial double
173 137 136 Partial double
174 138 137 Partial double
175 131 138 Partial double
176 133 136 Partial double
177 140 139 Partial double
178 134 140 Partial double
179 116 135 Partial double
180 115 139 Partial double
181 142 141 Partial double
182 140 142 Partial double
183 136 141 Partial double
184 144 143 1
185 145 144 1
186 146 145 1
187 142 143 1
188 141 146 1
189 146 147 Double
190 1 148 1
191 1 149 1
192 2 150 1
193 2 151 1
194 3 152 1
195 4 153 1
196 5 154 1
197 5 155 1
198 7 156 1
199 8 157 1
200 9 158 1
201 9 159 1
202 10 160 1
203 10 161 1
204 12 162 1
205 13 163 1
206 14 164 1
207 14 165 1
208 18 166 1
209 23 167 1
210 23 168 1
211 24 169 1
212 24 170 1
213 25 171 1
214 35 173 1
215 35 174 1
216 36 175 1
217 37 176 1
218 37 177 1
219 38 178 1
220 38 179 1
221 41 180 1
222 41 181 1
223 42 182 1
224 43 183 1
225 43 184 1
226 44 185 1
227 44 186 1
228 46 187 1
229 50 188 1
230 57 189 1
231 63 190 1
232 72 191 1
233 73 192 1
234 74 193 1
235 75 194 1
236 75 195 1
237 76 196 1
238 76 197 1
239 77 198 1
240 78 199 1
241 79 200 1
242 79 201 1
243 80 202 1
244 80 203 1
245 81 204 1
246 81 205 1
247 82 206 1
248 87 207 1
249 88 208 1
250 90 209 1
251 90 210 1
252 91 211 1
253 91 212 1
254 92 213 1
255 92 214 1
256 93 215 1
257 93 216 1
258 95 217 1
259 98 218 1
260 101 219 1
261 105 220 1
262 106 221 1
263 108 222 1
264 109 223 1
265 109 224 1
266 110 225 1
267 110 226 1
268 111 227 1
269 111 228 1
270 117 229 1
271 118 230 1
272 118 231 1
273 118 232 1
274 119 233 1
275 119 234 1
276 119 235 1
277 120 236 1
278 121 237 1
279 122 238 1
280 128 239 1
281 129 240 1
282 130 241 1
283 137 242 1
284 138 243 1
285 139 244 1
286 143 245 1
287 143 246 1
288 144 247 1
289 144 248 1
290 145 249 1
291 145 250 1
292 31 172 1
@<TRIPOS>MOLECULE
Sketch 4
250 292
SMALL
USER_CHARGES


@<TRIPOS>ATOM
1 C49526 0.603317204897311 -0.0373888966757319 0.361917523869041 C 0.0 **** 0.0
2 C49527 0.58372975685207 -0.0363495893336875 0.362083282980312 C 0.0 **** 0.0
3 C49528 0.577022913196141 -0.0278436974615423 0.345766278385679 C 0.0 **** 0.0
4 C49529 0.588473932142988 -0.0127275746552671 0.340800996297013 C 0.0 **** 0.0
5 C49530 0.607209158178181 -0.0188279761698246 0.339533329194306 C 0.0 **** 0.0
6 O49531 0.609685579712444 -0.0357455756351208 0.345224250099533 O 0.0 **** 0.0
7 C49538 0.58698640147297 0.00229950002986284 0.353411264609263 C 0.0 **** 0.0
8 C49539 0.569159877629053 0.00351470559887355 0.361929369215458 C 0.0 **** 0.0
9 C49540 0.555517964977566 -0.00405754113512308 0.350515937159915 C 0.0 **** 0.0
10 C49541 0.55811557110046 -0.0229777774664459 0.346873980795047 C 0.0 **** 0.0
11 O49547 0.563672929359662 0.0202216402854262 0.365984689938426 O 0.0 **** 0.0
12 C49548 0.576988243471428 0.0311912991539668 0.371327578628284 C 0.0 **** 0.0
13 C49549 0.587809562456682 0.0354466900302585 0.355752016703986 C 0.0 **** 0.0
14 C49550 0.592523532945765 0.0192182294104657 0.345260576916903 C 0.0 **** 0.0
15 C49556 0.602136593950841 0.0474677900073856 0.360287719856624 C 0.0 **** 0.0
16 C49557 0.608790529600427 0.0475809883995753 0.378235568675231 C 0.0 **** 0.0
17 C49558 0.601642593476236 0.037079911726022 0.39037849017548 C 0.0 **** 0.0
18 C49559 0.58754485131067 0.0246970881921766 0.386217087552382 C 0.0 **** 0.0
19 C49565 0.608120914313386 0.0372985134734379 0.406643148749098 C 0.0 **** 0.0
20 C49566 0.620285347415409 0.0490675642321023 0.410978228563934 C 0.0 **** 0.0
21 C49567 0.627887818376799 0.0592095900918222 0.398858603639314 C 0.0 **** 0.0
22 C49568 0.622357203070426 0.0581204338538696 0.382195782322738 C 0.0 **** 0.0
23 C49574 0.631498366428159 0.0680448614452525 0.368559117152562 C 0.0 **** 0.0
24 C49575 0.619594363159368 0.0731440590830927 0.353871488637204 C 0.0 **** 0.0
25 C49576 0.607223995544169 0.0593999732667488 0.349210425227642 C 0.0 **** 0.0
26 O49581 0.64095898756304 0.0702637640031879 0.403012629188783 O 0.0 **** 0.0
27 C49582 0.646890237920341 0.0709738231314793 0.41949173750598 C 0.0 **** 0.0
28 C49583 0.639063093848987 0.0626112290637159 0.432769414080828 C 0.0 **** 0.0
29 C49584 0.62444689031976 0.0511134519463324 0.429243440365062 C 0.0 **** 0.0
30 C49590 0.577597097153254 0.0204966958868619 0.401967876312225 C 0.0 **** 0.0
31 C49591 0.588977622122328 0.0118316628055846 0.414717030379076 C 0.0 **** 0.0
32 C49592 0.602564208938286 0.0248841214640698 0.420054079276376 C 0.0 **** 0.0
33 C49597 0.579807220061245 0.00265909919376638 0.429450217391394 C 0.0 **** 0.0
34 C49598 0.56305211368463 0.00611130464923099 0.431901693725009 C 0.0 **** 0.0
35 C49599 0.552559598268509 0.0178273593032806 0.420851265366482 C 0.0 **** 0.0
36 C49600 0.561168361176164 0.0234382577808559 0.404795580467658 C 0.0 **** 0.0
37 C49606 0.552169726719161 -0.00288241687937314 0.444590759515437 C 0.0 **** 0.0
38 C49607 0.562167883959173 -0.0131178053254788 0.457718482184647 C 0.0 **** 0.0
39 C49608 0.579974797263387 -0.0169692018206516 0.452344714596665 C 0.0 **** 0.0
40 C49609 0.58796089601217 -0.00916000190254044 0.43915624612147 C 0.0 **** 0.0
41 C49615 0.606448147854033 -0.0143704610311706 0.435774554754854 C 0.0 **** 0.0
42 C49616 0.610146033915778 -0.0324100150750784 0.441526258961525 C 0.0 **** 0.0
43 C49617 0.606363026993333 -0.033545234340263 0.460574162597038 C 0.0 **** 0.0
44 C49618 0.587658819712402 -0.0301048275287882 0.463903889463829 C 0.0 **** 0.0
45 C49624 0.615189271771476 0.0434738531297389 0.4416115921759 C 0.0 **** 0.0
46 C49625 0.60323827680503 0.0315860319066718 0.43798739871885 C 0.0 **** 0.0
47 C49629 0.646215879320978 0.0635168558986038 0.449145854938615 C 0.0 **** 0.0
48 C49630 0.639283850381104 0.0547114523955212 0.462969799924717 C 0.0 **** 0.0
49 S49631 0.618046635265825 0.049680747121859 0.462526962471779 S 0.0 **** 0.0
50 C49636 0.649053812863722 0.0494190496884809 0.476313374820645 C 0.0 **** 0.0
51 C49637 0.666227514550915 0.0544512905946766 0.476866080825661 C 0.0 **** 0.0
52 C49638 0.671965880804544 0.0667964324308081 0.465162630071038 C 0.0 **** 0.0
53 C49639 0.662070320303495 0.0711176272474508 0.45122482642144 C 0.0 **** 0.0
54 C49645 0.687041143688399 0.0754000880936777 0.468276232740659 C 0.0 **** 0.0
55 C49646 0.696229135333473 0.0717327729421414 0.482875818783116 C 0.0 **** 0.0
56 C49647 0.692666761946765 0.057246268688051 0.492631095612151 C 0.0 **** 0.0
57 C49648 0.677317453500162 0.0487066232720975 0.489466022765117 C 0.0 **** 0.0
58 C49654 0.702700743939752 0.0532048907791313 0.506730353926577 C 0.0 **** 0.0
59 C49655 0.711814393173713 0.0660556525518405 0.514316593694378 C 0.0 **** 0.0
60 C49656 0.712981483152667 0.0819756403100981 0.506130544177408 C 0.0 **** 0.0
61 C49657 0.707315281448954 0.0836500314101361 0.48944410373882 C 0.0 **** 0.0
62 C49663 0.66862561045777 0.0818736620849196 0.438746642581014 C 0.0 **** 0.0
63 C49664 0.661070249294401 0.0806580616174607 0.422570090750521 C 0.0 **** 0.0
64 C49668 0.691438145474874 0.0891936863624841 0.458227773251765 C 0.0 **** 0.0
65 C49669 0.682597831905582 0.092476515351564 0.443154521964348 C 0.0 **** 0.0
66 C49673 0.710775324547738 0.098254869230574 0.480217791139991 C 0.0 **** 0.0
67 C49674 0.703503938974919 0.100457951401887 0.464223845287058 C 0.0 **** 0.0
68 C49678 0.718847253209553 0.0966548234508044 0.514643864209944 C 0.0 **** 0.0
69 C49679 0.723084550958013 0.111031106536009 0.505121805863039 C 0.0 **** 0.0
70 C49680 0.719753067729352 0.111384376520183 0.487878833097549 C 0.0 **** 0.0
71 O49685 0.719755865971162 0.0638668813865078 0.529833755929973 O 0.0 **** 0.0
72 C49686 0.717528280787771 0.0486401229138388 0.539284572428398 C 0.0 **** 0.0
73 C49687 0.715663742009171 0.0332766849129151 0.527609084161014 C 0.0 **** 0.0
74 C49688 0.701755369841448 0.0357595205622799 0.514537871243544 C 0.0 **** 0.0
75 C49694 0.71287807044146 0.016679728585146 0.537634220036032 C 0.0 **** 0.0
76 C49695 0.716095399391019 0.0189598457823934 0.556556994464057 C 0.0 **** 0.0
77 C49696 0.704721912510181 0.0328023345735043 0.564213418476476 C 0.0 **** 0.0
78 C49697 0.702921329298002 0.0487159088110383 0.552427421080271 C 0.0 **** 0.0
79 C49703 0.70044695413473 0.0651637701209289 0.562645216550732 C 0.0 **** 0.0
80 C49704 0.690162185256139 0.0610799989776545 0.578549004631508 C 0.0 **** 0.0
81 C49705 0.69961264099697 0.0486455392735455 0.590369473530228 C 0.0 **** 0.0
82 N49706 0.710457022925909 0.0365833875246681 0.581245822684667 N 0.0 **** 0.0
83 C49712 0.686799630884026 0.106876627651279 0.433393561612339 C 0.0 **** 0.0
84 C49713 0.698698337716235 0.118319597753828 0.439344863105154 C 0.0 **** 0.0
85 C49714 0.706898117511972 0.115189589731425 0.454929192919874 C 0.0 **** 0.0
86 O49719 0.70282602876998 0.133030938854607 0.43060681984571 O 0.0 **** 0.0
87 C49720 0.690822811501716 0.137406815865893 0.417816346814953 C 0.0 **** 0.0
88 C49721 0.686612136260518 0.122005507905513 0.407722916126686 C 0.0 **** 0.0
89 O49722 0.678511321670327 0.109802852793767 0.418219375409263 O 0.0 **** 0.0
90 C49728 0.70238221134199 0.114613698916366 0.398744101071036 C 0.0 **** 0.0
91 C49729 0.715474876034521 0.128253271859963 0.393772630722769 C 0.0 **** 0.0
92 C49730 0.706810950349908 0.145272698730241 0.390499076490145 C 0.0 **** 0.0
93 C49731 0.697792384159522 0.151771869949917 0.406613781835165 C 0.0 **** 0.0
94 C49737 0.723181190128586 0.126351066480063 0.478709287437248 C 0.0 **** 0.0
95 C49738 0.717420938175658 0.127656326585634 0.461915978723187 C 0.0 **** 0.0
96 C49742 0.728266247783678 0.125727169525765 0.513603573548159 C 0.0 **** 0.0
97 C49743 0.732162560526749 0.14053728927637 0.504417163833033 C 0.0 **** 0.0
98 C49744 0.730191616436718 0.14044126394578 0.487160729825074 C 0.0 **** 0.0
99 C49749 0.728709770239958 0.126421225384066 0.531400825366467 C 0.0 **** 0.0
100 C49750 0.723849862941296 0.112595622556061 0.540873164052061 C 0.0 **** 0.0
101 C49751 0.718684463671282 0.0983440209868366 0.532386889803523 C 0.0 **** 0.0
102 O49756 0.737560632829356 0.155193185309774 0.512221588533598 O 0.0 **** 0.0
103 C49757 0.738335476008704 0.15595581463488 0.5296688360344 C 0.0 **** 0.0
104 C49758 0.734191213934763 0.142489033612862 0.539659145770372 C 0.0 **** 0.0
105 C49763 0.723709544362732 0.112129389547656 0.56004794826003 C 0.0 **** 0.0
106 C49764 0.729062857814391 0.129557454521037 0.568682707874465 C 0.0 **** 0.0
107 C49765 0.735081459232324 0.143635399847434 0.556911662489578 C 0.0 **** 0.0
108 C49770 0.741858668028634 0.126915996212704 0.583264051052679 C 0.0 **** 0.0
109 C49771 0.736240186705896 0.112472410052972 0.595057404358607 C 0.0 **** 0.0
110 C49772 0.733924228261804 0.095598236151828 0.585401224486656 C 0.0 **** 0.0
111 C49773 0.735344261689463 0.0979708381574319 0.566225384693175 C 0.0 **** 0.0
112 C49779 0.741398825703565 0.157995709374274 0.564147143772781 C 0.0 **** 0.0
113 C49780 0.745386836087176 0.171594652662891 0.554177994220872 C 0.0 **** 0.0
114 C49781 0.743568008813664 0.17066492748906 0.537054114909009 C 0.0 **** 0.0
115 C49786 0.744303283939268 0.143715930337868 0.592497382598158 C 0.0 **** 0.0
116 C49788 0.744067920695891 0.158518245369365 0.583082883386214 C 0.0 **** 0.0
117 C49791 0.627996210124893 -0.0384835778544024 0.43629366749587 C 0.0 **** 0.0
118 C49793 0.642560548138089 -0.0287098470038081 0.444549020663132 C 0.0 **** 0.0
119 C49795 0.63040707846915 -0.0574798906112504 0.439348350231735 C 0.0 **** 0.0
120 O49797 0.704760567440646 0.0233925834483364 0.501746832521844 O 0.0 **** 0.0
121 C49799 0.747268602147372 0.184405555060083 0.527253835663914 C 0.0 **** 0.0
122 C49800 0.753497410074043 0.198769944888968 0.534351411989343 C 0.0 **** 0.0
123 C49801 0.75610859479127 0.199531657080305 0.551354674787745 C 0.0 **** 0.0
124 C49802 0.751466308495859 0.186122638360807 0.561282600421293 C 0.0 **** 0.0
125 C49808 0.753496661094999 0.18733632586028 0.579895472313816 C 0.0 **** 0.0
126 C49809 0.761410056383161 0.201269325206782 0.58631639789526 C 0.0 **** 0.0
127 C49810 0.767200029255137 0.214797266877082 0.574763952392436 C 0.0 **** 0.0
128 C49811 0.763779770401341 0.21373191127909 0.557845678058967 C 0.0 **** 0.0
129 C49817 0.776129749641208 0.228144497900448 0.581126057150772 C 0.0 **** 0.0
130 C49818 0.779462906064446 0.22948573153121 0.598072230170003 C 0.0 **** 0.0
131 C49819 0.774118548536909 0.217452452666009 0.609290122367864 C 0.0 **** 0.0
132 C49820 0.7645049853549 0.202552115481593 0.603269968420129 C 0.0 **** 0.0
133 C49826 0.759981853394451 0.189504046795884 0.614455923540963 C 0.0 **** 0.0
134 C49827 0.752261452416503 0.174995382954207 0.607898488369106 C 0.0 **** 0.0
135 C49828 0.748886767383054 0.173874047068727 0.590494092511642 C 0.0 **** 0.0
136 C49833 0.765597254121798 0.18988705693641 0.631256127413945 C 0.0 **** 0.0
137 C49834 0.773544980167695 0.206421968629784 0.636943345831071 C 0.0 **** 0.0
138 C49835 0.777742375234712 0.219072395448475 0.626019067952715 C 0.0 **** 0.0
139 C49840 0.747911914827253 0.144860277746202 0.609514316535975 C 0.0 **** 0.0
140 C49841 0.751658433797446 0.16031510526376 0.617881261233976 C 0.0 **** 0.0
141 C49846 0.764715730822048 0.175369760766098 0.641209102741483 C 0.0 **** 0.0
142 C49847 0.757249935135887 0.160739743907115 0.634857359099311 C 0.0 **** 0.0
143 C49851 0.756442744520011 0.144592076316794 0.645468366048815 C 0.0 **** 0.0
144 C49852 0.754016510159676 0.148485375025996 0.664257235189006 C 0.0 **** 0.0
145 C49853 0.767801004434858 0.16034972657862 0.670035134827663 C 0.0 **** 0.0
146 C49854 0.772231197639116 0.174930442900502 0.658677556593151 C 0.0 **** 0.0
147 O49860 0.782399589932668 0.18505098144961 0.664125382588275 O 0.0 **** 0.0
148 H49862 0.607686904410737 -0.0496987730602632 0.366652038352736 H 0.0 **** 0.0
149 H49864 0.608901172461049 -0.0277253324853781 0.370298284376257 H 0.0 **** 0.0
150 H49866 0.578033772643122 -0.0490376508912078 0.363148646704097 H 0.0 **** 0.0
151 H49868 0.579408797575291 -0.0294238878609841 0.373360781770736 H 0.0 **** 0.0
152 H49870 0.578410685581239 -0.0374103838569034 0.335656698816804 H 0.0 **** 0.0
153 H49872 0.584050050334266 -0.00815397976721 0.328376161254405 H 0.0 **** 0.0
154 H49874 0.615645815176426 -0.0102106206449569 0.34652097278613 H 0.0 **** 0.0
155 H49876 0.611657017538924 -0.0187394869685058 0.326430298373166 H 0.0 **** 0.0
156 H49878 0.596298306939905 -0.000554543786457079 0.363353322969397 H 0.0 **** 0.0
157 H49880 0.569436002915954 -0.00387441574536991 0.37377028865232 H 0.0 **** 0.0
158 H49882 0.555606965107334 0.00311399017563469 0.338552054722122 H 0.0 **** 0.0
159 H49884 0.543041966437715 -0.00179703014601701 0.356289440156292 H 0.0 **** 0.0
160 H49886 0.551646032382429 -0.0262221149684953 0.334972328455234 H 0.0 **** 0.0
161 H49888 0.551904404658057 -0.0305928616961485 0.35675664961075 H 0.0 **** 0.0
162 H49890 0.570457555934884 0.042837108625252 0.375307068656379 H 0.0 **** 0.0
163 H49892 0.579321335377041 0.0427795947942397 0.347450338584399 H 0.0 **** 0.0
164 H49894 0.605986276710216 0.0185934009043308 0.342004830998647 H 0.0 **** 0.0
165 H49896 0.585880489797719 0.0203624129638053 0.333038765212764 H 0.0 **** 0.0
166 H49898 0.593782339805512 0.0128069569103939 0.382645384616329 H 0.0 **** 0.0
167 H49900 0.637361574688706 0.0795103691909687 0.373832130113934 H 0.0 **** 0.0
168 H49902 0.64194786432403 0.0602860727750118 0.363515144696738 H 0.0 **** 0.0
169 H49904 0.627187683196659 0.0766499195023963 0.34269331952411 H 0.0 **** 0.0
170 H49906 0.61239719783011 0.084523425475582 0.357485256013512 H 0.0 **** 0.0
171 H49908 0.601746546456461 0.0604553836105586 0.336600533045455 H 0.0 **** 0.0
172 H49910 0.595451399389946 0.00184678053108294 0.407423136712851 H 0.0 **** 0.0
173 H49911 0.54872011332062 0.0290570427554344 0.428141881960791 H 0.0 **** 0.0
174 H49913 0.540789998368921 0.0111259674821979 0.417327971237362 H 0.0 **** 0.0
175 H49915 0.55334191797451 0.0297456528898105 0.395362748723769 H 0.0 **** 0.0
176 H49917 0.543947081336252 0.0062840778128125 0.451138245103502 H 0.0 **** 0.0
177 H49919 0.543653383223609 -0.0114692953771628 0.437620420041643 H 0.0 **** 0.0
178 H49921 0.555383541876474 -0.025032852632969 0.460343195289231 H 0.0 **** 0.0
179 H49923 0.562650345470133 -0.00610917999622179 0.46976908174169 H 0.0 **** 0.0
180 H49925 0.609504984985289 -0.0132655524151329 0.422260657053059 H 0.0 **** 0.0
181 H49927 0.614860765198038 -0.00547006392090511 0.442399773058393 H 0.0 **** 0.0
182 H49929 0.601135516257633 -0.0408809553755697 0.434965750229265 H 0.0 **** 0.0
183 H49931 0.614130301671175 -0.0241919656573929 0.467357097034866 H 0.0 **** 0.0
184 H49933 0.609694367900528 -0.0459991190714963 0.465851463376972 H 0.0 **** 0.0
185 H49935 0.585708669423963 -0.0262490541414534 0.477186148969148 H 0.0 **** 0.0
186 H49937 0.580496125717739 -0.041961031467626 0.462136786175997 H 0.0 **** 0.0
187 H49939 0.594869397997143 0.0262165012305347 0.447471557724828 H 0.0 **** 0.0
188 H49941 0.643841889075585 0.0415773748845193 0.486484767873297 H 0.0 **** 0.0
189 H49943 0.672837954654257 0.0388984059129881 0.498210517876177 H 0.0 **** 0.0
190 H49945 0.666339449619182 0.0869972666020131 0.411440091404384 H 0.0 **** 0.0
191 H49947 0.729398240766284 0.0472474099699671 0.54648491998061 H 0.0 **** 0.0
192 H49949 0.72748350140688 0.0322321895407198 0.520378367507237 H 0.0 **** 0.0
193 H49951 0.689208204477898 0.0337781002601388 0.520391108754704 H 0.0 **** 0.0
194 H49953 0.699686701281858 0.0125238973726895 0.536093878115894 H 0.0 **** 0.0
195 H49955 0.720813865736265 0.00647401577949388 0.532473797384245 H 0.0 **** 0.0
196 H49957 0.729443053462173 0.022380589457432 0.558490985113739 H 0.0 **** 0.0
197 H49959 0.714153850614772 0.00699945429084679 0.563460575325489 H 0.0 **** 0.0
198 H49961 0.692007030228156 0.0272000683908586 0.565599571114437 H 0.0 **** 0.0
199 H49963 0.691107609054044 0.0469524476722423 0.545210083467421 H 0.0 **** 0.0
200 H49965 0.712759598099855 0.0703129396432459 0.566529089061901 H 0.0 **** 0.0
201 H49967 0.694146576376512 0.0748557833320055 0.554890595658984 H 0.0 **** 0.0
202 H49969 0.678103444060595 0.0553587846610391 0.574462005082672 H 0.0 **** 0.0
203 H49971 0.686731969665266 0.0725267818545016 0.585692647406643 H 0.0 **** 0.0
204 H49973 0.690466328835009 0.0414365766655327 0.598026686998545 H 0.0 **** 0.0
205 H49975 0.70748802485294 0.0557139351731522 0.599433662688441 H 0.0 **** 0.0
206 H49977 0.722481037436834 0.0405387437349634 0.580943240543974 H 0.0 **** 0.0
207 H49979 0.679238852888017 0.141633350764524 0.424281773868039 H 0.0 **** 0.0
208 H49981 0.677361291571543 0.1257311812407 0.397971841512065 H 0.0 **** 0.0
209 H49983 0.708388626410065 0.105313732556212 0.40716941903882 H 0.0 **** 0.0
210 H49985 0.698319506112446 0.107497864984016 0.387498479521569 H 0.0 **** 0.0
211 H49987 0.722866474475263 0.124124038318496 0.382707795116992 H 0.0 **** 0.0
212 H49989 0.724635062316827 0.129906456227441 0.404168263478777 H 0.0 **** 0.0
213 H49991 0.697491150065481 0.143589430465915 0.380260119022651 H 0.0 **** 0.0
214 H49993 0.715914315544635 0.154791553847937 0.385941018620106 H 0.0 **** 0.0
215 H49995 0.68782489937606 0.160795861855157 0.402989556678944 H 0.0 **** 0.0
216 H49997 0.706854977440673 0.158955357605756 0.414302194422989 H 0.0 **** 0.0
217 H49999 0.719744219259772 0.139428704689238 0.454932053439604 H 0.0 **** 0.0
218 H50001 0.732904699561514 0.151885695140615 0.479784003698294 H 0.0 **** 0.0
219 H50003 0.71389372973847 0.0880612733407073 0.540276125743638 H 0.0 **** 0.0
220 H50005 0.710718215614471 0.109287622571874 0.564305446860837 H 0.0 **** 0.0
221 H50007 0.717395597042371 0.134340082268603 0.574632667336159 H 0.0 **** 0.0
222 H50009 0.754249908833748 0.123368167689007 0.57782796845884 H 0.0 **** 0.0
223 H50011 0.724291815894322 0.116063608298345 0.601247819859594 H 0.0 **** 0.0
224 H50013 0.745593931901067 0.11050492479235 0.605150429995506 H 0.0 **** 0.0
225 H50015 0.721563066512514 0.0899668611467251 0.588472130692419 H 0.0 **** 0.0
226 H50017 0.74349050342946 0.0863962808283608 0.589562415383919 H 0.0 **** 0.0
227 H50019 0.733165817543394 0.0858538360325572 0.559747507349355 H 0.0 **** 0.0
228 H50021 0.748324082008144 0.101675663042391 0.563073440941557 H 0.0 **** 0.0
229 H50023 0.628979872762277 -0.0365138447940126 0.42248921754628 H 0.0 **** 0.0
230 H50025 0.654800372157544 -0.0333362105249945 0.439782788980221 H 0.0 **** 0.0
231 H50027 0.642517386978743 -0.030387778530694 0.458361700940492 H 0.0 **** 0.0
232 H50029 0.641950622570736 -0.0150716113113012 0.441878590671341 H 0.0 **** 0.0
233 H50031 0.620328043412588 -0.0649594049343544 0.43332807963938 H 0.0 **** 0.0
234 H50033 0.630372626096712 -0.060450268422892 0.452939998403336 H 0.0 **** 0.0
235 H50035 0.642552544218574 -0.0618392757032148 0.434114847168086 H 0.0 **** 0.0
236 H50037 0.696995758314965 0.025710530740159 0.492848968835792 H 0.0 **** 0.0
237 H50039 0.745841120981097 0.184017885753933 0.513538074322583 H 0.0 **** 0.0
238 H50041 0.756717640433578 0.209333462405272 0.526087516915365 H 0.0 **** 0.0
239 H50043 0.767678551928528 0.223961172184592 0.549427501355304 H 0.0 **** 0.0
240 H50045 0.780836347434853 0.238055538067816 0.572781128353597 H 0.0 **** 0.0
241 H50047 0.786594135684493 0.240468256203382 0.602444916571928 H 0.0 **** 0.0
242 H50049 0.776116376329739 0.208470970711838 0.650282049576832 H 0.0 **** 0.0
243 H50051 0.784043415883668 0.230300106490063 0.63088582738965 H 0.0 **** 0.0
244 H50053 0.748647799561064 0.13303394451781 0.616653296290269 H 0.0 **** 0.0
245 H50055 0.74588160569162 0.136468849838859 0.641491023475159 H 0.0 **** 0.0
246 H50057 0.76816083908516 0.13720468406616 0.643663470022096 H 0.0 **** 0.0
247 H50059 0.754317166568669 0.136825935090417 0.671858723742222 H 0.0 **** 0.0
248 H50061 0.741453184107294 0.154158500719372 0.666171165990498 H 0.0 **** 0.0
249 H50063 0.780053541881147 0.153848432609831 0.671254032093478 H 0.0 **** 0.0
250 H50065 0.765541742468783 0.166658638721159 0.682214142482853 H 0.0 **** 0.0
@<TRIPOS>BOND
1 3 2 1
2 4 3 1
3 5 4 1
4 6 5 1
5 1 2 1
6 1 6 1
7 8 7 1
8 9 8 1
9 10 9 1
10 4 7 1
11 3 10 1
12 12 11 1
13 13 12 1
14 14 13 1
15 8 11 1
16 7 14 1
17 16 15 1
18 17 16 Partial double
19 18 17 1
20 13 15 1
21 12 18 1
22 20 19 Partial double
23 21 20 Partial double
24 22 21 Partial double
25 17 19 Partial double
26 16 22 Partial double
27 24 23 1
28 25 24 1
29 15 25 Double
30 22 23 1
31 27 26 1
32 28 27 Partial double
33 29 28 Partial double
34 21 26 1
35 20 29 Partial double
36 31 30 1
37 32 31 1
38 18 30 1
39 19 32 1
40 34 33 Double
41 35 34 1
42 36 35 1
43 31 33 1
44 30 36 Double
45 38 37 1
46 39 38 1
47 40 39 Double
48 34 37 1
49 33 40 1
50 42 41 1
51 43 42 1
52 44 43 1
53 40 41 1
54 39 44 1
55 46 45 Partial double
56 32 46 1
57 29 45 Partial double
58 48 47 Partial double
59 49 48 1
60 45 49 Partial double
61 28 47 Partial double
62 51 50 Partial double
63 52 51 Partial double
64 53 52 Partial double
65 48 50 Partial double
66 47 53 Partial double
67 55 54 Partial double
68 56 55 Partial double
69 57 56 Partial double
70 52 54 Partial double
71 51 57 Partial double
72 59 58 Partial double
73 60 59 Partial double
74 61 60 Partial double
75 56 58 Partial double
76 55 61 Partial double
77 63 62 Partial double
78 27 63 Partial double
79 53 62 Partial double
80 65 64 Partial double
81 62 65 Partial double
82 54 64 Partial double
83 67 66 Partial double
84 64 67 Partial double
85 61 66 Partial double
86 69 68 Partial double
87 70 69 Partial double
88 66 70 Partial double
89 60 68 Partial double
90 72 71 1
91 73 72 1
92 74 73 1
93 59 71 1
94 58 74 1
95 76 75 1
96 77 76 1
97 78 77 1
98 73 75 1
99 72 78 1
100 80 79 1
101 81 80 1
102 82 81 1
103 78 79 1
104 77 82 1
105 84 83 Partial double
106 85 84 Partial double
107 67 85 Partial double
108 65 83 Partial double
109 87 86 1
110 88 87 1
111 89 88 1
112 84 86 1
113 83 89 1
114 91 90 1
115 92 91 1
116 93 92 1
117 88 90 1
118 87 93 1
119 95 94 Partial double
120 85 95 Partial double
121 70 94 Partial double
122 97 96 Partial double
123 98 97 Partial double
124 94 98 Partial double
125 69 96 Partial double
126 100 99 Partial double
127 101 100 Partial double
128 68 101 Partial double
129 96 99 Partial double
130 103 102 1
131 104 103 Partial double
132 97 102 1
133 99 104 1
134 106 105 1
135 107 106 1
136 100 105 1
137 104 107 Partial double
138 109 108 1
139 110 109 1
140 111 110 1
141 106 108 1
142 105 111 1
143 113 112 1
144 114 113 1
145 103 114 Partial double
146 107 112 Partial double
147 108 115 1
148 112 116 Partial double
149 115 116 Partial double
150 42 117 1
151 117 118 1
152 117 119 1
153 74 120 1
154 122 121 1
155 123 122 Partial double
156 124 123 1
157 114 121 Partial double
158 113 124 Partial double
159 126 125 Partial double
160 127 126 1
161 128 127 Partial double
162 124 125 Partial double
163 123 128 Partial double
164 130 129 Partial double
165 131 130 1
166 132 131 1
167 127 129 Partial double
168 126 132 Partial double
169 134 133 Partial double
170 135 134 Partial double
171 125 135 Partial double
172 132 133 Partial double
173 137 136 Partial double
174 138 137 Partial double
175 131 138 Partial double
176 133 136 Partial double
177 140 139 Partial double
178 134 140 Partial double
179 116 135 Partial double
180 115 139 Partial double
181 142 141 Partial double
182 140 142 Partial double
183 136 141 Partial double
184 144 143 1
185 145 144 1
186 146 145 1
187 142 143 1
188 141 146 1
189 146 147 Double
190 1 148 1
191 1 149 1
192 2 150 1
193 2 151 1
194 3 152 1
195 4 153 1
196 5 154 1
197 5 155 1
198 7 156 1
199 8 157 1
200 9 158 1
201 9 159 1
202 10 160 1
203 10 161 1
204 12 162 1
205 13 163 1
206 14 164 1
207 14 165 1
208 18 166 1
209 23 167 1
210 23 168 1
211 24 169 1
212 24 170 1
213 25 171 1
214 35 173 1
215 35 174 1
216 36 175 1
217 37 176 1
218 37 177 1
219 38 178 1
220 38 179 1
221 41 180 1
222 41 181 1
223 42 182 1
224 43 183 1
225 43 184 1
226 44 185 1
227 44 186 1
228 46 187 1
229 50 188 1
230 57 189 1
231 63 190 1
232 72 191 1
233 73 192 1
234 74 193 1
235 75 194 1
236 75 195 1
237 76 196 1
238 76 197 1
239 77 198 1
240 78 199 1
241 79 200 1
242 79 201 1
243 80 202 1
244 80 203 1
245 81 204 1
246 81 205 1
247 82 206 1
248 87 207 1
249 88 208 1
250 90 209 1
251 90 210 1
252 91 211 1
253 91 212 1
254 92 213 1
255 92 214 1
256 93 215 1
257 93 216 1
258 95 217 1
259 98 218 1
260 101 219 1
261 105 220 1
262 106 221 1
263 108 222 1
264 109 223 1
265 109 224 1
266 110 225 1
267 110 226 1
268 111 227 1
269 111 228 1
270 117 229 1
271 118 230 1
272 118 231 1
273 118 232 1
274 119 233 1
275 119 234 1
276 119 235 1
277 120 236 1
278 121 237 1
279 122 238 1
280 128 239 1
281 129 240 1
282 130 241 1
283 137 242 1
284 138 243 1
285 139 244 1
286 143 245 1
287 143 246 1
288 144 247 1
289 144 248 1
290 145 249 1
291 145 250 1
292 31 172 1
@<TRIPOS>MOLECULE
Sketch 4
250 292
SMALL
USER_CHARGES


@<TRIPOS>ATOM
1 C50068 0.323026441709315 0.356332310765015 0.602978688020175 C 0.0 **** 0.0
2 C50069 0.314404800060957 0.358393653950913 0.585652493989398 C 0.0 **** 0.0
3 C50070 0.316599437807521 0.376278349263476 0.578066472018548 C 0.0 **** 0.0
4 C50071 0.33445378143794 0.383918400757841 0.582330986130331 C 0.0 **** 0.0
5 C50072 0.345819497949721 0.369467287834195 0.58848906146303 C 0.0 **** 0.0
6 O50073 0.339841965090439 0.362924495429377 0.604173069062742 O 0.0 **** 0.0
7 C50080 0.333133295420398 0.398476227051134 0.595403796999306 C 0.0 **** 0.0
8 C50081 0.321317670312067 0.412803999210953 0.589048165777642 C 0.0 **** 0.0
9 C50082 0.306445648621446 0.406224776783087 0.578514934366177 C 0.0 **** 0.0
10 C50083 0.301884487321743 0.388042671712163 0.582985910974601 C 0.0 **** 0.0
11 O50089 0.329823472786227 0.424699074636062 0.578482080088116 O 0.0 **** 0.0
12 C50090 0.343524721663868 0.433127418871723 0.586776564343485 C 0.0 **** 0.0
13 C50091 0.357348766980715 0.420057228994562 0.590700886285312 C 0.0 **** 0.0
14 C50092 0.350221604763225 0.405794789627677 0.601714978524864 C 0.0 **** 0.0
15 C50098 0.372499396688612 0.428394692526484 0.599031445151345 C 0.0 **** 0.0
16 C50099 0.369187302668667 0.442753307944917 0.611216696014463 C 0.0 **** 0.0
17 C50100 0.353244459587493 0.450074902965567 0.612155425749831 C 0.0 **** 0.0
18 C50101 0.338119828222504 0.442497306674984 0.602852656984725 C 0.0 **** 0.0
19 C50107 0.350747905309046 0.463835544696681 0.622749739122641 C 0.0 **** 0.0
20 C50108 0.36385914651077 0.469263692528297 0.633022986963644 C 0.0 **** 0.0
21 C50109 0.379630886466792 0.461575386010973 0.632598764646373 C 0.0 **** 0.0
22 C50110 0.382433948907233 0.448424386926238 0.62129614848036 C 0.0 **** 0.0
23 C50116 0.399532029353507 0.439749784264037 0.620753953918613 C 0.0 **** 0.0
24 C50117 0.403521657597624 0.432982265572129 0.602806781472924 C 0.0 **** 0.0
25 C50118 0.388506588791847 0.424029388800807 0.595087494696774 C 0.0 **** 0.0
26 O50123 0.392634214741544 0.466689169992206 0.643324161570039 O 0.0 **** 0.0
27 C50124 0.39094840126561 0.481577915391134 0.652372206751611 C 0.0 **** 0.0
28 C50125 0.375664316659104 0.489874091533796 0.654212348393757 C 0.0 **** 0.0
29 C50126 0.360425572608854 0.483041423431126 0.645391411834637 C 0.0 **** 0.0
30 C50132 0.324295715766428 0.455466008301402 0.600828619342717 C 0.0 **** 0.0
31 C50133 0.318854584281972 0.461970995555007 0.617990484119768 C 0.0 **** 0.0
32 C50134 0.333983721099226 0.473180681412944 0.623072086764145 C 0.0 **** 0.0
33 C50139 0.301868108338269 0.471778298531589 0.618064702297501 C 0.0 **** 0.0
34 C50140 0.296836296270297 0.478973008787643 0.603180985950035 C 0.0 **** 0.0
35 C50141 0.30546761516606 0.47610476524559 0.586257680857733 C 0.0 **** 0.0
36 C50142 0.318373792168521 0.462016386656482 0.586356703889134 C 0.0 **** 0.0
37 C50148 0.281030512638654 0.489248535585484 0.601238108608268 C 0.0 **** 0.0
38 C50149 0.273088116807244 0.494600888941252 0.618120686453937 C 0.0 **** 0.0
39 C50150 0.278263057283997 0.483506601361756 0.632658831685338 C 0.0 **** 0.0
40 C50151 0.292001527638811 0.473035830726684 0.632281605801823 C 0.0 **** 0.0
41 C50157 0.296047296128433 0.462972844051006 0.648533314331301 C 0.0 **** 0.0
42 C50158 0.281116282282412 0.461211150252951 0.660600447675722 C 0.0 **** 0.0
43 C50159 0.273783315650913 0.478862168852623 0.664116407673095 C 0.0 **** 0.0
44 C50160 0.267101710505919 0.486697746220124 0.64782499745147 C 0.0 **** 0.0
45 C50166 0.344616761732523 0.489093238729808 0.648085242139961 C 0.0 **** 0.0
46 C50167 0.33133172752922 0.484505370795749 0.638293849991543 C 0.0 **** 0.0
47 C50171 0.374949455359881 0.505125953791326 0.663458373777353 C 0.0 **** 0.0
48 C50172 0.359476126115464 0.513437706327042 0.666759668359505 C 0.0 **** 0.0
49 S50173 0.34061009158554 0.502740955041245 0.664706927332171 S 0.0 **** 0.0
50 C50178 0.358780445309 0.52981438481818 0.672116883416396 C 0.0 **** 0.0
51 C50179 0.374007475548133 0.538211563175047 0.676013428623872 C 0.0 **** 0.0
52 C50180 0.389601020395887 0.529412106719409 0.675028410196813 C 0.0 **** 0.0
53 C50181 0.390066687633212 0.513047156542554 0.668536633474179 C 0.0 **** 0.0
54 C50187 0.404116525113949 0.537036136232275 0.681500134957266 C 0.0 **** 0.0
55 C50188 0.403386748769161 0.553340458506723 0.688429832129412 C 0.0 **** 0.0
56 C50189 0.388451065183797 0.56311131911551 0.687189210460621 C 0.0 **** 0.0
57 C50190 0.37365690081857 0.554876827842202 0.681927609046461 C 0.0 **** 0.0
58 C50196 0.388541737109318 0.580030704860505 0.692269696880885 C 0.0 **** 0.0
59 C50197 0.401423880643016 0.585649125337593 0.70264869843898 C 0.0 **** 0.0
60 C50198 0.41625248281675 0.57586662540228 0.704822734834656 C 0.0 **** 0.0
61 C50199 0.417382921971634 0.560205789650688 0.69652839665424 C 0.0 **** 0.0
62 C50205 0.405630386602677 0.504558916345582 0.666951398277764 C 0.0 **** 0.0
63 C50206 0.405200364575099 0.488229036860357 0.6598356760393 C 0.0 **** 0.0
64 C50210 0.419487702750595 0.528434525031809 0.680760269883503 C 0.0 **** 0.0
65 C50211 0.42075885271047 0.513150833623116 0.67185718881931 C 0.0 **** 0.0
66 C50215 0.43272535418914 0.551504467714658 0.69596445172569 C 0.0 **** 0.0
67 C50216 0.433729394963726 0.535885521322058 0.687730601253752 C 0.0 **** 0.0
68 C50220 0.430576336178723 0.58201706539647 0.713775923496777 C 0.0 **** 0.0
69 C50221 0.446313192936195 0.574065619383825 0.711410438550546 C 0.0 **** 0.0
70 C50222 0.447210290115829 0.558809214671125 0.702871909160817 C 0.0 **** 0.0
71 O50227 0.399517232124382 0.601613963228306 0.709877857553128 O 0.0 **** 0.0
72 C50228 0.383336457027985 0.603935185673137 0.718063393624812 C 0.0 **** 0.0
73 C50229 0.368254446442457 0.597160495578172 0.707129680909343 C 0.0 **** 0.0
74 C50230 0.374941300611592 0.593200473682146 0.689479302334512 C 0.0 **** 0.0
75 C50236 0.352819833593592 0.609049675483386 0.707123522445137 C 0.0 **** 0.0
76 C50237 0.349289040969513 0.614921504764592 0.725155246611346 C 0.0 **** 0.0
77 C50238 0.363577743526417 0.626553605370839 0.73141224360218 C 0.0 **** 0.0
78 C50239 0.380952050757976 0.622827472353715 0.722744988683527 C 0.0 **** 0.0
79 C50245 0.395866631659563 0.630282706119731 0.733005796081805 C 0.0 **** 0.0
80 C50246 0.38954686999567 0.645362686800113 0.743427549671956 C 0.0 **** 0.0
81 C50247 0.37588917568662 0.639969501146263 0.756354129349614 C 0.0 **** 0.0
82 N50248 0.36442336815442 0.626776122138884 0.749763701340813 N 0.0 **** 0.0
83 C50254 0.436963020552786 0.507040522206441 0.667284439624767 C 0.0 **** 0.0
84 C50255 0.451211556781884 0.513656301483062 0.675024573045047 C 0.0 **** 0.0
85 C50256 0.449492527316978 0.527978409141917 0.685576748647848 C 0.0 **** 0.0
86 O50261 0.46730367848493 0.507003259268983 0.672575022036576 O 0.0 **** 0.0
87 C50262 0.468016532542895 0.492195029688056 0.662208325182237 C 0.0 **** 0.0
88 C50263 0.455038701397754 0.492988850157747 0.64843116462209 C 0.0 **** 0.0
89 O50264 0.438572254216244 0.494043830407449 0.655709868284361 O 0.0 **** 0.0
90 C50270 0.455510944414305 0.477374118094948 0.636973726023978 C 0.0 **** 0.0
91 C50271 0.453070485296003 0.461259772425455 0.647517845724341 C 0.0 **** 0.0
92 C50272 0.466743552711109 0.460088385189472 0.66122804692787 C 0.0 **** 0.0
93 C50273 0.466304706282704 0.475809836412846 0.672570967011849 C 0.0 **** 0.0
94 C50279 0.46309569469104 0.550683430263467 0.701343364339552 C 0.0 **** 0.0
95 C50280 0.463974932167475 0.5351187404258 0.692838373795169 C 0.0 **** 0.0
96 C50284 0.460917890034626 0.581310096320714 0.718420184475583 C 0.0 **** 0.0
97 C50285 0.47685201630046 0.57339678606198 0.71665711496066 C 0.0 **** 0.0
98 C50286 0.47775113005909 0.558301112132588 0.708188633813108 C 0.0 **** 0.0
99 C50291 0.459884358792397 0.596058565526891 0.728248987250931 C 0.0 **** 0.0
100 C50292 0.444319569027111 0.603010140489427 0.732040318747818 C 0.0 **** 0.0
101 C50293 0.430157256564305 0.595815025642144 0.725008575560219 C 0.0 **** 0.0
102 O50298 0.491477916441104 0.580032820931314 0.723547997798333 O 0.0 **** 0.0
103 C50299 0.490783906938599 0.595043236686563 0.732467953058367 C 0.0 **** 0.0
104 C50300 0.475857698857563 0.603340912931943 0.735148532387053 C 0.0 **** 0.0
105 C50305 0.441901740275484 0.618174581963253 0.743432330268223 C 0.0 **** 0.0
106 C50306 0.458980614397556 0.628030498427873 0.746775983486872 C 0.0 **** 0.0
107 C50307 0.475399950779813 0.618230971724433 0.743857799605064 C 0.0 **** 0.0
108 C50312 0.459053840237675 0.635389572954146 0.764842882264558 C 0.0 **** 0.0
109 C50313 0.441812234932016 0.642799977453852 0.769860995780716 C 0.0 **** 0.0
110 C50314 0.428446858898648 0.62851065589788 0.7707938618352 C 0.0 **** 0.0
111 C50315 0.43334350790971 0.612939771361871 0.760066134771876 C 0.0 **** 0.0
112 C50321 0.49007820971817 0.624808261979116 0.750146671509714 C 0.0 **** 0.0
113 C50322 0.50511348374359 0.616588764555914 0.747483386365231 C 0.0 **** 0.0
114 C50323 0.505453401364638 0.601668155740677 0.7388124857428 C 0.0 **** 0.0
115 C50328 0.474191939996767 0.647153399922117 0.766391435634702 C 0.0 **** 0.0
116 C50330 0.489386437023377 0.641200365585311 0.759899869004203 C 0.0 **** 0.0
117 C50333 0.285926023347917 0.451151847870378 0.676713448646046 C 0.0 **** 0.0
118 C50335 0.298174329192695 0.46046099850675 0.688536275011839 C 0.0 **** 0.0
119 C50337 0.270325004432075 0.445665491491772 0.686837159081866 C 0.0 **** 0.0
120 O50339 0.361909071740835 0.588068139758622 0.678273563949436 O 0.0 **** 0.0
121 C50341 0.520493993491554 0.593383909106547 0.736589906685572 C 0.0 **** 0.0
122 C50342 0.535027003127752 0.599748350551011 0.743288423059054 C 0.0 **** 0.0
123 C50343 0.534799077213801 0.614665230968797 0.751963466120981 C 0.0 **** 0.0
124 C50344 0.519841718396262 0.62322991278481 0.753629464746407 C 0.0 **** 0.0
125 C50350 0.519724869710275 0.639862984397412 0.762325944162054 C 0.0 **** 0.0
126 C50351 0.534376493741761 0.645471774609254 0.769543325954786 C 0.0 **** 0.0
127 C50352 0.549997223300064 0.635308529993892 0.767923075006803 C 0.0 **** 0.0
128 C50353 0.549682871953211 0.620511743666625 0.758906559768801 C 0.0 **** 0.0
129 C50359 0.564500246494857 0.64081605456577 0.775589761955048 C 0.0 **** 0.0
130 C50360 0.56479036609208 0.655479200474369 0.784873967592505 C 0.0 **** 0.0
131 C50361 0.550607244297413 0.665215179510895 0.786903119747901 C 0.0 **** 0.0
132 C50362 0.534576446196909 0.660198245740095 0.778614967418217 C 0.0 **** 0.0
133 C50368 0.519773363837507 0.669720849749205 0.780938173019989 C 0.0 **** 0.0
134 C50369 0.504710321851591 0.664098811288276 0.773516491544747 C 0.0 **** 0.0
135 C50370 0.504634986261047 0.648967698704617 0.764291936045271 C 0.0 **** 0.0
136 C50375 0.519594766526403 0.683423140677845 0.792153275384697 C 0.0 **** 0.0
137 C50376 0.536628261366698 0.688449768981178 0.799424672254435 C 0.0 **** 0.0
138 C50377 0.551072467530371 0.679402201267722 0.796687824235506 C 0.0 **** 0.0
139 C50382 0.474208691803492 0.6623547521133 0.774871221774252 C 0.0 **** 0.0
140 C50383 0.489293385572633 0.671577762502172 0.778235155691678 C 0.0 **** 0.0
141 C50388 0.50435976249788 0.691286676726787 0.796121576332509 C 0.0 **** 0.0
142 C50389 0.489339034995513 0.686072628723741 0.788587527347898 C 0.0 **** 0.0
143 C50393 0.472789277609359 0.694935221330127 0.792941995852811 C 0.0 **** 0.0
144 C50394 0.475787337992639 0.714047517058702 0.794122882852096 C 0.0 **** 0.0
145 C50395 0.488769875343617 0.717380667331791 0.807779319495859 C 0.0 **** 0.0
146 C50396 0.50346278168248 0.70530137526602 0.808861067506398 C 0.0 **** 0.0
147 O50402 0.513176009827193 0.706908210345953 0.820626407936876 O 0.0 **** 0.0
148 H50404 0.323530422968437 0.342885832595718 0.606529482906796 H 0.0 **** 0.0
149 H50406 0.315542910437773 0.362869268111232 0.612713608110039 H 0.0 **** 0.0
150 H50408 0.319966523589214 0.349152546199607 0.576857949053647 H 0.0 **** 0.0
151 H50410 0.300935541862812 0.354956378320939 0.586684540283021 H 0.0 **** 0.0
152 H50412 0.315923216821671 0.374879740681862 0.564187142723519 H 0.0 **** 0.0
153 H50414 0.339938122253818 0.389217653142738 0.570651842382241 H 0.0 **** 0.0
154 H50416 0.358884600843991 0.373567437858375 0.590739356777349 H 0.0 **** 0.0
155 H50418 0.34650031560273 0.359447895699038 0.578808014938691 H 0.0 **** 0.0
156 H50420 0.326915130626123 0.392828327046211 0.606579485704603 H 0.0 **** 0.0
157 H50422 0.315859382593414 0.419098642488015 0.600236794203479 H 0.0 **** 0.0
158 H50424 0.310302333748964 0.406662124771413 0.56515154635761 H 0.0 **** 0.0
159 H50426 0.295529587363194 0.414769170949329 0.579834278679179 H 0.0 **** 0.0
160 H50428 0.290265065247564 0.384013424934314 0.576422352306052 H 0.0 **** 0.0
161 H50430 0.299248312633809 0.38714877440786 0.59665325506459 H 0.0 **** 0.0
162 H50432 0.348305171744873 0.442211772539731 0.577376851472529 H 0.0 **** 0.0
163 H50434 0.361456850650998 0.414568422829004 0.578576167466202 H 0.0 **** 0.0
164 H50436 0.348164294555045 0.410881486213132 0.614501425507361 H 0.0 **** 0.0
165 H50438 0.359766462657456 0.395840112168154 0.60351809141905 H 0.0 **** 0.0
166 H50440 0.332902200572316 0.43299156882054 0.611667883597512 H 0.0 **** 0.0
167 H50442 0.40963985427227 0.448436019811406 0.624754996529286 H 0.0 **** 0.0
168 H50444 0.399605550051083 0.429147582360233 0.629832625378235 H 0.0 **** 0.0
169 H50446 0.414438950506727 0.424308041446858 0.60337960816462 H 0.0 **** 0.0
170 H50448 0.407271582991655 0.443533534594125 0.594509514721558 H 0.0 **** 0.0
171 H50450 0.391423213660163 0.414313845463578 0.585756954501044 H 0.0 **** 0.0
172 H50452 0.317993250392164 0.451121481300369 0.626653185696235 H 0.0 **** 0.0
173 H50453 0.311453903136577 0.48796160068833 0.581983452424335 H 0.0 **** 0.0
174 H50455 0.295634714609415 0.472951164879107 0.576809351045195 H 0.0 **** 0.0
175 H50457 0.323022645975509 0.457651538609815 0.574140301653113 H 0.0 **** 0.0
176 H50459 0.283677812421888 0.500592345282221 0.593535601982647 H 0.0 **** 0.0
177 H50461 0.271891074171995 0.48164202945072 0.594050864232307 H 0.0 **** 0.0
178 H50463 0.259187232839175 0.494669628343753 0.616865928724249 H 0.0 **** 0.0
179 H50465 0.276839564101782 0.507702607220604 0.621106867787609 H 0.0 **** 0.0
180 H50467 0.300477867601206 0.450210067380555 0.645196940703559 H 0.0 **** 0.0
181 H50469 0.306547598840984 0.469204810715434 0.65518085173603 H 0.0 **** 0.0
182 H50471 0.271211709566279 0.45380554502034 0.654054550110815 H 0.0 **** 0.0
183 H50473 0.28376602846783 0.486988719315445 0.669476520413759 H 0.0 **** 0.0
184 H50475 0.263526575081415 0.478408760867767 0.673533867784761 H 0.0 **** 0.0
185 H50477 0.26550681577133 0.500471046825762 0.649445033196007 H 0.0 **** 0.0
186 H50479 0.254455652988416 0.481499010674806 0.64503931353104 H 0.0 **** 0.0
187 H50481 0.318774980093341 0.489566864070601 0.640710948515927 H 0.0 **** 0.0
188 H50483 0.346668204461852 0.536305480083307 0.674021188037437 H 0.0 **** 0.0
189 H50485 0.361169785384367 0.560809029172082 0.682869741006744 H 0.0 **** 0.0
190 H50487 0.416430959142795 0.480209325838013 0.658853333858414 H 0.0 **** 0.0
191 H50489 0.383800409057291 0.596682523071103 0.729951859500919 H 0.0 **** 0.0
192 H50491 0.363660952605373 0.585113655203205 0.712554697038432 H 0.0 **** 0.0
193 H50493 0.380759771434541 0.604790587068511 0.684174329726735 H 0.0 **** 0.0
194 H50495 0.355229079542596 0.620095191959982 0.699023075661171 H 0.0 **** 0.0
195 H50497 0.341789920783969 0.602410241340045 0.701758638144364 H 0.0 **** 0.0
196 H50499 0.348393225897496 0.603636921967168 0.733260847757008 H 0.0 **** 0.0
197 H50501 0.337029373944258 0.621475968671805 0.72620290730641 H 0.0 **** 0.0
198 H50503 0.359944975691507 0.639493122004387 0.727607203589329 H 0.0 **** 0.0
199 H50505 0.380674775795218 0.629559860938881 0.710509281959478 H 0.0 **** 0.0
200 H50507 0.400885021671031 0.620697331517026 0.741775861581259 H 0.0 **** 0.0
201 H50509 0.406298939198114 0.633856287548725 0.724511780606316 H 0.0 **** 0.0
202 H50511 0.38402850227972 0.654701539820276 0.734646781794644 H 0.0 **** 0.0
203 H50513 0.399867708168481 0.651948275340432 0.750051431361293 H 0.0 **** 0.0
204 H50515 0.368234969332163 0.651012359429865 0.760089390754597 H 0.0 **** 0.0
205 H50517 0.381906011204347 0.635325030685501 0.768028421356797 H 0.0 **** 0.0
206 H50519 0.367739639792915 0.615332483056182 0.754023117985143 H 0.0 **** 0.0
207 H50521 0.480608889426626 0.492139898286133 0.656213478089923 H 0.0 **** 0.0
208 H50523 0.457310296123507 0.504574375558653 0.641019853491222 H 0.0 **** 0.0
209 H50525 0.445474529642487 0.47850356500507 0.627364751622984 H 0.0 **** 0.0
210 H50527 0.467614694135717 0.47670419564591 0.630130396440734 H 0.0 **** 0.0
211 H50529 0.453101322645957 0.449946763889493 0.639418058927994 H 0.0 **** 0.0
212 H50531 0.440510474124918 0.461567989292021 0.653596900369611 H 0.0 **** 0.0
213 H50533 0.479276261854451 0.459014893250943 0.655197089434614 H 0.0 **** 0.0
214 H50535 0.465022278712348 0.448593683060169 0.668892309265316 H 0.0 **** 0.0
215 H50537 0.476338077194131 0.475300174160582 0.682236187175814 H 0.0 **** 0.0
216 H50539 0.45418150470197 0.47606427408837 0.679445583006414 H 0.0 **** 0.0
217 H50541 0.476318919424591 0.528960276203552 0.691261193772124 H 0.0 **** 0.0
218 H50543 0.490014218984486 0.551895080208988 0.706807657339045 H 0.0 **** 0.0
219 H50545 0.418204104364265 0.601707300895131 0.728631202280204 H 0.0 **** 0.0
220 H50547 0.433372646462485 0.627179021592271 0.737038984873608 H 0.0 **** 0.0
221 H50549 0.459175397201577 0.638565780120434 0.737695362975129 H 0.0 **** 0.0
222 H50551 0.46142356735173 0.624864839185206 0.773785988133763 H 0.0 **** 0.0
223 H50553 0.437946407733793 0.652378150496267 0.760532744352204 H 0.0 **** 0.0
224 H50555 0.442408531936637 0.64920432594443 0.782207943994841 H 0.0 **** 0.0
225 H50557 0.416070405400373 0.633345868366217 0.766665940087194 H 0.0 **** 0.0
226 H50559 0.426749310778696 0.624524958589234 0.784039612972353 H 0.0 **** 0.0
227 H50561 0.422022847895178 0.605131852664002 0.757806006446909 H 0.0 **** 0.0
228 H50563 0.442169874621143 0.604891367984663 0.767270708454931 H 0.0 **** 0.0
229 H50565 0.292274953932811 0.439432454879545 0.672467467346489 H 0.0 **** 0.0
230 H50567 0.301683442134815 0.452329282613817 0.699283436346211 H 0.0 **** 0.0
231 H50569 0.292270838264157 0.471951021561006 0.693701913532137 H 0.0 **** 0.0
232 H50571 0.309955521424246 0.464243082471649 0.682186533903035 H 0.0 **** 0.0
233 H50573 0.261525413392824 0.438294540137098 0.679006096793358 H 0.0 **** 0.0
234 H50575 0.263400661324323 0.456646819053221 0.691841095248718 H 0.0 **** 0.0
235 H50577 0.273959471033327 0.437686394243986 0.697656294166187 H 0.0 **** 0.0
236 H50579 0.367499378360949 0.582117102674351 0.669395114471089 H 0.0 **** 0.0
237 H50581 0.521181570788228 0.581472917433271 0.729658796451673 H 0.0 **** 0.0
238 H50583 0.546768023301032 0.592725989100372 0.741507697653872 H 0.0 **** 0.0
239 H50585 0.561284145859458 0.613160108367464 0.75743245574429 H 0.0 **** 0.0
240 H50587 0.576163236098484 0.633515436931936 0.774599500175875 H 0.0 **** 0.0
241 H50589 0.576671043472981 0.659138284410948 0.790867615286686 H 0.0 **** 0.0
242 H50591 0.537550487039398 0.699731861778865 0.807200341370909 H 0.0 **** 0.0
243 H50593 0.562762311055487 0.683628750064272 0.802645981891511 H 0.0 **** 0.0
244 H50595 0.462120497509694 0.666968824749719 0.779822320113063 H 0.0 **** 0.0
245 H50597 0.463020148446206 0.69254817576366 0.783356260415305 H 0.0 **** 0.0
246 H50599 0.467790534314431 0.690135855970938 0.805067331269301 H 0.0 **** 0.0
247 H50601 0.463992849632523 0.720871054512464 0.797006614942544 H 0.0 **** 0.0
248 H50603 0.480278832629409 0.718807180779908 0.781809434936082 H 0.0 **** 0.0
249 H50605 0.483445469199711 0.716334535887163 0.820596524068634 H 0.0 **** 0.0
250 H50607 0.494780198030455 0.729883792934208 0.807108744076487 H 0.0 **** 0.0
@<TRIPOS>BOND
1 3 2 1
2 4 3 1
3 5 4 1
4 6 5 1
5 1 2 1
6 1 6 1
7 8 7 1
8 9 8 1
9 10 9 1
10 4 7 1
11 3 10 1
12 12 11 1
13 13 12 1
14 14 13 1
15 8 11 1
16 7 14 1
17 16 15 1
18 17 16 Partial double
19 18 17 1
20 13 15 1
21 12 18 1
22 20 19 Partial double
23 21 20 Partial double
24 22 21 Partial double
25 17 19 Partial double
26 16 22 Partial double
27 24 23 1
28 25 24 1
29 15 25 Double
30 22 23 1
31 27 26 1
32 28 27 Partial double
33 29 28 Partial double
34 21 26 1
35 20 29 Partial double
36 31 30 1
37 32 31 1
38 18 30 1
39 19 32 1
40 34 33 Double
41 35 34 1
42 36 35 1
43 31 33 1
44 30 36 Double
45 38 37 1
46 39 38 1
47 40 39 Double
48 34 37 1
49 33 40 1
50 42 41 1
51 43 42 1
52 44 43 1
53 40 41 1
54 39 44 1
55 46 45 Partial double
56 32 46 1
57 29 45 Partial double
58 48 47 Partial double
59 49 48 1
60 45 49 Partial double
61 28 47 Partial double
62 51 50 Partial double
63 52 51 Partial double
64 53 52 Partial double
65 48 50 Partial double
66 47 53 Partial double
67 55 54 Partial double
68 56 55 Partial double
69 57 56 Partial double
70 52 54 Partial double
71 51 57 Partial double
72 59 58 Partial double
73 60 59 Partial double
74 61 60 Partial double
75 56 58 Partial double
76 55 61 Partial double
77 63 62 Partial double
78 27 63 Partial double
79 53 62 Partial double
80 65 64 Partial double
81 62 65 Partial double
82 54 64 Partial double
83 67 66 Partial double
84 64 67 Partial double
85 61 66 Partial double
86 69 68 Partial double
87 70 69 Partial double
88 66 70 Partial double
89 60 68 Partial double
90 72 71 1
91 73 72 1
92 74 73 1
93 59 71 1
94 58 74 1
95 76 75 1
96 77 76 1
97 78 77 1
98 73 75 1
99 72 78 1
100 80 79 1
101 81 80 1
102 82 81 1
103 78 79 1
104 77 82 1
105 84 83 Partial double
106 85 84 Partial double
107 67 85 Partial double
108 65 83 Partial double
109 87 86 1
110 88 87 1
111 89 88 1
112 84 86 1
113 83 89 1
114 91 90 1
115 92 91 1
116 93 92 1
117 88 90 1
118 87 93 1
119 95 94 Partial double
120 85 95 Partial double
121 70 94 Partial double
122 97 96 Partial double
123 98 97 Partial double
124 94 98 Partial double
125 69 96 Partial double
126 100 99 Partial double
127 101 100 Partial double
128 68 101 Partial double
129 96 99 Partial double
130 103 102 1
131 104 103 Partial double
132 97 102 1
133 99 104 1
134 106 105 1
135 107 106 1
136 100 105 1
137 104 107 Partial double
138 109 108 1
139 110 109 1
140 111 110 1
141 106 108 1
142 105 111 1
143 113 112 1
144 114 113 1
145 103 114 Partial double
146 107 112 Partial double
147 108 115 1
148 112 116 Partial double
149 115 116 Partial double
150 42 117 1
151 117 118 1
152 117 119 1
153 74 120 1
154 122 121 1
155 123 122 Partial double
156 124 123 1
157 114 121 Partial double
158 113 124 Partial double
159 126 125 Partial double
160 127 126 1
161 128 127 Partial double
162 124 125 Partial double
163 123 128 Partial double
164 130 129 Partial double
165 131 130 1
166 132 131 1
167 127 129 Partial double
168 126 132 Partial double
169 134 133 Partial double
170 135 134 Partial double
171 125 135 Partial double
172 132 133 Partial double
173 137 136 Partial double
174 138 137 Partial double
175 131 138 Partial double
176 133 136 Partial double
177 140 139 Partial double
178 134 140 Partial double
179 116 135 Partial double
180 115 139 Partial double
181 142 141 Partial double
182 140 142 Partial double
183 136 141 Partial double
184 144 143 1
185 145 144 1
186 146 145 1
187 142 143 1
188 141 146 1
189 146 147 Double
190 1 148 1
191 1 149 1
192 2 150 1
193 2 151 1
194 3 152 1
195 4 153 1
196 5 154 1
197 5 155 1
198 7 156 1
199 8 157 1
200 9 158 1
201 9 159 1
202 10 160 1
203 10 161 1
204 12 162 1
205 13 163 1
206 14 164 1
207 14 165 1
208 18 166 1
209 23 167 1
210 23 168 1
211 24 169 1
212 24 170 1
213 25 171 1
214 35 173 1
215 35 174 1
216 36 175 1
217 37 176 1
218 37 177 1
219 38 178 1
220 38 179 1
221 41 180 1
222 41 181 1
223 42 182 1
224 43 183 1
225 43 184 1
226 44 185 1
227 44 186 1
228 46 187 1
229 50 188 1
230 57 189 1
231 63 190 1
232 72 191 1
233 73 192 1
234 74 193 1
235 75 194 1
236 75 195 1
237 76 196 1
238 76 197 1
239 77 198 1
240 78 199 1
241 79 200 1
242 79 201 1
243 80 202 1
244 80 203 1
245 81 204 1
246 81 205 1
247 82 206 1
248 87 207 1
249 88 208 1
250 90 209 1
251 90 210 1
252 91 211 1
253 91 212 1
254 92 213 1
255 92 214 1
256 93 215 1
257 93 216 1
258 95 217 1
259 98 218 1
260 101 219 1
261 105 220 1
262 106 221 1
263 108 222 1
264 109 223 1
265 109 224 1
266 110 225 1
267 110 226 1
268 111 227 1
269 111 228 1
270 117 229 1
271 118 230 1
272 118 231 1
273 118 232 1
274 119 233 1
275 119 234 1
276 119 235 1
277 120 236 1
278 121 237 1
279 122 238 1
280 128 239 1
281 129 240 1
282 130 241 1
283 137 242 1
284 138 243 1
285 139 244 1
286 143 245 1
287 143 246 1
288 144 247 1
289 144 248 1
290 145 249 1
291 145 250 1
292 31 172 1
@<TRIPOS>MOLECULE
Sketch 4
250 292
SMALL
USER_CHARGES


@<TRIPOS>ATOM
1 C50610 0.872856362188832 0.18599065798357 0.515823730097607 C 0.0 **** 0.0
2 C50611 0.872299940507082 0.202756929666955 0.526039165541717 C 0.0 **** 0.0
3 C50612 0.884945429590581 0.202528738032964 0.540875495328504 C 0.0 **** 0.0
4 C50613 0.882022344392772 0.186632345649205 0.552337848594843 C 0.0 **** 0.0
5 C50614 0.874005415039116 0.172235228868246 0.541780203741797 C 0.0 **** 0.0
6 O50615 0.880356729861544 0.172442155170092 0.52498390443748 O 0.0 **** 0.0
7 C50622 0.872158345827165 0.191400881730011 0.568538063625622 C 0.0 **** 0.0
8 C50623 0.882780177816176 0.203759058944118 0.579500697180101 C 0.0 **** 0.0
9 C50624 0.892614914258063 0.216555666259472 0.568550520701046 C 0.0 **** 0.0
10 C50625 0.884792208749395 0.219164127803854 0.551042482399212 C 0.0 **** 0.0
11 O50631 0.895493557059411 0.195254700422108 0.589133340434935 O 0.0 **** 0.0
12 C50632 0.889651070678062 0.182043114545783 0.600085729574998 C 0.0 **** 0.0
13 C50633 0.880798677297027 0.168510356910444 0.589348386386491 C 0.0 **** 0.0
14 C50634 0.866212807718699 0.176242184728999 0.57926578480152 C 0.0 **** 0.0
15 C50640 0.875238419504791 0.153799581386812 0.60016676567475 C 0.0 **** 0.0
16 C50641 0.868458297598679 0.157607493233528 0.617547196372324 C 0.0 **** 0.0
17 C50642 0.870753625911807 0.173468539868217 0.624705005344241 C 0.0 **** 0.0
18 C50643 0.878183505414849 0.188171034033457 0.614500408662524 C 0.0 **** 0.0
19 C50649 0.865445212321523 0.176131050305153 0.641283463041036 C 0.0 **** 0.0
20 C50650 0.856308764875481 0.16367603759957 0.649584721945546 C 0.0 **** 0.0
21 C50651 0.854000898984919 0.14788397903124 0.642306148929811 C 0.0 **** 0.0
22 C50652 0.860474191887012 0.144683509708064 0.626321970634747 C 0.0 **** 0.0
23 C50658 0.857793818033669 0.127501984488605 0.618234183222477 C 0.0 **** 0.0
24 C50659 0.872595452952293 0.122994718929914 0.606311877154983 C 0.0 **** 0.0
25 C50660 0.877434769733907 0.137669115734276 0.59517767761134 C 0.0 **** 0.0
26 O50665 0.845527024618861 0.135026748941988 0.650671575015799 O 0.0 **** 0.0
27 C50666 0.836365775738188 0.138730127321993 0.665044090073021 C 0.0 **** 0.0
28 C50667 0.837255797958393 0.154104934986327 0.673443366193431 C 0.0 **** 0.0
29 C50668 0.848443516018848 0.167716976031521 0.666315901149898 C 0.0 **** 0.0
30 C50674 0.885814323579983 0.200714601432531 0.626576336268817 C 0.0 **** 0.0
31 C50675 0.872357579981758 0.207314316526569 0.638526583765853 C 0.0 **** 0.0
32 C50676 0.869855805220035 0.19229007461661 0.650599522111797 C 0.0 **** 0.0
33 C50681 0.877196799629785 0.224251655122985 0.647188561401875 C 0.0 **** 0.0
34 C50682 0.894065687994925 0.227619342839628 0.648877812541849 C 0.0 **** 0.0
35 C50683 0.907991034061993 0.215871671313055 0.642765360777267 C 0.0 **** 0.0
36 C50684 0.902240403530401 0.204284439162129 0.628724680484017 C 0.0 **** 0.0
37 C50690 0.901126861649829 0.243875297806041 0.655601352593444 C 0.0 **** 0.0
38 C50691 0.887807371245773 0.25610126876541 0.662722684846185 C 0.0 **** 0.0
39 C50692 0.86988358688354 0.25084049131487 0.65936087020708 C 0.0 **** 0.0
40 C50693 0.865287635945275 0.235764016305478 0.65227699476949 C 0.0 **** 0.0
41 C50699 0.846148563841294 0.232604574236127 0.650274229466151 C 0.0 **** 0.0
42 C50700 0.836158671051186 0.24884349985002 0.64761375810935 C 0.0 **** 0.0
43 C50701 0.839248667832536 0.260384787888241 0.662967338720218 C 0.0 **** 0.0
44 C50702 0.857963478149021 0.264770964076787 0.664720520820512 C 0.0 **** 0.0
45 C50708 0.850494225342218 0.183065784241438 0.673770009447135 C 0.0 **** 0.0
46 C50709 0.860053664168473 0.195492411604973 0.666724280070035 C 0.0 **** 0.0
47 C50713 0.826552212661527 0.157012070908742 0.687536777452425 C 0.0 **** 0.0
48 C50714 0.825918976422003 0.172691042247058 0.696120463312601 C 0.0 **** 0.0
49 S50715 0.841566860110345 0.187612286544762 0.693276974634737 S 0.0 **** 0.0
50 C50720 0.81318575454296 0.176775815191885 0.707093923737868 C 0.0 **** 0.0
51 C50721 0.800248795495958 0.164985100337899 0.710422476823606 C 0.0 **** 0.0
52 C50722 0.800864058657525 0.14898270323385 0.702416112198313 C 0.0 **** 0.0
53 C50723 0.814594937380132 0.144634818760766 0.692191987484334 C 0.0 **** 0.0
54 C50729 0.786905774841312 0.138317459258065 0.703795290467203 C 0.0 **** 0.0
55 C50730 0.772237483077162 0.143665127141481 0.712115146766328 C 0.0 **** 0.0
56 C50731 0.77215285827175 0.158628859460069 0.721908346835196 C 0.0 **** 0.0
57 C50732 0.78647423146414 0.169095373214511 0.72082570348347 C 0.0 **** 0.0
58 C50738 0.758612562878838 0.162351809202516 0.732918380385978 C 0.0 **** 0.0
59 C50739 0.74490933668233 0.151474495397237 0.73302588263268 C 0.0 **** 0.0
60 C50740 0.743509670908655 0.138538160049745 0.720693490200649 C 0.0 **** 0.0
61 C50741 0.757835769564545 0.133705354257707 0.711622901564247 C 0.0 **** 0.0
62 C50747 0.815045754475238 0.128492572292679 0.684801271519757 C 0.0 **** 0.0
63 C50748 0.82601772340454 0.126110534776491 0.67099753421219 C 0.0 **** 0.0
64 C50752 0.787632969870086 0.122166382960973 0.696752357609228 C 0.0 **** 0.0
65 C50753 0.802604163815922 0.116382679230963 0.689320445602393 C 0.0 **** 0.0
66 C50757 0.758381401495261 0.117783038196662 0.703982127635636 C 0.0 **** 0.0
67 C50758 0.773587877269117 0.111792243114445 0.697387369756136 C 0.0 **** 0.0
68 C50762 0.72826135062447 0.129203450039293 0.718529625206838 C 0.0 **** 0.0
69 C50763 0.729111660128332 0.113119218794477 0.710953122781264 C 0.0 **** 0.0
70 C50764 0.744232531413889 0.107291583658461 0.704386704104288 C 0.0 **** 0.0
71 O50769 0.731948070995857 0.152965098191591 0.744742339687803 O 0.0 **** 0.0
72 C50770 0.735995390651042 0.161591887200295 0.759937965460542 C 0.0 **** 0.0
73 C50771 0.743045673038182 0.178914507689534 0.755554185573076 C 0.0 **** 0.0
74 C50772 0.759250869153249 0.177391980677109 0.745110261724473 C 0.0 **** 0.0
75 C50778 0.745404935224257 0.189892138892654 0.771564049460282 C 0.0 **** 0.0
76 C50779 0.74390933792764 0.179611613232498 0.788076123371121 C 0.0 **** 0.0
77 C50780 0.75325710216821 0.16255480861173 0.787242839817731 C 0.0 **** 0.0
78 C50781 0.747688722384601 0.151390403259981 0.771794718528445 C 0.0 **** 0.0
79 C50787 0.739586483344806 0.134535943908515 0.77717230626643 C 0.0 **** 0.0
80 C50788 0.750196399490696 0.125156056784082 0.790629494215292 C 0.0 **** 0.0
81 C50789 0.760038567139157 0.137224648586908 0.802572706297946 C 0.0 **** 0.0
82 N50790 0.752474490100005 0.153943673867596 0.803533501371183 N 0.0 **** 0.0
83 C50796 0.80473191323236 0.0989244111787132 0.685863504642156 C 0.0 **** 0.0
84 C50797 0.791004498223197 0.0881334737921251 0.687550994899529 C 0.0 **** 0.0
85 C50798 0.775148461308263 0.0948344819093813 0.692364774584429 C 0.0 **** 0.0
86 O50803 0.792059958866027 0.0709564439056245 0.684268417756492 O 0.0 **** 0.0
87 C50804 0.809015767990571 0.0650272565345664 0.685967680229994 C 0.0 **** 0.0
88 C50805 0.820345618747178 0.0757115973875461 0.67510672041297 C 0.0 **** 0.0
89 O50806 0.820403676684576 0.0929302608313599 0.68065772278432 O 0.0 **** 0.0
90 C50812 0.815649080783227 0.0744230380544838 0.656130682760323 C 0.0 **** 0.0
91 C50813 0.80722651627736 0.0574447423932281 0.651381866199691 C 0.0 **** 0.0
92 C50814 0.81380071945181 0.0429778373682853 0.662443103554951 C 0.0 **** 0.0
93 C50815 0.809457380587299 0.0461009088628918 0.681247618980171 C 0.0 **** 0.0
94 C50821 0.745312066411453 0.0903358243013925 0.698658808550158 C 0.0 **** 0.0
95 C50822 0.760972030666137 0.0842131610822673 0.692882223161463 C 0.0 **** 0.0
96 C50826 0.714822505824906 0.102677851529467 0.711056902016866 C 0.0 **** 0.0
97 C50827 0.715531284034796 0.0860907259734311 0.704405376088287 C 0.0 **** 0.0
98 C50828 0.730719090159387 0.0799876939522966 0.698699683349377 C 0.0 **** 0.0
99 C50833 0.699777010639483 0.108013259931253 0.718859577562343 C 0.0 **** 0.0
100 C50834 0.698423676293371 0.124159752334974 0.725417556772702 C 0.0 **** 0.0
101 C50835 0.71229564059656 0.134626307036187 0.72432655714543 C 0.0 **** 0.0
102 O50840 0.701294343454004 0.0760314598922207 0.703337818129113 O 0.0 **** 0.0
103 C50841 0.687947150136612 0.079554063035803 0.714005239289083 C 0.0 **** 0.0
104 C50842 0.686080263915352 0.0952324039358029 0.721082209170883 C 0.0 **** 0.0
105 C50847 0.682970073020376 0.130575007116133 0.73480385726174 C 0.0 **** 0.0
106 C50848 0.670525596970126 0.115797296658793 0.740279703603357 C 0.0 **** 0.0
107 C50849 0.672634859482863 0.0988420348703659 0.731247482238262 C 0.0 **** 0.0
108 C50854 0.651815507223452 0.121355263104379 0.739569107069353 C 0.0 **** 0.0
109 C50855 0.649377021845624 0.139252510461909 0.746743101549552 C 0.0 **** 0.0
110 C50856 0.66053503507426 0.152606577711724 0.737552288983724 C 0.0 **** 0.0
111 C50857 0.673540519326374 0.144667195863322 0.725415428043785 C 0.0 **** 0.0
112 C50863 0.660816289937803 0.0866553612605327 0.73415531692993 C 0.0 **** 0.0
113 C50864 0.663210469885993 0.0705837858968827 0.72806038400255 C 0.0 **** 0.0
114 C50865 0.676545516813347 0.067088767369983 0.717706008504213 C 0.0 **** 0.0
115 C50870 0.64155087897729 0.107662939038821 0.748561392299179 C 0.0 **** 0.0
116 C50872 0.6458838555868 0.0910047429472257 0.745122988143483 C 0.0 **** 0.0
117 C50875 0.817280370269523 0.245212433025933 0.643919744502384 C 0.0 **** 0.0
118 C50877 0.807579113464403 0.238052779103643 0.65915055086449 C 0.0 **** 0.0
119 C50879 0.808309978016798 0.260735446343328 0.63655394915666 C 0.0 **** 0.0
120 O50881 0.761736609478548 0.192763489659127 0.736078771664939 O 0.0 **** 0.0
121 C50883 0.67856446149038 0.0510941315521432 0.711379973500397 C 0.0 **** 0.0
122 C50884 0.667829652207096 0.0384410169029871 0.716031260481477 C 0.0 **** 0.0
123 C50885 0.655017059332186 0.0416151241821123 0.727152314056136 C 0.0 **** 0.0
124 C50886 0.652553098763647 0.0578180546198459 0.732749262600727 C 0.0 **** 0.0
125 C50892 0.638871903089441 0.0612753881683103 0.745061493045024 C 0.0 **** 0.0
126 C50893 0.62963339428557 0.0480241622543114 0.751102258881857 C 0.0 **** 0.0
127 C50894 0.633093304829902 0.0307388384259244 0.744878835747758 C 0.0 **** 0.0
128 C50895 0.645316134267703 0.0282699193321459 0.732818612621474 C 0.0 **** 0.0
129 C50901 0.624207733818687 0.0174838975937396 0.751579889285165 C 0.0 **** 0.0
130 C50902 0.612363141182515 0.01995220729353 0.764021957125731 C 0.0 **** 0.0
131 C50903 0.608709314366589 0.0357507902828021 0.770125014269045 C 0.0 **** 0.0
132 C50904 0.617513203569567 0.0506808808108574 0.763149510341182 C 0.0 **** 0.0
133 C50910 0.613810934750247 0.0670205353891386 0.769060657522498 C 0.0 **** 0.0
134 C50911 0.622721185297431 0.0806899469321368 0.762351069344498 C 0.0 **** 0.0
135 C50912 0.63588515089492 0.0777071683096348 0.750928409874179 C 0.0 **** 0.0
136 C50917 0.601676721548032 0.0697044090365807 0.781631778606362 C 0.0 **** 0.0
137 C50918 0.593639541878381 0.0537218589430525 0.788702699437553 C 0.0 **** 0.0
138 C50919 0.597273531510535 0.0378801045197252 0.782831027083518 C 0.0 **** 0.0
139 C50924 0.628072471190621 0.110556701189072 0.75928007805565 C 0.0 **** 0.0
140 C50925 0.618919395147673 0.0972969475945462 0.767329046268472 C 0.0 **** 0.0
141 C50930 0.598107618908367 0.0861378371812435 0.786969753906359 C 0.0 **** 0.0
142 C50931 0.606632959503493 0.0999458842442232 0.780018986697723 C 0.0 **** 0.0
143 C50935 0.602372497605227 0.11781405512892 0.78588835973036 C 0.0 **** 0.0
144 C50936 0.599684588211044 0.118054751581671 0.805033096091091 C 0.0 **** 0.0
145 C50937 0.58535008683156 0.106222443008273 0.809273339700089 C 0.0 **** 0.0
146 C50938 0.585005752668457 0.089424722235229 0.800339365459319 C 0.0 **** 0.0
147 O50944 0.573711255321934 0.0797684547088212 0.804139287568772 O 0.0 **** 0.0
148 H50946 0.880667429765393 0.187505037817237 0.504431027038747 H 0.0 **** 0.0
149 H50948 0.860072963792842 0.182423589534443 0.511502156380345 H 0.0 **** 0.0
150 H50950 0.874718829631063 0.213687330676962 0.517733477969916 H 0.0 **** 0.0
151 H50952 0.859524867998223 0.204759778633066 0.531302725699248 H 0.0 **** 0.0
152 H50954 0.897679114404075 0.201161637667094 0.535286162719371 H 0.0 **** 0.0
153 H50956 0.894628844964364 0.182193032114229 0.556419632730444 H 0.0 **** 0.0
154 H50958 0.860103202349918 0.173211945826438 0.541801880037817 H 0.0 **** 0.0
155 H50960 0.877170357883142 0.159788515565399 0.547086216991952 H 0.0 **** 0.0
156 H50962 0.860724773333895 0.198232509090974 0.564306685669395 H 0.0 **** 0.0
157 H50964 0.874105516893605 0.210637403957134 0.588001981264227 H 0.0 **** 0.0
158 H50966 0.905489930025088 0.211479720856583 0.566901523185251 H 0.0 **** 0.0
159 H50968 0.894098592271285 0.228755146540832 0.575068035276056 H 0.0 **** 0.0
160 H50970 0.891605612779579 0.229093386521834 0.54402871977696 H 0.0 **** 0.0
161 H50972 0.871699755025472 0.223717019431621 0.552601346579853 H 0.0 **** 0.0
162 H50974 0.901319835325233 0.176598924578536 0.605378437823789 H 0.0 **** 0.0
163 H50976 0.890194470222702 0.163743197044405 0.580224986506138 H 0.0 **** 0.0
164 H50978 0.856347965164939 0.180692762526477 0.588052028331729 H 0.0 **** 0.0
165 H50980 0.859968901724467 0.166616815795101 0.571354103096459 H 0.0 **** 0.0
166 H50982 0.867402597635247 0.194778345627443 0.608504491505589 H 0.0 **** 0.0
167 H50984 0.856459591311433 0.117571041885235 0.627884205125318 H 0.0 **** 0.0
168 H50986 0.845925588257559 0.127559268382726 0.610926913479211 H 0.0 **** 0.0
169 H50988 0.86907999197616 0.112070901275237 0.598387561231869 H 0.0 **** 0.0
170 H50990 0.883683065071713 0.11920773383967 0.613818276324913 H 0.0 **** 0.0
171 H50992 0.883449667379196 0.134411688211248 0.583253165088041 H 0.0 **** 0.0
172 H50994 0.860777894379092 0.209133124235738 0.63103291773981 H 0.0 **** 0.0
173 H50995 0.912724243660018 0.208263072737908 0.653420266882261 H 0.0 **** 0.0
174 H50997 0.918772876250322 0.223522668419368 0.638242525001811 H 0.0 **** 0.0
175 H50999 0.911907411860196 0.198409992377172 0.620883074981001 H 0.0 **** 0.0
176 H51001 0.910582117461215 0.241097550121488 0.665445689942541 H 0.0 **** 0.0
177 H51003 0.908037399070871 0.250204578377854 0.645251908952094 H 0.0 **** 0.0
178 H51005 0.889968103671789 0.268806073847242 0.657339959261244 H 0.0 **** 0.0
179 H51007 0.889532591598308 0.257308554406523 0.676518738780424 H 0.0 **** 0.0
180 H51009 0.843449690637439 0.224017434169917 0.639707285094082 H 0.0 **** 0.0
181 H51011 0.841488220700353 0.226196033374251 0.661738412976369 H 0.0 **** 0.0
182 H51013 0.841320767852327 0.255250994414645 0.636299690609557 H 0.0 **** 0.0
183 H51015 0.834918871341588 0.253827295089048 0.674475747437842 H 0.0 **** 0.0
184 H51017 0.831936057309738 0.272202258712154 0.662111478401178 H 0.0 **** 0.0
185 H51019 0.860842864780203 0.268526543166612 0.677856192661009 H 0.0 **** 0.0
186 H51021 0.860713785727612 0.27589754801831 0.656744140784884 H 0.0 **** 0.0
187 H51023 0.861592108166102 0.20765897131738 0.672976093774851 H 0.0 **** 0.0
188 H51025 0.812688746671206 0.189215929185324 0.713193413501615 H 0.0 **** 0.0
189 H51027 0.786964009001256 0.181235349968273 0.72750448706271 H 0.0 **** 0.0
190 H51029 0.825748944586604 0.114401549231085 0.663553009463696 H 0.0 **** 0.0
191 H51031 0.723881549593725 0.16339742157498 0.766614206535858 H 0.0 **** 0.0
192 H51033 0.733710456366774 0.184981796526328 0.747143887882 H 0.0 **** 0.0
193 H51035 0.770120679828133 0.175276612419997 0.753690546355413 H 0.0 **** 0.0
194 H51037 0.757948588991768 0.195826772110456 0.771159024457451 H 0.0 **** 0.0
195 H51039 0.736222353922394 0.200360290712791 0.771776505857709 H 0.0 **** 0.0
196 H51041 0.730478378092663 0.177286014977424 0.790988070760669 H 0.0 **** 0.0
197 H51043 0.748895033650636 0.187074629720625 0.798756428506014 H 0.0 **** 0.0
198 H51045 0.766662390281048 0.16583022332755 0.785284089088032 H 0.0 **** 0.0
199 H51047 0.759170802375254 0.148070308280957 0.764602449999925 H 0.0 **** 0.0
200 H51049 0.727111049434451 0.137405259156805 0.782689629033093 H 0.0 **** 0.0
201 H51051 0.737275910792621 0.126417491845484 0.766078907537815 H 0.0 **** 0.0
202 H51053 0.759272299977053 0.1165331150687 0.784522330460235 H 0.0 **** 0.0
203 H51055 0.741717181940075 0.116903446913455 0.798010659061657 H 0.0 **** 0.0
204 H51057 0.773092130827735 0.138734875504651 0.797979650887023 H 0.0 **** 0.0
205 H51059 0.761166019688889 0.131763062156872 0.815333293158491 H 0.0 **** 0.0
206 H51061 0.740387727237051 0.152906770400931 0.807248235266791 H 0.0 **** 0.0
207 H51063 0.812745188621483 0.066686780951681 0.699306542042348 H 0.0 **** 0.0
208 H51065 0.833332970076095 0.0710060450722309 0.676687949863862 H 0.0 **** 0.0
209 H51067 0.807092703234755 0.0849400069195316 0.653023730657508 H 0.0 **** 0.0
210 H51069 0.827039737346903 0.076343479348612 0.648329255282669 H 0.0 **** 0.0
211 H51071 0.809124161411963 0.0547566065787997 0.637865088759839 H 0.0 **** 0.0
212 H51073 0.793456323857953 0.0583349875788332 0.653268280109796 H 0.0 **** 0.0
213 H51075 0.827619531009605 0.0420312914652521 0.660856123596558 H 0.0 **** 0.0
214 H51077 0.808562362966211 0.0307438865613918 0.65831519419894 H 0.0 **** 0.0
215 H51079 0.818154932080252 0.0388003003799486 0.689287333007555 H 0.0 **** 0.0
216 H51081 0.796737971586486 0.041069744543885 0.683873180476273 H 0.0 **** 0.0
217 H51083 0.76204094079414 0.0709796326124296 0.688803366294724 H 0.0 **** 0.0
218 H51085 0.731585291097778 0.0669787475705273 0.69387457261857 H 0.0 **** 0.0
219 H51087 0.710587853232754 0.14748763978502 0.729216926255809 H 0.0 **** 0.0
220 H51089 0.687520504820243 0.136241127993432 0.746745956931229 H 0.0 **** 0.0
221 H51091 0.673521386252133 0.113330108741591 0.753681173380006 H 0.0 **** 0.0
222 H51093 0.647744723103259 0.121674339574746 0.726182883346643 H 0.0 **** 0.0
223 H51095 0.652608449295183 0.138991863437592 0.760274222576306 H 0.0 **** 0.0
224 H51097 0.636014027485042 0.143012794307423 0.745899703995254 H 0.0 **** 0.0
225 H51099 0.667544184485342 0.160069715448303 0.747005654179713 H 0.0 **** 0.0
226 H51101 0.652580142906502 0.161793122183543 0.730844174572543 H 0.0 **** 0.0
227 H51103 0.682313027020648 0.154518290402234 0.720901034652381 H 0.0 **** 0.0
228 H51105 0.667248258350183 0.139476346157219 0.71410956242923 H 0.0 **** 0.0
229 H51107 0.816861567346223 0.235422763927328 0.633926662415291 H 0.0 **** 0.0
230 H51109 0.794155382717985 0.236073841336001 0.656086227295102 H 0.0 **** 0.0
231 H51111 0.808047146702263 0.246592836383105 0.670094262094062 H 0.0 **** 0.0
232 H51113 0.812728251513097 0.225772545908018 0.663203953198831 H 0.0 **** 0.0
233 H51115 0.814292433383705 0.26479834845705 0.624662400767084 H 0.0 **** 0.0
234 H51117 0.808634280541341 0.271521043604242 0.645291796663173 H 0.0 **** 0.0
235 H51119 0.794976087763036 0.257952670160716 0.633737731061475 H 0.0 **** 0.0
236 H51121 0.763355380334053 0.201226099389224 0.74446742938385 H 0.0 **** 0.0
237 H51123 0.688988675166227 0.0480271481416602 0.702875102136554 H 0.0 **** 0.0
238 H51125 0.670064603341399 0.0257490798865424 0.711115665912605 H 0.0 **** 0.0
239 H51127 0.647816397642579 0.0155220889537497 0.728165262300286 H 0.0 **** 0.0
240 H51129 0.626551125828119 0.00456184831355734 0.747377307964434 H 0.0 **** 0.0
241 H51131 0.605942706976502 0.00885297388630262 0.769091588915745 H 0.0 **** 0.0
242 H51133 0.584576986550162 0.0545980651779081 0.798982757084062 H 0.0 **** 0.0
243 H51135 0.590844115221207 0.0271092795315493 0.788560369762595 H 0.0 **** 0.0
244 H51137 0.625021731716326 0.123774923339764 0.761997525124138 H 0.0 **** 0.0
245 H51139 0.612397521117293 0.126906894813559 0.782875563866279 H 0.0 **** 0.0
246 H51141 0.590852203552964 0.122359161455215 0.779418024951467 H 0.0 **** 0.0
247 H51143 0.596758783463591 0.130883576703168 0.809586654987324 H 0.0 **** 0.0
248 H51145 0.611384251174785 0.113986962934917 0.811419267763531 H 0.0 **** 0.0
249 H51147 0.572986088328312 0.111632365109845 0.805913413719299 H 0.0 **** 0.0
250 H51149 0.584508203924362 0.10257553180354 0.822659542465221 H 0.0 **** 0.0
@<TRIPOS>BOND
1 3 2 1
2 4 3 1
3 5 4 1
4 6 5 1
5 1 2 1
6 1 6 1
7 8 7 1
8 9 8 1
9 10 9 1
10 4 7 1
11 3 10 1
12 12 11 1
13 13 12 1
14 14 13 1
15 8 11 1
16 7 14 1
17 16 15 1
18 17 16 Partial double
19 18 17 1
20 13 15 1
21 12 18 1
22 20 19 Partial double
23 21 20 Partial double
24 22 21 Partial double
25 17 19 Partial double
26 16 22 Partial double
27 24 23 1
28 25 24 1
29 15 25 Double
30 22 23 1
31 27 26 1
32 28 27 Partial double
33 29 28 Partial double
34 21 26 1
35 20 29 Partial double
36 31 30 1
37 32 31 1
38 18 30 1
39 19 32 1
40 34 33 Double
41 35 34 1
42 36 35 1
43 31 33 1
44 30 36 Double
45 38 37 1
46 39 38 1
47 40 39 Double
48 34 37 1
49 33 40 1
50 42 41 1
51 43 42 1
52 44 43 1
53 40 41 1
54 39 44 1
55 46 45 Partial double
56 32 46 1
57 29 45 Partial double
58 48 47 Partial double
59 49 48 1
60 45 49 Partial double
61 28 47 Partial double
62 51 50 Partial double
63 52 51 Partial double
64 53 52 Partial double
65 48 50 Partial double
66 47 53 Partial double
67 55 54 Partial double
68 56 55 Partial double
69 57 56 Partial double
70 52 54 Partial double
71 51 57 Partial double
72 59 58 Partial double
73 60 59 Partial double
74 61 60 Partial double
75 56 58 Partial double
76 55 61 Partial double
77 63 62 Partial double
78 27 63 Partial double
79 53 62 Partial double
80 65 64 Partial double
81 62 65 Partial double
82 54 64 Partial double
83 67 66 Partial double
84 64 67 Partial double
85 61 66 Partial double
86 69 68 Partial double
87 70 69 Partial double
88 66 70 Partial double
89 60 68 Partial double
90 72 71 1
91 73 72 1
92 74 73 1
93 59 71 1
94 58 74 1
95 76 75 1
96 77 76 1
97 78 77 1
98 73 75 1
99 72 78 1
100 80 79 1
101 81 80 1
102 82 81 1
103 78 79 1
104 77 82 1
105 84 83 Partial double
106 85 84 Partial double
107 67 85 Partial double
108 65 83 Partial double
109 87 86 1
110 88 87 1
111 89 88 1
112 84 86 1
113 83 89 1
114 91 90 1
115 92 91 1
116 93 92 1
117 88 90 1
118 87 93 1
119 95 94 Partial double
120 85 95 Partial double
121 70 94 Partial double
122 97 96 Partial double
123 98 97 Partial double
124 94 98 Partial double
125 69 96 Partial double
126 100 99 Partial double
127 101 100 Partial double
128 68 101 Partial double
129 96 99 Partial double
130 103 102 1
131 104 103 Partial double
132 97 102 1
133 99 104 1
134 106 105 1
135 107 106 1
136 100 105 1
137 104 107 Partial double
138 109 108 1
139 110 109 1
140 111 110 1
141 106 108 1
142 105 111 1
143 113 112 1
144 114 113 1
145 103 114 Partial double
146 107 112 Partial double
147 108 115 1
148 112 116 Partial double
149 115 116 Partial double
150 42 117 1
151 117 118 1
152 117 119 1
153 74 120 1
154 122 121 1
155 123 122 Partial double
156 124 123 1
157 114 121 Partial double
158 113 124 Partial double
159 126 125 Partial double
160 127 126 1
161 128 127 Partial double
162 124 125 Partial double
163 123 128 Partial double
164 130 129 Partial double
165 131 130 1
166 132 131 1
167 127 129 Partial double
168 126 132 Partial double
169 134 133 Partial double
170 135 134 Partial double
171 125 135 Partial double
172 132 133 Partial double
173 137 136 Partial double
174 138 137 Partial double
175 131 138 Partial double
176 133 136 Partial double
177 140 139 Partial double
178 134 140 Partial double
179 116 135 Partial double
180 115 139 Partial double
181 142 141 Partial double
182 140 142 Partial double
183 136 141 Partial double
184 144 143 1
185 145 144 1
186 146 145 1
187 142 143 1
188 141 146 1
189 146 147 Double
190 1 148 1
191 1 149 1
192 2 150 1
193 2 151 1
194 3 152 1
195 4 153 1
196 5 154 1
197 5 155 1
198 7 156 1
199 8 157 1
200 9 158 1
201 9 159 1
202 10 160 1
203 10 161 1
204 12 162 1
205 13 163 1
206 14 164 1
207 14 165 1
208 18 166 1
209 23 167 1
210 23 168 1
211 24 169 1
212 24 170 1
213 25 171 1
214 35 173 1
215 35 174 1
216 36 175 1
217 37 176 1
218 37 177 1
219 38 178 1
220 38 179 1
221 41 180 1
222 41 181 1
223 42 182 1
224 43 183 1
225 43 184 1
226 44 185 1
227 44 186 1
228 46 187 1
229 50 188 1
230 57 189 1
231 63 190 1
232 72 191 1
233 73 192 1
234 74 193 1
235 75 194 1
236 75 195 1
237 76 196 1
238 76 197 1
239 77 198 1
240 78 199 1
241 79 200 1
242 79 201 1
243 80 202 1
244 80 203 1
245 81 204 1
246 81 205 1
247 82 206 1
248 87 207 1
249 88 208 1
250 90 209 1
251 90 210 1
252 91 211 1
253 91 212 1
254 92 213 1
255 92 214 1
256 93 215 1
257 93 216 1
258 95 217 1
259 98 218 1
260 101 219 1
261 105 220 1
262 106 221 1
263 108 222 1
264 109 223 1
265 109 224 1
266 110 225 1
267 110 226 1
268 111 227 1
269 111 228 1
270 117 229 1
271 118 230 1
272 118 231 1
273 118 232 1
274 119 233 1
275 119 234 1
276 119 235 1
277 120 236 1
278 121 237 1
279 122 238 1
280 128 239 1
281 129 240 1
282 130 241 1
283 137 242 1
284 138 243 1
285 139 244 1
286 143 245 1
287 143 246 1
288 144 247 1
289 144 248 1
290 145 249 1
291 145 250 1
292 31 172 1
@<TRIPOS>MOLECULE
Sketch 4
250 292
SMALL
USER_CHARGES


@<TRIPOS>ATOM
1 C51152 0.358065649062767 0.858631075531398 0.794213926760941 C 0.0 **** 0.0
2 C51153 0.351624854187215 0.865096704119135 0.776816309795751 C 0.0 **** 0.0
3 C51154 0.345951646727896 0.850378922247611 0.765400486500029 C 0.0 **** 0.0
4 C51155 0.360410804750534 0.837037902608356 0.763480739136179 C 0.0 **** 0.0
5 C51156 0.371847436589028 0.837215730448343 0.779407955266246 C 0.0 **** 0.0
6 O51157 0.362349552760602 0.841158374839306 0.794132589831998 O 0.0 **** 0.0
7 C51164 0.370569321010875 0.838696730385433 0.746839502342187 C 0.0 **** 0.0
8 C51165 0.359113666645248 0.839021621815795 0.730821566773597 C 0.0 **** 0.0
9 C51166 0.340525548273603 0.842545854588889 0.734951853601024 C 0.0 **** 0.0
10 C51167 0.338826739663528 0.856402324107366 0.748289396612859 C 0.0 **** 0.0
11 O51173 0.359621145772285 0.823226659679842 0.722119461174255 O 0.0 **** 0.0
12 C51174 0.375638691879341 0.820000072454865 0.714311766191761 C 0.0 **** 0.0
13 C51175 0.39058203829579 0.822901503562911 0.726814697387887 C 0.0 **** 0.0
14 C51176 0.383491990605287 0.824177761287016 0.744985711394926 C 0.0 **** 0.0
15 C51182 0.402822126659562 0.837264685190425 0.723176067694581 C 0.0 **** 0.0
16 C51183 0.402249771528287 0.846123197650825 0.706298117194301 C 0.0 **** 0.0
17 C51184 0.390752103709433 0.841370292208277 0.693901035116928 C 0.0 **** 0.0
18 C51185 0.376046765453028 0.829309232748031 0.696829816035105 C 0.0 **** 0.0
19 C51191 0.392880542400743 0.847711481375112 0.677599426601916 C 0.0 **** 0.0
20 C51192 0.406311429657344 0.858380769977996 0.674130189708764 C 0.0 **** 0.0
21 C51193 0.416384384020114 0.864765809439052 0.686939021327411 C 0.0 **** 0.0
22 C51194 0.41420303791248 0.858693206721863 0.703237430846518 C 0.0 **** 0.0
23 C51200 0.425028569950239 0.865627440667126 0.717413099522562 C 0.0 **** 0.0
24 C51201 0.430558106675122 0.851353003378902 0.729507411728343 C 0.0 **** 0.0
25 C51202 0.416212232253354 0.839500877209942 0.733555457500116 C 0.0 **** 0.0
26 O51207 0.428857049414323 0.876710150557865 0.683766124769077 O 0.0 **** 0.0
27 C51208 0.43128443271996 0.882547559724908 0.667481686047684 C 0.0 **** 0.0
28 C51209 0.42350894874895 0.875479899259503 0.653454809692422 C 0.0 **** 0.0
29 C51210 0.41070228516997 0.86183239594888 0.65611413445226 C 0.0 **** 0.0
30 C51216 0.374638178274652 0.818501633180312 0.681167093654355 C 0.0 **** 0.0
31 C51217 0.367796053396592 0.829418725980886 0.667011670421272 C 0.0 **** 0.0
32 C51218 0.381346986205574 0.843050376223625 0.662977650196462 C 0.0 **** 0.0
33 C51223 0.361460237624791 0.819613339814151 0.651337670373825 C 0.0 **** 0.0
34 C51224 0.368166951032632 0.803940556723666 0.648582100997656 C 0.0 **** 0.0
35 C51225 0.379314858782257 0.794652380402995 0.661183321724653 C 0.0 **** 0.0
36 C51226 0.380037329321901 0.802663700024734 0.678565449773421 C 0.0 **** 0.0
37 C51232 0.363262581175364 0.792845907575325 0.633998356250276 C 0.0 **** 0.0
38 C51233 0.353819593141598 0.802354287871927 0.619927727035881 C 0.0 **** 0.0
39 C51234 0.344849995509483 0.81790334317147 0.626258717074593 C 0.0 **** 0.0
40 C51235 0.349077487818619 0.825899709030519 0.640977887826948 C 0.0 **** 0.0
41 C51241 0.338871202885272 0.841932051827693 0.645243744210326 C 0.0 **** 0.0
42 C51242 0.320768866020501 0.840446028510824 0.638587073572787 C 0.0 **** 0.0
43 C51243 0.3219701399981 0.839682366606569 0.619187949861135 C 0.0 **** 0.0
44 C51244 0.331427126142197 0.823629154340155 0.61389314117265 C 0.0 **** 0.0
45 C51250 0.403978715192353 0.852505053244783 0.643370857854135 C 0.0 **** 0.0
46 C51251 0.390521597670921 0.842085213483424 0.646050318749502 C 0.0 **** 0.0
47 C51255 0.427914248532609 0.881178030665578 0.637133748733039 C 0.0 **** 0.0
48 C51256 0.42346235971047 0.872184409324538 0.622277761514035 C 0.0 **** 0.0
49 S51257 0.413199743209484 0.85284546833833 0.623400436387937 S 0.0 **** 0.0
50 C51262 0.428455112794872 0.877399053701069 0.606577937559936 C 0.0 **** 0.0
51 C51263 0.437980643349484 0.892354653777657 0.604803432066094 C 0.0 **** 0.0
52 C51264 0.441943187559497 0.902029151235947 0.619379222958392 C 0.0 **** 0.0
53 C51265 0.437720471701305 0.895987119597816 0.635383741352521 C 0.0 **** 0.0
54 C51271 0.451093149187624 0.916966770443068 0.61744701231171 C 0.0 **** 0.0
55 C51272 0.455692294222799 0.922673242989258 0.601316750162082 C 0.0 **** 0.0
56 C51273 0.454699903348906 0.911596252898769 0.587300778914407 C 0.0 **** 0.0
57 C51274 0.444445642328881 0.897224323032904 0.588976629748056 C 0.0 **** 0.0
58 C51280 0.464284091280815 0.915251777563334 0.572822136292473 C 0.0 **** 0.0
59 C51281 0.468961337420163 0.931858250639372 0.569865925552945 C 0.0 **** 0.0
60 C51282 0.468261580623159 0.943912065396878 0.583149817487074 C 0.0 **** 0.0
61 C51283 0.463742514284841 0.93813613990128 0.599259058736883 C 0.0 **** 0.0
62 C51289 0.443976314427639 0.904341859872079 0.649787545633939 C 0.0 **** 0.0
63 C51290 0.441967645858558 0.896121522294268 0.665414237919135 C 0.0 **** 0.0
64 C51294 0.456728190281001 0.925679808684018 0.631697097430254 C 0.0 **** 0.0
65 C51295 0.452157071009587 0.92030569891212 0.647928420058662 C 0.0 **** 0.0
66 C51299 0.470087537331546 0.946351863180721 0.613559919154417 C 0.0 **** 0.0
67 C51300 0.466848277095278 0.939811274180604 0.629637235983779 C 0.0 **** 0.0
68 C51304 0.475681107986162 0.960177044369168 0.581429531669659 C 0.0 **** 0.0
69 C51305 0.482904203244382 0.967625270189237 0.595905423188485 C 0.0 **** 0.0
70 C51306 0.480650944779798 0.960292339735559 0.611635824918809 C 0.0 **** 0.0
71 O51311 0.475722113633845 0.93603265247371 0.554222518124046 O 0.0 **** 0.0
72 C51312 0.466298129538349 0.928964176299442 0.540316997856336 C 0.0 **** 0.0
73 C51313 0.462559437141992 0.909617266856482 0.542353672254163 C 0.0 **** 0.0
74 C51314 0.469658174305752 0.903168161302711 0.559025462538297 C 0.0 **** 0.0
75 C51320 0.46902374797167 0.899235908716938 0.527196379626935 C 0.0 **** 0.0
76 C51321 0.462747356527236 0.907136365446412 0.510760139216816 C 0.0 **** 0.0
77 C51322 0.469778658753048 0.924961128954766 0.507654018668504 C 0.0 **** 0.0
78 C51323 0.476297673380432 0.933242295541478 0.524089210978234 C 0.0 **** 0.0
79 C51329 0.47875550999407 0.952543706372775 0.522169362463153 C 0.0 **** 0.0
80 C51330 0.479348221332198 0.957377206230895 0.503503329721851 C 0.0 **** 0.0
81 C51331 0.462494405191005 0.952698941473503 0.494970415267771 C 0.0 **** 0.0
82 N51332 0.456771435537675 0.935659047698168 0.500301197832543 N 0.0 **** 0.0
83 C51338 0.455609505112966 0.930869628379408 0.661970969920074 C 0.0 **** 0.0
84 C51339 0.467233431747916 0.943935031095153 0.660251625914024 C 0.0 **** 0.0
85 C51340 0.473561789028511 0.947795261654223 0.643971380254118 C 0.0 **** 0.0
86 O51345 0.472577846951401 0.953759264038022 0.673769719368673 O 0.0 **** 0.0
87 C51346 0.468525738249235 0.946256587313973 0.689677828176333 C 0.0 **** 0.0
88 C51347 0.450445294082196 0.940641582073095 0.689723212476582 C 0.0 **** 0.0
89 O51348 0.447884376120248 0.92769976740614 0.677412770059312 O 0.0 **** 0.0
90 C51354 0.438055224319492 0.9556199127378 0.68728003997312 C 0.0 **** 0.0
91 C51355 0.445068624536577 0.972481248117275 0.694265585096284 C 0.0 **** 0.0
92 C51356 0.456894368107578 0.96938939788578 0.709333538926723 C 0.0 **** 0.0
93 C51357 0.472486739746684 0.958790336728569 0.704039551985773 C 0.0 **** 0.0
94 C51363 0.489181427149352 0.967157356379355 0.625785099606975 C 0.0 **** 0.0
95 C51364 0.485491335646713 0.960747125371257 0.641985804150048 C 0.0 **** 0.0
96 C51368 0.492945796903485 0.982072844357916 0.594137128158781 C 0.0 **** 0.0
97 C51369 0.501213836725769 0.989239801864016 0.608254359314471 C 0.0 **** 0.0
98 C51370 0.499981628568296 0.981198122542493 0.62356686877044 C 0.0 **** 0.0
99 C51375 0.495844081591833 0.989232516872982 0.578158278609465 C 0.0 **** 0.0
100 C51376 0.487791219258657 0.982920102324137 0.563977461995062 C 0.0 **** 0.0
101 C51377 0.477558373661328 0.968919870493523 0.56595255472392 C 0.0 **** 0.0
102 O51382 0.510056049431525 1.00425566602395 0.60699399307818 O 0.0 **** 0.0
103 C51383 0.516272762733002 1.00881929170905 0.591375219088653 C 0.0 **** 0.0
104 C51384 0.509112984987143 1.00262520428968 0.576928459566873 C 0.0 **** 0.0
105 C51389 0.490479664601852 0.990460736805862 0.546503363955462 C 0.0 **** 0.0
106 C51390 0.507716234155236 1.00055849383968 0.545035420564513 C 0.0 **** 0.0
107 C51391 0.515070094689385 1.00731174134535 0.561472229189829 C 0.0 **** 0.0
108 C51396 0.506464485551321 1.0152446352722 0.532194088010322 C 0.0 **** 0.0
109 C51397 0.496161133999732 1.0098881220282 0.516625409146755 C 0.0 **** 0.0
110 C51398 0.477533497061168 1.00633191638266 0.521772024653415 C 0.0 **** 0.0
111 C51399 0.475532885517976 1.0012941200919 0.540596763090123 C 0.0 **** 0.0
112 C51405 0.528509980507334 1.01803347831824 0.560449580337784 C 0.0 **** 0.0
113 C51406 0.536379177228876 1.02347377447618 0.57488085421004 C 0.0 **** 0.0
114 C51407 0.529919368853032 1.01941180757863 0.590323398982733 C 0.0 **** 0.0
115 C51412 0.5244613323612 1.02164854142929 0.529079305421004 C 0.0 **** 0.0
116 C51414 0.53475516122988 1.02316728776006 0.543220647071801 C 0.0 **** 0.0
117 C51417 0.308582267938147 0.85384764399667 0.645979927231051 C 0.0 **** 0.0
118 C51419 0.31347709374361 0.872165535558754 0.642147687732431 C 0.0 **** 0.0
119 C51421 0.290204543941175 0.850715759726926 0.640634623029691 C 0.0 **** 0.0
120 O51423 0.465216789890154 0.886024177189684 0.5621743842777 O 0.0 **** 0.0
121 C51425 0.537401799306503 1.02571459699363 0.604584387855951 C 0.0 **** 0.0
122 C51426 0.551720339075907 1.03521220239759 0.603543498715903 C 0.0 **** 0.0
123 C51427 0.558829379283403 1.03845404503223 0.588188835077785 C 0.0 **** 0.0
124 C51428 0.550915162689343 1.03274521253244 0.573894554780434 C 0.0 **** 0.0
125 C51434 0.558531707267601 1.03628222311979 0.557158181851822 C 0.0 **** 0.0
126 C51435 0.573228078479148 1.04529826829372 0.556562115086392 C 0.0 **** 0.0
127 C51436 0.581350833870148 1.05088203524278 0.572461987622498 C 0.0 **** 0.0
128 C51437 0.573814023265766 1.04733166696204 0.587650064478556 C 0.0 **** 0.0
129 C51443 0.596157664506933 1.05978989067856 0.571704242044196 C 0.0 **** 0.0
130 C51444 0.603316832722203 1.06404037948713 0.556477291725583 C 0.0 **** 0.0
131 C51445 0.595931564050358 1.05967661041917 0.54142170615222 C 0.0 **** 0.0
132 C51446 0.580231480878454 1.0494872007686 0.541324840492879 C 0.0 **** 0.0
133 C51452 0.572183384922148 1.04525117786123 0.526057009916711 C 0.0 **** 0.0
134 C51453 0.557078925659115 1.03610031485457 0.52659665637203 C 0.0 **** 0.0
135 C51454 0.550437645310105 1.03117855756997 0.542233905125622 C 0.0 **** 0.0
136 C51459 0.577999144706292 1.05189671858416 0.510741190441 C 0.0 **** 0.0
137 C51460 0.594872057863956 1.06107364817645 0.511625442985853 C 0.0 **** 0.0
138 C51461 0.602895540169771 1.06468637466689 0.526479220512676 C 0.0 **** 0.0
139 C51466 0.530785147772034 1.02708447124819 0.513775388734143 C 0.0 **** 0.0
140 C51467 0.54724246565935 1.03421513268868 0.511917264319778 C 0.0 **** 0.0
141 C51472 0.568102531812681 1.05040420549239 0.496225291976121 C 0.0 **** 0.0
142 C51473 0.553136266941803 1.04108113082979 0.496517606051556 C 0.0 **** 0.0
143 C51477 0.542477859822558 1.0390615011249 0.480584818612118 C 0.0 **** 0.0
144 C51478 0.55368386769586 1.03793122395848 0.464888216281883 C 0.0 **** 0.0
145 C51479 0.564830894487322 1.05337671850856 0.463926574401519 C 0.0 **** 0.0
146 C51480 0.573266684071245 1.05889852827159 0.480023683631337 C 0.0 **** 0.0
147 O51486 0.583249970600389 1.07050826837844 0.479020766515125 O 0.0 **** 0.0
148 H51488 0.348108623083772 0.859916567958179 0.803824480498408 H 0.0 **** 0.0
149 H51490 0.368908049649702 0.866245655002324 0.798594315392289 H 0.0 **** 0.0
150 H51492 0.341236465723195 0.874241359836152 0.778491569010534 H 0.0 **** 0.0
151 H51494 0.361742379761059 0.872040502092097 0.770162383603753 H 0.0 **** 0.0
152 H51496 0.335574520091448 0.843871969909357 0.772138929793488 H 0.0 **** 0.0
153 H51498 0.354100029794788 0.824566685029703 0.762994727504096 H 0.0 **** 0.0
154 H51500 0.382429774038431 0.8461860892487 0.777812695823763 H 0.0 **** 0.0
155 H51502 0.377501520874112 0.824703434160391 0.781586894393035 H 0.0 **** 0.0
156 H51504 0.377543087493262 0.850775946325238 0.747462010438612 H 0.0 **** 0.0
157 H51506 0.363649321502305 0.849241327805008 0.722454459164952 H 0.0 **** 0.0
158 H51508 0.334777556035506 0.83074168644106 0.739632820799517 H 0.0 **** 0.0
159 H51510 0.333807081523644 0.845777440659399 0.723210291977896 H 0.0 **** 0.0
160 H51512 0.325585120622976 0.860361638828939 0.749902810941629 H 0.0 **** 0.0
161 H51514 0.345811887314876 0.867634039558786 0.743856220160479 H 0.0 **** 0.0
162 H51516 0.375120922656442 0.806232478361362 0.712392615647896 H 0.0 **** 0.0
163 H51518 0.39866011615151 0.811527552010122 0.726237850702138 H 0.0 **** 0.0
164 H51520 0.393520938370138 0.825172447834732 0.754576798756232 H 0.0 **** 0.0
165 H51522 0.376813944344991 0.812258923011467 0.747810749496176 H 0.0 **** 0.0
166 H51524 0.364422066065594 0.837086591387885 0.6971421135551 H 0.0 **** 0.0
167 H51526 0.436305899385915 0.872083674006742 0.712467553022795 H 0.0 **** 0.0
168 H51528 0.417795460804858 0.875214769771723 0.724519315985436 H 0.0 **** 0.0
169 H51530 0.435663680881866 0.85681452458322 0.741294193014326 H 0.0 **** 0.0
170 H51532 0.44090655892893 0.844035635992066 0.723691337868768 H 0.0 **** 0.0
171 H51534 0.418108028159345 0.831881531327764 0.744879199750786 H 0.0 **** 0.0
172 H51536 0.356833961763509 0.835967691820287 0.672536562315298 H 0.0 **** 0.0
173 H51537 0.392171900224176 0.793278558194704 0.656002123591556 H 0.0 **** 0.0
174 H51539 0.374234803612996 0.781716184018088 0.662548116455257 H 0.0 **** 0.0
175 H51541 0.385842635725591 0.795323665234873 0.688680219331901 H 0.0 **** 0.0
176 H51543 0.374619322587611 0.786701281116095 0.628687159452509 H 0.0 **** 0.0
177 H51545 0.355147927696173 0.782601661508197 0.638876859859634 H 0.0 **** 0.0
178 H51547 0.344709572965961 0.793654268885957 0.613902868033652 H 0.0 **** 0.0
179 H51549 0.362769628569665 0.80624278601614 0.609973869272567 H 0.0 **** 0.0
180 H51551 0.33830016692032 0.844037920785078 0.658940284472055 H 0.0 **** 0.0
181 H51553 0.345200072931946 0.853078616952077 0.63979599513675 H 0.0 **** 0.0
182 H51555 0.315664581688147 0.828139254101828 0.64291446063671 H 0.0 **** 0.0
183 H51557 0.328709831871973 0.850962716440055 0.61456715017901 H 0.0 **** 0.0
184 H51559 0.309467811980641 0.8397894297378 0.613045414817711 H 0.0 **** 0.0
185 H51561 0.337180705582697 0.825193455412749 0.601273179671541 H 0.0 **** 0.0
186 H51563 0.322164244359986 0.813235176227375 0.612735334737307 H 0.0 **** 0.0
187 H51565 0.385679562761282 0.833838448863429 0.636156003432777 H 0.0 **** 0.0
188 H51567 0.425649419627955 0.86982932884009 0.59528591260252 H 0.0 **** 0.0
189 H51569 0.441606326496365 0.8891484135145 0.578036767697946 H 0.0 **** 0.0
190 H51571 0.447953409249043 0.900779958397235 0.677014860630106 H 0.0 **** 0.0
191 H51573 0.454092390072347 0.935667668010679 0.539797209196592 H 0.0 **** 0.0
192 H51575 0.448738431238181 0.907681277749742 0.542875751743298 H 0.0 **** 0.0
193 H51577 0.483602762238502 0.903651179444345 0.558180780438883 H 0.0 **** 0.0
194 H51579 0.48291738820622 0.898602262027232 0.527246866498528 H 0.0 **** 0.0
195 H51581 0.464365249709694 0.886127437604489 0.528216582337505 H 0.0 **** 0.0
196 H51583 0.44895257505709 0.907811441103103 0.511876208812783 H 0.0 **** 0.0
197 H51585 0.465562666867545 0.898950079138113 0.499918175341082 H 0.0 **** 0.0
198 H51587 0.480832250157327 0.923689176345764 0.499190303701059 H 0.0 **** 0.0
199 H51589 0.488926054138422 0.927789100353172 0.526186023313517 H 0.0 **** 0.0
200 H51591 0.468070524352534 0.959376544113921 0.52794013054032 H 0.0 **** 0.0
201 H51593 0.490229253427485 0.956333824684972 0.52892958559002 H 0.0 **** 0.0
202 H51595 0.489950750505578 0.950690002750014 0.49746127832792 H 0.0 **** 0.0
203 H51597 0.481800378688083 0.97095912857766 0.501713107406424 H 0.0 **** 0.0
204 H51599 0.463583215496123 0.953610603412445 0.481153132665774 H 0.0 **** 0.0
205 H51601 0.452978137923607 0.962106067423592 0.49883064993099 H 0.0 **** 0.0
206 H51603 0.45054589685996 0.929614570141796 0.491011441722497 H 0.0 **** 0.0
207 H51605 0.476419546163875 0.934930865935388 0.690987444474019 H 0.0 **** 0.0
208 H51607 0.44794862209711 0.934879392054012 0.702175792910832 H 0.0 **** 0.0
209 H51609 0.435300427370629 0.956955433546121 0.673704952358718 H 0.0 **** 0.0
210 H51611 0.425868770801032 0.952638992936461 0.693346252869138 H 0.0 **** 0.0
211 H51613 0.434619514393364 0.981025207173523 0.697720804109619 H 0.0 **** 0.0
212 H51615 0.452268577628339 0.979001962006208 0.684250790253309 H 0.0 **** 0.0
213 H51617 0.449780497394182 0.962538045884654 0.719185577246168 H 0.0 **** 0.0
214 H51619 0.460935531294003 0.981394719000911 0.71513692216751 H 0.0 **** 0.0
215 H51621 0.477690720334779 0.95232187903161 0.71522296636595 H 0.0 **** 0.0
216 H51623 0.482589690746858 0.967170332929337 0.699415621182308 H 0.0 **** 0.0
217 H51625 0.491047643474466 0.96688846152959 0.653138906229977 H 0.0 **** 0.0
218 H51627 0.50670728554358 0.986165836020892 0.63459288820291 H 0.0 **** 0.0
219 H51629 0.471341401504207 0.96404880243241 0.554572628802593 H 0.0 **** 0.0
220 H51631 0.491586279129601 0.980052182031285 0.537381575757695 H 0.0 **** 0.0
221 H51633 0.517042860661007 0.991434410505295 0.54014941330017 H 0.0 **** 0.0
222 H51635 0.499409484819174 1.02577415335137 0.538148817679404 H 0.0 **** 0.0
223 H51637 0.501868438841173 0.998405076132356 0.511168831482106 H 0.0 **** 0.0
224 H51639 0.496336316974944 1.0196055099715 0.506661371802587 H 0.0 **** 0.0
225 H51641 0.472276405039031 0.996264886809387 0.513703955456463 H 0.0 **** 0.0
226 H51643 0.469753076171306 1.01761439328043 0.519246998859423 H 0.0 **** 0.0
227 H51645 0.463456139273982 0.994597274531793 0.542359751765814 H 0.0 **** 0.0
228 H51647 0.474847530814589 1.01275299679147 0.548506616833361 H 0.0 **** 0.0
229 H51649 0.309033435407592 0.852313146826298 0.659882573462407 H 0.0 **** 0.0
230 H51651 0.304694628395448 0.880964847735766 0.648411305184689 H 0.0 **** 0.0
231 H51653 0.313005282265235 0.874705070784422 0.628481041666801 H 0.0 **** 0.0
232 H51655 0.326268000449211 0.875152920436566 0.64670287995796 H 0.0 **** 0.0
233 H51657 0.28617721269914 0.837713083412336 0.643537566299551 H 0.0 **** 0.0
234 H51659 0.28849325255235 0.852763634495926 0.626978610238897 H 0.0 **** 0.0
235 H51661 0.281545823823097 0.85935869760573 0.647284391529895 H 0.0 **** 0.0
236 H51663 0.470112103854644 0.883650614241391 0.572936291916187 H 0.0 **** 0.0
237 H51665 0.532364677144966 1.0229197008269 0.617080855677397 H 0.0 **** 0.0
238 H51667 0.557487503368086 1.0398108514981 0.615190024779997 H 0.0 **** 0.0
239 H51669 0.579738073449971 1.0516236616835 0.599370744660058 H 0.0 **** 0.0
240 H51671 0.602474917477211 1.06392382750742 0.583252704799109 H 0.0 **** 0.0
241 H51673 0.615009675783816 1.07136689746149 0.556633130947126 H 0.0 **** 0.0
242 H51675 0.601055880739256 1.06498340821927 0.499997154046722 H 0.0 **** 0.0
243 H51677 0.61474172116254 1.07173414500743 0.526069364096971 H 0.0 **** 0.0
244 H51679 0.522276707103653 1.02626389379293 0.502873929922463 H 0.0 **** 0.0
245 H51681 0.53475334022127 1.02751473999406 0.481037450522935 H 0.0 **** 0.0
246 H51683 0.533640215598584 1.04980563275709 0.479360738843999 H 0.0 **** 0.0
247 H51685 0.54588991565392 1.03700678432406 0.453421550355975 H 0.0 **** 0.0
248 H51687 0.561422662831325 1.02636165642927 0.465583353186344 H 0.0 **** 0.0
249 H51689 0.557709971530361 1.06475761715878 0.460221006238944 H 0.0 **** 0.0
250 H51691 0.575508979141074 1.05245779233956 0.455075137048347 H 0.0 **** 0.0
@<TRIPOS>BOND
1 3 2 1
2 4 3 1
3 5 4 1
4 6 5 1
5 1 2 1
6 1 6 1
7 8 7 1
8 9 8 1
9 10 9 1
10 4 7 1
11 3 10 1
12 12 11 1
13 13 12 1
14 14 13 1
15 8 11 1
16 7 14 1
17 16 15 1
18 17 16 Partial double
19 18 17 1
20 13 15 1
21 12 18 1
22 20 19 Partial double
23 21 20 Partial double
24 22 21 Partial double
25 17 19 Partial double
26 16 22 Partial double
27 24 23 1
28 25 24 1
29 15 25 Double
30 22 23 1
31 27 26 1
32 28 27 Partial double
33 29 28 Partial double
34 21 26 1
35 20 29 Partial double
36 31 30 1
37 32 31 1
38 18 30 1
39 19 32 1
40 34 33 Double
41 35 34 1
42 36 35 1
43 31 33 1
44 30 36 Double
45 38 37 1
46 39 38 1
47 40 39 Double
48 34 37 1
49 33 40 1
50 42 41 1
51 43 42 1
52 44 43 1
53 40 41 1
54 39 44 1
55 46 45 Partial double
56 32 46 1
57 29 45 Partial double
58 48 47 Partial double
59 49 48 1
60 45 49 Partial double
61 28 47 Partial double
62 51 50 Partial double
63 52 51 Partial double
64 53 52 Partial double
65 48 50 Partial double
66 47 53 Partial double
67 55 54 Partial double
68 56 55 Partial double
69 57 56 Partial double
70 52 54 Partial double
71 51 57 Partial double
72 59 58 Partial double
73 60 59 Partial double
74 61 60 Partial double
75 56 58 Partial double
76 55 61 Partial double
77 63 62 Partial double
78 27 63 Partial double
79 53 62 Partial double
80 65 64 Partial double
81 62 65 Partial double
82 54 64 Partial double
83 67 66 Partial double
84 64 67 Partial double
85 61 66 Partial double
86 69 68 Partial double
87 70 69 Partial double
88 66 70 Partial double
89 60 68 Partial double
90 72 71 1
91 73 72 1
92 74 73 1
93 59 71 1
94 58 74 1
95 76 75 1
96 77 76 1
97 78 77 1
98 73 75 1
99 72 78 1
100 80 79 1
101 81 80 1
102 82 81 1
103 78 79 1
104 77 82 1
105 84 83 Partial double
106 85 84 Partial double
107 67 85 Partial double
108 65 83 Partial double
109 87 86 1
110 88 87 1
111 89 88 1
112 84 86 1
113 83 89 1
114 91 90 1
115 92 91 1
116 93 92 1
117 88 90 1
118 87 93 1
119 95 94 Partial double
120 85 95 Partial double
121 70 94 Partial double
122 97 96 Partial double
123 98 97 Partial double
124 94 98 Partial double
125 69 96 Partial double
126 100 99 Partial double
127 101 100 Partial double
128 68 101 Partial double
129 96 99 Partial double
130 103 102 1
131 104 103 Partial double
132 97 102 1
133 99 104 1
134 106 105 1
135 107 106 1
136 100 105 1
137 104 107 Partial double
138 109 108 1
139 110 109 1
140 111 110 1
141 106 108 1
142 105 111 1
143 113 112 1
144 114 113 1
145 103 114 Partial double
146 107 112 Partial double
147 108 115 1
148 112 116 Partial double
149 115 116 Partial double
150 42 117 1
151 117 118 1
152 117 119 1
153 74 120 1
154 122 121 1
155 123 122 Partial double
156 124 123 1
157 114 121 Partial double
158 113 124 Partial double
159 126 125 Partial double
160 127 126 1
161 128 127 Partial double
162 124 125 Partial double
163 123 128 Partial double
164 130 129 Partial double
165 131 130 1
166 132 131 1
167 127 129 Partial double
168 126 132 Partial double
169 134 133 Partial double
170 135 134 Partial double
171 125 135 Partial double
172 132 133 Partial double
173 137 136 Partial double
174 138 137 Partial double
175 131 138 Partial double
176 133 136 Partial double
177 140 139 Partial double
178 134 140 Partial double
179 116 135 Partial double
180 115 139 Partial double
181 142 141 Partial double
182 140 142 Partial double
183 136 141 Partial double
184 144 143 1
185 145 144 1
186 146 145 1
187 142 143 1
188 141 146 1
189 146 147 Double
190 1 148 1
191 1 149 1
192 2 150 1
193 2 151 1
194 3 152 1
195 4 153 1
196 5 154 1
197 5 155 1
198 7 156 1
199 8 157 1
200 9 158 1
201 9 159 1
202 10 160 1
203 10 161 1
204 12 162 1
205 13 163 1
206 14 164 1
207 14 165 1
208 18 166 1
209 23 167 1
210 23 168 1
211 24 169 1
212 24 170 1
213 25 171 1
214 35 173 1
215 35 174 1
216 36 175 1
217 37 176 1
218 37 177 1
219 38 178 1
220 38 179 1
221 41 180 1
222 41 181 1
223 42 182 1
224 43 183 1
225 43 184 1
226 44 185 1
227 44 186 1
228 46 187 1
229 50 188 1
230 57 189 1
231 63 190 1
232 72 191 1
233 73 192 1
234 74 193 1
235 75 194 1
236 75 195 1
237 76 196 1
238 76 197 1
239 77 198 1
240 78 199 1
241 79 200 1
242 79 201 1
243 80 202 1
244 80 203 1
245 81 204 1
246 81 205 1
247 82 206 1
248 87 207 1
249 88 208 1
250 90 209 1
251 90 210 1
252 91 211 1
253 91 212 1
254 92 213 1
255 92 214 1
256 93 215 1
257 93 216 1
258 95 217 1
259 98 218 1
260 101 219 1
261 105 220 1
262 106 221 1
263 108 222 1
264 109 223 1
265 109 224 1
266 110 225 1
267 110 226 1
268 111 227 1
269 111 228 1
270 117 229 1
271 118 230 1
272 118 231 1
273 118 232 1
274 119 233 1
275 119 234 1
276 119 235 1
277 120 236 1
278 121 237 1
279 122 238 1
280 128 239 1
281 129 240 1
282 130 241 1
283 137 242 1
284 138 243 1
285 139 244 1
286 143 245 1
287 143 246 1
288 144 247 1
289 144 248 1
290 145 249 1
291 145 250 1
292 31 172 1
@<TRIPOS>MOLECULE
Sketch 4
250 292
SMALL
USER_CHARGES


@<TRIPOS>ATOM
1 C51694 0.559038413709513 0.668803737605691 0.0116535961302576 C 0.0 **** 0.0
2 C51695 0.547277390287424 0.684140170866966 0.00788561477033528 C 0.0 **** 0.0
3 C51696 0.541637747956733 0.684177612919895 -0.0107643501826529 C 0.0 **** 0.0
4 C51697 0.55745054098976 0.683958760944539 -0.0224084991116389 C 0.0 **** 0.0
5 C51698 0.571086501998271 0.671822520195393 -0.0149543446350458 C 0.0 **** 0.0
6 O51699 0.564144258912499 0.660126344983579 -0.0032360404247401 O 0.0 **** 0.0
7 C51706 0.565349157311863 0.701398482028682 -0.0266056904642002 C 0.0 **** 0.0
8 C51707 0.552477357126686 0.716218022660725 -0.0281866985143595 C 0.0 **** 0.0
9 C51708 0.53446579969439 0.709369271433436 -0.0300477737773269 C 0.0 **** 0.0
10 C51709 0.528719523750097 0.698197117820169 -0.0152737639435058 C 0.0 **** 0.0
11 O51715 0.555226667762382 0.726429617151164 -0.0428618840116931 O 0.0 **** 0.0
12 C51716 0.572173900482251 0.731823395673989 -0.0463824415452291 C 0.0 **** 0.0
13 C51717 0.584733189100139 0.716599193867741 -0.0470753408827487 C 0.0 **** 0.0
14 C51718 0.575223638289272 0.700015388002054 -0.0432984762631998 C 0.0 **** 0.0
15 C51724 0.600486303407399 0.717166921690277 -0.0361824922322805 C 0.0 **** 0.0
16 C51725 0.60334086562913 0.7317941339596 -0.0244195245368121 C 0.0 **** 0.0
17 C51726 0.59288529573786 0.745824051095465 -0.0246408805569339 C 0.0 **** 0.0
18 C51727 0.577119735586675 0.747597319110046 -0.0354029084772295 C 0.0 **** 0.0
19 C51733 0.597959744231611 0.760338617040617 -0.0160230152264543 C 0.0 **** 0.0
20 C51734 0.613351085345696 0.760558269855441 -0.00763743697881557 C 0.0 **** 0.0
21 C51735 0.622709467247145 0.745840963217145 -0.00589860346626656 C 0.0 **** 0.0
22 C51736 0.617538247530018 0.731269129741099 -0.0141088726907033 C 0.0 **** 0.0
23 C51742 0.627721151196672 0.715173117675892 -0.0122560549145171 C 0.0 **** 0.0
24 C51743 0.629489018301103 0.706248298413801 -0.0295204594276574 C 0.0 **** 0.0
25 C51744 0.612828146155322 0.705639594051798 -0.0387567533795859 C 0.0 **** 0.0
26 O51749 0.637352586827486 0.745354799110594 0.00361097653791554 O 0.0 **** 0.0
27 C51750 0.645445332681108 0.760358519517998 0.00709621957173931 C 0.0 **** 0.0
28 C51751 0.637687059739996 0.776074887852127 0.00602280743080883 C 0.0 **** 0.0
29 C51752 0.619965601761099 0.776875939063709 -0.000696379138998267 C 0.0 **** 0.0
30 C51758 0.581046267960858 0.7637029662502 -0.0448730108603611 C 0.0 **** 0.0
31 C51759 0.57743734963927 0.778957551427414 -0.0337297524031828 C 0.0 **** 0.0
32 C51760 0.587227642648655 0.776251941918366 -0.016745319883303 C 0.0 **** 0.0
33 C51765 0.581190686733448 0.796323962520674 -0.042001400341024 C 0.0 **** 0.0
34 C51766 0.59248028685794 0.796687756943405 -0.0550768662235481 C 0.0 **** 0.0
35 C51767 0.599308258266157 0.781031199292313 -0.0638814856375945 C 0.0 **** 0.0
36 C51768 0.591108976031163 0.764622066691059 -0.0585082865613009 C 0.0 **** 0.0
37 C51774 0.597901755367862 0.812602527142956 -0.0638702363820291 C 0.0 **** 0.0
38 C51775 0.593112417793195 0.828749343178783 -0.0542029971651679 C 0.0 **** 0.0
39 C51776 0.578278422831946 0.826299429445829 -0.0425498622734948 C 0.0 **** 0.0
40 C51777 0.57312771860763 0.8108055744487 -0.036889679388964 C 0.0 **** 0.0
41 C51783 0.557840317880428 0.810559483637846 -0.0247252380334913 C 0.0 **** 0.0
42 C51784 0.546204210868496 0.825683617561328 -0.0276374330921061 C 0.0 **** 0.0
43 C51785 0.556667361453117 0.841736566011942 -0.0243223259414859 C 0.0 **** 0.0
44 C51786 0.570789379714825 0.843117306996935 -0.0374342788622434 C 0.0 **** 0.0
45 C51792 0.610832504541563 0.791374938827492 -0.00142705886310178 C 0.0 **** 0.0
46 C51793 0.595242176763802 0.791827842472636 -0.00869100037673014 C 0.0 **** 0.0
47 C51797 0.646795436637158 0.790764884023877 0.0107081397851303 C 0.0 **** 0.0
48 C51798 0.639650687823899 0.807153494659864 0.0108944704274235 C 0.0 **** 0.0
49 S51799 0.618213273915257 0.810144075204792 0.00750779953694261 S 0.0 **** 0.0
50 C51804 0.649062730144751 0.821239000633384 0.0144801866516597 C 0.0 **** 0.0
51 C51805 0.666415492517424 0.819744932950674 0.0184407645063682 C 0.0 **** 0.0
52 C51806 0.673806189526654 0.803453764058758 0.0191053029904858 C 0.0 **** 0.0
53 C51807 0.66408118211923 0.789354638453524 0.0149188191963089 C 0.0 **** 0.0
54 C51813 0.691043041127979 0.80186297255197 0.0226582205435519 C 0.0 **** 0.0
55 C51814 0.700789652900554 0.816125302252811 0.0265258403170483 C 0.0 **** 0.0
56 C51815 0.693935095971365 0.832635688356362 0.0246475764373882 C 0.0 **** 0.0
57 C51816 0.67656770766586 0.834036280359735 0.0212569226314912 C 0.0 **** 0.0
58 C51822 0.704585260940034 0.846640030123446 0.0266664587732288 C 0.0 **** 0.0
59 C51823 0.720046085790189 0.844313803016326 0.0346216221117311 C 0.0 **** 0.0
60 C51824 0.727621294090481 0.828142916112847 0.0352469176105757 C 0.0 **** 0.0
61 C51825 0.717991995529708 0.814389289970469 0.0295807748495451 C 0.0 **** 0.0
62 C51831 0.672208198757938 0.773634197042394 0.0135224558907481 C 0.0 **** 0.0
63 C51832 0.662201718030078 0.75919601860293 0.0115282096395014 C 0.0 **** 0.0
64 C51836 0.699239369656702 0.786504639864235 0.0190666697079974 C 0.0 **** 0.0
65 C51837 0.68996919825517 0.773260631445898 0.0120205119422655 C 0.0 **** 0.0
66 C51841 0.726135475323704 0.799458402755391 0.0247001050774065 C 0.0 **** 0.0
67 C51842 0.716687021608857 0.785913478346841 0.0185280776824855 C 0.0 **** 0.0
68 C51846 0.745194328520789 0.825887768503741 0.0383583203511057 C 0.0 **** 0.0
69 C51847 0.753256397204273 0.811612246374165 0.0314336016644472 C 0.0 **** 0.0
70 C51848 0.743717275660979 0.798916238504381 0.0240959005086303 C 0.0 **** 0.0
71 O51853 0.728271680426733 0.858648235373857 0.0406434285174717 O 0.0 **** 0.0
72 C51854 0.716469270177188 0.86804172930663 0.0509060882537477 C 0.0 **** 0.0
73 C51855 0.700531772427273 0.873629818481751 0.0405301801146872 C 0.0 **** 0.0
74 C51856 0.701239814812301 0.865214443469708 0.0231789761339072 C 0.0 **** 0.0
75 C51862 0.698365202312181 0.892968861773173 0.0405502907460295 C 0.0 **** 0.0
76 C51863 0.697129781946463 0.898538842682812 0.0590912414167199 C 0.0 **** 0.0
77 C51864 0.713630964911505 0.895123577756502 0.0689642182263756 C 0.0 **** 0.0
78 C51865 0.725769935043791 0.882769809263162 0.0597059243187865 C 0.0 **** 0.0
79 C51871 0.740088332301934 0.876228412962895 0.0714164697019768 C 0.0 **** 0.0
80 C51872 0.741839738814617 0.887528072873906 0.0870481262262655 C 0.0 **** 0.0
81 C51873 0.725159536868869 0.888749068252844 0.0971460972284004 C 0.0 **** 0.0
82 N51874 0.709989908067748 0.890023857787837 0.0862356464648611 N 0.0 **** 0.0
83 C51880 0.697719060217437 0.761822774371775 0.000423067233469121 C 0.0 **** 0.0
84 C51881 0.715136907386728 0.76172742577403 -0.000972638252754189 C 0.0 **** 0.0
85 C51882 0.724673313969129 0.77309139614472 0.00903200370074077 C 0.0 **** 0.0
86 O51887 0.723532363045658 0.750761313928648 -0.0117450574958061 O 0.0 **** 0.0
87 C51888 0.713103262877276 0.746974264896608 -0.0260056922784577 C 0.0 **** 0.0
88 C51889 0.696439542226753 0.739883306979747 -0.0202241150483782 C 0.0 **** 0.0
89 O51890 0.687620912545832 0.751328312531796 -0.00937433664403548 O 0.0 **** 0.0
90 C51896 0.698061364921701 0.722410392268242 -0.0115371202681885 C 0.0 **** 0.0
91 C51897 0.714482239796259 0.712900755878796 -0.0160265415141079 C 0.0 **** 0.0
92 C51898 0.719208129037125 0.715967138945071 -0.0345478737943835 C 0.0 **** 0.0
93 C51899 0.722735929146808 0.734931751187099 -0.0379450324277159 C 0.0 **** 0.0
94 C51905 0.752054290374182 0.785453222192072 0.0157506354905966 C 0.0 **** 0.0
95 C51906 0.742345500951179 0.772782961530091 0.00794989788979623 C 0.0 **** 0.0
96 C51910 0.770929273011524 0.81045215927267 0.031869728506962 C 0.0 **** 0.0
97 C51911 0.779316388237269 0.796820146644053 0.0239231744558083 C 0.0 **** 0.0
98 C51912 0.769881035163382 0.784824318420763 0.0157105762797691 C 0.0 **** 0.0
99 C51917 0.780674452552158 0.822823046820852 0.0400918226371481 C 0.0 **** 0.0
100 C51918 0.772874205757822 0.836177054600442 0.0482340318620067 C 0.0 **** 0.0
101 C51919 0.755517251696992 0.837421190811517 0.0472220124779587 C 0.0 **** 0.0
102 O51924 0.796653754190735 0.795043401325846 0.0241518809451191 O 0.0 **** 0.0
103 C51925 0.806444703263068 0.807492725801909 0.0314562588747768 C 0.0 **** 0.0
104 C51926 0.799490125549982 0.821093194958695 0.0395651449683371 C 0.0 **** 0.0
105 C51931 0.782491966323881 0.849815735014246 0.0577392773225757 C 0.0 **** 0.0
106 C51932 0.802464326769033 0.849162031975962 0.0549641954118397 C 0.0 **** 0.0
107 C51933 0.80955879514096 0.833201156402692 0.0466833297890515 C 0.0 **** 0.0
108 C51938 0.812280638877562 0.852692160274315 0.0715316082676011 C 0.0 **** 0.0
109 C51939 0.804775281689409 0.867479956948432 0.0816837149453181 C 0.0 **** 0.0
110 C51940 0.785605345211851 0.865310277153887 0.0852147358778129 C 0.0 **** 0.0
111 C51941 0.778112478202963 0.849569918251155 0.0766394434625498 C 0.0 **** 0.0
112 C51947 0.826726004245352 0.831287248883039 0.0462074554523127 C 0.0 **** 0.0
113 C51948 0.833737656936151 0.817971356394271 0.0375887726319397 C 0.0 **** 0.0
114 C51949 0.823622948014074 0.806080944544359 0.0303053302723906 C 0.0 **** 0.0
115 C51954 0.830994598003335 0.854975524521317 0.067115878474022 C 0.0 **** 0.0
116 C51956 0.837717164689864 0.844142070068285 0.055048236546837 C 0.0 **** 0.0
117 C51959 0.529387590472012 0.824486623600814 -0.0177385108980135 C 0.0 **** 0.0
118 C51961 0.531483107195273 0.825444980357617 0.00147532806975987 C 0.0 **** 0.0
119 C51963 0.516620758825562 0.837815888007276 -0.0236772953435539 C 0.0 **** 0.0
120 O51965 0.686611829867983 0.868477341448909 0.0132361456314033 O 0.0 **** 0.0
121 C51967 0.830716776253374 0.792767198768987 0.0218442226461289 C 0.0 **** 0.0
122 C51968 0.847805408162241 0.79127986564074 0.0205653430978208 C 0.0 **** 0.0
123 C51969 0.858040628188206 0.803120120669478 0.0277672190190158 C 0.0 **** 0.0
124 C51970 0.8509031938428 0.81648723462079 0.0361615990552427 C 0.0 **** 0.0
125 C51976 0.862032071924167 0.829558981278404 0.0436513747002383 C 0.0 **** 0.0
126 C51977 0.879134417284314 0.827386087563245 0.0425552525774731 C 0.0 **** 0.0
127 C51978 0.886091568930105 0.812553301485077 0.0335121373985863 C 0.0 **** 0.0
128 C51979 0.87528694187457 0.801082879070175 0.0263471313512846 C 0.0 **** 0.0
129 C51985 0.903239021718939 0.810504216205803 0.0324992037672236 C 0.0 **** 0.0
130 C51986 0.914097282805905 0.821802951431662 0.0399529220273028 C 0.0 **** 0.0
131 C51987 0.908263254568092 0.835569732825206 0.0487046521306021 C 0.0 **** 0.0
132 C51988 0.889848335336815 0.838800400403912 0.0498709364916055 C 0.0 **** 0.0
133 C51994 0.883563531335463 0.852670968346092 0.059008757988141 C 0.0 **** 0.0
134 C51995 0.866066645093597 0.854936074414224 0.0602320450821437 C 0.0 **** 0.0
135 C51996 0.855174067098518 0.843398409100852 0.0523618263405815 C 0.0 **** 0.0
136 C52001 0.894538206114861 0.862928458221314 0.0683369549336118 C 0.0 **** 0.0
137 C52002 0.91325790204557 0.859541614806742 0.0657489697613975 C 0.0 **** 0.0
138 C52003 0.919286704743604 0.84632612979017 0.056423379412849 C 0.0 **** 0.0
139 C52008 0.841797466418979 0.866250423608481 0.0749300900884072 C 0.0 **** 0.0
140 C52009 0.859465943857447 0.866994563399695 0.0714779579014927 C 0.0 **** 0.0
141 C52014 0.888010874003352 0.874960743598622 0.0794081011812197 C 0.0 **** 0.0
142 C52015 0.870633863954067 0.877709485979044 0.0804117926986753 C 0.0 **** 0.0
143 C52019 0.863582260680269 0.891351914669635 0.0920930583015212 C 0.0 **** 0.0
144 C52020 0.875382604432685 0.906716746585886 0.0926776580480179 C 0.0 **** 0.0
145 C52021 0.892770991591733 0.90111657055185 0.0982210556999072 C 0.0 **** 0.0
146 C52022 0.899474434668081 0.884985504160493 0.0907544032542175 C 0.0 **** 0.0
147 O52028 0.913479753143327 0.880515559861728 0.0951635842248999 O 0.0 **** 0.0
148 H52030 0.552388243269079 0.659326287350468 0.0193252322081742 H 0.0 **** 0.0
149 H52032 0.570160805357894 0.672826896457362 0.0190699463997264 H 0.0 **** 0.0
150 H52034 0.536190508182525 0.684128150824395 0.0163354287093535 H 0.0 **** 0.0
151 H52036 0.55400778966164 0.6960710872132 0.010420521057617 H 0.0 **** 0.0
152 H52038 0.535268890953839 0.671931291549391 -0.0128369429168466 H 0.0 **** 0.0
153 H52040 0.552884488620631 0.678825294593219 -0.0345683793248051 H 0.0 **** 0.0
154 H52042 0.581380469560544 0.679090862325599 -0.00893069745418835 H 0.0 **** 0.0
155 H52044 0.577037112141467 0.664268766851953 -0.0249807954296998 H 0.0 **** 0.0
156 H52046 0.574427661390583 0.70454574454237 -0.0164714352929896 H 0.0 **** 0.0
157 H52048 0.553125062560189 0.724170702905513 -0.0167418982184895 H 0.0 **** 0.0
158 H52050 0.533992127738239 0.702062819332411 -0.0419241830818721 H 0.0 **** 0.0
159 H52052 0.525691853577613 0.720026076944164 -0.0317691912117174 H 0.0 **** 0.0
160 H52054 0.516402606232114 0.692444086141279 -0.0183419766000319 H 0.0 **** 0.0
161 H52056 0.526354584030842 0.706201670373092 -0.00417321076584238 H 0.0 **** 0.0
162 H52058 0.570785472449248 0.735961247943218 -0.0596097024778258 H 0.0 **** 0.0
163 H52060 0.589654648232762 0.715944427984748 -0.0600864295570556 H 0.0 **** 0.0
164 H52062 0.583821580101173 0.689059557880112 -0.0430973307985969 H 0.0 **** 0.0
165 H52064 0.566031277489489 0.697440116516524 -0.0534788413153842 H 0.0 **** 0.0
166 H52066 0.566004819581551 0.749925144053693 -0.0272966277981451 H 0.0 **** 0.0
167 H52068 0.640357223042655 0.71771165583438 -0.00704372885600133 H 0.0 **** 0.0
168 H52070 0.621393364090321 0.706632175293585 -0.00321167871706346 H 0.0 **** 0.0
169 H52072 0.634392623325856 0.693310153075623 -0.0276808919992145 H 0.0 **** 0.0
170 H52074 0.638819480945967 0.71298504833983 -0.0373866073151246 H 0.0 **** 0.0
171 H52076 0.611732932281848 0.695677996366923 -0.0482065921064653 H 0.0 **** 0.0
172 H52078 0.56382014293866 0.778321535076741 -0.030877500289588 H 0.0 **** 0.0
173 H52079 0.613076568959135 0.780199682986561 -0.0617123878117858 H 0.0 **** 0.0
174 H52081 0.597465111304543 0.782505280832102 -0.0776473061777938 H 0.0 **** 0.0
175 H52083 0.595253448581661 0.753171802873737 -0.064978431067689 H 0.0 **** 0.0
176 H52085 0.611717196850977 0.812413534402097 -0.0658837176160407 H 0.0 **** 0.0
177 H52087 0.592037622260139 0.812891503088584 -0.0765131694413497 H 0.0 **** 0.0
178 H52089 0.590387357238936 0.838915717655513 -0.0633819991501936 H 0.0 **** 0.0
179 H52091 0.603960068181703 0.833047035259037 -0.04658442668818 H 0.0 **** 0.0
180 H52093 0.55041196599269 0.798933611754888 -0.0264346660930421 H 0.0 **** 0.0
181 H52095 0.562244145998282 0.810531427416296 -0.0115258837111828 H 0.0 **** 0.0
182 H52097 0.542592222097701 0.82574906797727 -0.0411421951296312 H 0.0 **** 0.0
183 H52099 0.562074903722257 0.841076072302567 -0.0114861049718247 H 0.0 **** 0.0
184 H52101 0.548912676654309 0.853297464893706 -0.0247490668203279 H 0.0 **** 0.0
185 H52103 0.580979452886944 0.851472209782686 -0.0328315273510205 H 0.0 **** 0.0
186 H52105 0.565650492699547 0.84911820541039 -0.0489519470496679 H 0.0 **** 0.0
187 H52107 0.588026655106286 0.803523135540268 -0.00852424429918695 H 0.0 **** 0.0
188 H52109 0.643234526423605 0.833810597515319 0.0144409396364706 H 0.0 **** 0.0
189 H52111 0.670360125294742 0.846406285951028 0.0207517826417687 H 0.0 **** 0.0
190 H52113 0.667964058002624 0.746554538176959 0.0114903380230243 H 0.0 **** 0.0
191 H52115 0.712059888094181 0.859534739879374 0.0610195828322169 H 0.0 **** 0.0
192 H52117 0.689061874377176 0.86863725376175 0.0467838740505115 H 0.0 **** 0.0
193 H52119 0.712233291576374 0.870514109782915 0.0162911588283907 H 0.0 **** 0.0
194 H52121 0.709014100098294 0.899251524359483 0.0341137620362582 H 0.0 **** 0.0
195 H52123 0.68684638769767 0.896562891914588 0.0335848261823054 H 0.0 **** 0.0
196 H52125 0.686806976353253 0.891191839434246 0.0648545009932712 H 0.0 **** 0.0
197 H52127 0.693409005852412 0.911887571468678 0.0603686304566829 H 0.0 **** 0.0
198 H52129 0.720266384050454 0.907337101887154 0.0699447170913157 H 0.0 **** 0.0
199 H52131 0.731669853551153 0.890112506499492 0.049446203676241 H 0.0 **** 0.0
200 H52133 0.737151531054537 0.863307900776915 0.0757453409000229 H 0.0 **** 0.0
201 H52135 0.752093598446751 0.875497254922185 0.0644168876091653 H 0.0 **** 0.0
202 H52137 0.745622637359141 0.90024942971554 0.082829133501713 H 0.0 **** 0.0
203 H52139 0.751981878164303 0.883112132533742 0.0955027029596426 H 0.0 **** 0.0
204 H52141 0.725507725162485 0.899819860777472 0.105612639672546 H 0.0 **** 0.0
205 H52143 0.723858251984481 0.87759615427661 0.10539769893873 H 0.0 **** 0.0
206 H52145 0.703421224052237 0.879201506414027 0.0862535027757866 H 0.0 **** 0.0
207 H52147 0.710645205846183 0.758992044974922 -0.0326711959278481 H 0.0 **** 0.0
208 H52149 0.688589343306703 0.738342481997386 -0.0316461134436481 H 0.0 **** 0.0
209 H52151 0.69717440120913 0.724388947361599 0.00219129965798943 H 0.0 **** 0.0
210 H52153 0.687091836405253 0.714464279538376 -0.0148482444192974 H 0.0 **** 0.0
211 H52155 0.713022599717639 0.699298020762284 -0.0133818016992299 H 0.0 **** 0.0
212 H52157 0.724900016897914 0.717397254363408 -0.00792084413962726 H 0.0 **** 0.0
213 H52159 0.708597306400226 0.71170191621052 -0.0425378963803471 H 0.0 **** 0.0
214 H52161 0.730221745888123 0.708296913489685 -0.0382988401974987 H 0.0 **** 0.0
215 H52163 0.720061311926183 0.737777646429707 -0.0513148597543537 H 0.0 **** 0.0
216 H52165 0.73629573762098 0.737513926008721 -0.0361077388472333 H 0.0 **** 0.0
217 H52167 0.74872012630403 0.762691145931496 0.000855219570247802 H 0.0 **** 0.0
218 H52169 0.776167552726075 0.774222216464222 0.00936648348664457 H 0.0 **** 0.0
219 H52171 0.749859263806288 0.848298280824349 0.0536086392602445 H 0.0 **** 0.0
220 H52173 0.77833688568148 0.862190939519024 0.0527512830633052 H 0.0 **** 0.0
221 H52175 0.805288466440143 0.859597005720845 0.0461402768027363 H 0.0 **** 0.0
222 H52177 0.811270562502016 0.841312374113009 0.0796292025948694 H 0.0 **** 0.0
223 H52179 0.806731817194516 0.879200455406965 0.0745213575280145 H 0.0 **** 0.0
224 H52181 0.81155167463621 0.868925700408011 0.093748893025047 H 0.0 **** 0.0
225 H52183 0.778816287656955 0.876525577945294 0.080481934026195 H 0.0 **** 0.0
226 H52185 0.783170514964716 0.8649688892396 0.0988940054670375 H 0.0 **** 0.0
227 H52187 0.764349627811551 0.849262289775747 0.078745568976711 H 0.0 **** 0.0
228 H52189 0.783218519110715 0.83799093591266 0.0824864495868397 H 0.0 **** 0.0
229 H52191 0.523816929011464 0.811992279058732 -0.0206913183004667 H 0.0 **** 0.0
230 H52193 0.519235591562673 0.823645649431655 0.00785375586336184 H 0.0 **** 0.0
231 H52195 0.536529340475965 0.837806080391448 0.00539471027522135 H 0.0 **** 0.0
232 H52197 0.540122819566682 0.815633573405627 0.00618578036977439 H 0.0 **** 0.0
233 H52199 0.51429490246871 0.836893015255323 -0.0373738059702865 H 0.0 **** 0.0
234 H52201 0.521141871049473 0.850686904727537 -0.0209613629176971 H 0.0 **** 0.0
235 H52203 0.504398120990894 0.836233357416623 -0.017226615490415 H 0.0 **** 0.0
236 H52205 0.687841652415413 0.862094347454866 0.00310144849949656 H 0.0 **** 0.0
237 H52207 0.822881505188114 0.783097480830551 0.015980188783004 H 0.0 **** 0.0
238 H52209 0.853055707621976 0.780507158967042 0.0137314083575767 H 0.0 **** 0.0
239 H52211 0.880368519152046 0.790154021025329 0.0196139153335651 H 0.0 **** 0.0
240 H52213 0.908634775975693 0.799683602020074 0.0258484955786409 H 0.0 **** 0.0
241 H52215 0.927651506877307 0.819421355274717 0.0389069539044431 H 0.0 **** 0.0
242 H52217 0.922434919901981 0.867993280104755 0.0714643110063717 H 0.0 **** 0.0
243 H52219 0.932928893637832 0.844562350007735 0.0554521418464941 H 0.0 **** 0.0
244 H52221 0.836405528373393 0.874583828008767 0.0845959407025873 H 0.0 **** 0.0
245 H52223 0.85110240306336 0.895665995007704 0.0877401465163773 H 0.0 **** 0.0
246 H52225 0.861860517786033 0.886192672529724 0.104958451985038 H 0.0 **** 0.0
247 H52227 0.870554142229189 0.916489046772407 0.101327810893028 H 0.0 **** 0.0
248 H52229 0.876064708925541 0.912564560422276 0.0800591119694718 H 0.0 **** 0.0
249 H52231 0.893431532389178 0.89835984729848 0.111838819142362 H 0.0 **** 0.0
250 H52233 0.902953324772516 0.910182510250458 0.0955696628489012 H 0.0 **** 0.0
@<TRIPOS>BOND
1 3 2 1
2 4 3 1
3 5 4 1
4 6 5 1
5 1 2 1
6 1 6 1
7 8 7 1
8 9 8 1
9 10 9 1
10 4 7 1
11 3 10 1
12 12 11 1
13 13 12 1
14 14 13 1
15 8 11 1
16 7 14 1
17 16 15 1
18 17 16 Partial double
19 18 17 1
20 13 15 1
21 12 18 1
22 20 19 Partial double
23 21 20 Partial double
24 22 21 Partial double
25 17 19 Partial double
26 16 22 Partial double
27 24 23 1
28 25 24 1
29 15 25 Double
30 22 23 1
31 27 26 1
32 28 27 Partial double
33 29 28 Partial double
34 21 26 1
35 20 29 Partial double
36 31 30 1
37 32 31 1
38 18 30 1
39 19 32 1
40 34 33 Double
41 35 34 1
42 36 35 1
43 31 33 1
44 30 36 Double
45 38 37 1
46 39 38 1
47 40 39 Double
48 34 37 1
49 33 40 1
50 42 41 1
51 43 42 1
52 44 43 1
53 40 41 1
54 39 44 1
55 46 45 Partial double
56 32 46 1
57 29 45 Partial double
58 48 47 Partial double
59 49 48 1
60 45 49 Partial double
61 28 47 Partial double
62 51 50 Partial double
63 52 51 Partial double
64 53 52 Partial double
65 48 50 Partial double
66 47 53 Partial double
67 55 54 Partial double
68 56 55 Partial double
69 57 56 Partial double
70 52 54 Partial double
71 51 57 Partial double
72 59 58 Partial double
73 60 59 Partial double
74 61 60 Partial double
75 56 58 Partial double
76 55 61 Partial double
77 63 62 Partial double
78 27 63 Partial double
79 53 62 Partial double
80 65 64 Partial double
81 62 65 Partial double
82 54 64 Partial double
83 67 66 Partial double
84 64 67 Partial double
85 61 66 Partial double
86 69 68 Partial double
87 70 69 Partial double
88 66 70 Partial double
89 60 68 Partial double
90 72 71 1
91 73 72 1
92 74 73 1
93 59 71 1
94 58 74 1
95 76 75 1
96 77 76 1
97 78 77 1
98 73 75 1
99 72 78 1
100 80 79 1
101 81 80 1
102 82 81 1
103 78 79 1
104 77 82 1
105 84 83 Partial double
106 85 84 Partial double
107 67 85 Partial double
108 65 83 Partial double
109 87 86 1
110 88 87 1
111 89 88 1
112 84 86 1
113 83 89 1
114 91 90 1
115 92 91 1
116 93 92 1
117 88 90 1
118 87 93 1
119 95 94 Partial double
120 85 95 Partial double
121 70 94 Partial double
122 97 96 Partial double
123 98 97 Partial double
124 94 98 Partial double
125 69 96 Partial double
126 100 99 Partial double
127 101 100 Partial double
128 68 101 Partial double
129 96 99 Partial double
130 103 102 1
131 104 103 Partial double
132 97 102 1
133 99 104 1
134 106 105 1
135 107 106 1
136 100 105 1
137 104 107 Partial double
138 109 108 1
139 110 109 1
140 111 110 1
141 106 108 1
142 105 111 1
143 113 112 1
144 114 113 1
145 103 114 Partial double
146 107 112 Partial double
147 108 115 1
148 112 116 Partial double
149 115 116 Partial double
150 42 117 1
151 117 118 1
152 117 119 1
153 74 120 1
154 122 121 1
155 123 122 Partial double
156 124 123 1
157 114 121 Partial double
158 113 124 Partial double
159 126 125 Partial double
160 127 126 1
161 128 127 Partial double
162 124 125 Partial double
163 123 128 Partial double
164 130 129 Partial double
165 131 130 1
166 132 131 1
167 127 129 Partial double
168 126 132 Partial double
169 134 133 Partial double
170 135 134 Partial double
171 125 135 Partial double
172 132 133 Partial double
173 137 136 Partial double
174 138 137 Partial double
175 131 138 Partial double
176 133 136 Partial double
177 140 139 Partial double
178 134 140 Partial double
179 116 135 Partial double
180 115 139 Partial double
181 142 141 Partial double
182 140 142 Partial double
183 136 141 Partial double
184 144 143 1
185 145 144 1
186 146 145 1
187 142 143 1
188 141 146 1
189 146 147 Double
190 1 148 1
191 1 149 1
192 2 150 1
193 2 151 1
194 3 152 1
195 4 153 1
196 5 154 1
197 5 155 1
198 7 156 1
199 8 157 1
200 9 158 1
201 9 159 1
202 10 160 1
203 10 161 1
204 12 162 1
205 13 163 1
206 14 164 1
207 14 165 1
208 18 166 1
209 23 167 1
210 23 168 1
211 24 169 1
212 24 170 1
213 25 171 1
214 35 173 1
215 35 174 1
216 36 175 1
217 37 176 1
218 37 177 1
219 38 178 1
220 38 179 1
221 41 180 1
222 41 181 1
223 42 182 1
224 43 183 1
225 43 184 1
226 44 185 1
227 44 186 1
228 46 187 1
229 50 188 1
230 57 189 1
231 63 190 1
232 72 191 1
233 73 192 1
234 74 193 1
235 75 194 1
236 75 195 1
237 76 196 1
238 76 197 1
239 77 198 1
240 78 199 1
241 79 200 1
242 79 201 1
243 80 202 1
244 80 203 1
245 81 204 1
246 81 205 1
247 82 206 1
248 87 207 1
249 88 208 1
250 90 209 1
251 90 210 1
252 91 211 1
253 91 212 1
254 92 213 1
255 92 214 1
256 93 215 1
257 93 216 1
258 95 217 1
259 98 218 1
260 101 219 1
261 105 220 1
262 106 221 1
263 108 222 1
264 109 223 1
265 109 224 1
266 110 225 1
267 110 226 1
268 111 227 1
269 111 228 1
270 117 229 1
271 118 230 1
272 118 231 1
273 118 232 1
274 119 233 1
275 119 234 1
276 119 235 1
277 120 236 1
278 121 237 1
279 122 238 1
280 128 239 1
281 129 240 1
282 130 241 1
283 137 242 1
284 138 243 1
285 139 244 1
286 143 245 1
287 143 246 1
288 144 247 1
289 144 248 1
290 145 249 1
291 145 250 1
292 31 172 1
@<TRIPOS>MOLECULE
Sketch 4
250 292
SMALL
USER_CHARGES


@<TRIPOS>ATOM
1 C52236 0.880170515586025 0.767950426426595 0.692971894954024 C 0.0 **** 0.0
2 C52237 0.862101946127293 0.760731100114492 0.695357617246198 C 0.0 **** 0.0
3 C52238 0.849479668175835 0.768553157238107 0.682746180154778 C 0.0 **** 0.0
4 C52239 0.849890481124928 0.788350238189611 0.683629091337188 C 0.0 **** 0.0
5 C52240 0.866802680784326 0.794262345205881 0.691422291639214 C 0.0 **** 0.0
6 O52241 0.880371272275879 0.784231193571628 0.68532331165 O 0.0 **** 0.0
7 C52248 0.834121142387072 0.795650003562942 0.692588987679614 C 0.0 **** 0.0
8 C52249 0.817625236712084 0.790689134855395 0.683108590444546 C 0.0 **** 0.0
9 C52250 0.818719519122337 0.772706016944104 0.675666349328278 C 0.0 **** 0.0
10 C52251 0.831474809499445 0.761401132629892 0.684803497161467 C 0.0 **** 0.0
11 O52257 0.814212576268749 0.80110444841491 0.668761096004393 O 0.0 **** 0.0
12 C52258 0.813916063148053 0.818963271481594 0.67171505294993 C 0.0 **** 0.0
13 C52259 0.831227430941279 0.824255493726473 0.678717870328422 C 0.0 **** 0.0
14 C52260 0.834961708337693 0.814946534997182 0.695240230772998 C 0.0 **** 0.0
15 C52266 0.832496424920044 0.84320255382022 0.680265850334162 C 0.0 **** 0.0
16 C52267 0.81676221691375 0.852551972798948 0.685430122807259 C 0.0 **** 0.0
17 C52268 0.8011222002249 0.844491870856213 0.685744693387936 C 0.0 **** 0.0
18 C52269 0.799545679246925 0.825328262204999 0.683161504439851 C 0.0 **** 0.0
19 C52275 0.786782944027262 0.854076485777224 0.689264329114322 C 0.0 **** 0.0
20 C52276 0.788590724479727 0.870352678194886 0.695509658315048 C 0.0 **** 0.0
21 C52277 0.804383395484311 0.877960113688478 0.696014630164032 C 0.0 **** 0.0
22 C52278 0.818365531006569 0.869437982395033 0.689773040987432 C 0.0 **** 0.0
23 C52284 0.835276102537445 0.878477974678498 0.689335767141196 C 0.0 **** 0.0
24 C52285 0.847571685389897 0.87068419307801 0.67629562894519 C 0.0 **** 0.0
25 C52286 0.846725348553655 0.851652896828555 0.676179023214883 C 0.0 **** 0.0
26 O52291 0.806676886125415 0.894054110769098 0.702378312839222 O 0.0 **** 0.0
27 C52292 0.793684955155962 0.90159840035032 0.711113803583957 C 0.0 **** 0.0
28 C52293 0.777125086912762 0.89570099299748 0.711122429511774 C 0.0 **** 0.0
29 C52294 0.773363056405989 0.879468370738439 0.702100152600954 C 0.0 **** 0.0
30 C52300 0.781710669055185 0.820737362566563 0.67805675383445 C 0.0 **** 0.0
31 C52301 0.768708930614977 0.827801820737346 0.690399223273108 C 0.0 **** 0.0
32 C52302 0.769288234981654 0.846896648430977 0.686528758096493 C 0.0 **** 0.0
33 C52307 0.750697004835023 0.82008230460788 0.688750478795418 C 0.0 **** 0.0
34 C52308 0.746714434999743 0.812354754371113 0.673806515134126 C 0.0 **** 0.0
35 C52309 0.758930484658586 0.809732987310362 0.659271201306997 C 0.0 **** 0.0
36 C52310 0.777188639006062 0.812616914295429 0.663888045563303 C 0.0 **** 0.0
37 C52316 0.730216097126181 0.803634037705339 0.670377732001779 C 0.0 **** 0.0
38 C52317 0.716295410837585 0.808210884189643 0.683058668795636 C 0.0 **** 0.0
39 C52318 0.723049472672535 0.814886030087857 0.699500238191202 C 0.0 **** 0.0
40 C52319 0.739240117329724 0.820487873345667 0.701776204276401 C 0.0 **** 0.0
41 C52325 0.743867839835246 0.827492557777039 0.719430015060457 C 0.0 **** 0.0
42 C52326 0.73182999300613 0.822064157980514 0.733489849031771 C 0.0 **** 0.0
43 C52327 0.713591681018559 0.825823556100403 0.728025760115809 C 0.0 **** 0.0
44 C52328 0.709096242732012 0.815447495051482 0.712489645131368 C 0.0 **** 0.0
45 C52334 0.757539335178633 0.872983279987902 0.700530823915662 C 0.0 **** 0.0
46 C52335 0.754805992292916 0.857744272034394 0.693009395175163 C 0.0 **** 0.0
47 C52339 0.764221701212468 0.905707759295095 0.718569278580309 C 0.0 **** 0.0
48 C52340 0.746798573917608 0.902638144792327 0.716176011942915 C 0.0 **** 0.0
49 S52341 0.739698612123658 0.883518248227082 0.70815660046635 S 0.0 **** 0.0
50 C52346 0.734902153524261 0.915011567685291 0.718783244470991 C 0.0 **** 0.0
51 C52347 0.739682341197099 0.931066144527344 0.725011640766412 C 0.0 **** 0.0
52 C52348 0.756773313089891 0.933765933615734 0.729322857918923 C 0.0 **** 0.0
53 C52349 0.768662880069459 0.92092501830834 0.726659811612532 C 0.0 **** 0.0
54 C52355 0.761776953398941 0.949792535249946 0.734703189254926 C 0.0 **** 0.0
55 C52356 0.750345897926702 0.963289713577709 0.735513485126686 C 0.0 **** 0.0
56 C52357 0.732994162538336 0.960797652089713 0.731856531271001 C 0.0 **** 0.0
57 C52358 0.728176690963716 0.94454941884516 0.72642855015528 C 0.0 **** 0.0
58 C52364 0.721548677956271 0.974157351704455 0.734435958355871 C 0.0 **** 0.0
59 C52365 0.727366722342802 0.989263107648221 0.741169797824107 C 0.0 **** 0.0
60 C52366 0.744721027747025 0.992359748416115 0.743611373958142 C 0.0 **** 0.0
61 C52367 0.75610674349583 0.979205172001803 0.740278052494383 C 0.0 **** 0.0
62 C52373 0.785683375941053 0.924502104147203 0.729806940871323 C 0.0 **** 0.0
63 C52374 0.797926143550904 0.915588442626712 0.720452081226134 C 0.0 **** 0.0
64 C52378 0.778562288587267 0.952334170681179 0.739408411436004 C 0.0 **** 0.0
65 C52379 0.789930181445567 0.938878196894699 0.739377521090009 C 0.0 **** 0.0
66 C52383 0.773318439462744 0.981923540371378 0.742835987434524 C 0.0 **** 0.0
67 C52384 0.784266039585445 0.968193973839159 0.743824772146047 C 0.0 **** 0.0
68 C52388 0.750976568131394 1.00817169766236 0.749514246773009 C 0.0 **** 0.0
69 C52389 0.768310211162647 1.01158785510905 0.747820209003519 C 0.0 **** 0.0
70 C52390 0.779493280528275 0.998150286173705 0.745593460325053 C 0.0 **** 0.0
71 O52395 0.715584726529214 1.00187698205202 0.744658111875123 O 0.0 **** 0.0
72 C52396 0.702240588935322 0.995897059157883 0.755456454688058 C 0.0 **** 0.0
73 C52397 0.695615702064394 0.978214966660062 0.749618653936566 C 0.0 **** 0.0
74 C52398 0.702490109852846 0.974734690721009 0.731737072751293 C 0.0 **** 0.0
75 C52404 0.676318615140356 0.976787473995892 0.750773881080526 C 0.0 **** 0.0
76 C52405 0.669864019825266 0.984964411616803 0.767027780249784 C 0.0 **** 0.0
77 C52406 0.672066042586536 1.00426283015398 0.766096018163804 C 0.0 **** 0.0
78 C52407 0.688224033448212 1.0095991884416 0.755991555561587 C 0.0 **** 0.0
79 C52413 0.694908174505135 1.02711876570303 0.761574389084911 C 0.0 **** 0.0
80 C52414 0.680080502117206 1.03813583749985 0.767369854553696 C 0.0 **** 0.0
81 C52415 0.670707048218022 1.03045591955187 0.782743138306066 C 0.0 **** 0.0
82 N52416 0.670365935198384 1.0117933922513 0.782746864960673 N 0.0 **** 0.0
83 C52422 0.805584952398946 0.940119013376238 0.747902662210114 C 0.0 **** 0.0
84 C52423 0.811469122250082 0.955948959473308 0.752613321997415 C 0.0 **** 0.0
85 C52424 0.801032162632454 0.970131120966152 0.74941101344106 C 0.0 **** 0.0
86 O52429 0.827191334561813 0.958404168136096 0.760021069097833 O 0.0 **** 0.0
87 C52430 0.837602460779415 0.943595122511702 0.759515495748126 C 0.0 **** 0.0
88 C52431 0.827379351488445 0.928105553934722 0.763490398423887 C 0.0 **** 0.0
89 O52432 0.814814328749317 0.925558091975005 0.750839727239223 O 0.0 **** 0.0
90 C52438 0.819670605944732 0.928497374639236 0.781512611172934 C 0.0 **** 0.0
91 C52439 0.830523994303953 0.938803665556797 0.794008561112638 C 0.0 **** 0.0
92 C52440 0.849262198469596 0.937386179181199 0.789262413234906 C 0.0 **** 0.0
93 C52441 0.852546451773027 0.945659465877181 0.771848663938676 C 0.0 **** 0.0
94 C52447 0.796918743330077 1.00056365473911 0.749090330084396 C 0.0 **** 0.0
95 C52448 0.807453571359312 0.98645154083918 0.751524643569951 C 0.0 **** 0.0
96 C52452 0.774637390894318 1.0272182267294 0.753042085826139 C 0.0 **** 0.0
97 C52453 0.792171359999801 1.03040407201429 0.75260388971477 C 0.0 **** 0.0
98 C52454 0.803177210578811 1.01704521385239 0.751449095026249 C 0.0 **** 0.0
99 C52459 0.76475008811316 1.03805729093145 0.763336694207966 C 0.0 **** 0.0
100 C52460 0.748459217692156 1.03344654122121 0.767686361661229 C 0.0 **** 0.0
101 C52461 0.741647419739286 1.01941774782866 0.759908649803271 C 0.0 **** 0.0
102 O52466 0.79810551442652 1.0465330088517 0.755271196548563 O 0.0 **** 0.0
103 C52467 0.790369984797074 1.05508971855673 0.768239936182685 C 0.0 **** 0.0
104 C52468 0.7737562591266 1.05223530309633 0.772133872184518 C 0.0 **** 0.0
105 C52473 0.737810962263253 1.04295742826132 0.780566484542407 C 0.0 **** 0.0
106 C52474 0.747141548533084 1.05900322612389 0.788800258455799 C 0.0 **** 0.0
107 C52475 0.765973680217068 1.06118798676506 0.784698194781753 C 0.0 **** 0.0
108 C52480 0.744466836252966 1.05942999145371 0.808183046911764 C 0.0 **** 0.0
109 C52481 0.725887909176762 1.05640712715765 0.813212865000139 C 0.0 **** 0.0
110 C52482 0.719197042755048 1.03932379255769 0.806418317493421 C 0.0 **** 0.0
111 C52483 0.731791661534205 1.03066919110803 0.794442108100553 C 0.0 **** 0.0
112 C52489 0.775407080659095 1.0723154176909 0.794052781015524 C 0.0 **** 0.0
113 C52490 0.792204349705237 1.07481603750687 0.790355970635187 C 0.0 **** 0.0
114 C52491 0.799595227506746 1.06643173609448 0.777280445166879 C 0.0 **** 0.0
115 C52496 0.751951689515727 1.07573969366195 0.815302935276686 C 0.0 **** 0.0
116 C52498 0.767271395216165 1.08131308393186 0.808777745741626 C 0.0 **** 0.0
117 C52501 0.736571825538712 0.829952188774201 0.750754553519865 C 0.0 **** 0.0
118 C52503 0.735075682862561 0.849278857619591 0.751430975947145 C 0.0 **** 0.0
119 C52505 0.726290484701288 0.822339758716056 0.76533428263995 C 0.0 **** 0.0
120 O52507 0.69534571920854 0.960426435502805 0.723648446946497 O 0.0 **** 0.0
121 C52509 0.81626538020578 1.06898607660565 0.773458711381222 C 0.0 **** 0.0
122 C52510 0.826024987038055 1.07893113560229 0.783494118483162 C 0.0 **** 0.0
123 C52511 0.818962301954109 1.08682431926317 0.797072117632489 C 0.0 **** 0.0
124 C52512 0.801918805137326 1.08538622709413 0.799940513561058 C 0.0 **** 0.0
125 C52518 0.794125811985025 1.09484452982648 0.814089640873493 C 0.0 **** 0.0
126 C52519 0.804623281583412 1.10321010214798 0.824946717848573 C 0.0 **** 0.0
127 C52520 0.823079982753512 1.10307555658951 0.821940104600736 C 0.0 **** 0.0
128 C52521 0.829494365141004 1.09558409446579 0.80776190388248 C 0.0 **** 0.0
129 C52527 0.833645173353939 1.10981778544508 0.833775483496217 C 0.0 **** 0.0
130 C52528 0.827443799159159 1.11703020302155 0.84822569628291 C 0.0 **** 0.0
131 C52529 0.810456093457227 1.11817203962773 0.851259037056514 C 0.0 **** 0.0
132 C52530 0.798278346782487 1.11092388432928 0.83903818827678 C 0.0 **** 0.0
133 C52536 0.780916636292828 1.11046748021391 0.842697067336274 C 0.0 **** 0.0
134 C52537 0.770106410789148 1.10179823940249 0.831640956012484 C 0.0 **** 0.0
135 C52538 0.776751014875076 1.09357283295399 0.817407663537848 C 0.0 **** 0.0
136 C52543 0.774894065106079 1.11650888985099 0.858233973234299 C 0.0 **** 0.0
137 C52544 0.787838222657776 1.12534142032098 0.869312888545407 C 0.0 **** 0.0
138 C52545 0.804705641766616 1.12537618112886 0.865789209393242 C 0.0 **** 0.0
139 C52550 0.745144041852249 1.08444322185523 0.828767453114321 C 0.0 **** 0.0
140 C52551 0.753612911191165 1.09804216195017 0.836946795256076 C 0.0 **** 0.0
141 C52556 0.758136415298396 1.11374276244299 0.862842018149577 C 0.0 **** 0.0
142 C52557 0.747223036881218 1.10533127081614 0.851885246645292 C 0.0 **** 0.0
143 C52561 0.728785605164256 1.10234640930599 0.856537213354038 C 0.0 **** 0.0
144 C52562 0.721846506236416 1.11770628889434 0.865952732784985 C 0.0 **** 0.0
145 C52563 0.73251945776524 1.12060299485393 0.881532674796469 C 0.0 **** 0.0
146 C52564 0.751382394576879 1.11939263526547 0.879634683051194 C 0.0 **** 0.0
147 O52570 0.759927449747188 1.12245575294898 0.892007770918137 O 0.0 **** 0.0
148 H52572 0.887553150631911 0.759805465912782 0.684463930697327 H 0.0 **** 0.0
149 H52574 0.886969443886852 0.768293247830182 0.705147146338886 H 0.0 **** 0.0
150 H52576 0.862227601758057 0.746838845525203 0.694208520541294 H 0.0 **** 0.0
151 H52578 0.857554992135417 0.763448298814889 0.708274109237541 H 0.0 **** 0.0
152 H52580 0.853909867202338 0.765025260893601 0.669971110395349 H 0.0 **** 0.0
153 H52582 0.849624819560738 0.792980829570902 0.67046104683381 H 0.0 **** 0.0
154 H52584 0.866134187904658 0.793937293789682 0.705348142024088 H 0.0 **** 0.0
155 H52586 0.869688766876498 0.8073750211301 0.687867934742339 H 0.0 **** 0.0
156 H52588 0.833647279441628 0.789599496865699 0.705167283100965 H 0.0 **** 0.0
157 H52590 0.80703814423217 0.791519854232924 0.692177243791013 H 0.0 **** 0.0
158 H52592 0.822861437966003 0.774072570463406 0.662420156043199 H 0.0 **** 0.0
159 H52594 0.806238372022377 0.766632729225324 0.675086587625762 H 0.0 **** 0.0
160 H52596 0.830952884749722 0.74836971496735 0.679877749916696 H 0.0 **** 0.0
161 H52598 0.828097299367981 0.760654946002585 0.698315679579417 H 0.0 **** 0.0
162 H52600 0.812351215994832 0.824404051906026 0.659002859523791 H 0.0 **** 0.0
163 H52602 0.840750092707957 0.820239960762018 0.669387814358535 H 0.0 **** 0.0
164 H52604 0.825668089088051 0.81861656802749 0.704947161959133 H 0.0 **** 0.0
165 H52606 0.847297931537447 0.818779434317955 0.700456048059673 H 0.0 **** 0.0
166 H52608 0.801249059285651 0.819357750551576 0.695705708936938 H 0.0 **** 0.0
167 H52610 0.833579812858635 0.892011241490161 0.686583010410479 H 0.0 **** 0.0
168 H52612 0.84110386518923 0.877805274391754 0.701881511435792 H 0.0 **** 0.0
169 H52614 0.860608179136275 0.874852212313828 0.679056564597913 H 0.0 **** 0.0
170 H52616 0.844563856864505 0.875335145469432 0.663533441257269 H 0.0 **** 0.0
171 H52618 0.858125827173392 0.84532011355014 0.671794363845376 H 0.0 **** 0.0
172 H52620 0.773449061499517 0.825589148303849 0.703312047757087 H 0.0 **** 0.0
173 H52621 0.755361852324843 0.818020248855677 0.648631669918867 H 0.0 **** 0.0
174 H52623 0.757574269605411 0.796581811722198 0.654735215083677 H 0.0 **** 0.0
175 H52625 0.786695804337219 0.808128942329339 0.654989336627297 H 0.0 **** 0.0
176 H52627 0.725863217034871 0.80665540671843 0.657456213329544 H 0.0 **** 0.0
177 H52629 0.732453237172701 0.789864973128792 0.670712164967684 H 0.0 **** 0.0
178 H52631 0.708267618428195 0.797021713986363 0.685389828916308 H 0.0 **** 0.0
179 H52633 0.707994433954771 0.817970576410955 0.677547573485219 H 0.0 **** 0.0
180 H52635 0.756782134259849 0.823641952665756 0.722898018240675 H 0.0 **** 0.0
181 H52637 0.743934737843592 0.841373542225904 0.718763377296451 H 0.0 **** 0.0
182 H52639 0.732963868323925 0.808199994716874 0.734999309898025 H 0.0 **** 0.0
183 H52641 0.712344768157137 0.839410778886982 0.725178678659721 H 0.0 **** 0.0
184 H52643 0.704500226936853 0.822993374372969 0.7381808424383 H 0.0 **** 0.0
185 H52645 0.69761174328735 0.820540629626048 0.706490591455602 H 0.0 **** 0.0
186 H52647 0.706135295688278 0.802357092322605 0.716323105492826 H 0.0 **** 0.0
187 H52649 0.741979190426432 0.853035790721349 0.691285007082354 H 0.0 **** 0.0
188 H52651 0.721647858371011 0.912727810506613 0.715565255976535 H 0.0 **** 0.0
189 H52653 0.715083307320712 0.941650214159554 0.723114390746771 H 0.0 **** 0.0
190 H52655 0.811177960338263 0.919694720985869 0.720468869086418 H 0.0 **** 0.0
191 H52657 0.707499933932351 0.994666114290994 0.768305918956813 H 0.0 **** 0.0
192 H52659 0.700682447838915 0.968310453724308 0.758109278473318 H 0.0 **** 0.0
193 H52661 0.699555069138183 0.985822337237468 0.723679636023748 H 0.0 **** 0.0
194 H52663 0.670802682212425 0.983378059340394 0.739881933320996 H 0.0 **** 0.0
195 H52665 0.672526546959601 0.963423312985931 0.749952510700585 H 0.0 **** 0.0
196 H52667 0.677010490172783 0.979816613528528 0.777839773538759 H 0.0 **** 0.0
197 H52669 0.656464191057892 0.981910441242799 0.769352631974414 H 0.0 **** 0.0
198 H52671 0.661193933452772 1.00905251460137 0.758770702158854 H 0.0 **** 0.0
199 H52673 0.684142992539432 1.01088911246775 0.742694818179378 H 0.0 **** 0.0
200 H52675 0.703642874646594 1.02563932009339 0.772298053595311 H 0.0 **** 0.0
201 H52677 0.702063093562075 1.03317461686319 0.751269827727462 H 0.0 **** 0.0
202 H52679 0.671209918939163 1.03927378768592 0.75671410579481 H 0.0 **** 0.0
203 H52681 0.684049740616266 1.05112816212353 0.770424221124186 H 0.0 **** 0.0
204 H52683 0.657590010044305 1.03516397807173 0.783160429092908 H 0.0 **** 0.0
205 H52685 0.676771450413119 1.03477634982453 0.794502861816304 H 0.0 **** 0.0
206 H52687 0.678839965594464 1.00698951031732 0.790841646903577 H 0.0 **** 0.0
207 H52689 0.842330989663977 0.942414083935404 0.746455420500212 H 0.0 **** 0.0
208 H52691 0.836072443465259 0.917215573857387 0.762899283775938 H 0.0 **** 0.0
209 H52693 0.806842589669085 0.933824856498864 0.780881108786692 H 0.0 **** 0.0
210 H52695 0.818139351593205 0.915452310336057 0.786185079662287 H 0.0 **** 0.0
211 H52697 0.828096141739877 0.934694644426178 0.80708181626379 H 0.0 **** 0.0
212 H52699 0.826801538179618 0.952231011568251 0.793441005529638 H 0.0 **** 0.0
213 H52701 0.852756352825 0.923885348547991 0.788826806857899 H 0.0 **** 0.0
214 H52703 0.8574643869731 0.943202563291002 0.798879144821585 H 0.0 **** 0.0
215 H52705 0.864463228459876 0.94080448908943 0.76652340022401 H 0.0 **** 0.0
216 H52707 0.854349043012392 0.959290591598191 0.773727151567361 H 0.0 **** 0.0
217 H52709 0.82070322178601 0.988174034944208 0.755192569810937 H 0.0 **** 0.0
218 H52711 0.81672371697496 1.01868303699538 0.753607824017104 H 0.0 **** 0.0
219 H52713 0.728611422941154 1.01641588061113 0.763301277544632 H 0.0 **** 0.0
220 H52715 0.726453786031579 1.04788171273223 0.774089850079847 H 0.0 **** 0.0
221 H52717 0.740689383483669 1.07022682764901 0.783559250516469 H 0.0 **** 0.0
222 H52719 0.751883450347802 1.04896117297279 0.813792214073894 H 0.0 **** 0.0
223 H52721 0.718036465740809 1.06676119075165 0.808272356073464 H 0.0 **** 0.0
224 H52723 0.72446972260548 1.05650454096197 0.827056693886041 H 0.0 **** 0.0
225 H52725 0.70719307167127 1.04134040135766 0.79963909196652 H 0.0 **** 0.0
226 H52727 0.716187359218985 1.030770964371 0.816987370030835 H 0.0 **** 0.0
227 H52729 0.725736795295236 1.01927413145496 0.789216857331596 H 0.0 **** 0.0
228 H52731 0.742825985383847 1.02610030310846 0.801651476718415 H 0.0 **** 0.0
229 H52733 0.749962555145145 0.826768930492419 0.753105350931324 H 0.0 **** 0.0
230 H52735 0.738641310191109 0.853893644903745 0.764061026386586 H 0.0 **** 0.0
231 H52737 0.722019759947041 0.853406761358909 0.749004968347095 H 0.0 **** 0.0
232 H52739 0.743367543062392 0.855625786310116 0.742246632824995 H 0.0 **** 0.0
233 H52741 0.727080390368007 0.808450589366533 0.765517954392619 H 0.0 **** 0.0
234 H52743 0.712859757325347 0.825844881775592 0.764421138452168 H 0.0 **** 0.0
235 H52745 0.730982109573659 0.826978041770222 0.777594674588837 H 0.0 **** 0.0
236 H52747 0.683651122453069 0.962975067695628 0.722375979643396 H 0.0 **** 0.0
237 H52749 0.822210797931986 1.06278046019127 0.762703487447772 H 0.0 **** 0.0
238 H52751 0.839460450720475 1.08014818238784 0.780562156566284 H 0.0 **** 0.0
239 H52753 0.843105046056555 1.09586500134079 0.805408250229911 H 0.0 **** 0.0
240 H52755 0.847308442619952 1.10913368210041 0.832185658206561 H 0.0 **** 0.0
241 H52757 0.836584889080821 1.12150527341069 0.857497369294085 H 0.0 **** 0.0
242 H52759 0.783750942719506 1.13178280666663 0.880731147703715 H 0.0 **** 0.0
243 H52761 0.813339300572168 1.13092716481444 0.874936274014109 H 0.0 **** 0.0
244 H52763 0.733042128933836 1.08004175288563 0.833856487890573 H 0.0 **** 0.0
245 H52765 0.721030622705343 1.10032737981879 0.845173154683635 H 0.0 **** 0.0
246 H52767 0.727543404463264 1.09090871917599 0.864455916475583 H 0.0 **** 0.0
247 H52769 0.70856674446947 1.11569833709905 0.869541347091497 H 0.0 **** 0.0
248 H52771 0.722170215216015 1.12883837775985 0.857563389966459 H 0.0 **** 0.0
249 H52773 0.729964336495038 1.11119235218817 0.891472048444916 H 0.0 **** 0.0
250 H52775 0.731070698343318 1.13304890902858 0.887482132731473 H 0.0 **** 0.0
@<TRIPOS>BOND
1 3 2 1
2 4 3 1
3 5 4 1
4 6 5 1
5 1 2 1
6 1 6 1
7 8 7 1
8 9 8 1
9 10 9 1
10 4 7 1
11 3 10 1
12 12 11 1
13 13 12 1
14 14 13 1
15 8 11 1
16 7 14 1
17 16 15 1
18 17 16 Partial double
19 18 17 1
20 13 15 1
21 12 18 1
22 20 19 Partial double
23 21 20 Partial double
24 22 21 Partial double
25 17 19 Partial double
26 16 22 Partial double
27 24 23 1
28 25 24 1
29 15 25 Double
30 22 23 1
31 27 26 1
32 28 27 Partial double
33 29 28 Partial double
34 21 26 1
35 20 29 Partial double
36 31 30 1
37 32 31 1
38 18 30 1
39 19 32 1
40 34 33 Double
41 35 34 1
42 36 35 1
43 31 33 1
44 30 36 Double
45 38 37 1
46 39 38 1
47 40 39 Double
48 34 37 1
49 33 40 1
50 42 41 1
51 43 42 1
52 44 43 1
53 40 41 1
54 39 44 1
55 46 45 Partial double
56 32 46 1
57 29 45 Partial double
58 48 47 Partial double
59 49 48 1
60 45 49 Partial double
61 28 47 Partial double
62 51 50 Partial double
63 52 51 Partial double
64 53 52 Partial double
65 48 50 Partial double
66 47 53 Partial double
67 55 54 Partial double
68 56 55 Partial double
69 57 56 Partial double
70 52 54 Partial double
71 51 57 Partial double
72 59 58 Partial double
73 60 59 Partial double
74 61 60 Partial double
75 56 58 Partial double
76 55 61 Partial double
77 63 62 Partial double
78 27 63 Partial double
79 53 62 Partial double
80 65 64 Partial double
81 62 65 Partial double
82 54 64 Partial double
83 67 66 Partial double
84 64 67 Partial double
85 61 66 Partial double
86 69 68 Partial double
87 70 69 Partial double
88 66 70 Partial double
89 60 68 Partial double
90 72 71 1
91 73 72 1
92 74 73 1
93 59 71 1
94 58 74 1
95 76 75 1
96 77 76 1
97 78 77 1
98 73 75 1
99 72 78 1
100 80 79 1
101 81 80 1
102 82 81 1
103 78 79 1
104 77 82 1
105 84 83 Partial double
106 85 84 Partial double
107 67 85 Partial double
108 65 83 Partial double
109 87 86 1
110 88 87 1
111 89 88 1
112 84 86 1
113 83 89 1
114 91 90 1
115 92 91 1
116 93 92 1
117 88 90 1
118 87 93 1
119 95 94 Partial double
120 85 95 Partial double
121 70 94 Partial double
122 97 96 Partial double
123 98 97 Partial double
124 94 98 Partial double
125 69 96 Partial double
126 100 99 Partial double
127 101 100 Partial double
128 68 101 Partial double
129 96 99 Partial double
130 103 102 1
131 104 103 Partial double
132 97 102 1
133 99 104 1
134 106 105 1
135 107 106 1
136 100 105 1
137 104 107 Partial double
138 109 108 1
139 110 109 1
140 111 110 1
141 106 108 1
142 105 111 1
143 113 112 1
144 114 113 1
145 103 114 Partial double
146 107 112 Partial double
147 108 115 1
148 112 116 Partial double
149 115 116 Partial double
150 42 117 1
151 117 118 1
152 117 119 1
153 74 120 1
154 122 121 1
155 123 122 Partial double
156 124 123 1
157 114 121 Partial double
158 113 124 Partial double
159 126 125 Partial double
160 127 126 1
161 128 127 Partial double
162 124 125 Partial double
163 123 128 Partial double
164 130 129 Partial double
165 131 130 1
166 132 131 1
167 127 129 Partial double
168 126 132 Partial double
169 134 133 Partial double
170 135 134 Partial double
171 125 135 Partial double
172 132 133 Partial double
173 137 136 Partial double
174 138 137 Partial double
175 131 138 Partial double
176 133 136 Partial double
177 140 139 Partial double
178 134 140 Partial double
179 116 135 Partial double
180 115 139 Partial double
181 142 141 Partial double
182 140 142 Partial double
183 136 141 Partial double
184 144 143 1
185 145 144 1
186 146 145 1
187 142 143 1
188 141 146 1
189 146 147 Double
190 1 148 1
191 1 149 1
192 2 150 1
193 2 151 1
194 3 152 1
195 4 153 1
196 5 154 1
197 5 155 1
198 7 156 1
199 8 157 1
200 9 158 1
201 9 159 1
202 10 160 1
203 10 161 1
204 12 162 1
205 13 163 1
206 14 164 1
207 14 165 1
208 18 166 1
209 23 167 1
210 23 168 1
211 24 169 1
212 24 170 1
213 25 171 1
214 35 173 1
215 35 174 1
216 36 175 1
217 37 176 1
218 37 177 1
219 38 178 1
220 38 179 1
221 41 180 1
222 41 181 1
223 42 182 1
224 43 183 1
225 43 184 1
226 44 185 1
227 44 186 1
228 46 187 1
229 50 188 1
230 57 189 1
231 63 190 1
232 72 191 1
233 73 192 1
234 74 193 1
235 75 194 1
236 75 195 1
237 76 196 1
238 76 197 1
239 77 198 1
240 78 199 1
241 79 200 1
242 79 201 1
243 80 202 1
244 80 203 1
245 81 204 1
246 81 205 1
247 82 206 1
248 87 207 1
249 88 208 1
250 90 209 1
251 90 210 1
252 91 211 1
253 91 212 1
254 92 213 1
255 92 214 1
256 93 215 1
257 93 216 1
258 95 217 1
259 98 218 1
260 101 219 1
261 105 220 1
262 106 221 1
263 108 222 1
264 109 223 1
265 109 224 1
266 110 225 1
267 110 226 1
268 111 227 1
269 111 228 1
270 117 229 1
271 118 230 1
272 118 231 1
273 118 232 1
274 119 233 1
275 119 234 1
276 119 235 1
277 120 236 1
278 121 237 1
279 122 238 1
280 128 239 1
281 129 240 1
282 130 241 1
283 137 242 1
284 138 243 1
285 139 244 1
286 143 245 1
287 143 246 1
288 144 247 1
289 144 248 1
290 145 249 1
291 145 250 1
292 31 172 1
@<TRIPOS>MOLECULE
Sketch 4
250 292
SMALL
USER_CHARGES


@<TRIPOS>ATOM
1 C52778 0.0821152068568695 0.714707123295613 0.552616020279292 C 0.0 **** 0.0
2 C52779 0.0846314418092783 0.697899063950141 0.562462509384906 C 0.0 **** 0.0
3 C52780 0.0693918406111417 0.685917648328199 0.559768960855635 C 0.0 **** 0.0
4 C52781 0.0530215472142139 0.696530632783107 0.559718355782863 C 0.0 **** 0.0
5 C52782 0.0539525934436389 0.709986016360085 0.545354710504424 C 0.0 **** 0.0
6 O52783 0.0706487068177451 0.712487676516027 0.53900073743534 O 0.0 **** 0.0
7 C52790 0.0496528971783853 0.704559494994833 0.577390369504185 C 0.0 **** 0.0
8 C52791 0.0548291207158321 0.692756612361988 0.592420467232879 C 0.0 **** 0.0
9 C52792 0.0558741450400256 0.674264114170481 0.586911045571645 C 0.0 **** 0.0
10 C52793 0.0685335834216496 0.671086721087619 0.572513145252444 C 0.0 **** 0.0
11 O52799 0.0431271647271102 0.693127612615426 0.606170281891007 O 0.0 **** 0.0
12 C52800 0.0378519557319533 0.709835104220255 0.610697899454558 C 0.0 **** 0.0
13 C52801 0.0258651558302934 0.716740051707118 0.596804359901346 C 0.0 **** 0.0
14 C52802 0.0309405868055919 0.709355901345417 0.579193803133849 C 0.0 **** 0.0
15 C52808 0.0235010828743077 0.735749858705787 0.596725545499357 C 0.0 **** 0.0
16 C52809 0.0317354179296372 0.745893475869151 0.610535649837903 C 0.0 **** 0.0
17 C52810 0.0450900890060548 0.739158716157778 0.61974898500988 C 0.0 **** 0.0
18 C52811 0.0523432940837628 0.721923041213797 0.614995019637673 C 0.0 **** 0.0
19 C52817 0.0524165610928205 0.748791319032863 0.632467066226689 C 0.0 **** 0.0
20 C52818 0.0464638016784755 0.764993713450304 0.635397365948798 C 0.0 **** 0.0
21 C52819 0.0331386549431259 0.771680975527884 0.626151760020523 C 0.0 **** 0.0
22 C52820 0.0256942735063624 0.76207025872389 0.613552634568016 C 0.0 **** 0.0
23 C52826 0.0109932465928525 0.769290955215655 0.603586444541848 C 0.0 **** 0.0
24 C52827 0.0106361372927315 0.762238265697652 0.585361059963024 C 0.0 **** 0.0
25 C52828 0.0135201471545664 0.74336842106265 0.585188374017211 C 0.0 **** 0.0
26 O52833 0.0270972683646982 0.78787705143417 0.629098802082112 O 0.0 **** 0.0
27 C52834 0.0322364661445138 0.796255499457974 0.643492301391425 C 0.0 **** 0.0
28 C52835 0.0462500789768989 0.791538607916387 0.652802151556577 C 0.0 **** 0.0
29 C52836 0.0553452154591376 0.775704671659598 0.64806032610082 C 0.0 **** 0.0
30 C52842 0.0642917057110869 0.715788508511157 0.628598355054472 C 0.0 **** 0.0
31 C52843 0.0773396904019341 0.729179556131149 0.632792685705021 C 0.0 **** 0.0
32 C52844 0.0667873810096711 0.741911713729693 0.643147057845823 C 0.0 **** 0.0
33 C52849 0.0931310920256499 0.722538692657016 0.642341507322687 C 0.0 **** 0.0
34 C52850 0.0913422889166594 0.707899595170385 0.651337233503969 C 0.0 **** 0.0
35 C52851 0.0756119056166128 0.696923074710181 0.651161870139978 C 0.0 **** 0.0
36 C52852 0.0632151384047166 0.701292820984414 0.637337973142808 C 0.0 **** 0.0
37 C52858 0.105177453272069 0.69969870799426 0.661350155898827 C 0.0 **** 0.0
38 C52859 0.121236074245393 0.710509983655004 0.662997651623049 C 0.0 **** 0.0
39 C52860 0.121832104511137 0.725257887097154 0.651054576138899 C 0.0 **** 0.0
40 C52861 0.108440799231574 0.730634652211286 0.64155571431769 C 0.0 **** 0.0
41 C52867 0.111422653312364 0.746149163166133 0.63004830209366 C 0.0 **** 0.0
42 C52868 0.129945428340482 0.748614351468824 0.625325806858777 C 0.0 **** 0.0
43 C52869 0.140195243841961 0.749945705207169 0.641773852408203 C 0.0 **** 0.0
44 C52870 0.139105189182428 0.733390615130829 0.651592805150502 C 0.0 **** 0.0
45 C52876 0.0703591139082877 0.771108155599593 0.65487477292161 C 0.0 **** 0.0
46 C52877 0.0768163252450179 0.755352567984924 0.652576095864267 C 0.0 **** 0.0
47 C52881 0.0513777721590414 0.801561449295876 0.666581839935017 C 0.0 **** 0.0
48 C52882 0.0673536552475761 0.79948741442778 0.674440417983905 C 0.0 **** 0.0
49 S52883 0.0822102053517811 0.785678209347943 0.666251925402249 S 0.0 **** 0.0
50 C52888 0.0725434885369889 0.809587238884632 0.68743144987429 C 0.0 **** 0.0
51 C52889 0.06164176348205 0.822244705368472 0.693596027110202 C 0.0 **** 0.0
52 C52890 0.0453325235305091 0.8241118732276 0.68642932738562 C 0.0 **** 0.0
53 C52891 0.0406018806493982 0.814539249739801 0.672425689710695 C 0.0 **** 0.0
54 C52897 0.0346006836965932 0.836398102129704 0.692928773345909 C 0.0 **** 0.0
55 C52898 0.0403502230486358 0.847801768113867 0.705275809752933 C 0.0 **** 0.0
56 C52899 0.0568152636433193 0.846543172180589 0.712200552115676 C 0.0 **** 0.0
57 C52900 0.0671673132855554 0.833506464564381 0.706137224338402 C 0.0 **** 0.0
58 C52906 0.0625943403871778 0.858985777681324 0.723394610336173 C 0.0 **** 0.0
59 C52907 0.0533395582215992 0.873763276141713 0.725093793782283 C 0.0 **** 0.0
60 C52908 0.0364464337234695 0.874708829365141 0.719459601033571 C 0.0 **** 0.0
61 C52909 0.0299491121002245 0.860938343749751 0.710393803295708 C 0.0 **** 0.0
62 C52915 0.0254037528017586 0.818332466945255 0.663878490805557 C 0.0 **** 0.0
63 C52916 0.0227167739711955 0.809886120359337 0.648507387788089 C 0.0 **** 0.0
64 C52920 0.0182278133636519 0.837777508900034 0.686592297565077 C 0.0 **** 0.0
65 C52921 0.0134070723280671 0.829409387469555 0.671707657350996 C 0.0 **** 0.0
66 C52925 0.0128464891547031 0.860356026001888 0.706282236012166 C 0.0 **** 0.0
67 C52926 0.00697018486428737 0.848315259831253 0.694772445991173 C 0.0 **** 0.0
68 C52930 0.0253913616076666 0.888213385416937 0.723813762370702 C 0.0 **** 0.0
69 C52931 0.0078659023637314 0.885600836593926 0.722395085434036 C 0.0 **** 0.0
70 C52932 0.00168814242585775 0.87191149116486 0.713391600002355 C 0.0 **** 0.0
71 O52937 0.060980421938107 0.887116136057857 0.733558088378605 O 0.0 **** 0.0
72 C52938 0.0773003332785853 0.890719139557299 0.726233468859446 C 0.0 **** 0.0
73 C52939 0.0886569175583145 0.874480076920032 0.724412161683387 C 0.0 **** 0.0
74 C52940 0.0792473379816195 0.859893594647142 0.732904548140077 C 0.0 **** 0.0
75 C52946 0.106986468443889 0.877361213848987 0.730429921798563 C 0.0 **** 0.0
76 C52947 0.113226956661486 0.894009176562896 0.722792487758216 C 0.0 **** 0.0
77 C52948 0.103989241420878 0.909206676863516 0.730771078870218 C 0.0 **** 0.0
78 C52949 0.0858633215931514 0.904631543927441 0.736903515990505 C 0.0 **** 0.0
79 C52955 0.0745451188816926 0.920387503981428 0.739327724757412 C 0.0 **** 0.0
80 C52956 0.0856227636036999 0.936032450534935 0.741765293259596 C 0.0 **** 0.0
81 C52957 0.0960353877138621 0.939251217695144 0.725644009123874 C 0.0 **** 0.0
82 N52958 0.105284599314339 0.923952843220299 0.719750618839124 N 0.0 **** 0.0
83 C52964 -0.00329447506430619 0.831611904429716 0.665534482754492 C 0.0 **** 0.0
84 C52965 -0.0154244721830777 0.839517537204213 0.675537832220717 C 0.0 **** 0.0
85 C52966 -0.0102252663659077 0.847741558290441 0.6905620459577 C 0.0 **** 0.0
86 O52971 -0.0323610570972584 0.840610399196752 0.670852425804919 O 0.0 **** 0.0
87 C52972 -0.0366583109228725 0.829273310245241 0.657422909340617 C 0.0 **** 0.0
88 C52973 -0.0237506408385074 0.830783377452558 0.643730882847576 C 0.0 **** 0.0
89 O52974 -0.00776968233001684 0.825243470265053 0.649858113853347 O 0.0 **** 0.0
90 C52980 -0.0230338141547573 0.848846103096849 0.636199325522009 C 0.0 **** 0.0
91 C52981 -0.0405930819047312 0.857422520139606 0.635648199946525 C 0.0 **** 0.0
92 C52982 -0.0547038175258576 0.84415248057252 0.634763000679328 C 0.0 **** 0.0
93 C52983 -0.0545850288485095 0.832790437423885 0.650666040562946 C 0.0 **** 0.0
94 C52989 -0.015974566533982 0.869948171709042 0.711207429305332 C 0.0 **** 0.0
95 C52990 -0.0217743956644016 0.85734142058529 0.699963396572833 C 0.0 **** 0.0
96 C52994 -0.00330871833006465 0.897452723321397 0.729214239890913 C 0.0 **** 0.0
97 C52995 -0.0209203641244112 0.894503847676026 0.728908044669172 C 0.0 **** 0.0
98 C52996 -0.0270818150789711 0.881091878515664 0.719736049075653 C 0.0 **** 0.0
99 C53001 0.00266080303506887 0.913182585386665 0.735001202419817 C 0.0 **** 0.0
100 C53002 0.0196960470090977 0.917032315861704 0.73406018477642 C 0.0 **** 0.0
101 C53003 0.0306463794964097 0.904439394422443 0.729054256807477 C 0.0 **** 0.0
102 O53008 -0.0320545513919276 0.905009542651862 0.737258567723614 O 0.0 **** 0.0
103 C53009 -0.0267257745553732 0.921048086491697 0.741654179934947 C 0.0 **** 0.0
104 C53010 -0.0101023444111358 0.925782906542821 0.740839255675067 C 0.0 **** 0.0
105 C53015 0.0269490519896562 0.934320007176315 0.738227453172498 C 0.0 **** 0.0
106 C53016 0.0134262819828256 0.947082972243735 0.746099559487587 C 0.0 **** 0.0
107 C53017 -0.0051400461316915 0.941694042668476 0.745398238274341 C 0.0 **** 0.0
108 C53022 0.0155177737344926 0.965118149285843 0.738779993222215 C 0.0 **** 0.0
109 C53023 0.0342732465779062 0.97020591398229 0.738246715759455 C 0.0 **** 0.0
110 C53024 0.0440026116628818 0.958802880012759 0.725696799450826 C 0.0 **** 0.0
111 C53025 0.0349125907740128 0.94192164381928 0.722238280044794 C 0.0 **** 0.0
112 C53031 -0.0171478151311373 0.953275739029798 0.749854422880667 C 0.0 **** 0.0
113 C53032 -0.0337264344585989 0.948348443918729 0.751434759033043 C 0.0 **** 0.0
114 C53033 -0.0384795007666616 0.932257859199553 0.747466113138505 C 0.0 **** 0.0
115 C53038 0.00402073826670294 0.977235173953314 0.748487238699392 C 0.0 **** 0.0
116 C53040 -0.011822351546722 0.971315183548164 0.753233061121018 C 0.0 **** 0.0
117 C53043 0.132569236349835 0.7635280118522 0.612909183262964 C 0.0 **** 0.0
118 C53045 0.128735979006913 0.78097282120747 0.620481450324447 C 0.0 **** 0.0
119 C53047 0.15043042045134 0.763616682833699 0.605344526969598 C 0.0 **** 0.0
120 O53049 0.088548923531806 0.844518724136275 0.733598436973245 O 0.0 **** 0.0
121 C53051 -0.0549765379246166 0.927347246525307 0.749282522713884 C 0.0 **** 0.0
122 C53052 -0.0667904160055469 0.938471022683297 0.754969209736494 C 0.0 **** 0.0
123 C53053 -0.0622550657764931 0.954677908518089 0.758707415759036 C 0.0 **** 0.0
124 C53054 -0.0456909739238707 0.959481826075787 0.757029166132465 C 0.0 **** 0.0
125 C53060 -0.0407786325693384 0.977063815677449 0.761213586595643 C 0.0 **** 0.0
126 C53061 -0.053171298602269 0.988161214511025 0.765808968511446 C 0.0 **** 0.0
127 C53062 -0.0708537759003921 0.982293016104696 0.76711524514622 C 0.0 **** 0.0
128 C53063 -0.0746958630386233 0.965741389701416 0.763813130232907 C 0.0 **** 0.0
129 C53069 -0.0831996646873729 0.99360725287436 0.771340095873745 C 0.0 **** 0.0
130 C53070 -0.0795871754722331 1.01030181415752 0.774299707437806 C 0.0 **** 0.0
131 C53071 -0.0634132199190587 1.01634584321496 0.773117964139513 C 0.0 **** 0.0
132 C53072 -0.04938676484674 1.00474932300868 0.768815596853721 C 0.0 **** 0.0
133 C53078 -0.0328028874533308 1.01079573772235 0.767133989497118 C 0.0 **** 0.0
134 C53079 -0.0200274442199205 0.999471078013183 0.762570223033863 C 0.0 **** 0.0
135 C53080 -0.0239903280989553 0.982466754178606 0.759562816385054 C 0.0 **** 0.0
136 C53085 -0.0292281960540681 1.02802335514713 0.76895158264456 C 0.0 **** 0.0
137 C53086 -0.0440642223090886 1.03908057330201 0.77408945635379 C 0.0 **** 0.0
138 C53087 -0.0601413838823618 1.03303714400216 0.775753485968216 C 0.0 **** 0.0
139 C53092 0.00787626063132296 0.993971177778332 0.751642619043874 C 0.0 **** 0.0
140 C53093 -0.00368015436366218 1.00548119053265 0.759201542019242 C 0.0 **** 0.0
141 C53098 -0.012864343726728 1.03388037687633 0.766222532690479 C 0.0 **** 0.0
142 C53099 9.38320812299804e-05 1.02270675314022 0.762017726478203 C 0.0 **** 0.0
143 C53103 0.0180157558450779 1.02934612571213 0.759566027743033 C 0.0 **** 0.0
144 C53104 0.0218341210358937 1.04280157908394 0.772986208635433 C 0.0 **** 0.0
145 C53105 0.00923905132983644 1.05713426688126 0.771550053636427 C 0.0 **** 0.0
146 C53106 -0.00876706605582374 1.0523700141803 0.767647981514386 C 0.0 **** 0.0
147 O53112 -0.0187790027727098 1.06370178151877 0.765045836785889 O 0.0 **** 0.0
148 H53114 0.0940301914995517 0.719203312330694 0.547067436254751 H 0.0 **** 0.0
149 H53116 0.0777497032430083 0.724861943348783 0.561131582765667 H 0.0 **** 0.0
150 H53118 0.0962072892922526 0.691348581876288 0.5583846099791 H 0.0 **** 0.0
151 H53120 0.0864084061111517 0.700587947663711 0.576007229069413 H 0.0 **** 0.0
152 H53122 0.0708833628090982 0.680501997119997 0.54696097106851 H 0.0 **** 0.0
153 H53124 0.0424303474783202 0.687857749166345 0.557020424210155 H 0.0 **** 0.0
154 H53126 0.0485206106807258 0.722167710737717 0.549453871321577 H 0.0 **** 0.0
155 H53128 0.0465063377306983 0.705852597192738 0.534377150640998 H 0.0 **** 0.0
156 H53130 0.0570497687196085 0.716349664035566 0.578152751525157 H 0.0 **** 0.0
157 H53132 0.0674452706885116 0.696514891108731 0.597074376624813 H 0.0 **** 0.0
158 H53134 0.0431081145744802 0.670391503923362 0.582896904266422 H 0.0 **** 0.0
159 H53136 0.0589270785156531 0.666384726337912 0.597997751371453 H 0.0 **** 0.0
160 H53138 0.0649006236670665 0.659358137446527 0.5659263649854 H 0.0 **** 0.0
161 H53140 0.0811352285769343 0.6686998906877 0.57787244267567 H 0.0 **** 0.0
162 H53142 0.0303588757947941 0.707967375975025 0.622256095346475 H 0.0 **** 0.0
163 H53144 0.0131526466404406 0.711667302514376 0.599484239984118 H 0.0 **** 0.0
164 H53146 0.0267404552820715 0.717233161651207 0.568524323465497 H 0.0 **** 0.0
165 H53148 0.023991955871579 0.697385504082944 0.57817959666443 H 0.0 **** 0.0
166 H53150 0.0601701558042396 0.723801456647478 0.603569925376586 H 0.0 **** 0.0
167 H53152 -0.000989935592338865 0.766116919669372 0.609934172846288 H 0.0 **** 0.0
168 H53154 0.0116163444199745 0.783183178137384 0.603161961503662 H 0.0 **** 0.0
169 H53156 0.0204229393017271 0.768448572433422 0.577640028684915 H 0.0 **** 0.0
170 H53158 -0.00166176606049534 0.765223402962178 0.579481716127303 H 0.0 **** 0.0
171 H53160 0.00720504281481953 0.736449022472837 0.575088392806627 H 0.0 **** 0.0
172 H53162 0.0812849377593393 0.73510105522801 0.620830557655646 H 0.0 **** 0.0
173 H53163 0.069355475867997 0.697556889055811 0.663578121559286 H 0.0 **** 0.0
174 H53165 0.0795676694342744 0.683621446186646 0.64934533869235 H 0.0 **** 0.0
175 H53167 0.05320621716736 0.692158143782145 0.634858487413782 H 0.0 **** 0.0
176 H53169 0.100419660250097 0.696481712790655 0.674076290003511 H 0.0 **** 0.0
177 H53171 0.108405327045497 0.687594556042491 0.655197405138018 H 0.0 **** 0.0
178 H53173 0.132407405582066 0.702394820929284 0.660885732264241 H 0.0 **** 0.0
179 H53175 0.122318677661063 0.715345515373663 0.676025804404497 H 0.0 **** 0.0
180 H53177 0.104046286807046 0.745014719812689 0.618322369901162 H 0.0 **** 0.0
181 H53179 0.106813750454208 0.757559269100657 0.636540176563349 H 0.0 **** 0.0
182 H53181 0.134210026030877 0.737100216819525 0.618610604374415 H 0.0 **** 0.0
183 H53183 0.135089058936573 0.760371784730975 0.649494299251815 H 0.0 **** 0.0
184 H53185 0.153572325935047 0.752966962253188 0.639344333791313 H 0.0 **** 0.0
185 H53187 0.142798852215869 0.735381160072265 0.664910680040906 H 0.0 **** 0.0
186 H53189 0.148240218882198 0.724285755814503 0.646237316562441 H 0.0 **** 0.0
187 H53191 0.0889321977737988 0.751879579394686 0.658078245861424 H 0.0 **** 0.0
188 H53193 0.0852784620985245 0.808405191151496 0.692819996158743 H 0.0 **** 0.0
189 H53195 0.0803109591384254 0.832115961724911 0.710276090385029 H 0.0 **** 0.0
190 H53197 0.0121452004751605 0.812400425137913 0.639988677055946 H 0.0 **** 0.0
191 H53199 0.0749888388851097 0.895951244221707 0.713522872662837 H 0.0 **** 0.0
192 H53201 0.0898509657017213 0.871225569622976 0.710857645633552 H 0.0 **** 0.0
193 H53203 0.0768517873442748 0.863786179056825 0.746101266494243 H 0.0 **** 0.0
194 H53205 0.107809421403604 0.877806264126909 0.744346712617616 H 0.0 **** 0.0
195 H53207 0.114946400170725 0.866669074599201 0.726339439355221 H 0.0 **** 0.0
196 H53209 0.110731766486707 0.893616334226278 0.709071236946193 H 0.0 **** 0.0
197 H53211 0.126989395655121 0.895555716974834 0.724075666497947 H 0.0 **** 0.0
198 H53213 0.110970782700219 0.912456187884843 0.742357624386023 H 0.0 **** 0.0
199 H53215 0.0876809208505523 0.898852856905319 0.749483408816748 H 0.0 **** 0.0
200 H53217 0.066849722173488 0.922440327073644 0.727914307909847 H 0.0 **** 0.0
201 H53219 0.0657036518201441 0.918517857723329 0.74991443777541 H 0.0 **** 0.0
202 H53221 0.09391174075812 0.933996381968603 0.752753086374939 H 0.0 **** 0.0
203 H53223 0.0780938685696025 0.947355700696829 0.744687069290072 H 0.0 **** 0.0
204 H53225 0.105086907269438 0.949650293192 0.727381487983409 H 0.0 **** 0.0
205 H53227 0.0872902521313041 0.943471913837754 0.715625039168886 H 0.0 **** 0.0
206 H53229 0.101778344633258 0.920761138411924 0.707996489711263 H 0.0 **** 0.0
207 H53231 -0.0360703964501033 0.81635888676072 0.662592918832899 H 0.0 **** 0.0
208 H53233 -0.0274234352856327 0.822095245669871 0.633465136091646 H 0.0 **** 0.0
209 H53235 -0.0142261941778812 0.856565688195054 0.643708714461042 H 0.0 **** 0.0
210 H53237 -0.0175983509871915 0.848255382879625 0.623394479771295 H 0.0 **** 0.0
211 H53239 -0.0413444487303457 0.866346252454207 0.624975622368415 H 0.0 **** 0.0
212 H53241 -0.0424131598337104 0.865002949783719 0.647212861565276 H 0.0 **** 0.0
213 H53243 -0.052763994539549 0.836296530589242 0.623404372861251 H 0.0 **** 0.0
214 H53245 -0.0672279626439786 0.850051161338175 0.633270301719622 H 0.0 **** 0.0
215 H53247 -0.06135101047068 0.820949852685342 0.647842720415186 H 0.0 **** 0.0
216 H53249 -0.0617125530955916 0.839028226348245 0.6607943905317 H 0.0 **** 0.0
217 H53251 -0.035330223592569 0.856322787461188 0.697226992670503 H 0.0 **** 0.0
218 H53253 -0.0408165906741886 0.879295486651935 0.718608380388512 H 0.0 **** 0.0
219 H53255 0.0440522109898991 0.907744083403081 0.72903011549125 H 0.0 **** 0.0
220 H53257 0.0370218638807998 0.932782361923189 0.747771325923848 H 0.0 **** 0.0
221 H53259 0.0165887237295326 0.947867287923851 0.759689326766875 H 0.0 **** 0.0
222 H53261 0.0110097156558864 0.965017426358671 0.72557027119793 H 0.0 **** 0.0
223 H53263 0.0396529461036399 0.968993421398193 0.751038670996054 H 0.0 **** 0.0
224 H53265 0.0360264278516697 0.983435421974161 0.734330803284608 H 0.0 **** 0.0
225 H53267 0.0568431896675917 0.956401532708898 0.73043101382914 H 0.0 **** 0.0
226 H53269 0.0455950644733241 0.965512328227416 0.713581147156809 H 0.0 **** 0.0
227 H53271 0.0437315933661603 0.933135714783478 0.716002013274821 H 0.0 **** 0.0
228 H53273 0.0246810084770023 0.944142436259905 0.713076267115112 H 0.0 **** 0.0
229 H53275 0.123703228238812 0.761571919190318 0.602266407371535 H 0.0 **** 0.0
230 H53277 0.130281491470323 0.790916453195991 0.610845065788956 H 0.0 **** 0.0
231 H53279 0.137416894578754 0.783915115945712 0.630955238256037 H 0.0 **** 0.0
232 H53281 0.115736107511905 0.781912356138836 0.625337663000326 H 0.0 **** 0.0
233 H53283 0.153579692978744 0.751405078189401 0.599458847005029 H 0.0 **** 0.0
234 H53285 0.159997807261708 0.766255218339048 0.615096902422361 H 0.0 **** 0.0
235 H53287 0.151601499210549 0.773434828318671 0.59553674715182 H 0.0 **** 0.0
236 H53289 0.081435945636096 0.83694267636805 0.739814184758123 H 0.0 **** 0.0
237 H53291 -0.0590735222991613 0.914544118416807 0.746180789826249 H 0.0 **** 0.0
238 H53293 -0.0798588778130318 0.934202089096172 0.756135343069794 H 0.0 **** 0.0
239 H53295 -0.0877705073570457 0.961403304443848 0.764780977032978 H 0.0 **** 0.0
240 H53297 -0.0962764116705033 0.9894777552173 0.77219631619312 H 0.0 **** 0.0
241 H53299 -0.0899986922869289 1.01879898043929 0.777447284957206 H 0.0 **** 0.0
242 H53301 -0.0420135554425433 1.05243495411042 0.776604973678295 H 0.0 **** 0.0
243 H53303 -0.0702163106055405 1.04177991132595 0.77910209186124 H 0.0 **** 0.0
244 H53305 0.0203077818156157 0.998579880537156 0.747657206062596 H 0.0 **** 0.0
245 H53307 0.0274571908048018 1.01923535959285 0.760823465824916 H 0.0 **** 0.0
246 H53309 0.0195637914803046 1.03472229779153 0.746782661798793 H 0.0 **** 0.0
247 H53311 0.0348139746250876 1.04768392676922 0.771734386115878 H 0.0 **** 0.0
248 H53313 0.0209226959666009 1.03696062869966 0.785594130708365 H 0.0 **** 0.0
249 H53315 0.0121116887596763 1.06592028488147 0.761174813916142 H 0.0 **** 0.0
250 H53317 0.00811179625655105 1.06499307275126 0.782978236153535 H 0.0 **** 0.0
@<TRIPOS>BOND
1 3 2 1
2 4 3 1
3 5 4 1
4 6 5 1
5 1 2 1
6 1 6 1
7 8 7 1
8 9 8 1
9 10 9 1
10 4 7 1
11 3 10 1
12 12 11 1
13 13 12 1
14 14 13 1
15 8 11 1
16 7 14 1
17 16 15 1
18 17 16 Partial double
19 18 17 1
20 13 15 1
21 12 18 1
22 20 19 Partial double
23 21 20 Partial double
24 22 21 Partial double
25 17 19 Partial double
26 16 22 Partial double
27 24 23 1
28 25 24 1
29 15 25 Double
30 22 23 1
31 27 26 1
32 28 27 Partial double
33 29 28 Partial double
34 21 26 1
35 20 29 Partial double
36 31 30 1
37 32 31 1
38 18 30 1
39 19 32 1
40 34 33 Double
41 35 34 1
42 36 35 1
43 31 33 1
44 30 36 Double
45 38 37 1
46 39 38 1
47 40 39 Double
48 34 37 1
49 33 40 1
50 42 41 1
51 43 42 1
52 44 43 1
53 40 41 1
54 39 44 1
55 46 45 Partial double
56 32 46 1
57 29 45 Partial double
58 48 47 Partial double
59 49 48 1
60 45 49 Partial double
61 28 47 Partial double
62 51 50 Partial double
63 52 51 Partial double
64 53 52 Partial double
65 48 50 Partial double
66 47 53 Partial double
67 55 54 Partial double
68 56 55 Partial double
69 57 56 Partial double
70 52 54 Partial double
71 51 57 Partial double
72 59 58 Partial double
73 60 59 Partial double
74 61 60 Partial double
75 56 58 Partial double
76 55 61 Partial double
77 63 62 Partial double
78 27 63 Partial double
79 53 62 Partial double
80 65 64 Partial double
81 62 65 Partial double
82 54 64 Partial double
83 67 66 Partial double
84 64 67 Partial double
85 61 66 Partial double
86 69 68 Partial double
87 70 69 Partial double
88 66 70 Partial double
89 60 68 Partial double
90 72 71 1
91 73 72 1
92 74 73 1
93 59 71 1
94 58 74 1
95 76 75 1
96 77 76 1
97 78 77 1
98 73 75 1
99 72 78 1
100 80 79 1
101 81 80 1
102 82 81 1
103 78 79 1
104 77 82 1
105 84 83 Partial double
106 85 84 Partial double
107 67 85 Partial double
108 65 83 Partial double
109 87 86 1
110 88 87 1
111 89 88 1
112 84 86 1
113 83 89 1
114 91 90 1
115 92 91 1
116 93 92 1
117 88 90 1
118 87 93 1
119 95 94 Partial double
120 85 95 Partial double
121 70 94 Partial double
122 97 96 Partial double
123 98 97 Partial double
124 94 98 Partial double
125 69 96 Partial double
126 100 99 Partial double
127 101 100 Partial double
128 68 101 Partial double
129 96 99 Partial double
130 103 102 1
131 104 103 Partial double
132 97 102 1
133 99 104 1
134 106 105 1
135 107 106 1
136 100 105 1
137 104 107 Partial double
138 109 108 1
139 110 109 1
140 111 110 1
141 106 108 1
142 105 111 1
143 113 112 1
144 114 113 1
145 103 114 Partial double
146 107 112 Partial double
147 108 115 1
148 112 116 Partial double
149 115 116 Partial double
150 42 117 1
151 117 118 1
152 117 119 1
153 74 120 1
154 122 121 1
155 123 122 Partial double
156 124 123 1
157 114 121 Partial double
158 113 124 Partial double
159 126 125 Partial double
160 127 126 1
161 128 127 Partial double
162 124 125 Partial double
163 123 128 Partial double
164 130 129 Partial double
165 131 130 1
166 132 131 1
167 127 129 Partial double
168 126 132 Partial double
169 134 133 Partial double
170 135 134 Partial double
171 125 135 Partial double
172 132 133 Partial double
173 137 136 Partial double
174 138 137 Partial double
175 131 138 Partial double
176 133 136 Partial double
177 140 139 Partial double
178 134 140 Partial double
179 116 135 Partial double
180 115 139 Partial double
181 142 141 Partial double
182 140 142 Partial double
183 136 141 Partial double
184 144 143 1
185 145 144 1
186 146 145 1
187 142 143 1
188 141 146 1
189 146 147 Double
190 1 148 1
191 1 149 1
192 2 150 1
193 2 151 1
194 3 152 1
195 4 153 1
196 5 154 1
197 5 155 1
198 7 156 1
199 8 157 1
200 9 158 1
201 9 159 1
202 10 160 1
203 10 161 1
204 12 162 1
205 13 163 1
206 14 164 1
207 14 165 1
208 18 166 1
209 23 167 1
210 23 168 1
211 24 169 1
212 24 170 1
213 25 171 1
214 35 173 1
215 35 174 1
216 36 175 1
217 37 176 1
218 37 177 1
219 38 178 1
220 38 179 1
221 41 180 1
222 41 181 1
223 42 182 1
224 43 183 1
225 43 184 1
226 44 185 1
227 44 186 1
228 46 187 1
229 50 188 1
230 57 189 1
231 63 190 1
232 72 191 1
233 73 192 1
234 74 193 1
235 75 194 1
236 75 195 1
237 76 196 1
238 76 197 1
239 77 198 1
240 78 199 1
241 79 200 1
242 79 201 1
243 80 202 1
244 80 203 1
245 81 204 1
246 81 205 1
247 82 206 1
248 87 207 1
249 88 208 1
250 90 209 1
251 90 210 1
252 91 211 1
253 91 212 1
254 92 213 1
255 92 214 1
256 93 215 1
257 93 216 1
258 95 217 1
259 98 218 1
260 101 219 1
261 105 220 1
262 106 221 1
263 108 222 1
264 109 223 1
265 109 224 1
266 110 225 1
267 110 226 1
268 111 227 1
269 111 228 1
270 117 229 1
271 118 230 1
272 118 231 1
273 118 232 1
274 119 233 1
275 119 234 1
276 119 235 1
277 120 236 1
278 121 237 1
279 122 238 1
280 128 239 1
281 129 240 1
282 130 241 1
283 137 242 1
284 138 243 1
285 139 244 1
286 143 245 1
287 143 246 1
288 144 247 1
289 144 248 1
290 145 249 1
291 145 250 1
292 31 172 1
@<TRIPOS>MOLECULE
Sketch 4
250 292
SMALL
USER_CHARGES


@<TRIPOS>ATOM
1 C53320 0.199288822936524 0.377125643788246 0.104485027035591 C 0.0 **** 0.0
2 C53321 0.200800358847076 0.380110712050176 0.0851836375329786 C 0.0 **** 0.0
3 C53322 0.207389474874728 0.364578605556141 0.07545105364993 C 0.0 **** 0.0
4 C53323 0.222985149573939 0.356020224944764 0.0842301145768029 C 0.0 **** 0.0
5 C53324 0.225468395485788 0.363619640354423 0.101972784353091 C 0.0 **** 0.0
6 O53325 0.209728008159753 0.363833349544697 0.110658379237839 O 0.0 **** 0.0
7 C53332 0.238749502155736 0.35585387163099 0.0727058552949297 C 0.0 **** 0.0
8 C53333 0.234603685839759 0.347079276489233 0.0557392759469933 C 0.0 **** 0.0
9 C53334 0.218073027860546 0.353302481279029 0.0475466044141738 C 0.0 **** 0.0
10 C53335 0.210311652987672 0.368536780307754 0.056647003116051 C 0.0 **** 0.0
11 O53341 0.232362366741562 0.329318755050145 0.0582837030774283 O 0.0 **** 0.0
12 C53342 0.247094628193234 0.320578563761945 0.0642236053445075 C 0.0 **** 0.0
13 C53343 0.252588981850746 0.328035118377066 0.0813455862124129 C 0.0 **** 0.0
14 C53344 0.254552982317866 0.347294131823056 0.0803521251458651 C 0.0 **** 0.0
15 C53350 0.268313002152672 0.319407870086831 0.0880826191342583 C 0.0 **** 0.0
16 C53351 0.281607927772825 0.314041370286345 0.0755237564239519 C 0.0 **** 0.0
17 C53352 0.277883279099142 0.313352142012169 0.0583765338166082 C 0.0 **** 0.0
18 C53353 0.261460803559071 0.320490284989798 0.0511838984912144 C 0.0 **** 0.0
19 C53359 0.29004690858649 0.307221801349431 0.0472555155934878 C 0.0 **** 0.0
20 C53360 0.30650255124755 0.305427316208892 0.0528757416639437 C 0.0 **** 0.0
21 C53361 0.310431612223528 0.306778342129645 0.0699307135302577 C 0.0 **** 0.0
22 C53362 0.297562847570123 0.309780866726585 0.0815268991688806 C 0.0 **** 0.0
23 C53368 0.301486526988979 0.309893798714604 0.100311068586064 C 0.0 **** 0.0
24 C53369 0.285504187286043 0.306323073876102 0.11106682328576 C 0.0 **** 0.0
25 C53370 0.270262066871966 0.315867440397646 0.10463954623405 C 0.0 **** 0.0
26 O53375 0.326956912398015 0.304916046840045 0.0755434261338711 O 0.0 **** 0.0
27 C53376 0.339832507635039 0.30747231922365 0.0639875098754327 C 0.0 **** 0.0
28 C53377 0.337608771209585 0.305747307534135 0.0466773852949174 C 0.0 **** 0.0
29 C53378 0.320128684496099 0.302676351520568 0.0401295107565474 C 0.0 **** 0.0
30 C53384 0.257453807596557 0.312194464265806 0.0344678381537186 C 0.0 **** 0.0
31 C53385 0.271789660850367 0.314521844922177 0.0219002333473976 C 0.0 **** 0.0
32 C53386 0.285692234652467 0.302933932708561 0.0291071043678644 C 0.0 **** 0.0
33 C53391 0.267134925033156 0.310302005702747 0.00329652381568736 C 0.0 **** 0.0
34 C53392 0.253466662178667 0.300058708829955 0.000591998833558111 C 0.0 **** 0.0
35 C53393 0.241679638466152 0.293746659219482 0.0143515662943178 C 0.0 **** 0.0
36 C53394 0.243927084716612 0.302565757937916 0.0311005382191139 C 0.0 **** 0.0
37 C53400 0.247061659750028 0.295106632572928 -0.0165578355637514 C 0.0 **** 0.0
38 C53401 0.259316348550612 0.299328720123558 -0.0310137216007172 C 0.0 **** 0.0
39 C53402 0.272562306947669 0.312097298501306 -0.0262690913094046 C 0.0 **** 0.0
40 C53403 0.276016531406049 0.316905592759799 -0.0100450957413884 C 0.0 **** 0.0
41 C53409 0.290375738357359 0.329865881971772 -0.0073251093662039 C 0.0 **** 0.0
42 C53410 0.295409699373999 0.339835199145162 -0.023013487072681 C 0.0 **** 0.0
43 C53411 0.298182481191276 0.327503517307695 -0.0377574480425083 C 0.0 **** 0.0
44 C53412 0.28192524528052 0.31802235398001 -0.0418165699543293 C 0.0 **** 0.0
45 C53418 0.316749093122722 0.299248092009445 0.0236730431796432 C 0.0 **** 0.0
46 C53419 0.300623727305283 0.298788185654265 0.0177156066621221 C 0.0 **** 0.0
47 C53423 0.351398829716004 0.308363884944146 0.0355793822146159 C 0.0 **** 0.0
48 C53424 0.350128103149149 0.305963312301351 0.017914290352674 C 0.0 **** 0.0
49 S53425 0.333180698002902 0.294740467973398 0.00973855870841217 S 0.0 **** 0.0
50 C53430 0.36227801629027 0.311618783736005 0.0069149032003682 C 0.0 **** 0.0
51 C53431 0.377479920100203 0.318517233756915 0.0133554345274512 C 0.0 **** 0.0
52 C53432 0.37992842138213 0.318918218216366 0.0311054557461296 C 0.0 **** 0.0
53 C53433 0.366724882325789 0.314710320782686 0.0420083216706163 C 0.0 **** 0.0
54 C53439 0.39574323322326 0.323436758985703 0.0374319574827289 C 0.0 **** 0.0
55 C53440 0.409204733077042 0.327126565209941 0.0265092376617697 C 0.0 **** 0.0
56 C53441 0.406658606788347 0.328428601704824 0.00887382491550981 C 0.0 **** 0.0
57 C53442 0.390630759718431 0.323849649806855 0.00263633509775011 C 0.0 **** 0.0
58 C53448 0.419659159999723 0.334240735035631 -0.00191889311102385 C 0.0 **** 0.0
59 C53449 0.435720210978926 0.336251921154782 0.00468911751639024 C 0.0 **** 0.0
60 C53450 0.438732501886106 0.333823160322004 0.0222377452198564 C 0.0 **** 0.0
61 C53451 0.425038165153804 0.330821482516384 0.0330121324285308 C 0.0 **** 0.0
62 C53457 0.368666200272583 0.317132534172286 0.0595272435252934 C 0.0 **** 0.0
63 C53458 0.355391605725016 0.312067318553819 0.0701971925032801 C 0.0 **** 0.0
64 C53462 0.397695796302385 0.325633989091131 0.0548578140538117 C 0.0 **** 0.0
65 C53463 0.383658062443693 0.324876054936427 0.0655972598173119 C 0.0 **** 0.0
66 C53467 0.42705500811436 0.332576833072837 0.0504457743233436 C 0.0 **** 0.0
67 C53468 0.413174785968358 0.330711023439876 0.0611550026791227 C 0.0 **** 0.0
68 C53472 0.455314788472081 0.334747448809448 0.0293610888555263 C 0.0 **** 0.0
69 C53473 0.457032273303502 0.336678831953904 0.0469747489474401 C 0.0 **** 0.0
70 C53474 0.442834995258574 0.336638010554537 0.0571900150749329 C 0.0 **** 0.0
71 O53479 0.449320951749536 0.341086151895238 -0.00530590163654659 O 0.0 **** 0.0
72 C53480 0.448503636710362 0.340291936456041 -0.0232748220102517 C 0.0 **** 0.0
73 C53481 0.431136198646084 0.345749939753918 -0.0299331921373496 C 0.0 **** 0.0
74 C53482 0.416394860782914 0.33730901110059 -0.0207219721672983 C 0.0 **** 0.0
75 C53488 0.429751924928752 0.343360860193418 -0.0493646547542797 C 0.0 **** 0.0
76 C53489 0.447182831676118 0.341361890341043 -0.0575741950310004 C 0.0 **** 0.0
77 C53490 0.456508936792368 0.325645193184602 -0.0507679695201109 C 0.0 **** 0.0
78 C53491 0.453973342197175 0.323217223561938 -0.0312181836849828 C 0.0 **** 0.0
79 C53497 0.46942132014957 0.314678101800418 -0.0228470610737245 C 0.0 **** 0.0
80 C53498 0.477017662353782 0.301872669830142 -0.0352048444310644 C 0.0 **** 0.0
81 C53499 0.483196055386744 0.31031062224718 -0.0517932518628169 C 0.0 **** 0.0
82 N53500 0.474150348877313 0.325993352388564 -0.0559897918920685 N 0.0 **** 0.0
83 C53506 0.384210637533921 0.333048239236393 0.081566032877463 C 0.0 **** 0.0
84 C53507 0.399748145431115 0.337746946994567 0.0881514051442342 C 0.0 **** 0.0
85 C53508 0.41439384386188 0.335490217640911 0.0781957986511359 C 0.0 **** 0.0
86 O53513 0.401653247344538 0.344951321319506 0.104002962663821 O 0.0 **** 0.0
87 C53514 0.386302614256838 0.347317681336502 0.11320609609528 C 0.0 **** 0.0
88 C53515 0.371582429979464 0.350267271763026 0.101549336055455 C 0.0 **** 0.0
89 O53516 0.369459825146691 0.336135027057092 0.0905189481946044 O 0.0 **** 0.0
90 C53522 0.372919702468206 0.367051105290282 0.0913991745827414 C 0.0 **** 0.0
91 C53523 0.386204584527155 0.37936409830035 0.0985862222440078 C 0.0 **** 0.0
92 C53524 0.385514134774058 0.379626454897009 0.117953324063981 C 0.0 **** 0.0
93 C53525 0.389189717161384 0.361969184991971 0.125693247210088 C 0.0 **** 0.0
94 C53531 0.444727107644091 0.338876824394976 0.0748667793952256 C 0.0 **** 0.0
95 C53532 0.430238257426743 0.339347204911624 0.0850985204722582 C 0.0 **** 0.0
96 C53536 0.473078892534508 0.335692024437741 0.0544576806459453 C 0.0 **** 0.0
97 C53537 0.475077731704922 0.337193676981547 0.0721819231461768 C 0.0 **** 0.0
98 C53538 0.461040111119736 0.339160953190326 0.0820989766821049 C 0.0 **** 0.0
99 C53543 0.487370481810426 0.331467896351633 0.044781726544008 C 0.0 **** 0.0
100 C53544 0.486015376202943 0.329443131481625 0.0275063305992562 C 0.0 **** 0.0
101 C53545 0.470325252864627 0.33140077375033 0.0202437091118016 C 0.0 **** 0.0
102 O53550 0.490778757021042 0.337016180690793 0.0797308644796076 O 0.0 **** 0.0
103 C53551 0.503823146079493 0.329300752509063 0.0711740824052036 C 0.0 **** 0.0
104 C53552 0.503327243469468 0.327383721888206 0.054005792285762 C 0.0 **** 0.0
105 C53557 0.500824661916123 0.324746684557832 0.0162431096344621 C 0.0 **** 0.0
106 C53558 0.516405598324959 0.317234213537701 0.0264713921632415 C 0.0 **** 0.0
107 C53559 0.516688576347968 0.320582690361796 0.0454952700276408 C 0.0 **** 0.0
108 C53564 0.533478455119126 0.322934159384606 0.0188700502996663 C 0.0 **** 0.0
109 C53565 0.53327088090735 0.322491692163856 -0.000528924499028772 C 0.0 **** 0.0
110 C53566 0.51968139893098 0.334676523315208 -0.00775459326726875 C 0.0 **** 0.0
111 C53567 0.506263751415243 0.339870816984447 0.00541278694993321 C 0.0 **** 0.0
112 C53573 0.530874712315657 0.316194087398524 0.0542613488461956 C 0.0 **** 0.0
113 C53574 0.531016233779817 0.317115263784359 0.0715863917979705 C 0.0 **** 0.0
114 C53575 0.517533367547623 0.323705873964237 0.0800606702174878 C 0.0 **** 0.0
115 C53580 0.54741726117224 0.312487726092265 0.0272406664834047 C 0.0 **** 0.0
116 C53582 0.546011099341652 0.309900129588849 0.0445547595727227 C 0.0 **** 0.0
117 C53585 0.31074424797018 0.351459315939875 -0.0193179615901812 C 0.0 **** 0.0
118 C53587 0.327424469756449 0.341974972000192 -0.0162968105775992 C 0.0 **** 0.0
119 C53589 0.313497965204171 0.364636793376538 -0.0332353704262822 C 0.0 **** 0.0
120 O53591 0.401707207176169 0.347489516844132 -0.0233389296785674 O 0.0 **** 0.0
121 C53593 0.517848329792924 0.324791440151411 0.0973399209726022 C 0.0 **** 0.0
122 C53594 0.531514646373707 0.319166881610617 0.106176974844079 C 0.0 **** 0.0
123 C53595 0.545037891517421 0.312436322837672 0.0978262778569271 C 0.0 **** 0.0
124 C53596 0.544683836191862 0.311491269043819 0.0805306162908954 C 0.0 **** 0.0
125 C53602 0.559331247101244 0.304141443701207 0.0714401349738396 C 0.0 **** 0.0
126 C53603 0.572951705252709 0.29886315496979 0.0806327799354654 C 0.0 **** 0.0
127 C53604 0.572515522774533 0.299988630988577 0.0992878128036575 C 0.0 **** 0.0
128 C53605 0.558641722329585 0.306777276738245 0.107140479668123 C 0.0 **** 0.0
129 C53611 0.586015884846921 0.294147723045123 0.108378011903096 C 0.0 **** 0.0
130 C53612 0.6000688283339 0.287713259621465 0.100480840082413 C 0.0 **** 0.0
131 C53613 0.601283476241252 0.286914976578234 0.0832281427069242 C 0.0 **** 0.0
132 C53614 0.586925838796241 0.292533600211348 0.0726611602746668 C 0.0 **** 0.0
133 C53620 0.587732610006138 0.2915323199695 0.0549647949754287 C 0.0 **** 0.0
134 C53621 0.57383431097857 0.296972418405346 0.0455107398228929 C 0.0 **** 0.0
135 C53622 0.559457669385013 0.303138072890416 0.053763412736743 C 0.0 **** 0.0
136 C53627 0.602282267919864 0.285632837898664 0.0468149449579394 C 0.0 **** 0.0
137 C53628 0.61646030594823 0.279847359884245 0.0584715968061682 C 0.0 **** 0.0
138 C53629 0.615517433741584 0.280779265813129 0.0756930496046008 C 0.0 **** 0.0
139 C53634 0.561604040722282 0.30633028046966 0.0191598966180871 C 0.0 **** 0.0
140 C53635 0.574783583342321 0.297626517837691 0.0278167435402271 C 0.0 **** 0.0
141 C53640 0.602754490103518 0.285077258862044 0.0292020328247999 C 0.0 **** 0.0
142 C53641 0.589026608165846 0.290676372941225 0.0196431574896827 C 0.0 **** 0.0
143 C53645 0.589756574425813 0.290021963181232 0.000417809682926725 C 0.0 **** 0.0
144 C53646 0.59790535941934 0.273351548126585 -0.00501969179906089 C 0.0 **** 0.0
145 C53647 0.615649204768378 0.272620283033608 0.00203210071044661 C 0.0 **** 0.0
146 C53648 0.617994711677699 0.278477973972928 0.0199899435643372 C 0.0 **** 0.0
147 O53654 0.632209812750972 0.278106893658007 0.025725064418401 O 0.0 **** 0.0
148 H53656 0.186303961995639 0.373546945591527 0.107861206965058 H 0.0 **** 0.0
149 H53658 0.202122690181481 0.388955002523218 0.111312556258068 H 0.0 **** 0.0
150 H53660 0.188542806509111 0.384134323089277 0.0799067644011488 H 0.0 **** 0.0
151 H53662 0.20955713584052 0.390652484142548 0.0828181192971537 H 0.0 **** 0.0
152 H53664 0.197199094387744 0.355201898563832 0.0759137050559746 H 0.0 **** 0.0
153 H53666 0.219403094750656 0.342693776893233 0.0863635814426835 H 0.0 **** 0.0
154 H53668 0.230950432207578 0.376415970539449 0.101238045280657 H 0.0 **** 0.0
155 H53670 0.234077486723024 0.355862478818429 0.109637936670045 H 0.0 **** 0.0
156 H53672 0.241979150289018 0.369144143749057 0.0700298632425538 H 0.0 **** 0.0
157 H53674 0.245032831296557 0.349584537552809 0.0468431780756144 H 0.0 **** 0.0
158 H53676 0.209069033503996 0.342765638219027 0.0482354056884909 H 0.0 **** 0.0
159 H53678 0.219652052415613 0.356074773466053 0.033986274389707 H 0.0 **** 0.0
160 H53680 0.198223916133165 0.37209142156032 0.0506618812861062 H 0.0 **** 0.0
161 H53682 0.218772047945727 0.379543381689095 0.0553389309917126 H 0.0 **** 0.0
162 H53684 0.242758179973365 0.307536686733762 0.0664220188731055 H 0.0 **** 0.0
163 H53686 0.242262662254862 0.325412485574078 0.0903293366917736 H 0.0 **** 0.0
164 H53688 0.265498629544116 0.350431256914446 0.072281859234135 H 0.0 **** 0.0
165 H53690 0.257516435241793 0.352502316859595 0.0929236535844498 H 0.0 **** 0.0
166 H53692 0.264306996838666 0.333843259098806 0.0481730987839481 H 0.0 **** 0.0
167 H53694 0.311082842505392 0.300259665605105 0.103233096749689 H 0.0 **** 0.0
168 H53696 0.306916565358885 0.322154210241609 0.104039330484467 H 0.0 **** 0.0
169 H53698 0.287952926466787 0.309622861122676 0.124400271822698 H 0.0 **** 0.0
170 H53700 0.282677309014121 0.292675610724414 0.11085985492152 H 0.0 **** 0.0
171 H53702 0.26068161671575 0.318965865967524 0.114043555509467 H 0.0 **** 0.0
172 H53704 0.275984713743641 0.327773451274374 0.0227120769543219 H 0.0 **** 0.0
173 H53705 0.243302537443453 0.279990774610726 0.0159800885909995 H 0.0 **** 0.0
174 H53707 0.228499416118173 0.2957509887637 0.010109965939106 H 0.0 **** 0.0
175 H53709 0.234213319279923 0.300575600032451 0.0406423077347237 H 0.0 **** 0.0
176 H53711 0.244261477706925 0.281421896360003 -0.0167196227501008 H 0.0 **** 0.0
177 H53713 0.234930475097693 0.301656981364557 -0.0187061383384869 H 0.0 **** 0.0
178 H53715 0.252044794796636 0.303935140763771 -0.0420095203469678 H 0.0 **** 0.0
179 H53717 0.265795489668974 0.287673681315443 -0.0351420336555974 H 0.0 **** 0.0
180 H53719 0.286818234496458 0.338912252616192 0.00262860398370899 H 0.0 **** 0.0
181 H53721 0.301572569191192 0.323089564088674 -0.00268649920876462 H 0.0 **** 0.0
182 H53723 0.284700692831663 0.348156390672411 -0.0264400038210514 H 0.0 **** 0.0
183 H53725 0.308085869455724 0.318387708580639 -0.0342175884886106 H 0.0 **** 0.0
184 H53727 0.302696793752364 0.334071757223438 -0.0491667146071187 H 0.0 **** 0.0
185 H53729 0.284663391359559 0.306978215035744 -0.049903570616369 H 0.0 **** 0.0
186 H53731 0.273395930118599 0.32630966311778 -0.0491028779281911 H 0.0 **** 0.0
187 H53733 0.298012915930052 0.295175827614306 0.00468298261716303 H 0.0 **** 0.0
188 H53735 0.360850108995407 0.310157464923801 -0.00680621011897926 H 0.0 **** 0.0
189 H53737 0.388258256301159 0.323686791295807 -0.0110432957719373 H 0.0 **** 0.0
190 H53739 0.356569904151625 0.312690133464381 0.0840001838686042 H 0.0 **** 0.0
191 H53741 0.45780407027242 0.349777756806551 -0.0275793212007672 H 0.0 **** 0.0
192 H53743 0.429999197002552 0.359360755037823 -0.0271725922127809 H 0.0 **** 0.0
193 H53745 0.413608602484203 0.325001327986186 -0.0265902159435996 H 0.0 **** 0.0
194 H53747 0.422336163391852 0.331910275354433 -0.0522758673392939 H 0.0 **** 0.0
195 H53749 0.422693428551995 0.353953649492577 -0.0550352852114721 H 0.0 **** 0.0
196 H53751 0.454790035915158 0.352760657714796 -0.0550197796122141 H 0.0 **** 0.0
197 H53753 0.446120951959325 0.340500868818845 -0.071436960439719 H 0.0 **** 0.0
198 H53755 0.450803792307509 0.314591773529265 -0.0571149296267558 H 0.0 **** 0.0
199 H53757 0.443172108523405 0.314528654403371 -0.0296438607654542 H 0.0 **** 0.0
200 H53759 0.479107244040829 0.324218501763153 -0.0197690542504652 H 0.0 **** 0.0
201 H53761 0.465796858450734 0.308518621607498 -0.0109039904111522 H 0.0 **** 0.0
202 H53763 0.467138108247121 0.292474819616634 -0.0381719865424499 H 0.0 **** 0.0
203 H53765 0.487435789941924 0.294707954601459 -0.0294023114738649 H 0.0 **** 0.0
204 H53767 0.4816742325797 0.301420269312632 -0.0624161962663445 H 0.0 **** 0.0
205 H53769 0.496830020176774 0.313082196642239 -0.0510535789614067 H 0.0 **** 0.0
206 H53771 0.479855174083119 0.33589607589452 -0.0504931254390441 H 0.0 **** 0.0
207 H53773 0.383952205313529 0.335492483306434 0.120178415987349 H 0.0 **** 0.0
208 H53775 0.360206973297789 0.350919648691388 0.10955800585909 H 0.0 **** 0.0
209 H53777 0.375941805650347 0.364152511135262 0.0781364495885677 H 0.0 **** 0.0
210 H53779 0.360524218890866 0.373365545798378 0.0909856882303287 H 0.0 **** 0.0
211 H53781 0.384259894701245 0.392106445104955 0.0933052737572779 H 0.0 **** 0.0
212 H53783 0.398966801752987 0.375436682130339 0.0945455154918833 H 0.0 **** 0.0
213 H53785 0.372804916877735 0.383844703799821 0.121787885724647 H 0.0 **** 0.0
214 H53787 0.394396679195075 0.389042661298813 0.123077164594061 H 0.0 **** 0.0
215 H53789 0.3818597409662 0.360371777764039 0.137393127290723 H 0.0 **** 0.0
216 H53791 0.402580185378233 0.361313643437013 0.129490660975927 H 0.0 **** 0.0
217 H53793 0.431481345560958 0.342123473704505 0.0986466908127745 H 0.0 **** 0.0
218 H53795 0.462362600807592 0.340344376301734 0.0958732699844225 H 0.0 **** 0.0
219 H53797 0.469844149003574 0.328756835188962 0.00671636949954315 H 0.0 **** 0.0
220 H53799 0.496694613034083 0.314655512666398 0.00752398513045294 H 0.0 **** 0.0
221 H53801 0.515526094421166 0.303371307167065 0.024966537604386 H 0.0 **** 0.0
222 H53803 0.535609024662257 0.336267938301727 0.0224992199075125 H 0.0 **** 0.0
223 H53805 0.530687276005911 0.309460883891343 -0.00471515639613385 H 0.0 **** 0.0
224 H53807 0.545708506622413 0.326044525017992 -0.00566853169491524 H 0.0 **** 0.0
225 H53809 0.513317780355325 0.328687968801309 -0.0185995459769209 H 0.0 **** 0.0
226 H53811 0.525827420509277 0.346129289240215 -0.0127638692624795 H 0.0 **** 0.0
227 H53813 0.495395541946047 0.345729615265743 -0.001057703210457 H 0.0 **** 0.0
228 H53815 0.511522089020046 0.349637183213021 0.0138320186591024 H 0.0 **** 0.0
229 H53817 0.307766114020385 0.358537869148745 -0.00762729931043583 H 0.0 **** 0.0
230 H53819 0.337680460604717 0.350935839938378 -0.0133697205139842 H 0.0 **** 0.0
231 H53821 0.331267691011076 0.334867123640753 -0.0276223105999997 H 0.0 **** 0.0
232 H53823 0.326684623774531 0.333026605754304 -0.00568021648705102 H 0.0 **** 0.0
233 H53825 0.302267669968223 0.372634439977668 -0.0350827791391681 H 0.0 **** 0.0
234 H53827 0.316524398187897 0.358577924842504 -0.045364416047476 H 0.0 **** 0.0
235 H53829 0.324132627807023 0.372997542976144 -0.0300169984776757 H 0.0 **** 0.0
236 H53831 0.404486152477824 0.358433000731021 -0.0190271465758656 H 0.0 **** 0.0
237 H53833 0.507219375607577 0.33009202247574 0.104369638841296 H 0.0 **** 0.0
238 H53835 0.53133712187148 0.3201833686688 0.119933686117133 H 0.0 **** 0.0
239 H53837 0.558356539216466 0.307704360205883 0.120889133905028 H 0.0 **** 0.0
240 H53839 0.585946403793939 0.294558027426303 0.122161332701537 H 0.0 **** 0.0
241 H53841 0.610499070926343 0.283324861772298 0.108373349601805 H 0.0 **** 0.0
242 H53843 0.627980855756176 0.274615476285717 0.0531332581397891 H 0.0 **** 0.0
243 H53845 0.626283322713267 0.276449360627761 0.0831494925415093 H 0.0 **** 0.0
244 H53847 0.562506049825392 0.308368126248733 0.00549497248912627 H 0.0 **** 0.0
245 H53849 0.577107055892946 0.290712327286722 -0.00525883126395256 H 0.0 **** 0.0
246 H53851 0.597023964481722 0.300845281854842 -0.00459235753894561 H 0.0 **** 0.0
247 H53853 0.598183010421044 0.272053324632581 -0.018860556696944 H 0.0 **** 0.0
248 H53855 0.590239214861566 0.262807486598986 -0.000109227300701232 H 0.0 **** 0.0
249 H53857 0.62442882680506 0.280920894002301 -0.00487099004889477 H 0.0 **** 0.0
250 H53859 0.621486787603981 0.259994849027239 0.00206267764661111 H 0.0 **** 0.0
@<TRIPOS>BOND
1 3 2 1
2 4 3 1
3 5 4 1
4 6 5 1
5 1 2 1
6 1 6 1
7 8 7 1
8 9 8 1
9 10 9 1
10 4 7 1
11 3 10 1
12 12 11 1
13 13 12 1
14 14 13 1
15 8 11 1
16 7 14 1
17 16 15 1
18 17 16 Partial double
19 18 17 1
20 13 15 1
21 12 18 1
22 20 19 Partial double
23 21 20 Partial double
24 22 21 Partial double
25 17 19 Partial double
26 16 22 Partial double
27 24 23 1
28 25 24 1
29 15 25 Double
30 22 23 1
31 27 26 1
32 28 27 Partial double
33 29 28 Partial double
34 21 26 1
35 20 29 Partial double
36 31 30 1
37 32 31 1
38 18 30 1
39 19 32 1
40 34 33 Double
41 35 34 1
42 36 35 1
43 31 33 1
44 30 36 Double
45 38 37 1
46 39 38 1
47 40 39 Double
48 34 37 1
49 33 40 1
50 42 41 1
51 43 42 1
52 44 43 1
53 40 41 1
54 39 44 1
55 46 45 Partial double
56 32 46 1
57 29 45 Partial double
58 48 47 Partial double
59 49 48 1
60 45 49 Partial double
61 28 47 Partial double
62 51 50 Partial double
63 52 51 Partial double
64 53 52 Partial double
65 48 50 Partial double
66 47 53 Partial double
67 55 54 Partial double
68 56 55 Partial double
69 57 56 Partial double
70 52 54 Partial double
71 51 57 Partial double
72 59 58 Partial double
73 60 59 Partial double
74 61 60 Partial double
75 56 58 Partial double
76 55 61 Partial double
77 63 62 Partial double
78 27 63 Partial double
79 53 62 Partial double
80 65 64 Partial double
81 62 65 Partial double
82 54 64 Partial double
83 67 66 Partial double
84 64 67 Partial double
85 61 66 Partial double
86 69 68 Partial double
87 70 69 Partial double
88 66 70 Partial double
89 60 68 Partial double
90 72 71 1
91 73 72 1
92 74 73 1
93 59 71 1
94 58 74 1
95 76 75 1
96 77 76 1
97 78 77 1
98 73 75 1
99 72 78 1
100 80 79 1
101 81 80 1
102 82 81 1
103 78 79 1
104 77 82 1
105 84 83 Partial double
106 85 84 Partial double
107 67 85 Partial double
108 65 83 Partial double
109 87 86 1
110 88 87 1
111 89 88 1
112 84 86 1
113 83 89 1
114 91 90 1
115 92 91 1
116 93 92 1
117 88 90 1
118 87 93 1
119 95 94 Partial double
120 85 95 Partial double
121 70 94 Partial double
122 97 96 Partial double
123 98 97 Partial double
124 94 98 Partial double
125 69 96 Partial double
126 100 99 Partial double
127 101 100 Partial double
128 68 101 Partial double
129 96 99 Partial double
130 103 102 1
131 104 103 Partial double
132 97 102 1
133 99 104 1
134 106 105 1
135 107 106 1
136 100 105 1
137 104 107 Partial double
138 109 108 1
139 110 109 1
140 111 110 1
141 106 108 1
142 105 111 1
143 113 112 1
144 114 113 1
145 103 114 Partial double
146 107 112 Partial double
147 108 115 1
148 112 116 Partial double
149 115 116 Partial double
150 42 117 1
151 117 118 1
152 117 119 1
153 74 120 1
154 122 121 1
155 123 122 Partial double
156 124 123 1
157 114 121 Partial double
158 113 124 Partial double
159 126 125 Partial double
160 127 126 1
161 128 127 Partial double
162 124 125 Partial double
163 123 128 Partial double
164 130 129 Partial double
165 131 130 1
166 132 131 1
167 127 129 Partial double
168 126 132 Partial double
169 134 133 Partial double
170 135 134 Partial double
171 125 135 Partial double
172 132 133 Partial double
173 137 136 Partial double
174 138 137 Partial double
175 131 138 Partial double
176 133 136 Partial double
177 140 139 Partial double
178 134 140 Partial double
179 116 135 Partial double
180 115 139 Partial double
181 142 141 Partial double
182 140 142 Partial double
183 136 141 Partial double
184 144 143 1
185 145 144 1
186 146 145 1
187 142 143 1
188 141 146 1
189 146 147 Double
190 1 148 1
191 1 149 1
192 2 150 1
193 2 151 1
194 3 152 1
195 4 153 1
196 5 154 1
197 5 155 1
198 7 156 1
199 8 157 1
200 9 158 1
201 9 159 1
202 10 160 1
203 10 161 1
204 12 162 1
205 13 163 1
206 14 164 1
207 14 165 1
208 18 166 1
209 23 167 1
210 23 168 1
211 24 169 1
212 24 170 1
213 25 171 1
214 35 173 1
215 35 174 1
216 36 175 1
217 37 176 1
218 37 177 1
219 38 178 1
220 38 179 1
221 41 180 1
222 41 181 1
223 42 182 1
224 43 183 1
225 43 184 1
226 44 185 1
227 44 186 1
228 46 187 1
229 50 188 1
230 57 189 1
231 63 190 1
232 72 191 1
233 73 192 1
234 74 193 1
235 75 194 1
236 75 195 1
237 76 196 1
238 76 197 1
239 77 198 1
240 78 199 1
241 79 200 1
242 79 201 1
243 80 202 1
244 80 203 1
245 81 204 1
246 81 205 1
247 82 206 1
248 87 207 1
249 88 208 1
250 90 209 1
251 90 210 1
252 91 211 1
253 91 212 1
254 92 213 1
255 92 214 1
256 93 215 1
257 93 216 1
258 95 217 1
259 98 218 1
260 101 219 1
261 105 220 1
262 106 221 1
263 108 222 1
264 109 223 1
265 109 224 1
266 110 225 1
267 110 226 1
268 111 227 1
269 111 228 1
270 117 229 1
271 118 230 1
272 118 231 1
273 118 232 1
274 119 233 1
275 119 234 1
276 119 235 1
277 120 236 1
278 121 237 1
279 122 238 1
280 128 239 1
281 129 240 1
282 130 241 1
283 137 242 1
284 138 243 1
285 139 244 1
286 143 245 1
287 143 246 1
288 144 247 1
289 144 248 1
290 145 249 1
291 145 250 1
292 31 172 1
@<TRIPOS>MOLECULE
Sketch 4
250 292
SMALL
USER_CHARGES


@<TRIPOS>ATOM
1 C53862 -0.0503305310150253 0.219741350958583 0.244739994494625 C 0.0 **** 0.0
2 C53863 -0.0670060317342504 0.212267654155899 0.251603739263786 C 0.0 **** 0.0
3 C53864 -0.0770393245177386 0.225217232445701 0.262455811136091 C 0.0 **** 0.0
4 C53865 -0.0647932467163739 0.237766309732871 0.27132458885801 C 0.0 **** 0.0
5 C53866 -0.0526855276428099 0.245924224321957 0.258087398334037 C 0.0 **** 0.0
6 O53867 -0.0518824203844064 0.237400199472325 0.242226868990202 O 0.0 **** 0.0
7 C53874 -0.0560433776756599 0.228424075056455 0.286191794466196 C 0.0 **** 0.0
8 C53875 -0.0692467155793231 0.222280614841258 0.299583552994517 C 0.0 **** 0.0
9 C53876 -0.0874804806718001 0.222877931157965 0.293016876838965 C 0.0 **** 0.0
10 C53877 -0.0890632599481797 0.216101169707104 0.274972627403362 C 0.0 **** 0.0
11 O53883 -0.0686266600654716 0.232666522795926 0.314321862367437 O 0.0 **** 0.0
12 C53884 -0.0531728891367084 0.231192175466111 0.323773213567499 C 0.0 **** 0.0
13 C53885 -0.0377783170695831 0.228809527771293 0.312114225942802 C 0.0 **** 0.0
14 C53886 -0.0418406438773658 0.238199083217464 0.295555094838902 C 0.0 **** 0.0
15 C53892 -0.0329488342708768 0.210462277228448 0.308495534303961 C 0.0 **** 0.0
16 C53893 -0.0371792080444919 0.197138152748825 0.321458477156851 C 0.0 **** 0.0
17 C53894 -0.0456305086180063 0.201400578121703 0.336197353802906 C 0.0 **** 0.0
18 C53895 -0.0557768820436384 0.217712947709072 0.338070608176477 C 0.0 **** 0.0
19 C53901 -0.0454920233081827 0.189905319707943 0.349531999587715 C 0.0 **** 0.0
20 C53902 -0.0391720820817411 0.17374563661322 0.347057320711859 C 0.0 **** 0.0
21 C53903 -0.033127374168335 0.16871020177111 0.331385325637899 C 0.0 **** 0.0
22 C53904 -0.0321341533010092 0.180545611184884 0.31846742652598 C 0.0 **** 0.0
23 C53910 -0.0269201437720252 0.175274695279639 0.300868311777156 C 0.0 **** 0.0
24 C53911 -0.0161813624996311 0.189051968292078 0.292227173526463 C 0.0 **** 0.0
25 C53912 -0.0228039355510812 0.206569662426604 0.295345307171863 C 0.0 **** 0.0
26 O53917 -0.0280242196616568 0.152160763708467 0.328370410515782 O 0.0 **** 0.0
27 C53918 -0.0255641639054778 0.14141801340742 0.341963465390057 C 0.0 **** 0.0
28 C53919 -0.0314492475553851 0.144855422897021 0.35807252148672 C 0.0 **** 0.0
29 C53920 -0.0404057676630928 0.161260220203678 0.361161446056229 C 0.0 **** 0.0
30 C53926 -0.0545351108195617 0.223211324693175 0.356174583651476 C 0.0 **** 0.0
31 C53927 -0.063533956755829 0.210219159639195 0.367014881738019 C 0.0 **** 0.0
32 C53928 -0.0513732672700272 0.194961623977744 0.367042871922336 C 0.0 **** 0.0
33 C53933 -0.0676102504388215 0.216480326278866 0.385037835660965 C 0.0 **** 0.0
34 C53934 -0.0568409324405416 0.228102410188272 0.391922781682987 C 0.0 **** 0.0
35 C53935 -0.043254734230861 0.237343681673347 0.381901424137227 C 0.0 **** 0.0
36 C53936 -0.045015231237558 0.235501025902787 0.362909248721933 C 0.0 **** 0.0
37 C53942 -0.0585366611701653 0.234827872459932 0.409561986826929 C 0.0 **** 0.0
38 C53943 -0.0710087642498724 0.224702323325791 0.420538031544296 C 0.0 **** 0.0
39 C53944 -0.0839123788656304 0.215125074968428 0.410320502042894 C 0.0 **** 0.0
40 C53945 -0.0816609255716972 0.211186052829608 0.393661096158319 C 0.0 **** 0.0
41 C53951 -0.095723400412289 0.200716151900808 0.385152031372108 C 0.0 **** 0.0
42 C53952 -0.112923489006372 0.203860363215223 0.393269040043671 C 0.0 **** 0.0
43 C53953 -0.111633661674663 0.198507752928619 0.411917521721786 C 0.0 **** 0.0
44 C53954 -0.0986665421671988 0.20954500789537 0.421143713684057 C 0.0 **** 0.0
45 C53960 -0.049091156563704 0.164680615507309 0.375568755121073 C 0.0 **** 0.0
46 C53961 -0.0556279853499022 0.180293844060075 0.378709909374885 C 0.0 **** 0.0
47 C53965 -0.0286009004073094 0.133016980281775 0.371153005995217 C 0.0 **** 0.0
48 C53966 -0.0360539164013136 0.134804176348474 0.387308459351816 C 0.0 **** 0.0
49 S53967 -0.0526870371771734 0.148763864064279 0.39031885660632 S 0.0 **** 0.0
50 C53972 -0.0311579451272776 0.125108211127198 0.400754937027131 C 0.0 **** 0.0
51 C53973 -0.019351585721772 0.111951886656157 0.398217873214048 C 0.0 **** 0.0
52 C53974 -0.0134251978707155 0.108413647726162 0.38167873670232 C 0.0 **** 0.0
53 C53975 -0.0176626282573755 0.119184330817279 0.368391022877862 C 0.0 **** 0.0
54 C53981 -0.00421948340080966 0.0935970094994478 0.378920818736313 C 0.0 **** 0.0
55 C53982 0.000390025985752036 0.0831813352540066 0.392581150498654 C 0.0 **** 0.0
56 C53983 -0.00228314088414113 0.0887027499205844 0.409406688493432 C 0.0 **** 0.0
57 C53984 -0.0138296285578684 0.101937309696763 0.411799007694529 C 0.0 **** 0.0
58 C53990 0.00691836780169453 0.0812954558856275 0.422706850361197 C 0.0 **** 0.0
59 C53991 0.0142774815459596 0.0656939129581949 0.420035649213738 C 0.0 **** 0.0
60 C53992 0.0150142014756379 0.0585970302107281 0.403601333392259 C 0.0 **** 0.0
61 C53993 0.00922827941333002 0.0682330249931481 0.389851171750665 C 0.0 **** 0.0
62 C53999 -0.0115532159659373 0.115770982195517 0.352049551072675 C 0.0 **** 0.0
63 C54000 -0.0169511841599542 0.126610283587124 0.338993293754546 C 0.0 **** 0.0
64 C54004 0.0012730543743404 0.0897306684349123 0.362601840441625 C 0.0 **** 0.0
65 C54005 -0.000574706034923969 0.101669767105351 0.349554229021859 C 0.0 **** 0.0
66 C54009 0.014500059936605 0.0642579305028331 0.373460565398122 C 0.0 **** 0.0
67 C54010 0.0102814640732239 0.0749158092970678 0.359941725433432 C 0.0 **** 0.0
68 C54014 0.0246354263707138 0.0437015619145571 0.400604144818725 C 0.0 **** 0.0
69 C54015 0.0320250945432494 0.0417598845798133 0.384631821396859 C 0.0 **** 0.0
70 C54016 0.0262851966704086 0.0512776246381677 0.371101102435856 C 0.0 **** 0.0
71 O54021 0.0223113060907837 0.0576850896519643 0.433476669478917 O 0.0 **** 0.0
72 C54022 0.0131404779024529 0.0575122059977572 0.449180786781967 C 0.0 **** 0.0
73 C54023 0.00371222466597657 0.0744883593023736 0.452891230190987 C 0.0 **** 0.0
74 C54024 0.00960901711432249 0.0880942475617691 0.440487665221223 C 0.0 **** 0.0
75 C54030 0.00529878502334827 0.0798708763856156 0.471629942267613 C 0.0 **** 0.0
76 C54031 0.00315988875741093 0.0644743092936241 0.483135741044747 C 0.0 **** 0.0
77 C54032 0.0183508393832808 0.0524225974093204 0.4814625655864 C 0.0 **** 0.0
78 C54033 0.0258743156658855 0.0526710933174937 0.463253887181484 C 0.0 **** 0.0
79 C54039 0.0354119090474937 0.0361200712815454 0.458951839589601 C 0.0 **** 0.0
80 C54040 0.0418487920937759 0.0279700908090124 0.475244180247157 C 0.0 **** 0.0
81 C54041 0.0271537243310176 0.0229396124011537 0.487102920610252 C 0.0 **** 0.0
82 N54042 0.0132247086526592 0.0353220042754865 0.485973205752203 N 0.0 **** 0.0
83 C54048 0.00874796881190214 0.0997776035368884 0.334366447200104 C 0.0 **** 0.0
84 C54049 0.0170090971998547 0.0846879300026779 0.331239219906976 C 0.0 **** 0.0
85 C54050 0.0175166034916344 0.0721329731445746 0.343947886506197 C 0.0 **** 0.0
86 O54055 0.0255536983457627 0.0814769274069401 0.316241194582831 O 0.0 **** 0.0
87 C54056 0.0305480926115716 0.0966662517534635 0.307943048443108 C 0.0 **** 0.0
88 C54057 0.0156034727473653 0.108154651094572 0.30628403468362 C 0.0 **** 0.0
89 O54058 0.00932544052646657 0.112767313141032 0.322574491116958 O 0.0 **** 0.0
90 C54064 0.00146906570175514 0.100450572943949 0.295138420039623 C 0.0 **** 0.0
91 C54065 0.00821490665012095 0.0880779531574432 0.281596098148375 C 0.0 **** 0.0
92 C54066 0.0261487501025259 0.0928561993977902 0.275933067254845 C 0.0 **** 0.0
93 C54067 0.0387715171672195 0.0922473387542178 0.290857736956775 C 0.0 **** 0.0
94 C54073 0.0339457990811829 0.0487453556883709 0.35515116232982 C 0.0 **** 0.0
95 C54074 0.0283263748671102 0.0583529242169706 0.341382602483994 C 0.0 **** 0.0
96 C54078 0.0456164314525439 0.0305605627465322 0.382797442377258 C 0.0 **** 0.0
97 C54079 0.0546210725702567 0.029795379563288 0.367424158383205 C 0.0 **** 0.0
98 C54080 0.0484201356091485 0.0383392633296844 0.353685890865557 C 0.0 **** 0.0
99 C54085 0.0499585593836478 0.0192095771332436 0.39580171443151 C 0.0 **** 0.0
100 C54086 0.0406313913645536 0.0188380519311904 0.410590778190873 C 0.0 **** 0.0
101 C54087 0.0283670821405441 0.031114007381568 0.412753179554313 C 0.0 **** 0.0
102 O54092 0.0692363695440745 0.0205171518025428 0.365777093687927 O 0.0 **** 0.0
103 C54093 0.0726602583365568 0.00815205662207297 0.377542643467112 C 0.0 **** 0.0
104 C54094 0.0639274818182909 0.00690863184158864 0.392415356662442 C 0.0 **** 0.0
105 C54099 0.0435980126007172 0.00580830668424695 0.424487662402614 C 0.0 **** 0.0
106 C54100 0.0593948194017071 -0.00652685187154375 0.421208301084549 C 0.0 **** 0.0
107 C54101 0.0678122187018016 -0.00543745514112627 0.403882136775054 C 0.0 **** 0.0
108 C54106 0.0553342921602762 -0.0251693943909 0.425791743425997 C 0.0 **** 0.0
109 C54107 0.0464580335245469 -0.0258779988820743 0.443083972648418 C 0.0 **** 0.0
110 C54108 0.0291944053245587 -0.0166245325807033 0.442631109234406 C 0.0 **** 0.0
111 C54109 0.027395215817967 -0.00442038693019325 0.42755531747212 C 0.0 **** 0.0
112 C54115 0.0798725355520099 -0.0171788611630114 0.399912255104954 C 0.0 **** 0.0
113 C54116 0.0889522210685339 -0.0156066018826967 0.385189971476981 C 0.0 **** 0.0
114 C54117 0.0854343707374862 -0.00289750513653737 0.374120232831089 C 0.0 **** 0.0
115 C54122 0.0714993414735995 -0.0358656438801024 0.424496877555956 C 0.0 **** 0.0
116 C54124 0.0829724222470472 -0.0318121257730122 0.411827799565519 C 0.0 **** 0.0
117 C54127 -0.127565280056552 0.195858101629857 0.383041379649916 C 0.0 **** 0.0
118 C54129 -0.12696390348546 0.176516613416108 0.382041801423078 C 0.0 **** 0.0
119 C54131 -0.14495201599313 0.201598162445972 0.389411802861134 C 0.0 **** 0.0
120 O54133 0.00133584900838732 0.103713159785468 0.443708256402023 O 0.0 **** 0.0
121 C54135 0.0946044443538747 -0.00124687428920572 0.359550287519324 C 0.0 **** 0.0
122 C54136 0.107070452075517 -0.0124472968694143 0.355767547131815 C 0.0 **** 0.0
123 C54137 0.110635566615633 -0.0253077688027894 0.366645265009137 C 0.0 **** 0.0
124 C54138 0.101619325175188 -0.0267200555890188 0.381375443909856 C 0.0 **** 0.0
125 C54144 0.105763427648799 -0.0405079354861858 0.39331650494817 C 0.0 **** 0.0
126 C54145 0.118415330571486 -0.051473110681065 0.389086199287173 C 0.0 **** 0.0
127 C54146 0.127728250199198 -0.0492318996222461 0.373048265017124 C 0.0 **** 0.0
128 C54147 0.123367042655441 -0.0363777275474099 0.362349641604536 C 0.0 **** 0.0
129 C54153 0.140670708977476 -0.0599968798892901 0.369153853778622 C 0.0 **** 0.0
130 C54154 0.145096921593804 -0.0729718968390091 0.379758630372203 C 0.0 **** 0.0
131 C54155 0.136639637043523 -0.0757802662647975 0.394595363037985 C 0.0 **** 0.0
132 C54156 0.122536052468918 -0.0645312391371206 0.399597529692015 C 0.0 **** 0.0
133 C54162 0.11355980334708 -0.0672656017024595 0.414646332505184 C 0.0 **** 0.0
134 C54163 0.100195484624747 -0.0564291757225621 0.418756151720739 C 0.0 **** 0.0
135 C54164 0.0966049609579155 -0.042546218504049 0.408356953765989 C 0.0 **** 0.0
136 C54169 0.117545463670894 -0.08094676210416 0.425105258696933 C 0.0 **** 0.0
137 C54170 0.132716825568634 -0.0914492101351022 0.419667765309261 C 0.0 **** 0.0
138 C54171 0.141286851994655 -0.0887271893525148 0.404942146712294 C 0.0 **** 0.0
139 C54176 0.0747055620434819 -0.0500826539598474 0.434171075721511 C 0.0 **** 0.0
140 C54177 0.089368263352752 -0.0603655167705919 0.432268692443554 C 0.0 **** 0.0
141 C54182 0.107639115243013 -0.0841044046400923 0.439284164575263 C 0.0 **** 0.0
142 C54183 0.0933372443874946 -0.0743455897854642 0.442667710379867 C 0.0 **** 0.0
143 C54187 0.0821871528496988 -0.0797417087279981 0.457364621856491 C 0.0 **** 0.0
144 C54188 0.0933101773600583 -0.0823689360522583 0.473030135456834 C 0.0 **** 0.0
145 C54189 0.105368344526791 -0.0967269172941277 0.469164039154726 C 0.0 **** 0.0
146 C54190 0.112033733298 -0.0980785589465885 0.45136007755367 C 0.0 **** 0.0
147 O54196 0.120224735106877 -0.110576704671115 0.447923426219659 O 0.0 **** 0.0
148 H54198 -0.0470423695567229 0.214206719412103 0.23241955097654 H 0.0 **** 0.0
149 H54200 -0.0397467419549315 0.216857018184855 0.253369677012792 H 0.0 **** 0.0
150 H54202 -0.0751622484527393 0.207970616012194 0.241179047425406 H 0.0 **** 0.0
151 H54204 -0.0641177136223976 0.200855014135302 0.259069465391068 H 0.0 **** 0.0
152 H54206 -0.084767235896559 0.232774406371783 0.253615868225801 H 0.0 **** 0.0
153 H54208 -0.0722685631955068 0.248112291966716 0.277005089666633 H 0.0 **** 0.0
154 H54210 -0.0398413613049661 0.247580818879848 0.263183678553207 H 0.0 **** 0.0
155 H54212 -0.0573432350006755 0.258627555562588 0.254969141891977 H 0.0 **** 0.0
156 H54214 -0.0502047171561646 0.217101176041355 0.280536715827256 H 0.0 **** 0.0
157 H54216 -0.0664441742783423 0.209035012119415 0.30299363110498 H 0.0 **** 0.0
158 H54218 -0.091711833738124 0.236092778978026 0.293382391250442 H 0.0 **** 0.0
159 H54220 -0.0958301894608286 0.215900667085372 0.301732101460087 H 0.0 **** 0.0
160 H54222 -0.102237504986422 0.216952172615193 0.270566227154208 H 0.0 **** 0.0
161 H54224 -0.0859849542903576 0.202534956094226 0.27530271556272 H 0.0 **** 0.0
162 H54226 -0.0519466520692687 0.243902734670545 0.329301584727402 H 0.0 **** 0.0
163 H54228 -0.026697976212341 0.234540917347805 0.318357312357954 H 0.0 **** 0.0
164 H54230 -0.0305924307785365 0.239924336791443 0.287567358929796 H 0.0 **** 0.0
165 H54232 -0.0462943901716794 0.251071231137498 0.298645712905656 H 0.0 **** 0.0
166 H54234 -0.0692166592386032 0.214167729870465 0.336271829552311 H 0.0 **** 0.0
167 H54236 -0.0201179743909837 0.163195591943594 0.300883651804924 H 0.0 **** 0.0
168 H54238 -0.0384401585430723 0.173157497859123 0.293272938462656 H 0.0 **** 0.0
169 H54240 -0.016001222315305 0.186767764626117 0.278489316325327 H 0.0 **** 0.0
170 H54242 -0.00302161401038342 0.188396485363978 0.296688491891178 H 0.0 **** 0.0
171 H54244 -0.0180479110750155 0.215958974778855 0.286473564360525 H 0.0 **** 0.0
172 H54246 -0.0752282542733778 0.206558040511836 0.360466744053082 H 0.0 **** 0.0
173 H54247 -0.0306587893170322 0.232945929552541 0.385908715694038 H 0.0 **** 0.0
174 H54249 -0.0439771713630731 0.250961520415421 0.385040869950728 H 0.0 **** 0.0
175 H54251 -0.0375342518628764 0.243917056128371 0.354968758190309 H 0.0 **** 0.0
176 H54253 -0.0460220844540951 0.235010996447004 0.415757217585211 H 0.0 **** 0.0
177 H54255 -0.0626819640797388 0.248091254424722 0.408750008098291 H 0.0 **** 0.0
178 H54257 -0.0773636320741052 0.233374139849456 0.429428379750284 H 0.0 **** 0.0
179 H54259 -0.0639868795501478 0.215527252633066 0.428343804089549 H 0.0 **** 0.0
180 H54261 -0.0967753423088953 0.203941988025087 0.371676596391347 H 0.0 **** 0.0
181 H54263 -0.0924949719096909 0.187190169813553 0.385805389127487 H 0.0 **** 0.0
182 H54265 -0.115243451687354 0.21764864379917 0.393011669574799 H 0.0 **** 0.0
183 H54267 -0.107771314371883 0.185128136878252 0.412526979817129 H 0.0 **** 0.0
184 H54269 -0.123872660357346 0.199402187871468 0.418511766238485 H 0.0 **** 0.0
185 H54271 -0.0938033886728523 0.202958950220345 0.432447320066468 H 0.0 **** 0.0
186 H54273 -0.105082075889237 0.221030223599956 0.425780030658139 H 0.0 **** 0.0
187 H54275 -0.0631363740518004 0.182762250212014 0.389965025102475 H 0.0 **** 0.0
188 H54277 -0.0366348005017529 0.126994782831204 0.413356534678049 H 0.0 **** 0.0
189 H54279 -0.0186233673737908 0.105254969698875 0.42437076682303 H 0.0 **** 0.0
190 H54281 -0.0140214076922451 0.124330297501846 0.325665570264281 H 0.0 **** 0.0
191 H54283 0.00368454051523719 0.0473124704135693 0.448291534163366 H 0.0 **** 0.0
192 H54285 -0.00995319811032471 0.072672256831239 0.450573384327563 H 0.0 **** 0.0
193 H54287 0.02335860719078 0.0900428054648077 0.44243534263575 H 0.0 **** 0.0
194 H54289 0.0177237720897589 0.0857326373667211 0.474048251807215 H 0.0 **** 0.0
195 H54291 -0.00429433922336384 0.0895662165823342 0.474501893239615 H 0.0 **** 0.0
196 H54293 -0.00853641656718246 0.0578518392840641 0.479398725955234 H 0.0 **** 0.0
197 H54295 0.00143973327882919 0.0682426414420752 0.496446341022556 H 0.0 **** 0.0
198 H54297 0.02841144312744 0.0571186990003908 0.489973582348591 H 0.0 **** 0.0
199 H54299 0.035321150317785 0.0629587994709594 0.463116648511869 H 0.0 **** 0.0
200 H54301 0.0267260399880686 0.0271639370687031 0.452741979089917 H 0.0 **** 0.0
201 H54303 0.0457689015095226 0.0386728293278489 0.450001342386492 H 0.0 **** 0.0
202 H54305 0.0500775869395892 0.0372241576151771 0.481608371899993 H 0.0 **** 0.0
203 H54307 0.0498282733944475 0.0168447592928688 0.472715824538832 H 0.0 **** 0.0
204 H54309 0.0319800801212033 0.0216307682510976 0.500114813392908 H 0.0 **** 0.0
205 H54311 0.0222976032661509 0.0104340553055483 0.483312683536492 H 0.0 **** 0.0
206 H54313 0.0062386820428481 0.0353789413075897 0.496549764108704 H 0.0 **** 0.0
207 H54315 0.0398751917946997 0.102907304099018 0.316119739183486 H 0.0 **** 0.0
208 H54317 0.0200670850246154 0.119876511933577 0.300213830669294 H 0.0 **** 0.0
209 H54319 -0.00755083957301685 0.0938278365341009 0.303412962995728 H 0.0 **** 0.0
210 H54321 -0.00578322473213356 0.110694438681759 0.289082448703035 H 0.0 **** 0.0
211 H54323 -0.000529455914038157 0.0875211797095962 0.270760256451991 H 0.0 **** 0.0
212 H54325 0.00855818425528827 0.0752020343846423 0.286924380125087 H 0.0 **** 0.0
213 H54327 0.0259011861708868 0.105796219286875 0.270759825855458 H 0.0 **** 0.0
214 H54329 0.0305012416143206 0.0845927083249226 0.265589629461429 H 0.0 **** 0.0
215 H54331 0.0496249407472811 0.100514507900701 0.288050960965893 H 0.0 **** 0.0
216 H54333 0.0439635905980353 0.0793906611455448 0.292088580205622 H 0.0 **** 0.0
217 H54335 0.0347762553444527 0.0567695061419291 0.329184825822495 H 0.0 **** 0.0
218 H54337 0.0549401846782566 0.0375987251780191 0.341449235239936 H 0.0 **** 0.0
219 H54339 0.0216758502498533 0.0311436706748404 0.424887741606961 H 0.0 **** 0.0
220 H54341 0.0465598830036376 0.0126313615829322 0.436280591561735 H 0.0 **** 0.0
221 H54343 0.0691327445475942 -0.00234125523082788 0.430321424788117 H 0.0 **** 0.0
222 H54345 0.0463828292369535 -0.0301608789317327 0.41634644178872 H 0.0 **** 0.0
223 H54347 0.0547510571115732 -0.0197811423203005 0.452454311631437 H 0.0 **** 0.0
224 H54349 0.0443348962683872 -0.0389255246823032 0.447391937306095 H 0.0 **** 0.0
225 H54351 0.0273542506536596 -0.00955794068114599 0.454497215498181 H 0.0 **** 0.0
226 H54353 0.0188601311800882 -0.0259591926233373 0.442076929499379 H 0.0 **** 0.0
227 H54355 0.0163595564152138 0.00381881752795483 0.429687757269687 H 0.0 **** 0.0
228 H54357 0.0245760892677181 -0.0117013893902041 0.416033661933057 H 0.0 **** 0.0
229 H54359 -0.126354505049434 0.200690274025769 0.369960552369283 H 0.0 **** 0.0
230 H54361 -0.137462810883721 0.171710871372268 0.374255424982298 H 0.0 **** 0.0
231 H54363 -0.128084334843758 0.170799111700968 0.394660191767579 H 0.0 **** 0.0
232 H54365 -0.115134046959447 0.171932242294708 0.376336598904786 H 0.0 **** 0.0
233 H54367 -0.146022022637892 0.215465895286418 0.389507499631871 H 0.0 **** 0.0
234 H54369 -0.147337684489922 0.197077409283462 0.402334811041641 H 0.0 **** 0.0
235 H54371 -0.155106193100489 0.196684102506158 0.381252567923102 H 0.0 **** 0.0
236 H54373 0.00498434623081447 0.111156689770235 0.435009547298613 H 0.0 **** 0.0
237 H54375 0.092113102259651 0.00895923364329889 0.350640477420847 H 0.0 **** 0.0
238 H54377 0.114093315924578 -0.0108901111314592 0.344003625366413 H 0.0 **** 0.0
239 H54379 0.130139695889229 -0.0348930189590702 0.350393677637251 H 0.0 **** 0.0
240 H54381 0.147784191905795 -0.0583364315311388 0.357484489685769 H 0.0 **** 0.0
241 H54383 0.155616283998203 -0.0810903022819498 0.376089267015357 H 0.0 **** 0.0
242 H54385 0.137119906693256 -0.101727341287879 0.427633525272777 H 0.0 **** 0.0
243 H54387 0.151843387861804 -0.0970020145249363 0.401767587667832 H 0.0 **** 0.0
244 H54389 0.0653245650637037 -0.0533398184236819 0.443779169557902 H 0.0 **** 0.0
245 H54391 0.072030995038146 -0.0707721794823388 0.460039787421258 H 0.0 **** 0.0
246 H54393 0.0757762434317726 -0.0917582669877016 0.454219141144187 H 0.0 **** 0.0
247 H54395 0.0857430263577034 -0.0855415241409196 0.484269153039731 H 0.0 **** 0.0
248 H54397 0.100235452734889 -0.0706244356204694 0.475948419343386 H 0.0 **** 0.0
249 H54399 0.0994623191160825 -0.109201616992607 0.470505251556294 H 0.0 **** 0.0
250 H54401 0.116870921259391 -0.0971608212626325 0.476964936672511 H 0.0 **** 0.0
@<TRIPOS>BOND
1 3 2 1
2 4 3 1
3 5 4 1
4 6 5 1
5 1 2 1
6 1 6 1
7 8 7 1
8 9 8 1
9 10 9 1
10 4 7 1
11 3 10 1
12 12 11 1
13 13 12 1
14 14 13 1
15 8 11 1
16 7 14 1
17 16 15 1
18 17 16 Partial double
19 18 17 1
20 13 15 1
21 12 18 1
22 20 19 Partial double
23 21 20 Partial double
24 22 21 Partial double
25 17 19 Partial double
26 16 22 Partial double
27 24 23 1
28 25 24 1
29 15 25 Double
30 22 23 1
31 27 26 1
32 28 27 Partial double
33 29 28 Partial double
34 21 26 1
35 20 29 Partial double
36 31 30 1
37 32 31 1
38 18 30 1
39 19 32 1
40 34 33 Double
41 35 34 1
42 36 35 1
43 31 33 1
44 30 36 Double
45 38 37 1
46 39 38 1
47 40 39 Double
48 34 37 1
49 33 40 1
50 42 41 1
51 43 42 1
52 44 43 1
53 40 41 1
54 39 44 1
55 46 45 Partial double
56 32 46 1
57 29 45 Partial double
58 48 47 Partial double
59 49 48 1
60 45 49 Partial double
61 28 47 Partial double
62 51 50 Partial double
63 52 51 Partial double
64 53 52 Partial double
65 48 50 Partial double
66 47 53 Partial double
67 55 54 Partial double
68 56 55 Partial double
69 57 56 Partial double
70 52 54 Partial double
71 51 57 Partial double
72 59 58 Partial double
73 60 59 Partial double
74 61 60 Partial double
75 56 58 Partial double
76 55 61 Partial double
77 63 62 Partial double
78 27 63 Partial double
79 53 62 Partial double
80 65 64 Partial double
81 62 65 Partial double
82 54 64 Partial double
83 67 66 Partial double
84 64 67 Partial double
85 61 66 Partial double
86 69 68 Partial double
87 70 69 Partial double
88 66 70 Partial double
89 60 68 Partial double
90 72 71 1
91 73 72 1
92 74 73 1
93 59 71 1
94 58 74 1
95 76 75 1
96 77 76 1
97 78 77 1
98 73 75 1
99 72 78 1
100 80 79 1
101 81 80 1
102 82 81 1
103 78 79 1
104 77 82 1
105 84 83 Partial double
106 85 84 Partial double
107 67 85 Partial double
108 65 83 Partial double
109 87 86 1
110 88 87 1
111 89 88 1
112 84 86 1
113 83 89 1
114 91 90 1
115 92 91 1
116 93 92 1
117 88 90 1
118 87 93 1
119 95 94 Partial double
120 85 95 Partial double
121 70 94 Partial double
122 97 96 Partial double
123 98 97 Partial double
124 94 98 Partial double
125 69 96 Partial double
126 100 99 Partial double
127 101 100 Partial double
128 68 101 Partial double
129 96 99 Partial double
130 103 102 1
131 104 103 Partial double
132 97 102 1
133 99 104 1
134 106 105 1
135 107 106 1
136 100 105 1
137 104 107 Partial double
138 109 108 1
139 110 109 1
140 111 110 1
141 106 108 1
142 105 111 1
143 113 112 1
144 114 113 1
145 103 114 Partial double
146 107 112 Partial double
147 108 115 1
148 112 116 Partial double
149 115 116 Partial double
150 42 117 1
151 117 118 1
152 117 119 1
153 74 120 1
154 122 121 1
155 123 122 Partial double
156 124 123 1
157 114 121 Partial double
158 113 124 Partial double
159 126 125 Partial double
160 127 126 1
161 128 127 Partial double
162 124 125 Partial double
163 123 128 Partial double
164 130 129 Partial double
165 131 130 1
166 132 131 1
167 127 129 Partial double
168 126 132 Partial double
169 134 133 Partial double
170 135 134 Partial double
171 125 135 Partial double
172 132 133 Partial double
173 137 136 Partial double
174 138 137 Partial double
175 131 138 Partial double
176 133 136 Partial double
177 140 139 Partial double
178 134 140 Partial double
179 116 135 Partial double
180 115 139 Partial double
181 142 141 Partial double
182 140 142 Partial double
183 136 141 Partial double
184 144 143 1
185 145 144 1
186 146 145 1
187 142 143 1
188 141 146 1
189 146 147 Double
190 1 148 1
191 1 149 1
192 2 150 1
193 2 151 1
194 3 152 1
195 4 153 1
196 5 154 1
197 5 155 1
198 7 156 1
199 8 157 1
200 9 158 1
201 9 159 1
202 10 160 1
203 10 161 1
204 12 162 1
205 13 163 1
206 14 164 1
207 14 165 1
208 18 166 1
209 23 167 1
210 23 168 1
211 24 169 1
212 24 170 1
213 25 171 1
214 35 173 1
215 35 174 1
216 36 175 1
217 37 176 1
218 37 177 1
219 38 178 1
220 38 179 1
221 41 180 1
222 41 181 1
223 42 182 1
224 43 183 1
225 43 184 1
226 44 185 1
227 44 186 1
228 46 187 1
229 50 188 1
230 57 189 1
231 63 190 1
232 72 191 1
233 73 192 1
234 74 193 1
235 75 194 1
236 75 195 1
237 76 196 1
238 76 197 1
239 77 198 1
240 78 199 1
241 79 200 1
242 79 201 1
243 80 202 1
244 80 203 1
245 81 204 1
246 81 205 1
247 82 206 1
248 87 207 1
249 88 208 1
250 90 209 1
251 90 210 1
252 91 211 1
253 91 212 1
254 92 213 1
255 92 214 1
256 93 215 1
257 93 216 1
258 95 217 1
259 98 218 1
260 101 219 1
261 105 220 1
262 106 221 1
263 108 222 1
264 109 223 1
265 109 224 1
266 110 225 1
267 110 226 1
268 111 227 1
269 111 228 1
270 117 229 1
271 118 230 1
272 118 231 1
273 118 232 1
274 119 233 1
275 119 234 1
276 119 235 1
277 120 236 1
278 121 237 1
279 122 238 1
280 128 239 1
281 129 240 1
282 130 241 1
283 137 242 1
284 138 243 1
285 139 244 1
286 143 245 1
287 143 246 1
288 144 247 1
289 144 248 1
290 145 249 1
291 145 250 1
292 31 172 1
@<TRIPOS>MOLECULE
Sketch 4
250 292
SMALL
USER_CHARGES


@<TRIPOS>ATOM
1 C54404 0.0684760725233453 0.00812229336258484 0.636476921414291 C 0.0 **** 0.0
2 C54405 0.0845042076692401 0.0191525137032888 0.633866188786363 C 0.0 **** 0.0
3 C54406 0.0835623641896679 0.0356261955143795 0.644189077552193 C 0.0 **** 0.0
4 C54407 0.0669436307386374 0.0455218438008891 0.640068803493154 C 0.0 **** 0.0
5 C54408 0.0528269016311302 0.0330329286452484 0.634689501868436 C 0.0 **** 0.0
6 O54409 0.0545760060025796 0.0173437155747484 0.643222872699118 O 0.0 **** 0.0
7 C54416 0.0693422124784279 0.0602041298580035 0.627366144877218 C 0.0 **** 0.0
8 C54417 0.0836779469821109 0.0726140826312085 0.632794958852483 C 0.0 **** 0.0
9 C54418 0.0955542165417381 0.0650941213507263 0.646169369429398 C 0.0 **** 0.0
10 C54419 0.0995936051689057 0.0465827230009193 0.642461420371494 C 0.0 **** 0.0
11 O54425 0.0770410348880344 0.087806238877323 0.639846221646661 O 0.0 **** 0.0
12 C54426 0.0685210937710377 0.0981781743440214 0.627725638259736 C 0.0 **** 0.0
13 C54427 0.0548928758179607 0.0879311641794137 0.617410612909483 C 0.0 **** 0.0
14 C54428 0.0526152037345854 0.0700158934072548 0.6249911222481 C 0.0 **** 0.0
15 C54434 0.0567538674405114 0.0889318971916961 0.598328903680712 C 0.0 **** 0.0
16 C54435 0.0609606119974675 0.106313485772636 0.59207300299448 C 0.0 **** 0.0
17 C54436 0.0710053710576714 0.116582704931369 0.60200148230643 C 0.0 **** 0.0
18 C54437 0.0806488755419524 0.10851569176624 0.616680346803812 C 0.0 **** 0.0
19 C54443 0.0735460134382704 0.133154476222347 0.59713040505431 C 0.0 **** 0.0
20 C54444 0.0670787138359386 0.138837652353112 0.581821740179375 C 0.0 **** 0.0
21 C54445 0.0580464848924407 0.128048965203611 0.571271847783919 C 0.0 **** 0.0
22 C54446 0.0551842341873652 0.11146084007883 0.57636047833597 C 0.0 **** 0.0
23 C54452 0.0461883973954347 0.0989588329577776 0.565016432792344 C 0.0 **** 0.0
24 C54453 0.0523701243194585 0.080600114833699 0.568410137375731 C 0.0 **** 0.0
25 C54454 0.0527145448801537 0.0767058464038688 0.587172578979953 C 0.0 **** 0.0
26 O54459 0.0519924938108773 0.133330678339382 0.555635840172257 O 0.0 **** 0.0
27 C54460 0.0539671278260447 0.150054682473771 0.55070968168758 C 0.0 **** 0.0
28 C54461 0.0632993068510654 0.161791409487574 0.559835017014497 C 0.0 **** 0.0
29 C54462 0.0711145659194824 0.15643702539905 0.576296415696366 C 0.0 **** 0.0
30 C54468 0.0917746888722002 0.121306270996129 0.625837136981539 C 0.0 **** 0.0
31 C54469 0.0997468307286663 0.134089613368378 0.613844047983337 C 0.0 **** 0.0
32 C54470 0.084126634783431 0.14437232576682 0.608234781475619 C 0.0 **** 0.0
33 C54475 0.114356007131323 0.144945416977421 0.621230557664725 C 0.0 **** 0.0
34 C54476 0.116219449913722 0.145278378626382 0.638401371176593 C 0.0 **** 0.0
35 C54477 0.105834207801482 0.134845590210554 0.650691393206089 C 0.0 **** 0.0
36 C54478 0.0943182903299566 0.121994803376589 0.642583279055643 C 0.0 **** 0.0
37 C54484 0.130390610599234 0.154238748166053 0.647308469455962 C 0.0 **** 0.0
38 C54485 0.139499516344608 0.167258814014141 0.636184896146559 C 0.0 **** 0.0
39 C54486 0.137583505860173 0.163820229158006 0.617611510629953 C 0.0 **** 0.0
40 C54487 0.125536829644507 0.153367996559807 0.610961957211121 C 0.0 **** 0.0
41 C54493 0.125195748333818 0.151660582306425 0.591499937593894 C 0.0 **** 0.0
42 C54494 0.142206063550648 0.155387195397059 0.583247360251416 C 0.0 **** 0.0
43 C54495 0.147571388586305 0.173282613166858 0.58859337937862 C 0.0 **** 0.0
44 C54496 0.150274420828465 0.174042646031249 0.607662633357534 C 0.0 **** 0.0
45 C54502 0.0811032375492027 0.166656738337697 0.585831692655461 C 0.0 **** 0.0
46 C54503 0.0874455429253666 0.161771996297312 0.601044362175433 C 0.0 **** 0.0
47 C54507 0.0647837357236792 0.178522604271619 0.553690902336992 C 0.0 **** 0.0
48 C54508 0.0742435435873188 0.191222137540933 0.562125317040047 C 0.0 **** 0.0
49 S54509 0.0870699928691292 0.186635478443449 0.579139338728161 S 0.0 **** 0.0
50 C54514 0.074153025695807 0.207758324056692 0.557156667260305 C 0.0 **** 0.0
51 C54515 0.0657258720023767 0.212396196545709 0.542187994152676 C 0.0 **** 0.0
52 C54516 0.0578432068273776 0.199630177357514 0.53247742629756 C 0.0 **** 0.0
53 C54517 0.0562227660062576 0.183233932536222 0.538722541677991 C 0.0 **** 0.0
54 C54523 0.0529642255593684 0.203572750465292 0.516035401627328 C 0.0 **** 0.0
55 C54524 0.055927482164304 0.219689254247366 0.509256954093637 C 0.0 **** 0.0
56 C54525 0.0606355616372639 0.233282241354897 0.519811776020706 C 0.0 **** 0.0
57 C54526 0.0662991193072018 0.229068260703073 0.536106961839247 C 0.0 **** 0.0
58 C54532 0.05963312626496 0.249878466586852 0.51359463609991 C 0.0 **** 0.0
59 C54533 0.058477434276888 0.252368719306161 0.496264473286201 C 0.0 **** 0.0
60 C54534 0.0563966484480189 0.238606539414852 0.485056573113075 C 0.0 **** 0.0
61 C54535 0.0535078736772694 0.222647973513694 0.492125527835348 C 0.0 **** 0.0
62 C54541 0.0467167603063768 0.171316494524405 0.529487212214415 C 0.0 **** 0.0
63 C54542 0.0461772866255595 0.154747853732818 0.535863068673759 C 0.0 **** 0.0
64 C54546 0.044743838221093 0.191339398829076 0.506413148884064 C 0.0 **** 0.0
65 C54547 0.0392843044476395 0.176223764627559 0.513779918537302 C 0.0 **** 0.0
66 C54551 0.0471628070938479 0.209607907626515 0.482151908336053 C 0.0 **** 0.0
67 C54552 0.0413236233702749 0.194802709199298 0.489639570324677 C 0.0 **** 0.0
68 C54556 0.0566259887608847 0.240196249422057 0.467006172558488 C 0.0 **** 0.0
69 C54557 0.0524977292979159 0.225909096699088 0.457177625434709 C 0.0 **** 0.0
70 C54558 0.0460930771445552 0.21153486475973 0.464709032246153 C 0.0 **** 0.0
71 O54563 0.0588459173542629 0.268855791588252 0.490222023149524 O 0.0 **** 0.0
72 C54564 0.0718012554845464 0.279577769789177 0.497069837582056 C 0.0 **** 0.0
73 C54565 0.0755128851506771 0.276018657952535 0.516110970995803 C 0.0 **** 0.0
74 C54566 0.0606899783075144 0.266227911027531 0.523651761241886 C 0.0 **** 0.0
75 C54572 0.0798000417765879 0.292241198452317 0.526114149677854 C 0.0 **** 0.0
76 C54573 0.0905076258475023 0.304043617836408 0.515221045064638 C 0.0 **** 0.0
77 C54574 0.0798951725060848 0.311090362212768 0.500541954938136 C 0.0 **** 0.0
78 C54575 0.066435779974088 0.298163538866715 0.49417824250326 C 0.0 **** 0.0
79 C54581 0.0607570102037835 0.301822971195558 0.475808380174132 C 0.0 **** 0.0
80 C54582 0.062521518174259 0.320775612526978 0.472304504717552 C 0.0 **** 0.0
81 C54583 0.0811222387692521 0.32666107736336 0.473915834987842 C 0.0 **** 0.0
82 N54584 0.0906606836584181 0.317781629166361 0.487260262072295 N 0.0 **** 0.0
83 C54590 0.0264084179210252 0.16677368907109 0.505510377558457 C 0.0 **** 0.0
84 C54591 0.0217743392491819 0.171136154762023 0.489060925051607 C 0.0 **** 0.0
85 C54592 0.030942452974217 0.183797830034961 0.480459386898208 C 0.0 **** 0.0
86 O54597 0.0090413355916473 0.162879276736347 0.480321296917559 O 0.0 **** 0.0
87 C54598 -0.0027633626217655 0.155634241326904 0.49189393838849 C 0.0 **** 0.0
88 C54599 0.00681078582414241 0.144093097568017 0.503454367641776 C 0.0 **** 0.0
89 O54600 0.0186112203246901 0.153298870353812 0.513663097643259 O 0.0 **** 0.0
90 C54606 0.0158240738144486 0.130058674070109 0.493157983355167 C 0.0 **** 0.0
91 C54607 0.00815812223573419 0.126953246031312 0.475518974864725 C 0.0 **** 0.0
92 C54608 -0.011146057752508 0.128392741464023 0.476220473390766 C 0.0 **** 0.0
93 C54609 -0.0166629647181399 0.146284215605339 0.481994763207503 C 0.0 **** 0.0
94 C54615 0.0389207997095918 0.19859970089101 0.454608134973006 C 0.0 **** 0.0
95 C54616 0.029926430919856 0.185551610499322 0.462762274142373 C 0.0 **** 0.0
96 C54620 0.0547064336632879 0.226155593509654 0.439626885151778 C 0.0 **** 0.0
97 C54621 0.0510620286596988 0.211718010552679 0.429727887211923 C 0.0 **** 0.0
98 C54622 0.0422365636253152 0.198604559910572 0.436977517904884 C 0.0 **** 0.0
99 C54627 0.0591864054468721 0.241206668612679 0.43135821032334 C 0.0 **** 0.0
100 C54628 0.0620144918079024 0.255798507454336 0.440563825547844 C 0.0 **** 0.0
101 C54629 0.0610148180203263 0.254922701004237 0.457940556687739 C 0.0 **** 0.0
102 O54634 0.0555706006253323 0.210862423416502 0.412866697604118 O 0.0 **** 0.0
103 C54635 0.058536827696754 0.225763888415726 0.404240631641844 C 0.0 **** 0.0
104 C54636 0.0601035804719077 0.240900530663904 0.412501087274829 C 0.0 **** 0.0
105 C54641 0.0655976890960431 0.272844516137677 0.432411742076472 C 0.0 **** 0.0
106 C54642 0.0625783688106484 0.272890687819187 0.412521543277418 C 0.0 **** 0.0
107 C54643 0.0622229915090423 0.255624949074262 0.403757190665318 C 0.0 **** 0.0
108 C54648 0.0751999807112729 0.284775875061206 0.403519038775159 C 0.0 **** 0.0
109 C54649 0.0774121793906199 0.301474420408212 0.413159754888764 C 0.0 **** 0.0
110 C54650 0.0852020889065318 0.298141681732606 0.430852192715011 C 0.0 **** 0.0
111 C54651 0.083266774113885 0.279602791790502 0.436657953948411 C 0.0 **** 0.0
112 C54657 0.0636809631481241 0.255025734229443 0.386561158646146 C 0.0 **** 0.0
113 C54658 0.0625989424294085 0.23982392309734 0.378219532472178 C 0.0 **** 0.0
114 C54659 0.0601302350416734 0.22521524579955 0.387038041454295 C 0.0 **** 0.0
115 C54664 0.0698537398641661 0.286426944637757 0.385082354365679 C 0.0 **** 0.0
116 C54666 0.0658049019469333 0.271363805914153 0.376968833740278 C 0.0 **** 0.0
117 C54669 0.141786327113203 0.152630892373336 0.563868503199463 C 0.0 **** 0.0
118 C54671 0.130187016754565 0.164893380642047 0.554314616228165 C 0.0 **** 0.0
119 C54673 0.159514339445538 0.1532383693885 0.55603203735114 C 0.0 **** 0.0
120 O54675 0.0629252742488507 0.264216876753763 0.541351416010436 O 0.0 **** 0.0
121 C54677 0.0593222411176914 0.210105354122399 0.378612370322343 C 0.0 **** 0.0
122 C54678 0.0613146261652921 0.209544985556666 0.361515039459948 C 0.0 **** 0.0
123 C54679 0.0636633407648419 0.224069604633991 0.352523602465385 C 0.0 **** 0.0
124 C54680 0.0638819174423461 0.239160240996088 0.360985897202128 C 0.0 **** 0.0
125 C54686 0.0652796669355705 0.255005953374731 0.351168904148313 C 0.0 **** 0.0
126 C54687 0.067444302305486 0.254088411464522 0.334068600044563 C 0.0 **** 0.0
127 C54688 0.0679614750570632 0.237385019881973 0.325726977949037 C 0.0 **** 0.0
128 C54689 0.0657515489504931 0.223046460888927 0.335222163972367 C 0.0 **** 0.0
129 C54695 0.0706721314698819 0.236626398137009 0.308657939971572 C 0.0 **** 0.0
130 C54696 0.0727046419972291 0.251072678536052 0.299235103541656 C 0.0 **** 0.0
131 C54697 0.0717911671918471 0.266871320979815 0.306300586331437 C 0.0 **** 0.0
132 C54698 0.0692069376859834 0.268539203931754 0.324705560922115 C 0.0 **** 0.0
133 C54704 0.0682779744175016 0.284544367188054 0.332274947602122 C 0.0 **** 0.0
134 C54705 0.0663541644503012 0.285445045152102 0.349787161990464 C 0.0 **** 0.0
135 C54706 0.0651326721139847 0.270656365597659 0.359361275445429 C 0.0 **** 0.0
136 C54711 0.0684940186157788 0.299377867643277 0.322645505862178 C 0.0 **** 0.0
137 C54712 0.0717312162690353 0.296726348362497 0.303846699958259 C 0.0 **** 0.0
138 C54713 0.0732146005284267 0.281089683921516 0.296605176850113 C 0.0 **** 0.0
139 C54718 0.0697331503927134 0.301147391068769 0.375647452446295 C 0.0 **** 0.0
140 C54719 0.0664913035447509 0.301133066723748 0.357899440344348 C 0.0 **** 0.0
141 C54724 0.0651111316552381 0.314875060927182 0.330494840236424 C 0.0 **** 0.0
142 C54725 0.0640799982650416 0.315869576566947 0.348099542268826 C 0.0 **** 0.0
143 C54729 0.0611077054020018 0.332460544477817 0.357421925561703 C 0.0 **** 0.0
144 C54730 0.051142279266599 0.345105460338396 0.346758091492568 C 0.0 **** 0.0
145 C54731 0.0596431992148576 0.34700310186226 0.329719235692963 C 0.0 **** 0.0
146 C54732 0.0621914278506688 0.330618880622214 0.320261850412101 C 0.0 **** 0.0
147 O54738 0.0609077937590504 0.330802629050561 0.304975965756335 O 0.0 **** 0.0
148 H54740 0.0709932651393476 -0.00196921846200611 0.645695367567219 H 0.0 **** 0.0
149 H54742 0.0648322742494645 0.0018511162948138 0.624552831823053 H 0.0 **** 0.0
150 H54744 0.0960036808859158 0.0119943324589179 0.637160792185563 H 0.0 **** 0.0
151 H54746 0.0858965155851008 0.0225763744228049 0.620407798070592 H 0.0 **** 0.0
152 H54748 0.0825667393270012 0.0318724053448556 0.657613335561678 H 0.0 **** 0.0
153 H54750 0.0629443735194231 0.0514356141349405 0.652088492238733 H 0.0 **** 0.0
154 H54752 0.0528414237719203 0.0311615532368528 0.620852492374101 H 0.0 **** 0.0
155 H54754 0.0402719245156814 0.0379802271800297 0.638047548005311 H 0.0 **** 0.0
156 H54756 0.0729421549897825 0.0545535617909113 0.615123235240887 H 0.0 **** 0.0
157 H54758 0.0913420436878326 0.075493280786338 0.621501243326385 H 0.0 **** 0.0
158 H54760 0.0892949518517098 0.0661381716342837 0.658586469995307 H 0.0 **** 0.0
159 H54762 0.107132150618843 0.0728202918946246 0.64694968743852 H 0.0 **** 0.0
160 H54764 0.109553841215083 0.0417641890444298 0.650928949363283 H 0.0 **** 0.0
161 H54766 0.104663400588333 0.0456907941510377 0.629497018448613 H 0.0 **** 0.0
162 H54768 0.0613520263237059 0.107091900706126 0.6356348211831 H 0.0 **** 0.0
163 H54770 0.0426854246277055 0.0942069945494242 0.619643506426908 H 0.0 **** 0.0
164 H54772 0.0431431253078609 0.0624966058330842 0.618094625716599 H 0.0 **** 0.0
165 H54774 0.047164969298989 0.0720529246151271 0.637710423833043 H 0.0 **** 0.0
166 H54776 0.0896052647135946 0.0995268189670609 0.610819490963718 H 0.0 **** 0.0
167 H54778 0.0324246540180497 0.0996695118824736 0.566917610881384 H 0.0 **** 0.0
168 H54780 0.0485746066835912 0.102156406201914 0.551723689516873 H 0.0 **** 0.0
169 H54782 0.0650953226814462 0.0787504018075924 0.563084738937059 H 0.0 **** 0.0
170 H54784 0.0440013227327377 0.0715490869378918 0.561891831727075 H 0.0 **** 0.0
171 H54786 0.0489352935078715 0.0639740346653821 0.590756145088172 H 0.0 **** 0.0
172 H54788 0.104785778770725 0.126926101509093 0.602996031536566 H 0.0 **** 0.0
173 H54789 0.0983867102675687 0.143313130089196 0.658847192528673 H 0.0 **** 0.0
174 H54791 0.114656523637997 0.12799341298818 0.659120989328924 H 0.0 **** 0.0
175 H54793 0.0882580718927714 0.112990731662506 0.651073622274061 H 0.0 **** 0.0
176 H54795 0.125648651096772 0.160466177380498 0.658859563759679 H 0.0 **** 0.0
177 H54797 0.139547743948887 0.144605825400086 0.651561657064076 H 0.0 **** 0.0
178 H54799 0.153045279797419 0.167484878082045 0.639548415445996 H 0.0 **** 0.0
179 H54801 0.134531841777851 0.180014031816807 0.638799997890275 H 0.0 **** 0.0
180 H54803 0.121048287003467 0.138939338454697 0.587727811609629 H 0.0 **** 0.0
181 H54805 0.115842937723388 0.160550612013187 0.586348001117387 H 0.0 **** 0.0
182 H54807 0.151606609647227 0.146374472866914 0.588355041248291 H 0.0 **** 0.0
183 H54809 0.137555394923457 0.182241852363131 0.584878186119364 H 0.0 **** 0.0
184 H54811 0.159213659806351 0.177395411564346 0.582149358195449 H 0.0 **** 0.0
185 H54813 0.150009492403078 0.187267887366417 0.612123916676548 H 0.0 **** 0.0
186 H54815 0.162988738644238 0.169097723490145 0.610650016574731 H 0.0 **** 0.0
187 H54817 0.0950641248003416 0.170409235670619 0.608596420589865 H 0.0 **** 0.0
188 H54819 0.0811691349126144 0.217394722753914 0.564245682978498 H 0.0 **** 0.0
189 H54821 0.0722879123003357 0.23845213124436 0.544292969594473 H 0.0 **** 0.0
190 H54823 0.0397405669866481 0.144609792198036 0.528972224023005 H 0.0 **** 0.0
191 H54825 0.0833851329272493 0.277211924946898 0.48969160478853 H 0.0 **** 0.0
192 H54827 0.086736933746756 0.267774457632741 0.517091731313811 H 0.0 **** 0.0
193 H54829 0.0490144602227353 0.273703386519868 0.521615840925601 H 0.0 **** 0.0
194 H54831 0.0681038216536948 0.298794344429458 0.529863390436676 H 0.0 **** 0.0
195 H54833 0.0863309114103754 0.288860860500456 0.53795529807892 H 0.0 **** 0.0
196 H54835 0.101231862223722 0.296772570672185 0.510116821795366 H 0.0 **** 0.0
197 H54837 0.0959688200868333 0.314493635219803 0.522653722596586 H 0.0 **** 0.0
198 H54839 0.0728059030607436 0.321958593010805 0.505634021124666 H 0.0 **** 0.0
199 H54841 0.0552173518098289 0.299948916268434 0.502299617967396 H 0.0 **** 0.0
200 H54843 0.068870416237122 0.294916115851583 0.466860001677774 H 0.0 **** 0.0
201 H54845 0.0477357704243992 0.297343134369512 0.473720375974559 H 0.0 **** 0.0
202 H54847 0.0546269369279409 0.327615227066157 0.4815617290476 H 0.0 **** 0.0
203 H54849 0.0576599102370626 0.324314514586881 0.459748889696519 H 0.0 **** 0.0
204 H54851 0.0815834855168039 0.340330187974425 0.476557497502046 H 0.0 **** 0.0
205 H54853 0.0877106002085847 0.324827640365663 0.461787616418847 H 0.0 **** 0.0
206 H54855 0.0976846344369538 0.308441149215897 0.482384445145621 H 0.0 **** 0.0
207 H54857 -0.00847691623262424 0.165973825025473 0.499318059761748 H 0.0 **** 0.0
208 H54859 -0.00232602083383025 0.138190249031517 0.512161446617808 H 0.0 **** 0.0
209 H54861 0.0291900720255956 0.133559501829249 0.491844486318344 H 0.0 **** 0.0
210 H54863 0.0155371128815758 0.117987970414083 0.500040862447718 H 0.0 **** 0.0
211 H54865 0.012216735608496 0.114457315971309 0.470964116961499 H 0.0 **** 0.0
212 H54867 0.0131311108942983 0.136161991116663 0.466313660444263 H 0.0 **** 0.0
213 H54869 -0.0158744844246937 0.118905540340443 0.485285434633015 H 0.0 **** 0.0
214 H54871 -0.016933392182664 0.125219919364325 0.463953867189093 H 0.0 **** 0.0
215 H54873 -0.0283641504848351 0.145385449067516 0.489492238066854 H 0.0 **** 0.0
216 H54875 -0.0197554292436113 0.154111706584216 0.470915844248153 H 0.0 **** 0.0
217 H54877 0.0231740669495097 0.176020589964563 0.455257317956233 H 0.0 **** 0.0
218 H54879 0.0379605585540217 0.187926640836926 0.429183943269515 H 0.0 **** 0.0
219 H54881 0.0642509594893809 0.266646827893033 0.464455699429853 H 0.0 **** 0.0
220 H54883 0.0564219815916619 0.281988321937749 0.437665860180937 H 0.0 **** 0.0
221 H54885 0.0499254133364824 0.278425747942156 0.410731470525354 H 0.0 **** 0.0
222 H54887 0.0877654280007041 0.278595249131974 0.403404780525293 H 0.0 **** 0.0
223 H54889 0.064965907190306 0.307584492076494 0.414514317483352 H 0.0 **** 0.0
224 H54891 0.0855206687483462 0.310348902654259 0.40613288910415 H 0.0 **** 0.0
225 H54893 0.079207634954655 0.306528013887186 0.440202287057407 H 0.0 **** 0.0
226 H54895 0.098712094653494 0.301450720188933 0.430846596496689 H 0.0 **** 0.0
227 H54897 0.0859925951077559 0.278754056978606 0.450287785292777 H 0.0 **** 0.0
228 H54899 0.0927591849607218 0.271649926581087 0.430251259157586 H 0.0 **** 0.0
229 H54901 0.136847410175022 0.139724643859827 0.561664967329924 H 0.0 **** 0.0
230 H54903 0.130539359977427 0.162133264442402 0.540679422355223 H 0.0 **** 0.0
231 H54905 0.134248912478874 0.178090203304411 0.556005027389966 H 0.0 **** 0.0
232 H54907 0.116920427287472 0.163921490015947 0.558382697707104 H 0.0 **** 0.0
233 H54909 0.16821515954488 0.144380553678968 0.562315436284459 H 0.0 **** 0.0
234 H54911 0.164985214314887 0.165995199637024 0.556953012709879 H 0.0 **** 0.0
235 H54913 0.159046286055183 0.149815517130836 0.542540553294555 H 0.0 **** 0.0
236 H54915 0.0526533045315387 0.259455845561304 0.545470897633365 H 0.0 **** 0.0
237 H54917 0.057289729050771 0.198241643875251 0.385353102759639 H 0.0 **** 0.0
238 H54919 0.0608231811585188 0.197358615802256 0.355180248634436 H 0.0 **** 0.0
239 H54921 0.0659011945843819 0.210730991802029 0.329016963403725 H 0.0 **** 0.0
240 H54923 0.0712846926479634 0.224463890418706 0.302186366137999 H 0.0 **** 0.0
241 H54925 0.0748529863490724 0.249716620101864 0.285722790085647 H 0.0 **** 0.0
242 H54927 0.0732976286315519 0.307621962638672 0.295620159492871 H 0.0 **** 0.0
243 H54929 0.0754223083346523 0.280311437503822 0.282996312615136 H 0.0 **** 0.0
244 H54931 0.0716307061400472 0.313189424035866 0.38224871854687 H 0.0 **** 0.0
245 H54933 0.0540932185928174 0.330155544854682 0.369233417884523 H 0.0 **** 0.0
246 H54935 0.0733208021524362 0.338009025499641 0.361159676673487 H 0.0 **** 0.0
247 H54937 0.0503469836917201 0.357482917362251 0.353086186216892 H 0.0 **** 0.0
248 H54939 0.0380585283980057 0.340560148183169 0.345228837063519 H 0.0 **** 0.0
249 H54941 0.0720961535346314 0.352998534310497 0.331355188174146 H 0.0 **** 0.0
250 H54943 0.0525805619296743 0.354476174213337 0.320393179654389 H 0.0 **** 0.0
@<TRIPOS>BOND
1 3 2 1
2 4 3 1
3 5 4 1
4 6 5 1
5 1 2 1
6 1 6 1
7 8 7 1
8 9 8 1
9 10 9 1
10 4 7 1
11 3 10 1
12 12 11 1
13 13 12 1
14 14 13 1
15 8 11 1
16 7 14 1
17 16 15 1
18 17 16 Partial double
19 18 17 1
20 13 15 1
21 12 18 1
22 20 19 Partial double
23 21 20 Partial double
24 22 21 Partial double
25 17 19 Partial double
26 16 22 Partial double
27 24 23 1
28 25 24 1
29 15 25 Double
30 22 23 1
31 27 26 1
32 28 27 Partial double
33 29 28 Partial double
34 21 26 1
35 20 29 Partial double
36 31 30 1
37 32 31 1
38 18 30 1
39 19 32 1
40 34 33 Double
41 35 34 1
42 36 35 1
43 31 33 1
44 30 36 Double
45 38 37 1
46 39 38 1
47 40 39 Double
48 34 37 1
49 33 40 1
50 42 41 1
51 43 42 1
52 44 43 1
53 40 41 1
54 39 44 1
55 46 45 Partial double
56 32 46 1
57 29 45 Partial double
58 48 47 Partial double
59 49 48 1
60 45 49 Partial double
61 28 47 Partial double
62 51 50 Partial double
63 52 51 Partial double
64 53 52 Partial double
65 48 50 Partial double
66 47 53 Partial double
67 55 54 Partial double
68 56 55 Partial double
69 57 56 Partial double
70 52 54 Partial double
71 51 57 Partial double
72 59 58 Partial double
73 60 59 Partial double
74 61 60 Partial double
75 56 58 Partial double
76 55 61 Partial double
77 63 62 Partial double
78 27 63 Partial double
79 53 62 Partial double
80 65 64 Partial double
81 62 65 Partial double
82 54 64 Partial double
83 67 66 Partial double
84 64 67 Partial double
85 61 66 Partial double
86 69 68 Partial double
87 70 69 Partial double
88 66 70 Partial double
89 60 68 Partial double
90 72 71 1
91 73 72 1
92 74 73 1
93 59 71 1
94 58 74 1
95 76 75 1
96 77 76 1
97 78 77 1
98 73 75 1
99 72 78 1
100 80 79 1
101 81 80 1
102 82 81 1
103 78 79 1
104 77 82 1
105 84 83 Partial double
106 85 84 Partial double
107 67 85 Partial double
108 65 83 Partial double
109 87 86 1
110 88 87 1
111 89 88 1
112 84 86 1
113 83 89 1
114 91 90 1
115 92 91 1
116 93 92 1
117 88 90 1
118 87 93 1
119 95 94 Partial double
120 85 95 Partial double
121 70 94 Partial double
122 97 96 Partial double
123 98 97 Partial double
124 94 98 Partial double
125 69 96 Partial double
126 100 99 Partial double
127 101 100 Partial double
128 68 101 Partial double
129 96 99 Partial double
130 103 102 1
131 104 103 Partial double
132 97 102 1
133 99 104 1
134 106 105 1
135 107 106 1
136 100 105 1
137 104 107 Partial double
138 109 108 1
139 110 109 1
140 111 110 1
141 106 108 1
142 105 111 1
143 113 112 1
144 114 113 1
145 103 114 Partial double
146 107 112 Partial double
147 108 115 1
148 112 116 Partial double
149 115 116 Partial double
150 42 117 1
151 117 118 1
152 117 119 1
153 74 120 1
154 122 121 1
155 123 122 Partial double
156 124 123 1
157 114 121 Partial double
158 113 124 Partial double
159 126 125 Partial double
160 127 126 1
161 128 127 Partial double
162 124 125 Partial double
163 123 128 Partial double
164 130 129 Partial double
165 131 130 1
166 132 131 1
167 127 129 Partial double
168 126 132 Partial double
169 134 133 Partial double
170 135 134 Partial double
171 125 135 Partial double
172 132 133 Partial double
173 137 136 Partial double
174 138 137 Partial double
175 131 138 Partial double
176 133 136 Partial double
177 140 139 Partial double
178 134 140 Partial double
179 116 135 Partial double
180 115 139 Partial double
181 142 141 Partial double
182 140 142 Partial double
183 136 141 Partial double
184 144 143 1
185 145 144 1
186 146 145 1
187 142 143 1
188 141 146 1
189 146 147 Double
190 1 148 1
191 1 149 1
192 2 150 1
193 2 151 1
194 3 152 1
195 4 153 1
196 5 154 1
197 5 155 1
198 7 156 1
199 8 157 1
200 9 158 1
201 9 159 1
202 10 160 1
203 10 161 1
204 12 162 1
205 13 163 1
206 14 164 1
207 14 165 1
208 18 166 1
209 23 167 1
210 23 168 1
211 24 169 1
212 24 170 1
213 25 171 1
214 35 173 1
215 35 174 1
216 36 175 1
217 37 176 1
218 37 177 1
219 38 178 1
220 38 179 1
221 41 180 1
222 41 181 1
223 42 182 1
224 43 183 1
225 43 184 1
226 44 185 1
227 44 186 1
228 46 187 1
229 50 188 1
230 57 189 1
231 63 190 1
232 72 191 1
233 73 192 1
234 74 193 1
235 75 194 1
236 75 195 1
237 76 196 1
238 76 197 1
239 77 198 1
240 78 199 1
241 79 200 1
242 79 201 1
243 80 202 1
244 80 203 1
245 81 204 1
246 81 205 1
247 82 206 1
248 87 207 1
249 88 208 1
250 90 209 1
251 90 210 1
252 91 211 1
253 91 212 1
254 92 213 1
255 92 214 1
256 93 215 1
257 93 216 1
258 95 217 1
259 98 218 1
260 101 219 1
261 105 220 1
262 106 221 1
263 108 222 1
264 109 223 1
265 109 224 1
266 110 225 1
267 110 226 1
268 111 227 1
269 111 228 1
270 117 229 1
271 118 230 1
272 118 231 1
273 118 232 1
274 119 233 1
275 119 234 1
276 119 235 1
277 120 236 1
278 121 237 1
279 122 238 1
280 128 239 1
281 129 240 1
282 130 241 1
283 137 242 1
284 138 243 1
285 139 244 1
286 143 245 1
287 143 246 1
288 144 247 1
289 144 248 1
290 145 249 1
291 145 250 1
292 31 172 1
@<TRIPOS>MOLECULE
Sketch 4
250 292
SMALL
USER_CHARGES


@<TRIPOS>ATOM
1 C54946 0.720803452230975 0.435179134324164 0.443948103402068 C 0.0 **** 0.0
2 C54947 0.732058591460509 0.424887073220675 0.431631837729928 C 0.0 **** 0.0
3 C54948 0.748177840331231 0.434546629717898 0.426490330090795 C 0.0 **** 0.0
4 C54949 0.743877550508901 0.452650217462843 0.419547170790996 C 0.0 **** 0.0
5 C54950 0.726378842065979 0.45809369816234 0.426356276749485 C 0.0 **** 0.0
6 O54951 0.724053724197703 0.45285892225586 0.443372644259135 O 0.0 **** 0.0
7 C54958 0.745077675400756 0.453721430516322 0.400025897609914 C 0.0 **** 0.0
8 C54959 0.762749068222466 0.44813559409686 0.393383858055627 C 0.0 **** 0.0
9 C54960 0.771515172484818 0.435178334704157 0.404894167743367 C 0.0 **** 0.0
10 C54961 0.759037704564903 0.423930908630435 0.414309968047852 C 0.0 **** 0.0
11 O54967 0.774540920026621 0.461680167773707 0.392286348881049 O 0.0 **** 0.0
12 C54968 0.769172469081718 0.475431492559275 0.381914266472883 C 0.0 **** 0.0
13 C54969 0.753889544863763 0.483970750358318 0.390246619396468 C 0.0 **** 0.0
14 C54970 0.739547512551803 0.470977641865569 0.392304877697986 C 0.0 **** 0.0
15 C54976 0.74843108934407 0.499436638088635 0.380109733022188 C 0.0 **** 0.0
16 C54977 0.754173860020136 0.500764700463481 0.361935013818353 C 0.0 **** 0.0
17 C54978 0.761149588136792 0.486813828755541 0.353941982394953 C 0.0 **** 0.0
18 C54979 0.764908434631157 0.470654080094277 0.363609544745247 C 0.0 **** 0.0
19 C54985 0.764821547680439 0.487781378275021 0.336813747408781 C 0.0 **** 0.0
20 C54986 0.764529921090453 0.503273891809385 0.328743254969984 C 0.0 **** 0.0
21 C54987 0.758018268400467 0.517379878504396 0.336878297991083 C 0.0 **** 0.0
22 C54988 0.752181345279586 0.5159988386078 0.353411538797067 C 0.0 **** 0.0
23 C54994 0.745158511050289 0.531421621272738 0.362380828746122 C 0.0 **** 0.0
24 C54995 0.732368999319506 0.526399064563064 0.37633461833068 C 0.0 **** 0.0
25 C54996 0.738444989311568 0.5115388432912 0.386696520588114 C 0.0 **** 0.0
26 O55001 0.757094990315602 0.532816976062809 0.3287047977956 O 0.0 **** 0.0
27 C55002 0.766941117496595 0.53539893915987 0.314503425776352 C 0.0 **** 0.0
28 C55003 0.774219567091241 0.522513524041728 0.305141929907373 C 0.0 **** 0.0
29 C55004 0.772530320466013 0.504702014440143 0.311608135112686 C 0.0 **** 0.0
30 C55010 0.778359686431016 0.461124703258487 0.354084170055738 C 0.0 **** 0.0
31 C55011 0.771242125408762 0.455941958297873 0.337129989871965 C 0.0 **** 0.0
32 C55012 0.769272172927876 0.472306664136513 0.326662738704853 C 0.0 **** 0.0
33 C55017 0.780727186197329 0.441342953670341 0.328404999493325 C 0.0 **** 0.0
34 C55018 0.797087273189543 0.438651624105952 0.333192855093998 C 0.0 **** 0.0
35 C55019 0.806253130061838 0.448785016822372 0.346758864865624 C 0.0 **** 0.0
36 C55020 0.794456364003815 0.458231398825097 0.358471263796341 C 0.0 **** 0.0
37 C55026 0.808025745756352 0.424881709529391 0.326248965111215 C 0.0 **** 0.0
38 C55027 0.799104030528174 0.412924968248306 0.313806374188114 C 0.0 **** 0.0
39 C55028 0.781139649851208 0.41761136689572 0.309980104135304 C 0.0 **** 0.0
40 C55029 0.772846962020738 0.431065560084062 0.316922442681361 C 0.0 **** 0.0
41 C55035 0.754266094819565 0.433739815330036 0.311500835245293 C 0.0 **** 0.0
42 C55036 0.745535091998882 0.417222420183942 0.306711866424974 C 0.0 **** 0.0
43 C55037 0.755751945068518 0.409311538475414 0.292217191743072 C 0.0 **** 0.0
44 C55038 0.773451558918946 0.404711024377193 0.29821184171934 C 0.0 **** 0.0
45 C55044 0.779658286269738 0.49112450873273 0.303777307154992 C 0.0 **** 0.0
46 C55045 0.779607625731464 0.47537672472554 0.310819860723424 C 0.0 **** 0.0
47 C55049 0.78494025977587 0.526786930990414 0.29140474953073 C 0.0 **** 0.0
48 C55050 0.794065880294 0.514440274698187 0.282244831230255 C 0.0 **** 0.0
49 S55051 0.789043392865894 0.493266956167744 0.284017715124379 S 0.0 **** 0.0
50 C55056 0.806866291313628 0.518537201483965 0.271378250366358 C 0.0 **** 0.0
51 C55057 0.810572520987981 0.535673551566269 0.268137639103704 C 0.0 **** 0.0
52 C55058 0.800572491166013 0.548383554335382 0.275848558090919 C 0.0 **** 0.0
53 C55059 0.788103391709185 0.543954991136853 0.287540376698475 C 0.0 **** 0.0
54 C55065 0.803229874627983 0.565190268317682 0.271233506067499 C 0.0 **** 0.0
55 C55066 0.814998784651186 0.569303052039353 0.258589152285546 C 0.0 **** 0.0
56 C55067 0.826440764527719 0.557059358722437 0.252200517032117 C 0.0 **** 0.0
57 C55068 0.82352188163825 0.540195288275832 0.256871546343322 C 0.0 **** 0.0
58 C55074 0.839614268769102 0.562035993433213 0.241326704857507 C 0.0 **** 0.0
59 C55075 0.8385414657867 0.577681527746534 0.233515376929547 C 0.0 **** 0.0
60 C55076 0.826535618605342 0.589790047722705 0.238938521291225 C 0.0 **** 0.0
61 C55077 0.816091648129184 0.585777562577971 0.252669900800468 C 0.0 **** 0.0
62 C55083 0.779296879720661 0.556813558126344 0.296043735080969 C 0.0 **** 0.0
63 C55084 0.769515894913662 0.551935974966675 0.31001115138535 C 0.0 **** 0.0
64 C55088 0.793764222977614 0.577921918760773 0.278954930127337 C 0.0 **** 0.0
65 C55089 0.781155253596643 0.573938161184592 0.290766077273453 C 0.0 **** 0.0
66 C55093 0.807482775344204 0.59860022062466 0.26116259540065 C 0.0 **** 0.0
67 C55094 0.796414011029778 0.594580582831754 0.274298486093582 C 0.0 **** 0.0
68 C55098 0.826251898328678 0.606467643394309 0.232310880780988 C 0.0 **** 0.0
69 C55099 0.819689451618272 0.619422151139348 0.242506184723274 C 0.0 **** 0.0
70 C55100 0.810117977589641 0.615418739015543 0.256644049279828 C 0.0 **** 0.0
71 O55105 0.850266150770192 0.581775748118224 0.22104763483813 O 0.0 **** 0.0
72 C55106 0.852277221534026 0.56871623122945 0.208528953406937 C 0.0 **** 0.0
73 C55107 0.854762209332053 0.550763698736553 0.216519122237439 C 0.0 **** 0.0
74 C55108 0.855183828679778 0.552035348044328 0.235839300948224 C 0.0 **** 0.0
75 C55114 0.870057038834399 0.541220579915067 0.209053239117371 C 0.0 **** 0.0
76 C55115 0.869338007706461 0.542249462214001 0.189774035763628 C 0.0 **** 0.0
77 C55116 0.872494638431498 0.56041110318633 0.183538505532 C 0.0 **** 0.0
78 C55117 0.866750437223958 0.574173100845668 0.196509523204968 C 0.0 **** 0.0
79 C55123 0.862703973175804 0.591218746302386 0.187765548115954 C 0.0 **** 0.0
80 C55124 0.873701597955038 0.593305420299882 0.171970292318289 C 0.0 **** 0.0
81 C55125 0.870968731132964 0.578884107350609 0.158933716990246 C 0.0 **** 0.0
82 N55126 0.865702186763041 0.5627736767351 0.166635507380515 N 0.0 **** 0.0
83 C55132 0.770266762775696 0.58681517616489 0.296878742044449 C 0.0 **** 0.0
84 C55133 0.77421201253105 0.603612557689894 0.293866836253014 C 0.0 **** 0.0
85 C55134 0.787476332541354 0.607491124951221 0.282588659230205 C 0.0 **** 0.0
86 O55139 0.765195435110133 0.616862584781763 0.30101969866115 O 0.0 **** 0.0
87 C55140 0.756541873222118 0.611511581040143 0.315921805599466 C 0.0 **** 0.0
88 C55141 0.745815467759249 0.596484853318129 0.311676390945099 C 0.0 **** 0.0
89 O55142 0.756030527493487 0.582635948444021 0.306258208180841 O 0.0 **** 0.0
90 C55148 0.732136604669745 0.600748784959036 0.298356704132005 C 0.0 **** 0.0
91 C55149 0.72529527712345 0.619010497420377 0.29987519822864 C 0.0 **** 0.0
92 C55150 0.727289698201707 0.625802743963314 0.317916316117641 C 0.0 **** 0.0
93 C55151 0.746127381724738 0.626304581262 0.323182029206985 C 0.0 **** 0.0
94 C55157 0.802220978526993 0.628619779368647 0.265793644801936 C 0.0 **** 0.0
95 C55158 0.790876938158359 0.62445086934718 0.278805924900376 C 0.0 **** 0.0
96 C55162 0.821253279103033 0.636218377536119 0.237260252011859 C 0.0 **** 0.0
97 C55163 0.815246492626595 0.64947204981514 0.247598872051289 C 0.0 **** 0.0
98 C55164 0.805491516787277 0.645615212185546 0.261410650880436 C 0.0 **** 0.0
99 C55169 0.82679370497916 0.640144646917199 0.220790087989087 C 0.0 **** 0.0
100 C55170 0.830937715807064 0.627325674524812 0.209598515888951 C 0.0 **** 0.0
101 C55171 0.83107671640396 0.610944540621057 0.215653681390199 C 0.0 **** 0.0
102 O55176 0.818466515547971 0.666163679256047 0.24383808296414 O 0.0 **** 0.0
103 C55177 0.82208421997377 0.670323912931591 0.227313873685541 C 0.0 **** 0.0
104 C55178 0.82637610429034 0.65834493893536 0.215568410302145 C 0.0 **** 0.0
105 C55183 0.835739323661441 0.630602510965156 0.191222163746903 C 0.0 **** 0.0
106 C55184 0.836591715725934 0.650247701581262 0.186218071924858 C 0.0 **** 0.0
107 C55185 0.830200241349863 0.662913468280064 0.199342267791721 C 0.0 **** 0.0
108 C55190 0.828613596236204 0.653742642318952 0.168661573502513 C 0.0 **** 0.0
109 C55191 0.834969096868972 0.640766791360841 0.155641137036911 C 0.0 **** 0.0
110 C55192 0.83009535248728 0.622486801039592 0.16073326158034 C 0.0 **** 0.0
111 C55193 0.823941611670048 0.620990413364415 0.179152663247755 C 0.0 **** 0.0
112 C55199 0.828720338038197 0.679496807235751 0.194675450323871 C 0.0 **** 0.0
113 C55200 0.825262928302161 0.691591548014736 0.20666801738785 C 0.0 **** 0.0
114 C55201 0.82197277800043 0.687015612638184 0.222948768357016 C 0.0 **** 0.0
115 C55206 0.831997552502865 0.672153610605852 0.163675917281063 C 0.0 **** 0.0
116 C55208 0.831359736148872 0.684284245170527 0.17636194304393 C 0.0 **** 0.0
117 C55211 0.726505941540472 0.419525546452835 0.302731779839512 C 0.0 **** 0.0
118 C55213 0.723098809039845 0.430008797712898 0.286792148275283 C 0.0 **** 0.0
119 C55215 0.717227057433044 0.402538369324249 0.301392009913616 C 0.0 **** 0.0
120 O55217 0.857027172702223 0.536052699981792 0.243829034483656 O 0.0 **** 0.0
121 C55219 0.818672614955645 0.699109025647728 0.234897250344568 C 0.0 **** 0.0
122 C55220 0.818960846977573 0.715799989279171 0.230740310259322 C 0.0 **** 0.0
123 C55221 0.822390970033857 0.720560561592967 0.2145285295889 C 0.0 **** 0.0
124 C55222 0.825306716328666 0.708382040146675 0.202546224750556 C 0.0 **** 0.0
125 C55228 0.828752701723844 0.71359031295063 0.184901881795319 C 0.0 **** 0.0
126 C55229 0.828756477499638 0.730436368834016 0.181116554859294 C 0.0 **** 0.0
127 C55230 0.825961340562186 0.742977209666114 0.194674169606029 C 0.0 **** 0.0
128 C55231 0.822836517187396 0.737581664184878 0.210829185879666 C 0.0 **** 0.0
129 C55237 0.826441600405555 0.759816447161697 0.190798145138136 C 0.0 **** 0.0
130 C55238 0.828897671300957 0.765317606724518 0.174528921450975 C 0.0 **** 0.0
131 C55239 0.831081525233813 0.754168399313619 0.161454279148335 C 0.0 **** 0.0
132 C55240 0.831256165381017 0.735764425170265 0.164860282513341 C 0.0 **** 0.0
133 C55246 0.833622712212725 0.724107266394278 0.151706243214443 C 0.0 **** 0.0
134 C55247 0.833849493158388 0.706872441023106 0.155568279805745 C 0.0 **** 0.0
135 C55248 0.831578038963348 0.701498056476883 0.172291028396494 C 0.0 **** 0.0
136 C55253 0.835558861311555 0.729527049355042 0.134979815229546 C 0.0 **** 0.0
137 C55254 0.835343601479527 0.748591215380124 0.132396669206677 C 0.0 **** 0.0
138 C55255 0.833162977526091 0.759857730277985 0.145314703702084 C 0.0 **** 0.0
139 C55260 0.834500013042801 0.677581372686295 0.147243238098372 C 0.0 **** 0.0
140 C55261 0.836249756210445 0.694908892075286 0.142722720012923 C 0.0 **** 0.0
141 C55266 0.83817049301415 0.717663910451253 0.122217470747038 C 0.0 **** 0.0
142 C55267 0.839503637002373 0.700504649511057 0.126070851711584 C 0.0 **** 0.0
143 C55271 0.843710657325091 0.687679885663266 0.112318042282454 C 0.0 **** 0.0
144 C55272 0.855928620416695 0.695380539802767 0.0993995461066159 C 0.0 **** 0.0
145 C55273 0.84817490182067 0.711150805174482 0.0919393035274352 C 0.0 **** 0.0
146 C55274 0.839644391499377 0.723037682591808 0.10405364818925 C 0.0 **** 0.0
147 O55280 0.833655816061028 0.735918260247991 0.0982410210491992 O 0.0 **** 0.0
148 H55282 0.723264402732345 0.431365716542281 0.45707340201257 H 0.0 **** 0.0
149 H55284 0.707298474510798 0.432686517934909 0.441492786555103 H 0.0 **** 0.0
150 H55286 0.735431143922402 0.412552961949791 0.437172420008732 H 0.0 **** 0.0
151 H55288 0.725021046145132 0.421939921781114 0.419958616997193 H 0.0 **** 0.0
152 H55290 0.75562889896839 0.436455148119948 0.438151196588045 H 0.0 **** 0.0
153 H55292 0.753402368640506 0.461416239997233 0.424790075741086 H 0.0 **** 0.0
154 H55294 0.716268097176301 0.453039790060654 0.418203912352336 H 0.0 **** 0.0
155 H55296 0.725071950052378 0.471886417048788 0.42626727374345 H 0.0 **** 0.0
156 H55298 0.735912106633069 0.444214624565877 0.395414765637618 H 0.0 **** 0.0
157 H55300 0.760898145006639 0.442346982465363 0.380808135212374 H 0.0 **** 0.0
158 H55302 0.779027967751313 0.442319148061067 0.414219132549979 H 0.0 **** 0.0
159 H55304 0.780647873475494 0.427657375098703 0.397553914992568 H 0.0 **** 0.0
160 H55306 0.765650949688622 0.413924201200574 0.421406482869393 H 0.0 **** 0.0
161 H55308 0.750885386929794 0.417494342038127 0.405005610828876 H 0.0 **** 0.0
162 H55310 0.780042525010601 0.484143194496442 0.382020444466081 H 0.0 **** 0.0
163 H55312 0.757819483194289 0.488263265762907 0.4029029464848 H 0.0 **** 0.0
164 H55314 0.734287405920792 0.468299051744199 0.379699937110792 H 0.0 **** 0.0
165 H55316 0.728951213966908 0.476468847953499 0.399450206920214 H 0.0 **** 0.0
166 H55318 0.753551827706839 0.462514161349464 0.363590142065122 H 0.0 **** 0.0
167 H55320 0.755660208533517 0.538570828820538 0.368132996244048 H 0.0 **** 0.0
168 H55322 0.738995937325935 0.540041978373508 0.353361896674165 H 0.0 **** 0.0
169 H55324 0.720125609040714 0.5231322543493 0.370539253948041 H 0.0 **** 0.0
170 H55326 0.730013511296652 0.537329275938634 0.384696202934793 H 0.0 **** 0.0
171 H55328 0.733601661323406 0.510882091448075 0.399540853733176 H 0.0 **** 0.0
172 H55330 0.758443526790708 0.451228818438882 0.340011273702786 H 0.0 **** 0.0
173 H55331 0.815178503947602 0.45766383657025 0.340765365803004 H 0.0 **** 0.0
174 H55333 0.813918525980049 0.439991562400955 0.354470055314002 H 0.0 **** 0.0
175 H55335 0.799502341824199 0.462678600659718 0.370501812905933 H 0.0 **** 0.0
176 H55337 0.819038087400435 0.430695829944272 0.319997090053703 H 0.0 **** 0.0
177 H55339 0.812881006442147 0.417364045908699 0.336948895056768 H 0.0 **** 0.0
178 H55341 0.799315854763746 0.399990415554897 0.319038898865555 H 0.0 **** 0.0
179 H55343 0.806303934805434 0.412511617409084 0.301853493747883 H 0.0 **** 0.0
180 H55345 0.746871114853171 0.439945738585136 0.321478288427144 H 0.0 **** 0.0
181 H55347 0.754130848446546 0.442469406629488 0.300634185941809 H 0.0 **** 0.0
182 H55349 0.746276958693588 0.408622105311571 0.317723520095739 H 0.0 **** 0.0
183 H55351 0.756624721902694 0.418612195902136 0.281893565378932 H 0.0 **** 0.0
184 H55353 0.749593527473566 0.397968373997981 0.286998409625497 H 0.0 **** 0.0
185 H55355 0.781962276633311 0.402643126298901 0.287345256665781 H 0.0 **** 0.0
186 H55357 0.772850402385175 0.392617680334304 0.305126426618165 H 0.0 **** 0.0
187 H55359 0.786072639185559 0.464741144136086 0.304967417243871 H 0.0 **** 0.0
188 H55361 0.814064872495274 0.508724356745278 0.264736277926396 H 0.0 **** 0.0
189 H55363 0.830905812872327 0.529884717868585 0.251320155142251 H 0.0 **** 0.0
190 H55365 0.763737668561689 0.561032190626787 0.318686114965564 H 0.0 **** 0.0
191 H55367 0.840565192432823 0.568471566678494 0.200998755578025 H 0.0 **** 0.0
192 H55369 0.843696197981941 0.542833643558564 0.213386016167833 H 0.0 **** 0.0
193 H55371 0.866356036229651 0.5597296765536 0.239402332628526 H 0.0 **** 0.0
194 H55373 0.88206968899407 0.546647822031472 0.213614994311587 H 0.0 **** 0.0
195 H55375 0.869812324798757 0.527908175743947 0.213201670358676 H 0.0 **** 0.0
196 H55377 0.856739640745578 0.53794241551496 0.185625504884782 H 0.0 **** 0.0
197 H55379 0.878548533449442 0.533650768931344 0.183854354731445 H 0.0 **** 0.0
198 H55381 0.886349531946836 0.561784085077858 0.182312779530855 H 0.0 **** 0.0
199 H55383 0.877685103202456 0.576291109294823 0.2049327608509 H 0.0 **** 0.0
200 H55385 0.84931859297588 0.591437497088876 0.183879302238327 H 0.0 **** 0.0
201 H55387 0.864555460531356 0.601790228324739 0.196641920745683 H 0.0 **** 0.0
202 H55389 0.886981024214029 0.593311313129192 0.176184077195322 H 0.0 **** 0.0
203 H55391 0.871690494100738 0.605631427815344 0.165820794617532 H 0.0 **** 0.0
204 H55393 0.882731119642129 0.576671120338667 0.151785487660258 H 0.0 **** 0.0
205 H55395 0.861460206258926 0.582647960445024 0.149475288343498 H 0.0 **** 0.0
206 H55397 0.853063056954951 0.562003863871511 0.166995355378075 H 0.0 **** 0.0
207 H55399 0.766175078991304 0.607600203442914 0.325223222781419 H 0.0 **** 0.0
208 H55401 0.739428094207967 0.592426815292711 0.323391409191529 H 0.0 **** 0.0
209 H55403 0.737649177155414 0.598794532110396 0.285731569915676 H 0.0 **** 0.0
210 H55405 0.721684061883845 0.591587373218367 0.299367215624538 H 0.0 **** 0.0
211 H55407 0.712015880805652 0.619593170930043 0.295691405947456 H 0.0 **** 0.0
212 H55409 0.732420360670395 0.627382788618354 0.291308247327492 H 0.0 **** 0.0
213 H55411 0.720221840594113 0.617517214350016 0.326633064557508 H 0.0 **** 0.0
214 H55413 0.721624320291754 0.638476628065452 0.31912657337427 H 0.0 **** 0.0
215 H55415 0.747016247399835 0.626784610695752 0.337069268369112 H 0.0 **** 0.0
216 H55417 0.751913983016066 0.638076579549733 0.318509885398292 H 0.0 **** 0.0
217 H55419 0.784114457695622 0.634602071364848 0.28543035744995 H 0.0 **** 0.0
218 H55421 0.799987669003586 0.655783747393285 0.269074471749925 H 0.0 **** 0.0
219 H55423 0.83472143818033 0.60093314580848 0.206801949967637 H 0.0 **** 0.0
220 H55425 0.84862985487095 0.62561673085627 0.189224717491524 H 0.0 **** 0.0
221 H55427 0.85023764831729 0.652975795279718 0.184841081686919 H 0.0 **** 0.0
222 H55429 0.814739275973972 0.652245730383499 0.169663311455292 H 0.0 **** 0.0
223 H55431 0.848825662894691 0.641870420430355 0.154657161679403 H 0.0 **** 0.0
224 H55433 0.829827657692952 0.643293628401983 0.142964382737643 H 0.0 **** 0.0
225 H55435 0.84104918620286 0.614072257294157 0.158923590746404 H 0.0 **** 0.0
226 H55437 0.820186227060638 0.617749652636294 0.152176732371462 H 0.0 **** 0.0
227 H55439 0.822951605736067 0.607495663318411 0.182488331231412 H 0.0 **** 0.0
228 H55441 0.811048784944247 0.626185174438711 0.180271744122442 H 0.0 **** 0.0
229 H55443 0.72083508889916 0.426382372741432 0.313527974897225 H 0.0 **** 0.0
230 H55445 0.709427636873688 0.431723537662397 0.28488619898008 H 0.0 **** 0.0
231 H55447 0.728141955930059 0.423689783998509 0.275465190491309 H 0.0 **** 0.0
232 H55449 0.728806435804739 0.442669799497872 0.287533107556514 H 0.0 **** 0.0
233 H55451 0.719057003510337 0.394768418637617 0.312790955816178 H 0.0 **** 0.0
234 H55453 0.721706445701442 0.395186700367476 0.290457566936511 H 0.0 **** 0.0
235 H55455 0.703538348393552 0.404494814442386 0.299791025944129 H 0.0 **** 0.0
236 H55457 0.867970400441668 0.532266704400755 0.240585564335705 H 0.0 **** 0.0
237 H55459 0.815976743938534 0.695722088312441 0.247987124305533 H 0.0 **** 0.0
238 H55461 0.81641798577674 0.725148702049107 0.240581318768584 H 0.0 **** 0.0
239 H55463 0.820605298389727 0.746845683153283 0.220832623585698 H 0.0 **** 0.0
240 H55465 0.824719848931027 0.769237856123272 0.200670054628469 H 0.0 **** 0.0
241 H55467 0.828941835260717 0.778926985702353 0.172204883820298 H 0.0 **** 0.0
242 H55469 0.837164422255887 0.753745207676676 0.119794318851767 H 0.0 **** 0.0
243 H55471 0.833153536272126 0.773350737293809 0.142434592798871 H 0.0 **** 0.0
244 H55473 0.835164356616224 0.667964398959685 0.137306383054912 H 0.0 **** 0.0
245 H55475 0.849758924192702 0.676399119386376 0.117745782384008 H 0.0 **** 0.0
246 H55477 0.832075503062681 0.683335536328229 0.105997632725248 H 0.0 **** 0.0
247 H55479 0.858956500216032 0.686433099764949 0.0891913979326028 H 0.0 **** 0.0
248 H55481 0.867967576675447 0.698391234399106 0.105769763238155 H 0.0 **** 0.0
249 H55483 0.837964432762306 0.708283033635218 0.0829228927254122 H 0.0 **** 0.0
250 H55485 0.857060025532819 0.719449821597213 0.0851912396252433 H 0.0 **** 0.0
@<TRIPOS>BOND
1 3 2 1
2 4 3 1
3 5 4 1
4 6 5 1
5 1 2 1
6 1 6 1
7 8 7 1
8 9 8 1
9 10 9 1
10 4 7 1
11 3 10 1
12 12 11 1
13 13 12 1
14 14 13 1
15 8 11 1
16 7 14 1
17 16 15 1
18 17 16 Partial double
19 18 17 1
20 13 15 1
21 12 18 1
22 20 19 Partial double
23 21 20 Partial double
24 22 21 Partial double
25 17 19 Partial double
26 16 22 Partial double
27 24 23 1
28 25 24 1
29 15 25 Double
30 22 23 1
31 27 26 1
32 28 27 Partial double
33 29 28 Partial double
34 21 26 1
35 20 29 Partial double
36 31 30 1
37 32 31 1
38 18 30 1
39 19 32 1
40 34 33 Double
41 35 34 1
42 36 35 1
43 31 33 1
44 30 36 Double
45 38 37 1
46 39 38 1
47 40 39 Double
48 34 37 1
49 33 40 1
50 42 41 1
51 43 42 1
52 44 43 1
53 40 41 1
54 39 44 1
55 46 45 Partial double
56 32 46 1
57 29 45 Partial double
58 48 47 Partial double
59 49 48 1
60 45 49 Partial double
61 28 47 Partial double
62 51 50 Partial double
63 52 51 Partial double
64 53 52 Partial double
65 48 50 Partial double
66 47 53 Partial double
67 55 54 Partial double
68 56 55 Partial double
69 57 56 Partial double
70 52 54 Partial double
71 51 57 Partial double
72 59 58 Partial double
73 60 59 Partial double
74 61 60 Partial double
75 56 58 Partial double
76 55 61 Partial double
77 63 62 Partial double
78 27 63 Partial double
79 53 62 Partial double
80 65 64 Partial double
81 62 65 Partial double
82 54 64 Partial double
83 67 66 Partial double
84 64 67 Partial double
85 61 66 Partial double
86 69 68 Partial double
87 70 69 Partial double
88 66 70 Partial double
89 60 68 Partial double
90 72 71 1
91 73 72 1
92 74 73 1
93 59 71 1
94 58 74 1
95 76 75 1
96 77 76 1
97 78 77 1
98 73 75 1
99 72 78 1
100 80 79 1
101 81 80 1
102 82 81 1
103 78 79 1
104 77 82 1
105 84 83 Partial double
106 85 84 Partial double
107 67 85 Partial double
108 65 83 Partial double
109 87 86 1
110 88 87 1
111 89 88 1
112 84 86 1
113 83 89 1
114 91 90 1
115 92 91 1
116 93 92 1
117 88 90 1
118 87 93 1
119 95 94 Partial double
120 85 95 Partial double
121 70 94 Partial double
122 97 96 Partial double
123 98 97 Partial double
124 94 98 Partial double
125 69 96 Partial double
126 100 99 Partial double
127 101 100 Partial double
128 68 101 Partial double
129 96 99 Partial double
130 103 102 1
131 104 103 Partial double
132 97 102 1
133 99 104 1
134 106 105 1
135 107 106 1
136 100 105 1
137 104 107 Partial double
138 109 108 1
139 110 109 1
140 111 110 1
141 106 108 1
142 105 111 1
143 113 112 1
144 114 113 1
145 103 114 Partial double
146 107 112 Partial double
147 108 115 1
148 112 116 Partial double
149 115 116 Partial double
150 42 117 1
151 117 118 1
152 117 119 1
153 74 120 1
154 122 121 1
155 123 122 Partial double
156 124 123 1
157 114 121 Partial double
158 113 124 Partial double
159 126 125 Partial double
160 127 126 1
161 128 127 Partial double
162 124 125 Partial double
163 123 128 Partial double
164 130 129 Partial double
165 131 130 1
166 132 131 1
167 127 129 Partial double
168 126 132 Partial double
169 134 133 Partial double
170 135 134 Partial double
171 125 135 Partial double
172 132 133 Partial double
173 137 136 Partial double
174 138 137 Partial double
175 131 138 Partial double
176 133 136 Partial double
177 140 139 Partial double
178 134 140 Partial double
179 116 135 Partial double
180 115 139 Partial double
181 142 141 Partial double
182 140 142 Partial double
183 136 141 Partial double
184 144 143 1
185 145 144 1
186 146 145 1
187 142 143 1
188 141 146 1
189 146 147 Double
190 1 148 1
191 1 149 1
192 2 150 1
193 2 151 1
194 3 152 1
195 4 153 1
196 5 154 1
197 5 155 1
198 7 156 1
199 8 157 1
200 9 158 1
201 9 159 1
202 10 160 1
203 10 161 1
204 12 162 1
205 13 163 1
206 14 164 1
207 14 165 1
208 18 166 1
209 23 167 1
210 23 168 1
211 24 169 1
212 24 170 1
213 25 171 1
214 35 173 1
215 35 174 1
216 36 175 1
217 37 176 1
218 37 177 1
219 38 178 1
220 38 179 1
221 41 180 1
222 41 181 1
223 42 182 1
224 43 183 1
225 43 184 1
226 44 185 1
227 44 186 1
228 46 187 1
229 50 188 1
230 57 189 1
231 63 190 1
232 72 191 1
233 73 192 1
234 74 193 1
235 75 194 1
236 75 195 1
237 76 196 1
238 76 197 1
239 77 198 1
240 78 199 1
241 79 200 1
242 79 201 1
243 80 202 1
244 80 203 1
245 81 204 1
246 81 205 1
247 82 206 1
248 87 207 1
249 88 208 1
250 90 209 1
251 90 210 1
252 91 211 1
253 91 212 1
254 92 213 1
255 92 214 1
256 93 215 1
257 93 216 1
258 95 217 1
259 98 218 1
260 101 219 1
261 105 220 1
262 106 221 1
263 108 222 1
264 109 223 1
265 109 224 1
266 110 225 1
267 110 226 1
268 111 227 1
269 111 228 1
270 117 229 1
271 118 230 1
272 118 231 1
273 118 232 1
274 119 233 1
275 119 234 1
276 119 235 1
277 120 236 1
278 121 237 1
279 122 238 1
280 128 239 1
281 129 240 1
282 130 241 1
283 137 242 1
284 138 243 1
285 139 244 1
286 143 245 1
287 143 246 1
288 144 247 1
289 144 248 1
290 145 249 1
291 145 250 1
292 31 172 1
@<TRIPOS>MOLECULE
Sketch 4
250 292
SMALL
USER_CHARGES


@<TRIPOS>ATOM
1 C55488 0.0629114467645207 0.797997341514421 0.0177014071261711 C 0.0 **** 0.0
2 C55489 0.0574093572717896 0.80547837178838 0.0350769326153083 C 0.0 **** 0.0
3 C55490 0.0565065182320218 0.824970613860408 0.0343511054626613 C 0.0 **** 0.0
4 C55491 0.0726242734795634 0.832069441304656 0.0257993663281222 C 0.0 **** 0.0
5 C55492 0.0758451738791232 0.822725486387671 0.00870210365210843 C 0.0 **** 0.0
6 O55493 0.0632542820004787 0.810495661078009 0.00482579855017722 O 0.0 **** 0.0
7 C55500 0.0887322956916167 0.831795234447281 0.0371208579933344 C 0.0 **** 0.0
8 C55501 0.0847750167578341 0.83536540888724 0.056289418897182 C 0.0 **** 0.0
9 C55502 0.0675004751463754 0.843888090292379 0.0584125842185188 C 0.0 **** 0.0
10 C55503 0.0526593551031989 0.833402640242665 0.0516053268528311 C 0.0 **** 0.0
11 O55509 0.0964409482972861 0.845043291125817 0.0662469419160995 O 0.0 **** 0.0
12 C55510 0.112246776973203 0.849689146000257 0.0588959222952367 C 0.0 **** 0.0
13 C55511 0.109338268987293 0.856795608800491 0.0411224016903932 C 0.0 **** 0.0
14 C55512 0.102636019732153 0.843151527207772 0.0290899334195065 C 0.0 **** 0.0
15 C55518 0.125535790085406 0.864543962564122 0.0348423573347001 C 0.0 **** 0.0
16 C55519 0.141183616307556 0.854072138675429 0.0375678247336007 C 0.0 **** 0.0
17 C55520 0.140922930426203 0.840293480824961 0.0484653319597823 C 0.0 **** 0.0
18 C55521 0.125335274419033 0.835313287615508 0.0586283883380718 C 0.0 **** 0.0
19 C55527 0.155750562978317 0.831166743725743 0.0510692394420497 C 0.0 **** 0.0
20 C55528 0.17067770923803 0.83702272098044 0.0440459330254976 C 0.0 **** 0.0
21 C55529 0.170700639573457 0.850236285551302 0.0324833218156472 C 0.0 **** 0.0
22 C55530 0.155794865576844 0.858816217201206 0.0291404771709451 C 0.0 **** 0.0
23 C55536 0.155614305786797 0.873470653387817 0.0168220300798868 C 0.0 **** 0.0
24 C55537 0.143325481562901 0.887520363920802 0.0227550398855221 C 0.0 **** 0.0
25 C55538 0.126533643381495 0.880198197955504 0.0281621614547246 C 0.0 **** 0.0
26 O55543 0.185423938427639 0.855059616762166 0.0243112421066757 O 0.0 **** 0.0
27 C55544 0.200362989060495 0.852250390610127 0.032804753405566 C 0.0 **** 0.0
28 C55545 0.202296510552987 0.839700358183584 0.044903461381056 C 0.0 **** 0.0
29 C55546 0.187027565514346 0.829646822453834 0.0499887395932128 C 0.0 **** 0.0
30 C55552 0.132361856044524 0.830090580625688 0.0755647467598531 C 0.0 **** 0.0
31 C55553 0.140843351817634 0.812959849759533 0.0741433172732512 C 0.0 **** 0.0
32 C55554 0.156105570991126 0.815307581276179 0.061954977322008 C 0.0 **** 0.0
33 C55559 0.145191443711667 0.804642432839507 0.0913797262662212 C 0.0 **** 0.0
34 C55560 0.147241980562373 0.815229566719415 0.104875329693211 C 0.0 **** 0.0
35 C55561 0.145044481948488 0.834286851626643 0.103975944945547 C 0.0 **** 0.0
36 C55562 0.134667904452827 0.840082579787952 0.0890538269406767 C 0.0 **** 0.0
37 C55568 0.15212765643173 0.809532072493818 0.122289031026896 C 0.0 **** 0.0
38 C55569 0.151920867417121 0.790250686864544 0.124700755530003 C 0.0 **** 0.0
39 C55570 0.150242100332076 0.780421759052398 0.108557084017413 C 0.0 **** 0.0
40 C55571 0.146732029596369 0.787467391574861 0.0931751107875713 C 0.0 **** 0.0
41 C55577 0.144459768872783 0.775176028737903 0.0781566267683126 C 0.0 **** 0.0
42 C55578 0.138912029296905 0.757519271712964 0.0836115764219691 C 0.0 **** 0.0
43 C55579 0.151902076617538 0.750732868317486 0.096365600882309 C 0.0 **** 0.0
44 C55580 0.151916992579156 0.761746744734977 0.112166972115395 C 0.0 **** 0.0
45 C55586 0.187769673847601 0.816512371843405 0.0610280540582631 C 0.0 **** 0.0
46 C55587 0.173547388932134 0.809338616387543 0.0675753841248839 C 0.0 **** 0.0
47 C55591 0.217869245451383 0.838201763737434 0.0536604232763822 C 0.0 **** 0.0
48 C55592 0.220514495699918 0.825794198302907 0.066188955397324 C 0.0 **** 0.0
49 S55593 0.207362813609651 0.80829573069107 0.0668908458622311 S 0.0 **** 0.0
50 C55598 0.233187487110142 0.827124529014449 0.07793325498727 C 0.0 **** 0.0
51 C55599 0.244853912044065 0.840625070263033 0.076777319984152 C 0.0 **** 0.0
52 C55600 0.243826304444571 0.851978590603173 0.0629550170814023 C 0.0 **** 0.0
53 C55601 0.23025998765836 0.850848672620154 0.0517126683623051 C 0.0 **** 0.0
54 C55607 0.25594282572069 0.864731972138635 0.0613911884016041 C 0.0 **** 0.0
55 C55608 0.269156816964215 0.866317566548391 0.0731216158241969 C 0.0 **** 0.0
56 C55609 0.268768807513303 0.856744219739031 0.0882124912219072 C 0.0 **** 0.0
57 C55610 0.257371994368944 0.843142379800992 0.0891108060116207 C 0.0 **** 0.0
58 C55616 0.27965817903289 0.86112987319062 0.101457902937068 C 0.0 **** 0.0
59 C55617 0.293885396998688 0.87074721288699 0.097961542789741 C 0.0 **** 0.0
60 C55618 0.294951630052169 0.880214151803469 0.082751689148004 C 0.0 **** 0.0
61 C55619 0.28152264881683 0.878694078928565 0.0711734331577999 C 0.0 **** 0.0
62 C55625 0.227815675878082 0.863791487342053 0.0397546903024853 C 0.0 **** 0.0
63 C55626 0.213663944963222 0.862842296766445 0.0291947216634601 C 0.0 **** 0.0
64 C55630 0.253345005854422 0.877571097185892 0.0495143838162353 C 0.0 **** 0.0
65 C55631 0.237997731931309 0.878473268533222 0.040805842751928 C 0.0 **** 0.0
66 C55635 0.279318482171749 0.890829923607112 0.0584935774383614 C 0.0 **** 0.0
67 C55636 0.26452058496705 0.890989376936873 0.0488515160620461 C 0.0 **** 0.0
68 C55640 0.307668134635668 0.89277602817435 0.0798066268259004 C 0.0 **** 0.0
69 C55641 0.305233107444971 0.904555863653611 0.0666322662814549 C 0.0 **** 0.0
70 C55642 0.290792578656672 0.904037896270241 0.0567868995800149 C 0.0 **** 0.0
71 O55647 0.306206662813707 0.871749789484474 0.11054967050247 O 0.0 **** 0.0
72 C55648 0.31033659021875 0.856093610822386 0.119185162007721 C 0.0 **** 0.0
73 C55649 0.294454712414441 0.844777879928643 0.122732866327703 C 0.0 **** 0.0
74 C55650 0.278670229444912 0.855340762320634 0.119689254569847 C 0.0 **** 0.0
75 C55656 0.294204276780951 0.836411301132762 0.140346808048067 C 0.0 **** 0.0
76 C55657 0.311874123774375 0.830762138639515 0.145428517793999 C 0.0 **** 0.0
77 C55658 0.322629855108819 0.846462645717346 0.148936983390207 C 0.0 **** 0.0
78 C55659 0.320627730341392 0.86081935133781 0.135238091544951 C 0.0 **** 0.0
79 C55665 0.3377903653273 0.869083601245207 0.130936118027043 C 0.0 **** 0.0
80 C55666 0.347687395121502 0.872193302733269 0.147329634272412 C 0.0 **** 0.0
81 C55667 0.349837290063797 0.856208281906728 0.158632168833899 C 0.0 **** 0.0
82 N55668 0.339871506157 0.841772678283371 0.153084021434018 N 0.0 **** 0.0
83 C55674 0.231703194826292 0.894532933399626 0.0358363125807305 C 0.0 **** 0.0
84 C55675 0.242510331098059 0.908216894164709 0.0355898466751293 C 0.0 **** 0.0
85 C55676 0.259510228467585 0.905900075713871 0.0404625318856401 C 0.0 **** 0.0
86 O55681 0.236822360792058 0.923717312976005 0.0298971083984043 O 0.0 **** 0.0
87 C55682 0.220708322853818 0.927162602576621 0.0375168744149533 C 0.0 **** 0.0
88 C55683 0.208573732130708 0.912084468577859 0.0378698992142807 C 0.0 **** 0.0
89 O55684 0.215233130997011 0.896902345354763 0.0305685886709259 O 0.0 **** 0.0
90 C55690 0.191390039089883 0.915974805272888 0.0295605601562968 C 0.0 **** 0.0
91 C55691 0.183104793286206 0.932154679530896 0.036300184101784 C 0.0 **** 0.0
92 C55692 0.19529005633975 0.947518047304361 0.0356836035352432 C 0.0 **** 0.0
93 C55693 0.212896998312699 0.942816846881433 0.0289707231392696 C 0.0 **** 0.0
94 C55699 0.287175838116708 0.917804265920202 0.0458276335980221 C 0.0 **** 0.0
95 C55700 0.271131166304454 0.919003310970777 0.0383206219794094 C 0.0 **** 0.0
96 C55704 0.316932627551309 0.91764583754806 0.0641226279910948 C 0.0 **** 0.0
97 C55705 0.314664192180112 0.929735793739062 0.0511492991574845 C 0.0 **** 0.0
98 C55706 0.299566959332722 0.930245793441185 0.0427384654630299 C 0.0 **** 0.0
99 C55711 0.33059347187564 0.919912536876116 0.0752133217397176 C 0.0 **** 0.0
100 C55712 0.333399908292549 0.908466248976936 0.0880769975075196 C 0.0 **** 0.0
101 C55713 0.322330027108707 0.895083767708299 0.089742922482083 C 0.0 **** 0.0
102 O55718 0.327017930482387 0.94128856325559 0.0469878187937227 O 0.0 **** 0.0
103 C55719 0.338928470798534 0.945275029667485 0.0589900382734726 C 0.0 **** 0.0
104 C55720 0.34144052841497 0.935243748393078 0.0728438957157136 C 0.0 **** 0.0
105 C55725 0.348033817091233 0.910244700588901 0.100411006776899 C 0.0 **** 0.0
106 C55726 0.356329863922452 0.92861372412941 0.100411828332076 C 0.0 **** 0.0
107 C55727 0.353444352687056 0.939281614304818 0.0845475860029013 C 0.0 **** 0.0
108 C55732 0.375565010238072 0.927585887228832 0.103854120821295 C 0.0 **** 0.0
109 C55733 0.379689793904222 0.914618743459744 0.117649658346953 C 0.0 **** 0.0
110 C55734 0.375118530902737 0.896655208847135 0.11126460415816 C 0.0 **** 0.0
111 C55735 0.361486147942057 0.896623718060712 0.0972520015952521 C 0.0 **** 0.0
112 C55741 0.363226370208412 0.953333913380737 0.0820805432061723 C 0.0 **** 0.0
113 C55742 0.360531507122467 0.963557258206723 0.0682875995560337 C 0.0 **** 0.0
114 C55743 0.348553231492771 0.959407753546576 0.0566342145311197 C 0.0 **** 0.0
115 C55748 0.382383780660417 0.945456206481679 0.106431210093577 C 0.0 **** 0.0
116 C55750 0.376896207935571 0.957397038834019 0.0947597973419217 C 0.0 **** 0.0
117 C55753 0.135524144903152 0.745608488702795 0.0684508917792691 C 0.0 **** 0.0
118 C55755 0.151260456238971 0.741540644383273 0.057861384797433 C 0.0 **** 0.0
119 C55757 0.127095433808713 0.729045857456882 0.0740138854303737 C 0.0 **** 0.0
120 O55759 0.263683182230916 0.846386273270184 0.124084858613294 O 0.0 **** 0.0
121 C55761 0.346340754260897 0.96928385262399 0.0425824685163109 C 0.0 **** 0.0
122 C55762 0.356028730504099 0.983305548759271 0.0401414819920415 C 0.0 **** 0.0
123 C55763 0.367894058874757 0.98775592357764 0.0518436913961551 C 0.0 **** 0.0
124 C55764 0.369942670699715 0.977882014731292 0.0659320057486028 C 0.0 **** 0.0
125 C55770 0.382684410988768 0.982789192146297 0.0787332708197634 C 0.0 **** 0.0
126 C55771 0.392265143203736 0.9968732052631 0.0759074945127061 C 0.0 **** 0.0
127 C55772 0.389527968183098 1.00700810436406 0.0604271156838346 C 0.0 **** 0.0
128 C55773 0.377464325398485 1.00206439623361 0.0490070699880979 C 0.0 **** 0.0
129 C55779 0.39912447042253 1.02117299008415 0.0578168909662993 C 0.0 **** 0.0
130 C55780 0.411048874001265 1.02619148887927 0.0693895176075538 C 0.0 **** 0.0
131 C55781 0.413991804297472 1.01724292367595 0.0839255080357099 C 0.0 **** 0.0
132 C55782 0.404356157045158 1.00160524551993 0.087325019684544 C 0.0 **** 0.0
133 C55788 0.407381032111755 0.992083841607327 0.101989424734646 C 0.0 **** 0.0
134 C55789 0.39796380002828 0.977376829553021 0.104627751068483 C 0.0 **** 0.0
135 C55790 0.385374494928225 0.972783086122959 0.0930862112963065 C 0.0 **** 0.0
136 C55795 0.419326215906976 0.997233731944568 0.113978795717748 C 0.0 **** 0.0
137 C55796 0.428230603387163 1.01382715805668 0.109997441886993 C 0.0 **** 0.0
138 C55797 0.425486146049883 1.02279369183863 0.0954931940281938 C 0.0 **** 0.0
139 C55802 0.394295669434799 0.950334209033074 0.118242596309312 C 0.0 **** 0.0
140 C55803 0.401490653405453 0.966868516003811 0.118450351495547 C 0.0 **** 0.0
141 C55808 0.421599117112902 0.987683023389198 0.128644160426654 C 0.0 **** 0.0
142 C55809 0.412445884981007 0.972823786157664 0.131225259029616 C 0.0 **** 0.0
143 C55813 0.414624396774482 0.962578575757758 0.147383997032752 C 0.0 **** 0.0
144 C55814 0.417027898220386 0.97430178096754 0.162612495276404 C 0.0 **** 0.0
145 C55815 0.432093838053102 0.985587795772441 0.159403718477006 C 0.0 **** 0.0
146 C55816 0.433873285665724 0.993105826778589 0.142050473470175 C 0.0 **** 0.0
147 O55822 0.445714153194415 1.00258389733221 0.139681537346946 O 0.0 **** 0.0
148 H55824 0.0539011801131483 0.788327392496412 0.0134039807934035 H 0.0 **** 0.0
149 H55826 0.0753006228693792 0.791652726823528 0.0187379562140292 H 0.0 **** 0.0
150 H55828 0.0449839475914736 0.800497944081038 0.0389622855371081 H 0.0 **** 0.0
151 H55830 0.066308729578081 0.801588832081604 0.0450680689011404 H 0.0 **** 0.0
152 H55832 0.0459004834392066 0.827975632583071 0.0257286314268029 H 0.0 **** 0.0
153 H55834 0.0698652520547131 0.845476929859949 0.0231994017188829 H 0.0 **** 0.0
154 H55836 0.0884808599875975 0.81678881123178 0.00855508126300774 H 0.0 **** 0.0
155 H55838 0.0757208913977496 0.831724815090584 -0.00186501418076468 H 0.0 **** 0.0
156 H55840 0.0936241629313983 0.818714689169472 0.0366353489647482 H 0.0 **** 0.0
157 H55842 0.0841287674268073 0.822958269019325 0.0625077629157156 H 0.0 **** 0.0
158 H55844 0.0680179863921837 0.856239757738123 0.0519830529670816 H 0.0 **** 0.0
159 H55846 0.0656402505029245 0.846725724092995 0.0719197393773835 H 0.0 **** 0.0
160 H55848 0.0414207704030641 0.841557188533775 0.0505433573727255 H 0.0 **** 0.0
161 H55850 0.0492774462951107 0.82371060491042 0.0609706897300082 H 0.0 **** 0.0
162 H55852 0.116663617799396 0.860107109159255 0.0669949085767532 H 0.0 **** 0.0
163 H55854 0.0997477646926811 0.866800476293221 0.0423395820875867 H 0.0 **** 0.0
164 H55856 0.113102670681614 0.834951926659453 0.0249260200745908 H 0.0 **** 0.0
165 H55858 0.0978976043066007 0.849149971091361 0.0174454601565574 H 0.0 **** 0.0
166 H55860 0.119147619173175 0.824213494516302 0.052799786068762 H 0.0 **** 0.0
167 H55862 0.168335263577757 0.878875541308285 0.0155211258460395 H 0.0 **** 0.0
168 H55864 0.1518429874247 0.868963341961898 0.00416830178611281 H 0.0 **** 0.0
169 H55866 0.141473932397229 0.8968012190503 0.0125120959242412 H 0.0 **** 0.0
170 H55868 0.148936982909316 0.894487356914926 0.0334415606183737 H 0.0 **** 0.0
171 H55870 0.115566120040446 0.888431972219982 0.0268837704037734 H 0.0 **** 0.0
172 H55872 0.131528142153683 0.804786153414184 0.0677690014485405 H 0.0 **** 0.0
173 H55873 0.157567186976701 0.840408900883043 0.103597122995043 H 0.0 **** 0.0
174 H55875 0.138774829409773 0.838748090521675 0.115615378290857 H 0.0 **** 0.0
175 H55877 0.130123142570631 0.853078482806816 0.0892818152085221 H 0.0 **** 0.0
176 H55879 0.164892415063971 0.814438861781998 0.125062680015722 H 0.0 **** 0.0
177 H55881 0.143554372865809 0.815318731433897 0.131659486000434 H 0.0 **** 0.0
178 H55883 0.14128473820024 0.786745718034748 0.13303293393242 H 0.0 **** 0.0
179 H55885 0.163577782868832 0.786339671141484 0.131320099876762 H 0.0 **** 0.0
180 H55887 0.13515697465428 0.780100541426637 0.0690859096683937 H 0.0 **** 0.0
181 H55889 0.156557770852775 0.774363563643867 0.0712987628645013 H 0.0 **** 0.0
182 H55891 0.126716394812743 0.758788143195459 0.090351848034169 H 0.0 **** 0.0
183 H55893 0.164557878905634 0.750765680071383 0.0905256033898747 H 0.0 **** 0.0
184 H55895 0.149251776854132 0.737557396317733 0.100020344660251 H 0.0 **** 0.0
185 H55897 0.163538804743937 0.759521764194846 0.119575474311144 H 0.0 **** 0.0
186 H55899 0.141208096569758 0.758036473802097 0.12031161666802 H 0.0 **** 0.0
187 H55901 0.174396811347653 0.798893081764145 0.0764920192959898 H 0.0 **** 0.0
188 H55903 0.234578914553121 0.817794108835719 0.0881005650121956 H 0.0 **** 0.0
189 H55905 0.257741385971045 0.834119067684507 0.0996288715904112 H 0.0 **** 0.0
190 H55907 0.211531930260352 0.872194263522494 0.019175203002452 H 0.0 **** 0.0
191 H55909 0.318760597734469 0.848952003574669 0.110695181914447 H 0.0 **** 0.0
192 H55911 0.294315534748934 0.834290116979283 0.113490614066038 H 0.0 **** 0.0
193 H55913 0.279497841700961 0.866538968167307 0.12804367113609 H 0.0 **** 0.0
194 H55915 0.289455106805429 0.845402503069842 0.149902914476424 H 0.0 **** 0.0
195 H55917 0.285190164977193 0.825776698011791 0.140256827342687 H 0.0 **** 0.0
196 H55919 0.317569772354588 0.823095534827386 0.135274091309708 H 0.0 **** 0.0
197 H55921 0.311638981489779 0.822735791368462 0.156832627919266 H 0.0 **** 0.0
198 H55923 0.317438932726622 0.851802239542294 0.160760991907854 H 0.0 **** 0.0
199 H55925 0.312866106714917 0.87078989993725 0.141199453773535 H 0.0 **** 0.0
200 H55927 0.345102616628038 0.860743244456301 0.122485621323336 H 0.0 **** 0.0
201 H55929 0.335900977328631 0.88111786224312 0.124226939954969 H 0.0 **** 0.0
202 H55931 0.340515357769224 0.881800641400358 0.154342204618627 H 0.0 **** 0.0
203 H55933 0.360024536590412 0.878079367116356 0.144874083729338 H 0.0 **** 0.0
204 H55935 0.345864883726105 0.859151693975697 0.17161499708807 H 0.0 **** 0.0
205 H55937 0.363194528183239 0.85244523772284 0.159656918942311 H 0.0 **** 0.0
206 H55939 0.345582923918959 0.835952838097758 0.143288000782983 H 0.0 **** 0.0
207 H55941 0.223438295985069 0.930854748475719 0.0507001881057199 H 0.0 **** 0.0
208 H55943 0.205822778909839 0.909044228577881 0.0512172183263309 H 0.0 **** 0.0
209 H55945 0.193403005639592 0.917093925144775 0.0158343699763996 H 0.0 **** 0.0
210 H55947 0.182981441358983 0.90499428951404 0.0313489963516591 H 0.0 **** 0.0
211 H55949 0.179023800448798 0.929949671173515 0.049437577906371 H 0.0 **** 0.0
212 H55951 0.171474943867252 0.934854074251507 0.0291214696482382 H 0.0 **** 0.0
213 H55953 0.196620324108292 0.952968091698088 0.0484292079030549 H 0.0 **** 0.0
214 H55955 0.189903686798895 0.957678506179718 0.0278288657236076 H 0.0 **** 0.0
215 H55957 0.221683399304861 0.953562287141887 0.0302888467482203 H 0.0 **** 0.0
216 H55959 0.212126385495928 0.940168073669485 0.0153457621855561 H 0.0 **** 0.0
217 H55961 0.26769419772583 0.930289748972465 0.0310034307475465 H 0.0 **** 0.0
218 H55963 0.297026233782392 0.94034471546283 0.0335372625962996 H 0.0 **** 0.0
219 H55965 0.325547180776421 0.886205506729305 0.0998084674046617 H 0.0 **** 0.0
220 H55967 0.343104665783691 0.908258871090929 0.113324597022553 H 0.0 **** 0.0
221 H55969 0.350433384062976 0.935514855073419 0.111020424370376 H 0.0 **** 0.0
222 H55971 0.381796312962423 0.922806933623495 0.0922504721535162 H 0.0 **** 0.0
223 H55973 0.372461717638449 0.917664558398139 0.129159221395391 H 0.0 **** 0.0
224 H55975 0.393171307879442 0.914959723857981 0.121077515425549 H 0.0 **** 0.0
225 H55977 0.370673771353449 0.888886696327568 0.121890460829655 H 0.0 **** 0.0
226 H55979 0.386558532343346 0.890360940502627 0.106393913313051 H 0.0 **** 0.0
227 H55981 0.355820505725847 0.883915322458071 0.0963961665633982 H 0.0 **** 0.0
228 H55983 0.367459604317183 0.89902912310381 0.0848786286781081 H 0.0 **** 0.0
229 H55985 0.126428648292543 0.752158939237681 0.0600815997367554 H 0.0 **** 0.0
230 H55987 0.14789544763808 0.733340676180744 0.0471189681816926 H 0.0 **** 0.0
231 H55989 0.1607875008084 0.734828681366654 0.0654618225884566 H 0.0 **** 0.0
232 H55991 0.157235618053463 0.752970361964165 0.0526563314341522 H 0.0 **** 0.0
233 H55993 0.115610833187469 0.731335255100678 0.0815214616053012 H 0.0 **** 0.0
234 H55995 0.135735990729425 0.721351514693409 0.081738979467851 H 0.0 **** 0.0
235 H55997 0.123415481799291 0.721372803309685 0.0629918891812743 H 0.0 **** 0.0
236 H55999 0.254597533806352 0.853890203460576 0.121733765533341 H 0.0 **** 0.0
237 H56001 0.336937474355248 0.966108635385966 0.0329988734941562 H 0.0 **** 0.0
238 H56003 0.354047527680469 0.990812341438857 0.0287402352186699 H 0.0 **** 0.0
239 H56005 0.375444927124106 1.00951833200428 0.0375609728612235 H 0.0 **** 0.0
240 H56007 0.397391593100581 1.02884729043255 0.0464840336408003 H 0.0 **** 0.0
241 H56009 0.418207320951157 1.03767025052989 0.0667940695430575 H 0.0 **** 0.0
242 H56011 0.437219647734049 1.01910869099863 0.118921664051579 H 0.0 **** 0.0
243 H56013 0.432518241087037 1.03448417188473 0.093522303001976 H 0.0 **** 0.0
244 H56015 0.397949328654489 0.941097861333055 0.127906943528367 H 0.0 **** 0.0
245 H56017 0.4034764921931 0.954608630760612 0.149687486418305 H 0.0 **** 0.0
246 H56019 0.425546387094613 0.953991924863387 0.14631425507062 H 0.0 **** 0.0
247 H56021 0.419085962527099 0.967073826185917 0.174338371061047 H 0.0 **** 0.0
248 H56023 0.405488068394473 0.98188486726817 0.164522925470263 H 0.0 **** 0.0
249 H56025 0.444118262533959 0.978725855232724 0.160799907141246 H 0.0 **** 0.0
250 H56027 0.433002947041246 0.996719227178123 0.167682408020421 H 0.0 **** 0.0
@<TRIPOS>BOND
1 3 2 1
2 4 3 1
3 5 4 1
4 6 5 1
5 1 2 1
6 1 6 1
7 8 7 1
8 9 8 1
9 10 9 1
10 4 7 1
11 3 10 1
12 12 11 1
13 13 12 1
14 14 13 1
15 8 11 1
16 7 14 1
17 16 15 1
18 17 16 Partial double
19 18 17 1
20 13 15 1
21 12 18 1
22 20 19 Partial double
23 21 20 Partial double
24 22 21 Partial double
25 17 19 Partial double
26 16 22 Partial double
27 24 23 1
28 25 24 1
29 15 25 Double
30 22 23 1
31 27 26 1
32 28 27 Partial double
33 29 28 Partial double
34 21 26 1
35 20 29 Partial double
36 31 30 1
37 32 31 1
38 18 30 1
39 19 32 1
40 34 33 Double
41 35 34 1
42 36 35 1
43 31 33 1
44 30 36 Double
45 38 37 1
46 39 38 1
47 40 39 Double
48 34 37 1
49 33 40 1
50 42 41 1
51 43 42 1
52 44 43 1
53 40 41 1
54 39 44 1
55 46 45 Partial double
56 32 46 1
57 29 45 Partial double
58 48 47 Partial double
59 49 48 1
60 45 49 Partial double
61 28 47 Partial double
62 51 50 Partial double
63 52 51 Partial double
64 53 52 Partial double
65 48 50 Partial double
66 47 53 Partial double
67 55 54 Partial double
68 56 55 Partial double
69 57 56 Partial double
70 52 54 Partial double
71 51 57 Partial double
72 59 58 Partial double
73 60 59 Partial double
74 61 60 Partial double
75 56 58 Partial double
76 55 61 Partial double
77 63 62 Partial double
78 27 63 Partial double
79 53 62 Partial double
80 65 64 Partial double
81 62 65 Partial double
82 54 64 Partial double
83 67 66 Partial double
84 64 67 Partial double
85 61 66 Partial double
86 69 68 Partial double
87 70 69 Partial double
88 66 70 Partial double
89 60 68 Partial double
90 72 71 1
91 73 72 1
92 74 73 1
93 59 71 1
94 58 74 1
95 76 75 1
96 77 76 1
97 78 77 1
98 73 75 1
99 72 78 1
100 80 79 1
101 81 80 1
102 82 81 1
103 78 79 1
104 77 82 1
105 84 83 Partial double
106 85 84 Partial double
107 67 85 Partial double
108 65 83 Partial double
109 87 86 1
110 88 87 1
111 89 88 1
112 84 86 1
113 83 89 1
114 91 90 1
115 92 91 1
116 93 92 1
117 88 90 1
118 87 93 1
119 95 94 Partial double
120 85 95 Partial double
121 70 94 Partial double
122 97 96 Partial double
123 98 97 Partial double
124 94 98 Partial double
125 69 96 Partial double
126 100 99 Partial double
127 101 100 Partial double
128 68 101 Partial double
129 96 99 Partial double
130 103 102 1
131 104 103 Partial double
132 97 102 1
133 99 104 1
134 106 105 1
135 107 106 1
136 100 105 1
137 104 107 Partial double
138 109 108 1
139 110 109 1
140 111 110 1
141 106 108 1
142 105 111 1
143 113 112 1
144 114 113 1
145 103 114 Partial double
146 107 112 Partial double
147 108 115 1
148 112 116 Partial double
149 115 116 Partial double
150 42 117 1
151 117 118 1
152 117 119 1
153 74 120 1
154 122 121 1
155 123 122 Partial double
156 124 123 1
157 114 121 Partial double
158 113 124 Partial double
159 126 125 Partial double
160 127 126 1
161 128 127 Partial double
162 124 125 Partial double
163 123 128 Partial double
164 130 129 Partial double
165 131 130 1
166 132 131 1
167 127 129 Partial double
168 126 132 Partial double
169 134 133 Partial double
170 135 134 Partial double
171 125 135 Partial double
172 132 133 Partial double
173 137 136 Partial double
174 138 137 Partial double
175 131 138 Partial double
176 133 136 Partial double
177 140 139 Partial double
178 134 140 Partial double
179 116 135 Partial double
180 115 139 Partial double
181 142 141 Partial double
182 140 142 Partial double
183 136 141 Partial double
184 144 143 1
185 145 144 1
186 146 145 1
187 142 143 1
188 141 146 1
189 146 147 Double
190 1 148 1
191 1 149 1
192 2 150 1
193 2 151 1
194 3 152 1
195 4 153 1
196 5 154 1
197 5 155 1
198 7 156 1
199 8 157 1
200 9 158 1
201 9 159 1
202 10 160 1
203 10 161 1
204 12 162 1
205 13 163 1
206 14 164 1
207 14 165 1
208 18 166 1
209 23 167 1
210 23 168 1
211 24 169 1
212 24 170 1
213 25 171 1
214 35 173 1
215 35 174 1
216 36 175 1
217 37 176 1
218 37 177 1
219 38 178 1
220 38 179 1
221 41 180 1
222 41 181 1
223 42 182 1
224 43 183 1
225 43 184 1
226 44 185 1
227 44 186 1
228 46 187 1
229 50 188 1
230 57 189 1
231 63 190 1
232 72 191 1
233 73 192 1
234 74 193 1
235 75 194 1
236 75 195 1
237 76 196 1
238 76 197 1
239 77 198 1
240 78 199 1
241 79 200 1
242 79 201 1
243 80 202 1
244 80 203 1
245 81 204 1
246 81 205 1
247 82 206 1
248 87 207 1
249 88 208 1
250 90 209 1
251 90 210 1
252 91 211 1
253 91 212 1
254 92 213 1
255 92 214 1
256 93 215 1
257 93 216 1
258 95 217 1
259 98 218 1
260 101 219 1
261 105 220 1
262 106 221 1
263 108 222 1
264 109 223 1
265 109 224 1
266 110 225 1
267 110 226 1
268 111 227 1
269 111 228 1
270 117 229 1
271 118 230 1
272 118 231 1
273 118 232 1
274 119 233 1
275 119 234 1
276 119 235 1
277 120 236 1
278 121 237 1
279 122 238 1
280 128 239 1
281 129 240 1
282 130 241 1
283 137 242 1
284 138 243 1
285 139 244 1
286 143 245 1
287 143 246 1
288 144 247 1
289 144 248 1
290 145 249 1
291 145 250 1
292 31 172 1
@<TRIPOS>MOLECULE
Sketch 4
250 292
SMALL
USER_CHARGES


@<TRIPOS>ATOM
1 C56030 0.968261336873725 0.0915888073777239 1.03412098680516 C 0.0 **** 0.0
2 C56031 0.948936427023375 0.0933364155529057 1.03127300593019 C 0.0 **** 0.0
3 C56032 0.944268128729339 0.0929264907668258 1.01235708407101 C 0.0 **** 0.0
4 C56033 0.95476601062207 0.106300756200508 1.00213408326147 C 0.0 **** 0.0
5 C56034 0.971504933479345 0.110200470225235 1.01146240347478 C 0.0 **** 0.0
6 O56035 0.977941627827998 0.0954870223763037 1.01948509357464 O 0.0 **** 0.0
7 C56042 0.943927895268031 0.122025905873552 0.997925585742226 C 0.0 **** 0.0
8 C56043 0.928996356765236 0.116840150651927 0.986336476097283 C 0.0 **** 0.0
9 C56044 0.921081501400256 0.0997759812245705 0.991402576846632 C 0.0 **** 0.0
10 C56045 0.925034440086684 0.0947307240312788 1.00964947610413 C 0.0 **** 0.0
11 O56051 0.934371891316051 0.114404504427826 0.969286467507267 O 0.0 **** 0.0
12 C56052 0.941846778311489 0.128879469565087 0.961402761116358 C 0.0 **** 0.0
13 C56053 0.957761675548713 0.134035449711183 0.97130466462504 C 0.0 **** 0.0
14 C56054 0.953616324576142 0.137055136041501 0.99000141961357 C 0.0 **** 0.0
15 C56060 0.966521975754132 0.148984962515171 0.963069391114904 C 0.0 **** 0.0
16 C56061 0.955821910531425 0.161820925454443 0.953793013073937 C 0.0 **** 0.0
17 C56062 0.938755161142111 0.158771217965861 0.950915911467409 C 0.0 **** 0.0
18 C56063 0.929782744927368 0.143902159481551 0.959423190717621 C 0.0 **** 0.0
19 C56069 0.929659354562561 0.169959659474672 0.940875765979318 C 0.0 **** 0.0
20 C56070 0.93726065714689 0.184763601646774 0.935369533985304 C 0.0 **** 0.0
21 C56071 0.954071223384629 0.188246784176634 0.939021876417678 C 0.0 **** 0.0
22 C56072 0.963556708658726 0.176462000826425 0.947929917043145 C 0.0 **** 0.0
23 C56078 0.981917487938704 0.180204785413916 0.95201326975861 C 0.0 **** 0.0
24 C56079 0.992554315007903 0.163796011944992 0.95288163844608 C 0.0 **** 0.0
25 C56080 0.983537461333488 0.149914506883053 0.962383283733885 C 0.0 **** 0.0
26 O56085 0.961716694821434 0.203247903366714 0.933995001106676 O 0.0 **** 0.0
27 C56086 0.953067778107786 0.21444158663488 0.923750275399069 C 0.0 **** 0.0
28 C56087 0.936117573814427 0.212504987946659 0.919656471068355 C 0.0 **** 0.0
29 C56088 0.926730806338287 0.197452032196783 0.926204787884735 C 0.0 **** 0.0
30 C56094 0.913082978598321 0.140388669566143 0.95089427872667 C 0.0 **** 0.0
31 C56095 0.902394083570616 0.156288385890666 0.949925489871877 C 0.0 **** 0.0
32 C56096 0.911574264489361 0.166079749162139 0.935825403252565 C 0.0 **** 0.0
33 C56101 0.883325389378127 0.153213878370989 0.946328629558337 C 0.0 **** 0.0
34 C56102 0.879124820779626 0.138254306402435 0.93875504083583 C 0.0 **** 0.0
35 C56103 0.891594592933328 0.124323448203494 0.934469001455626 C 0.0 **** 0.0
36 C56104 0.90834134355945 0.125925924217141 0.943442115674141 C 0.0 **** 0.0
37 C56110 0.861574552086831 0.133807076168118 0.933085497869038 C 0.0 **** 0.0
38 C56111 0.847868678813089 0.145036375789013 0.940927236188926 C 0.0 **** 0.0
39 C56112 0.854393955018723 0.161604156458131 0.947456049101361 C 0.0 **** 0.0
40 C56113 0.871096492715414 0.164820083886315 0.950507209496659 C 0.0 **** 0.0
41 C56119 0.875339302432911 0.181884864191811 0.959050261500513 C 0.0 **** 0.0
42 C56120 0.86051603492222 0.189704925082173 0.968579277301963 C 0.0 **** 0.0
43 C56121 0.845422173027776 0.191012091220939 0.956425021946718 C 0.0 **** 0.0
44 C56122 0.839815564445924 0.173263387658415 0.951504664774219 C 0.0 **** 0.0
45 C56128 0.909864768733618 0.195303319014887 0.92386046193385 C 0.0 **** 0.0
46 C56129 0.901909823041338 0.180760306054547 0.928229119118226 C 0.0 **** 0.0
47 C56133 0.928447005531589 0.223786862307999 0.908057458130227 C 0.0 **** 0.0
48 C56134 0.911382961697002 0.222479487909818 0.903114467785283 C 0.0 **** 0.0
49 S56135 0.897429629020708 0.211492923185912 0.915715466217126 S 0.0 **** 0.0
50 C56140 0.905387369051117 0.22997608052473 0.888712588850465 C 0.0 **** 0.0
51 C56141 0.916210723987131 0.240571636876353 0.879207609776123 C 0.0 **** 0.0
52 C56142 0.932686679682983 0.244091504882398 0.885287152859999 C 0.0 **** 0.0
53 C56143 0.938439418284551 0.235892049830615 0.899808452836031 C 0.0 **** 0.0
54 C56149 0.94221860609448 0.256908750654195 0.877746740279536 C 0.0 **** 0.0
55 C56150 0.935432588618343 0.266224297795799 0.864267872423329 C 0.0 **** 0.0
56 C56151 0.919754494743044 0.261674885099874 0.856804416264704 C 0.0 **** 0.0
57 C56152 0.910290076949322 0.248931863530733 0.864786697800774 C 0.0 **** 0.0
58 C56158 0.913233689120286 0.271092564926971 0.843255411235417 C 0.0 **** 0.0
59 C56159 0.919642119703003 0.287145621490939 0.840545898282088 C 0.0 **** 0.0
60 C56160 0.934013580010359 0.292874335926409 0.849393951662595 C 0.0 **** 0.0
61 C56161 0.942883697859681 0.281484590423391 0.859678940653722 C 0.0 **** 0.0
62 C56167 0.954376136131845 0.23983705627428 0.906355208034949 C 0.0 **** 0.0
63 C56168 0.961838242315136 0.228186163936701 0.917638520897177 C 0.0 **** 0.0
64 C56172 0.95711322359234 0.262329480463028 0.885628635055669 C 0.0 **** 0.0
65 C56173 0.962250809099073 0.254906323953405 0.900907418124443 C 0.0 **** 0.0
66 C56177 0.958156071751429 0.286460393987943 0.866944746215525 C 0.0 **** 0.0
67 C56178 0.965154852099198 0.276839963493945 0.880039187696805 C 0.0 **** 0.0
68 C56182 0.939198883612321 0.310014169754729 0.848727067548186 C 0.0 **** 0.0
69 C56183 0.955757183465928 0.313932866398766 0.853639221483483 C 0.0 **** 0.0
70 C56184 0.965097485781871 0.302161904507109 0.862848381785971 C 0.0 **** 0.0
71 O56189 0.91201194321448 0.297604077235052 0.828674588052434 O 0.0 **** 0.0
72 C56190 0.893912871093649 0.298332595900313 0.829699446475341 C 0.0 **** 0.0
73 C56191 0.885522448212096 0.281181035934296 0.83482354149674 C 0.0 **** 0.0
74 C56192 0.898232287241228 0.266904559278127 0.831939524958149 C 0.0 **** 0.0
75 C56198 0.868378443351125 0.278417566310548 0.825893106828292 C 0.0 **** 0.0
76 C56199 0.858626117527533 0.295097161837641 0.825080858074766 C 0.0 **** 0.0
77 C56200 0.86758604390005 0.307690441465503 0.813189867426314 C 0.0 **** 0.0
78 C56201 0.887071464051355 0.305000737132472 0.812661310256602 C 0.0 **** 0.0
79 C56207 0.896616748183081 0.320980095484443 0.806455766746526 C 0.0 **** 0.0
80 C56208 0.885031172000235 0.331334445241763 0.794875192069584 C 0.0 **** 0.0
81 C56209 0.868748617923806 0.337097727081044 0.804151502677277 C 0.0 **** 0.0
82 N56210 0.862987834022117 0.325002971418906 0.81709268696633 N 0.0 **** 0.0
83 C56216 0.973722496281649 0.263303698964777 0.911794569927106 C 0.0 **** 0.0
84 C56217 0.982793374706687 0.276920375507223 0.905670329186564 C 0.0 **** 0.0
85 C56218 0.978785154546841 0.28333015408845 0.889445568182184 C 0.0 **** 0.0
86 O56223 0.995104194831063 0.285138617006174 0.915089485982496 O 0.0 **** 0.0
87 C56224 0.998726093812433 0.277095595173634 0.930891285977867 C 0.0 **** 0.0
88 C56225 0.982765322313752 0.270590257792805 0.938783391530245 C 0.0 **** 0.0
89 O56226 0.975644670737903 0.257729211279172 0.928312618600973 O 0.0 **** 0.0
90 C56232 0.969924406750974 0.284995547411148 0.942539408384821 C 0.0 **** 0.0
91 C56233 0.978477707220408 0.302406625071893 0.944864282813579 C 0.0 **** 0.0
92 C56234 0.995817425511074 0.300456760370582 0.953310542281455 C 0.0 **** 0.0
93 C56235 1.0080145969322 0.289832517814654 0.942257635219375 C 0.0 **** 0.0
94 C56241 0.980237898564198 0.307639933008883 0.870685966691447 C 0.0 **** 0.0
95 C56242 0.98698065601541 0.298008810671976 0.884004048595005 C 0.0 **** 0.0
96 C56246 0.961250294822771 0.330700208729958 0.852544758756685 C 0.0 **** 0.0
97 C56247 0.977764853798986 0.335101165512776 0.857612646651037 C 0.0 **** 0.0
98 C56248 0.987061084636103 0.323622935791956 0.866696848683256 C 0.0 **** 0.0
99 C56253 0.949721648032106 0.343940766190871 0.849429939038098 C 0.0 **** 0.0
100 C56254 0.932694048845533 0.340498331151876 0.84743264949477 C 0.0 **** 0.0
101 C56255 0.927886644852718 0.323773047666973 0.84642684424022 C 0.0 **** 0.0
102 O56260 0.984378025409896 0.350890001540407 0.85448986978842 O 0.0 **** 0.0
103 C56261 0.973272768116803 0.36415806121084 0.852666271634728 C 0.0 **** 0.0
104 C56262 0.956327891917976 0.361640855372175 0.850221381381065 C 0.0 **** 0.0
105 C56267 0.919230873835627 0.354173436399358 0.846179597519309 C 0.0 **** 0.0
106 C56268 0.926743660942201 0.372898898743957 0.844695525652435 C 0.0 **** 0.0
107 C56269 0.945607309051358 0.375047022461395 0.848354537268871 C 0.0 **** 0.0
108 C56274 0.916397082799613 0.385775905087267 0.85524262515757 C 0.0 **** 0.0
109 C56275 0.897318500711219 0.382868661937631 0.852839532356528 C 0.0 **** 0.0
110 C56276 0.892050077876884 0.365242777684389 0.859572451466857 C 0.0 **** 0.0
111 C56277 0.907007314701916 0.352836138049108 0.861224234527083 C 0.0 **** 0.0
112 C56283 0.951932596059132 0.39108811288941 0.849488798192759 C 0.0 **** 0.0
113 C56284 0.969049270500937 0.393594436848739 0.851015584174315 C 0.0 **** 0.0
114 C56285 0.979690405483514 0.380159374459989 0.852700262311552 C 0.0 **** 0.0
115 C56290 0.922587459368948 0.403627217113169 0.850992426366551 C 0.0 **** 0.0
116 C56292 0.939866159566253 0.405856093787206 0.848725348480569 C 0.0 **** 0.0
117 C56295 0.865411504742536 0.206418551744013 0.977530149977988 C 0.0 **** 0.0
118 C56297 0.871685850055953 0.220377396490654 0.965621520260815 C 0.0 **** 0.0
119 C56299 0.850919059363583 0.213413868409375 0.988357725777159 C 0.0 **** 0.0
120 O56301 0.890685845994391 0.250743270058805 0.834598114544411 O 0.0 **** 0.0
121 C56303 0.996738066915469 0.382690287197394 0.85432758840238 C 0.0 **** 0.0
122 C56304 1.00321696245186 0.398616968616927 0.854165382257722 C 0.0 **** 0.0
123 C56305 0.992719412407488 0.412180269857923 0.852491328775146 C 0.0 **** 0.0
124 C56306 0.975674010812523 0.409553725802272 0.850828632842678 C 0.0 **** 0.0
125 C56312 0.964295256228369 0.42430443435654 0.848999936902907 C 0.0 **** 0.0
126 C56313 0.971210771209921 0.440122390544921 0.849581001175476 C 0.0 **** 0.0
127 C56314 0.989712446442959 0.442158183108867 0.85138061919667 C 0.0 **** 0.0
128 C56315 0.999742360195325 0.428120049986842 0.852704830241257 C 0.0 **** 0.0
129 C56321 0.996527367756861 0.458058030929514 0.851784230134679 C 0.0 **** 0.0
130 C56322 0.986476170584242 0.472171657603488 0.850816855668947 C 0.0 **** 0.0
131 C56323 0.969241296653879 0.47093033226886 0.849452523010619 C 0.0 **** 0.0
132 C56324 0.961094435258296 0.454090707161287 0.848648515706603 C 0.0 **** 0.0
133 C56330 0.943455492110384 0.452512563063838 0.847391211295963 C 0.0 **** 0.0
134 C56331 0.936295742757319 0.436357504145565 0.846968814089312 C 0.0 **** 0.0
135 C56332 0.946764763438918 0.422097803850051 0.847600885006449 C 0.0 **** 0.0
136 C56337 0.933080015930756 0.466818058255962 0.847597576374329 C 0.0 **** 0.0
137 C56338 0.942299943747924 0.483672491399584 0.847497143316498 C 0.0 **** 0.0
138 C56339 0.959477618099848 0.485095565590607 0.848614023780128 C 0.0 **** 0.0
139 C56344 0.912355237404341 0.417763480462375 0.850416335267934 C 0.0 **** 0.0
140 C56345 0.918670276515972 0.43441179541887 0.847755254261269 C 0.0 **** 0.0
141 C56350 0.915568634950537 0.464921052591422 0.847870419510034 C 0.0 **** 0.0
142 C56351 0.908237190464664 0.44890297132372 0.847346405473629 C 0.0 **** 0.0
143 C56355 0.889032578425824 0.447078043150872 0.84737445586237 C 0.0 **** 0.0
144 C56356 0.880936297724251 0.460992627611835 0.836573405975002 C 0.0 **** 0.0
145 C56357 0.886034071221477 0.478029258702763 0.843560666129847 C 0.0 **** 0.0
146 C56358 0.904153197060741 0.480055509022184 0.848972482972852 C 0.0 **** 0.0
147 O56364 0.908314714593514 0.493622823478283 0.854842548349845 O 0.0 **** 0.0
148 H56366 0.971510464545419 0.0784649893707092 1.03730488225694 H 0.0 **** 0.0
149 H56368 0.972363329360645 0.0994503032794954 1.04488300340315 H 0.0 **** 0.0
150 H56370 0.9420284311696 0.08338069019978 1.03817274334749 H 0.0 **** 0.0
151 H56372 0.944378716155077 0.105433503680187 1.03653451836577 H 0.0 **** 0.0
152 H56374 0.948024556496196 0.0803526978508597 1.00755382885934 H 0.0 **** 0.0
153 H56376 0.958163018669944 0.100324710203886 0.989967161704573 H 0.0 **** 0.0
154 H56378 0.969690938323697 0.120483705379428 1.02069047819024 H 0.0 **** 0.0
155 H56380 0.981291033521171 0.114423310716387 1.00253817544679 H 0.0 **** 0.0
156 H56382 0.93861011362722 0.126502316376592 1.01005278472918 H 0.0 **** 0.0
157 H56384 0.919254655812573 0.126787979097735 0.98701686794506 H 0.0 **** 0.0
158 H56386 0.926433591817764 0.0900877437823403 0.982934705333949 H 0.0 **** 0.0
159 H56388 0.90735241394911 0.0997145127881847 0.989142720522953 H 0.0 **** 0.0
160 H56390 0.918638080782404 0.0828022492152133 1.01299338312582 H 0.0 **** 0.0
161 H56392 0.919915563305322 0.104475209121536 1.01822123843775 H 0.0 **** 0.0
162 H56394 0.945611908872597 0.12429660276912 0.948807625400121 H 0.0 **** 0.0
163 H56396 0.96655377110827 0.123229405905151 0.970722304403887 H 0.0 **** 0.0
164 H56398 0.945685556087977 0.148460934474561 0.99124849367546 H 0.0 **** 0.0
165 H56400 0.965204192409151 0.139893479365332 0.997213687291342 H 0.0 **** 0.0
166 H56402 0.926430330498462 0.148187569503306 0.972286370847856 H 0.0 **** 0.0
167 H56404 0.987481107318822 0.188770133754503 0.942559001114474 H 0.0 **** 0.0
168 H56406 0.982643768700026 0.186856241060906 0.964262342513064 H 0.0 **** 0.0
169 H56408 1.00484043311152 0.166513236281567 0.958921586879559 H 0.0 **** 0.0
170 H56410 0.995381098502346 0.159344815283263 0.939980685166773 H 0.0 **** 0.0
171 H56412 0.991606172593873 0.140207741297339 0.967913948599416 H 0.0 **** 0.0
172 H56414 0.903725670630208 0.16315875040611 0.961965429304638 H 0.0 **** 0.0
173 H56415 0.893583726573315 0.123909834342714 0.920665968987002 H 0.0 **** 0.0
174 H56417 0.885933362078652 0.112095779447233 0.938196894591392 H 0.0 **** 0.0
175 H56419 0.916599611257307 0.114890063608864 0.943448098501859 H 0.0 **** 0.0
176 H56421 0.861123525218206 0.134857395429388 0.919181666730018 H 0.0 **** 0.0
177 H56423 0.858746892200588 0.120505837369214 0.936158194096154 H 0.0 **** 0.0
178 H56425 0.841913325564071 0.138319814599588 0.951598027517771 H 0.0 **** 0.0
179 H56427 0.837821558074651 0.147309101162585 0.93153513644419 H 0.0 **** 0.0
180 H56429 0.886033454765013 0.180466990263171 0.967816013384351 H 0.0 **** 0.0
181 H56431 0.879408065214144 0.190885302871445 0.949276112878495 H 0.0 **** 0.0
182 H56433 0.85672320530353 0.180895345173625 0.978727279323078 H 0.0 **** 0.0
183 H56435 0.849124670192767 0.198265180416494 0.945115477910488 H 0.0 **** 0.0
184 H56437 0.834655105004755 0.197751024095737 0.962146719894206 H 0.0 **** 0.0
185 H56439 0.831114187064007 0.173762236376952 0.940595209954429 H 0.0 **** 0.0
186 H56441 0.832656527508741 0.167657824009829 0.96210217802449 H 0.0 **** 0.0
187 H56443 0.888428387805554 0.179215048992767 0.925952967237273 H 0.0 **** 0.0
188 H56445 0.892221979796615 0.228440962217825 0.884726852818492 H 0.0 **** 0.0
189 H56447 0.897242590191343 0.246220368646306 0.861047319242099 H 0.0 **** 0.0
190 H56449 0.975009260305975 0.229760557370336 0.921769330010513 H 0.0 **** 0.0
191 H56451 0.890739265232187 0.307801856208495 0.839419566582549 H 0.0 **** 0.0
192 H56453 0.882685050229774 0.28144903177008 0.848515084625103 H 0.0 **** 0.0
193 H56455 0.902275909712677 0.267513075754141 0.818550122558688 H 0.0 **** 0.0
194 H56457 0.870323222991236 0.273591493826868 0.812964475480818 H 0.0 **** 0.0
195 H56459 0.86111322288261 0.268682972347555 0.832706429008946 H 0.0 **** 0.0
196 H56461 0.857862190148864 0.300402030414742 0.83795154733677 H 0.0 **** 0.0
197 H56463 0.845479298941743 0.293150364460121 0.820876016212114 H 0.0 **** 0.0
198 H56465 0.862705659673357 0.305132563718421 0.800366032953115 H 0.0 **** 0.0
199 H56467 0.889489806977661 0.294875628895755 0.803356311623326 H 0.0 **** 0.0
200 H56469 0.900222158152204 0.328910483921814 0.817337213744957 H 0.0 **** 0.0
201 H56471 0.908466690420008 0.31742012546721 0.800049868541229 H 0.0 **** 0.0
202 H56473 0.881559953034585 0.32329378670186 0.784007626959269 H 0.0 **** 0.0
203 H56475 0.891510878835882 0.342419704121281 0.789495936360038 H 0.0 **** 0.0
204 H56477 0.858416906467784 0.338926350592836 0.794967277370548 H 0.0 **** 0.0
205 H56479 0.870739140671084 0.349493475850056 0.810189942797764 H 0.0 **** 0.0
206 H56481 0.867397970463669 0.32823671076963 0.828503240327096 H 0.0 **** 0.0
207 H56483 1.00698178696179 0.266197190159008 0.928257747429091 H 0.0 **** 0.0
208 H56485 0.98623945259052 0.26455948278235 0.950868703415121 H 0.0 **** 0.0
209 H56487 0.960709000043966 0.285713533089622 0.932163241838513 H 0.0 **** 0.0
210 H56489 0.9624674568701 0.281835089424648 0.953869000029265 H 0.0 **** 0.0
211 H56491 0.970231749008837 0.310939044893568 0.952155953081654 H 0.0 **** 0.0
212 H56493 0.980233377381871 0.308460533313108 0.932422700143674 H 0.0 **** 0.0
213 H56495 0.994083576524625 0.294053150365157 0.965569477720357 H 0.0 **** 0.0
214 H56497 1.00136474635273 0.312875449691282 0.956268332813012 H 0.0 **** 0.0
215 H56499 1.01744543009416 0.283637997127282 0.95041937993693 H 0.0 **** 0.0
216 H56501 1.01511007008058 0.298159038551628 0.933688393276645 H 0.0 **** 0.0
217 H56503 0.997586509639555 0.303159475931024 0.89133140242446 H 0.0 **** 0.0
218 H56505 0.999265538823435 0.327466012013126 0.8720557469123 H 0.0 **** 0.0
219 H56507 0.914398720319557 0.321322506560614 0.844532784384818 H 0.0 **** 0.0
220 H56509 0.911815286980498 0.352008990300529 0.834546828348108 H 0.0 **** 0.0
221 H56511 0.925063100003091 0.376436843593902 0.831280656613146 H 0.0 **** 0.0
222 H56513 0.919126274287295 0.383669583245853 0.868792884740505 H 0.0 **** 0.0
223 H56515 0.894302186950284 0.383881470641951 0.839276112100246 H 0.0 **** 0.0
224 H56517 0.88972042350011 0.392509038735189 0.859395851978649 H 0.0 **** 0.0
225 H56519 0.882313538018955 0.359737696691794 0.851266969979198 H 0.0 **** 0.0
226 H56521 0.886075233968317 0.36667483064918 0.872070939552932 H 0.0 **** 0.0
227 H56523 0.902024797147697 0.339906503280143 0.862731433547668 H 0.0 **** 0.0
228 H56525 0.914047749881929 0.355627239728106 0.872944360430848 H 0.0 **** 0.0
229 H56527 0.875917056399135 0.203342814621068 0.986239140991839 H 0.0 **** 0.0
230 H56529 0.874939116910777 0.231810366113065 0.972880939043409 H 0.0 **** 0.0
231 H56531 0.861858236985346 0.223873527377994 0.956411099836574 H 0.0 **** 0.0
232 H56533 0.883056288549805 0.216635823644409 0.958542325179738 H 0.0 **** 0.0
233 H56535 0.845468984033404 0.203668946590617 0.99663453290749 H 0.0 **** 0.0
234 H56537 0.84064531414702 0.218355340814176 0.980376926769215 H 0.0 **** 0.0
235 H56539 0.855340203970192 0.223839107513082 0.996452925119406 H 0.0 **** 0.0
236 H56541 0.89948885898345 0.242768229882641 0.832659352200035 H 0.0 **** 0.0
237 H56543 1.00547387921673 0.372118993579376 0.855799160528849 H 0.0 **** 0.0
238 H56545 1.01683275508044 0.400266402972662 0.855556733529906 H 0.0 **** 0.0
239 H56547 1.01339027535658 0.429603458320703 0.854148544235422 H 0.0 **** 0.0
240 H56549 1.0101801758265 0.459718512925868 0.852955448538752 H 0.0 **** 0.0
241 H56551 0.992555830691151 0.484546858981814 0.8512074062686 H 0.0 **** 0.0
242 H56553 0.935060690612898 0.495270464408321 0.846381254372263 H 0.0 **** 0.0
243 H56555 0.965106738853931 0.497671108725016 0.848775799206239 H 0.0 **** 0.0
244 H56557 0.898776682607119 0.415875117407334 0.852335202325726 H 0.0 **** 0.0
245 H56559 0.885098087784798 0.434788273050724 0.842233208131076 H 0.0 **** 0.0
246 H56561 0.884160082146174 0.447726719265717 0.860447742272603 H 0.0 **** 0.0
247 H56563 0.86705383121016 0.459971635705278 0.836509848644422 H 0.0 **** 0.0
248 H56565 0.885157982424621 0.45958213047201 0.823360150761045 H 0.0 **** 0.0
249 H56567 0.879164076246931 0.481141192993707 0.855266033180205 H 0.0 **** 0.0
250 H56569 0.884049106825875 0.488787180197049 0.834971370990077 H 0.0 **** 0.0
@<TRIPOS>BOND
1 3 2 1
2 4 3 1
3 5 4 1
4 6 5 1
5 1 2 1
6 1 6 1
7 8 7 1
8 9 8 1
9 10 9 1
10 4 7 1
11 3 10 1
12 12 11 1
13 13 12 1
14 14 13 1
15 8 11 1
16 7 14 1
17 16 15 1
18 17 16 Partial double
19 18 17 1
20 13 15 1
21 12 18 1
22 20 19 Partial double
23 21 20 Partial double
24 22 21 Partial double
25 17 19 Partial double
26 16 22 Partial double
27 24 23 1
28 25 24 1
29 15 25 Double
30 22 23 1
31 27 26 1
32 28 27 Partial double
33 29 28 Partial double
34 21 26 1
35 20 29 Partial double
36 31 30 1
37 32 31 1
38 18 30 1
39 19 32 1
40 34 33 Double
41 35 34 1
42 36 35 1
43 31 33 1
44 30 36 Double
45 38 37 1
46 39 38 1
47 40 39 Double
48 34 37 1
49 33 40 1
50 42 41 1
51 43 42 1
52 44 43 1
53 40 41 1
54 39 44 1
55 46 45 Partial double
56 32 46 1
57 29 45 Partial double
58 48 47 Partial double
59 49 48 1
60 45 49 Partial double
61 28 47 Partial double
62 51 50 Partial double
63 52 51 Partial double
64 53 52 Partial double
65 48 50 Partial double
66 47 53 Partial double
67 55 54 Partial double
68 56 55 Partial double
69 57 56 Partial double
70 52 54 Partial double
71 51 57 Partial double
72 59 58 Partial double
73 60 59 Partial double
74 61 60 Partial double
75 56 58 Partial double
76 55 61 Partial double
77 63 62 Partial double
78 27 63 Partial double
79 53 62 Partial double
80 65 64 Partial double
81 62 65 Partial double
82 54 64 Partial double
83 67 66 Partial double
84 64 67 Partial double
85 61 66 Partial double
86 69 68 Partial double
87 70 69 Partial double
88 66 70 Partial double
89 60 68 Partial double
90 72 71 1
91 73 72 1
92 74 73 1
93 59 71 1
94 58 74 1
95 76 75 1
96 77 76 1
97 78 77 1
98 73 75 1
99 72 78 1
100 80 79 1
101 81 80 1
102 82 81 1
103 78 79 1
104 77 82 1
105 84 83 Partial double
106 85 84 Partial double
107 67 85 Partial double
108 65 83 Partial double
109 87 86 1
110 88 87 1
111 89 88 1
112 84 86 1
113 83 89 1
114 91 90 1
115 92 91 1
116 93 92 1
117 88 90 1
118 87 93 1
119 95 94 Partial double
120 85 95 Partial double
121 70 94 Partial double
122 97 96 Partial double
123 98 97 Partial double
124 94 98 Partial double
125 69 96 Partial double
126 100 99 Partial double
127 101 100 Partial double
128 68 101 Partial double
129 96 99 Partial double
130 103 102 1
131 104 103 Partial double
132 97 102 1
133 99 104 1
134 106 105 1
135 107 106 1
136 100 105 1
137 104 107 Partial double
138 109 108 1
139 110 109 1
140 111 110 1
141 106 108 1
142 105 111 1
143 113 112 1
144 114 113 1
145 103 114 Partial double
146 107 112 Partial double
147 108 115 1
148 112 116 Partial double
149 115 116 Partial double
150 42 117 1
151 117 118 1
152 117 119 1
153 74 120 1
154 122 121 1
155 123 122 Partial double
156 124 123 1
157 114 121 Partial double
158 113 124 Partial double
159 126 125 Partial double
160 127 126 1
161 128 127 Partial double
162 124 125 Partial double
163 123 128 Partial double
164 130 129 Partial double
165 131 130 1
166 132 131 1
167 127 129 Partial double
168 126 132 Partial double
169 134 133 Partial double
170 135 134 Partial double
171 125 135 Partial double
172 132 133 Partial double
173 137 136 Partial double
174 138 137 Partial double
175 131 138 Partial double
176 133 136 Partial double
177 140 139 Partial double
178 134 140 Partial double
179 116 135 Partial double
180 115 139 Partial double
181 142 141 Partial double
182 140 142 Partial double
183 136 141 Partial double
184 144 143 1
185 145 144 1
186 146 145 1
187 142 143 1
188 141 146 1
189 146 147 Double
190 1 148 1
191 1 149 1
192 2 150 1
193 2 151 1
194 3 152 1
195 4 153 1
196 5 154 1
197 5 155 1
198 7 156 1
199 8 157 1
200 9 158 1
201 9 159 1
202 10 160 1
203 10 161 1
204 12 162 1
205 13 163 1
206 14 164 1
207 14 165 1
208 18 166 1
209 23 167 1
210 23 168 1
211 24 169 1
212 24 170 1
213 25 171 1
214 35 173 1
215 35 174 1
216 36 175 1
217 37 176 1
218 37 177 1
219 38 178 1
220 38 179 1
221 41 180 1
222 41 181 1
223 42 182 1
224 43 183 1
225 43 184 1
226 44 185 1
227 44 186 1
228 46 187 1
229 50 188 1
230 57 189 1
231 63 190 1
232 72 191 1
233 73 192 1
234 74 193 1
235 75 194 1
236 75 195 1
237 76 196 1
238 76 197 1
239 77 198 1
240 78 199 1
241 79 200 1
242 79 201 1
243 80 202 1
244 80 203 1
245 81 204 1
246 81 205 1
247 82 206 1
248 87 207 1
249 88 208 1
250 90 209 1
251 90 210 1
252 91 211 1
253 91 212 1
254 92 213 1
255 92 214 1
256 93 215 1
257 93 216 1
258 95 217 1
259 98 218 1
260 101 219 1
261 105 220 1
262 106 221 1
263 108 222 1
264 109 223 1
265 109 224 1
266 110 225 1
267 110 226 1
268 111 227 1
269 111 228 1
270 117 229 1
271 118 230 1
272 118 231 1
273 118 232 1
274 119 233 1
275 119 234 1
276 119 235 1
277 120 236 1
278 121 237 1
279 122 238 1
280 128 239 1
281 129 240 1
282 130 241 1
283 137 242 1
284 138 243 1
285 139 244 1
286 143 245 1
287 143 246 1
288 144 247 1
289 144 248 1
290 145 249 1
291 145 250 1
292 31 172 1
@<TRIPOS>MOLECULE
Sketch 4
250 292
SMALL
USER_CHARGES


@<TRIPOS>ATOM
1 C56572 -0.128766515824144 0.438520463784688 0.397118543828743 C 0.0 **** 0.0
2 C56573 -0.117024740248308 0.437435218126057 0.381369035744448 C 0.0 **** 0.0
3 C56574 -0.108721416378593 0.419885769517416 0.380121223251227 C 0.0 **** 0.0
4 C56575 -0.0988522184398611 0.415776942061282 0.396685125179015 C 0.0 **** 0.0
5 C56576 -0.108379224768579 0.423607222891455 0.412047168032273 C 0.0 **** 0.0
6 O56577 -0.126025834562121 0.425173317029484 0.408897656122798 O 0.0 **** 0.0
7 C56584 -0.0798566946673459 0.420805978067558 0.396369761925284 C 0.0 **** 0.0
8 C56585 -0.0706566436443817 0.415623039289717 0.379442539577313 C 0.0 **** 0.0
9 C56586 -0.0825162734246052 0.406587630652239 0.367101919286452 C 0.0 **** 0.0
10 C56587 -0.0981761982323729 0.41742333221204 0.363901769866834 C 0.0 **** 0.0
11 O56593 -0.0556654772258145 0.4057354205718 0.381037421744831 O 0.0 **** 0.0
12 C56594 -0.0448294090473177 0.411382178083539 0.394369079114338 C 0.0 **** 0.0
13 C56595 -0.0533091860147607 0.406733578819881 0.411148717829119 C 0.0 **** 0.0
14 C56596 -0.0708545057259398 0.415317219105456 0.413126396816384 C 0.0 **** 0.0
15 C56602 -0.0411537305336936 0.410553498006348 0.425466700452643 C 0.0 **** 0.0
16 C56603 -0.0325040831408944 0.427499282312494 0.424860028806467 C 0.0 **** 0.0
17 C56604 -0.0327316324908524 0.436906820927469 0.41010836819078 C 0.0 **** 0.0
18 C56605 -0.0403868024685172 0.430314772009204 0.393798912402141 C 0.0 **** 0.0
19 C56611 -0.0251388710142311 0.452771109451026 0.409748261060965 C 0.0 **** 0.0
20 C56612 -0.0168726643541061 0.458639641734315 0.424043788344653 C 0.0 **** 0.0
21 C56613 -0.0168753347832862 0.449298469772325 0.438896235324093 C 0.0 **** 0.0
22 C56614 -0.0241918225118865 0.43331435312544 0.439153086068558 C 0.0 **** 0.0
23 C56620 -0.0229088235662506 0.422580667086961 0.454995973515282 C 0.0 **** 0.0
24 C56621 -0.0243557623640207 0.403368734852425 0.451195899266013 C 0.0 **** 0.0
25 C56622 -0.037385274707336 0.399413450517256 0.437794782290278 C 0.0 **** 0.0
26 O56627 -0.00966933909725153 0.455451696086342 0.453630967234466 O 0.0 **** 0.0
27 C56628 -0.00165005134311573 0.470994996089936 0.453589234532296 C 0.0 **** 0.0
28 C56629 0.000896490310491918 0.4805815402321 0.439162410166404 C 0.0 **** 0.0
29 C56630 -0.00661984133860503 0.474488730839337 0.422793747092916 C 0.0 **** 0.0
30 C56636 -0.0278756488606193 0.435618651708853 0.380527429873066 C 0.0 **** 0.0
31 C56637 -0.0301661896954581 0.454289458601111 0.377232189266749 C 0.0 **** 0.0
32 C56638 -0.0255946094664147 0.463772537283669 0.393934016126676 C 0.0 **** 0.0
33 C56643 -0.0212285126446159 0.46032072756138 0.360843756966458 C 0.0 **** 0.0
34 C56644 -0.00704099250058574 0.451693138896863 0.356022789547404 C 0.0 **** 0.0
35 C56645 -0.000861544371280977 0.435615381804155 0.364538727903166 C 0.0 **** 0.0
36 C56646 -0.0143357312361707 0.427015569388303 0.37504186241167 C 0.0 **** 0.0
37 C56652 0.00293822755529368 0.455473947703241 0.340365717620223 C 0.0 **** 0.0
38 C56653 -0.00187969937235847 0.472268616578387 0.331949908823461 C 0.0 **** 0.0
39 C56654 -0.0192190701986322 0.478360382648194 0.336848839700394 C 0.0 **** 0.0
40 C56655 -0.0277189136481746 0.472911024371278 0.350868463045352 C 0.0 **** 0.0
41 C56661 -0.0449096847471219 0.481426433731128 0.354463937108924 C 0.0 **** 0.0
42 C56662 -0.0537322631907551 0.487067318220686 0.338268136375752 C 0.0 **** 0.0
43 C56663 -0.0421947850280126 0.499673790799502 0.329084045153166 C 0.0 **** 0.0
44 C56664 -0.0252578546759612 0.491574504557752 0.324504639107458 C 0.0 **** 0.0
45 C56670 -0.00386617928870527 0.482157722620187 0.40765091184589 C 0.0 **** 0.0
46 C56671 -0.0118862531443927 0.477203261602018 0.393217325190103 C 0.0 **** 0.0
47 C56675 0.00989197285777427 0.496006269547258 0.440430285411677 C 0.0 **** 0.0
48 C56676 0.0139917272950768 0.505862364259436 0.426049715641669 C 0.0 **** 0.0
49 S56677 0.0109796185047528 0.498235928453968 0.405753455593873 S 0.0 **** 0.0
50 C56682 0.0217170844832136 0.521238864812899 0.42736739721402 C 0.0 **** 0.0
51 C56683 0.026302912388219 0.527532627918917 0.443395002145599 C 0.0 **** 0.0
52 C56684 0.0228334324781781 0.51785343839037 0.458034278596001 C 0.0 **** 0.0
53 C56685 0.0151323075850874 0.502039187789232 0.456449322228364 C 0.0 **** 0.0
54 C56691 0.0281188367383226 0.524063433878851 0.47367740762121 C 0.0 **** 0.0
55 C56692 0.0369508302020246 0.539493605347741 0.474893144832833 C 0.0 **** 0.0
56 C56693 0.0410158741799831 0.54906759741932 0.460266571854114 C 0.0 **** 0.0
57 C56694 0.0352919320989526 0.542742515129968 0.444735057721691 C 0.0 **** 0.0
58 C56700 0.0520025611978478 0.563125271873132 0.461088672122944 C 0.0 **** 0.0
59 C56701 0.0600019448994778 0.566315504318951 0.476291901840342 C 0.0 **** 0.0
60 C56702 0.0547525154418152 0.558221858386147 0.491292025209337 C 0.0 **** 0.0
61 C56703 0.043305236421662 0.544733708247447 0.490396395447764 C 0.0 **** 0.0
62 C56709 0.0130268185374294 0.491924007988294 0.47091441573962 C 0.0 **** 0.0
63 C56710 0.00402429971223832 0.476760067667142 0.468944150778913 C 0.0 **** 0.0
64 C56714 0.0254517774858013 0.51424316867953 0.488111494285998 C 0.0 **** 0.0
65 C56715 0.0196292117657786 0.497496941515084 0.486731577522816 C 0.0 **** 0.0
66 C56719 0.0399889025384457 0.535262322306786 0.50486267669898 C 0.0 **** 0.0
67 C56720 0.0301116689998869 0.520647409886816 0.503733253182018 C 0.0 **** 0.0
68 C56724 0.0615851310157065 0.563191917236443 0.507193787424187 C 0.0 **** 0.0
69 C56725 0.0601363475789663 0.551957381821119 0.520758916278814 C 0.0 **** 0.0
70 C56726 0.048454389153526 0.538931733039296 0.519940610203915 C 0.0 **** 0.0
71 O56731 0.0737309195298022 0.577173330459286 0.477265918787699 O 0.0 **** 0.0
72 C56732 0.0731091178619175 0.592580549842481 0.468082675135668 C 0.0 **** 0.0
73 C56733 0.0617191266203646 0.59188139707915 0.452174808973544 C 0.0 **** 0.0
74 C56734 0.0575647451997881 0.573994647610576 0.445969500470489 C 0.0 **** 0.0
75 C56740 0.0687104006757855 0.603437361668683 0.438003507139374 C 0.0 **** 0.0
76 C56741 0.0762237681735217 0.619612505407978 0.445572624824646 C 0.0 **** 0.0
77 C56742 0.0923048271729182 0.615869966676872 0.455936731853138 C 0.0 **** 0.0
78 C56743 0.091478447647186 0.59804083495994 0.464254399238521 C 0.0 **** 0.0
79 C56749 0.102902986904982 0.596529114374086 0.480091743952374 C 0.0 **** 0.0
80 C56750 0.117951404456715 0.608500861237968 0.478265542723719 C 0.0 **** 0.0
81 C56751 0.1122722330226 0.627159839089674 0.476578133129163 C 0.0 **** 0.0
82 N56752 0.095862117328322 0.62943018654273 0.467875607296361 N 0.0 **** 0.0
83 C56758 0.020543072722712 0.486602004856712 0.50095815552101 C 0.0 **** 0.0
84 C56759 0.0230392629040553 0.493573099036695 0.516803628814011 C 0.0 **** 0.0
85 C56760 0.0273187615460186 0.510866134917888 0.518258097993363 C 0.0 **** 0.0
86 O56765 0.0225967467418869 0.484113629508112 0.53149640258801 O 0.0 **** 0.0
87 C56766 0.0282176926278513 0.467311445070563 0.528522144386596 C 0.0 **** 0.0
88 C56767 0.0177889390186734 0.459588069737223 0.514586982534381 C 0.0 **** 0.0
89 O56768 0.0184336310754275 0.469249040163131 0.499263616594943 O 0.0 **** 0.0
90 C56774 -0.000742740215415002 0.456746075306241 0.519862641408711 C 0.0 **** 0.0
91 C56775 -0.00272530324177518 0.450227520950319 0.538169188307642 C 0.0 **** 0.0
92 C56776 0.0138533978701347 0.443610999170524 0.545700738062152 C 0.0 **** 0.0
93 C56777 0.0270215673716872 0.45788516455499 0.545645600138238 C 0.0 **** 0.0
94 C56783 0.0454137997070522 0.529278745956404 0.534698133092623 C 0.0 **** 0.0
95 C56784 0.0331220492054751 0.516495716357827 0.533988310684286 C 0.0 **** 0.0
96 C56788 0.0689133524559755 0.555231837171985 0.535739286840442 C 0.0 **** 0.0
97 C56789 0.0679217590820739 0.543854007601037 0.549429052283843 C 0.0 **** 0.0
98 C56790 0.0558041145825395 0.531457507012545 0.549108704966442 C 0.0 **** 0.0
99 C56795 0.0765062423844472 0.571114896545601 0.538540747793662 C 0.0 **** 0.0
100 C56796 0.0754385151975285 0.583605248209529 0.52634000018539 C 0.0 **** 0.0
101 C56797 0.0684343849833487 0.579340562435443 0.51094266761174 C 0.0 **** 0.0
102 O56802 0.0779922262399182 0.545669634288574 0.563511853370533 O 0.0 **** 0.0
103 C56803 0.0836988336246152 0.561670054567896 0.567402264029299 C 0.0 **** 0.0
104 C56804 0.0836729238126093 0.574452234895258 0.555724802800407 C 0.0 **** 0.0
105 C56809 0.0819316787278948 0.601536787721186 0.528995733289624 C 0.0 **** 0.0
106 C56810 0.0914025444065192 0.604279124040995 0.546677262705966 C 0.0 **** 0.0
107 C56811 0.0899681541625811 0.590045903528396 0.559681011081457 C 0.0 **** 0.0
108 C56816 0.0868552697926334 0.621552139849084 0.554744106420564 C 0.0 **** 0.0
109 C56817 0.0876550196215447 0.635618532152173 0.541307620874613 C 0.0 **** 0.0
110 C56818 0.0742872852199872 0.632747610504183 0.527273192256809 C 0.0 **** 0.0
111 C56819 0.0675911707351168 0.614458935384443 0.526845766694074 C 0.0 **** 0.0
112 C56825 0.0956602483272573 0.593010915394635 0.57572775887066 C 0.0 **** 0.0
113 C56826 0.0961606691309177 0.580048384359265 0.58728505306969 C 0.0 **** 0.0
114 C56827 0.0900980105349531 0.564444689247743 0.583177436646397 C 0.0 **** 0.0
115 C56832 0.0982514921470833 0.624405169307038 0.570138620572611 C 0.0 **** 0.0
116 C56834 0.101788935504388 0.610526854073369 0.580295892080848 C 0.0 **** 0.0
117 C56837 -0.0718261141184963 0.493854631992334 0.341350147809153 C 0.0 **** 0.0
118 C56839 -0.0724784383710437 0.509616913404273 0.352590597026827 C 0.0 **** 0.0
119 C56841 -0.0812266730240435 0.497495217296563 0.324773292849161 C 0.0 **** 0.0
120 O56843 0.0445467272735036 0.575906390686942 0.433681818737007 O 0.0 **** 0.0
121 C56845 0.0905487269070006 0.551586379355269 0.5947654436398 C 0.0 **** 0.0
122 C56846 0.097212497594583 0.554210101159842 0.610401177033727 C 0.0 **** 0.0
123 C56847 0.103624548344539 0.569659464788108 0.614558427176489 C 0.0 **** 0.0
124 C56848 0.102990056609098 0.582521508090118 0.602966458130341 C 0.0 **** 0.0
125 C56854 0.110167677557468 0.599235805909866 0.607452487361085 C 0.0 **** 0.0
126 C56855 0.116756910829466 0.601390248918137 0.623262180812718 C 0.0 **** 0.0
127 C56856 0.117067490699943 0.587026466591151 0.635207502923079 C 0.0 **** 0.0
128 C56857 0.110586368555808 0.571715770663399 0.630388799291126 C 0.0 **** 0.0
129 C56863 0.123798998200558 0.589311585065853 0.650959669127157 C 0.0 **** 0.0
130 C56864 0.129993503169202 0.604677459800008 0.656041225413336 C 0.0 **** 0.0
131 C56865 0.129757144005496 0.61841220503567 0.645513443676383 C 0.0 **** 0.0
132 C56866 0.123002596643745 0.616756348774481 0.628130406844982 C 0.0 **** 0.0
133 C56872 0.12255207331859 0.630703981619721 0.617165259049866 C 0.0 **** 0.0
134 C56873 0.115835381593832 0.628559793653847 0.600958460313334 C 0.0 **** 0.0
135 C56874 0.109742105325066 0.612695334555567 0.595941883654373 C 0.0 **** 0.0
136 C56879 0.127756337211421 0.646704514800457 0.622660441005906 C 0.0 **** 0.0
137 C56880 0.135193649190805 0.647300068956557 0.640405793996 C 0.0 **** 0.0
138 C56881 0.13577319903357 0.63361622683401 0.650906238556606 C 0.0 **** 0.0
139 C56886 0.104257462777567 0.640004571364155 0.575202611085582 C 0.0 **** 0.0
140 C56887 0.11360150492957 0.642608922210365 0.590373187898932 C 0.0 **** 0.0
141 C56892 0.125838905471268 0.660647095672895 0.612047032984212 C 0.0 **** 0.0
142 C56893 0.119317063158217 0.658657532939682 0.595784002294304 C 0.0 **** 0.0
143 C56897 0.117337822257138 0.673956135458604 0.584225609504174 C 0.0 **** 0.0
144 C56898 0.131991549485699 0.686383188360799 0.586511606315353 C 0.0 **** 0.0
145 C56899 0.132467364074701 0.691798085225878 0.604800177935779 C 0.0 **** 0.0
146 C56900 0.13059077822689 0.678127262504648 0.617864681730968 C 0.0 **** 0.0
147 O56906 0.132468024429987 0.682287331448999 0.632501858002496 O 0.0 **** 0.0
148 H56908 -0.14205298466628 0.437411784722471 0.393195924061314 H 0.0 **** 0.0
149 H56910 -0.127497307207764 0.450885737323303 0.403454314787624 H 0.0 **** 0.0
150 H56912 -0.124145531824956 0.440254779786514 0.369712626443569 H 0.0 **** 0.0
151 H56914 -0.106907686705886 0.447015199583049 0.382021063358543 H 0.0 **** 0.0
152 H56916 -0.119275627166823 0.410770047263861 0.379548703933625 H 0.0 **** 0.0
153 H56918 -0.0990670669737973 0.401875649187358 0.397864747424373 H 0.0 **** 0.0
154 H56920 -0.102911158960849 0.436023728325177 0.415376367112906 H 0.0 **** 0.0
155 H56922 -0.107093332377472 0.415616250993355 0.423335779833631 H 0.0 **** 0.0
156 H56924 -0.0798854143062262 0.434785901010911 0.396529431642152 H 0.0 **** 0.0
157 H56926 -0.0672041312626293 0.427545502380734 0.372987960910441 H 0.0 **** 0.0
158 H56928 -0.0860753490886184 0.394109568156607 0.37218450305974 H 0.0 **** 0.0
159 H56930 -0.0755545819768944 0.404236379837757 0.355253158481147 H 0.0 **** 0.0
160 H56932 -0.106193307984638 0.411849973692047 0.354041987857384 H 0.0 **** 0.0
161 H56934 -0.0939689670338943 0.429760008746357 0.358936394043261 H 0.0 **** 0.0
162 H56936 -0.0333591665546957 0.403620297458784 0.393059166666828 H 0.0 **** 0.0
163 H56938 -0.0554250118886215 0.392976088057731 0.410716399692497 H 0.0 **** 0.0
164 H56940 -0.0697254478694714 0.426701713076699 0.421009651196226 H 0.0 **** 0.0
165 H56942 -0.0790578794006155 0.406645507043765 0.4202949190834 H 0.0 **** 0.0
166 H56944 -0.0522082030586535 0.437414844531887 0.391768487269741 H 0.0 **** 0.0
167 H56946 -0.0108003459061281 0.424950813452721 0.46146424842272 H 0.0 **** 0.0
168 H56948 -0.0327573590715545 0.426172557929794 0.464021847922612 H 0.0 **** 0.0
169 H56950 -0.0274027631988213 0.396530765229139 0.462982796722925 H 0.0 **** 0.0
170 H56952 -0.0119956144370181 0.398543315096264 0.446930293693232 H 0.0 **** 0.0
171 H56954 -0.0428101652726806 0.386757376784682 0.43825813846562 H 0.0 **** 0.0
172 H56956 -0.0438505127356161 0.455862863452779 0.375306743345489 H 0.0 **** 0.0
173 H56957 0.0102647512328722 0.438445615676297 0.372449956825432 H 0.0 **** 0.0
174 H56959 0.00339429156815503 0.426692415104297 0.354657981800258 H 0.0 **** 0.0
175 H56961 -0.011975576700597 0.414045655219362 0.379018453777309 H 0.0 **** 0.0
176 H56963 0.0165563675314423 0.455522491217058 0.343420860873346 H 0.0 **** 0.0
177 H56965 0.000903578543857801 0.445061624675123 0.331301773798776 H 0.0 **** 0.0
178 H56967 -0.0010374656328014 0.470828827327306 0.318085204022383 H 0.0 **** 0.0
179 H56969 0.00731814174625788 0.482144738168682 0.335470202197807 H 0.0 **** 0.0
180 H56971 -0.0535438141276335 0.472934198002659 0.361241114780023 H 0.0 **** 0.0
181 H56973 -0.0427962078672737 0.492325049811829 0.362861119989907 H 0.0 **** 0.0
182 H56975 -0.0551045815413808 0.475833669825448 0.330036922031216 H 0.0 **** 0.0
183 H56977 -0.0401116416781828 0.510744522336452 0.33727079155208 H 0.0 **** 0.0
184 H56979 -0.0482438199484153 0.504435714109602 0.317492107153713 H 0.0 **** 0.0
185 H56981 -0.0153308193057813 0.501290642139612 0.323093058275955 H 0.0 **** 0.0
186 H56983 -0.0264784565289746 0.485350613414007 0.312064795047479 H 0.0 **** 0.0
187 H56985 -0.0091035773566655 0.483149559523143 0.381112882949832 H 0.0 **** 0.0
188 H56987 0.0250639655945675 0.528564379759052 0.416072083406359 H 0.0 **** 0.0
189 H56989 0.0385030174612153 0.548962338137583 0.432797157479401 H 0.0 **** 0.0
190 H56991 0.000687325745620602 0.468713394299706 0.479694928304871 H 0.0 **** 0.0
191 H56993 0.0677024603803141 0.602209111854976 0.476608561948539 H 0.0 **** 0.0
192 H56995 0.0492842183286082 0.597229851766292 0.455740991539679 H 0.0 **** 0.0
193 H56997 0.0687851300662066 0.567998558144653 0.440123220005294 H 0.0 **** 0.0
194 H56999 0.0786090317532292 0.596820994137719 0.430725325470982 H 0.0 **** 0.0
195 H57001 0.058591683798084 0.606564303363468 0.428941798493273 H 0.0 **** 0.0
196 H57003 0.0665901111443551 0.625611840610771 0.453675772165533 H 0.0 **** 0.0
197 H57005 0.0791933730674053 0.628772596519133 0.43558202778158 H 0.0 **** 0.0
198 H57007 0.102971459932848 0.615700661459388 0.446919612091467 H 0.0 **** 0.0
199 H57009 0.0962932328860973 0.588967823762058 0.454793537140453 H 0.0 **** 0.0
200 H57011 0.0957269197241096 0.60013100623797 0.491472134985294 H 0.0 **** 0.0
201 H57013 0.106983720264281 0.583339103498149 0.48196035738056 H 0.0 **** 0.0
202 H57015 0.125009574966644 0.604778782259871 0.466810139934314 H 0.0 **** 0.0
203 H57017 0.126958877927653 0.607359515744015 0.488824827964235 H 0.0 **** 0.0
204 H57019 0.122053336167346 0.634138496626597 0.469597147114021 H 0.0 **** 0.0
205 H57021 0.111564488826572 0.633140227581415 0.489144338859831 H 0.0 **** 0.0
206 H57023 0.0865749997094174 0.629690657822476 0.476523109887933 H 0.0 **** 0.0
207 H57025 0.0414605000548094 0.467906851122446 0.524223875060374 H 0.0 **** 0.0
208 H57027 0.0233565392340548 0.447150070973959 0.511649432532092 H 0.0 **** 0.0
209 H57029 -0.00752509010396345 0.468835515916384 0.51847773694002 H 0.0 **** 0.0
210 H57031 -0.00671541545403718 0.448033694948514 0.510797360699771 H 0.0 **** 0.0
211 H57033 -0.0129276942770456 0.440785172919568 0.538994841182968 H 0.0 **** 0.0
212 H57035 -0.00662281731275398 0.460964436504776 0.546099243132184 H 0.0 **** 0.0
213 H57037 0.0186550257677345 0.432826496648677 0.538349580042839 H 0.0 **** 0.0
214 H57039 0.0118011376335582 0.438998495763414 0.558698635802581 H 0.0 **** 0.0
215 H57041 0.0392334879388849 0.453139993302814 0.550232709284157 H 0.0 **** 0.0
216 H57043 0.0231057445563734 0.467368069144127 0.555068553192099 H 0.0 **** 0.0
217 H57045 0.0312007771834328 0.508595395030837 0.545237346779535 H 0.0 **** 0.0
218 H57047 0.0539539953059646 0.523310503633832 0.560189457138304 H 0.0 **** 0.0
219 H57049 0.0680791350191428 0.589390739588378 0.501449237990259 H 0.0 **** 0.0
220 H57051 0.0914387184272802 0.604198713320334 0.519126616702758 H 0.0 **** 0.0
221 H57053 0.104978249546778 0.6049438157379 0.543412238143231 H 0.0 **** 0.0
222 H57055 0.0736883246544253 0.621003085881608 0.559465918628364 H 0.0 **** 0.0
223 H57057 0.100431462451599 0.635687394803776 0.535743045568937 H 0.0 **** 0.0
224 H57059 0.0856207925039689 0.648234698825512 0.546785563372047 H 0.0 **** 0.0
225 H57061 0.079717270140639 0.635996491592279 0.514862806453339 H 0.0 **** 0.0
226 H57063 0.0635442957604188 0.64142894853201 0.529161792594851 H 0.0 **** 0.0
227 H57065 0.0604864937616751 0.612494843921683 0.515027796493084 H 0.0 **** 0.0
228 H57067 0.0584491108671939 0.612686567734723 0.537215914472104 H 0.0 **** 0.0
229 H57069 -0.0789526104031896 0.48376639686911 0.347917282147388 H 0.0 **** 0.0
230 H57071 -0.0855796565077695 0.514038518783828 0.353856480166953 H 0.0 **** 0.0
231 H57073 -0.0651167542423798 0.520084437713342 0.347130041631203 H 0.0 **** 0.0
232 H57075 -0.0676651172260151 0.507185819863471 0.365410122883908 H 0.0 **** 0.0
233 H57077 -0.0807127972174546 0.486663567754282 0.316068124263227 H 0.0 **** 0.0
234 H57079 -0.0757663730708486 0.508486678605679 0.318217639475156 H 0.0 **** 0.0
235 H57081 -0.0946368022975416 0.500324847236324 0.327229018289955 H 0.0 **** 0.0
236 H57083 0.0495273688183923 0.582258552916846 0.424766385865914 H 0.0 **** 0.0
237 H57085 0.0857347890447254 0.538995929521687 0.59178577088641 H 0.0 **** 0.0
238 H57087 0.0973814013563122 0.543731760510737 0.619365564642672 H 0.0 **** 0.0
239 H57089 0.110916281227049 0.56108666965814 0.639185747414502 H 0.0 **** 0.0
240 H57091 0.124223471706288 0.578902316188479 0.659909576056534 H 0.0 **** 0.0
241 H57093 0.135027208422941 0.605731879212246 0.668843713496348 H 0.0 **** 0.0
242 H57095 0.140468579860216 0.659028606132704 0.645210841024656 H 0.0 **** 0.0
243 H57097 0.14109640473464 0.635175119333359 0.663534172091798 H 0.0 **** 0.0
244 H57099 0.101366915581737 0.650810216900777 0.567065592199197 H 0.0 **** 0.0
245 H57101 0.116874546660226 0.670182348212805 0.570876843832672 H 0.0 **** 0.0
246 H57103 0.105313198176148 0.680431494673383 0.587079546359695 H 0.0 **** 0.0
247 H57105 0.130469575356668 0.69757509382826 0.578387433670256 H 0.0 **** 0.0
248 H57107 0.143939882982319 0.680232778575252 0.582795595943325 H 0.0 **** 0.0
249 H57109 0.121998089357668 0.700437343010112 0.607960093358922 H 0.0 **** 0.0
250 H57111 0.144109988176616 0.698221454259546 0.608860353755819 H 0.0 **** 0.0
@<TRIPOS>BOND
1 3 2 1
2 4 3 1
3 5 4 1
4 6 5 1
5 1 2 1
6 1 6 1
7 8 7 1
8 9 8 1
9 10 9 1
10 4 7 1
11 3 10 1
12 12 11 1
13 13 12 1
14 14 13 1
15 8 11 1
16 7 14 1
17 16 15 1
18 17 16 Partial double
19 18 17 1
20 13 15 1
21 12 18 1
22 20 19 Partial double
23 21 20 Partial double
24 22 21 Partial double
25 17 19 Partial double
26 16 22 Partial double
27 24 23 1
28 25 24 1
29 15 25 Double
30 22 23 1
31 27 26 1
32 28 27 Partial double
33 29 28 Partial double
34 21 26 1
35 20 29 Partial double
36 31 30 1
37 32 31 1
38 18 30 1
39 19 32 1
40 34 33 Double
41 35 34 1
42 36 35 1
43 31 33 1
44 30 36 Double
45 38 37 1
46 39 38 1
47 40 39 Double
48 34 37 1
49 33 40 1
50 42 41 1
51 43 42 1
52 44 43 1
53 40 41 1
54 39 44 1
55 46 45 Partial double
56 32 46 1
57 29 45 Partial double
58 48 47 Partial double
59 49 48 1
60 45 49 Partial double
61 28 47 Partial double
62 51 50 Partial double
63 52 51 Partial double
64 53 52 Partial double
65 48 50 Partial double
66 47 53 Partial double
67 55 54 Partial double
68 56 55 Partial double
69 57 56 Partial double
70 52 54 Partial double
71 51 57 Partial double
72 59 58 Partial double
73 60 59 Partial double
74 61 60 Partial double
75 56 58 Partial double
76 55 61 Partial double
77 63 62 Partial double
78 27 63 Partial double
79 53 62 Partial double
80 65 64 Partial double
81 62 65 Partial double
82 54 64 Partial double
83 67 66 Partial double
84 64 67 Partial double
85 61 66 Partial double
86 69 68 Partial double
87 70 69 Partial double
88 66 70 Partial double
89 60 68 Partial double
90 72 71 1
91 73 72 1
92 74 73 1
93 59 71 1
94 58 74 1
95 76 75 1
96 77 76 1
97 78 77 1
98 73 75 1
99 72 78 1
100 80 79 1
101 81 80 1
102 82 81 1
103 78 79 1
104 77 82 1
105 84 83 Partial double
106 85 84 Partial double
107 67 85 Partial double
108 65 83 Partial double
109 87 86 1
110 88 87 1
111 89 88 1
112 84 86 1
113 83 89 1
114 91 90 1
115 92 91 1
116 93 92 1
117 88 90 1
118 87 93 1
119 95 94 Partial double
120 85 95 Partial double
121 70 94 Partial double
122 97 96 Partial double
123 98 97 Partial double
124 94 98 Partial double
125 69 96 Partial double
126 100 99 Partial double
127 101 100 Partial double
128 68 101 Partial double
129 96 99 Partial double
130 103 102 1
131 104 103 Partial double
132 97 102 1
133 99 104 1
134 106 105 1
135 107 106 1
136 100 105 1
137 104 107 Partial double
138 109 108 1
139 110 109 1
140 111 110 1
141 106 108 1
142 105 111 1
143 113 112 1
144 114 113 1
145 103 114 Partial double
146 107 112 Partial double
147 108 115 1
148 112 116 Partial double
149 115 116 Partial double
150 42 117 1
151 117 118 1
152 117 119 1
153 74 120 1
154 122 121 1
155 123 122 Partial double
156 124 123 1
157 114 121 Partial double
158 113 124 Partial double
159 126 125 Partial double
160 127 126 1
161 128 127 Partial double
162 124 125 Partial double
163 123 128 Partial double
164 130 129 Partial double
165 131 130 1
166 132 131 1
167 127 129 Partial double
168 126 132 Partial double
169 134 133 Partial double
170 135 134 Partial double
171 125 135 Partial double
172 132 133 Partial double
173 137 136 Partial double
174 138 137 Partial double
175 131 138 Partial double
176 133 136 Partial double
177 140 139 Partial double
178 134 140 Partial double
179 116 135 Partial double
180 115 139 Partial double
181 142 141 Partial double
182 140 142 Partial double
183 136 141 Partial double
184 144 143 1
185 145 144 1
186 146 145 1
187 142 143 1
188 141 146 1
189 146 147 Double
190 1 148 1
191 1 149 1
192 2 150 1
193 2 151 1
194 3 152 1
195 4 153 1
196 5 154 1
197 5 155 1
198 7 156 1
199 8 157 1
200 9 158 1
201 9 159 1
202 10 160 1
203 10 161 1
204 12 162 1
205 13 163 1
206 14 164 1
207 14 165 1
208 18 166 1
209 23 167 1
210 23 168 1
211 24 169 1
212 24 170 1
213 25 171 1
214 35 173 1
215 35 174 1
216 36 175 1
217 37 176 1
218 37 177 1
219 38 178 1
220 38 179 1
221 41 180 1
222 41 181 1
223 42 182 1
224 43 183 1
225 43 184 1
226 44 185 1
227 44 186 1
228 46 187 1
229 50 188 1
230 57 189 1
231 63 190 1
232 72 191 1
233 73 192 1
234 74 193 1
235 75 194 1
236 75 195 1
237 76 196 1
238 76 197 1
239 77 198 1
240 78 199 1
241 79 200 1
242 79 201 1
243 80 202 1
244 80 203 1
245 81 204 1
246 81 205 1
247 82 206 1
248 87 207 1
249 88 208 1
250 90 209 1
251 90 210 1
252 91 211 1
253 91 212 1
254 92 213 1
255 92 214 1
256 93 215 1
257 93 216 1
258 95 217 1
259 98 218 1
260 101 219 1
261 105 220 1
262 106 221 1
263 108 222 1
264 109 223 1
265 109 224 1
266 110 225 1
267 110 226 1
268 111 227 1
269 111 228 1
270 117 229 1
271 118 230 1
272 118 231 1
273 118 232 1
274 119 233 1
275 119 234 1
276 119 235 1
277 120 236 1
278 121 237 1
279 122 238 1
280 128 239 1
281 129 240 1
282 130 241 1
283 137 242 1
284 138 243 1
285 139 244 1
286 143 245 1
287 143 246 1
288 144 247 1
289 144 248 1
290 145 249 1
291 145 250 1
292 31 172 1
@<TRIPOS>MOLECULE
Sketch 4
250 292
SMALL
USER_CHARGES


@<TRIPOS>ATOM
1 C57114 1.12467927518463 0.636051151207189 0.870983501772912 C 0.0 **** 0.0
2 C57115 1.13403789291731 0.642996806824717 0.886865458586154 C 0.0 **** 0.0
3 C57116 1.14255388766604 0.628478143799387 0.896745611058233 C 0.0 **** 0.0
4 C57117 1.12999055636047 0.613553756468965 0.898474301861928 C 0.0 **** 0.0
5 C57118 1.12348599467667 0.608286108390401 0.88059360053721 C 0.0 **** 0.0
6 O57119 1.12939545568034 0.619098107037857 0.867453556334847 O 0.0 **** 0.0
7 C57126 1.1153270415361 0.617895086888972 0.910786613518657 C 0.0 **** 0.0
8 C57127 1.1214867406959 0.628116850078324 0.926564252600437 C 0.0 **** 0.0
9 C57128 1.14059662123829 0.626799493064695 0.928979091751431 C 0.0 **** 0.0
10 C57129 1.15033340020694 0.634022811910425 0.913858053381048 C 0.0 **** 0.0
11 O57135 1.11394876583315 0.622539928646041 0.941944960772461 O 0.0 **** 0.0
12 C57136 1.09596800738394 0.621166464852184 0.940772002426201 C 0.0 **** 0.0
13 C57137 1.09126101577436 0.605745019861834 0.929421396576954 C 0.0 **** 0.0
14 C57138 1.10590416862662 0.601905644207175 0.916651246316521 C 0.0 **** 0.0
15 C57144 1.07378445196482 0.606805555615055 0.921414591822506 C 0.0 **** 0.0
16 C57145 1.06183632683198 0.6203663067565 0.927532474005771 C 0.0 **** 0.0
17 C57146 1.0680956045948 0.634973160675102 0.934930997834908 C 0.0 **** 0.0
18 C57147 1.08717673439064 0.637670738168811 0.935638274730348 C 0.0 **** 0.0
19 C57153 1.05688782568905 0.647462544716432 0.940156900521458 C 0.0 **** 0.0
20 C57154 1.03967576334517 0.645223578864249 0.93762940901011 C 0.0 **** 0.0
21 C57155 1.03346009446019 0.630435975481284 0.930510956305414 C 0.0 **** 0.0
22 C57156 1.04462374645901 0.618028042375418 0.925125666930165 C 0.0 **** 0.0
23 C57162 1.0379598290291 0.602269147417609 0.916524124185178 C 0.0 **** 0.0
24 C57163 1.05060279759134 0.596121864300232 0.902959189960845 C 0.0 **** 0.0
25 C57164 1.06837280822404 0.595408189118927 0.909950909527054 C 0.0 **** 0.0
26 O57169 1.01629575967716 0.627836675286535 0.928230571793018 O 0.0 **** 0.0
27 C57170 1.00488242950225 0.63964573582351 0.934095553166325 C 0.0 **** 0.0
28 C57171 1.00944321065393 0.655525937159046 0.939871805633758 C 0.0 **** 0.0
29 C57172 1.02791169365879 0.659552649648653 0.941411827508884 C 0.0 **** 0.0
30 C57178 1.09122416763414 0.652763428295319 0.946649687899692 C 0.0 **** 0.0
31 C57179 1.0809420753168 0.668063669377127 0.941491289497004 C 0.0 **** 0.0
32 C57180 1.063249318201 0.663533951904527 0.948403026683979 C 0.0 **** 0.0
33 C57185 1.08782380162095 0.685128504726233 0.948248690520007 C 0.0 **** 0.0
34 C57186 1.09758801001481 0.684715714616988 0.962498567682573 C 0.0 **** 0.0
35 C57187 1.10372002344561 0.668604007843532 0.970917421491518 C 0.0 **** 0.0
36 C57188 1.10118111891503 0.652931072705565 0.960370648956909 C 0.0 **** 0.0
37 C57194 1.10525658981322 0.700068694481707 0.970561865494996 C 0.0 **** 0.0
38 C57195 1.09792954582446 0.716801734112417 0.963979678698336 C 0.0 **** 0.0
39 C57196 1.08933782365161 0.715167546861107 0.947116791918478 C 0.0 **** 0.0
40 C57197 1.08468731744772 0.70009470352981 0.940110546560294 C 0.0 **** 0.0
41 C57203 1.07551816831074 0.700622788102986 0.922912554126161 C 0.0 **** 0.0
42 C57204 1.07834748284629 0.716795543828352 0.912828438717927 C 0.0 **** 0.0
43 C57205 1.07435051465818 0.73203049142652 0.924197617635309 C 0.0 **** 0.0
44 C57206 1.08566361601979 0.732392613407768 0.939810475797664 C 0.0 **** 0.0
45 C57212 1.03375714373861 0.67506091049758 0.945846729207478 C 0.0 **** 0.0
46 C57213 1.05044206681019 0.677879904803157 0.948941402915285 C 0.0 **** 0.0
47 C57217 0.99670613504697 0.666931802074485 0.945230817389119 C 0.0 **** 0.0
48 C57218 1.0003668718984 0.683596419323854 0.950623819997997 C 0.0 **** 0.0
49 S57219 1.02012464386453 0.692310577538602 0.947057513065354 S 0.0 **** 0.0
50 C57224 0.988409588824905 0.693782810160241 0.95787500538157 C 0.0 **** 0.0
51 C57225 0.971730208286714 0.687771635675474 0.959962750168381 C 0.0 **** 0.0
52 C57226 0.967544020710372 0.671323433938915 0.954202603537652 C 0.0 **** 0.0
53 C57227 0.979731516856536 0.661493052780981 0.946053826048787 C 0.0 **** 0.0
54 C57233 0.9512569700546 0.665142370645257 0.957054585769009 C 0.0 **** 0.0
55 C57234 0.939080596154328 0.674958125001964 0.965420289759031 C 0.0 **** 0.0
56 C57235 0.942903746224753 0.691608993541733 0.970720063541112 C 0.0 **** 0.0
57 C57236 0.959259236548401 0.697793919538619 0.967654209615118 C 0.0 **** 0.0
58 C57242 0.930677852393956 0.701370637261673 0.978998799665102 C 0.0 **** 0.0
59 C57243 0.914825941650627 0.69473126674379 0.981871350178278 C 0.0 **** 0.0
60 C57244 0.910367883006503 0.678547586434038 0.975759667037653 C 0.0 **** 0.0
61 C57245 0.922983922373022 0.668501506328199 0.96835922660698 C 0.0 **** 0.0
62 C57251 0.975128340658992 0.645643335227276 0.939490664351721 C 0.0 **** 0.0
63 C57252 0.988187652474268 0.634961461794202 0.933913578579453 C 0.0 **** 0.0
64 C57256 0.946920736415492 0.649171760462323 0.950985568483878 C 0.0 **** 0.0
65 C57257 0.957960122186023 0.640370438493009 0.940337405744697 C 0.0 **** 0.0
66 C57261 0.919446483074927 0.651788320213729 0.963934945876362 C 0.0 **** 0.0
67 C57262 0.931268850658452 0.642376487978463 0.954804480641799 C 0.0 **** 0.0
68 C57266 0.893698110522579 0.6718399320567 0.977631692139845 C 0.0 **** 0.0
69 C57267 0.891299281500353 0.654356821524109 0.975229369676465 C 0.0 **** 0.0
70 C57268 0.90387139830857 0.644628770576707 0.967960337028062 C 0.0 **** 0.0
71 O57273 0.903002151631695 0.704641555756236 0.990324795164016 O 0.0 **** 0.0
72 C57274 0.908780645398019 0.713536902471459 1.00506946349383 C 0.0 **** 0.0
73 C57275 0.927349495402669 0.719920200826237 1.00355939450868 C 0.0 **** 0.0
74 C57276 0.933113271039959 0.719269858092409 0.98499517003709 C 0.0 **** 0.0
75 C57282 0.939081419883179 0.710650844064142 1.01600978767941 C 0.0 **** 0.0
76 C57283 0.932962561159795 0.713667773863582 1.03423760015288 C 0.0 **** 0.0
77 C57284 0.914298550008628 0.708439162014548 1.03701222422822 C 0.0 **** 0.0
78 C57285 0.9054701410085 0.702267765927269 1.02069603933374 C 0.0 **** 0.0
79 C57291 0.886217973707325 0.699318665525265 1.0233613793834 C 0.0 **** 0.0
80 C57292 0.881386373846023 0.700656972473058 1.04209599203926 C 0.0 **** 0.0
81 C57293 0.887117507225258 0.717632757184516 1.04974039506105 C 0.0 **** 0.0
82 N57294 0.904976275302343 0.721796505205285 1.04555859042025 N 0.0 **** 0.0
83 C57300 0.952097087166973 0.626206479606796 0.931112730554678 C 0.0 **** 0.0
84 C57301 0.936883295621761 0.618726531208831 0.935539681749855 C 0.0 **** 0.0
85 C57302 0.926896117354303 0.626449559468126 0.948231994136618 C 0.0 **** 0.0
86 O57307 0.930963466505014 0.604046714749048 0.927953062570231 O 0.0 **** 0.0
87 C57308 0.939470551152175 0.599926052413613 0.912532123323967 C 0.0 **** 0.0
88 C57309 0.958186313152096 0.602542642136546 0.914141460121007 C 0.0 **** 0.0
89 O57310 0.96182901730141 0.61974920896938 0.918077534523865 O 0.0 **** 0.0
90 C57316 0.967654772485416 0.597982881630577 0.897896966673805 C 0.0 **** 0.0
91 C57317 0.960454060202897 0.607486571693134 0.882542686128136 C 0.0 **** 0.0
92 C57318 0.941315862631365 0.604683055654961 0.880857402697778 C 0.0 **** 0.0
93 C57319 0.932190011256247 0.609561443841794 0.89726373360598 C 0.0 **** 0.0
94 C57325 0.90022344847437 0.627633251920504 0.963589819891774 C 0.0 **** 0.0
95 C57326 0.911655554742604 0.618897135154462 0.95313545543976 C 0.0 **** 0.0
96 C57330 0.875984739861445 0.64683165153485 0.979974140874512 C 0.0 **** 0.0
97 C57331 0.872802685441497 0.629459008408688 0.977088940721097 C 0.0 **** 0.0
98 C57332 0.884842568990354 0.620122142392334 0.96882223741063 C 0.0 **** 0.0
99 C57337 0.863211767120752 0.656534131580013 0.987458515049276 C 0.0 **** 0.0
100 C57338 0.864658694149653 0.673902663861787 0.988416477311052 C 0.0 **** 0.0
101 C57339 0.879358868720057 0.681230131384016 0.982624792107024 C 0.0 **** 0.0
102 O57344 0.857506435271577 0.622059636308652 0.981289861189127 O 0.0 **** 0.0
103 C57345 0.847273335024912 0.630308906562404 0.992815504187635 C 0.0 **** 0.0
104 C57346 0.848742134348124 0.647353416911367 0.995217392201796 C 0.0 **** 0.0
105 C57351 0.85121399623251 0.684953598547638 0.996400497214679 C 0.0 **** 0.0
106 C57352 0.840312724584554 0.674687450359958 1.00955626886551 C 0.0 **** 0.0
107 C57353 0.838459780482794 0.655785895258823 1.00612840672845 C 0.0 **** 0.0
108 C57358 0.822499001562869 0.682402159955779 1.0113373300086 C 0.0 **** 0.0
109 C57359 0.823315876088364 0.701722160333661 1.01056716988564 C 0.0 **** 0.0
110 C57360 0.828559172548254 0.707151743306733 0.992438927749709 C 0.0 **** 0.0
111 C57361 0.839906368563837 0.693919107251933 0.983466820030205 C 0.0 **** 0.0
112 C57367 0.826473384786973 0.647049759389657 1.01487738185447 C 0.0 **** 0.0
113 C57368 0.82575820011897 0.629765662644941 1.01357683646111 C 0.0 **** 0.0
114 C57369 0.835794176531097 0.621418505009891 1.00226022473177 C 0.0 **** 0.0
115 C57374 0.814385584828229 0.67416527122389 1.02672812387895 C 0.0 **** 0.0
116 C57376 0.815466093513486 0.656640775995128 1.02711866033779 C 0.0 **** 0.0
117 C57379 1.06861478607263 0.716621410882393 0.895703795723731 C 0.0 **** 0.0
118 C57381 1.05053720585796 0.70962612324051 0.896596620149888 C 0.0 **** 0.0
119 C57383 1.06753154269315 0.734051876835321 0.887293740431383 C 0.0 **** 0.0
120 O57385 0.923005177002809 0.730068003449348 0.974698538790483 O 0.0 **** 0.0
121 C57387 0.834630673511662 0.604206642985867 1.00085937735476 C 0.0 **** 0.0
122 C57388 0.824169724839543 0.595300141828597 1.01127627505142 C 0.0 **** 0.0
123 C57389 0.814826635451486 0.603477813037944 1.0232856263218 C 0.0 **** 0.0
124 C57390 0.81543234428428 0.62074796037288 1.02409512961192 C 0.0 **** 0.0
125 C57396 0.805576097690841 0.629654174233911 1.03732586469377 C 0.0 **** 0.0
126 C57397 0.796489158615774 0.620353386871343 1.04864441108426 C 0.0 **** 0.0
127 C57398 0.796459013987601 0.601728095122418 1.04725319265167 C 0.0 **** 0.0
128 C57399 0.805319572234648 0.594044921025381 1.03446210273553 C 0.0 **** 0.0
129 C57405 0.787691724443181 0.592511775500565 1.05896787484849 C 0.0 **** 0.0
130 C57406 0.779091650612836 0.600162904894251 1.07195692330514 C 0.0 **** 0.0
131 C57407 0.778899576227414 0.617384510324511 1.07380440753793 C 0.0 **** 0.0
132 C57408 0.787727379145067 0.628184499968963 1.06136138063326 C 0.0 **** 0.0
133 C57414 0.787894083232532 0.64586686186908 1.06317867860986 C 0.0 **** 0.0
134 C57415 0.796767932254557 0.655435371155629 1.05132601278987 C 0.0 **** 0.0
135 C57416 0.80591626002493 0.647279481187562 1.03856263643628 C 0.0 **** 0.0
136 C57421 0.781066627686123 0.653684304313745 1.07751421320876 C 0.0 **** 0.0
137 C57422 0.771468369062803 0.641837332797786 1.08929483059382 C 0.0 **** 0.0
138 C57423 0.770809856887691 0.62470825024866 1.08713098299093 C 0.0 **** 0.0
139 C57428 0.805764554147098 0.682147820294943 1.03964260262656 C 0.0 **** 0.0
140 C57429 0.798197421730645 0.67299332407577 1.05320176321146 C 0.0 **** 0.0
141 C57434 0.784509523391867 0.67077093230518 1.08064235517442 C 0.0 **** 0.0
142 C57435 0.793151568650006 0.680451691295377 1.06865888905681 C 0.0 **** 0.0
143 C57439 0.797150090863879 0.699092563027214 1.07156624801321 C 0.0 **** 0.0
144 C57440 0.799959401421895 0.70303429819472 1.09023096911769 C 0.0 **** 0.0
145 C57441 0.784855910275007 0.697006166078856 1.10016817645291 C 0.0 **** 0.0
146 C57442 0.779214594519226 0.679111940560663 1.09691607925245 C 0.0 **** 0.0
147 O57448 0.770562504045329 0.67259389146057 1.10776528673217 O 0.0 **** 0.0
148 H57450 1.12795893367052 0.64341273577049 0.859656424917392 H 0.0 **** 0.0
149 H57452 1.11084282623876 0.637109790662708 0.87249558765069 H 0.0 **** 0.0
150 H57454 1.14370217048278 0.652383424927409 0.883290464415185 H 0.0 **** 0.0
151 H57456 1.125155135972 0.649761535175683 0.895207994743826 H 0.0 **** 0.0
152 H57458 1.15285912276962 0.624009488109917 0.888548796571064 H 0.0 **** 0.0
153 H57460 1.13700600570863 0.602870515820505 0.904132342146393 H 0.0 **** 0.0
154 H57462 1.10954893235939 0.607570017681781 0.8802975830677 H 0.0 **** 0.0
155 H57464 1.12809111283972 0.595613355611842 0.877267014096754 H 0.0 **** 0.0
156 H57466 1.10613524130322 0.62569116628404 0.903730112092765 H 0.0 **** 0.0
157 H57468 1.11863137998688 0.641654206202393 0.924629437199657 H 0.0 **** 0.0
158 H57470 1.1438730588427 0.613385809447569 0.930932007659053 H 0.0 **** 0.0
159 H57472 1.1441197008171 0.633418179099794 0.940733955493351 H 0.0 **** 0.0
160 H57474 1.16366054369692 0.630081610568427 0.914660274337029 H 0.0 **** 0.0
161 H57476 1.15038521860359 0.647917116651973 0.914805798933255 H 0.0 **** 0.0
162 H57478 1.0920294061972 0.618140622436489 0.953771399497168 H 0.0 **** 0.0
163 H57480 1.09067427899348 0.594594548684922 0.937772251638458 H 0.0 **** 0.0
164 H57482 1.10181637218335 0.594239807639333 0.905785920347846 H 0.0 **** 0.0
165 H57484 1.11517863602336 0.593960192463843 0.923455559313019 H 0.0 **** 0.0
166 H57486 1.09126047208126 0.64103255165325 0.922685585549292 H 0.0 **** 0.0
167 H57488 1.03588512647538 0.592159436621855 0.92585281377979 H 0.0 **** 0.0
168 H57490 1.02562962527072 0.604698325899357 0.910553270039613 H 0.0 **** 0.0
169 H57492 1.05033912449451 0.604726731257935 0.892024652383085 H 0.0 **** 0.0
170 H57494 1.04677440093479 0.583535020581187 0.898310458621266 H 0.0 **** 0.0
171 H57496 1.07624551246933 0.58519893975231 0.905124691220714 H 0.0 **** 0.0
172 H57498 1.08052297786932 0.668360959309771 0.927581678897123 H 0.0 **** 0.0
173 H57499 1.09757494988156 0.667021343542516 0.983322596855451 H 0.0 **** 0.0
174 H57501 1.11743460261023 0.669918261351052 0.973394862619127 H 0.0 **** 0.0
175 H57503 1.10776266557581 0.641601992209515 0.964508146751932 H 0.0 **** 0.0
176 H57505 1.10356994055958 0.699421559345945 0.984411417387317 H 0.0 **** 0.0
177 H57507 1.11900098413105 0.69978620641649 0.968266854863869 H 0.0 **** 0.0
178 H57509 1.10813823440622 0.726296647427279 0.963199434038134 H 0.0 **** 0.0
179 H57511 1.08861783907959 0.721714159671455 0.973136588193283 H 0.0 **** 0.0
180 H57513 1.07943778684322 0.689883691870484 0.914993539308469 H 0.0 **** 0.0
181 H57515 1.06191210896655 0.699094403201098 0.925368745070137 H 0.0 **** 0.0
182 H57517 1.09191021542171 0.717568609869627 0.909612215798882 H 0.0 **** 0.0
183 H57519 1.06108630845021 0.731109112681041 0.928112260443565 H 0.0 **** 0.0
184 H57521 1.07572092901981 0.744143647766991 0.917455806312452 H 0.0 **** 0.0
185 H57523 1.07985511767155 0.740412771917223 0.949664186248375 H 0.0 **** 0.0
186 H57525 1.09785493010825 0.738358791618184 0.936605248125819 H 0.0 **** 0.0
187 H57527 1.05486301595274 0.690428087342509 0.952476651257005 H 0.0 **** 0.0
188 H57529 0.991498223724932 0.706696196737074 0.96192588617493 H 0.0 **** 0.0
189 H57531 0.962973975880019 0.710561537007828 0.971594177159008 H 0.0 **** 0.0
190 H57533 0.985859063721364 0.62187933279899 0.92998053093698 H 0.0 **** 0.0
191 H57535 0.900693791995588 0.724841997669752 1.00610142502157 H 0.0 **** 0.0
192 H57537 0.927721775355595 0.733370255391195 1.00733678035972 H 0.0 **** 0.0
193 H57539 0.946057205171645 0.72398682772392 0.983961810779525 H 0.0 **** 0.0
194 H57541 0.939400180639058 0.696985168641754 1.01324407449343 H 0.0 **** 0.0
195 H57543 0.952177754857108 0.715258725922048 1.01461388052951 H 0.0 **** 0.0
196 H57545 0.934389913153779 0.727244650084544 1.03698370933271 H 0.0 **** 0.0
197 H57547 0.941297523265638 0.707126683232775 1.04328416421424 H 0.0 **** 0.0
198 H57549 0.914423810070132 0.697596002648916 1.04578513289788 H 0.0 **** 0.0
199 H57551 0.911332994031055 0.689967441566941 1.01770610310861 H 0.0 **** 0.0
200 H57553 0.878954247843158 0.708950538126818 1.01638114419118 H 0.0 **** 0.0
201 H57555 0.882412197644403 0.686990349038611 1.01817622650932 H 0.0 **** 0.0
202 H57557 0.887293064181908 0.690154190354466 1.04910780585457 H 0.0 **** 0.0
203 H57559 0.867640242223016 0.699249751506426 1.04385922285166 H 0.0 **** 0.0
204 H57561 0.885589462146429 0.717497888808361 1.06359692651143 H 0.0 **** 0.0
205 H57563 0.878812306233658 0.727770900195395 1.04500502490489 H 0.0 **** 0.0
206 H57565 0.90584174772052 0.732607987940229 1.0390327140532 H 0.0 **** 0.0
207 H57567 0.937240713562525 0.586359146470262 0.910215758260822 H 0.0 **** 0.0
208 H57569 0.962948114544686 0.594756060546193 0.924674694818966 H 0.0 **** 0.0
209 H57571 0.981088355807772 0.601239309147768 0.899718931682775 H 0.0 **** 0.0
210 H57573 0.967100702834351 0.584264698706008 0.89563586812046 H 0.0 **** 0.0
211 H57575 0.967004485254678 0.603615490740365 0.870854888596988 H 0.0 **** 0.0
212 H57577 0.962911164765764 0.621143084421911 0.884068989321559 H 0.0 **** 0.0
213 H57579 0.938851752267864 0.591254256846811 0.877995635713087 H 0.0 **** 0.0
214 H57581 0.936289824823373 0.611991302785991 0.870092000793542 H 0.0 **** 0.0
215 H57583 0.918520351016008 0.607018305236621 0.896313830000362 H 0.0 **** 0.0
216 H57585 0.933510911868661 0.623281389174743 0.899394023151575 H 0.0 **** 0.0
217 H57587 0.908167321130251 0.606378599034932 0.948289102562047 H 0.0 **** 0.0
218 H57589 0.882300642253543 0.606844043714555 0.965573723743119 H 0.0 **** 0.0
219 H57591 0.879530834822556 0.695046411569106 0.983302007054601 H 0.0 **** 0.0
220 H57593 0.857557458147851 0.695009120291408 1.00367898488349 H 0.0 **** 0.0
221 H57595 0.846916699576027 0.675940011005671 1.02179625897756 H 0.0 **** 0.0
222 H57597 0.814837538970475 0.678465761441628 1.0002890391981 H 0.0 **** 0.0
223 H57599 0.832652195844783 0.706208283916892 1.01987499969018 H 0.0 **** 0.0
224 H57601 0.811186698826052 0.707624816058587 1.01386897632357 H 0.0 **** 0.0
225 H57603 0.835338947522668 0.719267249864395 0.992914162869524 H 0.0 **** 0.0
226 H57605 0.817151208847162 0.709452230059607 0.98478017276231 H 0.0 **** 0.0
227 H57607 0.847472837205146 0.700151123006674 0.973559656953864 H 0.0 **** 0.0
228 H57609 0.832013031176127 0.684423244586371 0.976998833535002 H 0.0 **** 0.0
229 H57611 1.07578185618456 0.708220592820706 0.887130055371601 H 0.0 **** 0.0
230 H57613 1.04477475465253 0.709736385902466 0.883916986781213 H 0.0 **** 0.0
231 H57615 1.04263787326134 0.717449371723805 0.904926990257269 H 0.0 **** 0.0
232 H57617 1.0499070116422 0.696534137542109 0.901214889501455 H 0.0 **** 0.0
233 H57619 1.07992131324492 0.740148090024216 0.885837662430105 H 0.0 **** 0.0
234 H57621 1.05941163737955 0.74258642936023 0.894714565748872 H 0.0 **** 0.0
235 H57623 1.06182730223648 0.733005021164766 0.874679662892802 H 0.0 **** 0.0
236 H57625 0.913289163831138 0.723408964074001 0.972181291071201 H 0.0 **** 0.0
237 H57627 0.842315995770934 0.597239708019056 0.991756829317163 H 0.0 **** 0.0
238 H57629 0.823844523430656 0.581559893056788 1.01008636437811 H 0.0 **** 0.0
239 H57631 0.805186629234835 0.580303243577189 1.03333824598551 H 0.0 **** 0.0
240 H57633 0.787486621660797 0.578784279901219 1.05828672412909 H 0.0 **** 0.0
241 H57635 0.772501535082505 0.592112796938342 1.08102509186557 H 0.0 **** 0.0
242 H57637 0.764574501531468 0.646942460974703 1.09999978914004 H 0.0 **** 0.0
243 H57639 0.763853781443906 0.617160191487157 1.09634275966815 H 0.0 **** 0.0
244 H57641 0.806028484970097 0.696009536131751 1.03981492966431 H 0.0 **** 0.0
245 H57643 0.808678760825233 0.702744638463701 1.06472141274176 H 0.0 **** 0.0
246 H57645 0.786850406318556 0.707066858655916 1.06661511441457 H 0.0 **** 0.0
247 H57647 0.801918287554841 0.716657095078222 1.09230196807045 H 0.0 **** 0.0
248 H57649 0.81149221086577 0.696591813902307 1.09456532700642 H 0.0 **** 0.0
249 H57651 0.773626651211035 0.704816302907466 1.09750959097963 H 0.0 **** 0.0
250 H57653 0.786494053485194 0.696963797283452 1.11396803488519 H 0.0 **** 0.0
@<TRIPOS>BOND
1 3 2 1
2 4 3 1
3 5 4 1
4 6 5 1
5 1 2 1
6 1 6 1
7 8 7 1
8 9 8 1
9 10 9 1
10 4 7 1
11 3 10 1
12 12 11 1
13 13 12 1
14 14 13 1
15 8 11 1
16 7 14 1
17 16 15 1
18 17 16 Partial double
19 18 17 1
20 13 15 1
21 12 18 1
22 20 19 Partial double
23 21 20 Partial double
24 22 21 Partial double
25 17 19 Partial double
26 16 22 Partial double
27 24 23 1
28 25 24 1
29 15 25 Double
30 22 23 1
31 27 26 1
32 28 27 Partial double
33 29 28 Partial double
34 21 26 1
35 20 29 Partial double
36 31 30 1
37 32 31 1
38 18 30 1
39 19 32 1
40 34 33 Double
41 35 34 1
42 36 35 1
43 31 33 1
44 30 36 Double
45 38 37 1
46 39 38 1
47 40 39 Double
48 34 37 1
49 33 40 1
50 42 41 1
51 43 42 1
52 44 43 1
53 40 41 1
54 39 44 1
55 46 45 Partial double
56 32 46 1
57 29 45 Partial double
58 48 47 Partial double
59 49 48 1
60 45 49 Partial double
61 28 47 Partial double
62 51 50 Partial double
63 52 51 Partial double
64 53 52 Partial double
65 48 50 Partial double
66 47 53 Partial double
67 55 54 Partial double
68 56 55 Partial double
69 57 56 Partial double
70 52 54 Partial double
71 51 57 Partial double
72 59 58 Partial double
73 60 59 Partial double
74 61 60 Partial double
75 56 58 Partial double
76 55 61 Partial double
77 63 62 Partial double
78 27 63 Partial double
79 53 62 Partial double
80 65 64 Partial double
81 62 65 Partial double
82 54 64 Partial double
83 67 66 Partial double
84 64 67 Partial double
85 61 66 Partial double
86 69 68 Partial double
87 70 69 Partial double
88 66 70 Partial double
89 60 68 Partial double
90 72 71 1
91 73 72 1
92 74 73 1
93 59 71 1
94 58 74 1
95 76 75 1
96 77 76 1
97 78 77 1
98 73 75 1
99 72 78 1
100 80 79 1
101 81 80 1
102 82 81 1
103 78 79 1
104 77 82 1
105 84 83 Partial double
106 85 84 Partial double
107 67 85 Partial double
108 65 83 Partial double
109 87 86 1
110 88 87 1
111 89 88 1
112 84 86 1
113 83 89 1
114 91 90 1
115 92 91 1
116 93 92 1
117 88 90 1
118 87 93 1
119 95 94 Partial double
120 85 95 Partial double
121 70 94 Partial double
122 97 96 Partial double
123 98 97 Partial double
124 94 98 Partial double
125 69 96 Partial double
126 100 99 Partial double
127 101 100 Partial double
128 68 101 Partial double
129 96 99 Partial double
130 103 102 1
131 104 103 Partial double
132 97 102 1
133 99 104 1
134 106 105 1
135 107 106 1
136 100 105 1
137 104 107 Partial double
138 109 108 1
139 110 109 1
140 111 110 1
141 106 108 1
142 105 111 1
143 113 112 1
144 114 113 1
145 103 114 Partial double
146 107 112 Partial double
147 108 115 1
148 112 116 Partial double
149 115 116 Partial double
150 42 117 1
151 117 118 1
152 117 119 1
153 74 120 1
154 122 121 1
155 123 122 Partial double
156 124 123 1
157 114 121 Partial double
158 113 124 Partial double
159 126 125 Partial double
160 127 126 1
161 128 127 Partial double
162 124 125 Partial double
163 123 128 Partial double
164 130 129 Partial double
165 131 130 1
166 132 131 1
167 127 129 Partial double
168 126 132 Partial double
169 134 133 Partial double
170 135 134 Partial double
171 125 135 Partial double
172 132 133 Partial double
173 137 136 Partial double
174 138 137 Partial double
175 131 138 Partial double
176 133 136 Partial double
177 140 139 Partial double
178 134 140 Partial double
179 116 135 Partial double
180 115 139 Partial double
181 142 141 Partial double
182 140 142 Partial double
183 136 141 Partial double
184 144 143 1
185 145 144 1
186 146 145 1
187 142 143 1
188 141 146 1
189 146 147 Double
190 1 148 1
191 1 149 1
192 2 150 1
193 2 151 1
194 3 152 1
195 4 153 1
196 5 154 1
197 5 155 1
198 7 156 1
199 8 157 1
200 9 158 1
201 9 159 1
202 10 160 1
203 10 161 1
204 12 162 1
205 13 163 1
206 14 164 1
207 14 165 1
208 18 166 1
209 23 167 1
210 23 168 1
211 24 169 1
212 24 170 1
213 25 171 1
214 35 173 1
215 35 174 1
216 36 175 1
217 37 176 1
218 37 177 1
219 38 178 1
220 38 179 1
221 41 180 1
222 41 181 1
223 42 182 1
224 43 183 1
225 43 184 1
226 44 185 1
227 44 186 1
228 46 187 1
229 50 188 1
230 57 189 1
231 63 190 1
232 72 191 1
233 73 192 1
234 74 193 1
235 75 194 1
236 75 195 1
237 76 196 1
238 76 197 1
239 77 198 1
240 78 199 1
241 79 200 1
242 79 201 1
243 80 202 1
244 80 203 1
245 81 204 1
246 81 205 1
247 82 206 1
248 87 207 1
249 88 208 1
250 90 209 1
251 90 210 1
252 91 211 1
253 91 212 1
254 92 213 1
255 92 214 1
256 93 215 1
257 93 216 1
258 95 217 1
259 98 218 1
260 101 219 1
261 105 220 1
262 106 221 1
263 108 222 1
264 109 223 1
265 109 224 1
266 110 225 1
267 110 226 1
268 111 227 1
269 111 228 1
270 117 229 1
271 118 230 1
272 118 231 1
273 118 232 1
274 119 233 1
275 119 234 1
276 119 235 1
277 120 236 1
278 121 237 1
279 122 238 1
280 128 239 1
281 129 240 1
282 130 241 1
283 137 242 1
284 138 243 1
285 139 244 1
286 143 245 1
287 143 246 1
288 144 247 1
289 144 248 1
290 145 249 1
291 145 250 1
292 31 172 1
@<TRIPOS>MOLECULE
Sketch 4
250 292
SMALL
USER_CHARGES


@<TRIPOS>ATOM
1 C57656 0.530870844343234 0.401801979353091 0.782798994453994 C 0.0 **** 0.0
2 C57657 0.545027870162666 0.408345838453851 0.794725699118001 C 0.0 **** 0.0
3 C57658 0.543206240215627 0.427410779014452 0.798211034474378 C 0.0 **** 0.0
4 C57659 0.542184917900008 0.43758543602532 0.781249237484256 C 0.0 **** 0.0
5 C57660 0.535706756901572 0.426003316327447 0.766882322834292 C 0.0 **** 0.0
6 O57661 0.523088853186578 0.414875262153362 0.773179871549861 O 0.0 **** 0.0
7 C57668 0.559000082414564 0.446834126195918 0.777693030464716 C 0.0 **** 0.0
8 C57669 0.562123934918136 0.46027873029304 0.791627765216744 C 0.0 **** 0.0
9 C57670 0.557510459775418 0.453594568801522 0.809356945853476 C 0.0 **** 0.0
10 C57671 0.557030005643767 0.43425047518924 0.810103594368772 C 0.0 **** 0.0
11 O57677 0.551632599383885 0.474798717122776 0.789235482508719 O 0.0 **** 0.0
12 C57678 0.553560824902697 0.483435904213237 0.773397643385846 C 0.0 **** 0.0
13 C57679 0.549249488958776 0.47109470778091 0.758963108621317 C 0.0 **** 0.0
14 C57680 0.560129587923593 0.455143076114876 0.760144928073588 C 0.0 **** 0.0
15 C57686 0.550841020754772 0.479118783582162 0.741692797452995 C 0.0 **** 0.0
16 C57687 0.564594641506161 0.492028848538028 0.739229591895055 C 0.0 **** 0.0
17 C57688 0.572790975538401 0.499042211229598 0.753085231008536 C 0.0 **** 0.0
18 C57689 0.57105974054809 0.4914346005331 0.770874989745617 C 0.0 **** 0.0
19 C57695 0.583545812956553 0.512649174601443 0.750371451484252 C 0.0 **** 0.0
20 C57696 0.588541865987992 0.516758680131319 0.734075837688385 C 0.0 **** 0.0
21 C57697 0.581755435989277 0.508270601755314 0.720291827618883 C 0.0 **** 0.0
22 C57698 0.568671219760376 0.496832795676829 0.722850053635903 C 0.0 **** 0.0
23 C57704 0.559779927256567 0.488948404982151 0.707806976999394 C 0.0 **** 0.0
24 C57705 0.541261477490425 0.484131524038182 0.712021677742157 C 0.0 **** 0.0
25 C57706 0.539892861936312 0.475663284941224 0.729083637576637 C 0.0 **** 0.0
26 O57711 0.587491734905918 0.511090532058632 0.703955101785041 O 0.0 **** 0.0
27 C57712 0.600270472597982 0.522597894800953 0.701168772409875 C 0.0 **** 0.0
28 C57713 0.607427076478805 0.532570038703553 0.713734180017078 C 0.0 **** 0.0
29 C57714 0.601602576078647 0.53022850273672 0.731612066822025 C 0.0 **** 0.0
30 C57720 0.577128389732694 0.503603622443425 0.784391456858498 C 0.0 **** 0.0
31 C57721 0.594388023253202 0.510698921556147 0.77998160591563 C 0.0 **** 0.0
32 C57722 0.590052621237357 0.52262719313963 0.76520858323252 C 0.0 **** 0.0
33 C57727 0.60392717177792 0.519583060392421 0.794550526923079 C 0.0 **** 0.0
34 C57728 0.594757198595178 0.524960703663286 0.808131368229372 C 0.0 **** 0.0
35 C57729 0.576021920634245 0.521345635173698 0.810546860337167 C 0.0 **** 0.0
36 C57730 0.568696043170157 0.508694214357374 0.798188816773758 C 0.0 **** 0.0
37 C57736 0.602513305361285 0.533415847608373 0.823262518183004 C 0.0 **** 0.0
38 C57737 0.620771505772792 0.539592608908135 0.820388697994905 C 0.0 **** 0.0
39 C57738 0.629380119949774 0.531324376580914 0.805614359740252 C 0.0 **** 0.0
40 C57739 0.621098211188934 0.521703028426747 0.793933545011965 C 0.0 **** 0.0
41 C57745 0.631535276937053 0.513443820819157 0.77975161645352 C 0.0 **** 0.0
42 C57746 0.650650842691746 0.514959142723819 0.781340174635307 C 0.0 **** 0.0
43 C57747 0.655353502578601 0.532886600238738 0.787072519251377 C 0.0 **** 0.0
44 C57748 0.647950986065666 0.535989037812888 0.804643962562595 C 0.0 **** 0.0
45 C57754 0.607694945112419 0.539413842605323 0.744797334246988 C 0.0 **** 0.0
46 C57755 0.60248353413549 0.536599745582172 0.760945523226771 C 0.0 **** 0.0
47 C57759 0.619186756042629 0.545294881066101 0.709163239137769 C 0.0 **** 0.0
48 C57760 0.62546137051108 0.557530759407893 0.720579049504184 C 0.0 **** 0.0
49 S57761 0.622857063024295 0.555182981339034 0.742167043886204 S 0.0 **** 0.0
50 C57766 0.633226809923673 0.57204620419448 0.715116204741889 C 0.0 **** 0.0
51 C57767 0.636166699592529 0.574579854404884 0.697684852256982 C 0.0 **** 0.0
52 C57768 0.632111761375819 0.561509374699351 0.686224414775284 C 0.0 **** 0.0
53 C57769 0.623706209569494 0.547125184885402 0.692026958780747 C 0.0 **** 0.0
54 C57775 0.637175815259246 0.562900137710843 0.669387582187591 C 0.0 **** 0.0
55 C57776 0.64484323613709 0.577738707780764 0.663419763259775 C 0.0 **** 0.0
56 C57777 0.646799576651014 0.591893569652461 0.674185112124388 C 0.0 **** 0.0
57 C57778 0.643314604055156 0.589578227669894 0.691482893072491 C 0.0 **** 0.0
58 C57784 0.653394702561678 0.607024850144616 0.667751252159701 C 0.0 **** 0.0
59 C57785 0.661077001721472 0.606996656349022 0.652021078801307 C 0.0 **** 0.0
60 C57786 0.659341366612338 0.593031247278121 0.641000244123839 C 0.0 **** 0.0
61 C57787 0.651678693648846 0.578248145274531 0.647222022707847 C 0.0 **** 0.0
62 C57793 0.619362757653088 0.534578262892261 0.680341909746577 C 0.0 **** 0.0
63 C57794 0.606345878921941 0.523409628374155 0.684884736484078 C 0.0 **** 0.0
64 C57798 0.635994972838265 0.548710243321023 0.658966814665445 C 0.0 **** 0.0
65 C57799 0.628016359926826 0.533957030552487 0.664716381514936 C 0.0 **** 0.0
66 C57803 0.651908941624491 0.56346226275884 0.63757057585669 C 0.0 **** 0.0
67 C57804 0.644282085001113 0.548725524209258 0.643620740994411 C 0.0 **** 0.0
68 C57808 0.664989278487442 0.59346116101246 0.623876129539443 C 0.0 **** 0.0
69 C57809 0.666425256186318 0.578052070174965 0.615102975516851 C 0.0 **** 0.0
70 C57810 0.660115140920072 0.563241541423917 0.622003889436368 C 0.0 **** 0.0
71 O57815 0.669983651479002 0.621393636291484 0.647035572744143 O 0.0 **** 0.0
72 C57816 0.680342245753501 0.629689083936346 0.65962664902938 C 0.0 **** 0.0
73 C57817 0.67383608435039 0.626964989882953 0.678105784091513 C 0.0 **** 0.0
74 C57818 0.654804502368299 0.623933178075935 0.676681367145966 C 0.0 **** 0.0
75 C57824 0.678595524399077 0.64159426379847 0.690143713919876 C 0.0 **** 0.0
76 C57825 0.695484861262973 0.64928004582367 0.684855647556551 C 0.0 **** 0.0
77 C57826 0.693094290779596 0.658888694522596 0.668138735247463 C 0.0 **** 0.0
78 C57827 0.681441518184302 0.648918287072185 0.655571484942262 C 0.0 **** 0.0
79 C57833 0.686386364085839 0.652639369373413 0.637182484159444 C 0.0 **** 0.0
80 C57834 0.705070465120081 0.647821925810753 0.634135303604835 C 0.0 **** 0.0
81 C57835 0.716340973094456 0.650147374531244 0.649976870330744 C 0.0 **** 0.0
82 N57836 0.709098911890397 0.663625406812095 0.660122440470804 N 0.0 **** 0.0
83 C57842 0.630317004162794 0.518302967481046 0.656190542035967 C 0.0 **** 0.0
84 C57843 0.639134817912137 0.518106936117638 0.641110720972701 C 0.0 **** 0.0
85 C57844 0.645665883181921 0.53343510258396 0.634659762328183 C 0.0 **** 0.0
86 O57849 0.641995650286907 0.503412075449625 0.631993626376574 O 0.0 **** 0.0
87 C57850 0.630533933264457 0.490218866941522 0.636411292732222 C 0.0 **** 0.0
88 C57851 0.629764117854023 0.488302576292572 0.655237495296145 C 0.0 **** 0.0
89 O57852 0.624056868538058 0.503498024581677 0.663244103545606 O 0.0 **** 0.0
90 C57858 0.646559689574988 0.481829782095281 0.662561064226586 C 0.0 **** 0.0
91 C57859 0.651577332240397 0.465015210404207 0.654326893799188 C 0.0 **** 0.0
92 C57860 0.65263255396657 0.466937703963993 0.635064265580066 C 0.0 **** 0.0
93 C57861 0.635937096245067 0.473696327425192 0.627799126666222 C 0.0 **** 0.0
94 C57867 0.661255730990917 0.548011390178764 0.612579403276193 C 0.0 **** 0.0
95 C57868 0.654046076714108 0.533195689932635 0.619116560526117 C 0.0 **** 0.0
96 C57872 0.672626187241592 0.577935319724881 0.598547512831067 C 0.0 **** 0.0
97 C57873 0.67517385442432 0.562576548330651 0.589754418299676 C 0.0 **** 0.0
98 C57874 0.669306363743133 0.547857769233985 0.59666309908824 C 0.0 **** 0.0
99 C57879 0.675030566084638 0.593116769242053 0.589642773725638 C 0.0 **** 0.0
100 C57880 0.672409195739233 0.608481485890295 0.597504021203352 C 0.0 **** 0.0
101 C57881 0.667797853204666 0.608398911176987 0.614345544025268 C 0.0 **** 0.0
102 O57886 0.683295624947127 0.562154092668401 0.574370703707383 O 0.0 **** 0.0
103 C57887 0.681862153345498 0.576242153629047 0.564310848231245 C 0.0 **** 0.0
104 C57888 0.678743585978725 0.591805069576922 0.571158797963879 C 0.0 **** 0.0
105 C57893 0.6743716436161 0.625189747193048 0.588170442956522 C 0.0 **** 0.0
106 C57894 0.674356814515096 0.623436763327887 0.568104160236915 C 0.0 **** 0.0
107 C57895 0.678036569371143 0.605828469967267 0.561156872692512 C 0.0 **** 0.0
108 C57900 0.68687755587293 0.636013985805762 0.559723456116779 C 0.0 **** 0.0
109 C57901 0.685933092111906 0.653557107061687 0.5680215129727 C 0.0 **** 0.0
110 C57902 0.69085612154705 0.652568647015017 0.586995862697263 C 0.0 **** 0.0
111 C57903 0.690372500734592 0.634371150305489 0.593966322949431 C 0.0 **** 0.0
112 C57909 0.680560152498046 0.604175646857989 0.544171437346137 C 0.0 **** 0.0
113 C57910 0.68286397534273 0.588470074014446 0.537200737544534 C 0.0 **** 0.0
114 C57911 0.683842835396287 0.57452886944421 0.547267609157855 C 0.0 **** 0.0
115 C57916 0.684031983709285 0.635580483516795 0.540558297831954 C 0.0 **** 0.0
116 C57918 0.680865148617977 0.619884628590258 0.533382842962453 C 0.0 **** 0.0
117 C57921 0.659176842642521 0.50843362274932 0.764963750276504 C 0.0 **** 0.0
118 C57923 0.657119864598795 0.520138954087648 0.749626181431801 C 0.0 **** 0.0
119 C57925 0.67796738178091 0.504397484953631 0.767193615627817 C 0.0 **** 0.0
120 O57927 0.645868482522159 0.625409320601559 0.692241724418079 O 0.0 **** 0.0
121 C57929 0.686873346742693 0.558978042486904 0.540317718634759 C 0.0 **** 0.0
122 C57930 0.688740533813484 0.557304764334826 0.523297234212178 C 0.0 **** 0.0
123 C57931 0.687256776531266 0.571103533199208 0.513051679242856 C 0.0 **** 0.0
124 C57932 0.684266091245644 0.586634265341453 0.520101658286136 C 0.0 **** 0.0
125 C57938 0.682467700220788 0.60162302985038 0.509002004710313 C 0.0 **** 0.0
126 C57939 0.683877964921117 0.599360825270406 0.491966272671554 C 0.0 **** 0.0
127 C57940 0.687038813372944 0.58226647624964 0.485054773743827 C 0.0 **** 0.0
128 C57941 0.688799722226353 0.568851931006336 0.495855758349363 C 0.0 **** 0.0
129 C57947 0.688285643766918 0.580132509232748 0.467936810895961 C 0.0 **** 0.0
130 C57948 0.686922049245784 0.593596721025739 0.457099430045161 C 0.0 **** 0.0
131 C57949 0.68471949004837 0.609737848679107 0.46297176752602 C 0.0 **** 0.0
132 C57950 0.682831018570291 0.612921107548238 0.481315350324365 C 0.0 **** 0.0
133 C57956 0.681518454587969 0.629518139301395 0.487640755771967 C 0.0 **** 0.0
134 C57957 0.680843293064417 0.631989081235274 0.50511038513493 C 0.0 **** 0.0
135 C57958 0.680380757399658 0.617889952958716 0.515848911417703 C 0.0 **** 0.0
136 C57963 0.684625447544477 0.643148521202992 0.476849274806958 C 0.0 **** 0.0
137 C57964 0.683908737953839 0.639114013569307 0.458111482638242 C 0.0 **** 0.0
138 C57965 0.684224051127235 0.62299802634007 0.452024586079038 C 0.0 **** 0.0
139 C57970 0.685932983209227 0.649219781882441 0.52984831915211 C 0.0 **** 0.0
140 C57971 0.68480164264549 0.647974757811772 0.51191315827504 C 0.0 **** 0.0
141 C57976 0.690111906763334 0.658535028348332 0.48351399096779 C 0.0 **** 0.0
142 C57977 0.689903544928329 0.661208726802142 0.500930444200648 C 0.0 **** 0.0
143 C57981 0.69624130302581 0.677854208802512 0.508395361001603 C 0.0 **** 0.0
144 C57982 0.693123077090237 0.692851951699295 0.496606011041478 C 0.0 **** 0.0
145 C57983 0.700479093898459 0.689250028287917 0.479403115834984 C 0.0 **** 0.0
146 C57984 0.69693249546911 0.672107448897897 0.472031047382469 C 0.0 **** 0.0
147 O57990 0.700569501193679 0.670041224383791 0.457254286778518 O 0.0 **** 0.0
148 H57992 0.520616673668118 0.396035802800733 0.790184873065292 H 0.0 **** 0.0
149 H57994 0.535830782766373 0.391892769864552 0.774312013661927 H 0.0 **** 0.0
150 H57996 0.545096982822419 0.401184442695612 0.806687738228885 H 0.0 **** 0.0
151 H57998 0.557548117146769 0.40620719806294 0.788935960788198 H 0.0 **** 0.0
152 H58000 0.531006059060562 0.429111586769989 0.804784802201408 H 0.0 **** 0.0
153 H58002 0.5325465683477 0.44753600903458 0.783022887101251 H 0.0 **** 0.0
154 H58004 0.546138633738789 0.418838308652513 0.761014677453374 H 0.0 **** 0.0
155 H58006 0.529772403040583 0.433463474502971 0.756767683712041 H 0.0 **** 0.0
156 H58008 0.569124439694375 0.437247726436211 0.778433825092667 H 0.0 **** 0.0
157 H58010 0.575589348654093 0.46392917951116 0.791411427016334 H 0.0 **** 0.0
158 H58012 0.544752815235319 0.458330178321018 0.812325247735783 H 0.0 **** 0.0
159 H58014 0.565898636966416 0.458775606683663 0.819182754977901 H 0.0 **** 0.0
160 H58016 0.554640295465028 0.429767889067784 0.823060255885166 H 0.0 **** 0.0
161 H58018 0.569510520993745 0.429211047925497 0.806464698786893 H 0.0 **** 0.0
162 H58020 0.543920395973895 0.493471869121895 0.773831400032193 H 0.0 **** 0.0
163 H58022 0.535938144703554 0.467317981095743 0.760664076444433 H 0.0 **** 0.0
164 H58024 0.573451678009018 0.458452551599761 0.757711365081073 H 0.0 **** 0.0
165 H58026 0.556659100696799 0.446118841969451 0.75011553036743 H 0.0 **** 0.0
166 H58028 0.580337230352455 0.480957234757151 0.771364273914057 H 0.0 **** 0.0
167 H58030 0.559974886256184 0.497539488036225 0.696881087210664 H 0.0 **** 0.0
168 H58032 0.566546494942825 0.477494175851568 0.703879799835086 H 0.0 **** 0.0
169 H58034 0.536287475703422 0.47564957867065 0.702109696116214 H 0.0 **** 0.0
170 H58036 0.533167589918997 0.49546473665611 0.711920089455532 H 0.0 **** 0.0
171 H58038 0.529205112848385 0.467105803003498 0.730702703948461 H 0.0 **** 0.0
172 H58040 0.60221043965191 0.500189002559811 0.775357682047627 H 0.0 **** 0.0
173 H58041 0.56883376175485 0.533287084996643 0.809820617490322 H 0.0 **** 0.0
174 H58043 0.574160649157685 0.516320454844519 0.823475207952882 H 0.0 **** 0.0
175 H58045 0.556081345639638 0.503879806802425 0.800908068544991 H 0.0 **** 0.0
176 H58047 0.594573147410115 0.54419775386277 0.827222237578141 H 0.0 **** 0.0
177 H58049 0.602341390594228 0.524327020497277 0.833821240920002 H 0.0 **** 0.0
178 H58051 0.628224470544914 0.537388806214069 0.831996403902136 H 0.0 **** 0.0
179 H58053 0.620705799994045 0.553378885340319 0.81825436462457 H 0.0 **** 0.0
180 H58055 0.628336723226209 0.499906969407191 0.779304063936865 H 0.0 **** 0.0
181 H58057 0.627582295451882 0.518838408653173 0.767602741727914 H 0.0 **** 0.0
182 H58059 0.654697098636515 0.50649038411757 0.791680170803484 H 0.0 **** 0.0
183 H58061 0.650309919897452 0.542231033443526 0.778041248074463 H 0.0 **** 0.0
184 H58063 0.669143676016819 0.53463897186674 0.787339251887363 H 0.0 **** 0.0
185 H58065 0.649540148915646 0.549380363978025 0.808260969943104 H 0.0 **** 0.0
186 H58067 0.654881489527656 0.52843732414527 0.814100059260224 H 0.0 **** 0.0
187 H58069 0.607129401072679 0.544390941123209 0.771310403930475 H 0.0 **** 0.0
188 H58071 0.637230844969785 0.581868843347888 0.724056049449676 H 0.0 **** 0.0
189 H58073 0.646373454251053 0.599277583812862 0.700879183677063 H 0.0 **** 0.0
190 H58075 0.600952828403115 0.51469509262654 0.675539067784808 H 0.0 **** 0.0
191 H58077 0.693056634697057 0.624157008660554 0.658443187214843 H 0.0 **** 0.0
192 H58079 0.679845727580765 0.615510651926501 0.683416632670917 H 0.0 **** 0.0
193 H58081 0.649929721527178 0.633998610949326 0.668321362122176 H 0.0 **** 0.0
194 H58083 0.668834759269234 0.651561708469969 0.68993575294419 H 0.0 **** 0.0
195 H58085 0.678952652821932 0.636787963011617 0.703208785292856 H 0.0 **** 0.0
196 H58087 0.704843524632715 0.639062883497393 0.683328501549095 H 0.0 **** 0.0
197 H58089 0.700638746829344 0.65782915967665 0.694554364764886 H 0.0 **** 0.0
198 H58091 0.686404140941581 0.670782317314056 0.671133608661402 H 0.0 **** 0.0
199 H58093 0.668404197964935 0.653519189425307 0.657418518570614 H 0.0 **** 0.0
200 H58095 0.677821422056079 0.646370279823217 0.628195442382626 H 0.0 **** 0.0
201 H58097 0.68490792082343 0.666339714616228 0.634969137780272 H 0.0 **** 0.0
202 H58099 0.710083547525996 0.655204637030523 0.62344336678876 H 0.0 **** 0.0
203 H58101 0.705845271225073 0.63453864362383 0.630186039687947 H 0.0 **** 0.0
204 H58103 0.729283590961605 0.653435158632452 0.646049966664544 H 0.0 **** 0.0
205 H58105 0.717350711948597 0.638028832167645 0.656817022445622 H 0.0 **** 0.0
206 H58107 0.717164401758363 0.668390330122088 0.6686217984131 H 0.0 **** 0.0
207 H58109 0.617872198588839 0.493918055494465 0.631860750599788 H 0.0 **** 0.0
208 H58111 0.620271125794295 0.478470338070057 0.657904541633626 H 0.0 **** 0.0
209 H58113 0.656584624828212 0.491281827731006 0.660430560613508 H 0.0 **** 0.0
210 H58115 0.645232895822606 0.480420707924592 0.676358373361553 H 0.0 **** 0.0
211 H58117 0.642106163060846 0.455281093016254 0.657530385647109 H 0.0 **** 0.0
212 H58119 0.663732797702953 0.460453368782684 0.659345083927385 H 0.0 **** 0.0
213 H58121 0.655999611926942 0.454800344803849 0.629091694284794 H 0.0 **** 0.0
214 H58123 0.66294474709563 0.475803398406655 0.632000335186907 H 0.0 **** 0.0
215 H58125 0.625996431257693 0.464046983890542 0.629390100230486 H 0.0 **** 0.0
216 H58127 0.63724715711272 0.475927665115631 0.6141075663217 H 0.0 **** 0.0
217 H58129 0.65501776703634 0.521372833903431 0.611903752092345 H 0.0 **** 0.0
218 H58131 0.670540296181509 0.535926078282258 0.589646128258868 H 0.0 **** 0.0
219 H58133 0.665636838750207 0.620873540968589 0.619999172662521 H 0.0 **** 0.0
220 H58135 0.663517218024875 0.633339130350294 0.591443378492342 H 0.0 **** 0.0
221 H58137 0.661471142327172 0.626828744525659 0.563940584098321 H 0.0 **** 0.0
222 H58139 0.699859708377636 0.631277262090839 0.561902926864801 H 0.0 **** 0.0
223 H58141 0.672945492314382 0.658355905908056 0.566761863884511 H 0.0 **** 0.0
224 H58143 0.694233916842236 0.662728000606533 0.561655769322454 H 0.0 **** 0.0
225 H58145 0.682228661469722 0.660535231231971 0.594499923814191 H 0.0 **** 0.0
226 H58147 0.703577161631728 0.657900423025447 0.588904881593139 H 0.0 **** 0.0
227 H58149 0.691131393857455 0.634624169698865 0.607799444885601 H 0.0 **** 0.0
228 H58151 0.701573796543935 0.627273363656182 0.589647983108138 H 0.0 **** 0.0
229 H58153 0.652942115679025 0.496306349437232 0.761895391446721 H 0.0 **** 0.0
230 H58155 0.663041278481683 0.514449756652989 0.738389761287927 H 0.0 **** 0.0
231 H58157 0.663275114076455 0.532415170156542 0.751870529926228 H 0.0 **** 0.0
232 H58159 0.643814078960616 0.522579067701475 0.746438193394145 H 0.0 **** 0.0
233 H58161 0.680301377288928 0.496470774013109 0.77838320775249 H 0.0 **** 0.0
234 H58163 0.685363570718377 0.516070630891126 0.768456109994217 H 0.0 **** 0.0
235 H58165 0.682845127097722 0.497543588473294 0.756097046800285 H 0.0 **** 0.0
236 H58167 0.634153166550539 0.625341605696268 0.689171150092839 H 0.0 **** 0.0
237 H58169 0.687863675573979 0.547650667680492 0.548135408441212 H 0.0 **** 0.0
238 H58171 0.691186157520004 0.544752824564168 0.518118038325841 H 0.0 **** 0.0
239 H58173 0.691316266465484 0.556259766751235 0.490777211519492 H 0.0 **** 0.0
240 H58175 0.690550120248267 0.567628207337064 0.462564797508752 H 0.0 **** 0.0
241 H58177 0.68814125828679 0.591175660869589 0.443576978414731 H 0.0 **** 0.0
242 H58179 0.683076632201287 0.649432088912016 0.449059133120448 H 0.0 **** 0.0
243 H58181 0.684298302636084 0.621025048551732 0.438448050982068 H 0.0 **** 0.0
244 H58183 0.689382059621452 0.661250710213483 0.53575433901896 H 0.0 **** 0.0
245 H58185 0.690040082728029 0.680690714645914 0.520484872433054 H 0.0 **** 0.0
246 H58187 0.709916911866214 0.6768157151815 0.511073267017687 H 0.0 **** 0.0
247 H58189 0.69873031700808 0.704431905144606 0.501844396351501 H 0.0 **** 0.0
248 H58191 0.679468502347975 0.695144413719818 0.495474718629923 H 0.0 **** 0.0
249 H58193 0.714395360940741 0.689892643566577 0.479443271152203 H 0.0 **** 0.0
250 H58195 0.696202753781634 0.697744159482803 0.469261873014733 H 0.0 **** 0.0
@<TRIPOS>BOND
1 3 2 1
2 4 3 1
3 5 4 1
4 6 5 1
5 1 2 1
6 1 6 1
7 8 7 1
8 9 8 1
9 10 9 1
10 4 7 1
11 3 10 1
12 12 11 1
13 13 12 1
14 14 13 1
15 8 11 1
16 7 14 1
17 16 15 1
18 17 16 Partial double
19 18 17 1
20 13 15 1
21 12 18 1
22 20 19 Partial double
23 21 20 Partial double
24 22 21 Partial double
25 17 19 Partial double
26 16 22 Partial double
27 24 23 1
28 25 24 1
29 15 25 Double
30 22 23 1
31 27 26 1
32 28 27 Partial double
33 29 28 Partial double
34 21 26 1
35 20 29 Partial double
36 31 30 1
37 32 31 1
38 18 30 1
39 19 32 1
40 34 33 Double
41 35 34 1
42 36 35 1
43 31 33 1
44 30 36 Double
45 38 37 1
46 39 38 1
47 40 39 Double
48 34 37 1
49 33 40 1
50 42 41 1
51 43 42 1
52 44 43 1
53 40 41 1
54 39 44 1
55 46 45 Partial double
56 32 46 1
57 29 45 Partial double
58 48 47 Partial double
59 49 48 1
60 45 49 Partial double
61 28 47 Partial double
62 51 50 Partial double
63 52 51 Partial double
64 53 52 Partial double
65 48 50 Partial double
66 47 53 Partial double
67 55 54 Partial double
68 56 55 Partial double
69 57 56 Partial double
70 52 54 Partial double
71 51 57 Partial double
72 59 58 Partial double
73 60 59 Partial double
74 61 60 Partial double
75 56 58 Partial double
76 55 61 Partial double
77 63 62 Partial double
78 27 63 Partial double
79 53 62 Partial double
80 65 64 Partial double
81 62 65 Partial double
82 54 64 Partial double
83 67 66 Partial double
84 64 67 Partial double
85 61 66 Partial double
86 69 68 Partial double
87 70 69 Partial double
88 66 70 Partial double
89 60 68 Partial double
90 72 71 1
91 73 72 1
92 74 73 1
93 59 71 1
94 58 74 1
95 76 75 1
96 77 76 1
97 78 77 1
98 73 75 1
99 72 78 1
100 80 79 1
101 81 80 1
102 82 81 1
103 78 79 1
104 77 82 1
105 84 83 Partial double
106 85 84 Partial double
107 67 85 Partial double
108 65 83 Partial double
109 87 86 1
110 88 87 1
111 89 88 1
112 84 86 1
113 83 89 1
114 91 90 1
115 92 91 1
116 93 92 1
117 88 90 1
118 87 93 1
119 95 94 Partial double
120 85 95 Partial double
121 70 94 Partial double
122 97 96 Partial double
123 98 97 Partial double
124 94 98 Partial double
125 69 96 Partial double
126 100 99 Partial double
127 101 100 Partial double
128 68 101 Partial double
129 96 99 Partial double
130 103 102 1
131 104 103 Partial double
132 97 102 1
133 99 104 1
134 106 105 1
135 107 106 1
136 100 105 1
137 104 107 Partial double
138 109 108 1
139 110 109 1
140 111 110 1
141 106 108 1
142 105 111 1
143 113 112 1
144 114 113 1
145 103 114 Partial double
146 107 112 Partial double
147 108 115 1
148 112 116 Partial double
149 115 116 Partial double
150 42 117 1
151 117 118 1
152 117 119 1
153 74 120 1
154 122 121 1
155 123 122 Partial double
156 124 123 1
157 114 121 Partial double
158 113 124 Partial double
159 126 125 Partial double
160 127 126 1
161 128 127 Partial double
162 124 125 Partial double
163 123 128 Partial double
164 130 129 Partial double
165 131 130 1
166 132 131 1
167 127 129 Partial double
168 126 132 Partial double
169 134 133 Partial double
170 135 134 Partial double
171 125 135 Partial double
172 132 133 Partial double
173 137 136 Partial double
174 138 137 Partial double
175 131 138 Partial double
176 133 136 Partial double
177 140 139 Partial double
178 134 140 Partial double
179 116 135 Partial double
180 115 139 Partial double
181 142 141 Partial double
182 140 142 Partial double
183 136 141 Partial double
184 144 143 1
185 145 144 1
186 146 145 1
187 142 143 1
188 141 146 1
189 146 147 Double
190 1 148 1
191 1 149 1
192 2 150 1
193 2 151 1
194 3 152 1
195 4 153 1
196 5 154 1
197 5 155 1
198 7 156 1
199 8 157 1
200 9 158 1
201 9 159 1
202 10 160 1
203 10 161 1
204 12 162 1
205 13 163 1
206 14 164 1
207 14 165 1
208 18 166 1
209 23 167 1
210 23 168 1
211 24 169 1
212 24 170 1
213 25 171 1
214 35 173 1
215 35 174 1
216 36 175 1
217 37 176 1
218 37 177 1
219 38 178 1
220 38 179 1
221 41 180 1
222 41 181 1
223 42 182 1
224 43 183 1
225 43 184 1
226 44 185 1
227 44 186 1
228 46 187 1
229 50 188 1
230 57 189 1
231 63 190 1
232 72 191 1
233 73 192 1
234 74 193 1
235 75 194 1
236 75 195 1
237 76 196 1
238 76 197 1
239 77 198 1
240 78 199 1
241 79 200 1
242 79 201 1
243 80 202 1
244 80 203 1
245 81 204 1
246 81 205 1
247 82 206 1
248 87 207 1
249 88 208 1
250 90 209 1
251 90 210 1
252 91 211 1
253 91 212 1
254 92 213 1
255 92 214 1
256 93 215 1
257 93 216 1
258 95 217 1
259 98 218 1
260 101 219 1
261 105 220 1
262 106 221 1
263 108 222 1
264 109 223 1
265 109 224 1
266 110 225 1
267 110 226 1
268 111 227 1
269 111 228 1
270 117 229 1
271 118 230 1
272 118 231 1
273 118 232 1
274 119 233 1
275 119 234 1
276 119 235 1
277 120 236 1
278 121 237 1
279 122 238 1
280 128 239 1
281 129 240 1
282 130 241 1
283 137 242 1
284 138 243 1
285 139 244 1
286 143 245 1
287 143 246 1
288 144 247 1
289 144 248 1
290 145 249 1
291 145 250 1
292 31 172 1
@<TRIPOS>MOLECULE
Sketch 4
250 292
SMALL
USER_CHARGES


@<TRIPOS>ATOM
1 C58198 0.431374953272435 0.283958531967549 -0.0127467560843995 C 0.0 **** 0.0
2 C58199 0.429777762764153 0.276369465835674 -0.0307647470987946 C 0.0 **** 0.0
3 C58200 0.410946064136516 0.275079302746677 -0.0360392023383223 C 0.0 **** 0.0
4 C58201 0.400179355439892 0.269856912867786 -0.0205122843135398 C 0.0 **** 0.0
5 C58202 0.402764757682719 0.282946587810747 -0.00606607150906414 C 0.0 **** 0.0
6 O58203 0.416910001832146 0.293780011711265 -0.00876904684545048 O 0.0 **** 0.0
7 C58210 0.404333311611791 0.251558331307994 -0.0146616389769588 C 0.0 **** 0.0
8 C58211 0.407727499640033 0.239443150933425 -0.0299607239171875 C 0.0 **** 0.0
9 C58212 0.399977463260369 0.246516649535898 -0.0461618101450752 C 0.0 **** 0.0
10 C58213 0.407961433297135 0.263389979400187 -0.0514613580774063 C 0.0 **** 0.0
11 O58219 0.401314622154534 0.222720256472088 -0.0277562863808355 O 0.0 **** 0.0
12 C58220 0.404762008467743 0.216320119652581 -0.0112054117445186 C 0.0 **** 0.0
13 C58221 0.393097116871352 0.225266443741953 0.00162730278916111 C 0.0 **** 0.0
14 C58222 0.390527677150387 0.244403184099188 -0.00293343009058932 C 0.0 **** 0.0
15 C58228 0.397766233108865 0.221894464531557 0.0199294451776432 C 0.0 **** 0.0
16 C58229 0.413938358421172 0.21256369109219 0.0237929983563498 C 0.0 **** 0.0
17 C58230 0.426302690099363 0.210712027178606 0.0114732179064441 C 0.0 **** 0.0
18 C58231 0.423615896142442 0.216727114043371 -0.00655680815080294 C 0.0 **** 0.0
19 C58237 0.441476637898978 0.202885226322357 0.0156905539125562 C 0.0 **** 0.0
20 C58238 0.442829941989983 0.194749510628257 0.0311226080319358 C 0.0 **** 0.0
21 C58239 0.430345877571683 0.196241496997061 0.0433499147397165 C 0.0 **** 0.0
22 C58240 0.415989303961782 0.205724198574723 0.0398525460077925 C 0.0 **** 0.0
23 C58246 0.402070422447852 0.206984278635486 0.052997344482947 C 0.0 **** 0.0
24 C58247 0.391738196146908 0.22346035839489 0.0508922483564495 C 0.0 **** 0.0
25 C58248 0.387429801832422 0.226717301600177 0.0325778250400049 C 0.0 **** 0.0
26 O58253 0.431666588834194 0.188114533022217 0.0588621333537738 O 0.0 **** 0.0
27 C58254 0.445982525834537 0.178813192717446 0.0625776127289546 C 0.0 **** 0.0
28 C58255 0.458333254221805 0.174997831551522 0.0507570084360205 C 0.0 **** 0.0
29 C58256 0.456830117567273 0.182295534259289 0.0333605337836189 C 0.0 **** 0.0
30 C58262 0.434474876133021 0.205677422788589 -0.0177214285427363 C 0.0 **** 0.0
31 C58263 0.452898027625351 0.209250159954191 -0.014195675172227 C 0.0 **** 0.0
32 C58264 0.456475734616509 0.202077053358058 0.00370160463547844 C 0.0 **** 0.0
33 C58269 0.465067274771457 0.202925826503205 -0.0282021492919775 C 0.0 **** 0.0
34 C58270 0.459911237781695 0.189132402870488 -0.0372842427825464 C 0.0 **** 0.0
35 C58271 0.442424514554866 0.181265520135773 -0.0358742830854525 C 0.0 **** 0.0
36 C58272 0.429584856261402 0.192732122865529 -0.0275285705986401 C 0.0 **** 0.0
37 C58278 0.46977105830146 0.182015863290153 -0.0518447305657696 C 0.0 **** 0.0
38 C58279 0.488502203576054 0.186926810072497 -0.0512523242869007 C 0.0 **** 0.0
39 C58280 0.491121370525448 0.203990868178891 -0.043260976128342 C 0.0 **** 0.0
40 C58281 0.479871994559458 0.211054345102819 -0.0321824008416267 C 0.0 **** 0.0
41 C58287 0.484770225631362 0.228552406602949 -0.0249973664252825 C 0.0 **** 0.0
42 C58288 0.495381590123793 0.238389488916082 -0.0378941406315171 C 0.0 **** 0.0
43 C58289 0.511910847546259 0.228434155827805 -0.0403812822234228 C 0.0 **** 0.0
44 C58290 0.507944835445727 0.211359176364348 -0.0484868536569076 C 0.0 **** 0.0
45 C58296 0.466641385526295 0.17737949270336 0.0201230342675269 C 0.0 **** 0.0
46 C58297 0.466262958351769 0.18559319259673 0.00499774807731937 C 0.0 **** 0.0
47 C58301 0.471985140981274 0.164456351909627 0.0553651135375609 C 0.0 **** 0.0
48 C58302 0.483610003308701 0.158080926920018 0.0433477376115747 C 0.0 **** 0.0
49 S58303 0.479558481509872 0.159697260463604 0.0218844194504068 S 0.0 **** 0.0
50 C58308 0.497813628814774 0.149449085692026 0.0480616272709159 C 0.0 **** 0.0
51 C58309 0.500179464376607 0.145090337563343 0.0652156798050725 C 0.0 **** 0.0
52 C58310 0.487815881155743 0.149696295288095 0.0773009690003962 C 0.0 **** 0.0
53 C58311 0.474328195217981 0.159988622787699 0.0724848474823022 C 0.0 **** 0.0
54 C58317 0.488612396348146 0.142570683934581 0.0934444140099611 C 0.0 **** 0.0
55 C58318 0.500323537899679 0.129764522305951 0.0972863046949041 C 0.0 **** 0.0
56 C58319 0.511746428332761 0.12412593227684 0.0847579628040961 C 0.0 **** 0.0
57 C58320 0.512909247674999 0.133695542750796 0.0698206114315759 C 0.0 **** 0.0
58 C58326 0.521461686139658 0.109604277068003 0.0875922256500093 C 0.0 **** 0.0
59 C58327 0.52330917326031 0.103729794402213 0.103979395506294 C 0.0 **** 0.0
60 C58328 0.512266693524166 0.109241139740846 0.116978923418344 C 0.0 **** 0.0
61 C58329 0.500639228444786 0.122193103162078 0.113178009769249 C 0.0 **** 0.0
62 C58335 0.462381663940204 0.164881837825285 0.0846694100302884 C 0.0 **** 0.0
63 C58336 0.44770693963215 0.17314019228041 0.0789121729332702 C 0.0 **** 0.0
64 C58340 0.477097430252237 0.147861508182494 0.105651571137818 C 0.0 **** 0.0
65 C58341 0.465118883417573 0.160401510677999 0.101882840749884 C 0.0 **** 0.0
66 C58345 0.489129701424503 0.127695290179161 0.125358524081849 C 0.0 **** 0.0
67 C58346 0.477608897257026 0.140556815345286 0.121534195638988 C 0.0 **** 0.0
68 C58350 0.511368380897872 0.10107629798706 0.133155326568208 C 0.0 **** 0.0
69 C58351 0.499849635845261 0.1072014161083 0.14528771336329 C 0.0 **** 0.0
70 C58352 0.48899474850853 0.120364316322264 0.141381557696596 C 0.0 **** 0.0
71 O58357 0.535600932698325 0.091396691800651 0.106974184914423 O 0.0 **** 0.0
72 C58358 0.551290222901763 0.0913307906737551 0.0975984335753441 C 0.0 **** 0.0
73 C58359 0.5501328298138 0.101796273068341 0.0809742137836481 C 0.0 **** 0.0
74 C58360 0.531932901305862 0.0999785233071463 0.0747359890220336 C 0.0 **** 0.0
75 C58366 0.563469773705347 0.0969955656038092 0.0675138119136587 C 0.0 **** 0.0
76 C58367 0.578655459922928 0.0882446602641989 0.075503970816555 C 0.0 **** 0.0
77 C58368 0.573018050798107 0.0712282158905665 0.0829097610980396 C 0.0 **** 0.0
78 C58369 0.556765082137398 0.0727189127038502 0.0943220318038171 C 0.0 **** 0.0
79 C58375 0.558332198457703 0.0622482000927266 0.110733200001822 C 0.0 **** 0.0
80 C58376 0.566306937781622 0.0448333051030836 0.10716053227788 C 0.0 **** 0.0
81 C58377 0.582429344799293 0.0454658281456726 0.0958042162239853 C 0.0 **** 0.0
82 N58378 0.587162233141909 0.0624373531030128 0.0905850859179653 N 0.0 **** 0.0
83 C58384 0.455524438827496 0.167836966566108 0.115018835137956 C 0.0 **** 0.0
84 C58385 0.455285708167347 0.160111476640634 0.130713661004187 C 0.0 **** 0.0
85 C58386 0.466208303301062 0.146365900756799 0.13382976919994 C 0.0 **** 0.0
86 O58391 0.444993387708142 0.165436375104975 0.143817728691165 O 0.0 **** 0.0
87 C58392 0.431723963074192 0.176225069203775 0.138164713265178 C 0.0 **** 0.0
88 C58393 0.438788079194347 0.189665672150899 0.126806794213963 C 0.0 **** 0.0
89 O58394 0.445959408920375 0.182247286680408 0.111972886037403 O 0.0 **** 0.0
90 C58400 0.451838178174721 0.201096231932876 0.135966037960131 C 0.0 **** 0.0
91 C58401 0.450647027967209 0.200138095510579 0.155433247875689 C 0.0 **** 0.0
92 C58402 0.432156111753256 0.199139112789388 0.161029368265327 C 0.0 **** 0.0
93 C58403 0.422889976311431 0.183480818359708 0.153832923544575 C 0.0 **** 0.0
94 C58409 0.477109143460493 0.125765790495522 0.153709755688057 C 0.0 **** 0.0
95 C58410 0.465823087277367 0.138823481040208 0.149779805304754 C 0.0 **** 0.0
96 C58414 0.498056952063006 0.0988309622811393 0.160839298721283 C 0.0 **** 0.0
97 C58415 0.486896255249397 0.104824013323752 0.173469586095289 C 0.0 **** 0.0
98 C58416 0.476445309375335 0.118049783592455 0.169767163649601 C 0.0 **** 0.0
99 C58421 0.506119163971363 0.0833004995345741 0.163803507032885 C 0.0 **** 0.0
100 C58422 0.517033112166414 0.076723745747952 0.151927843027209 C 0.0 **** 0.0
101 C58423 0.519796850343264 0.0858949392536266 0.13739986731689 C 0.0 **** 0.0
102 O58428 0.486301626598185 0.0977124719879935 0.189377698294441 O 0.0 **** 0.0
103 C58429 0.490732962956336 0.0809776723849335 0.190850828983601 C 0.0 **** 0.0
104 C58430 0.501111101304672 0.0735728762495051 0.179192464838932 C 0.0 **** 0.0
105 C58435 0.525636028480152 0.0596789657604025 0.153937397793954 C 0.0 **** 0.0
106 C58436 0.516698680929838 0.048034856696689 0.167633017707241 C 0.0 **** 0.0
107 C58437 0.505818216696335 0.0570897429187911 0.180794634124206 C 0.0 **** 0.0
108 C58442 0.529654256327959 0.0369160500068293 0.177082841946324 C 0.0 **** 0.0
109 C58443 0.543323929066088 0.0297966699800618 0.165340262398314 C 0.0 **** 0.0
110 C58444 0.553383627187792 0.0441143191091939 0.156435857978893 C 0.0 **** 0.0
111 C58445 0.544576390466989 0.0614932742445584 0.157456445973652 C 0.0 **** 0.0
112 C58451 0.500287509108915 0.0480818420798532 0.194422544331947 C 0.0 **** 0.0
113 C58452 0.48913492050765 0.0551833028546205 0.205649090601236 C 0.0 **** 0.0
114 C58453 0.484614599292202 0.0717285240172522 0.204095953108991 C 0.0 **** 0.0
115 C58458 0.51979974349176 0.0239041925547585 0.18740162347378 C 0.0 **** 0.0
116 C58460 0.505993532171 0.0300402824530368 0.196293306733841 C 0.0 **** 0.0
117 C58463 0.497600391722791 0.257430536518407 -0.0339794121088472 C 0.0 **** 0.0
118 C58465 0.507678482360018 0.261370366303321 -0.0179383779699581 C 0.0 **** 0.0
119 C58467 0.505493740666106 0.266759855668537 -0.0490702101038031 C 0.0 **** 0.0
120 O58469 0.529816944601922 0.10500933562732 0.0575828395692398 O 0.0 **** 0.0
121 C58471 0.473874410482407 0.0788463547035633 0.215653292878341 C 0.0 **** 0.0
122 C58472 0.467210042140527 0.0693384393610596 0.228384193409234 C 0.0 **** 0.0
123 C58473 0.470891800170541 0.0525066333633011 0.229468085516285 C 0.0 **** 0.0
124 C58474 0.482119083378028 0.0456376138330154 0.218224967853913 C 0.0 **** 0.0
125 C58480 0.485964694379143 0.0273479782536123 0.219167117100321 C 0.0 **** 0.0
126 C58481 0.477678932873072 0.0177058355659378 0.230818057076989 C 0.0 **** 0.0
127 C58482 0.465555173876629 0.0257687127434335 0.242527038681847 C 0.0 **** 0.0
128 C58483 0.462881603793344 0.0428844770860289 0.241626131697539 C 0.0 **** 0.0
129 C58489 0.457262064397089 0.0159059477715149 0.254078177697515 C 0.0 **** 0.0
130 C58490 0.459940054867569 -0.00122777665295008 0.254944624932502 C 0.0 **** 0.0
131 C58491 0.471256372184825 -0.00919704801501912 0.244521519184976 C 0.0 **** 0.0
132 C58492 0.480694175276803 0.000696687329786713 0.231766322982969 C 0.0 **** 0.0
133 C58498 0.492812963440227 -0.00707670341031139 0.221366054732834 C 0.0 **** 0.0
134 C58499 0.501667984725757 0.00285034152833484 0.209784876430815 C 0.0 **** 0.0
135 C58500 0.497723127729217 0.0200035475896984 0.208177741594496 C 0.0 **** 0.0
136 C58505 0.49685102632562 -0.0241678867422493 0.223286837361332 C 0.0 **** 0.0
137 C58506 0.485786279921628 -0.0337938777451156 0.235742774697782 C 0.0 **** 0.0
138 C58507 0.473927416930906 -0.0261785662454786 0.2457388009912 C 0.0 **** 0.0
139 C58512 0.523966312957949 0.00708756332158715 0.189381915147639 C 0.0 **** 0.0
140 C58513 0.514925245980141 -0.00408156183121558 0.200264195524153 C 0.0 **** 0.0
141 C58518 0.510616686162453 -0.0309350814359631 0.214544564210428 C 0.0 **** 0.0
142 C58519 0.519308305780252 -0.0212461181216822 0.202630912809777 C 0.0 **** 0.0
143 C58523 0.53416110293073 -0.0285104370532612 0.192679746488711 C 0.0 **** 0.0
144 C58524 0.53237519661299 -0.0475101399186233 0.189790910053079 C 0.0 **** 0.0
145 C58525 0.529524545840014 -0.0562795039632311 0.206466679045565 C 0.0 **** 0.0
146 C58526 0.516665656494157 -0.0485868858270988 0.218139737372333 C 0.0 **** 0.0
147 O58532 0.512609174331196 -0.0569014311697664 0.230379512847843 O 0.0 **** 0.0
148 H58534 0.44231536682936 0.292419445016301 -0.0116987394389473 H 0.0 **** 0.0
149 H58536 0.433333278304708 0.273946482297386 -0.0032277080910933 H 0.0 **** 0.0
150 H58538 0.436560931599057 0.284139755851781 -0.0401447791274445 H 0.0 **** 0.0
151 H58540 0.435840636013829 0.263837489789664 -0.0312145830895425 H 0.0 **** 0.0
152 H58542 0.406996954955018 0.288025663128875 -0.0395499376435528 H 0.0 **** 0.0
153 H58544 0.38675459138628 0.269983532072302 -0.0244061325079652 H 0.0 **** 0.0
154 H58546 0.403851647631465 0.276713857103315 0.00637061112507698 H 0.0 **** 0.0
155 H58548 0.391756451801232 0.291332446532069 -0.00527047898082375 H 0.0 **** 0.0
156 H58550 0.415938014197889 0.252307666302069 -0.00697256646237353 H 0.0 **** 0.0
157 H58552 0.421508811105565 0.238684928285672 -0.032086489668961 H 0.0 **** 0.0
158 H58554 0.386387977717567 0.248360314245833 -0.0438938570331269 H 0.0 **** 0.0
159 H58556 0.401040250430776 0.23701059736264 -0.0562613392462109 H 0.0 **** 0.0
160 H58558 0.399673445791798 0.269652107054472 -0.0607290405269364 H 0.0 **** 0.0
161 H58560 0.419995315705723 0.261034845849295 -0.0580801404058166 H 0.0 **** 0.0
162 H58562 0.400640269123344 0.20302841034274 -0.0116403429150605 H 0.0 **** 0.0
163 H58564 0.380580682134624 0.219369540281934 0.000121907333499013 H 0.0 **** 0.0
164 H58566 0.389031950579936 0.252397984677442 0.00837084954250909 H 0.0 **** 0.0
165 H58568 0.37840540699673 0.245348229621004 -0.00978061530633257 H 0.0 **** 0.0
166 H58570 0.428405123480808 0.229783560012128 -0.00751781842563833 H 0.0 **** 0.0
167 H58572 0.39357429568644 0.195997329116456 0.0516966910600581 H 0.0 **** 0.0
168 H58574 0.407307806952701 0.206402237939199 0.0658759644071112 H 0.0 **** 0.0
169 H58576 0.398989220080938 0.234273089124621 0.0558509851289966 H 0.0 **** 0.0
170 H58578 0.380044892497575 0.222696872191334 0.0584774249403448 H 0.0 **** 0.0
171 H58580 0.375723194647128 0.233575564664899 0.0302355895064573 H 0.0 **** 0.0
172 H58582 0.453996714862749 0.223100634948442 -0.0134025195082872 H 0.0 **** 0.0
173 H58583 0.443189074334909 0.169203453298075 -0.0289342782954532 H 0.0 **** 0.0
174 H58585 0.437862883336578 0.17822545604167 -0.048746568080684 H 0.0 **** 0.0
175 H58587 0.416289618954114 0.189538707532319 -0.0291505652705658 H 0.0 **** 0.0
176 H58589 0.468409329357044 0.16816525829437 -0.0522399765281744 H 0.0 **** 0.0
177 H58591 0.464141693467428 0.18679126982624 -0.0636760151738344 H 0.0 **** 0.0
178 H58593 0.49371162171311 0.186732367493501 -0.0642087201778057 H 0.0 **** 0.0
179 H58595 0.495747876187465 0.177603647582973 -0.0438790122834816 H 0.0 **** 0.0
180 H58597 0.473462491045217 0.236015844183859 -0.0219217071786005 H 0.0 **** 0.0
181 H58599 0.491805777223078 0.226959589083967 -0.0130936018822281 H 0.0 **** 0.0
182 H58601 0.488449251239924 0.238058968850926 -0.0500567185428464 H 0.0 **** 0.0
183 H58603 0.518037244106558 0.226586401653355 -0.0280129655475282 H 0.0 **** 0.0
184 H58605 0.521112125442203 0.235178091184028 -0.0483647609031192 H 0.0 **** 0.0
185 H58607 0.518035197039007 0.202108407972734 -0.0458030099215759 H 0.0 **** 0.0
186 H58609 0.50766145633949 0.212973074825739 -0.0623630902992225 H 0.0 **** 0.0
187 H58611 0.473453908029502 0.181131733305809 -0.00584579240787605 H 0.0 **** 0.0
188 H58613 0.506758296573134 0.144704221290825 0.0385766038156502 H 0.0 **** 0.0
189 H58615 0.522399781579198 0.130981530394794 0.0601261980458969 H 0.0 **** 0.0
190 H58617 0.437064216207007 0.175976640122706 0.0873281634994881 H 0.0 **** 0.0
191 H58619 0.56089804048528 0.0971245898777199 0.105885924763677 H 0.0 **** 0.0
192 H58621 0.55246280074378 0.115223768403084 0.0841157231502054 H 0.0 **** 0.0
193 H58623 0.528548746497449 0.0864093612624843 0.0753704061070463 H 0.0 **** 0.0
194 H58625 0.558018670615152 0.0883454713841218 0.0580432020849935 H 0.0 **** 0.0
195 H58627 0.567179362909905 0.108418576423313 0.0604806984813341 H 0.0 **** 0.0
196 H58629 0.584107224578523 0.0962986656977282 0.0854719581774105 H 0.0 **** 0.0
197 H58631 0.588772940732527 0.0860610741062902 0.0661555344821574 H 0.0 **** 0.0
198 H58633 0.569459809716543 0.063414975653306 0.0718924890891888 H 0.0 **** 0.0
199 H58635 0.546229093509987 0.0670588944732322 0.0871215511284115 H 0.0 **** 0.0
200 H58637 0.566334297149666 0.0691729930017432 0.119801745515274 H 0.0 **** 0.0
201 H58639 0.545885871593934 0.0606503173097207 0.116761578735907 H 0.0 **** 0.0
202 H58641 0.556696728078575 0.0369130565766519 0.1009111333762 H 0.0 **** 0.0
203 H58643 0.569119942102254 0.0382685921969395 0.119106323953447 H 0.0 **** 0.0
204 H58645 0.580189354709162 0.0380515294897724 0.0842166523526629 H 0.0 **** 0.0
205 H58647 0.593234953550307 0.039263326597679 0.102011261018112 H 0.0 **** 0.0
206 H58649 0.591590304119751 0.0691901240856077 0.100411413538196 H 0.0 **** 0.0
207 H58651 0.422871884133943 0.168466613724471 0.130741806253329 H 0.0 **** 0.0
208 H58653 0.428103758601134 0.197579677588704 0.122617276277174 H 0.0 **** 0.0
209 H58655 0.464566181045273 0.197419675936106 0.13175476366092 H 0.0 **** 0.0
210 H58657 0.450249585055277 0.21436187948447 0.131979799779245 H 0.0 **** 0.0
211 H58659 0.456872128280106 0.211196686622335 0.16117351372315 H 0.0 **** 0.0
212 H58661 0.45741913255004 0.188931926052435 0.16019468905492 H 0.0 **** 0.0
213 H58663 0.425872625763041 0.210496036109622 0.156148755840596 H 0.0 **** 0.0
214 H58665 0.43106599431893 0.199602849405767 0.174904303076256 H 0.0 **** 0.0
215 H58667 0.409651057147898 0.186829633601885 0.151153799391214 H 0.0 **** 0.0
216 H58669 0.422545560422832 0.173338041258495 0.163368951751112 H 0.0 **** 0.0
217 H58671 0.456761042253011 0.143126214164801 0.159388408632901 H 0.0 **** 0.0
218 H58673 0.467302205265831 0.122585121001522 0.1792046130905 H 0.0 **** 0.0
219 H58675 0.528495146678287 0.0796461632806153 0.12872648411141 H 0.0 **** 0.0
220 H58677 0.524647497010123 0.0528030761715898 0.141876453603207 H 0.0 **** 0.0
221 H58679 0.508137681195763 0.0396288422007062 0.160480378614556 H 0.0 **** 0.0
222 H58681 0.536292671080791 0.0451017248490928 0.186241793632891 H 0.0 **** 0.0
223 H58683 0.537268026924211 0.021685313593854 0.155770439800231 H 0.0 **** 0.0
224 H58685 0.552150326495457 0.0218225232892154 0.172540635085905 H 0.0 **** 0.0
225 H58687 0.555024977161063 0.0407785461685529 0.143023550767585 H 0.0 **** 0.0
226 H58689 0.566243975903098 0.0449889307250927 0.161677541944427 H 0.0 **** 0.0
227 H58691 0.550611379137483 0.0703461758356055 0.148532099241455 H 0.0 **** 0.0
228 H58693 0.546130272405342 0.0670013499041807 0.170092639955056 H 0.0 **** 0.0
229 H58695 0.484760266945758 0.262688921520603 -0.0322041403628562 H 0.0 **** 0.0
230 H58697 0.508237882963332 0.275114844639419 -0.0157631491063729 H 0.0 **** 0.0
231 H58699 0.520751228423942 0.256762393491554 -0.0190434140965367 H 0.0 **** 0.0
232 H58701 0.501973086658022 0.255629033607906 -0.00662315867107946 H 0.0 **** 0.0
233 H58703 0.498072621073756 0.264867806489616 -0.0606944137506099 H 0.0 **** 0.0
234 H58705 0.518443735177166 0.262313862546493 -0.0515234922695455 H 0.0 **** 0.0
235 H58707 0.506220918531971 0.280453475225123 -0.0467285788104456 H 0.0 **** 0.0
236 H58709 0.518076517438771 0.103758503893454 0.0553056147251314 H 0.0 **** 0.0
237 H58711 0.47019368511371 0.092107761780706 0.214752378919574 H 0.0 **** 0.0
238 H58713 0.458486213100912 0.0753217577373654 0.237225895253945 H 0.0 **** 0.0
239 H58715 0.454040458849543 0.0488628366603258 0.250365048305967 H 0.0 **** 0.0
240 H58717 0.448346558030857 0.0215156301258135 0.262960081357534 H 0.0 **** 0.0
241 H58719 0.452907972962043 -0.00842593184927008 0.26438638313122 H 0.0 **** 0.0
242 H58721 0.48709572346322 -0.0474235586736801 0.236831914273755 H 0.0 **** 0.0
243 H58723 0.466764891715062 -0.0339403757875396 0.254606909137786 H 0.0 **** 0.0
244 H58725 0.534786293631091 0.00244533874572869 0.182128869835655 H 0.0 **** 0.0
245 H58727 0.535064761858743 -0.0225317650008551 0.180175904195296 H 0.0 **** 0.0
246 H58729 0.546107886740034 -0.025825149315587 0.199389011791755 H 0.0 **** 0.0
247 H58731 0.543635016874508 -0.0527735114021695 0.183511566498738 H 0.0 **** 0.0
248 H58733 0.521603030297409 -0.0497581333250727 0.18129905773579 H 0.0 **** 0.0
249 H58735 0.541083201895701 -0.0565062563974006 0.214239502942963 H 0.0 **** 0.0
250 H58737 0.525178036970767 -0.0694517777237601 0.205588599678111 H 0.0 **** 0.0
@<TRIPOS>BOND
1 3 2 1
2 4 3 1
3 5 4 1
4 6 5 1
5 1 2 1
6 1 6 1
7 8 7 1
8 9 8 1
9 10 9 1
10 4 7 1
11 3 10 1
12 12 11 1
13 13 12 1
14 14 13 1
15 8 11 1
16 7 14 1
17 16 15 1
18 17 16 Partial double
19 18 17 1
20 13 15 1
21 12 18 1
22 20 19 Partial double
23 21 20 Partial double
24 22 21 Partial double
25 17 19 Partial double
26 16 22 Partial double
27 24 23 1
28 25 24 1
29 15 25 Double
30 22 23 1
31 27 26 1
32 28 27 Partial double
33 29 28 Partial double
34 21 26 1
35 20 29 Partial double
36 31 30 1
37 32 31 1
38 18 30 1
39 19 32 1
40 34 33 Double
41 35 34 1
42 36 35 1
43 31 33 1
44 30 36 Double
45 38 37 1
46 39 38 1
47 40 39 Double
48 34 37 1
49 33 40 1
50 42 41 1
51 43 42 1
52 44 43 1
53 40 41 1
54 39 44 1
55 46 45 Partial double
56 32 46 1
57 29 45 Partial double
58 48 47 Partial double
59 49 48 1
60 45 49 Partial double
61 28 47 Partial double
62 51 50 Partial double
63 52 51 Partial double
64 53 52 Partial double
65 48 50 Partial double
66 47 53 Partial double
67 55 54 Partial double
68 56 55 Partial double
69 57 56 Partial double
70 52 54 Partial double
71 51 57 Partial double
72 59 58 Partial double
73 60 59 Partial double
74 61 60 Partial double
75 56 58 Partial double
76 55 61 Partial double
77 63 62 Partial double
78 27 63 Partial double
79 53 62 Partial double
80 65 64 Partial double
81 62 65 Partial double
82 54 64 Partial double
83 67 66 Partial double
84 64 67 Partial double
85 61 66 Partial double
86 69 68 Partial double
87 70 69 Partial double
88 66 70 Partial double
89 60 68 Partial double
90 72 71 1
91 73 72 1
92 74 73 1
93 59 71 1
94 58 74 1
95 76 75 1
96 77 76 1
97 78 77 1
98 73 75 1
99 72 78 1
100 80 79 1
101 81 80 1
102 82 81 1
103 78 79 1
104 77 82 1
105 84 83 Partial double
106 85 84 Partial double
107 67 85 Partial double
108 65 83 Partial double
109 87 86 1
110 88 87 1
111 89 88 1
112 84 86 1
113 83 89 1
114 91 90 1
115 92 91 1
116 93 92 1
117 88 90 1
118 87 93 1
119 95 94 Partial double
120 85 95 Partial double
121 70 94 Partial double
122 97 96 Partial double
123 98 97 Partial double
124 94 98 Partial double
125 69 96 Partial double
126 100 99 Partial double
127 101 100 Partial double
128 68 101 Partial double
129 96 99 Partial double
130 103 102 1
131 104 103 Partial double
132 97 102 1
133 99 104 1
134 106 105 1
135 107 106 1
136 100 105 1
137 104 107 Partial double
138 109 108 1
139 110 109 1
140 111 110 1
141 106 108 1
142 105 111 1
143 113 112 1
144 114 113 1
145 103 114 Partial double
146 107 112 Partial double
147 108 115 1
148 112 116 Partial double
149 115 116 Partial double
150 42 117 1
151 117 118 1
152 117 119 1
153 74 120 1
154 122 121 1
155 123 122 Partial double
156 124 123 1
157 114 121 Partial double
158 113 124 Partial double
159 126 125 Partial double
160 127 126 1
161 128 127 Partial double
162 124 125 Partial double
163 123 128 Partial double
164 130 129 Partial double
165 131 130 1
166 132 131 1
167 127 129 Partial double
168 126 132 Partial double
169 134 133 Partial double
170 135 134 Partial double
171 125 135 Partial double
172 132 133 Partial double
173 137 136 Partial double
174 138 137 Partial double
175 131 138 Partial double
176 133 136 Partial double
177 140 139 Partial double
178 134 140 Partial double
179 116 135 Partial double
180 115 139 Partial double
181 142 141 Partial double
182 140 142 Partial double
183 136 141 Partial double
184 144 143 1
185 145 144 1
186 146 145 1
187 142 143 1
188 141 146 1
189 146 147 Double
190 1 148 1
191 1 149 1
192 2 150 1
193 2 151 1
194 3 152 1
195 4 153 1
196 5 154 1
197 5 155 1
198 7 156 1
199 8 157 1
200 9 158 1
201 9 159 1
202 10 160 1
203 10 161 1
204 12 162 1
205 13 163 1
206 14 164 1
207 14 165 1
208 18 166 1
209 23 167 1
210 23 168 1
211 24 169 1
212 24 170 1
213 25 171 1
214 35 173 1
215 35 174 1
216 36 175 1
217 37 176 1
218 37 177 1
219 38 178 1
220 38 179 1
221 41 180 1
222 41 181 1
223 42 182 1
224 43 183 1
225 43 184 1
226 44 185 1
227 44 186 1
228 46 187 1
229 50 188 1
230 57 189 1
231 63 190 1
232 72 191 1
233 73 192 1
234 74 193 1
235 75 194 1
236 75 195 1
237 76 196 1
238 76 197 1
239 77 198 1
240 78 199 1
241 79 200 1
242 79 201 1
243 80 202 1
244 80 203 1
245 81 204 1
246 81 205 1
247 82 206 1
248 87 207 1
249 88 208 1
250 90 209 1
251 90 210 1
252 91 211 1
253 91 212 1
254 92 213 1
255 92 214 1
256 93 215 1
257 93 216 1
258 95 217 1
259 98 218 1
260 101 219 1
261 105 220 1
262 106 221 1
263 108 222 1
264 109 223 1
265 109 224 1
266 110 225 1
267 110 226 1
268 111 227 1
269 111 228 1
270 117 229 1
271 118 230 1
272 118 231 1
273 118 232 1
274 119 233 1
275 119 234 1
276 119 235 1
277 120 236 1
278 121 237 1
279 122 238 1
280 128 239 1
281 129 240 1
282 130 241 1
283 137 242 1
284 138 243 1
285 139 244 1
286 143 245 1
287 143 246 1
288 144 247 1
289 144 248 1
290 145 249 1
291 145 250 1
292 31 172 1
@<TRIPOS>MOLECULE
Sketch 4
250 292
SMALL
USER_CHARGES


@<TRIPOS>ATOM
1 C58740 0.310291010740204 0.497872593134533 0.714645931733249 C 0.0 **** 0.0
2 C58741 0.313919215346131 0.509247110387874 0.730209647672151 C 0.0 **** 0.0
3 C58742 0.332881522102565 0.514067147995689 0.731149657068983 C 0.0 **** 0.0
4 C58743 0.343789404159025 0.498562371240657 0.726304223159337 C 0.0 **** 0.0
5 C58744 0.338555115528605 0.492316757191017 0.708339897515318 C 0.0 **** 0.0
6 O58745 0.323205178115529 0.499596872309982 0.702335229599427 O 0.0 **** 0.0
7 C58752 0.342471188297313 0.484345479808705 0.739848882424614 C 0.0 **** 0.0
8 C58753 0.341394891985816 0.491615988670273 0.758303674250753 C 0.0 **** 0.0
9 C58754 0.348362507315086 0.509590405636158 0.759161092734254 C 0.0 **** 0.0
10 C58755 0.337972961293208 0.521866411943288 0.74835559218868 C 0.0 **** 0.0
11 O58761 0.350068763331694 0.482038234111376 0.770911271074495 O 0.0 **** 0.0
12 C58762 0.348112046291008 0.464205636547674 0.768854059360292 C 0.0 **** 0.0
13 C58763 0.358740357784706 0.458833222190089 0.753406955226435 C 0.0 **** 0.0
14 C58764 0.35676536772351 0.471203892744844 0.738007283296957 C 0.0 **** 0.0
15 C58770 0.356380122667033 0.440363972198723 0.749000765866961 C 0.0 **** 0.0
16 C58771 0.339599755188713 0.432101820915865 0.752508939588201 C 0.0 **** 0.0
17 C58772 0.327717996776434 0.439955168369993 0.762714856158371 C 0.0 **** 0.0
18 C58773 0.32963804530611 0.458488630475308 0.767866932752943 C 0.0 **** 0.0
19 C58779 0.313238023242213 0.431078482002025 0.767253329925862 C 0.0 **** 0.0
20 C58780 0.309957053067677 0.41546633211999 0.759970004077258 C 0.0 **** 0.0
21 C58781 0.321414872719532 0.40815950253917 0.748868970608333 C 0.0 **** 0.0
22 C58782 0.336611221458517 0.416256105666174 0.745600397614636 C 0.0 **** 0.0
23 C58788 0.349503714977261 0.408186714243911 0.733974619063611 C 0.0 **** 0.0
24 C58789 0.367390672386454 0.412062493070417 0.740677750921472 C 0.0 **** 0.0
25 C58790 0.369477400025792 0.430819728966509 0.743724525974534 C 0.0 **** 0.0
26 O58795 0.318268446962503 0.392843568344397 0.740978229892415 O 0.0 **** 0.0
27 C58796 0.303684194730511 0.384039627818462 0.744661108823492 C 0.0 **** 0.0
28 C58797 0.291200624388709 0.389996494220967 0.755468307635985 C 0.0 **** 0.0
29 C58798 0.293519524676868 0.406932288806308 0.763709838620993 C 0.0 **** 0.0
30 C58804 0.318841331363076 0.4622539785524 0.783062505512601 C 0.0 **** 0.0
31 C58805 0.300705542800778 0.457760900608199 0.779043413474477 C 0.0 **** 0.0
32 C58806 0.30109590984029 0.438338403154025 0.780131800463376 C 0.0 **** 0.0
33 C58811 0.287592158434967 0.466071793840677 0.790877207960536 C 0.0 **** 0.0
34 C58812 0.292695618410651 0.469764261834506 0.806945761768209 C 0.0 **** 0.0
35 C58813 0.310958826177783 0.468596877702785 0.812828592750022 C 0.0 **** 0.0
36 C58814 0.32365891347033 0.467035230895461 0.798589739764027 C 0.0 **** 0.0
37 C58820 0.281424415759698 0.477853143416721 0.819885289724588 C 0.0 **** 0.0
38 C58821 0.262540672763348 0.476964663547797 0.815292785195654 C 0.0 **** 0.0
39 C58822 0.25958331130154 0.475587760336576 0.796536792031852 C 0.0 **** 0.0
40 C58823 0.271705026446509 0.470270700522914 0.785446184594583 C 0.0 **** 0.0
41 C58829 0.266624674006258 0.46946045536026 0.766671981764276 C 0.0 **** 0.0
42 C58830 0.252663277651308 0.482117131718829 0.76250921516488 C 0.0 **** 0.0
43 C58831 0.237242805962415 0.477199037181629 0.773291146555421 C 0.0 **** 0.0
44 C58832 0.241522496359174 0.479897064746793 0.791971680082627 C 0.0 **** 0.0
45 C58838 0.281596073713064 0.414281612148021 0.773675054724475 C 0.0 **** 0.0
46 C58839 0.284182089222831 0.429424559455878 0.781389482703019 C 0.0 **** 0.0
47 C58843 0.277287694354493 0.379417209208277 0.759446089906536 C 0.0 **** 0.0
48 C58844 0.264716756099404 0.384041081777935 0.771250756994696 C 0.0 **** 0.0
49 S58845 0.261916185249533 0.405018357770239 0.776692215274731 S 0.0 **** 0.0
50 C58850 0.254463051718049 0.372306748191816 0.778835790642673 C 0.0 **** 0.0
51 C58851 0.255704344377246 0.355168833979953 0.774010552635228 C 0.0 **** 0.0
52 C58852 0.266411057227859 0.350641134030081 0.760387874608978 C 0.0 **** 0.0
53 C58853 0.276767067036104 0.362861117036331 0.752963208307003 C 0.0 **** 0.0
54 C58859 0.267318454713289 0.333761871368606 0.75536967035087 C 0.0 **** 0.0
55 C58860 0.259039216328109 0.321144246870366 0.764642576436168 C 0.0 **** 0.0
56 C58861 0.251046755002198 0.325229201330995 0.780111834886521 C 0.0 **** 0.0
57 C58862 0.247577479462442 0.342351507653878 0.783237207790202 C 0.0 **** 0.0
58 C58868 0.247714102900809 0.312307923951736 0.79181823701431 C 0.0 **** 0.0
59 C58869 0.247142461030129 0.295799356581003 0.786032502837466 C 0.0 **** 0.0
60 C58870 0.252582758899788 0.291655850294313 0.769440977228999 C 0.0 **** 0.0
61 C58871 0.260002430528459 0.304348329074939 0.759569366849603 C 0.0 **** 0.0
62 C58877 0.287891637502511 0.35799909565331 0.740066423332947 C 0.0 **** 0.0
63 C58878 0.301773829897557 0.368659311019383 0.736782535053042 C 0.0 **** 0.0
64 C58882 0.277190461077116 0.329343864654424 0.741456889061317 C 0.0 **** 0.0
65 C58883 0.28607435442338 0.341814674862012 0.732603956236988 C 0.0 **** 0.0
66 C58887 0.269777874707956 0.300054655586937 0.745465875776855 C 0.0 **** 0.0
67 C58888 0.278201115230247 0.312640451625376 0.736392600443136 C 0.0 **** 0.0
68 C58892 0.252712445353949 0.274732272114597 0.763329067683282 C 0.0 **** 0.0
69 C58893 0.262931018570526 0.270639676990937 0.749305164094431 C 0.0 **** 0.0
70 C58894 0.271520713401639 0.283188551178197 0.740674355454236 C 0.0 **** 0.0
71 O58899 0.242106752105172 0.283248659185759 0.79729024004655 O 0.0 **** 0.0
72 C58900 0.227286637748851 0.287002320989164 0.80718893107096 C 0.0 **** 0.0
73 C58901 0.22655138037524 0.305797197007381 0.813276351134516 C 0.0 **** 0.0
74 C58902 0.243695769322382 0.314184200611799 0.810519778881302 C 0.0 **** 0.0
75 C58908 0.22040995008949 0.307569582534289 0.831713886085472 C 0.0 **** 0.0
76 C58909 0.205738415772587 0.295508288347717 0.835024400571879 C 0.0 **** 0.0
77 C58910 0.212061496125351 0.277131925720704 0.83489078910859 C 0.0 **** 0.0
78 C58911 0.22678695242846 0.274243274664776 0.822045890497496 C 0.0 **** 0.0
79 C58917 0.22780044488018 0.255630245976878 0.816096866889982 C 0.0 **** 0.0
80 C58918 0.221814883704348 0.244025945205887 0.830413798413246 C 0.0 **** 0.0
81 C58919 0.203169912860464 0.247533260943521 0.835335739989876 C 0.0 **** 0.0
82 N58920 0.198126375351339 0.265334841029099 0.833208053093272 N 0.0 **** 0.0
83 C58926 0.293317623486875 0.338145487112619 0.716680417417431 C 0.0 **** 0.0
84 C58927 0.294850698006845 0.321421370410017 0.711642542113033 C 0.0 **** 0.0
85 C58928 0.287713076023164 0.308584399713433 0.72191555016507 C 0.0 **** 0.0
86 O58933 0.302965380940208 0.316774621803947 0.696784944736577 O 0.0 **** 0.0
87 C58934 0.312571717919695 0.330254468446358 0.68949602440118 C 0.0 **** 0.0
88 C58935 0.302584098907093 0.346354677751281 0.689676186650378 C 0.0 **** 0.0
89 O58936 0.299142878861027 0.351347811467383 0.706675387393563 O 0.0 **** 0.0
90 C58942 0.286232744185524 0.345114454380876 0.678944411313153 C 0.0 **** 0.0
91 C58943 0.28780365719449 0.332512907566445 0.664087129803609 C 0.0 **** 0.0
92 C58944 0.306056568807477 0.331571535030906 0.657607642013145 C 0.0 **** 0.0
93 C58945 0.318263593686833 0.32523877146966 0.671548788537002 C 0.0 **** 0.0
94 C58951 0.281596711388377 0.278713153133261 0.726519958720855 C 0.0 **** 0.0
95 C58952 0.289617164780878 0.291600719874157 0.717252538292749 C 0.0 **** 0.0
96 C58956 0.264159525459068 0.253780367962928 0.743962408455027 C 0.0 **** 0.0
97 C58957 0.274005219012203 0.249187591984411 0.729741163038024 C 0.0 **** 0.0
98 C58958 0.282729728092662 0.261601638986872 0.721369594130955 C 0.0 **** 0.0
99 C58963 0.255539652527918 0.240948614246639 0.752632294821434 C 0.0 **** 0.0
100 C58964 0.244645780387967 0.24484725560459 0.765710281854892 C 0.0 **** 0.0
101 C58965 0.243193825316934 0.261485947087281 0.770512816212581 C 0.0 **** 0.0
102 O58970 0.274556509908327 0.232718517762805 0.723758644261384 O 0.0 **** 0.0
103 C58971 0.269610130949448 0.219789899787272 0.734450329497821 C 0.0 **** 0.0
104 C58972 0.259407702719569 0.223096341826624 0.74800409273837 C 0.0 **** 0.0
105 C58977 0.234468188524003 0.231666803180865 0.775121644769616 C 0.0 **** 0.0
106 C58978 0.242518282614525 0.213499967980381 0.773536745060388 C 0.0 **** 0.0
107 C58979 0.253874994239963 0.210442067420435 0.758261611517696 C 0.0 **** 0.0
108 C58984 0.228802005662337 0.199616283469118 0.773543074106423 C 0.0 **** 0.0
109 C58985 0.214436179875486 0.203735924761595 0.785806065453161 C 0.0 **** 0.0
110 C58986 0.204907709698749 0.219808959921974 0.78001119890688 C 0.0 **** 0.0
111 C58987 0.215987707965595 0.231790235420397 0.769317399019627 C 0.0 **** 0.0
112 C58993 0.258879015782109 0.194274063789793 0.755179133999865 C 0.0 **** 0.0
113 C58994 0.270104734732981 0.19094046439302 0.742435060141944 C 0.0 **** 0.0
114 C58995 0.27502588184564 0.203529696752239 0.731696195516848 C 0.0 **** 0.0
115 C59000 0.237959524633472 0.182883198944058 0.77631524894803 C 0.0 **** 0.0
116 C59002 0.252372402131526 0.180511254767371 0.766588381355575 C 0.0 **** 0.0
117 C59005 0.249709745067856 0.484043848593152 0.743244814889935 C 0.0 **** 0.0
118 C59007 0.246449489873032 0.467277532980258 0.734159777374053 C 0.0 **** 0.0
119 C59009 0.235533251487425 0.496612227060305 0.739107566130065 C 0.0 **** 0.0
120 O59011 0.2434746700604 0.331062538407701 0.816763169450012 O 0.0 **** 0.0
121 C59013 0.285425337403109 0.199637062974766 0.718419170753938 C 0.0 **** 0.0
122 C59014 0.291707373590753 0.18367554023983 0.716555814761854 C 0.0 **** 0.0
123 C59015 0.287639353833581 0.171297883861254 0.727887102564547 C 0.0 **** 0.0
124 C59016 0.276536394994569 0.174995529195904 0.74061117165893 C 0.0 **** 0.0
125 C59022 0.271966705084707 0.161616108447895 0.752937388422305 C 0.0 **** 0.0
126 C59023 0.279050524600048 0.145969951596472 0.751314631925144 C 0.0 **** 0.0
127 C59024 0.291186597329069 0.142783413235003 0.737467905282016 C 0.0 **** 0.0
128 C59025 0.294873209034271 0.155490810593346 0.726237304887232 C 0.0 **** 0.0
129 C59031 0.298503065660564 0.127147254685379 0.73617773321708 C 0.0 **** 0.0
130 C59032 0.294565380359284 0.114406160205529 0.747311984676964 C 0.0 **** 0.0
131 C59033 0.28302652906975 0.116643277269668 0.760048934212622 C 0.0 **** 0.0
132 C59034 0.274912136686072 0.13331951443497 0.762381965902607 C 0.0 **** 0.0
133 C59040 0.262889317211877 0.135852436678205 0.775218449682804 C 0.0 **** 0.0
134 C59041 0.255383465307573 0.151757857563121 0.776695793168441 C 0.0 **** 0.0
135 C59042 0.260266982723916 0.164802308551289 0.765819419546507 C 0.0 **** 0.0
136 C59047 0.2576446640783 0.122556756166645 0.785663016274851 C 0.0 **** 0.0
137 C59048 0.266986302913102 0.105931335357466 0.782929454994832 C 0.0 **** 0.0
138 C59049 0.278843260787459 0.103638225151701 0.770565376512195 C 0.0 **** 0.0
139 C59054 0.232914342764675 0.169882663742866 0.786777745188566 C 0.0 **** 0.0
140 C59055 0.241958144167363 0.154321596950954 0.787990355340887 C 0.0 **** 0.0
141 C59060 0.244670218906477 0.125210760310997 0.797362927888933 C 0.0 **** 0.0
142 C59061 0.237303870040479 0.14115768491489 0.79908953540155 C 0.0 **** 0.0
143 C59065 0.223559577584444 0.144591671833765 0.812179884369293 C 0.0 **** 0.0
144 C59066 0.226192697124148 0.133853119044296 0.828022463948918 C 0.0 **** 0.0
145 C59067 0.226508397483822 0.115564743598252 0.822624837487168 C 0.0 **** 0.0
146 C59068 0.238157530638344 0.111098924129578 0.808282694948137 C 0.0 **** 0.0
147 O59074 0.241100917063747 0.0962193534772991 0.806154194607006 O 0.0 **** 0.0
148 H59076 0.29841948685387 0.501514588117868 0.708405713007876 H 0.0 **** 0.0
149 H59078 0.308834454761317 0.484527316543782 0.718453312715019 H 0.0 **** 0.0
150 H59080 0.30634668853326 0.520917710496757 0.729722444514876 H 0.0 **** 0.0
151 H59082 0.309987374075056 0.502765381445123 0.74189694143826 H 0.0 **** 0.0
152 H59084 0.335008937635048 0.523700686150767 0.721265641718957 H 0.0 **** 0.0
153 H59086 0.357119243006769 0.502747438058021 0.725978326956967 H 0.0 **** 0.0
154 H59088 0.337766594633084 0.478396105163585 0.707798777771131 H 0.0 **** 0.0
155 H59090 0.348118993338575 0.496089130840663 0.699023483634903 H 0.0 **** 0.0
156 H59092 0.33058752626054 0.477593778787396 0.737104000685757 H 0.0 **** 0.0
157 H59094 0.327922924473597 0.492400737875118 0.761940758277526 H 0.0 **** 0.0
158 H59096 0.361673628434684 0.509428586941572 0.755024758099304 H 0.0 **** 0.0
159 H59098 0.348379554088247 0.513706691217768 0.772443622379424 H 0.0 **** 0.0
160 H59100 0.345108472735011 0.53366574336906 0.74643581159018 H 0.0 **** 0.0
161 H59102 0.326532470734541 0.525388663816956 0.755475921879999 H 0.0 **** 0.0
162 H59104 0.353923462874128 0.458678759718245 0.7802126129409 H 0.0 **** 0.0
163 H59106 0.372036279706757 0.460107428126072 0.757435518951628 H 0.0 **** 0.0
164 H59108 0.355431988613821 0.464315313183382 0.725973660940991 H 0.0 **** 0.0
165 H59110 0.368776710895411 0.478213366416406 0.737039022085903 H 0.0 **** 0.0
166 H59112 0.323588171476198 0.465651153036962 0.757553666810585 H 0.0 **** 0.0
167 H59114 0.347665981507962 0.394427040589637 0.733152358070492 H 0.0 **** 0.0
168 H59116 0.348051298417288 0.413178644175592 0.721021089590209 H 0.0 **** 0.0
169 H59118 0.377028742194546 0.407507634873895 0.731773126252432 H 0.0 **** 0.0
170 H59120 0.369430711318884 0.405012889494895 0.752490296224921 H 0.0 **** 0.0
171 H59122 0.382099181858771 0.436064389529453 0.742035560887956 H 0.0 **** 0.0
172 H59124 0.298185040110055 0.461460387420123 0.765883601493439 H 0.0 **** 0.0
173 H59125 0.312357109684452 0.457815955912472 0.821491151562566 H 0.0 **** 0.0
174 H59127 0.314003276358515 0.480124362076465 0.820153425234885 H 0.0 **** 0.0
175 H59129 0.336891510614314 0.46940771397188 0.801626984676342 H 0.0 **** 0.0
176 H59131 0.283529209965519 0.471966377069207 0.832366682051219 H 0.0 **** 0.0
177 H59133 0.285288777676014 0.491189569321595 0.821119130081166 H 0.0 **** 0.0
178 H59135 0.256067821946776 0.488256816017309 0.820363825210797 H 0.0 **** 0.0
179 H59137 0.256652605432264 0.465923675637517 0.821427893834717 H 0.0 **** 0.0
180 H59139 0.277504556456528 0.472257667780632 0.758493549583391 H 0.0 **** 0.0
181 H59141 0.262481823793015 0.45652135321138 0.763578658848033 H 0.0 **** 0.0
182 H59143 0.256789368775189 0.494758059479733 0.766877954675546 H 0.0 **** 0.0
183 H59145 0.233998288070273 0.463852859662364 0.770907060404242 H 0.0 **** 0.0
184 H59147 0.225896822603166 0.484625468619747 0.77014402753816 H 0.0 **** 0.0
185 H59149 0.232856024415614 0.472623080073874 0.800141419510022 H 0.0 **** 0.0
186 H59151 0.239562640300438 0.493368540284878 0.795074768951357 H 0.0 **** 0.0
187 H59153 0.274349505278107 0.435210197835325 0.789101913193407 H 0.0 **** 0.0
188 H59155 0.245577259381772 0.375907477985241 0.788859314393717 H 0.0 **** 0.0
189 H59157 0.239662365825174 0.346364230869766 0.793876992650026 H 0.0 **** 0.0
190 H59159 0.311976970994663 0.364696441000141 0.728237778836649 H 0.0 **** 0.0
191 H59161 0.216227592467683 0.284597738894023 0.799068789279814 H 0.0 **** 0.0
192 H59163 0.217327919020761 0.312761852195153 0.805411747938086 H 0.0 **** 0.0
193 H59165 0.253197245666407 0.307068050671954 0.817937726773299 H 0.0 **** 0.0
194 H59167 0.230789485906681 0.304674360648421 0.840566352096345 H 0.0 **** 0.0
195 H59169 0.216746655029864 0.320799294626697 0.834153539999631 H 0.0 **** 0.0
196 H59171 0.196091106823838 0.297354502481848 0.825128804547923 H 0.0 **** 0.0
197 H59173 0.199538573269447 0.298260798848284 0.847194648304999 H 0.0 **** 0.0
198 H59175 0.217453564847529 0.274814194063916 0.847575199869271 H 0.0 **** 0.0
199 H59177 0.238468546863565 0.276860008235458 0.82917780230093 H 0.0 **** 0.0
200 H59179 0.21948720860834 0.25375105818837 0.805063274253343 H 0.0 **** 0.0
201 H59181 0.24075815555049 0.252518315938944 0.812041865152824 H 0.0 **** 0.0
202 H59183 0.230038575678243 0.246303719916168 0.841461744993533 H 0.0 **** 0.0
203 H59185 0.223293864673622 0.230546576400311 0.827260748878057 H 0.0 **** 0.0
204 H59187 0.200933681682331 0.243881314937297 0.848597720578754 H 0.0 **** 0.0
205 H59189 0.194694324537984 0.239610937710422 0.827666290408563 H 0.0 **** 0.0
206 H59191 0.192053403762849 0.267109393164631 0.822245168472213 H 0.0 **** 0.0
207 H59193 0.323663567925622 0.332221257983798 0.697625957056454 H 0.0 **** 0.0
208 H59195 0.310697353921506 0.356262262601924 0.684134600334821 H 0.0 **** 0.0
209 H59197 0.275727114049628 0.341246658445644 0.687204686969193 H 0.0 **** 0.0
210 H59199 0.2828301886119 0.357744541016153 0.674132577817163 H 0.0 **** 0.0
211 H59201 0.278998407050341 0.335973672777146 0.65385549405359 H 0.0 **** 0.0
212 H59203 0.283974776441988 0.319796308679368 0.668364588129856 H 0.0 **** 0.0
213 H59205 0.309956285191872 0.344321087746308 0.653491534136703 H 0.0 **** 0.0
214 H59207 0.306982011201948 0.323407390833857 0.646347714567533 H 0.0 **** 0.0
215 H59209 0.331088827035053 0.329837185959514 0.668698294583746 H 0.0 **** 0.0
216 H59211 0.318940013526726 0.311336639693913 0.671198968109478 H 0.0 **** 0.0
217 H59213 0.29698153418817 0.288258610616931 0.705952645734582 H 0.0 **** 0.0
218 H59215 0.290290727399382 0.258372322634428 0.710154830110249 H 0.0 **** 0.0
219 H59217 0.233969992249613 0.263972179790981 0.780514387107217 H 0.0 **** 0.0
220 H59219 0.234604251156944 0.234743473249614 0.788710808889109 H 0.0 **** 0.0
221 H59221 0.250496399245237 0.211867533603263 0.784886057950775 H 0.0 **** 0.0
222 H59223 0.223008611520367 0.199071931028763 0.760798189287616 H 0.0 **** 0.0
223 H59225 0.219846828758993 0.205759672489631 0.798472159467163 H 0.0 **** 0.0
224 H59227 0.205506206215965 0.193113785355292 0.786574608656813 H 0.0 **** 0.0
225 H59229 0.1999912678896 0.226647310024248 0.791099429255235 H 0.0 **** 0.0
226 H59231 0.193874612008326 0.216189225556027 0.772348416153583 H 0.0 **** 0.0
227 H59233 0.210647654935532 0.244625168534614 0.769841578198096 H 0.0 **** 0.0
228 H59235 0.21548437825995 0.227874286981531 0.755936735907356 H 0.0 **** 0.0
229 H59237 0.261522775519617 0.489362927353522 0.737963761353497 H 0.0 **** 0.0
230 H59239 0.243662030764251 0.469350797673871 0.720676780708427 H 0.0 **** 0.0
231 H59241 0.235600161278136 0.46082193279877 0.739874778054946 H 0.0 **** 0.0
232 H59243 0.257348198581131 0.458661500003022 0.734871488594181 H 0.0 **** 0.0
233 H59245 0.237561034438226 0.508873772270018 0.745368358634482 H 0.0 **** 0.0
234 H59247 0.223158759425439 0.491728424309055 0.743174395636427 H 0.0 **** 0.0
235 H59249 0.234814400281892 0.498926970261267 0.725395729392337 H 0.0 **** 0.0
236 H59251 0.254372633028395 0.335647700356 0.814561472752494 H 0.0 **** 0.0
237 H59253 0.289062975181126 0.209179779199705 0.70916585889241 H 0.0 **** 0.0
238 H59255 0.30019835895912 0.181124336985362 0.705994583298322 H 0.0 **** 0.0
239 H59257 0.303791845734858 0.153078469685894 0.716003518054312 H 0.0 **** 0.0
240 H59259 0.307608327975111 0.124472272177315 0.726162492281501 H 0.0 **** 0.0
241 H59261 0.300734650919791 0.102179381684983 0.745659865379279 H 0.0 **** 0.0
242 H59263 0.264352636506367 0.0951674923005623 0.79104853672896 H 0.0 **** 0.0
243 H59265 0.284708678955525 0.0912183657335002 0.769267037258158 H 0.0 **** 0.0
244 H59267 0.221522978725193 0.171919394604847 0.79437857114418 H 0.0 **** 0.0
245 H59269 0.223575496886542 0.15796662849887 0.815972140963207 H 0.0 **** 0.0
246 H59271 0.211027071105334 0.141977276191352 0.806614917764697 H 0.0 **** 0.0
247 H59273 0.216096034436747 0.135935342058951 0.837365002307572 H 0.0 **** 0.0
248 H59275 0.238179273379939 0.137469980298027 0.834155056115631 H 0.0 **** 0.0
249 H59277 0.214004316680445 0.111412426790116 0.818116626954924 H 0.0 **** 0.0
250 H59279 0.230303511029564 0.10638833285849 0.832275534001537 H 0.0 **** 0.0
@<TRIPOS>BOND
1 3 2 1
2 4 3 1
3 5 4 1
4 6 5 1
5 1 2 1
6 1 6 1
7 8 7 1
8 9 8 1
9 10 9 1
10 4 7 1
11 3 10 1
12 12 11 1
13 13 12 1
14 14 13 1
15 8 11 1
16 7 14 1
17 16 15 1
18 17 16 Partial double
19 18 17 1
20 13 15 1
21 12 18 1
22 20 19 Partial double
23 21 20 Partial double
24 22 21 Partial double
25 17 19 Partial double
26 16 22 Partial double
27 24 23 1
28 25 24 1
29 15 25 Double
30 22 23 1
31 27 26 1
32 28 27 Partial double
33 29 28 Partial double
34 21 26 1
35 20 29 Partial double
36 31 30 1
37 32 31 1
38 18 30 1
39 19 32 1
40 34 33 Double
41 35 34 1
42 36 35 1
43 31 33 1
44 30 36 Double
45 38 37 1
46 39 38 1
47 40 39 Double
48 34 37 1
49 33 40 1
50 42 41 1
51 43 42 1
52 44 43 1
53 40 41 1
54 39 44 1
55 46 45 Partial double
56 32 46 1
57 29 45 Partial double
58 48 47 Partial double
59 49 48 1
60 45 49 Partial double
61 28 47 Partial double
62 51 50 Partial double
63 52 51 Partial double
64 53 52 Partial double
65 48 50 Partial double
66 47 53 Partial double
67 55 54 Partial double
68 56 55 Partial double
69 57 56 Partial double
70 52 54 Partial double
71 51 57 Partial double
72 59 58 Partial double
73 60 59 Partial double
74 61 60 Partial double
75 56 58 Partial double
76 55 61 Partial double
77 63 62 Partial double
78 27 63 Partial double
79 53 62 Partial double
80 65 64 Partial double
81 62 65 Partial double
82 54 64 Partial double
83 67 66 Partial double
84 64 67 Partial double
85 61 66 Partial double
86 69 68 Partial double
87 70 69 Partial double
88 66 70 Partial double
89 60 68 Partial double
90 72 71 1
91 73 72 1
92 74 73 1
93 59 71 1
94 58 74 1
95 76 75 1
96 77 76 1
97 78 77 1
98 73 75 1
99 72 78 1
100 80 79 1
101 81 80 1
102 82 81 1
103 78 79 1
104 77 82 1
105 84 83 Partial double
106 85 84 Partial double
107 67 85 Partial double
108 65 83 Partial double
109 87 86 1
110 88 87 1
111 89 88 1
112 84 86 1
113 83 89 1
114 91 90 1
115 92 91 1
116 93 92 1
117 88 90 1
118 87 93 1
119 95 94 Partial double
120 85 95 Partial double
121 70 94 Partial double
122 97 96 Partial double
123 98 97 Partial double
124 94 98 Partial double
125 69 96 Partial double
126 100 99 Partial double
127 101 100 Partial double
128 68 101 Partial double
129 96 99 Partial double
130 103 102 1
131 104 103 Partial double
132 97 102 1
133 99 104 1
134 106 105 1
135 107 106 1
136 100 105 1
137 104 107 Partial double
138 109 108 1
139 110 109 1
140 111 110 1
141 106 108 1
142 105 111 1
143 113 112 1
144 114 113 1
145 103 114 Partial double
146 107 112 Partial double
147 108 115 1
148 112 116 Partial double
149 115 116 Partial double
150 42 117 1
151 117 118 1
152 117 119 1
153 74 120 1
154 122 121 1
155 123 122 Partial double
156 124 123 1
157 114 121 Partial double
158 113 124 Partial double
159 126 125 Partial double
160 127 126 1
161 128 127 Partial double
162 124 125 Partial double
163 123 128 Partial double
164 130 129 Partial double
165 131 130 1
166 132 131 1
167 127 129 Partial double
168 126 132 Partial double
169 134 133 Partial double
170 135 134 Partial double
171 125 135 Partial double
172 132 133 Partial double
173 137 136 Partial double
174 138 137 Partial double
175 131 138 Partial double
176 133 136 Partial double
177 140 139 Partial double
178 134 140 Partial double
179 116 135 Partial double
180 115 139 Partial double
181 142 141 Partial double
182 140 142 Partial double
183 136 141 Partial double
184 144 143 1
185 145 144 1
186 146 145 1
187 142 143 1
188 141 146 1
189 146 147 Double
190 1 148 1
191 1 149 1
192 2 150 1
193 2 151 1
194 3 152 1
195 4 153 1
196 5 154 1
197 5 155 1
198 7 156 1
199 8 157 1
200 9 158 1
201 9 159 1
202 10 160 1
203 10 161 1
204 12 162 1
205 13 163 1
206 14 164 1
207 14 165 1
208 18 166 1
209 23 167 1
210 23 168 1
211 24 169 1
212 24 170 1
213 25 171 1
214 35 173 1
215 35 174 1
216 36 175 1
217 37 176 1
218 37 177 1
219 38 178 1
220 38 179 1
221 41 180 1
222 41 181 1
223 42 182 1
224 43 183 1
225 43 184 1
226 44 185 1
227 44 186 1
228 46 187 1
229 50 188 1
230 57 189 1
231 63 190 1
232 72 191 1
233 73 192 1
234 74 193 1
235 75 194 1
236 75 195 1
237 76 196 1
238 76 197 1
239 77 198 1
240 78 199 1
241 79 200 1
242 79 201 1
243 80 202 1
244 80 203 1
245 81 204 1
246 81 205 1
247 82 206 1
248 87 207 1
249 88 208 1
250 90 209 1
251 90 210 1
252 91 211 1
253 91 212 1
254 92 213 1
255 92 214 1
256 93 215 1
257 93 216 1
258 95 217 1
259 98 218 1
260 101 219 1
261 105 220 1
262 106 221 1
263 108 222 1
264 109 223 1
265 109 224 1
266 110 225 1
267 110 226 1
268 111 227 1
269 111 228 1
270 117 229 1
271 118 230 1
272 118 231 1
273 118 232 1
274 119 233 1
275 119 234 1
276 119 235 1
277 120 236 1
278 121 237 1
279 122 238 1
280 128 239 1
281 129 240 1
282 130 241 1
283 137 242 1
284 138 243 1
285 139 244 1
286 143 245 1
287 143 246 1
288 144 247 1
289 144 248 1
290 145 249 1
291 145 250 1
292 31 172 1
@<TRIPOS>MOLECULE
Sketch 4
250 292
SMALL
USER_CHARGES


@<TRIPOS>ATOM
1 C59282 0.790463006264296 0.441261862237911 0.27179222471721 C 0.0 **** 0.0
2 C59283 0.777165351917328 0.453438799930492 0.264020858236904 C 0.0 **** 0.0
3 C59284 0.780546477898468 0.457829903285477 0.245303754901807 C 0.0 **** 0.0
4 C59285 0.799677550560522 0.46172824965736 0.241787867820797 C 0.0 **** 0.0
5 C59286 0.810667045824928 0.457114612655034 0.257181307908163 C 0.0 **** 0.0
6 O59287 0.806135871931447 0.440762222878216 0.262998516163665 O 0.0 **** 0.0
7 C59294 0.80268792663179 0.479539048683805 0.234233269401551 C 0.0 **** 0.0
8 C59295 0.791900172527544 0.481645382678586 0.21809054887426 C 0.0 **** 0.0
9 C59296 0.773064928792584 0.477284665499741 0.220753699842243 C 0.0 **** 0.0
10 C59297 0.768878104680715 0.472049437829261 0.238992585073526 C 0.0 **** 0.0
11 O59303 0.797700600276712 0.4701502757938 0.205419108979635 O 0.0 **** 0.0
12 C59304 0.814813550986307 0.472645399960669 0.199969959717342 C 0.0 **** 0.0
13 C59305 0.826860819914839 0.471332758672949 0.215172627584274 C 0.0 **** 0.0
14 C59306 0.821354781025021 0.48304034706056 0.229581663312878 C 0.0 **** 0.0
15 C59312 0.845105320646342 0.473117658484781 0.209727659875366 C 0.0 **** 0.0
16 C59313 0.849053850658167 0.484500864565643 0.194957546151774 C 0.0 **** 0.0
17 C59314 0.836020543434371 0.491297486588107 0.185309520495317 C 0.0 **** 0.0
18 C59315 0.817381590235898 0.488904460528896 0.189664385321615 C 0.0 **** 0.0
19 C59321 0.840265430691828 0.500826060301906 0.171253437826707 C 0.0 **** 0.0
20 C59322 0.857050512516544 0.503223181224056 0.167050665445787 C 0.0 **** 0.0
21 C59323 0.870085592505817 0.497336241224032 0.177146983289649 C 0.0 **** 0.0
22 C59324 0.865993364046247 0.487639072602552 0.191178105123236 C 0.0 **** 0.0
23 C59330 0.879921518895942 0.480702891085268 0.202303992929721 C 0.0 **** 0.0
24 C59331 0.874935079512493 0.463105401534802 0.209093220183965 C 0.0 **** 0.0
25 C59332 0.857278960301103 0.463160023527431 0.216306478445975 C 0.0 **** 0.0
26 O59337 0.886950795192396 0.500751372280673 0.173280021119596 O 0.0 **** 0.0
27 C59338 0.890529024712072 0.512521901878325 0.16077516568958 C 0.0 **** 0.0
28 C59339 0.878684744503428 0.517387528413575 0.148863177984767 C 0.0 **** 0.0
29 C59340 0.860913881024831 0.511456399447793 0.150616959737741 C 0.0 **** 0.0
30 C59346 0.806884631197893 0.48973689361681 0.173605741689383 C 0.0 **** 0.0
31 C59347 0.808488193849411 0.506827781243722 0.164929992493737 C 0.0 **** 0.0
32 C59348 0.827277047897219 0.50906226894841 0.160007147622286 C 0.0 **** 0.0
33 C59353 0.796457592693608 0.510105487618041 0.14980201472804 C 0.0 **** 0.0
34 C59354 0.787326064406767 0.496800428142333 0.143694481802639 C 0.0 **** 0.0
35 C59355 0.787342875140505 0.479131214783203 0.151146449570613 C 0.0 **** 0.0
36 C59356 0.79740815210342 0.477198967497987 0.167228135637702 C 0.0 **** 0.0
37 C59362 0.774780482358304 0.498321978626856 0.129549197761364 C 0.0 **** 0.0
38 C59363 0.777050682844794 0.514407186830207 0.11895450247152 C 0.0 **** 0.0
39 C59364 0.785908668782391 0.528369819795424 0.12825646476301 C 0.0 **** 0.0
40 C59365 0.795005102551937 0.525869276183908 0.142732331390475 C 0.0 **** 0.0
41 C59371 0.803948602459495 0.54139087594061 0.15036999127875 C 0.0 **** 0.0
42 C59372 0.795786028397402 0.558027847499534 0.145107481944831 C 0.0 **** 0.0
43 C59373 0.795645259423481 0.55887302612969 0.125689170615908 C 0.0 **** 0.0
44 C59374 0.784544349482329 0.544800745169608 0.118578836982317 C 0.0 **** 0.0
45 C59380 0.849082689548845 0.513191069317199 0.138306721864881 C 0.0 **** 0.0
46 C59381 0.832432160454908 0.510380695425728 0.141509830216057 C 0.0 **** 0.0
47 C59385 0.883238194141043 0.528589099041555 0.13582590693198 C 0.0 **** 0.0
48 C59386 0.872388232648518 0.531707600659806 0.121942163650594 C 0.0 **** 0.0
49 S59387 0.855557061319493 0.518291882455791 0.117983594827172 S 0.0 **** 0.0
50 C59392 0.875012563720627 0.544851447152112 0.1110903846252 C 0.0 **** 0.0
51 C59393 0.889525837616975 0.554979374949804 0.113237870075422 C 0.0 **** 0.0
52 C59394 0.901446568689448 0.551053075582589 0.126105363655164 C 0.0 **** 0.0
53 C59395 0.898454925654269 0.537691154607529 0.137158293082571 C 0.0 **** 0.0
54 C59401 0.916001885403238 0.560820932193826 0.127507603617841 C 0.0 **** 0.0
55 C59402 0.91780321715327 0.575476055506143 0.117635333179652 C 0.0 **** 0.0
56 C59403 0.904610074036607 0.581059107444597 0.106928140485156 C 0.0 **** 0.0
57 C59404 0.89187981831569 0.569387899729779 0.103168382562123 C 0.0 **** 0.0
58 C59410 0.90404390777051 0.597959840048821 0.10135332528198 C 0.0 **** 0.0
59 C59411 0.91859520917795 0.607549045764834 0.102766861421623 C 0.0 **** 0.0
60 C59412 0.933230239002712 0.600821483711449 0.110514246849081 C 0.0 **** 0.0
61 C59413 0.932144458697261 0.585412926208643 0.119136619040912 C 0.0 **** 0.0
62 C59419 0.910296365582193 0.533640078879885 0.149853609515491 C 0.0 **** 0.0
63 C59420 0.906442398540008 0.51963122022283 0.160218660561767 C 0.0 **** 0.0
64 C59424 0.928174358106421 0.55667097657838 0.139586564863815 C 0.0 **** 0.0
65 C59425 0.924853536002615 0.544223096487944 0.151849927753582 C 0.0 **** 0.0
66 C59429 0.94497455847219 0.580543081886354 0.130159342037591 C 0.0 **** 0.0
67 C59430 0.94284297326014 0.566234174200949 0.140352297705931 C 0.0 **** 0.0
68 C59434 0.948840455538961 0.60965773531812 0.110228651324254 C 0.0 **** 0.0
69 C59435 0.961349304374665 0.605059301730488 0.121957245857946 C 0.0 **** 0.0
70 C59436 0.959284152764193 0.59073378292554 0.131880754160965 C 0.0 **** 0.0
71 O59441 0.919171351358937 0.623754012605868 0.0960499415511438 O 0.0 **** 0.0
72 C59442 0.90480618543103 0.634263796106779 0.099029307118449 C 0.0 **** 0.0
73 C59443 0.888151026746946 0.624164927173655 0.101188135644882 C 0.0 **** 0.0
74 C59444 0.889116481715846 0.606696408963699 0.0928807001247435 C 0.0 **** 0.0
75 C59450 0.872671838779137 0.634236627027131 0.0949530437066318 C 0.0 **** 0.0
76 C59451 0.874689922942813 0.653049931657811 0.0986550894874423 C 0.0 **** 0.0
77 C59452 0.889060598835638 0.660518593967502 0.0878632463863516 C 0.0 **** 0.0
78 C59453 0.903356510325881 0.647362739505817 0.0845844992891138 C 0.0 **** 0.0
79 C59459 0.920422020455857 0.655871314310896 0.0804442600789084 C 0.0 **** 0.0
80 C59460 0.917242126067786 0.673038100123731 0.0721112983977502 C 0.0 **** 0.0
81 C59461 0.907384871212624 0.685124864614763 0.0839486289155439 C 0.0 **** 0.0
82 N59462 0.895039028193157 0.676392362099589 0.0949019761222388 N 0.0 **** 0.0
83 C59468 0.935367386753456 0.543202534120371 0.166369129225435 C 0.0 **** 0.0
84 C59469 0.950478999711741 0.55207558112978 0.166764640244717 C 0.0 **** 0.0
85 C59470 0.954653763328578 0.562864505543551 0.153124238493134 C 0.0 **** 0.0
86 O59475 0.961683298157839 0.551341009555355 0.180252899317081 O 0.0 **** 0.0
87 C59476 0.958632180416035 0.537796461648641 0.191721642031327 C 0.0 **** 0.0
88 C59477 0.940061988300448 0.53590909891101 0.195132528590353 C 0.0 **** 0.0
89 O59478 0.930763430929292 0.533107308169668 0.179929364082429 O 0.0 **** 0.0
90 C59484 0.932465614692297 0.550570090449933 0.205493061989717 C 0.0 **** 0.0
91 C59485 0.943745190123558 0.556077806205785 0.220501494456178 C 0.0 **** 0.0
92 C59486 0.958027536344685 0.543414679609638 0.223981038689501 C 0.0 **** 0.0
93 C59487 0.96900720890764 0.540966211473691 0.208043416337391 C 0.0 **** 0.0
94 C59493 0.972365931699994 0.586084579598341 0.1431823714811 C 0.0 **** 0.0
95 C59494 0.969803377209623 0.572009568233877 0.153736101798808 C 0.0 **** 0.0
96 C59498 0.977023793922895 0.613205909475922 0.121495479090318 C 0.0 **** 0.0
97 C59499 0.989762474795265 0.609289903979139 0.133381461246288 C 0.0 **** 0.0
98 C59500 0.987467206740569 0.595679097028296 0.143874404083076 C 0.0 **** 0.0
99 C59505 0.981437254797133 0.623491845432763 0.107637436469909 C 0.0 **** 0.0
100 C59506 0.969790078738482 0.626955313984545 0.0951071445372286 C 0.0 **** 0.0
101 C59507 0.953657125593492 0.620743013154789 0.0969917093223054 C 0.0 **** 0.0
102 O59512 1.0044695656091 0.618707249992328 0.134149123937397 O 0.0 **** 0.0
103 C59513 1.01030439639096 0.625557651806961 0.119170428182318 C 0.0 **** 0.0
104 C59514 0.99949268510776 0.628736559405106 0.106060566368824 C 0.0 **** 0.0
105 C59519 0.974072346233026 0.636678953796651 0.0791792643276711 C 0.0 **** 0.0
106 C59520 0.99376777494432 0.637774910047483 0.0758355360635532 C 0.0 **** 0.0
107 C59521 1.00521471458118 0.635410710241985 0.0912195505643964 C 0.0 **** 0.0
108 C59526 0.998244055314268 0.654481458213301 0.0667931917934443 C 0.0 **** 0.0
109 C59527 0.985262811441573 0.65862802922079 0.0529226203641578 C 0.0 **** 0.0
110 C59528 0.96759292618598 0.66184154834629 0.0608918249512882 C 0.0 **** 0.0
111 C59529 0.966125054466634 0.654318732350758 0.0788447878825748 C 0.0 **** 0.0
112 C59535 1.02187485038817 0.639619783747524 0.0897264821376883 C 0.0 **** 0.0
113 C59536 1.03288562497859 0.636039046550621 0.10264764955902 C 0.0 **** 0.0
114 C59537 1.02709630137614 0.629194094962237 0.117390897717957 C 0.0 **** 0.0
115 C59542 1.01672218888468 0.653593055318345 0.06142768446487 C 0.0 **** 0.0
116 C59544 1.02795911385351 0.647252193858463 0.0733371939035423 C 0.0 **** 0.0
117 C59547 0.804149211887984 0.573374163248535 0.153796164323815 C 0.0 **** 0.0
118 C59549 0.822302553186168 0.576894808310888 0.147979638432153 C 0.0 **** 0.0
119 C59551 0.793346597239663 0.589378525552661 0.152122266612872 C 0.0 **** 0.0
120 O59553 0.873410358979214 0.598370508035403 0.0954942929928906 O 0.0 **** 0.0
121 C59555 1.0381385427935 0.625838919922871 0.130255289971224 C 0.0 **** 0.0
122 C59556 1.05492488939567 0.629087163545482 0.128334009602775 C 0.0 **** 0.0
123 C59557 1.06095099839646 0.635573873225233 0.113533080846805 C 0.0 **** 0.0
124 C59558 1.04980892708185 0.639004379309085 0.100745355594976 C 0.0 **** 0.0
125 C59564 1.05635999226321 0.645351429803429 0.0843927071768146 C 0.0 **** 0.0
126 C59565 1.07335666975154 0.647763169804377 0.0826419070303255 C 0.0 **** 0.0
127 C59566 1.08475620619075 0.644060944417421 0.0969966718870393 C 0.0 **** 0.0
128 C59567 1.0781231045253 0.638170189146906 0.111887861903686 C 0.0 **** 0.0
129 C59573 1.10180592483866 0.646204461280273 0.0949683046724587 C 0.0 **** 0.0
130 C59574 1.10844268447184 0.651774110325852 0.0799209278818972 C 0.0 **** 0.0
131 C59575 1.09836724513566 0.655611399746799 0.0663525799031372 C 0.0 **** 0.0
132 C59576 1.07984332509122 0.653419157263118 0.0676373224985583 C 0.0 **** 0.0
133 C59582 1.06925461530941 0.65735922161029 0.0539427969867246 C 0.0 **** 0.0
134 C59583 1.05184701272582 0.655099939278788 0.0557610799889239 C 0.0 **** 0.0
135 C59584 1.0453614852682 0.648849786253738 0.0709809480202285 C 0.0 **** 0.0
136 C59589 1.07579244164011 0.664087124226402 0.038951239608436 C 0.0 **** 0.0
137 C59590 1.09497228415988 0.665593198731664 0.0383561642819055 C 0.0 **** 0.0
138 C59591 1.10521959000433 0.661491505766708 0.0516630262329909 C 0.0 **** 0.0
139 C59596 1.02315907003696 0.659559937381851 0.0463657772746972 C 0.0 **** 0.0
140 C59597 1.04078757552404 0.659858449861486 0.0427357458497952 C 0.0 **** 0.0
141 C59602 1.06482922271399 0.668641507601663 0.0258873558617159 C 0.0 **** 0.0
142 C59603 1.04748358793924 0.665804145335756 0.027303819592548 C 0.0 **** 0.0
143 C59607 1.03551036061451 0.670015007269884 0.0127685145194337 C 0.0 **** 0.0
144 C59608 1.04392972130814 0.666733513962928 -0.00433691616793156 C 0.0 **** 0.0
145 C59609 1.06014874574773 0.676769702926807 -0.00533953081775043 C 0.0 **** 0.0
146 C59610 1.07133240300218 0.676849398525673 0.0100491606082173 C 0.0 **** 0.0
147 O59616 1.08471716704498 0.684284641742196 0.00897989476090745 O 0.0 **** 0.0
148 H59618 0.785720057064014 0.428229817063124 0.271593270542405 H 0.0 **** 0.0
149 H59620 0.79268636789384 0.444495424038191 0.285169156953684 H 0.0 **** 0.0
150 H59622 0.764337880517849 0.448158768902773 0.265446989659283 H 0.0 **** 0.0
151 H59624 0.777048762289917 0.465347181601771 0.271227548657414 H 0.0 **** 0.0
152 H59626 0.777429618985641 0.44639119327652 0.237910099400708 H 0.0 **** 0.0
153 H59628 0.803352083582582 0.452576400704013 0.231933745648608 H 0.0 **** 0.0
154 H59630 0.809670043763059 0.46662923876027 0.267336772271761 H 0.0 **** 0.0
155 H59632 0.824077318565052 0.456308386824608 0.253615140192418 H 0.0 **** 0.0
156 H59634 0.798572732137864 0.489015335374247 0.243623659424586 H 0.0 **** 0.0
157 H59636 0.792961959311738 0.494804036262684 0.213596258415965 H 0.0 **** 0.0
158 H59638 0.770089088545973 0.466608889754425 0.212322918123961 H 0.0 **** 0.0
159 H59640 0.76463362372124 0.487674516097527 0.216880115061913 H 0.0 **** 0.0
160 H59642 0.755578058071497 0.468021185146297 0.239861855067285 H 0.0 **** 0.0
161 H59644 0.770161401396431 0.483165939607387 0.247330423612597 H 0.0 **** 0.0
162 H59646 0.817330097717383 0.461704872647917 0.191719586996125 H 0.0 **** 0.0
163 H59648 0.825656231285506 0.458302277557267 0.219914221515187 H 0.0 **** 0.0
164 H59650 0.822628001406745 0.496373492744452 0.2256841521739 H 0.0 **** 0.0
165 H59652 0.829606478628587 0.481508946945438 0.240691537683552 H 0.0 **** 0.0
166 H59654 0.813479613172195 0.499700595865556 0.197636348505162 H 0.0 **** 0.0
167 H59656 0.891874205629568 0.479701816915376 0.195259841602982 H 0.0 **** 0.0
168 H59658 0.882234134956122 0.489427722111018 0.212918468480557 H 0.0 **** 0.0
169 H59660 0.8840369080994 0.458770620148712 0.218703969778591 H 0.0 **** 0.0
170 H59662 0.875450226254675 0.453821327518904 0.198718296378236 H 0.0 **** 0.0
171 H59664 0.854738008795626 0.453841678047474 0.226128230989657 H 0.0 **** 0.0
172 H59666 0.805537735192143 0.516304343474336 0.174712463705732 H 0.0 **** 0.0
173 H59667 0.792195863902755 0.47015204943818 0.14160673624858 H 0.0 **** 0.0
174 H59669 0.774109609110328 0.475444527567996 0.153783134040828 H 0.0 **** 0.0
175 H59671 0.796540072460071 0.464975107410596 0.173550025948724 H 0.0 **** 0.0
176 H59673 0.775779747479837 0.487177860074264 0.121202540234248 H 0.0 **** 0.0
177 H59675 0.761983363233028 0.498122352192263 0.135091410758995 H 0.0 **** 0.0
178 H59677 0.764622882602484 0.518779691196812 0.114349766394618 H 0.0 **** 0.0
179 H59679 0.784690105051682 0.511441891242331 0.107701550495446 H 0.0 **** 0.0
180 H59681 0.804007172218554 0.540543889519096 0.164257062177638 H 0.0 **** 0.0
181 H59683 0.8172744035295 0.541297780959679 0.14633925277502 H 0.0 **** 0.0
182 H59685 0.78248081505304 0.557803664367971 0.149451519616637 H 0.0 **** 0.0
183 H59687 0.808693954693986 0.557470249801585 0.120976519775973 H 0.0 **** 0.0
184 H59689 0.791050627818802 0.57117799297596 0.121041294021656 H 0.0 **** 0.0
185 H59691 0.787631170637678 0.542493946972513 0.105156414029176 H 0.0 **** 0.0
186 H59693 0.771230623471742 0.548928146370115 0.118912023303421 H 0.0 **** 0.0
187 H59695 0.82290333393874 0.510151581975377 0.131595454252341 H 0.0 **** 0.0
188 H59697 0.866147735272462 0.547703364343919 0.100823254575485 H 0.0 **** 0.0
189 H59699 0.882146036615581 0.57211159999497 0.0937015402224296 H 0.0 **** 0.0
190 H59701 0.915301040735811 0.514544767964487 0.169550593910671 H 0.0 **** 0.0
191 H59703 0.907318065779965 0.64127434505682 0.110817524544773 H 0.0 **** 0.0
192 H59705 0.886076814350645 0.621812603454345 0.114821943254577 H 0.0 **** 0.0
193 H59707 0.891592435762748 0.607886408459958 0.0791700521222243 H 0.0 **** 0.0
194 H59709 0.871343384078733 0.632587086098013 0.0812074202418481 H 0.0 **** 0.0
195 H59711 0.861085100939947 0.629231022209223 0.100826169803064 H 0.0 **** 0.0
196 H59713 0.877455704490049 0.654656424354123 0.112203170029326 H 0.0 **** 0.0
197 H59715 0.862831793288927 0.659892765872021 0.0962328620303615 H 0.0 **** 0.0
198 H59717 0.883555513228687 0.663637232338023 0.0754259492962678 H 0.0 **** 0.0
199 H59719 0.899557059909561 0.640091768473414 0.073285832589897 H 0.0 **** 0.0
200 H59721 0.927613249860368 0.65787741086523 0.0922187378981642 H 0.0 **** 0.0
201 H59723 0.928043756174452 0.647534034318827 0.0723068940015289 H 0.0 **** 0.0
202 H59725 0.909840703631307 0.670818995413683 0.0605032775781719 H 0.0 **** 0.0
203 H59727 0.929049989925004 0.679175096364197 0.0680230519455291 H 0.0 **** 0.0
204 H59729 0.900628306381949 0.694720613323247 0.0764558188472516 H 0.0 **** 0.0
205 H59731 0.916290994772241 0.692179449860336 0.0920141571359024 H 0.0 **** 0.0
206 H59733 0.900051053969886 0.674303578926906 0.106354627181941 H 0.0 **** 0.0
207 H59735 0.962951658483455 0.526123829108637 0.185464225910418 H 0.0 **** 0.0
208 H59737 0.93859952714176 0.524392340286452 0.202800450767148 H 0.0 **** 0.0
209 H59739 0.930278281319457 0.561340944561725 0.196969886905296 H 0.0 **** 0.0
210 H59741 0.919860133709139 0.546677647555849 0.209966998988177 H 0.0 **** 0.0
211 H59743 0.936063874714518 0.558176929465681 0.23192896607522 H 0.0 **** 0.0
212 H59745 0.949554115289179 0.568366255846016 0.217487095466874 H 0.0 **** 0.0
213 H59747 0.952557303290018 0.531235980144949 0.227970588885886 H 0.0 **** 0.0
214 H59749 0.965960612580839 0.547774194336337 0.234585087355234 H 0.0 **** 0.0
215 H59751 0.978564666756714 0.531104430572927 0.210372051363768 H 0.0 **** 0.0
216 H59753 0.976176287705018 0.552715453576975 0.20600765225229 H 0.0 **** 0.0
217 H59755 0.979309367392408 0.569084203370664 0.163391447651661 H 0.0 **** 0.0
218 H59757 0.997477919692083 0.59195500909894 0.15273332115791 H 0.0 **** 0.0
219 H59759 0.944863233622098 0.623556608902334 0.0866438358763697 H 0.0 **** 0.0
220 H59761 0.968666024735533 0.629678000844686 0.0683773512790455 H 0.0 **** 0.0
221 H59763 0.996750977464847 0.627273733982081 0.0671493379085492 H 0.0 **** 0.0
222 H59765 0.997485163270851 0.664811645488928 0.0761729078995083 H 0.0 **** 0.0
223 H59767 0.984569786498649 0.647908321166441 0.044073872083124 H 0.0 **** 0.0
224 H59769 0.989019215914372 0.669737591116536 0.045450519556995 H 0.0 **** 0.0
225 H59771 0.957729750985959 0.65623841110115 0.0527986406625011 H 0.0 **** 0.0
226 H59773 0.964869649675322 0.675490966464583 0.0612791145275717 H 0.0 **** 0.0
227 H59775 0.952824690864381 0.65392606161344 0.0827529502878343 H 0.0 **** 0.0
228 H59777 0.972581406587369 0.66249509412127 0.0881083547159368 H 0.0 **** 0.0
229 H59779 0.804722637707758 0.570368835863867 0.167403069510847 H 0.0 **** 0.0
230 H59781 0.827938716618768 0.587064570027723 0.155615801458207 H 0.0 **** 0.0
231 H59783 0.822649425168001 0.580887735567957 0.134656488620564 H 0.0 **** 0.0
232 H59785 0.830502097554998 0.565739810785094 0.149277551025873 H 0.0 **** 0.0
233 H59787 0.780259597386415 0.5871400673257 0.156313944912479 H 0.0 **** 0.0
234 H59789 0.792915929977179 0.593850960471306 0.138957758858137 H 0.0 **** 0.0
235 H59791 0.798470369334823 0.599671340468733 0.159957169102882 H 0.0 **** 0.0
236 H59793 0.865334441404223 0.604967798181938 0.0894801552238956 H 0.0 **** 0.0
237 H59795 1.03384173269443 0.620288539608327 0.142125901046505 H 0.0 **** 0.0
238 H59797 1.0634064649226 0.625929477169122 0.13867909368678 H 0.0 **** 0.0
239 H59799 1.08656741237992 0.635101686969199 0.12237027571758 H 0.0 **** 0.0
240 H59801 1.11051879143579 0.643383643660021 0.105290173787041 H 0.0 **** 0.0
241 H59803 1.12213594659042 0.653237802682397 0.0790237729623486 H 0.0 **** 0.0
242 H59805 1.10105589963573 0.670026754100972 0.0268679905976855 H 0.0 **** 0.0
243 H59807 1.11885254499107 0.663096464522636 0.050281007259077 H 0.0 **** 0.0
244 H59809 1.01412158894004 0.664258387403526 0.0369839627848388 H 0.0 **** 0.0
245 H59811 1.02393963353894 0.662330890403022 0.013385135100639 H 0.0 **** 0.0
246 H59813 1.03152180517269 0.683351234657068 0.0135510643343331 H 0.0 **** 0.0
247 H59815 1.0354989206363 0.670258426796876 -0.0148445588324505 H 0.0 **** 0.0
248 H59817 1.04652287519168 0.653118642953242 -0.00567093010568441 H 0.0 **** 0.0
249 H59819 1.05783371062814 0.690341936912188 -0.0073447690115704 H 0.0 **** 0.0
250 H59821 1.06884811744725 0.672849995717953 -0.015431724421349 H 0.0 **** 0.0
@<TRIPOS>BOND
1 3 2 1
2 4 3 1
3 5 4 1
4 6 5 1
5 1 2 1
6 1 6 1
7 8 7 1
8 9 8 1
9 10 9 1
10 4 7 1
11 3 10 1
12 12 11 1
13 13 12 1
14 14 13 1
15 8 11 1
16 7 14 1
17 16 15 1
18 17 16 Partial double
19 18 17 1
20 13 15 1
21 12 18 1
22 20 19 Partial double
23 21 20 Partial double
24 22 21 Partial double
25 17 19 Partial double
26 16 22 Partial double
27 24 23 1
28 25 24 1
29 15 25 Double
30 22 23 1
31 27 26 1
32 28 27 Partial double
33 29 28 Partial double
34 21 26 1
35 20 29 Partial double
36 31 30 1
37 32 31 1
38 18 30 1
39 19 32 1
40 34 33 Double
41 35 34 1
42 36 35 1
43 31 33 1
44 30 36 Double
45 38 37 1
46 39 38 1
47 40 39 Double
48 34 37 1
49 33 40 1
50 42 41 1
51 43 42 1
52 44 43 1
53 40 41 1
54 39 44 1
55 46 45 Partial double
56 32 46 1
57 29 45 Partial double
58 48 47 Partial double
59 49 48 1
60 45 49 Partial double
61 28 47 Partial double
62 51 50 Partial double
63 52 51 Partial double
64 53 52 Partial double
65 48 50 Partial double
66 47 53 Partial double
67 55 54 Partial double
68 56 55 Partial double
69 57 56 Partial double
70 52 54 Partial double
71 51 57 Partial double
72 59 58 Partial double
73 60 59 Partial double
74 61 60 Partial double
75 56 58 Partial double
76 55 61 Partial double
77 63 62 Partial double
78 27 63 Partial double
79 53 62 Partial double
80 65 64 Partial double
81 62 65 Partial double
82 54 64 Partial double
83 67 66 Partial double
84 64 67 Partial double
85 61 66 Partial double
86 69 68 Partial double
87 70 69 Partial double
88 66 70 Partial double
89 60 68 Partial double
90 72 71 1
91 73 72 1
92 74 73 1
93 59 71 1
94 58 74 1
95 76 75 1
96 77 76 1
97 78 77 1
98 73 75 1
99 72 78 1
100 80 79 1
101 81 80 1
102 82 81 1
103 78 79 1
104 77 82 1
105 84 83 Partial double
106 85 84 Partial double
107 67 85 Partial double
108 65 83 Partial double
109 87 86 1
110 88 87 1
111 89 88 1
112 84 86 1
113 83 89 1
114 91 90 1
115 92 91 1
116 93 92 1
117 88 90 1
118 87 93 1
119 95 94 Partial double
120 85 95 Partial double
121 70 94 Partial double
122 97 96 Partial double
123 98 97 Partial double
124 94 98 Partial double
125 69 96 Partial double
126 100 99 Partial double
127 101 100 Partial double
128 68 101 Partial double
129 96 99 Partial double
130 103 102 1
131 104 103 Partial double
132 97 102 1
133 99 104 1
134 106 105 1
135 107 106 1
136 100 105 1
137 104 107 Partial double
138 109 108 1
139 110 109 1
140 111 110 1
141 106 108 1
142 105 111 1
143 113 112 1
144 114 113 1
145 103 114 Partial double
146 107 112 Partial double
147 108 115 1
148 112 116 Partial double
149 115 116 Partial double
150 42 117 1
151 117 118 1
152 117 119 1
153 74 120 1
154 122 121 1
155 123 122 Partial double
156 124 123 1
157 114 121 Partial double
158 113 124 Partial double
159 126 125 Partial double
160 127 126 1
161 128 127 Partial double
162 124 125 Partial double
163 123 128 Partial double
164 130 129 Partial double
165 131 130 1
166 132 131 1
167 127 129 Partial double
168 126 132 Partial double
169 134 133 Partial double
170 135 134 Partial double
171 125 135 Partial double
172 132 133 Partial double
173 137 136 Partial double
174 138 137 Partial double
175 131 138 Partial double
176 133 136 Partial double
177 140 139 Partial double
178 134 140 Partial double
179 116 135 Partial double
180 115 139 Partial double
181 142 141 Partial double
182 140 142 Partial double
183 136 141 Partial double
184 144 143 1
185 145 144 1
186 146 145 1
187 142 143 1
188 141 146 1
189 146 147 Double
190 1 148 1
191 1 149 1
192 2 150 1
193 2 151 1
194 3 152 1
195 4 153 1
196 5 154 1
197 5 155 1
198 7 156 1
199 8 157 1
200 9 158 1
201 9 159 1
202 10 160 1
203 10 161 1
204 12 162 1
205 13 163 1
206 14 164 1
207 14 165 1
208 18 166 1
209 23 167 1
210 23 168 1
211 24 169 1
212 24 170 1
213 25 171 1
214 35 173 1
215 35 174 1
216 36 175 1
217 37 176 1
218 37 177 1
219 38 178 1
220 38 179 1
221 41 180 1
222 41 181 1
223 42 182 1
224 43 183 1
225 43 184 1
226 44 185 1
227 44 186 1
228 46 187 1
229 50 188 1
230 57 189 1
231 63 190 1
232 72 191 1
233 73 192 1
234 74 193 1
235 75 194 1
236 75 195 1
237 76 196 1
238 76 197 1
239 77 198 1
240 78 199 1
241 79 200 1
242 79 201 1
243 80 202 1
244 80 203 1
245 81 204 1
246 81 205 1
247 82 206 1
248 87 207 1
249 88 208 1
250 90 209 1
251 90 210 1
252 91 211 1
253 91 212 1
254 92 213 1
255 92 214 1
256 93 215 1
257 93 216 1
258 95 217 1
259 98 218 1
260 101 219 1
261 105 220 1
262 106 221 1
263 108 222 1
264 109 223 1
265 109 224 1
266 110 225 1
267 110 226 1
268 111 227 1
269 111 228 1
270 117 229 1
271 118 230 1
272 118 231 1
273 118 232 1
274 119 233 1
275 119 234 1
276 119 235 1
277 120 236 1
278 121 237 1
279 122 238 1
280 128 239 1
281 129 240 1
282 130 241 1
283 137 242 1
284 138 243 1
285 139 244 1
286 143 245 1
287 143 246 1
288 144 247 1
289 144 248 1
290 145 249 1
291 145 250 1
292 31 172 1
@<TRIPOS>MOLECULE
Sketch 4
250 292
SMALL
USER_CHARGES


@<TRIPOS>ATOM
1 C59824 0.287342259332371 0.565351427452858 0.519559893803769 C 0.0 **** 0.0
2 C59825 0.28966934081604 0.550206940530569 0.531802992130119 C 0.0 **** 0.0
3 C59826 0.276649408476548 0.550393137565275 0.546266466229807 C 0.0 **** 0.0
4 C59827 0.275991793556882 0.56807276306291 0.555193107153977 C 0.0 **** 0.0
5 C59828 0.284439638332544 0.581649986153227 0.54398472886052 C 0.0 **** 0.0
6 O59829 0.279044495408783 0.579487382343915 0.526999474040935 O 0.0 **** 0.0
7 C59836 0.282268670426352 0.567063608274166 0.57367055280301 C 0.0 **** 0.0
8 C59837 0.270857467187035 0.55484263188644 0.583772257956777 C 0.0 **** 0.0
9 C59838 0.267810008712719 0.538045317173182 0.57440816178992 C 0.0 **** 0.0
10 C59839 0.279317004651062 0.535844328189618 0.558938776688619 C 0.0 **** 0.0
11 O59845 0.254546499660403 0.562175813052143 0.586147035517342 O 0.0 **** 0.0
12 C59846 0.254686095918096 0.577591869306924 0.595666792154534 C 0.0 **** 0.0
13 C59847 0.265264425802843 0.59096883321343 0.586283733171347 C 0.0 **** 0.0
14 C59848 0.283032897480324 0.584288763140874 0.582672551030351 C 0.0 **** 0.0
15 C59854 0.265332379616301 0.607865141436773 0.595317079431871 C 0.0 **** 0.0
16 C59855 0.26232888215724 0.607973587063234 0.61412670074607 C 0.0 **** 0.0
17 C59856 0.259654191422319 0.592813915847127 0.622682126647466 C 0.0 **** 0.0
18 C59857 0.260582104600117 0.575600379855643 0.614013637527681 C 0.0 **** 0.0
19 C59863 0.256022243449831 0.593556643659344 0.639771103200751 C 0.0 **** 0.0
20 C59864 0.253511148488094 0.608941885224047 0.647499526687292 C 0.0 **** 0.0
21 C59865 0.257718937061745 0.623928520571506 0.639551528197626 C 0.0 **** 0.0
22 C59866 0.262302679383943 0.623446332081513 0.622586880794258 C 0.0 **** 0.0
23 C59872 0.266936121299114 0.63984921917509 0.613803473273443 C 0.0 **** 0.0
24 C59873 0.263588786669468 0.63952721322499 0.594466452375851 C 0.0 **** 0.0
25 C59874 0.266084578968763 0.622422728591002 0.586495082882019 C 0.0 **** 0.0
26 O59879 0.257267834431784 0.63917660757883 0.648224253971229 O 0.0 **** 0.0
27 C59880 0.251085604742619 0.639562304977519 0.664626424540776 C 0.0 **** 0.0
28 C59881 0.243513073935398 0.625805001463691 0.67240902445635 C 0.0 **** 0.0
29 C59882 0.244190003205356 0.609028664664832 0.663847856632095 C 0.0 **** 0.0
30 C59888 0.251290936708583 0.562321095686732 0.624346985727728 C 0.0 **** 0.0
31 C59889 0.258547805633256 0.561428888406165 0.64203411001495 C 0.0 **** 0.0
32 C59890 0.254231626553059 0.578265040571273 0.65080556739607 C 0.0 **** 0.0
33 C59895 0.253440506743499 0.546170876483284 0.653027606069102 C 0.0 **** 0.0
34 C59896 0.240372953354632 0.536317780212096 0.647621893548978 C 0.0 **** 0.0
35 C59897 0.231109765271156 0.538942826702072 0.63098189665802 C 0.0 **** 0.0
36 C59898 0.23859378141459 0.552238607199726 0.619417058681731 C 0.0 **** 0.0
37 C59904 0.234136266828563 0.521004238228275 0.656944112147617 C 0.0 **** 0.0
38 C59905 0.242093747682321 0.518584180085437 0.674599726739705 C 0.0 **** 0.0
39 C59906 0.256942586207777 0.529933423919817 0.678136077149879 C 0.0 **** 0.0
40 C59907 0.261899124492113 0.542764522084829 0.667720549161986 C 0.0 **** 0.0
41 C59913 0.277248950615286 0.553436738830894 0.673227155971373 C 0.0 **** 0.0
42 C59914 0.289057271674727 0.544228569746185 0.685305333599451 C 0.0 **** 0.0
43 C59915 0.278526808017582 0.538358295934278 0.70056375717764 C 0.0 **** 0.0
44 C59916 0.265238119668281 0.525523103587963 0.694819177921216 C 0.0 **** 0.0
45 C59922 0.236038243283517 0.594971551099179 0.669524528557431 C 0.0 **** 0.0
46 C59923 0.239157805291855 0.579465497357037 0.66265274307663 C 0.0 **** 0.0
47 C59927 0.236148182217221 0.627598787038015 0.688544268848083 C 0.0 **** 0.0
48 C59928 0.226376193836801 0.614664487525394 0.69622252026818 C 0.0 **** 0.0
49 S59929 0.220430100775975 0.596911666297789 0.684867337888047 S 0.0 **** 0.0
50 C59934 0.220245736285568 0.616127227608632 0.712320182273806 C 0.0 **** 0.0
51 C59935 0.224404296558113 0.630517847899982 0.722011036807531 C 0.0 **** 0.0
52 C59936 0.23445707768613 0.643421290542184 0.714684021609489 C 0.0 **** 0.0
53 C59937 0.238779760169766 0.642664278251725 0.697645050732718 C 0.0 **** 0.0
54 C59943 0.240071651741573 0.656636344383363 0.724833115939555 C 0.0 **** 0.0
55 C59944 0.238004664392399 0.655956551926759 0.742425508927014 C 0.0 **** 0.0
56 C59945 0.228742097193513 0.642693260765792 0.750066702239361 C 0.0 **** 0.0
57 C59946 0.220179050683109 0.6315266397961 0.739190213048491 C 0.0 **** 0.0
58 C59952 0.228059677063865 0.641018028993063 0.767777290106406 C 0.0 **** 0.0
59 C59953 0.234173812807129 0.654121025015871 0.777622315118579 C 0.0 **** 0.0
60 C59954 0.242669871656274 0.668061334136603 0.770136745883464 C 0.0 **** 0.0
61 C59955 0.243907611941843 0.669017667793538 0.7524772524797 C 0.0 **** 0.0
62 C59961 0.246568420960766 0.656687158651469 0.689940830452665 C 0.0 **** 0.0
63 C59962 0.252625613969531 0.65452134570363 0.673328536702667 C 0.0 **** 0.0
64 C59966 0.246999788752729 0.67094738370867 0.717174317907388 C 0.0 **** 0.0
65 C59967 0.248690428356645 0.67177346363242 0.699532171038324 C 0.0 **** 0.0
66 C59971 0.249343058796723 0.683920605835865 0.744714041238407 C 0.0 **** 0.0
67 C59972 0.250678435346441 0.68483512916459 0.727116902866725 C 0.0 **** 0.0
68 C59976 0.249287573230638 0.681649169773455 0.779964505755507 C 0.0 **** 0.0
69 C59977 0.252697193480156 0.697155061526389 0.771924290104962 C 0.0 **** 0.0
70 C59978 0.252171003498969 0.6982865517476 0.754484518427084 C 0.0 **** 0.0
71 O59983 0.231113095490735 0.654210170014933 0.794938589350343 O 0.0 **** 0.0
72 C59984 0.232942131927692 0.638669716809602 0.804001101735794 C 0.0 **** 0.0
73 C59985 0.227285950328737 0.622800695722081 0.793932525147745 C 0.0 **** 0.0
74 C59986 0.219391818101339 0.626198943955536 0.776667458984884 C 0.0 **** 0.0
75 C59992 0.216085804624727 0.610683303586983 0.80439434739891 C 0.0 **** 0.0
76 C59993 0.223666722063781 0.608052933564138 0.821927011770805 C 0.0 **** 0.0
77 C59994 0.222891422195731 0.624437762995979 0.832361309101485 C 0.0 **** 0.0
78 C59995 0.223976934847565 0.640781961847799 0.821282667353521 C 0.0 **** 0.0
79 C60001 0.231394201007166 0.655908727237627 0.831207461290121 C 0.0 **** 0.0
80 C60002 0.226714047585259 0.654567265196607 0.849940836856616 C 0.0 **** 0.0
81 C60003 0.232701996184732 0.637849565943156 0.858269039005407 C 0.0 **** 0.0
82 N60004 0.234898338598271 0.623876344635629 0.846251547036023 N 0.0 **** 0.0
83 C60010 0.252071600594089 0.687489288717652 0.691585876566286 C 0.0 **** 0.0
84 C60011 0.255328334577888 0.701603755538988 0.70142163085429 C 0.0 **** 0.0
85 C60012 0.254250338709547 0.700317498285484 0.719194000239361 C 0.0 **** 0.0
86 O60017 0.259397832162175 0.717203089090655 0.69448744472578 O 0.0 **** 0.0
87 C60018 0.253150522366812 0.718867172099184 0.677648625116514 C 0.0 **** 0.0
88 C60019 0.258604541907444 0.704010025455317 0.667259354561567 C 0.0 **** 0.0
89 O60020 0.25200997307526 0.688647585546161 0.674078399306026 O 0.0 **** 0.0
90 C60026 0.277975746272405 0.703096472819547 0.665088277303012 C 0.0 **** 0.0
91 C60027 0.286348050099766 0.720672362739992 0.663290976038732 C 0.0 **** 0.0
92 C60028 0.273769618956083 0.734255519328777 0.657596430359329 C 0.0 **** 0.0
93 C60029 0.25895750403813 0.735947177826428 0.670207235899345 C 0.0 **** 0.0
94 C60035 0.254894428244901 0.714167192107496 0.746685848716293 C 0.0 **** 0.0
95 C60036 0.25556419841119 0.715011151237163 0.728979192606804 C 0.0 **** 0.0
96 C60040 0.257305775178539 0.711279581270256 0.781571296127925 C 0.0 **** 0.0
97 C60041 0.259945318370445 0.727213677113915 0.77386164538019 C 0.0 **** 0.0
98 C60042 0.258182104181999 0.728587718821667 0.756677950030308 C 0.0 **** 0.0
99 C60047 0.259512600295813 0.709903539414853 0.799123333041118 C 0.0 **** 0.0
100 C60048 0.257758015032611 0.694427751501563 0.80704287742156 C 0.0 **** 0.0
101 C60049 0.253090397209477 0.680705102903943 0.797382335386253 C 0.0 **** 0.0
102 O60054 0.264851599476485 0.741296037546378 0.782912095814834 O 0.0 **** 0.0
103 C60055 0.264647883387565 0.740666006547395 0.80033437013994 C 0.0 **** 0.0
104 C60056 0.262836001905724 0.725738355559184 0.808866772091043 C 0.0 **** 0.0
105 C60061 0.259903013394015 0.692036748208183 0.82595494993791 C 0.0 **** 0.0
106 C60062 0.259655519799085 0.709260768666312 0.836222637279931 C 0.0 **** 0.0
107 C60063 0.26279912933567 0.725389608167932 0.826121308041795 C 0.0 **** 0.0
108 C60068 0.271770614687052 0.70861044362543 0.851529776609149 C 0.0 **** 0.0
109 C60069 0.270390447410844 0.691577739663304 0.860772009517431 C 0.0 **** 0.0
110 C60070 0.275890052132701 0.676867246960419 0.849043654129731 C 0.0 **** 0.0
111 C60071 0.275705696309996 0.681672207013187 0.830157191958529 C 0.0 **** 0.0
112 C60077 0.265038094473058 0.740065462799166 0.834902706544583 C 0.0 **** 0.0
113 C60078 0.266090585379502 0.755151893087977 0.826419023293406 C 0.0 **** 0.0
114 C60079 0.266105357130141 0.755448928234198 0.809174391095064 C 0.0 **** 0.0
115 C60084 0.268284648056455 0.724184259545381 0.862370887744297 C 0.0 **** 0.0
116 C60086 0.265554686285207 0.739344348081937 0.853952537378921 C 0.0 **** 0.0
117 C60089 0.304969511052318 0.554915561071787 0.689391543714578 C 0.0 **** 0.0
118 C60091 0.301332975536525 0.572037679455295 0.697717960645468 C 0.0 **** 0.0
119 C60093 0.317860283021555 0.545284264543957 0.700143830474245 C 0.0 **** 0.0
120 O60095 0.221051306360954 0.610705879742682 0.767529516890594 O 0.0 **** 0.0
121 C60097 0.267439357256011 0.770552528791747 0.800818605069493 C 0.0 **** 0.0
122 C60098 0.268597399171251 0.785305142965532 0.809623754876512 C 0.0 **** 0.0
123 C60099 0.268306317644429 0.785160475296832 0.826878908180297 C 0.0 **** 0.0
124 C60100 0.266958401657804 0.7700239188299 0.835180173936402 C 0.0 **** 0.0
125 C60106 0.266252735939458 0.769867001696827 0.853922743333638 C 0.0 **** 0.0
126 C60107 0.26777378428509 0.784852885514535 0.862360719669084 C 0.0 **** 0.0
127 C60108 0.269394808330657 0.800794916341125 0.85269823144532 C 0.0 **** 0.0
128 C60109 0.26947067827381 0.800341639285772 0.835374116650235 C 0.0 **** 0.0
129 C60115 0.270993219356205 0.815743484937532 0.861268723009116 C 0.0 **** 0.0
130 C60116 0.271621438109288 0.816143387583559 0.878610738113834 C 0.0 **** 0.0
131 C60117 0.270637649388449 0.801662315957232 0.888077839081555 C 0.0 **** 0.0
132 C60118 0.26816126318336 0.785136786912835 0.879652446940578 C 0.0 **** 0.0
133 C60124 0.267241385084422 0.770135915319634 0.889122083712641 C 0.0 **** 0.0
134 C60125 0.265427741473693 0.754791428266218 0.880539890841726 C 0.0 **** 0.0
135 C60126 0.264994828497277 0.75460523078575 0.862835775187959 C 0.0 **** 0.0
136 C60131 0.269839585757592 0.770286372831513 0.906643769704428 C 0.0 **** 0.0
137 C60132 0.271797862044599 0.787730368201421 0.914483065387987 C 0.0 **** 0.0
138 C60133 0.27213437555626 0.802305927570465 0.905226579439642 C 0.0 **** 0.0
139 C60138 0.268658429551637 0.724428838846705 0.879791368422658 C 0.0 **** 0.0
140 C60139 0.266721798680347 0.739505561623084 0.889439564189353 C 0.0 **** 0.0
141 C60144 0.270735937503631 0.755076040847306 0.915538118840183 C 0.0 **** 0.0
142 C60145 0.268262929622075 0.739736408995631 0.907211115208388 C 0.0 **** 0.0
143 C60149 0.268604255357432 0.722955136398852 0.916751937516759 C 0.0 **** 0.0
144 C60150 0.261451419782022 0.725022003142711 0.934587707094871 C 0.0 **** 0.0
145 C60151 0.271612533009856 0.738463651505187 0.943556847554064 C 0.0 **** 0.0
146 C60152 0.274732465530759 0.754666285471548 0.93410988995305 C 0.0 **** 0.0
147 O60158 0.281192167321419 0.766164209133159 0.941936118701971 O 0.0 **** 0.0
148 H60160 0.279338777427658 0.561657795784039 0.50882215579759 H 0.0 **** 0.0
149 H60162 0.299654982451316 0.569300232630265 0.514329388664173 H 0.0 **** 0.0
150 H60164 0.288911731288543 0.538163060554519 0.524856735967294 H 0.0 **** 0.0
151 H60166 0.302448158249143 0.550526261048872 0.537386298977522 H 0.0 **** 0.0
152 H60168 0.264166310239468 0.54845116512456 0.540325636627914 H 0.0 **** 0.0
153 H60170 0.262489246823049 0.571613891522084 0.555740141804553 H 0.0 **** 0.0
154 H60172 0.298355353888497 0.581286178104339 0.544976545736113 H 0.0 **** 0.0
155 H60174 0.280454705122673 0.594433066511166 0.547724007233029 H 0.0 **** 0.0
156 H60176 0.295152412187453 0.561799479417702 0.573506488034453 H 0.0 **** 0.0
157 H60178 0.276708181662183 0.55210546691787 0.5961049163305 H 0.0 **** 0.0
158 H60180 0.254624043209215 0.538285150125465 0.570042074851867 H 0.0 **** 0.0
159 H60182 0.268879817567799 0.527024761680968 0.582861753837542 H 0.0 **** 0.0
160 H60184 0.276962983020067 0.523579255524189 0.552762112153575 H 0.0 **** 0.0
161 H60186 0.292630785628768 0.535540441681269 0.563098234065615 H 0.0 **** 0.0
162 H60188 0.241346566641051 0.58160369418113 0.595670662085737 H 0.0 **** 0.0
163 H60190 0.25903694757835 0.593030306669563 0.57397922686468 H 0.0 **** 0.0
164 H60192 0.290137533268556 0.582870181494496 0.59458337312467 H 0.0 **** 0.0
165 H60194 0.290312808467328 0.593322668496295 0.574998353650829 H 0.0 **** 0.0
166 H60196 0.273996734947824 0.571637354637204 0.613925716159644 H 0.0 **** 0.0
167 H60198 0.259864796784706 0.650491002119797 0.619345022854412 H 0.0 **** 0.0
168 H60200 0.280357851507972 0.642614153264778 0.616111604174144 H 0.0 **** 0.0
169 H60202 0.271758085677934 0.648910523352658 0.588123333969263 H 0.0 **** 0.0
170 H60204 0.250451610253214 0.64353753869882 0.592040546054065 H 0.0 **** 0.0
171 H60206 0.267212070376715 0.62251457393515 0.572749788341225 H 0.0 **** 0.0
172 H60208 0.272380718338944 0.560844318777695 0.640262707248965 H 0.0 **** 0.0
173 H60209 0.21777990395418 0.542080400764306 0.633598155752868 H 0.0 **** 0.0
174 H60211 0.231195943521295 0.526782437195536 0.624115255305065 H 0.0 **** 0.0
175 H60213 0.233428386213137 0.553002188511204 0.606659610881271 H 0.0 **** 0.0
176 H60215 0.22025590380992 0.521706149521474 0.658246148351292 H 0.0 **** 0.0
177 H60217 0.236725633326307 0.509742879469578 0.649115823292002 H 0.0 **** 0.0
178 H60219 0.245999653356534 0.505259456473431 0.676072408366964 H 0.0 **** 0.0
179 H60221 0.232394527552921 0.520905273116484 0.68436296545924 H 0.0 **** 0.0
180 H60223 0.284606382413286 0.55749609269178 0.662144390297117 H 0.0 **** 0.0
181 H60225 0.272495287853195 0.565043198696876 0.679287629669902 H 0.0 **** 0.0
182 H60227 0.293740685921591 0.532718165777514 0.678856323257288 H 0.0 **** 0.0
183 H60229 0.272330235161469 0.549409185197887 0.706382437175748 H 0.0 **** 0.0
184 H60231 0.28643308472173 0.532599586837373 0.710472185528804 H 0.0 **** 0.0
185 H60233 0.255407934290397 0.524012874560022 0.704618080661096 H 0.0 **** 0.0
186 H60235 0.271323764030348 0.513039224580181 0.693357994440418 H 0.0 **** 0.0
187 H60237 0.232052443368315 0.568143187596332 0.665881482747553 H 0.0 **** 0.0
188 H60239 0.212591366726677 0.606083724287385 0.718057016265551 H 0.0 **** 0.0
189 H60241 0.211691621772992 0.62171642969908 0.744054017971807 H 0.0 **** 0.0
190 H60243 0.259776062002251 0.664351564270232 0.666694338823509 H 0.0 **** 0.0
191 H60245 0.246542876563976 0.637119943436889 0.806576894215129 H 0.0 **** 0.0
192 H60247 0.238900085384721 0.615564583922272 0.791031852566014 H 0.0 **** 0.0
193 H60249 0.205790002460793 0.628804979336815 0.77783875739353 H 0.0 **** 0.0
194 H60251 0.203178928224337 0.615828272154574 0.805600608876586 H 0.0 **** 0.0
195 H60253 0.214843392590104 0.598516122678386 0.797683193495996 H 0.0 **** 0.0
196 H60255 0.236919275964615 0.603984866557369 0.820435554312498 H 0.0 **** 0.0
197 H60257 0.217133220504913 0.597826001156137 0.828780658226705 H 0.0 **** 0.0
198 H60259 0.210259194793519 0.624666414328588 0.838291748671432 H 0.0 **** 0.0
199 H60261 0.210826998869678 0.643994411980846 0.817943999088334 H 0.0 **** 0.0
200 H60263 0.24528311606458 0.655828673369562 0.830066861068306 H 0.0 **** 0.0
201 H60265 0.226867788919884 0.667908278631751 0.82576125524966 H 0.0 **** 0.0
202 H60267 0.212852312795815 0.655138491800109 0.850690117340942 H 0.0 **** 0.0
203 H60269 0.231394395618837 0.665443392704599 0.857252867156771 H 0.0 **** 0.0
204 H60271 0.22341647260685 0.633860352958613 0.867874210417981 H 0.0 **** 0.0
205 H60273 0.244614404480888 0.639841014704456 0.865171622546816 H 0.0 **** 0.0
206 H60275 0.246710146842838 0.623631944676672 0.841697377839586 H 0.0 **** 0.0
207 H60277 0.239282913987874 0.718491206145819 0.678316653586251 H 0.0 **** 0.0
208 H60279 0.252924785794603 0.705524398153518 0.654608885865635 H 0.0 **** 0.0
209 H60281 0.283307325078793 0.696468309782938 0.676104055259163 H 0.0 **** 0.0
210 H60283 0.28096305896379 0.695140780860282 0.654045874875487 H 0.0 **** 0.0
211 H60285 0.297157340856051 0.720048489224703 0.654548718099992 H 0.0 **** 0.0
212 H60287 0.29152311433283 0.724515163548297 0.675611538353143 H 0.0 **** 0.0
213 H60289 0.268808936413217 0.730818008083005 0.64502360704991 H 0.0 **** 0.0
214 H60291 0.280172527538518 0.746547341195087 0.656068765219915 H 0.0 **** 0.0
215 H60293 0.248538362556063 0.742808944083622 0.664034995971401 H 0.0 **** 0.0
216 H60295 0.262903553972078 0.743907959613918 0.680923251586085 H 0.0 **** 0.0
217 H60297 0.257501437694787 0.727321367288991 0.722932060389795 H 0.0 **** 0.0
218 H60299 0.260523646330374 0.740770835931474 0.750388135312761 H 0.0 **** 0.0
219 H60301 0.252077890567354 0.668685910472794 0.804152041006751 H 0.0 **** 0.0
220 H60303 0.248929200669844 0.684826373943976 0.830616731067309 H 0.0 **** 0.0
221 H60305 0.246677443164373 0.710368463970062 0.841272829086201 H 0.0 **** 0.0
222 H60307 0.28493339378983 0.709682629045218 0.846885286114364 H 0.0 **** 0.0
223 H60309 0.257195149016451 0.689737160157871 0.864845185660973 H 0.0 **** 0.0
224 H60311 0.278243904753918 0.691316486689636 0.872257423200688 H 0.0 **** 0.0
225 H60313 0.267462355339705 0.665964050066579 0.851003205789012 H 0.0 **** 0.0
226 H60315 0.288647732236397 0.672556619096423 0.852548557280145 H 0.0 **** 0.0
227 H60317 0.276365555766195 0.670085387786995 0.822514417850475 H 0.0 **** 0.0
228 H60319 0.287068253646906 0.689105187105182 0.826976646625788 H 0.0 **** 0.0
229 H60321 0.311154451191904 0.557532306124431 0.677120323609997 H 0.0 **** 0.0
230 H60323 0.313227571318248 0.578830554949783 0.700267668801265 H 0.0 **** 0.0
231 H60325 0.294673297307529 0.570471533387166 0.709830561742377 H 0.0 **** 0.0
232 H60327 0.293624671551738 0.580279165198548 0.68960539603013 H 0.0 **** 0.0
233 H60329 0.320788568586894 0.532801072236352 0.694733945604623 H 0.0 **** 0.0
234 H60331 0.313074533288108 0.543379947940046 0.713055153736646 H 0.0 **** 0.0
235 H60333 0.329800119242767 0.552382406019738 0.701091531872357 H 0.0 **** 0.0
236 H60335 0.231633171730365 0.611557137803901 0.761895415539227 H 0.0 **** 0.0
237 H60337 0.267582227377556 0.771125947054744 0.787030008931627 H 0.0 **** 0.0
238 H60339 0.269706163607591 0.797129327265715 0.802613541837248 H 0.0 **** 0.0
239 H60341 0.270683295368889 0.812099433923217 0.828238660060063 H 0.0 **** 0.0
240 H60343 0.272108103895808 0.827676123744954 0.854432206142701 H 0.0 **** 0.0
241 H60345 0.273256031916797 0.828389995024504 0.884761120998356 H 0.0 **** 0.0
242 H60347 0.272907653707429 0.788945789733884 0.928112543039225 H 0.0 **** 0.0
243 H60349 0.273764235865418 0.81429760120483 0.911825904467605 H 0.0 **** 0.0
244 H60351 0.270939654351749 0.712434409712145 0.886313367096647 H 0.0 **** 0.0
245 H60353 0.261013396598641 0.713354559292838 0.91013326726231 H 0.0 **** 0.0
246 H60355 0.28168162997931 0.718098237054381 0.917392429532081 H 0.0 **** 0.0
247 H60357 0.261999555351146 0.713075914011095 0.941707434470992 H 0.0 **** 0.0
248 H60359 0.248026427305755 0.728674610322847 0.933733021510463 H 0.0 **** 0.0
249 H60361 0.284516600836971 0.734078930108232 0.946459189609868 H 0.0 **** 0.0
250 H60363 0.266374433124247 0.742996243087478 0.955567326545819 H 0.0 **** 0.0
@<TRIPOS>BOND
1 3 2 1
2 4 3 1
3 5 4 1
4 6 5 1
5 1 2 1
6 1 6 1
7 8 7 1
8 9 8 1
9 10 9 1
10 4 7 1
11 3 10 1
12 12 11 1
13 13 12 1
14 14 13 1
15 8 11 1
16 7 14 1
17 16 15 1
18 17 16 Partial double
19 18 17 1
20 13 15 1
21 12 18 1
22 20 19 Partial double
23 21 20 Partial double
24 22 21 Partial double
25 17 19 Partial double
26 16 22 Partial double
27 24 23 1
28 25 24 1
29 15 25 Double
30 22 23 1
31 27 26 1
32 28 27 Partial double
33 29 28 Partial double
34 21 26 1
35 20 29 Partial double
36 31 30 1
37 32 31 1
38 18 30 1
39 19 32 1
40 34 33 Double
41 35 34 1
42 36 35 1
43 31 33 1
44 30 36 Double
45 38 37 1
46 39 38 1
47 40 39 Double
48 34 37 1
49 33 40 1
50 42 41 1
51 43 42 1
52 44 43 1
53 40 41 1
54 39 44 1
55 46 45 Partial double
56 32 46 1
57 29 45 Partial double
58 48 47 Partial double
59 49 48 1
60 45 49 Partial double
61 28 47 Partial double
62 51 50 Partial double
63 52 51 Partial double
64 53 52 Partial double
65 48 50 Partial double
66 47 53 Partial double
67 55 54 Partial double
68 56 55 Partial double
69 57 56 Partial double
70 52 54 Partial double
71 51 57 Partial double
72 59 58 Partial double
73 60 59 Partial double
74 61 60 Partial double
75 56 58 Partial double
76 55 61 Partial double
77 63 62 Partial double
78 27 63 Partial double
79 53 62 Partial double
80 65 64 Partial double
81 62 65 Partial double
82 54 64 Partial double
83 67 66 Partial double
84 64 67 Partial double
85 61 66 Partial double
86 69 68 Partial double
87 70 69 Partial double
88 66 70 Partial double
89 60 68 Partial double
90 72 71 1
91 73 72 1
92 74 73 1
93 59 71 1
94 58 74 1
95 76 75 1
96 77 76 1
97 78 77 1
98 73 75 1
99 72 78 1
100 80 79 1
101 81 80 1
102 82 81 1
103 78 79 1
104 77 82 1
105 84 83 Partial double
106 85 84 Partial double
107 67 85 Partial double
108 65 83 Partial double
109 87 86 1
110 88 87 1
111 89 88 1
112 84 86 1
113 83 89 1
114 91 90 1
115 92 91 1
116 93 92 1
117 88 90 1
118 87 93 1
119 95 94 Partial double
120 85 95 Partial double
121 70 94 Partial double
122 97 96 Partial double
123 98 97 Partial double
124 94 98 Partial double
125 69 96 Partial double
126 100 99 Partial double
127 101 100 Partial double
128 68 101 Partial double
129 96 99 Partial double
130 103 102 1
131 104 103 Partial double
132 97 102 1
133 99 104 1
134 106 105 1
135 107 106 1
136 100 105 1
137 104 107 Partial double
138 109 108 1
139 110 109 1
140 111 110 1
141 106 108 1
142 105 111 1
143 113 112 1
144 114 113 1
145 103 114 Partial double
146 107 112 Partial double
147 108 115 1
148 112 116 Partial double
149 115 116 Partial double
150 42 117 1
151 117 118 1
152 117 119 1
153 74 120 1
154 122 121 1
155 123 122 Partial double
156 124 123 1
157 114 121 Partial double
158 113 124 Partial double
159 126 125 Partial double
160 127 126 1
161 128 127 Partial double
162 124 125 Partial double
163 123 128 Partial double
164 130 129 Partial double
165 131 130 1
166 132 131 1
167 127 129 Partial double
168 126 132 Partial double
169 134 133 Partial double
170 135 134 Partial double
171 125 135 Partial double
172 132 133 Partial double
173 137 136 Partial double
174 138 137 Partial double
175 131 138 Partial double
176 133 136 Partial double
177 140 139 Partial double
178 134 140 Partial double
179 116 135 Partial double
180 115 139 Partial double
181 142 141 Partial double
182 140 142 Partial double
183 136 141 Partial double
184 144 143 1
185 145 144 1
186 146 145 1
187 142 143 1
188 141 146 1
189 146 147 Double
190 1 148 1
191 1 149 1
192 2 150 1
193 2 151 1
194 3 152 1
195 4 153 1
196 5 154 1
197 5 155 1
198 7 156 1
199 8 157 1
200 9 158 1
201 9 159 1
202 10 160 1
203 10 161 1
204 12 162 1
205 13 163 1
206 14 164 1
207 14 165 1
208 18 166 1
209 23 167 1
210 23 168 1
211 24 169 1
212 24 170 1
213 25 171 1
214 35 173 1
215 35 174 1
216 36 175 1
217 37 176 1
218 37 177 1
219 38 178 1
220 38 179 1
221 41 180 1
222 41 181 1
223 42 182 1
224 43 183 1
225 43 184 1
226 44 185 1
227 44 186 1
228 46 187 1
229 50 188 1
230 57 189 1
231 63 190 1
232 72 191 1
233 73 192 1
234 74 193 1
235 75 194 1
236 75 195 1
237 76 196 1
238 76 197 1
239 77 198 1
240 78 199 1
241 79 200 1
242 79 201 1
243 80 202 1
244 80 203 1
245 81 204 1
246 81 205 1
247 82 206 1
248 87 207 1
249 88 208 1
250 90 209 1
251 90 210 1
252 91 211 1
253 91 212 1
254 92 213 1
255 92 214 1
256 93 215 1
257 93 216 1
258 95 217 1
259 98 218 1
260 101 219 1
261 105 220 1
262 106 221 1
263 108 222 1
264 109 223 1
265 109 224 1
266 110 225 1
267 110 226 1
268 111 227 1
269 111 228 1
270 117 229 1
271 118 230 1
272 118 231 1
273 118 232 1
274 119 233 1
275 119 234 1
276 119 235 1
277 120 236 1
278 121 237 1
279 122 238 1
280 128 239 1
281 129 240 1
282 130 241 1
283 137 242 1
284 138 243 1
285 139 244 1
286 143 245 1
287 143 246 1
288 144 247 1
289 144 248 1
290 145 249 1
291 145 250 1
292 31 172 1
@<TRIPOS>MOLECULE
Sketch 4
250 292
SMALL
USER_CHARGES


@<TRIPOS>ATOM
1 C60366 0.589599151997948 -0.0443974967739496 0.606784316857515 C 0.0 **** 0.0
2 C60367 0.597830817482874 -0.0602296029384132 0.598748578781927 C 0.0 **** 0.0
3 C60368 0.613763994588064 -0.0660612875336605 0.608287193783094 C 0.0 **** 0.0
4 C60369 0.62655669407339 -0.0510948522952158 0.610840435777245 C 0.0 **** 0.0
5 C60370 0.617273305835348 -0.0339376357482465 0.60870785100207 C 0.0 **** 0.0
6 O60371 0.600995226568211 -0.0342614052637959 0.616347426077853 O 0.0 **** 0.0
7 C60378 0.642497592738402 -0.0529329544883474 0.599565805576032 C 0.0 **** 0.0
8 C60379 0.651852105592351 -0.0699875684619149 0.602718918396394 C 0.0 **** 0.0
9 C60380 0.639626684060819 -0.0846552087711608 0.606501151983999 C 0.0 **** 0.0
10 C60381 0.621771018736258 -0.0816590384933238 0.599781194941632 C 0.0 **** 0.0
11 O60387 0.662857078918416 -0.0696977257157678 0.617033403456277 O 0.0 **** 0.0
12 C60388 0.675150247557678 -0.0564595912824734 0.617287224314823 C 0.0 **** 0.0
13 C60389 0.665881141441199 -0.0394064602039414 0.616853054116014 C 0.0 **** 0.0
14 C60390 0.655069012296665 -0.0379968582205352 0.600864493666262 C 0.0 **** 0.0
15 C60396 0.678428776211825 -0.0252259527095444 0.619379340615125 C 0.0 **** 0.0
16 C60397 0.695422618416226 -0.0270362950758346 0.610977000859951 C 0.0 **** 0.0
17 C60398 0.700197111448052 -0.0422741432976459 0.603613552163374 C 0.0 **** 0.0
18 C60399 0.688500012455515 -0.057630185768023 0.603320867491855 C 0.0 **** 0.0
19 C60405 0.715904319047966 -0.0433610285063774 0.595729782985576 C 0.0 **** 0.0
20 C60406 0.725777352491725 -0.028992155013727 0.59431528143823 C 0.0 **** 0.0
21 C60407 0.721639064922842 -0.0142915513947845 0.602910810848316 C 0.0 **** 0.0
22 C60408 0.706263245193725 -0.0132390852144607 0.611260409125093 C 0.0 **** 0.0
23 C60414 0.701114341564952 0.00348033170326751 0.619135482746739 C 0.0 **** 0.0
24 C60415 0.688517732584126 0.00099985181842083 0.633874702249382 C 0.0 **** 0.0
25 C60416 0.675295842826673 -0.0121334665415289 0.629837123800523 C 0.0 **** 0.0
26 O60421 0.732488788529782 -0.000558101584105275 0.603224614908819 O 0.0 **** 0.0
27 C60422 0.743936025863522 0.00106550615346681 0.590225420713586 C 0.0 **** 0.0
28 C60423 0.74831766099981 -0.0121501227634107 0.579519069263644 C 0.0 **** 0.0
29 C60424 0.740195689170667 -0.0291039486583911 0.582121325843669 C 0.0 **** 0.0
30 C60430 0.699612072458929 -0.0730474071260357 0.603518344952585 C 0.0 **** 0.0
31 C60431 0.709502292747767 -0.0739553857760165 0.587129239532966 C 0.0 **** 0.0
32 C60432 0.722969529855693 -0.0599206204769793 0.589048450450186 C 0.0 **** 0.0
33 C60437 0.716960605258166 -0.0917633966478835 0.583636677375151 C 0.0 **** 0.0
34 C60438 0.720953436097691 -0.10138761290242 0.597429280619659 C 0.0 **** 0.0
35 C60439 0.717108044310217 -0.0961683427231194 0.615535351940194 C 0.0 **** 0.0
36 C60440 0.703219546603086 -0.0830681513773377 0.616718250083121 C 0.0 **** 0.0
37 C60446 0.727671766007422 -0.119100601581215 0.596434923841162 C 0.0 **** 0.0
38 C60447 0.733239388067757 -0.124447623041528 0.578588837102456 C 0.0 **** 0.0
39 C60448 0.726257740556619 -0.113395975020861 0.564789628694798 C 0.0 **** 0.0
40 C60449 0.718829560711704 -0.0980482876893419 0.567596100630244 C 0.0 **** 0.0
41 C60455 0.712565407025825 -0.0881587789390488 0.552025449006814 C 0.0 **** 0.0
42 C60456 0.709876892545463 -0.0988730576516432 0.536283274104352 C 0.0 **** 0.0
43 C60457 0.725840115909074 -0.109411257116555 0.532892691763974 C 0.0 **** 0.0
44 C60458 0.729191679011788 -0.121373865189333 0.547647312024883 C 0.0 **** 0.0
45 C60464 0.743982388034412 -0.0429443761695045 0.572627726669304 C 0.0 **** 0.0
46 C60465 0.735831833866253 -0.0579572532101948 0.574887858695156 C 0.0 **** 0.0
47 C60469 0.758052291829874 -0.00860892863676429 0.564806945106494 C 0.0 **** 0.0
48 C60470 0.760089976354248 -0.0206423782727657 0.551892309301685 C 0.0 **** 0.0
49 S60471 0.759763263571277 -0.0418939934538613 0.557233552762674 S 0.0 **** 0.0
50 C60476 0.761042061584467 -0.0159988750359527 0.535136685312614 C 0.0 **** 0.0
51 C60477 0.761796951360846 0.00139185232614995 0.530936498046324 C 0.0 **** 0.0
52 C60478 0.763330879398984 0.0134355673736861 0.544120254660216 C 0.0 **** 0.0
53 C60479 0.76200468925931 0.0082518425892604 0.561037545006124 C 0.0 **** 0.0
54 C60485 0.764237597130413 0.0305642784090699 0.540119086842642 C 0.0 **** 0.0
55 C60486 0.762002040165454 0.0361060233107444 0.523454576452931 C 0.0 **** 0.0
56 C60487 0.758141766760882 0.0244984485866245 0.510506293249115 C 0.0 **** 0.0
57 C60488 0.759809796230844 0.00718519953840999 0.514232595850409 C 0.0 **** 0.0
58 C60494 0.751405055458757 0.0302129627143643 0.494981940571166 C 0.0 **** 0.0
59 C60495 0.752309545725829 0.0472752565074503 0.491180485738033 C 0.0 **** 0.0
60 C60496 0.759109716216243 0.0588013185661857 0.503177076571402 C 0.0 **** 0.0
61 C60497 0.762256804066357 0.0532253962048476 0.519686442084704 C 0.0 **** 0.0
62 C60503 0.761102577436166 0.020545464271411 0.573729954526193 C 0.0 **** 0.0
63 C60504 0.751204593553821 0.0166977139992548 0.588112531934933 C 0.0 **** 0.0
64 C60508 0.766396123024889 0.0423427881940133 0.553037173510227 C 0.0 **** 0.0
65 C60509 0.766324674335809 0.0371959907579694 0.570001731045399 C 0.0 **** 0.0
66 C60513 0.765598418036137 0.0648475384036086 0.532537265256183 C 0.0 **** 0.0
67 C60514 0.767934861134837 0.059267758232863 0.549129037879932 C 0.0 **** 0.0
68 C60518 0.762605097394168 0.0760350930224105 0.499100968775483 C 0.0 **** 0.0
69 C60519 0.765522339532764 0.0876256383747444 0.512280545295132 C 0.0 **** 0.0
70 C60520 0.767230234256558 0.0819486237538885 0.52875752467884 C 0.0 **** 0.0
71 O60525 0.746599991419059 0.0536089184807049 0.475742956118761 O 0.0 **** 0.0
72 C60526 0.742926992348256 0.0424253708095848 0.462000008867657 C 0.0 **** 0.0
73 C60527 0.734007791702642 0.0265700783732635 0.468487324979786 C 0.0 **** 0.0
74 C60528 0.743852712885503 0.0177338878159892 0.482465154312336 C 0.0 **** 0.0
75 C60534 0.729234164046086 0.013963838664364 0.454268305215867 C 0.0 **** 0.0
76 C60535 0.738926599178668 0.0170033933607255 0.437703016018216 C 0.0 **** 0.0
77 C60536 0.757350689949231 0.0221908863720616 0.440725374986935 C 0.0 **** 0.0
78 C60537 0.758667858442246 0.0391859539971488 0.45084234459829 C 0.0 **** 0.0
79 C60543 0.762418250757944 0.0543088151757315 0.439093542083283 C 0.0 **** 0.0
80 C60544 0.77801042510781 0.0511147374570585 0.427699320379052 C 0.0 **** 0.0
81 C60545 0.781782640014507 0.0321468460974 0.425099302459943 C 0.0 **** 0.0
82 N60546 0.766352698930574 0.0222323094581011 0.424515902244586 N 0.0 **** 0.0
83 C60552 0.770078186445059 0.0487262368456574 0.583163011294053 C 0.0 **** 0.0
84 C60553 0.772594833357944 0.0655761958874781 0.579267109893585 C 0.0 **** 0.0
85 C60554 0.771907602295565 0.0706957503057244 0.562134283458787 C 0.0 **** 0.0
86 O60559 0.77561268328236 0.0777677732721771 0.591474632749259 O 0.0 **** 0.0
87 C60560 0.781234904218105 0.0709079473534982 0.60718379414002 C 0.0 **** 0.0
88 C60561 0.770876010495993 0.0557938523247878 0.612260915186119 C 0.0 **** 0.0
89 O60562 0.771124278477 0.0428502788746678 0.599650451672208 O 0.0 **** 0.0
90 C60568 0.752484107540126 0.0602572159950661 0.617090264233744 C 0.0 **** 0.0
91 C60569 0.750784617688985 0.0766692604868192 0.627612441264807 C 0.0 **** 0.0
92 C60570 0.767817596971764 0.082582465932609 0.634759822289879 C 0.0 **** 0.0
93 C60571 0.78104519246039 0.0851307929439641 0.620618781676206 C 0.0 **** 0.0
94 C60577 0.772084547191936 0.0935066211194833 0.541568894219283 C 0.0 **** 0.0
95 C60578 0.774995473652845 0.087607362842886 0.558064937026342 C 0.0 **** 0.0
96 C60582 0.768538554577972 0.104670879245256 0.508466686655786 C 0.0 **** 0.0
97 C60583 0.771929209236183 0.116451087040918 0.521482992076769 C 0.0 **** 0.0
98 C60584 0.773793190024969 0.110814469308596 0.537726025941036 C 0.0 **** 0.0
99 C60589 0.769615780871161 0.11021759669025 0.491610943465963 C 0.0 **** 0.0
100 C60590 0.767772464812916 0.0988530611703782 0.478465404200774 C 0.0 **** 0.0
101 C60591 0.764750512900636 0.0821731834802639 0.482469139197278 C 0.0 **** 0.0
102 O60596 0.774004483629182 0.13344400318561 0.518498064842447 O 0.0 **** 0.0
103 C60597 0.775207168863111 0.139046762346141 0.502109313127182 C 0.0 **** 0.0
104 C60598 0.773408355184744 0.128477400484304 0.488549103023747 C 0.0 **** 0.0
105 C60603 0.7693784736745 0.103736031825553 0.459914080288979 C 0.0 **** 0.0
106 C60604 0.775570654764861 0.12276257576975 0.457052548484348 C 0.0 **** 0.0
107 C60605 0.77521061126027 0.13447024575491 0.472454244236258 C 0.0 **** 0.0
108 C60610 0.766502391795877 0.131046667332093 0.44184679598235 C 0.0 **** 0.0
109 C60611 0.765685493648081 0.118890593566994 0.42671578087435 C 0.0 **** 0.0
110 C60612 0.754922596998355 0.103088693135726 0.43111393576558 C 0.0 **** 0.0
111 C60613 0.752825257416798 0.100430869531251 0.450336935383165 C 0.0 **** 0.0
112 C60619 0.777061279199513 0.151489478220873 0.470024223747989 C 0.0 **** 0.0
113 C60620 0.77842122047992 0.162158745287457 0.483675296600931 C 0.0 **** 0.0
114 C60621 0.778021379292286 0.15586107724239 0.499665414857439 C 0.0 **** 0.0
115 C60626 0.774589980214501 0.148212866766626 0.438231505257475 C 0.0 **** 0.0
116 C60628 0.778127005441058 0.158259724426252 0.45223475649429 C 0.0 **** 0.0
117 C60631 0.704064445520471 -0.0876907464669308 0.521324545740682 C 0.0 **** 0.0
118 C60633 0.717847576193169 -0.0760665898408538 0.514147709113097 C 0.0 **** 0.0
119 C60635 0.696408371049167 -0.0980606550666861 0.506912656186443 C 0.0 **** 0.0
120 O60637 0.732641043105981 0.00626866584630328 0.490761974279128 O 0.0 **** 0.0
121 C60639 0.780269217076378 0.166378477665174 0.51321657105701 C 0.0 **** 0.0
122 C60640 0.781826803940184 0.183347910189059 0.510906423301114 C 0.0 **** 0.0
123 C60641 0.780915181277893 0.189999420246564 0.495049124414878 C 0.0 **** 0.0
124 C60642 0.780076897049146 0.179223692884646 0.481530866604881 C 0.0 **** 0.0
125 C60648 0.780690462407155 0.186313713823065 0.464303696567475 C 0.0 **** 0.0
126 C60649 0.779924543290951 0.203464429219945 0.462389936568729 C 0.0 **** 0.0
127 C60650 0.779336485024488 0.214470101554124 0.477469162897054 C 0.0 **** 0.0
128 C60651 0.780534619085689 0.207351252465713 0.493225511361355 C 0.0 **** 0.0
129 C60657 0.777652938263527 0.231556507613772 0.475334823489792 C 0.0 **** 0.0
130 C60658 0.777166947089111 0.238681284926847 0.459496896089065 C 0.0 **** 0.0
131 C60659 0.77840573137805 0.22904084702757 0.44514871132422 C 0.0 **** 0.0
132 C60660 0.779536186135729 0.210448555756162 0.446589727525795 C 0.0 **** 0.0
133 C60666 0.780621866429554 0.200266357363965 0.432120337118526 C 0.0 **** 0.0
134 C60667 0.781580336522752 0.182728723128958 0.43413071026108 C 0.0 **** 0.0
135 C60668 0.780897909391123 0.175607980067527 0.450259850148524 C 0.0 **** 0.0
136 C60673 0.781709451050645 0.20735773330329 0.415981681398247 C 0.0 **** 0.0
137 C60674 0.780318781469883 0.226497477760595 0.415395513438875 C 0.0 **** 0.0
138 C60675 0.778695284071809 0.236343846385675 0.429524096126857 C 0.0 **** 0.0
139 C60680 0.777467133701716 0.154974209480737 0.422345114345653 C 0.0 **** 0.0
140 C60681 0.782403549433453 0.172173336377636 0.419988896747418 C 0.0 **** 0.0
141 C60686 0.785557595779378 0.196950575794827 0.402266088426086 C 0.0 **** 0.0
142 C60687 0.786711687689828 0.179453366026785 0.404303304137309 C 0.0 **** 0.0
143 C60691 0.79168016337554 0.16822640527572 0.389556140695152 C 0.0 **** 0.0
144 C60692 0.806096252023194 0.176814830216916 0.37982508618193 C 0.0 **** 0.0
145 C60693 0.800141229526255 0.193916683634535 0.373496714652576 C 0.0 **** 0.0
146 C60694 0.788935894483125 0.204103685438638 0.385058050489092 C 0.0 **** 0.0
147 O60700 0.782933058358627 0.217143381185358 0.379638161327367 O 0.0 **** 0.0
148 H60702 0.579631420713731 -0.0481600600923538 0.615710539062089 H 0.0 **** 0.0
149 H60704 0.583520356873422 -0.036729740827007 0.596867480282503 H 0.0 **** 0.0
150 H60706 0.588563373321854 -0.0706164053735368 0.597978354212707 H 0.0 **** 0.0
151 H60708 0.601519893691835 -0.0574442228970961 0.585572031371329 H 0.0 **** 0.0
152 H60710 0.609634654728887 -0.0699913861077087 0.621046113092167 H 0.0 **** 0.0
153 H60712 0.630858520811707 -0.0517987612497226 0.624107703814488 H 0.0 **** 0.0
154 H60714 0.616345722411971 -0.0304746510896843 0.595206914419542 H 0.0 **** 0.0
155 H60716 0.624256490361679 -0.0237025735488007 0.615011538822251 H 0.0 **** 0.0
156 H60718 0.637771271640935 -0.0533207685754037 0.586411943675379 H 0.0 **** 0.0
157 H60720 0.659167656103149 -0.0729474347309492 0.591197028274725 H 0.0 **** 0.0
158 H60722 0.638786532398221 -0.0858073586744801 0.620353609298464 H 0.0 **** 0.0
159 H60724 0.644796893424105 -0.0967608991234404 0.601949255179514 H 0.0 **** 0.0
160 H60726 0.613737342118729 -0.0928373776053523 0.602013765349461 H 0.0 **** 0.0
161 H60728 0.622296631247481 -0.0798576319652003 0.585961083124831 H 0.0 **** 0.0
162 H60730 0.681456488124583 -0.0578124179537274 0.6296136827169 H 0.0 **** 0.0
163 H60732 0.65715739808833 -0.0392171734504954 0.627703826541522 H 0.0 **** 0.0
164 H60734 0.663322562370217 -0.0382315318652401 0.589652740222034 H 0.0 **** 0.0
165 H60736 0.648445525571433 -0.0257583387144252 0.600276808768371 H 0.0 **** 0.0
166 H60738 0.681736990608488 -0.0577168309733865 0.591081503478449 H 0.0 **** 0.0
167 H60740 0.712256176118014 0.010454817922909 0.623708517651307 H 0.0 **** 0.0
168 H60742 0.695247185777486 0.0114667912624473 0.609306543101939 H 0.0 **** 0.0
169 H60744 0.682383753765277 0.0131572377246612 0.636935727714503 H 0.0 **** 0.0
170 H60746 0.695413480684947 -0.0029691932362565 0.645318079944556 H 0.0 **** 0.0
171 H60748 0.663449720136961 -0.0108954629336694 0.636703143594367 H 0.0 **** 0.0
172 H60750 0.700749314524973 -0.0705117753423175 0.576914352994265 H 0.0 **** 0.0
173 H60751 0.72868338557446 -0.0913912070235437 0.621664257342884 H 0.0 **** 0.0
174 H60753 0.71318457690136 -0.107433038366554 0.622770253723993 H 0.0 **** 0.0
175 H60755 0.697056792119428 -0.0813689330100491 0.62891945146057 H 0.0 **** 0.0
176 H60757 0.738370988522609 -0.120536693732156 0.605296897809604 H 0.0 **** 0.0
177 H60759 0.717678605157565 -0.127764926174476 0.60086873419184 H 0.0 **** 0.0
178 H60761 0.729402264542949 -0.13769496095131 0.576389228172172 H 0.0 **** 0.0
179 H60763 0.74716281511371 -0.124153755130058 0.577762205002294 H 0.0 **** 0.0
180 H60765 0.700487256357478 -0.0818968612552939 0.554903271586454 H 0.0 **** 0.0
181 H60767 0.721712501944178 -0.0780949804069879 0.549157676074659 H 0.0 **** 0.0
182 H60769 0.699447114003518 -0.107810740207834 0.538961330516364 H 0.0 **** 0.0
183 H60771 0.736720763313578 -0.100853743355681 0.531237225150981 H 0.0 **** 0.0
184 H60773 0.724731151973222 -0.116774944157999 0.521111055742061 H 0.0 **** 0.0
185 H60775 0.742261519500543 -0.126249409555064 0.546999389892472 H 0.0 **** 0.0
186 H60777 0.720763483134222 -0.132454086511582 0.546585626662474 H 0.0 **** 0.0
187 H60779 0.738964385328373 -0.0689670691932512 0.567282522189007 H 0.0 **** 0.0
188 H60781 0.760903783187021 -0.0254481128293317 0.524991428238933 H 0.0 **** 0.0
189 H60783 0.757716241026587 -0.0023963140492672 0.504403711863546 H 0.0 **** 0.0
190 H60785 0.747742897562451 0.0264927738626045 0.597307649682962 H 0.0 **** 0.0
191 H60787 0.733562343634025 0.0490545168793456 0.454027566490675 H 0.0 **** 0.0
192 H60789 0.722271412180469 0.0310659973624913 0.474550851093576 H 0.0 **** 0.0
193 H60791 0.75403911534967 0.00996737500263823 0.477048436208528 H 0.0 **** 0.0
194 H60793 0.731728576734035 0.000924869739790921 0.458553184909542 H 0.0 **** 0.0
195 H60795 0.715589676265125 0.0143776100247965 0.451766476111967 H 0.0 **** 0.0
196 H60797 0.732661102564435 0.0270511365946317 0.430337718696937 H 0.0 **** 0.0
197 H60799 0.738455440309317 0.00548594350629203 0.429854179926138 H 0.0 **** 0.0
198 H60801 0.763213903902174 0.0121325508965794 0.448430270425026 H 0.0 **** 0.0
199 H60803 0.76951827119523 0.0382456358726091 0.459514718279792 H 0.0 **** 0.0
200 H60805 0.751283875990148 0.0563698569637651 0.430944068901293 H 0.0 **** 0.0
201 H60807 0.764141483681934 0.065996996634236 0.446380502000969 H 0.0 **** 0.0
202 H60809 0.789331053717972 0.0571989230689621 0.433043848746692 H 0.0 **** 0.0
203 H60811 0.775887780849885 0.0572578662806521 0.415362846827253 H 0.0 **** 0.0
204 H60813 0.789581748276189 0.0274018657051213 0.435586743240251 H 0.0 **** 0.0
205 H60815 0.789296844491978 0.0300993052071529 0.413534903637461 H 0.0 **** 0.0
206 H60817 0.758815097487115 0.0267669262707571 0.415358677074767 H 0.0 **** 0.0
207 H60819 0.794298807867885 0.0666100970931035 0.605208871311094 H 0.0 **** 0.0
208 H60821 0.777005553796932 0.0503911337243198 0.623578258072305 H 0.0 **** 0.0
209 H60823 0.745017082514197 0.0613266691484802 0.605393921815323 H 0.0 **** 0.0
210 H60825 0.747052709912439 0.0494517165331477 0.624019348552893 H 0.0 **** 0.0
211 H60827 0.741516602421236 0.074917857516445 0.637867029411124 H 0.0 **** 0.0
212 H60829 0.745677533058633 0.0867999352849132 0.619567426198615 H 0.0 **** 0.0
213 H60831 0.772411635651712 0.0730756196944712 0.643847000779641 H 0.0 **** 0.0
214 H60833 0.766283521053164 0.0944165752611498 0.641981512025954 H 0.0 **** 0.0
215 H60835 0.793585580994418 0.0871106015103389 0.626346180580291 H 0.0 **** 0.0
216 H60837 0.778092174024869 0.0969659685922084 0.613899920703469 H 0.0 **** 0.0
217 H60839 0.7784202676503 0.0966853893661493 0.567995038869647 H 0.0 **** 0.0
218 H60841 0.77703143726908 0.119810184623449 0.547822310763059 H 0.0 **** 0.0
219 H60843 0.764356200032019 0.073448373511324 0.471766851073447 H 0.0 **** 0.0
220 H60845 0.779178957332754 0.0955921784752431 0.454185306290851 H 0.0 **** 0.0
221 H60847 0.789017818719466 0.121690501935122 0.453487539164252 H 0.0 **** 0.0
222 H60849 0.753259109794994 0.133696923498564 0.445542980368309 H 0.0 **** 0.0
223 H60851 0.778643350398367 0.115048668800179 0.423340472078537 H 0.0 **** 0.0
224 H60853 0.760252251773711 0.125079627258655 0.415492045369872 H 0.0 **** 0.0
225 H60855 0.760691112046578 0.0917409886254917 0.425459342963778 H 0.0 **** 0.0
226 H60857 0.742286725045429 0.104242059284637 0.425344437512231 H 0.0 **** 0.0
227 H60859 0.747776745769733 0.087679061886216 0.452765139346052 H 0.0 **** 0.0
228 H60861 0.743218130908981 0.109236077389968 0.455155244590003 H 0.0 **** 0.0
229 H60863 0.693800194014135 -0.0794896280962644 0.526135202493551 H 0.0 **** 0.0
230 H60865 0.712581868573535 -0.0679208713627954 0.504152815619488 H 0.0 **** 0.0
231 H60867 0.728195924256597 -0.083468163011265 0.508507995690927 H 0.0 **** 0.0
232 H60869 0.72336317498173 -0.0677021057198229 0.523792247747753 H 0.0 **** 0.0
233 H60871 0.685578322206399 -0.105630222852901 0.511256061193467 H 0.0 **** 0.0
234 H60873 0.705755654316852 -0.10669918670286 0.501293762741759 H 0.0 **** 0.0
235 H60875 0.691837223802617 -0.0895967131463846 0.496873631407557 H 0.0 **** 0.0
236 H60877 0.724624023510642 0.0131306152821045 0.496788419156755 H 0.0 **** 0.0
237 H60879 0.780484909505438 0.16153113381135 0.526140816172913 H 0.0 **** 0.0
238 H60881 0.783309904792272 0.191347737838648 0.522031109504513 H 0.0 **** 0.0
239 H60883 0.780652530871478 0.215420240168552 0.504432915917028 H 0.0 **** 0.0
240 H60885 0.776705002468874 0.239891227970765 0.486274723951419 H 0.0 **** 0.0
241 H60887 0.775973212394525 0.252407884026176 0.458528020879701 H 0.0 **** 0.0
242 H60889 0.780593351792285 0.232810594342538 0.403247430956384 H 0.0 **** 0.0
243 H60891 0.77789648212717 0.250036143536836 0.428026773479289 H 0.0 **** 0.0
244 H60893 0.77610790005545 0.146751830507398 0.411265317519937 H 0.0 **** 0.0
245 H60895 0.795868424844086 0.155705013943396 0.393901536365105 H 0.0 **** 0.0
246 H60897 0.78089886728661 0.166032537169227 0.381075247847109 H 0.0 **** 0.0
247 H60899 0.810322455788069 0.169010733504229 0.369098674127035 H 0.0 **** 0.0
248 H60901 0.817086170374804 0.178300867164805 0.388279499871127 H 0.0 **** 0.0
249 H60903 0.792209764081702 0.193039876821067 0.362137257348249 H 0.0 **** 0.0
250 H60905 0.810370330751921 0.202777529675731 0.370284373790137 H 0.0 **** 0.0
@<TRIPOS>BOND
1 3 2 1
2 4 3 1
3 5 4 1
4 6 5 1
5 1 2 1
6 1 6 1
7 8 7 1
8 9 8 1
9 10 9 1
10 4 7 1
11 3 10 1
12 12 11 1
13 13 12 1
14 14 13 1
15 8 11 1
16 7 14 1
17 16 15 1
18 17 16 Partial double
19 18 17 1
20 13 15 1
21 12 18 1
22 20 19 Partial double
23 21 20 Partial double
24 22 21 Partial double
25 17 19 Partial double
26 16 22 Partial double
27 24 23 1
28 25 24 1
29 15 25 Double
30 22 23 1
31 27 26 1
32 28 27 Partial double
33 29 28 Partial double
34 21 26 1
35 20 29 Partial double
36 31 30 1
37 32 31 1
38 18 30 1
39 19 32 1
40 34 33 Double
41 35 34 1
42 36 35 1
43 31 33 1
44 30 36 Double
45 38 37 1
46 39 38 1
47 40 39 Double
48 34 37 1
49 33 40 1
50 42 41 1
51 43 42 1
52 44 43 1
53 40 41 1
54 39 44 1
55 46 45 Partial double
56 32 46 1
57 29 45 Partial double
58 48 47 Partial double
59 49 48 1
60 45 49 Partial double
61 28 47 Partial double
62 51 50 Partial double
63 52 51 Partial double
64 53 52 Partial double
65 48 50 Partial double
66 47 53 Partial double
67 55 54 Partial double
68 56 55 Partial double
69 57 56 Partial double
70 52 54 Partial double
71 51 57 Partial double
72 59 58 Partial double
73 60 59 Partial double
74 61 60 Partial double
75 56 58 Partial double
76 55 61 Partial double
77 63 62 Partial double
78 27 63 Partial double
79 53 62 Partial double
80 65 64 Partial double
81 62 65 Partial double
82 54 64 Partial double
83 67 66 Partial double
84 64 67 Partial double
85 61 66 Partial double
86 69 68 Partial double
87 70 69 Partial double
88 66 70 Partial double
89 60 68 Partial double
90 72 71 1
91 73 72 1
92 74 73 1
93 59 71 1
94 58 74 1
95 76 75 1
96 77 76 1
97 78 77 1
98 73 75 1
99 72 78 1
100 80 79 1
101 81 80 1
102 82 81 1
103 78 79 1
104 77 82 1
105 84 83 Partial double
106 85 84 Partial double
107 67 85 Partial double
108 65 83 Partial double
109 87 86 1
110 88 87 1
111 89 88 1
112 84 86 1
113 83 89 1
114 91 90 1
115 92 91 1
116 93 92 1
117 88 90 1
118 87 93 1
119 95 94 Partial double
120 85 95 Partial double
121 70 94 Partial double
122 97 96 Partial double
123 98 97 Partial double
124 94 98 Partial double
125 69 96 Partial double
126 100 99 Partial double
127 101 100 Partial double
128 68 101 Partial double
129 96 99 Partial double
130 103 102 1
131 104 103 Partial double
132 97 102 1
133 99 104 1
134 106 105 1
135 107 106 1
136 100 105 1
137 104 107 Partial double
138 109 108 1
139 110 109 1
140 111 110 1
141 106 108 1
142 105 111 1
143 113 112 1
144 114 113 1
145 103 114 Partial double
146 107 112 Partial double
147 108 115 1
148 112 116 Partial double
149 115 116 Partial double
150 42 117 1
151 117 118 1
152 117 119 1
153 74 120 1
154 122 121 1
155 123 122 Partial double
156 124 123 1
157 114 121 Partial double
158 113 124 Partial double
159 126 125 Partial double
160 127 126 1
161 128 127 Partial double
162 124 125 Partial double
163 123 128 Partial double
164 130 129 Partial double
165 131 130 1
166 132 131 1
167 127 129 Partial double
168 126 132 Partial double
169 134 133 Partial double
170 135 134 Partial double
171 125 135 Partial double
172 132 133 Partial double
173 137 136 Partial double
174 138 137 Partial double
175 131 138 Partial double
176 133 136 Partial double
177 140 139 Partial double
178 134 140 Partial double
179 116 135 Partial double
180 115 139 Partial double
181 142 141 Partial double
182 140 142 Partial double
183 136 141 Partial double
184 144 143 1
185 145 144 1
186 146 145 1
187 142 143 1
188 141 146 1
189 146 147 Double
190 1 148 1
191 1 149 1
192 2 150 1
193 2 151 1
194 3 152 1
195 4 153 1
196 5 154 1
197 5 155 1
198 7 156 1
199 8 157 1
200 9 158 1
201 9 159 1
202 10 160 1
203 10 161 1
204 12 162 1
205 13 163 1
206 14 164 1
207 14 165 1
208 18 166 1
209 23 167 1
210 23 168 1
211 24 169 1
212 24 170 1
213 25 171 1
214 35 173 1
215 35 174 1
216 36 175 1
217 37 176 1
218 37 177 1
219 38 178 1
220 38 179 1
221 41 180 1
222 41 181 1
223 42 182 1
224 43 183 1
225 43 184 1
226 44 185 1
227 44 186 1
228 46 187 1
229 50 188 1
230 57 189 1
231 63 190 1
232 72 191 1
233 73 192 1
234 74 193 1
235 75 194 1
236 75 195 1
237 76 196 1
238 76 197 1
239 77 198 1
240 78 199 1
241 79 200 1
242 79 201 1
243 80 202 1
244 80 203 1
245 81 204 1
246 81 205 1
247 82 206 1
248 87 207 1
249 88 208 1
250 90 209 1
251 90 210 1
252 91 211 1
253 91 212 1
254 92 213 1
255 92 214 1
256 93 215 1
257 93 216 1
258 95 217 1
259 98 218 1
260 101 219 1
261 105 220 1
262 106 221 1
263 108 222 1
264 109 223 1
265 109 224 1
266 110 225 1
267 110 226 1
268 111 227 1
269 111 228 1
270 117 229 1
271 118 230 1
272 118 231 1
273 118 232 1
274 119 233 1
275 119 234 1
276 119 235 1
277 120 236 1
278 121 237 1
279 122 238 1
280 128 239 1
281 129 240 1
282 130 241 1
283 137 242 1
284 138 243 1
285 139 244 1
286 143 245 1
287 143 246 1
288 144 247 1
289 144 248 1
290 145 249 1
291 145 250 1
292 31 172 1
@<TRIPOS>MOLECULE
Sketch 4
250 292
SMALL
USER_CHARGES


@<TRIPOS>ATOM
1 C60908 0.437090406528616 0.434923114733553 0.311727217008797 C 0.0 **** 0.0
2 C60909 0.448982932192449 0.432281370139086 0.327024955338316 C 0.0 **** 0.0
3 C60910 0.455886811181818 0.449160865579314 0.333859359853331 C 0.0 **** 0.0
4 C60911 0.464473981549082 0.459766889726109 0.319452228793582 C 0.0 **** 0.0
5 C60912 0.457831439864063 0.453736981556037 0.302047046157271 C 0.0 **** 0.0
6 O60913 0.440231258364435 0.450227586765527 0.30274616225624 O 0.0 **** 0.0
7 C60920 0.484000181202901 0.459844124987647 0.32072611078196 C 0.0 **** 0.0
8 C60921 0.490262996632545 0.466452327945105 0.338155217711051 C 0.0 **** 0.0
9 C60922 0.478318503334242 0.461813788138453 0.352787573328322 C 0.0 **** 0.0
10 C60923 0.467521985493002 0.446237724485976 0.349163152230724 C 0.0 **** 0.0
11 O60929 0.491280711118302 0.484418196449519 0.338964554728349 O 0.0 **** 0.0
12 C60930 0.501858438900549 0.492174167082182 0.326531174016493 C 0.0 **** 0.0
13 C60931 0.494136675485927 0.488518839141032 0.309133372033171 C 0.0 **** 0.0
14 C60932 0.492947026290959 0.469408891503873 0.306156120299811 C 0.0 **** 0.0
15 C60938 0.503708934515397 0.49782106975757 0.295374277855915 C 0.0 **** 0.0
16 C60939 0.522387162974884 0.501030503479065 0.29792671271314 C 0.0 **** 0.0
17 C60940 0.530198430569278 0.496842925334692 0.313119128523694 C 0.0 **** 0.0
18 C60941 0.52055891439505 0.486860528389023 0.326643443913477 C 0.0 **** 0.0
19 C60947 0.547105169781177 0.501003389860792 0.31547397896218 C 0.0 **** 0.0
20 C60948 0.556306031225189 0.507929826387482 0.302200738330555 C 0.0 **** 0.0
21 C60949 0.548603442567258 0.511426299165624 0.286835411437969 C 0.0 **** 0.0
22 C60950 0.531434578934026 0.508381969592288 0.284813000648039 C 0.0 **** 0.0
23 C60956 0.523253546106296 0.512230735342909 0.26788425346348 C 0.0 **** 0.0
24 C60957 0.504124884631258 0.516036636712905 0.269487332596595 C 0.0 **** 0.0
25 C60958 0.495446386883095 0.504781111241997 0.282179947455239 C 0.0 **** 0.0
26 O60963 0.557652028564038 0.517777199013396 0.273180868326419 O 0.0 **** 0.0
27 C60964 0.574257022714848 0.522742787203629 0.27529480211022 C 0.0 **** 0.0
28 C60965 0.583600512144615 0.519304133268583 0.28972622614321 C 0.0 **** 0.0
29 C60966 0.574924359852632 0.510753279388594 0.304301851030396 C 0.0 **** 0.0
30 C60972 0.529658494062685 0.487099327636117 0.343427533527193 C 0.0 **** 0.0
31 C60973 0.548172374915141 0.482297035114459 0.341391695214905 C 0.0 **** 0.0
32 C60974 0.555516754720197 0.498060144842522 0.332411735591542 C 0.0 **** 0.0
33 C60979 0.557492282913459 0.477723272997199 0.358095103101965 C 0.0 **** 0.0
34 C60980 0.550206768322343 0.482539077261522 0.373004255867612 C 0.0 **** 0.0
35 C60981 0.532826645760081 0.49037881290637 0.37462140142236 C 0.0 **** 0.0
36 C60982 0.52290776470836 0.491218148895371 0.358414467622953 C 0.0 **** 0.0
37 C60988 0.557430903485608 0.478454151524516 0.390089130210563 C 0.0 **** 0.0
38 C60989 0.576309348769879 0.474145009336572 0.389450633169957 C 0.0 **** 0.0
39 C60990 0.581485231994542 0.46688235969751 0.372673610910844 C 0.0 **** 0.0
40 C60991 0.572274112009449 0.468662524556931 0.358158865791794 C 0.0 **** 0.0
41 C60997 0.579300835509713 0.460310823307128 0.341945196588848 C 0.0 **** 0.0
42 C60998 0.59254952824624 0.446753556309871 0.345383630362879 C 0.0 **** 0.0
43 C60999 0.606223989924164 0.454490606876406 0.356768692854442 C 0.0 **** 0.0
44 C61000 0.598689104308128 0.458794452047947 0.373940889373845 C 0.0 **** 0.0
45 C61006 0.583105823203831 0.506017177121677 0.318621407200353 C 0.0 **** 0.0
46 C61007 0.574632648665226 0.499872685546751 0.332272777131572 C 0.0 **** 0.0
47 C61011 0.600981136913696 0.523553807892701 0.290020830899617 C 0.0 **** 0.0
48 C61012 0.612110423702091 0.518384775155613 0.303066546067446 C 0.0 **** 0.0
49 S61013 0.604980810684025 0.507434207867084 0.320623901244728 S 0.0 **** 0.0
50 C61018 0.629240678247128 0.520449595966198 0.301854130248172 C 0.0 **** 0.0
51 C61019 0.636267199593715 0.528843522863471 0.287777271826412 C 0.0 **** 0.0
52 C61020 0.625363792208513 0.535709493592925 0.275381575631354 C 0.0 **** 0.0
53 C61021 0.608036680486132 0.532572040186512 0.276252299263417 C 0.0 **** 0.0
54 C61027 0.632033697518852 0.546896230632476 0.263439067988609 C 0.0 **** 0.0
55 C61028 0.649451067453102 0.550265026359038 0.263040668998641 C 0.0 **** 0.0
56 C61029 0.660811736503855 0.540872226658492 0.273102748856385 C 0.0 **** 0.0
57 C61030 0.653790811693717 0.531118619604718 0.286193868482684 C 0.0 **** 0.0
58 C61036 0.678334397626532 0.542326493154822 0.270500744483377 C 0.0 **** 0.0
59 C61037 0.684272142395208 0.555893136699748 0.261108199014496 C 0.0 **** 0.0
60 C61038 0.67297270988228 0.567973151626027 0.254388496900138 C 0.0 **** 0.0
61 C61039 0.6556884082458 0.564032410434537 0.254029234261527 C 0.0 **** 0.0
62 C61045 0.597620516774603 0.538858972062958 0.263353796339091 C 0.0 **** 0.0
63 C61046 0.581410546662823 0.531748316262817 0.262200454779008 C 0.0 **** 0.0
64 C61050 0.620994055130191 0.556311003331676 0.253442892129209 C 0.0 **** 0.0
65 C61051 0.603611271600835 0.552572036707513 0.253233750327924 C 0.0 **** 0.0
66 C61055 0.644403317690491 0.57441062024801 0.245390403465845 C 0.0 **** 0.0
67 C61056 0.627245868138892 0.570197865917969 0.244778663847925 C 0.0 **** 0.0
68 C61060 0.678479515179931 0.584169954984541 0.248552007568581 C 0.0 **** 0.0
69 C61061 0.666849333715713 0.594397851559753 0.23980721863854 C 0.0 **** 0.0
70 C61062 0.650180656963927 0.5893301698208 0.237982481458653 C 0.0 **** 0.0
71 O61067 0.701621873183071 0.558283873819965 0.259493056935699 O 0.0 **** 0.0
72 C61068 0.711853840185245 0.543702607439154 0.256285741810159 C 0.0 **** 0.0
73 C61069 0.704692880540464 0.527335445975501 0.264406883698638 C 0.0 **** 0.0
74 C61070 0.692052430924682 0.531353548720927 0.278507182095343 C 0.0 **** 0.0
75 C61076 0.71869902811762 0.514986345026232 0.270375791160764 C 0.0 **** 0.0
76 C61077 0.733742623583269 0.515206609650683 0.258270107980592 C 0.0 **** 0.0
77 C61078 0.742660479342333 0.532465834425106 0.258985069041117 C 0.0 **** 0.0
78 C61079 0.730110514283141 0.547446135102681 0.262175641849924 C 0.0 **** 0.0
79 C61085 0.736854468531647 0.564306659197221 0.254993993537802 C 0.0 **** 0.0
80 C61086 0.756105502356434 0.564369998898533 0.256557240008382 C 0.0 **** 0.0
81 C61087 0.764450103315089 0.549834907189874 0.246464540162669 C 0.0 **** 0.0
82 N61088 0.753578312840146 0.53491210391239 0.244426563795243 N 0.0 **** 0.0
83 C61094 0.592248377799737 0.563359718703581 0.244459043149613 C 0.0 **** 0.0
84 C61095 0.598320239588043 0.57774105745084 0.236519991480946 C 0.0 **** 0.0
85 C61096 0.615871181197835 0.580789788670855 0.23623700876067 C 0.0 **** 0.0
86 O61101 0.587887593824945 0.589335130036903 0.228372421010575 O 0.0 **** 0.0
87 C61102 0.570538992818833 0.587656101859003 0.233040402370546 C 0.0 **** 0.0
88 C61103 0.565858088180947 0.569392588737344 0.231942249730882 C 0.0 **** 0.0
89 O61104 0.575073550808293 0.559859190857168 0.24420985103634 O 0.0 **** 0.0
90 C61110 0.568636737460158 0.562716893686858 0.213735736318468 C 0.0 **** 0.0
91 C61111 0.563339796619271 0.575513992767173 0.199875487311038 C 0.0 **** 0.0
92 C61112 0.551290273045709 0.589047008999151 0.206762589929412 C 0.0 **** 0.0
93 C61113 0.559414840791777 0.598858438731456 0.221593510197052 C 0.0 **** 0.0
94 C61119 0.638795905757143 0.599983996496089 0.229145259950769 C 0.0 **** 0.0
95 C61120 0.621777130953037 0.59521396589607 0.227909962716779 C 0.0 **** 0.0
96 C61124 0.671818634363569 0.610419762970141 0.234111257850454 C 0.0 **** 0.0
97 C61125 0.660644722901719 0.620787972561584 0.224737426521129 C 0.0 **** 0.0
98 C61126 0.644369130287367 0.615491590339559 0.222292941556299 C 0.0 **** 0.0
99 C61131 0.687739588351573 0.61706456353075 0.238316090586017 C 0.0 **** 0.0
100 C61132 0.699195268865787 0.607490870247001 0.247336211750359 C 0.0 **** 0.0
101 C61133 0.694420983279053 0.591462808573486 0.252205830889209 C 0.0 **** 0.0
102 O61138 0.66584295588695 0.635894573991179 0.217746066194037 O 0.0 **** 0.0
103 C61139 0.67911789443085 0.644122008504802 0.225438899615936 C 0.0 **** 0.0
104 C61140 0.690877207432612 0.635299652642166 0.234522428015395 C 0.0 **** 0.0
105 C61145 0.716507801819128 0.614125116160431 0.252382672156265 C 0.0 **** 0.0
106 C61146 0.717599399807967 0.634147247211417 0.2522865990855 C 0.0 **** 0.0
107 C61147 0.704476779251574 0.643293256990727 0.24146286007502 C 0.0 **** 0.0
108 C61152 0.735351544960838 0.64040106976548 0.246859328576021 C 0.0 **** 0.0
109 C61153 0.749629420402277 0.629652323380607 0.254460073920674 C 0.0 **** 0.0
110 C61154 0.748188762416876 0.611044777039028 0.248366764625382 C 0.0 **** 0.0
111 C61155 0.730519339153655 0.606763269835218 0.241218885208524 C 0.0 **** 0.0
112 C61161 0.706395652950491 0.660256878599082 0.239050157265093 C 0.0 **** 0.0
113 C61162 0.693956393362303 0.669352093697543 0.231086036682488 C 0.0 **** 0.0
114 C61163 0.680413693307604 0.66129698996917 0.224094843854606 C 0.0 **** 0.0
115 C61168 0.736168110144253 0.659369110449466 0.250424478423861 C 0.0 **** 0.0
116 C61170 0.722001647113524 0.668731354355249 0.245967478726171 C 0.0 **** 0.0
117 C61173 0.599510377052572 0.438527116073599 0.329039898561732 C 0.0 **** 0.0
118 C61175 0.609328209470697 0.450644469255493 0.317495108779138 C 0.0 **** 0.0
119 C61177 0.610681418884329 0.42317185372382 0.33293651976153 C 0.0 **** 0.0
120 O61179 0.685935456589782 0.515825633440843 0.285057210202741 O 0.0 **** 0.0
121 C61181 0.668170012600715 0.670448772988357 0.215973589382055 C 0.0 **** 0.0
122 C61182 0.669189912666355 0.687628834312491 0.215254218708681 C 0.0 **** 0.0
123 C61183 0.682563297400994 0.695836053332086 0.222448041187562 C 0.0 **** 0.0
124 C61184 0.694956159188906 0.686576695158115 0.230229616079157 C 0.0 **** 0.0
125 C61190 0.709461638086678 0.695444387387279 0.238126787074029 C 0.0 **** 0.0
126 C61191 0.710241788863695 0.712644603900736 0.236956563569525 C 0.0 **** 0.0
127 C61192 0.696427054668144 0.721982472341796 0.228493668969533 C 0.0 **** 0.0
128 C61193 0.683127231432225 0.713244806205774 0.221626220166526 C 0.0 **** 0.0
129 C61199 0.697266781011951 0.739238039549646 0.227556930595733 C 0.0 **** 0.0
130 C61200 0.710861095556968 0.747960128192667 0.233919923870087 C 0.0 **** 0.0
131 C61201 0.724173532848792 0.739810717873932 0.241442866541937 C 0.0 **** 0.0
132 C61202 0.723806946689254 0.721207879804925 0.243411775082039 C 0.0 **** 0.0
133 C61208 0.737334925475951 0.712580003310336 0.251029977882397 C 0.0 **** 0.0
134 C61209 0.736487387213651 0.694993410371507 0.252495458822964 C 0.0 **** 0.0
135 C61210 0.722422248778876 0.686367620319845 0.246101841025362 C 0.0 **** 0.0
136 C61215 0.751948177506847 0.72120967660935 0.256023847497808 C 0.0 **** 0.0
137 C61216 0.751297578665 0.740304491751317 0.253954725203085 C 0.0 **** 0.0
138 C61217 0.737862695186204 0.74865978295426 0.247023152367844 C 0.0 **** 0.0
139 C61222 0.750045369187032 0.667916128015463 0.256622922195579 C 0.0 **** 0.0
140 C61223 0.750497964962013 0.685844841897784 0.258433175232312 C 0.0 **** 0.0
141 C61228 0.765684191130535 0.712209907416286 0.262431781973234 C 0.0 **** 0.0
142 C61229 0.764858601660752 0.69469566384222 0.264265519955439 C 0.0 **** 0.0
143 C61233 0.779886502947624 0.684952175127411 0.271394012930706 C 0.0 **** 0.0
144 C61234 0.788207556729604 0.694904817645694 0.285758418391842 C 0.0 **** 0.0
145 C61235 0.79369304946774 0.71197466217686 0.279138714803014 C 0.0 **** 0.0
146 C61236 0.781786921993131 0.721017954581077 0.267354183358775 C 0.0 **** 0.0
147 O61242 0.786372112804081 0.734583669289853 0.261836021397703 O 0.0 **** 0.0
148 H61244 0.42392230933869 0.435806434677022 0.316102610239047 H 0.0 **** 0.0
149 H61246 0.43777053417523 0.424046352325768 0.303019665662617 H 0.0 **** 0.0
150 H61248 0.442406118371168 0.425249069300809 0.337115428001806 H 0.0 **** 0.0
151 H61250 0.459869961858075 0.424354130367749 0.323343236758984 H 0.0 **** 0.0
152 H61252 0.444884967527824 0.456545624378854 0.338289644482094 H 0.0 **** 0.0
153 H61254 0.460313313671477 0.472961931467559 0.321175907361118 H 0.0 **** 0.0
154 H61256 0.464962296654893 0.442564540721452 0.297641763640418 H 0.0 **** 0.0
155 H61258 0.459417161243592 0.463595783703517 0.292380947943048 H 0.0 **** 0.0
156 H61260 0.487839422119919 0.446430197008349 0.3198436774731 H 0.0 **** 0.0
157 H61262 0.502851727891205 0.460926637611786 0.340495919969779 H 0.0 **** 0.0
158 H61264 0.469791550602107 0.472665141345716 0.354650400536211 H 0.0 **** 0.0
159 H61266 0.485388201034416 0.460360830453355 0.364704113610474 H 0.0 **** 0.0
160 H61268 0.459914919616843 0.442735607383399 0.360307885997655 H 0.0 **** 0.0
161 H61270 0.475920239955779 0.435470659836144 0.346521823331498 H 0.0 **** 0.0
162 H61272 0.500951697934883 0.505776503390586 0.329391598277781 H 0.0 **** 0.0
163 H61274 0.481149110284628 0.493527414900165 0.309203127284116 H 0.0 **** 0.0
164 H61276 0.50578057658026 0.464228466513201 0.304895784939343 H 0.0 **** 0.0
165 H61278 0.486753183840709 0.466855562774201 0.293987826063571 H 0.0 **** 0.0
166 H61280 0.521188184100499 0.473413736916445 0.322846959116231 H 0.0 **** 0.0
167 H61282 0.529520602858606 0.523047613625914 0.261782256090285 H 0.0 **** 0.0
168 H61284 0.52498776147574 0.501360174977728 0.259364954644116 H 0.0 **** 0.0
169 H61286 0.498022096248156 0.514646911098242 0.257005903049582 H 0.0 **** 0.0
170 H61288 0.502301479405622 0.529303514438089 0.273346505458816 H 0.0 **** 0.0
171 H61290 0.481809276488964 0.503540297981882 0.280589719501798 H 0.0 **** 0.0
172 H61292 0.548839004681556 0.471377213822865 0.332773029506964 H 0.0 **** 0.0
173 H61293 0.534038506653638 0.503114933041267 0.379975545697924 H 0.0 **** 0.0
174 H61295 0.525462292694705 0.482892819625493 0.383868784596552 H 0.0 **** 0.0
175 H61297 0.509742307141098 0.495149473233642 0.359485855922161 H 0.0 **** 0.0
176 H61299 0.555366328117787 0.489119069542655 0.398850249267477 H 0.0 **** 0.0
177 H61301 0.550322630392622 0.467649730884866 0.395304807673145 H 0.0 **** 0.0
178 H61303 0.579381212081193 0.465204042107851 0.399730872330567 H 0.0 **** 0.0
179 H61305 0.583869686782051 0.485630080591842 0.391775790817016 H 0.0 **** 0.0
180 H61307 0.568806530584921 0.454651596476393 0.334778292379648 H 0.0 **** 0.0
181 H61309 0.584907802136511 0.47004168876985 0.333785177237445 H 0.0 **** 0.0
182 H61311 0.586412069814743 0.436470691997761 0.352622928943402 H 0.0 **** 0.0
183 H61313 0.611322855298305 0.465985421624257 0.350741369466733 H 0.0 **** 0.0
184 H61315 0.616944759348628 0.445844364260902 0.358487637728826 H 0.0 **** 0.0
185 H61317 0.607150688034684 0.467394150974537 0.380918910809224 H 0.0 **** 0.0
186 H61319 0.597508423825272 0.447189236916619 0.381590614179964 H 0.0 **** 0.0
187 H61321 0.581491531717525 0.496672032913315 0.343767352940966 H 0.0 **** 0.0
188 H61323 0.637719507422401 0.515560016592459 0.311682292195801 H 0.0 **** 0.0
189 H61325 0.6618224529666 0.525325489861784 0.295835638148026 H 0.0 **** 0.0
190 H61327 0.572997459003354 0.534169298866527 0.251460387551329 H 0.0 **** 0.0
191 H61329 0.71221963868418 0.542109068697411 0.24247884936499 H 0.0 **** 0.0
192 H61331 0.697350992428594 0.520421657010808 0.25470835110232 H 0.0 **** 0.0
193 H61333 0.698279445912975 0.538599520720176 0.288747936854209 H 0.0 **** 0.0
194 H61335 0.723205216399905 0.518531583471027 0.283101782799928 H 0.0 **** 0.0
195 H61337 0.713440671116988 0.502118802922745 0.271460694904598 H 0.0 **** 0.0
196 H61339 0.729253893155605 0.512665500196185 0.24534148892043 H 0.0 **** 0.0
197 H61341 0.742879150467827 0.505098823718556 0.261244819912255 H 0.0 **** 0.0
198 H61343 0.751125758804548 0.531984853822525 0.270092224634418 H 0.0 **** 0.0
199 H61345 0.729239986686036 0.548973048549659 0.276034535238897 H 0.0 **** 0.0
200 H61347 0.733257925353105 0.565548098849605 0.241585721976007 H 0.0 **** 0.0
201 H61349 0.731230735304559 0.575053534874011 0.261817407706497 H 0.0 **** 0.0
202 H61351 0.758870202638948 0.56278080640833 0.270088038451503 H 0.0 **** 0.0
203 H61353 0.761841526087331 0.576478866860916 0.252821673929812 H 0.0 **** 0.0
204 H61355 0.776183957054508 0.54577351785029 0.252721472450815 H 0.0 **** 0.0
205 H61357 0.768310542181396 0.554497672648782 0.233986932478023 H 0.0 **** 0.0
206 H61359 0.746421379233544 0.53618170911224 0.234019204340281 H 0.0 **** 0.0
207 H61361 0.569312774713513 0.59180652097958 0.246263520239373 H 0.0 **** 0.0
208 H61363 0.552361053973775 0.568186274010757 0.235203090930994 H 0.0 **** 0.0
209 H61365 0.582093999775285 0.559562915686285 0.212202810154655 H 0.0 **** 0.0
210 H61367 0.561890226843792 0.550709736485024 0.212063300108337 H 0.0 **** 0.0
211 H61369 0.557653722826995 0.568862265032805 0.189034332621829 H 0.0 **** 0.0
212 H61371 0.574641217963167 0.581982324937409 0.19493359926624 H 0.0 **** 0.0
213 H61373 0.539584101512586 0.582851397375446 0.211144727683728 H 0.0 **** 0.0
214 H61375 0.547471613594959 0.597869297089304 0.196659113620898 H 0.0 **** 0.0
215 H61377 0.549398455663554 0.605201273539249 0.228870066271882 H 0.0 **** 0.0
216 H61379 0.567513646302899 0.608958556357405 0.216539502660703 H 0.0 **** 0.0
217 H61381 0.612892196854091 0.603473325921525 0.221193421664132 H 0.0 **** 0.0
218 H61383 0.635414022542984 0.623447389609632 0.215267014727504 H 0.0 **** 0.0
219 H61385 0.70368611584309 0.584815530405265 0.260041516765681 H 0.0 **** 0.0
220 H61387 0.719067550220635 0.610069621945051 0.265463959959126 H 0.0 **** 0.0
221 H61389 0.71543386078573 0.63819711259329 0.265472460637576 H 0.0 **** 0.0
222 H61391 0.736433136251993 0.638915157652585 0.232971438297234 H 0.0 **** 0.0
223 H61393 0.748929405896406 0.630183996901432 0.268347185866401 H 0.0 **** 0.0
224 H61395 0.762120315873304 0.634659059867935 0.250881241232846 H 0.0 **** 0.0
225 H61397 0.751115464082674 0.602477069490252 0.258939427267464 H 0.0 **** 0.0
226 H61399 0.757801410950171 0.608493230843428 0.238603655477972 H 0.0 **** 0.0
227 H61401 0.729189783876385 0.593023849444818 0.23960509778588 H 0.0 **** 0.0
228 H61403 0.729267017324862 0.612193607518282 0.228462574117039 H 0.0 **** 0.0
229 H61405 0.588497983368034 0.433805041842704 0.321868807442424 H 0.0 **** 0.0
230 H61407 0.613520065405371 0.444038280547236 0.305969833432643 H 0.0 **** 0.0
231 H61409 0.620683978660444 0.455538525528637 0.323892118100208 H 0.0 **** 0.0
232 H61411 0.601709626809479 0.461551482536073 0.31344068801604 H 0.0 **** 0.0
233 H61413 0.604184692225341 0.413947467267977 0.341076274673637 H 0.0 **** 0.0
234 H61415 0.622310124137181 0.427155390730386 0.339380044625258 H 0.0 **** 0.0
235 H61417 0.614462389218395 0.416615202398621 0.32125611973298 H 0.0 **** 0.0
236 H61419 0.695723873371331 0.510261879742303 0.289277653941919 H 0.0 **** 0.0
237 H61421 0.657275447963046 0.664316086598574 0.210162410334156 H 0.0 **** 0.0
238 H61423 0.659091453204406 0.69462761921059 0.208960225977822 H 0.0 **** 0.0
239 H61425 0.672927198846602 0.720166761183075 0.215401977795803 H 0.0 **** 0.0
240 H61427 0.687157841249318 0.746425168824743 0.221514905334041 H 0.0 **** 0.0
241 H61429 0.710940354705919 0.761696280420017 0.232598951325898 H 0.0 **** 0.0
242 H61431 0.76189376176384 0.747914311518692 0.258200898804168 H 0.0 **** 0.0
243 H61433 0.73846556318436 0.762393081236435 0.245942989193962 H 0.0 **** 0.0
244 H61435 0.761166429737061 0.660336543098924 0.259908564147493 H 0.0 **** 0.0
245 H61437 0.776001001722757 0.672609293323512 0.276443836505761 H 0.0 **** 0.0
246 H61439 0.789169960469574 0.682499859543765 0.261256935482708 H 0.0 **** 0.0
247 H61441 0.799167659145525 0.688095476675967 0.290994463264967 H 0.0 **** 0.0
248 H61443 0.779058468620311 0.696359159502843 0.296163055994945 H 0.0 **** 0.0
249 H61445 0.805243697129352 0.711217927579781 0.271418594263337 H 0.0 **** 0.0
250 H61447 0.796275703736503 0.721530363092791 0.288905009393534 H 0.0 **** 0.0
@<TRIPOS>BOND
1 3 2 1
2 4 3 1
3 5 4 1
4 6 5 1
5 1 2 1
6 1 6 1
7 8 7 1
8 9 8 1
9 10 9 1
10 4 7 1
11 3 10 1
12 12 11 1
13 13 12 1
14 14 13 1
15 8 11 1
16 7 14 1
17 16 15 1
18 17 16 Partial double
19 18 17 1
20 13 15 1
21 12 18 1
22 20 19 Partial double
23 21 20 Partial double
24 22 21 Partial double
25 17 19 Partial double
26 16 22 Partial double
27 24 23 1
28 25 24 1
29 15 25 Double
30 22 23 1
31 27 26 1
32 28 27 Partial double
33 29 28 Partial double
34 21 26 1
35 20 29 Partial double
36 31 30 1
37 32 31 1
38 18 30 1
39 19 32 1
40 34 33 Double
41 35 34 1
42 36 35 1
43 31 33 1
44 30 36 Double
45 38 37 1
46 39 38 1
47 40 39 Double
48 34 37 1
49 33 40 1
50 42 41 1
51 43 42 1
52 44 43 1
53 40 41 1
54 39 44 1
55 46 45 Partial double
56 32 46 1
57 29 45 Partial double
58 48 47 Partial double
59 49 48 1
60 45 49 Partial double
61 28 47 Partial double
62 51 50 Partial double
63 52 51 Partial double
64 53 52 Partial double
65 48 50 Partial double
66 47 53 Partial double
67 55 54 Partial double
68 56 55 Partial double
69 57 56 Partial double
70 52 54 Partial double
71 51 57 Partial double
72 59 58 Partial double
73 60 59 Partial double
74 61 60 Partial double
75 56 58 Partial double
76 55 61 Partial double
77 63 62 Partial double
78 27 63 Partial double
79 53 62 Partial double
80 65 64 Partial double
81 62 65 Partial double
82 54 64 Partial double
83 67 66 Partial double
84 64 67 Partial double
85 61 66 Partial double
86 69 68 Partial double
87 70 69 Partial double
88 66 70 Partial double
89 60 68 Partial double
90 72 71 1
91 73 72 1
92 74 73 1
93 59 71 1
94 58 74 1
95 76 75 1
96 77 76 1
97 78 77 1
98 73 75 1
99 72 78 1
100 80 79 1
101 81 80 1
102 82 81 1
103 78 79 1
104 77 82 1
105 84 83 Partial double
106 85 84 Partial double
107 67 85 Partial double
108 65 83 Partial double
109 87 86 1
110 88 87 1
111 89 88 1
112 84 86 1
113 83 89 1
114 91 90 1
115 92 91 1
116 93 92 1
117 88 90 1
118 87 93 1
119 95 94 Partial double
120 85 95 Partial double
121 70 94 Partial double
122 97 96 Partial double
123 98 97 Partial double
124 94 98 Partial double
125 69 96 Partial double
126 100 99 Partial double
127 101 100 Partial double
128 68 101 Partial double
129 96 99 Partial double
130 103 102 1
131 104 103 Partial double
132 97 102 1
133 99 104 1
134 106 105 1
135 107 106 1
136 100 105 1
137 104 107 Partial double
138 109 108 1
139 110 109 1
140 111 110 1
141 106 108 1
142 105 111 1
143 113 112 1
144 114 113 1
145 103 114 Partial double
146 107 112 Partial double
147 108 115 1
148 112 116 Partial double
149 115 116 Partial double
150 42 117 1
151 117 118 1
152 117 119 1
153 74 120 1
154 122 121 1
155 123 122 Partial double
156 124 123 1
157 114 121 Partial double
158 113 124 Partial double
159 126 125 Partial double
160 127 126 1
161 128 127 Partial double
162 124 125 Partial double
163 123 128 Partial double
164 130 129 Partial double
165 131 130 1
166 132 131 1
167 127 129 Partial double
168 126 132 Partial double
169 134 133 Partial double
170 135 134 Partial double
171 125 135 Partial double
172 132 133 Partial double
173 137 136 Partial double
174 138 137 Partial double
175 131 138 Partial double
176 133 136 Partial double
177 140 139 Partial double
178 134 140 Partial double
179 116 135 Partial double
180 115 139 Partial double
181 142 141 Partial double
182 140 142 Partial double
183 136 141 Partial double
184 144 143 1
185 145 144 1
186 146 145 1
187 142 143 1
188 141 146 1
189 146 147 Double
190 1 148 1
191 1 149 1
192 2 150 1
193 2 151 1
194 3 152 1
195 4 153 1
196 5 154 1
197 5 155 1
198 7 156 1
199 8 157 1
200 9 158 1
201 9 159 1
202 10 160 1
203 10 161 1
204 12 162 1
205 13 163 1
206 14 164 1
207 14 165 1
208 18 166 1
209 23 167 1
210 23 168 1
211 24 169 1
212 24 170 1
213 25 171 1
214 35 173 1
215 35 174 1
216 36 175 1
217 37 176 1
218 37 177 1
219 38 178 1
220 38 179 1
221 41 180 1
222 41 181 1
223 42 182 1
224 43 183 1
225 43 184 1
226 44 185 1
227 44 186 1
228 46 187 1
229 50 188 1
230 57 189 1
231 63 190 1
232 72 191 1
233 73 192 1
234 74 193 1
235 75 194 1
236 75 195 1
237 76 196 1
238 76 197 1
239 77 198 1
240 78 199 1
241 79 200 1
242 79 201 1
243 80 202 1
244 80 203 1
245 81 204 1
246 81 205 1
247 82 206 1
248 87 207 1
249 88 208 1
250 90 209 1
251 90 210 1
252 91 211 1
253 91 212 1
254 92 213 1
255 92 214 1
256 93 215 1
257 93 216 1
258 95 217 1
259 98 218 1
260 101 219 1
261 105 220 1
262 106 221 1
263 108 222 1
264 109 223 1
265 109 224 1
266 110 225 1
267 110 226 1
268 111 227 1
269 111 228 1
270 117 229 1
271 118 230 1
272 118 231 1
273 118 232 1
274 119 233 1
275 119 234 1
276 119 235 1
277 120 236 1
278 121 237 1
279 122 238 1
280 128 239 1
281 129 240 1
282 130 241 1
283 137 242 1
284 138 243 1
285 139 244 1
286 143 245 1
287 143 246 1
288 144 247 1
289 144 248 1
290 145 249 1
291 145 250 1
292 31 172 1
@<TRIPOS>MOLECULE
Sketch 4
250 292
SMALL
USER_CHARGES


@<TRIPOS>ATOM
1 C61450 0.445443836773799 0.741227986047493 0.323154864709359 C 0.0 **** 0.0
2 C61451 0.464010265170313 0.736142341414572 0.326884207615133 C 0.0 **** 0.0
3 C61452 0.476405168514055 0.74331680063026 0.313662852424272 C 0.0 **** 0.0
4 C61453 0.470657558849204 0.73862025364214 0.295303014014108 C 0.0 **** 0.0
5 C61454 0.451209937525937 0.736223050025909 0.294860261018046 C 0.0 **** 0.0
6 O61455 0.443193034119802 0.747370270460486 0.306420389181518 O 0.0 **** 0.0
7 C61462 0.480851090681804 0.723388064440692 0.288497566960647 C 0.0 **** 0.0
8 C61463 0.499903964596004 0.72788665880358 0.287025559058709 C 0.0 **** 0.0
9 C61464 0.50581018684904 0.739358031946177 0.301594589685315 C 0.0 **** 0.0
10 C61465 0.494771642986373 0.737922857438107 0.317418334262844 C 0.0 **** 0.0
11 O61471 0.503749441893262 0.737283288654967 0.272076548141968 O 0.0 **** 0.0
12 C61472 0.498873502193039 0.729483649511803 0.25648060776658 C 0.0 **** 0.0
13 C61473 0.479650881246868 0.72686427855235 0.256558535716008 C 0.0 **** 0.0
14 C61474 0.474285511585194 0.716070898281018 0.271671084904166 C 0.0 **** 0.0
15 C61480 0.473572176369961 0.719596804291128 0.239975303149872 C 0.0 **** 0.0
16 C61481 0.485015125707258 0.7072656608588 0.230973031082506 C 0.0 **** 0.0
17 C61482 0.501659718453415 0.704956063567511 0.236176694245741 C 0.0 **** 0.0
18 C61483 0.508294810791624 0.712994712825563 0.252488562387512 C 0.0 **** 0.0
19 C61489 0.512198809341775 0.694554649083636 0.226637956071708 C 0.0 **** 0.0
20 C61490 0.505607237756383 0.685756473669288 0.212990298210055 C 0.0 **** 0.0
21 C61491 0.488852016334719 0.687695577148337 0.208205541578653 C 0.0 **** 0.0
22 C61492 0.478502878577324 0.69863953259555 0.217158411679466 C 0.0 **** 0.0
23 C61498 0.460038438156905 0.700300429234312 0.21225168073417 C 0.0 **** 0.0
24 C61499 0.453419794333105 0.718369341351197 0.21566867025452 C 0.0 **** 0.0
25 C61500 0.459078985687598 0.72487675066932 0.232689899871435 C 0.0 **** 0.0
26 O61505 0.482076844572755 0.678915339625577 0.194646233728331 O 0.0 **** 0.0
27 C61506 0.492774823277951 0.670247850314581 0.183955240234946 C 0.0 **** 0.0
28 C61507 0.50937295606376 0.666329006177602 0.187961408272214 C 0.0 **** 0.0
29 C61508 0.516599284649836 0.673294120704431 0.203997607849218 C 0.0 **** 0.0
30 C61514 0.527262847079916 0.714282501007299 0.251393085835681 C 0.0 **** 0.0
31 C61515 0.535123911077903 0.696931619505816 0.2490596784831 C 0.0 **** 0.0
32 C61516 0.530966990543997 0.693034113173695 0.230419976418447 C 0.0 **** 0.0
33 C61521 0.554340203575837 0.696308596622858 0.253217409242072 C 0.0 **** 0.0
34 C61522 0.563129694626973 0.71109549799324 0.251453990370783 C 0.0 **** 0.0
35 C61523 0.555200694289468 0.727925219153574 0.246849839082368 C 0.0 **** 0.0
36 C61524 0.536394346433395 0.728499613998566 0.250050108794318 C 0.0 **** 0.0
37 C61530 0.581955069481392 0.712615268836957 0.25346346483247 C 0.0 **** 0.0
38 C61531 0.589849880234104 0.697775871305057 0.263106531012988 C 0.0 **** 0.0
39 C61532 0.579025364637621 0.682184651525173 0.263170832532483 C 0.0 **** 0.0
40 C61533 0.562319669566787 0.681900663688913 0.258697098143431 C 0.0 **** 0.0
41 C61539 0.553025655883772 0.664817273126735 0.260746390102286 C 0.0 **** 0.0
42 C61540 0.560771237975466 0.653626816007977 0.274397189430486 C 0.0 **** 0.0
43 C61541 0.579501948552286 0.650855173278134 0.270019849583857 C 0.0 **** 0.0
44 C61542 0.588827584227084 0.667658113981309 0.270702391722092 C 0.0 **** 0.0
45 C61548 0.532121299120649 0.669031665075035 0.209901986352463 C 0.0 **** 0.0
46 C61549 0.539487055921299 0.677600972680929 0.222843601349386 C 0.0 **** 0.0
47 C61553 0.519050120781568 0.656233524771739 0.176810459453947 C 0.0 **** 0.0
48 C61554 0.534869677372411 0.649191742916323 0.181406870456666 C 0.0 **** 0.0
49 S61555 0.543235720604546 0.652092871032989 0.201412412084294 S 0.0 **** 0.0
50 C61560 0.543286913162147 0.638118913364662 0.171163347756787 C 0.0 **** 0.0
51 C61561 0.536415097871426 0.633493875549262 0.155385728033148 C 0.0 **** 0.0
52 C61562 0.520737718278822 0.640464661884978 0.150293094389189 C 0.0 **** 0.0
53 C61563 0.512409728744516 0.651977791497558 0.16079240977337 C 0.0 **** 0.0
54 C61569 0.512788917827069 0.63383494451406 0.135986877187238 C 0.0 **** 0.0
55 C61570 0.519697927787261 0.620003101622207 0.127296461701798 C 0.0 **** 0.0
56 C61571 0.534665753649764 0.612138844636402 0.13302847672187 C 0.0 **** 0.0
57 C61572 0.54361688845646 0.620249203466547 0.146031256710641 C 0.0 **** 0.0
58 C61578 0.539871124579652 0.596324688145158 0.126609962642109 C 0.0 **** 0.0
59 C61579 0.532125544183273 0.590376931064528 0.112115483723378 C 0.0 **** 0.0
60 C61580 0.518233174246939 0.599255155219782 0.104940633061726 C 0.0 **** 0.0
61 C61581 0.511254660299664 0.612987664549663 0.1136407397139 C 0.0 **** 0.0
62 C61587 0.496306929874713 0.65777635897369 0.156087384758665 C 0.0 **** 0.0
63 C61588 0.486327502025715 0.665630173869175 0.168533563240356 C 0.0 **** 0.0
64 C61592 0.497085419685258 0.640198309505449 0.131117206200633 C 0.0 **** 0.0
65 C61593 0.489859047281215 0.653777787991732 0.139828515311852 C 0.0 **** 0.0
66 C61597 0.495267989191299 0.619031581264799 0.109252530779221 C 0.0 **** 0.0
67 C61598 0.488236163546563 0.632577667517781 0.118103606190177 C 0.0 **** 0.0
68 C61602 0.510384297185208 0.593770925716323 0.0896640458777276 C 0.0 **** 0.0
69 C61603 0.493869856748211 0.599334842767943 0.0860598240091005 C 0.0 **** 0.0
70 C61604 0.486302707531963 0.61153199394739 0.0960842437257462 C 0.0 **** 0.0
71 O61609 0.537273956512892 0.575550828223305 0.104252910830742 O 0.0 **** 0.0
72 C61610 0.552110262081854 0.566740742275656 0.109341758449107 C 0.0 **** 0.0
73 C61611 0.555073585559698 0.568272686465739 0.128441093264685 C 0.0 **** 0.0
74 C61612 0.554497960907412 0.586552327728135 0.134608873874858 C 0.0 **** 0.0
75 C61618 0.571799971220396 0.559633916372867 0.134049983322256 C 0.0 **** 0.0
76 C61619 0.579191113658923 0.548470370705476 0.120076496593379 C 0.0 **** 0.0
77 C61620 0.582743134024423 0.558694951537826 0.103834334680852 C 0.0 **** 0.0
78 C61621 0.568298317013697 0.57157426681749 0.0994351993860326 C 0.0 **** 0.0
79 C61627 0.566225012355245 0.57405250173564 0.0801492904006926 C 0.0 **** 0.0
80 C61628 0.583777896732972 0.57333928869362 0.0718796991516821 C 0.0 **** 0.0
81 C61629 0.5928666715835 0.556183794432598 0.074840242184195 C 0.0 **** 0.0
82 N61630 0.58722509725543 0.547305229075998 0.0901370876927368 N 0.0 **** 0.0
83 C61636 0.475463515951823 0.662075966821737 0.133254550695047 C 0.0 **** 0.0
84 C61637 0.466013074952368 0.654090975311799 0.12084860179389 C 0.0 **** 0.0
85 C61638 0.472141266556254 0.63878411234364 0.113849860164302 C 0.0 **** 0.0
86 O61643 0.450763771161051 0.66049361864321 0.11511841247222 O 0.0 **** 0.0
87 C61644 0.449969778261076 0.678429707346953 0.116950414233921 C 0.0 **** 0.0
88 C61645 0.454359196724263 0.683634990535392 0.134716362613233 C 0.0 **** 0.0
89 O61646 0.470538802121893 0.67753102559684 0.139995366274931 O 0.0 **** 0.0
90 C61652 0.440770361889784 0.6785282650728 0.147726349410785 C 0.0 **** 0.0
91 C61653 0.422411579344258 0.681797459374219 0.141773610213899 C 0.0 **** 0.0
92 C61654 0.42188295716493 0.692818606835645 0.125832327570094 C 0.0 **** 0.0
93 C61655 0.43211457997681 0.684408385466792 0.11154075761535 C 0.0 **** 0.0
94 C61661 0.469732098494401 0.617100388400361 0.0921113666596636 C 0.0 **** 0.0
95 C61662 0.462663601360044 0.630485972669568 0.101439839187094 C 0.0 **** 0.0
96 C61666 0.485677358051946 0.593557553371154 0.0714644759420811 C 0.0 **** 0.0
97 C61667 0.468873885990512 0.598493799912437 0.0678427661456859 C 0.0 **** 0.0
98 C61668 0.461068512850694 0.60991843719494 0.0782416702261033 C 0.0 **** 0.0
99 C61673 0.494135553109899 0.583245999670212 0.0597179580928483 C 0.0 **** 0.0
100 C61674 0.510589747609292 0.578169429992219 0.0626701707552124 C 0.0 **** 0.0
101 C61675 0.518349936535456 0.583695113553725 0.0772268301263413 C 0.0 **** 0.0
102 O61680 0.4599721255411 0.591907000791014 0.0543661451181914 O 0.0 **** 0.0
103 C61681 0.468914167624099 0.584527598675015 0.0413638298799122 C 0.0 **** 0.0
104 C61682 0.485231750532472 0.579243542418045 0.0435453026172095 C 0.0 **** 0.0
105 C61687 0.520673352222445 0.567233065494128 0.050508264444602 C 0.0 **** 0.0
106 C61688 0.512234449416325 0.566096803389903 0.0323321189474043 C 0.0 **** 0.0
107 C61689 0.493749249612031 0.57138672009238 0.0307831365706853 C 0.0 **** 0.0
108 C61694 0.514953933439876 0.548709828261659 0.0237978923830123 C 0.0 **** 0.0
109 C61695 0.532938951368062 0.542099358474288 0.0270474108260888 C 0.0 **** 0.0
110 C61696 0.536127902741587 0.539304866167791 0.0462218537085024 C 0.0 **** 0.0
111 C61697 0.524157736048597 0.549600832222506 0.0577594236321482 C 0.0 **** 0.0
112 C61703 0.48576579581813 0.568608324679635 0.0157452291935279 C 0.0 **** 0.0
113 C61704 0.469744046263357 0.574769563455048 0.0131878899118467 C 0.0 **** 0.0
114 C61705 0.461220075322326 0.582495979781292 0.0260318687487967 C 0.0 **** 0.0
115 C61710 0.509915152199033 0.550492816545041 0.00517149757869873 C 0.0 **** 0.0
116 C61712 0.495248144484243 0.559585821427546 0.00186852213354419 C 0.0 **** 0.0
117 C61715 0.550705821060152 0.637078794940319 0.27702962167646 C 0.0 **** 0.0
118 C61717 0.552585471528192 0.624436073580184 0.262445730976416 C 0.0 **** 0.0
119 C61719 0.555263415984657 0.628430042621809 0.293760967307073 C 0.0 **** 0.0
120 O61721 0.552907751964256 0.58599659350518 0.152560837807998 O 0.0 **** 0.0
121 C61723 0.445113280204106 0.588300387380261 0.0234615733200941 C 0.0 **** 0.0
122 C61724 0.4376887378801 0.586793629298012 0.00800362161015881 C 0.0 **** 0.0
123 C61725 0.446307050566574 0.579562983358898 -0.00507474076494729 C 0.0 **** 0.0
124 C61726 0.462266489727326 0.573466736048768 -0.00233168875901691 C 0.0 **** 0.0
125 C61732 0.471724318242826 0.56588045343273 -0.0166010921191053 C 0.0 **** 0.0
126 C61733 0.464113342166619 0.565018090157092 -0.0320687196071953 C 0.0 **** 0.0
127 C61734 0.446817096201747 0.571705409124226 -0.0342396478139042 C 0.0 **** 0.0
128 C61735 0.438624443152867 0.578712653448727 -0.0206897484460717 C 0.0 **** 0.0
129 C61741 0.439304366139425 0.570784746631763 -0.0497905652384189 C 0.0 **** 0.0
130 C61742 0.447640781470567 0.564068064682152 -0.0634394112074787 C 0.0 **** 0.0
131 C61743 0.463698137707863 0.557735007853025 -0.0620668898095232 C 0.0 **** 0.0
132 C61744 0.47242208964154 0.558042023006363 -0.0455255890655997 C 0.0 **** 0.0
133 C61750 0.488808818446469 0.551472478640069 -0.0437544449820632 C 0.0 **** 0.0
134 C61751 0.496526082086611 0.552061368238238 -0.0278776041646609 C 0.0 **** 0.0
135 C61752 0.488064561280802 0.559510159392076 -0.0142500555079332 C 0.0 **** 0.0
136 C61757 0.497347035288183 0.544427640911042 -0.057544491358761 C 0.0 **** 0.0
137 C61758 0.487845705915348 0.545050415289428 -0.0742774816299322 C 0.0 **** 0.0
138 C61759 0.471832478545767 0.551341731689012 -0.0758485505860779 C 0.0 **** 0.0
139 C61764 0.518326872267203 0.54336288648944 -0.00839446355724434 C 0.0 **** 0.0
140 C61765 0.512510110157407 0.544815986680065 -0.0254053544915728 C 0.0 **** 0.0
141 C61770 0.513638994381544 0.53805449565656 -0.0553576417151432 C 0.0 **** 0.0
142 C61771 0.521530947312892 0.538753585476118 -0.0395836477659041 C 0.0 **** 0.0
143 C61775 0.539540754341547 0.532249693706968 -0.0374386357643156 C 0.0 **** 0.0
144 C61776 0.550095711954177 0.536608775616264 -0.0530880809145429 C 0.0 **** 0.0
145 C61777 0.541953972591131 0.528597123932667 -0.0684035503649327 C 0.0 **** 0.0
146 C61778 0.523070543100776 0.530207468032592 -0.0698768504523521 C 0.0 **** 0.0
147 O61784 0.516451821528577 0.524306106680371 -0.0824016830312129 O 0.0 **** 0.0
148 H61786 0.441459566162828 0.751527411421771 0.331579970405754 H 0.0 **** 0.0
149 H61788 0.436815114485186 0.730558295986687 0.325616084221295 H 0.0 **** 0.0
150 H61790 0.467728508125056 0.740279466172335 0.339641869884899 H 0.0 **** 0.0
151 H61792 0.465282233815996 0.722251863255065 0.326871667335472 H 0.0 **** 0.0
152 H61794 0.475769780806368 0.757239337784401 0.314655694282711 H 0.0 **** 0.0
153 H61796 0.473683540736478 0.749562658053103 0.287154756499771 H 0.0 **** 0.0
154 H61798 0.447711228393545 0.722991059102296 0.297577225015953 H 0.0 **** 0.0
155 H61800 0.446112682685039 0.739204927074824 0.282277846851789 H 0.0 **** 0.0
156 H61802 0.479644231243805 0.713389104764349 0.298177481178754 H 0.0 **** 0.0
157 H61804 0.507204969164734 0.715990403584917 0.287224737414341 H 0.0 **** 0.0
158 H61806 0.505007393619918 0.752462262816499 0.296935496289137 H 0.0 **** 0.0
159 H61808 0.519212133474842 0.737084875197362 0.304624100985174 H 0.0 **** 0.0
160 H61810 0.499937702236452 0.745677294067821 0.327779301141775 H 0.0 **** 0.0
161 H61812 0.494985322624134 0.724712640411196 0.321891755285183 H 0.0 **** 0.0
162 H61814 0.502011721008726 0.738978110053615 0.246822647599299 H 0.0 **** 0.0
163 H61816 0.473843875560165 0.739451639564788 0.258045576233955 H 0.0 **** 0.0
164 H61818 0.479329235164795 0.703156035519565 0.270181916838785 H 0.0 **** 0.0
165 H61820 0.460442732620845 0.714613546682236 0.271955385184105 H 0.0 **** 0.0
166 H61822 0.50563379510518 0.704051869648905 0.262917332413605 H 0.0 **** 0.0
167 H61824 0.45813823426388 0.697199405963758 0.198823077891484 H 0.0 **** 0.0
168 H61826 0.45248845699734 0.691096813027884 0.219535459869915 H 0.0 **** 0.0
169 H61828 0.439485643855909 0.718551876609371 0.214881213790443 H 0.0 **** 0.0
170 H61830 0.458057214543941 0.72692268416123 0.205723721255077 H 0.0 **** 0.0
171 H61832 0.451056537509815 0.734548528630911 0.238355751076381 H 0.0 **** 0.0
172 H61834 0.528249188906251 0.688049556123635 0.257280286879907 H 0.0 **** 0.0
173 H61835 0.557910602969553 0.730948042225454 0.23351070190975 H 0.0 **** 0.0
174 H61837 0.561259231182753 0.73785010848612 0.254599643873789 H 0.0 **** 0.0
175 H61839 0.530379628071888 0.7408786823782 0.250585617688699 H 0.0 **** 0.0
176 H61841 0.587618566206966 0.713549133983271 0.240747815051289 H 0.0 **** 0.0
177 H61843 0.585149246719769 0.724490062561963 0.260082387164452 H 0.0 **** 0.0
178 H61845 0.592054499333446 0.701543522772224 0.276364492559961 H 0.0 **** 0.0
179 H61847 0.60239635722022 0.694937157450321 0.257679044182778 H 0.0 **** 0.0
180 H61849 0.539584597800667 0.666764864858692 0.263679647363074 H 0.0 **** 0.0
181 H61851 0.553407686269703 0.657974983143997 0.248633542402399 H 0.0 **** 0.0
182 H61853 0.560152531635835 0.660660566488478 0.286470241697305 H 0.0 **** 0.0
183 H61855 0.580451393165981 0.645374113653068 0.257239124404102 H 0.0 **** 0.0
184 H61857 0.585575944647447 0.641800389486429 0.278683747506488 H 0.0 **** 0.0
185 H61859 0.601203424704559 0.666752508808852 0.264410976830812 H 0.0 **** 0.0
186 H61861 0.591456873903974 0.670856905413379 0.284025464169794 H 0.0 **** 0.0
187 H61863 0.551991600789657 0.674137584427456 0.227343787353991 H 0.0 **** 0.0
188 H61865 0.554907501690309 0.631867447411398 0.17542602088567 H 0.0 **** 0.0
189 H61867 0.555523825542692 0.614934317862886 0.150752440916398 H 0.0 **** 0.0
190 H61869 0.473024146592711 0.668785230587181 0.166250551908197 H 0.0 **** 0.0
191 H61871 0.549441682511432 0.553338064859651 0.106470143074824 H 0.0 **** 0.0
192 H61873 0.544373017101673 0.561837747949475 0.134697384455523 H 0.0 **** 0.0
193 H61875 0.566382732412702 0.593131276484533 0.131198620218829 H 0.0 **** 0.0
194 H61877 0.581362807069323 0.569293652869141 0.137187389583551 H 0.0 **** 0.0
195 H61879 0.569834779662669 0.552260572410264 0.145702111872166 H 0.0 **** 0.0
196 H61881 0.570296021467617 0.53810702144134 0.117239481678841 H 0.0 **** 0.0
197 H61883 0.590950792013417 0.542316378437598 0.124366259803227 H 0.0 **** 0.0
198 H61885 0.594140817944249 0.5662976229222 0.106340312944885 H 0.0 **** 0.0
199 H61887 0.572319413256487 0.58394017741473 0.104482063352395 H 0.0 **** 0.0
200 H61889 0.558209566747929 0.563995380226122 0.0747790719542497 H 0.0 **** 0.0
201 H61891 0.559915546209561 0.586175364951407 0.0774568009517733 H 0.0 **** 0.0
202 H61893 0.59146378282981 0.583565229348971 0.0774542380006352 H 0.0 **** 0.0
203 H61895 0.583291137014504 0.576075877835539 0.0582365691229726 H 0.0 **** 0.0
204 H61897 0.606610677921961 0.55825689928831 0.0758673303372517 H 0.0 **** 0.0
205 H61899 0.591106358893463 0.547771380418916 0.0638789088868071 H 0.0 **** 0.0
206 H61901 0.577446746901519 0.539673399778513 0.0875440885852085 H 0.0 **** 0.0
207 H61903 0.459585784400899 0.683833538290485 0.108451888463543 H 0.0 **** 0.0
208 H61905 0.455221113815842 0.697559209034773 0.134740864909987 H 0.0 **** 0.0
209 H61907 0.442596990512164 0.66504628495558 0.150611415832508 H 0.0 **** 0.0
210 H61909 0.443346538390479 0.685319596820238 0.15961991244294 H 0.0 **** 0.0
211 H61911 0.414901834502195 0.687498461502058 0.15202519777741 H 0.0 **** 0.0
212 H61913 0.416264247127823 0.669647354951857 0.138780188063116 H 0.0 **** 0.0
213 H61915 0.427074189163175 0.705443260559504 0.128673265602255 H 0.0 **** 0.0
214 H61917 0.408722267672844 0.69481474722318 0.121673417541956 H 0.0 **** 0.0
215 H61919 0.432395729525608 0.692741711691707 0.100415908522411 H 0.0 **** 0.0
216 H61921 0.425151337674517 0.673052296965251 0.107476436617758 H 0.0 **** 0.0
217 H61923 0.450096071582015 0.635283408722831 0.0981090710298738 H 0.0 **** 0.0
218 H61925 0.448088107176122 0.613937575316599 0.0754104936367611 H 0.0 **** 0.0
219 H61927 0.531631856683595 0.580072557757861 0.078536318138993 H 0.0 **** 0.0
220 H61929 0.53309091485379 0.573330578315247 0.0485375916521903 H 0.0 **** 0.0
221 H61931 0.51930735845716 0.575422563004831 0.0249059997260052 H 0.0 **** 0.0
222 H61933 0.506177494702876 0.539482705363675 0.0296129003316064 H 0.0 **** 0.0
223 H61935 0.542114203453382 0.55134812174183 0.0221270483325147 H 0.0 **** 0.0
224 H61937 0.53526408301841 0.530151774974309 0.0202842685932107 H 0.0 **** 0.0
225 H61939 0.549340434958843 0.542566240308235 0.0492167539409138 H 0.0 **** 0.0
226 H61941 0.534768187492991 0.525775697367246 0.0492803808353406 H 0.0 **** 0.0
227 H61943 0.529571434732199 0.550348479256493 0.0705859520078653 H 0.0 **** 0.0
228 H61945 0.512056713606194 0.542856007894106 0.0590910866914376 H 0.0 **** 0.0
229 H61947 0.537203578566678 0.640590740258406 0.277923201391095 H 0.0 **** 0.0
230 H61949 0.544572990620015 0.613244658986657 0.26455826986942 H 0.0 **** 0.0
231 H61951 0.565739979510803 0.620043278936106 0.261339628714441 H 0.0 **** 0.0
232 H61953 0.548956440441814 0.629973523100355 0.250221558846848 H 0.0 **** 0.0
233 H61955 0.553515935890532 0.636992786874261 0.304595086404748 H 0.0 **** 0.0
234 H61957 0.568489611544341 0.624120974392546 0.293817197814969 H 0.0 **** 0.0
235 H61959 0.547166646506869 0.617322388125968 0.295947119262917 H 0.0 **** 0.0
236 H61961 0.562478094276978 0.57976421846626 0.156298514136676 H 0.0 **** 0.0
237 H61963 0.437954978265659 0.594422501805161 0.0335509188532759 H 0.0 **** 0.0
238 H61965 0.424896880384249 0.59167797793566 0.00631090295652851 H 0.0 **** 0.0
239 H61967 0.425852853256395 0.583680464041864 -0.0222941869474362 H 0.0 **** 0.0
240 H61969 0.426475177147723 0.575486797171157 -0.0516459597632998 H 0.0 **** 0.0
241 H61971 0.441122118881316 0.563944453600607 -0.0755842056694187 H 0.0 **** 0.0
242 H61973 0.493914831589012 0.540504913475479 -0.0857291659434707 H 0.0 **** 0.0
243 H61975 0.465883781506107 0.551309578511553 -0.0882943558667495 H 0.0 **** 0.0
244 H61977 0.530133896682201 0.536607764055354 -0.00574425925787752 H 0.0 **** 0.0
245 H61979 0.545676247334924 0.537944223757942 -0.0263461633957078 H 0.0 **** 0.0
246 H61981 0.539468645920455 0.518434009658718 -0.0354051077921658 H 0.0 **** 0.0
247 H61983 0.563228187256797 0.532175308309404 -0.0518582613422654 H 0.0 **** 0.0
248 H61985 0.550645912858256 0.550462708732259 -0.0545399465253774 H 0.0 **** 0.0
249 H61987 0.543765208222821 0.514794218715998 -0.068711327458277 H 0.0 **** 0.0
250 H61989 0.546418809818106 0.533355742955743 -0.0806854664884656 H 0.0 **** 0.0
@<TRIPOS>BOND
1 3 2 1
2 4 3 1
3 5 4 1
4 6 5 1
5 1 2 1
6 1 6 1
7 8 7 1
8 9 8 1
9 10 9 1
10 4 7 1
11 3 10 1
12 12 11 1
13 13 12 1
14 14 13 1
15 8 11 1
16 7 14 1
17 16 15 1
18 17 16 Partial double
19 18 17 1
20 13 15 1
21 12 18 1
22 20 19 Partial double
23 21 20 Partial double
24 22 21 Partial double
25 17 19 Partial double
26 16 22 Partial double
27 24 23 1
28 25 24 1
29 15 25 Double
30 22 23 1
31 27 26 1
32 28 27 Partial double
33 29 28 Partial double
34 21 26 1
35 20 29 Partial double
36 31 30 1
37 32 31 1
38 18 30 1
39 19 32 1
40 34 33 Double
41 35 34 1
42 36 35 1
43 31 33 1
44 30 36 Double
45 38 37 1
46 39 38 1
47 40 39 Double
48 34 37 1
49 33 40 1
50 42 41 1
51 43 42 1
52 44 43 1
53 40 41 1
54 39 44 1
55 46 45 Partial double
56 32 46 1
57 29 45 Partial double
58 48 47 Partial double
59 49 48 1
60 45 49 Partial double
61 28 47 Partial double
62 51 50 Partial double
63 52 51 Partial double
64 53 52 Partial double
65 48 50 Partial double
66 47 53 Partial double
67 55 54 Partial double
68 56 55 Partial double
69 57 56 Partial double
70 52 54 Partial double
71 51 57 Partial double
72 59 58 Partial double
73 60 59 Partial double
74 61 60 Partial double
75 56 58 Partial double
76 55 61 Partial double
77 63 62 Partial double
78 27 63 Partial double
79 53 62 Partial double
80 65 64 Partial double
81 62 65 Partial double
82 54 64 Partial double
83 67 66 Partial double
84 64 67 Partial double
85 61 66 Partial double
86 69 68 Partial double
87 70 69 Partial double
88 66 70 Partial double
89 60 68 Partial double
90 72 71 1
91 73 72 1
92 74 73 1
93 59 71 1
94 58 74 1
95 76 75 1
96 77 76 1
97 78 77 1
98 73 75 1
99 72 78 1
100 80 79 1
101 81 80 1
102 82 81 1
103 78 79 1
104 77 82 1
105 84 83 Partial double
106 85 84 Partial double
107 67 85 Partial double
108 65 83 Partial double
109 87 86 1
110 88 87 1
111 89 88 1
112 84 86 1
113 83 89 1
114 91 90 1
115 92 91 1
116 93 92 1
117 88 90 1
118 87 93 1
119 95 94 Partial double
120 85 95 Partial double
121 70 94 Partial double
122 97 96 Partial double
123 98 97 Partial double
124 94 98 Partial double
125 69 96 Partial double
126 100 99 Partial double
127 101 100 Partial double
128 68 101 Partial double
129 96 99 Partial double
130 103 102 1
131 104 103 Partial double
132 97 102 1
133 99 104 1
134 106 105 1
135 107 106 1
136 100 105 1
137 104 107 Partial double
138 109 108 1
139 110 109 1
140 111 110 1
141 106 108 1
142 105 111 1
143 113 112 1
144 114 113 1
145 103 114 Partial double
146 107 112 Partial double
147 108 115 1
148 112 116 Partial double
149 115 116 Partial double
150 42 117 1
151 117 118 1
152 117 119 1
153 74 120 1
154 122 121 1
155 123 122 Partial double
156 124 123 1
157 114 121 Partial double
158 113 124 Partial double
159 126 125 Partial double
160 127 126 1
161 128 127 Partial double
162 124 125 Partial double
163 123 128 Partial double
164 130 129 Partial double
165 131 130 1
166 132 131 1
167 127 129 Partial double
168 126 132 Partial double
169 134 133 Partial double
170 135 134 Partial double
171 125 135 Partial double
172 132 133 Partial double
173 137 136 Partial double
174 138 137 Partial double
175 131 138 Partial double
176 133 136 Partial double
177 140 139 Partial double
178 134 140 Partial double
179 116 135 Partial double
180 115 139 Partial double
181 142 141 Partial double
182 140 142 Partial double
183 136 141 Partial double
184 144 143 1
185 145 144 1
186 146 145 1
187 142 143 1
188 141 146 1
189 146 147 Double
190 1 148 1
191 1 149 1
192 2 150 1
193 2 151 1
194 3 152 1
195 4 153 1
196 5 154 1
197 5 155 1
198 7 156 1
199 8 157 1
200 9 158 1
201 9 159 1
202 10 160 1
203 10 161 1
204 12 162 1
205 13 163 1
206 14 164 1
207 14 165 1
208 18 166 1
209 23 167 1
210 23 168 1
211 24 169 1
212 24 170 1
213 25 171 1
214 35 173 1
215 35 174 1
216 36 175 1
217 37 176 1
218 37 177 1
219 38 178 1
220 38 179 1
221 41 180 1
222 41 181 1
223 42 182 1
224 43 183 1
225 43 184 1
226 44 185 1
227 44 186 1
228 46 187 1
229 50 188 1
230 57 189 1
231 63 190 1
232 72 191 1
233 73 192 1
234 74 193 1
235 75 194 1
236 75 195 1
237 76 196 1
238 76 197 1
239 77 198 1
240 78 199 1
241 79 200 1
242 79 201 1
243 80 202 1
244 80 203 1
245 81 204 1
246 81 205 1
247 82 206 1
248 87 207 1
249 88 208 1
250 90 209 1
251 90 210 1
252 91 211 1
253 91 212 1
254 92 213 1
255 92 214 1
256 93 215 1
257 93 216 1
258 95 217 1
259 98 218 1
260 101 219 1
261 105 220 1
262 106 221 1
263 108 222 1
264 109 223 1
265 109 224 1
266 110 225 1
267 110 226 1
268 111 227 1
269 111 228 1
270 117 229 1
271 118 230 1
272 118 231 1
273 118 232 1
274 119 233 1
275 119 234 1
276 119 235 1
277 120 236 1
278 121 237 1
279 122 238 1
280 128 239 1
281 129 240 1
282 130 241 1
283 137 242 1
284 138 243 1
285 139 244 1
286 143 245 1
287 143 246 1
288 144 247 1
289 144 248 1
290 145 249 1
291 145 250 1
292 31 172 1
@<TRIPOS>MOLECULE
Sketch 4
250 292
SMALL
USER_CHARGES


@<TRIPOS>ATOM
1 C61992 0.583511313754575 0.222159775263082 0.406273520781501 C 0.0 **** 0.0
2 C61993 0.572743741944065 0.213470765509612 0.392371334377539 C 0.0 **** 0.0
3 C61994 0.578495262382904 0.195114761289367 0.389374022628108 C 0.0 **** 0.0
4 C61995 0.59792034183109 0.194312699277117 0.385405412371494 C 0.0 **** 0.0
5 C61996 0.606786248367534 0.210165097668091 0.392668171857137 C 0.0 **** 0.0
6 O61997 0.599638671342929 0.214499975047845 0.408572663996799 O 0.0 **** 0.0
7 C62004 0.601233614098429 0.190797671601244 0.366458888626703 C 0.0 **** 0.0
8 C62005 0.593709178943764 0.173344081864686 0.361457915792833 C 0.0 **** 0.0
9 C62006 0.576633618352258 0.169801811699103 0.37014266666144 C 0.0 **** 0.0
10 C62007 0.567733378334891 0.185953253210573 0.37597618280571 C 0.0 **** 0.0
11 O62013 0.604371529706195 0.15963316825311 0.366436320474726 O 0.0 **** 0.0
12 C62014 0.621143405715867 0.160078756144117 0.359619623950312 C 0.0 **** 0.0
13 C62015 0.630026029977082 0.17614043271493 0.366002019842643 C 0.0 **** 0.0
14 C62016 0.6199774376283 0.191942316371442 0.360990451994002 C 0.0 **** 0.0
15 C62022 0.648192965238212 0.176562833851468 0.359994367739491 C 0.0 **** 0.0
16 C62023 0.6517556850408 0.170379554767932 0.342289207167333 C 0.0 **** 0.0
17 C62024 0.639639606461407 0.161353012176227 0.333344424295575 C 0.0 **** 0.0
18 C62025 0.62173424620986 0.158939152542134 0.340254939062241 C 0.0 **** 0.0
19 C62031 0.643618141042757 0.155271262623872 0.317301012150793 C 0.0 **** 0.0
20 C62032 0.658675361977417 0.159991260908845 0.309700521555622 C 0.0 **** 0.0
21 C62033 0.670780924011619 0.168858936218025 0.318778632826643 C 0.0 **** 0.0
22 C62034 0.667514336993451 0.17369668070069 0.335344135623233 C 0.0 **** 0.0
23 C62040 0.680681655432073 0.183715187782662 0.345084539036649 C 0.0 **** 0.0
24 C62041 0.679186627294891 0.180677010472632 0.364372762023675 C 0.0 **** 0.0
25 C62042 0.661011310209336 0.18123917716326 0.370230888300855 C 0.0 **** 0.0
26 O62047 0.686246448276383 0.172961533541322 0.311739728794547 O 0.0 **** 0.0
27 C62048 0.688319934469455 0.171641740896903 0.294462764660389 C 0.0 **** 0.0
28 C62049 0.677064255718256 0.163539464666765 0.283740532547511 C 0.0 **** 0.0
29 C62050 0.661483773837376 0.155860905932969 0.291386127595088 C 0.0 **** 0.0
30 C62056 0.614091249857075 0.143363629159597 0.332455746349422 C 0.0 **** 0.0
31 C62057 0.613313522812878 0.145337475157719 0.313407935720404 C 0.0 **** 0.0
32 C62058 0.631918060015796 0.143291575131191 0.308058686229605 C 0.0 **** 0.0
33 C62063 0.601397939948168 0.132644778544157 0.304500278094948 C 0.0 **** 0.0
34 C62064 0.59821239255147 0.117717119416621 0.312612782015242 C 0.0 **** 0.0
35 C62065 0.604170806563235 0.113576130696138 0.330400857918467 C 0.0 **** 0.0
36 C62066 0.610195959402214 0.12881217162786 0.340226739574793 C 0.0 **** 0.0
37 C62072 0.586532337611734 0.104384454716196 0.305848184517118 C 0.0 **** 0.0
38 C62073 0.582701177547556 0.10647084910433 0.286936238018005 C 0.0 **** 0.0
39 C62074 0.584842726914557 0.124325628719988 0.280778630508593 C 0.0 **** 0.0
40 C62075 0.593892226422268 0.136310676951648 0.289326654095955 C 0.0 **** 0.0
41 C62081 0.59535367188473 0.153966024033057 0.281110738223384 C 0.0 **** 0.0
42 C62082 0.580975490807255 0.15759499235558 0.268849384491651 C 0.0 **** 0.0
43 C62083 0.581090118533719 0.143556734328748 0.2554634160148 C 0.0 **** 0.0
44 C62084 0.576739639736588 0.126648066874019 0.263628210206525 C 0.0 **** 0.0
45 C62090 0.650107665472668 0.146772902811157 0.28228573929008 C 0.0 **** 0.0
46 C62091 0.635619738806222 0.140783904539632 0.289375983939181 C 0.0 **** 0.0
47 C62095 0.680385215493361 0.163184555794002 0.266104878324878 C 0.0 **** 0.0
48 C62096 0.670001187133227 0.15454420702658 0.254334681408886 C 0.0 **** 0.0
49 S62097 0.653577780890954 0.141705276059518 0.261104980015925 S 0.0 **** 0.0
50 C62102 0.672796054960696 0.155204054057973 0.237236171122105 C 0.0 **** 0.0
51 C62103 0.687004877836884 0.163874516575314 0.230775067792909 C 0.0 **** 0.0
52 C62104 0.698194738475735 0.171706208195676 0.242335221387946 C 0.0 **** 0.0
53 C62105 0.694502632661438 0.171991715646079 0.25959776745842 C 0.0 **** 0.0
54 C62111 0.713419390969222 0.178185240545641 0.236213158816037 C 0.0 **** 0.0
55 C62112 0.71781521098577 0.17687363341186 0.219101733822239 C 0.0 **** 0.0
56 C62113 0.705994285246012 0.171060520678202 0.207110736016163 C 0.0 **** 0.0
57 C62114 0.690818920872191 0.164108667379987 0.213377425199707 C 0.0 **** 0.0
58 C62120 0.70982999188795 0.171559283301696 0.189702063653284 C 0.0 **** 0.0
59 C62121 0.726461942127382 0.174257430300088 0.184871976581553 C 0.0 **** 0.0
60 C62122 0.738787331843153 0.179353487856535 0.19681587294114 C 0.0 **** 0.0
61 C62123 0.734012798547917 0.181100074448929 0.213771708995625 C 0.0 **** 0.0
62 C62129 0.705509426354913 0.180551756417949 0.270626248363265 C 0.0 **** 0.0
63 C62130 0.702520737201654 0.179171095287496 0.288024188912721 C 0.0 **** 0.0
64 C62134 0.724534892393313 0.185972809263253 0.24740223160064 C 0.0 **** 0.0
65 C62135 0.719729005543793 0.18933560598497 0.264014837030289 C 0.0 **** 0.0
66 C62139 0.745822410598347 0.186311319066725 0.225724490018445 C 0.0 **** 0.0
67 C62140 0.74070970594582 0.189985360266094 0.242143599168287 C 0.0 **** 0.0
68 C62144 0.756074175248644 0.182381274842033 0.192224781690232 C 0.0 **** 0.0
69 C62145 0.768097229586396 0.183928929559212 0.20525799577523 C 0.0 **** 0.0
70 C62146 0.762911507633389 0.187001042611124 0.221657837740789 C 0.0 **** 0.0
71 O62151 0.731620886744051 0.172101001157976 0.16825994135375 O 0.0 **** 0.0
72 C62152 0.71999108596306 0.167690259937433 0.155309701837228 C 0.0 **** 0.0
73 C62153 0.702461742347789 0.1746392948239 0.159067448469923 C 0.0 **** 0.0
74 C62154 0.696460619490415 0.167956535843373 0.176217296773669 C 0.0 **** 0.0
75 C62160 0.690226404933079 0.171207550271967 0.144081169456987 C 0.0 **** 0.0
76 C62161 0.698002785764461 0.159673469792655 0.130448128729846 C 0.0 **** 0.0
77 C62162 0.70630858837751 0.143888079244339 0.138168663388867 C 0.0 **** 0.0
78 C62163 0.719698036264234 0.148448915412546 0.152105638101613 C 0.0 **** 0.0
79 C62169 0.737460439679962 0.141756242127818 0.148071347136846 C 0.0 **** 0.0
80 C62170 0.73720783248592 0.123071042732239 0.142503999810763 C 0.0 **** 0.0
81 C62171 0.721060701049033 0.118019466020165 0.132535616754133 C 0.0 **** 0.0
82 N62172 0.712375444101926 0.132425790062291 0.125102689465614 N 0.0 **** 0.0
83 C62178 0.729524911561891 0.200502196963879 0.273975145752353 C 0.0 **** 0.0
84 C62179 0.746084330641776 0.203858444138441 0.269221513347521 C 0.0 **** 0.0
85 C62180 0.752057799645204 0.197013887064718 0.253804568733238 C 0.0 **** 0.0
86 O62185 0.757044883186388 0.213372375876955 0.278984734075792 O 0.0 **** 0.0
87 C62186 0.75121714157162 0.21704497071331 0.295694836551679 C 0.0 **** 0.0
88 C62187 0.732437825933945 0.220134982834135 0.296377872778523 C 0.0 **** 0.0
89 O62188 0.722799785556758 0.207018266708997 0.288730932992106 O 0.0 **** 0.0
90 C62194 0.728025829731848 0.237721129362303 0.289519042522013 C 0.0 **** 0.0
91 C62195 0.734767882724943 0.251511453027829 0.301579657522804 C 0.0 **** 0.0
92 C62196 0.750269149460871 0.245498778792081 0.311875201823103 C 0.0 **** 0.0
93 C62197 0.761147432761082 0.232639507900061 0.302151022963843 C 0.0 **** 0.0
94 C62203 0.775045618769684 0.190988915102081 0.23421816120013 C 0.0 **** 0.0
95 C62204 0.769382470434912 0.19688689767005 0.250032029080405 C 0.0 **** 0.0
96 C62208 0.785383512168749 0.183360066333107 0.20154582804624 C 0.0 **** 0.0
97 C62209 0.797618750612804 0.184814438933223 0.214515381261946 C 0.0 **** 0.0
98 C62210 0.792418484375681 0.189074699163901 0.230518048464422 C 0.0 **** 0.0
99 C62215 0.790895686827904 0.182815729306975 0.184702513603866 C 0.0 **** 0.0
100 C62216 0.779382891326256 0.184034494894547 0.171607078832205 C 0.0 **** 0.0
101 C62217 0.762407504442264 0.184131271166657 0.175578306468939 C 0.0 **** 0.0
102 O62222 0.81472163514547 0.183386210175395 0.211413958702122 O 0.0 **** 0.0
103 C62223 0.820154588600795 0.180282267939649 0.195135400739423 C 0.0 **** 0.0
104 C62224 0.809384154488144 0.180885832190917 0.181625692471059 C 0.0 **** 0.0
105 C62229 0.784557358580683 0.184455671712957 0.153111446728114 C 0.0 **** 0.0
106 C62230 0.803517009784923 0.178416155797005 0.150199392700298 C 0.0 **** 0.0
107 C62231 0.81515694948011 0.17847063941693 0.165570081318572 C 0.0 **** 0.0
108 C62236 0.812079570000756 0.18799735506073 0.135503300069845 C 0.0 **** 0.0
109 C62237 0.799748960774656 0.190012766412717 0.120669317895598 C 0.0 **** 0.0
110 C62238 0.784371113222658 0.201121478186326 0.125743322549251 C 0.0 **** 0.0
111 C62239 0.781440262369586 0.201821337403488 0.145060226993074 C 0.0 **** 0.0
112 C62245 0.831936157923937 0.175474284500783 0.163003417244143 C 0.0 **** 0.0
113 C62246 0.842550439114281 0.173593084270672 0.176590997764056 C 0.0 **** 0.0
114 C62247 0.836737857969726 0.176178036516472 0.192610899988604 C 0.0 **** 0.0
115 C62252 0.828667685714701 0.178879249741709 0.131436874668937 C 0.0 **** 0.0
116 C62254 0.83822583621786 0.173434215392284 0.145124461226385 C 0.0 **** 0.0
117 C62257 0.581602629327204 0.175730524144049 0.261573201832268 C 0.0 **** 0.0
118 C62259 0.596096774189616 0.178759727667964 0.249049136160861 C 0.0 **** 0.0
119 C62261 0.564742119017438 0.180633889448826 0.253360865130813 C 0.0 **** 0.0
120 O62263 0.681258389747055 0.176283471194513 0.180752468157456 O 0.0 **** 0.0
121 C62265 0.847431279566008 0.174338016117174 0.20609666579719 C 0.0 **** 0.0
122 C62266 0.86374002537152 0.169414200681073 0.203668038821998 C 0.0 **** 0.0
123 C62267 0.869603089809438 0.166506174833187 0.187706089445082 C 0.0 **** 0.0
124 C62268 0.858971695730289 0.168801897143974 0.174228724519115 C 0.0 **** 0.0
125 C62274 0.865226115739187 0.165371282443412 0.156910370189953 C 0.0 **** 0.0
126 C62275 0.88174411001923 0.160827362138305 0.154899705616149 C 0.0 **** 0.0
127 C62276 0.892616088002738 0.158539005492926 0.169919917234695 C 0.0 **** 0.0
128 C62277 0.886081685553222 0.161229507088884 0.185720973228477 C 0.0 **** 0.0
129 C62283 0.909105080037902 0.153850593921321 0.16774354951974 C 0.0 **** 0.0
130 C62284 0.915904332913236 0.151984878356628 0.15191227727293 C 0.0 **** 0.0
131 C62285 0.906359252278182 0.154034698338979 0.13762831171538 C 0.0 **** 0.0
132 C62286 0.888236791921926 0.158374517056988 0.139077812874572 C 0.0 **** 0.0
133 C62292 0.878204369140362 0.160540359910807 0.124598842973152 C 0.0 **** 0.0
134 C62293 0.861250984604219 0.165092972229952 0.126579116292928 C 0.0 **** 0.0
135 C62294 0.854658277366033 0.167418410559508 0.142837256779288 C 0.0 **** 0.0
136 C62299 0.885287937888411 0.159369599268768 0.108441341591014 C 0.0 **** 0.0
137 C62300 0.903737949018134 0.153981767859479 0.107911599266229 C 0.0 **** 0.0
138 C62301 0.913375161933159 0.151822919823703 0.122064656653945 C 0.0 **** 0.0
139 C62306 0.835262823129953 0.176623019761301 0.115434344786249 C 0.0 **** 0.0
140 C62307 0.851434524713933 0.169263270767622 0.112395712703071 C 0.0 **** 0.0
141 C62312 0.875522170419046 0.163268698373852 0.0943011300034822 C 0.0 **** 0.0
142 C62313 0.858517604501528 0.167592704498713 0.0960775219295984 C 0.0 **** 0.0
143 C62317 0.847817700160571 0.171702944115724 0.0805761256016402 C 0.0 **** 0.0
144 C62318 0.852806917184109 0.160562158724019 0.0655763955263718 C 0.0 **** 0.0
145 C62319 0.871413517424103 0.162641170702739 0.0619664285634354 C 0.0 **** 0.0
146 C62320 0.883138289969597 0.163167172671236 0.0768885087850905 C 0.0 **** 0.0
147 O62326 0.898141048490052 0.164327097466502 0.0738645842551918 O 0.0 **** 0.0
148 H62328 0.577173027849724 0.221154982445488 0.418602109747707 H 0.0 **** 0.0
149 H62330 0.584993726105401 0.235767497809646 0.403567848324709 H 0.0 **** 0.0
150 H62332 0.559211524989081 0.213860670584275 0.395694778679708 H 0.0 **** 0.0
151 H62334 0.573901390360991 0.220411634373952 0.380317755730416 H 0.0 **** 0.0
152 H62336 0.576549881041975 0.188404858630579 0.401464866727708 H 0.0 **** 0.0
153 H62338 0.602972921825056 0.183317597345342 0.392348528041046 H 0.0 **** 0.0
154 H62340 0.606061175756574 0.220903271143632 0.383776630082879 H 0.0 **** 0.0
155 H62342 0.620275251973116 0.20773474927069 0.394928067895299 H 0.0 **** 0.0
156 H62344 0.594260242166102 0.200618150260351 0.359370902236455 H 0.0 **** 0.0
157 H62346 0.591757665812514 0.173229578036558 0.347641690097606 H 0.0 **** 0.0
158 H62348 0.579251142020408 0.161938667228584 0.381348588213605 H 0.0 **** 0.0
159 H62350 0.568321407650203 0.162191950378417 0.361945023309491 H 0.0 **** 0.0
160 H62352 0.555141670958614 0.183079333287066 0.381182176750548 H 0.0 **** 0.0
161 H62354 0.565642129188206 0.194253016251834 0.36496372297096 H 0.0 **** 0.0
162 H62356 0.627423272693444 0.148971791802885 0.365185287867325 H 0.0 **** 0.0
163 H62358 0.630157281489611 0.175468539438056 0.379923159241174 H 0.0 **** 0.0
164 H62360 0.620357343405608 0.193466571003949 0.347130556567468 H 0.0 **** 0.0
165 H62362 0.625962314961902 0.203449096834259 0.366085281097511 H 0.0 **** 0.0
166 H62364 0.614204109503959 0.169658307831345 0.335348330852855 H 0.0 **** 0.0
167 H62366 0.693534344890691 0.180390256980138 0.340902157341249 H 0.0 **** 0.0
168 H62368 0.679039621886503 0.197304897513495 0.342379653101261 H 0.0 **** 0.0
169 H62370 0.686746578624944 0.190190791442487 0.371248120410368 H 0.0 **** 0.0
170 H62372 0.684606020927151 0.168253195044307 0.367576689027962 H 0.0 **** 0.0
171 H62374 0.659002472969097 0.185035498521353 0.383321147421763 H 0.0 **** 0.0
172 H62376 0.609215917644207 0.158349405432773 0.310691208229052 H 0.0 **** 0.0
173 H62377 0.614296985210155 0.104003949934829 0.329834404493558 H 0.0 **** 0.0
174 H62379 0.593519933981854 0.107799849615913 0.337397528242895 H 0.0 **** 0.0
175 H62381 0.611743606980727 0.12738568382104 0.353846246974197 H 0.0 **** 0.0
176 H62383 0.591956067275882 0.0917133293551989 0.308097788505598 H 0.0 **** 0.0
177 H62385 0.574632151278684 0.104970716252299 0.313105307497632 H 0.0 **** 0.0
178 H62387 0.569735375810324 0.101999059553081 0.28431135485023 H 0.0 **** 0.0
179 H62389 0.591320651059806 0.0983699090518391 0.279581958810777 H 0.0 **** 0.0
180 H62391 0.5953525628978 0.163874252340236 0.290860612551004 H 0.0 **** 0.0
181 H62393 0.60753387644261 0.154933586110269 0.274444678170109 H 0.0 **** 0.0
182 H62395 0.568963771140428 0.156623252054328 0.275968340389269 H 0.0 **** 0.0
183 H62397 0.593779833540868 0.142925659048476 0.249714346730472 H 0.0 **** 0.0
184 H62399 0.572197307293822 0.14620406290373 0.245116403506956 H 0.0 **** 0.0
185 H62401 0.580466613641613 0.116103686275355 0.255267507316959 H 0.0 **** 0.0
186 H62403 0.562900156652887 0.125746313800873 0.265242451190763 H 0.0 **** 0.0
187 H62405 0.626733586281067 0.133378344959437 0.281920353889835 H 0.0 **** 0.0
188 H62407 0.664507881320033 0.148466973013608 0.228371165746392 H 0.0 **** 0.0
189 H62409 0.681746915660503 0.158199238746179 0.204692015860517 H 0.0 **** 0.0
190 H62411 0.711253434343 0.184357900918072 0.297441746079723 H 0.0 **** 0.0
191 H62413 0.724771668582772 0.173866467037022 0.14372466644221 H 0.0 **** 0.0
192 H62415 0.703646059944716 0.188467698760087 0.160581534248763 H 0.0 **** 0.0
193 H62417 0.694222647147288 0.154166001778894 0.175656655361086 H 0.0 **** 0.0
194 H62419 0.678401778037396 0.165449967611653 0.148511398733149 H 0.0 **** 0.0
195 H62421 0.686505409277458 0.183242351912877 0.138164399725333 H 0.0 **** 0.0
196 H62423 0.707433156350848 0.166831603411597 0.123084392331264 H 0.0 **** 0.0
197 H62425 0.688220100208763 0.155790995514853 0.121298794858183 H 0.0 **** 0.0
198 H62427 0.69587979715749 0.137098224679063 0.144420194354197 H 0.0 **** 0.0
199 H62429 0.715942759694866 0.142316934146804 0.164049147561164 H 0.0 **** 0.0
200 H62431 0.742594395468454 0.149460916109539 0.137666838282404 H 0.0 **** 0.0
201 H62433 0.745938987032126 0.143603846699887 0.15896329287138 H 0.0 **** 0.0
202 H62435 0.738359743263887 0.114746759283967 0.153604698538442 H 0.0 **** 0.0
203 H62437 0.748570405022511 0.120514316926317 0.134836659409053 H 0.0 **** 0.0
204 H62439 0.712106496414783 0.111616068258605 0.141070261481368 H 0.0 **** 0.0
205 H62441 0.724170381705858 0.108674815937267 0.122677484681274 H 0.0 **** 0.0
206 H62443 0.720316252563366 0.138521773979699 0.11728515764897 H 0.0 **** 0.0
207 H62445 0.753965152935094 0.205832402339189 0.303439737282841 H 0.0 **** 0.0
208 H62447 0.728683860054745 0.220069286874417 0.309820411063064 H 0.0 **** 0.0
209 H62449 0.733504092191559 0.239248457466929 0.27679161303437 H 0.0 **** 0.0
210 H62451 0.714233142619211 0.238799687143326 0.288001058984352 H 0.0 **** 0.0
211 H62453 0.724714412579259 0.255267929658766 0.31046005558428 H 0.0 **** 0.0
212 H62455 0.737960601608252 0.262949030079394 0.294366636735426 H 0.0 **** 0.0
213 H62457 0.745846071497277 0.239583515952337 0.323688294949301 H 0.0 **** 0.0
214 H62459 0.758031471118327 0.256407905048337 0.315738928392731 H 0.0 **** 0.0
215 H62461 0.772185578946496 0.229073965834275 0.309850075859009 H 0.0 **** 0.0
216 H62463 0.766283675856173 0.238982990693865 0.290864559756887 H 0.0 **** 0.0
217 H62465 0.778542345723216 0.201047555009917 0.259540809975014 H 0.0 **** 0.0
218 H62467 0.80181744768849 0.191517743323515 0.240462288879378 H 0.0 **** 0.0
219 H62469 0.754009803373588 0.18514990668342 0.164628793853851 H 0.0 **** 0.0
220 H62471 0.776523588852651 0.175384321919122 0.146179422761227 H 0.0 **** 0.0
221 H62473 0.802540521725819 0.165122195061594 0.146212659818852 H 0.0 **** 0.0
222 H62475 0.815407070955375 0.200884745318616 0.139827497108157 H 0.0 **** 0.0
223 H62477 0.795405815294853 0.177372334862409 0.116732876093823 H 0.0 **** 0.0
224 H62479 0.806020347490465 0.195680705667171 0.109655085463006 H 0.0 **** 0.0
225 H62481 0.772893324750455 0.196260731354441 0.119501473016627 H 0.0 **** 0.0
226 H62483 0.786129954667897 0.214069246827061 0.12091452278391 H 0.0 **** 0.0
227 H62485 0.76852822338487 0.206395861928916 0.147644812839191 H 0.0 **** 0.0
228 H62487 0.79011195684583 0.211098466903073 0.150820568047752 H 0.0 **** 0.0
229 H62489 0.583489264857644 0.184418916106578 0.272370577973852 H 0.0 **** 0.0
230 H62491 0.5963321205156 0.192071960712232 0.244980959076347 H 0.0 **** 0.0
231 H62493 0.594592619196195 0.170902965071358 0.237656137782294 H 0.0 **** 0.0
232 H62495 0.60852799307729 0.175871872055136 0.254586717194231 H 0.0 **** 0.0
233 H62497 0.56473219470425 0.194048208571418 0.249659378433984 H 0.0 **** 0.0
234 H62499 0.554058212302501 0.17870599413786 0.262073263439075 H 0.0 **** 0.0
235 H62501 0.562343152939866 0.173047040096404 0.241952127691884 H 0.0 **** 0.0
236 H62503 0.673071336537147 0.172898544927195 0.172662177446553 H 0.0 **** 0.0
237 H62505 0.84309976252248 0.176380593533921 0.219041693979131 H 0.0 **** 0.0
238 H62507 0.871779009551866 0.167719852879004 0.214747480908561 H 0.0 **** 0.0
239 H62509 0.893988741189449 0.159134932497902 0.196820503091673 H 0.0 **** 0.0
240 H62511 0.917357688142608 0.151697838000522 0.178569902962327 H 0.0 **** 0.0
241 H62513 0.929281260653 0.148723039867024 0.150961931343008 H 0.0 **** 0.0
242 H62515 0.909768332524785 0.151607559559169 0.0958067446551961 H 0.0 **** 0.0
243 H62517 0.926618410724593 0.148245924872588 0.120625250457116 H 0.0 **** 0.0
244 H62519 0.827596025167531 0.180994499062767 0.104761035379127 H 0.0 **** 0.0
245 H62521 0.834298754438962 0.16962669919417 0.0830657476403623 H 0.0 **** 0.0
246 H62523 0.849342632099704 0.185174236206037 0.0772935756185991 H 0.0 **** 0.0
247 H62525 0.845302551207934 0.163561086764583 0.0542712528451527 H 0.0 **** 0.0
248 H62527 0.850081450676881 0.147331989440018 0.0687123567003659 H 0.0 **** 0.0
249 H62529 0.874362598378166 0.174723897129715 0.0558032692104451 H 0.0 **** 0.0
250 H62531 0.877026477668307 0.152763752182343 0.0539467316190946 H 0.0 **** 0.0
@<TRIPOS>BOND
1 3 2 1
2 4 3 1
3 5 4 1
4 6 5 1
5 1 2 1
6 1 6 1
7 8 7 1
8 9 8 1
9 10 9 1
10 4 7 1
11 3 10 1
12 12 11 1
13 13 12 1
14 14 13 1
15 8 11 1
16 7 14 1
17 16 15 1
18 17 16 Partial double
19 18 17 1
20 13 15 1
21 12 18 1
22 20 19 Partial double
23 21 20 Partial double
24 22 21 Partial double
25 17 19 Partial double
26 16 22 Partial double
27 24 23 1
28 25 24 1
29 15 25 Double
30 22 23 1
31 27 26 1
32 28 27 Partial double
33 29 28 Partial double
34 21 26 1
35 20 29 Partial double
36 31 30 1
37 32 31 1
38 18 30 1
39 19 32 1
40 34 33 Double
41 35 34 1
42 36 35 1
43 31 33 1
44 30 36 Double
45 38 37 1
46 39 38 1
47 40 39 Double
48 34 37 1
49 33 40 1
50 42 41 1
51 43 42 1
52 44 43 1
53 40 41 1
54 39 44 1
55 46 45 Partial double
56 32 46 1
57 29 45 Partial double
58 48 47 Partial double
59 49 48 1
60 45 49 Partial double
61 28 47 Partial double
62 51 50 Partial double
63 52 51 Partial double
64 53 52 Partial double
65 48 50 Partial double
66 47 53 Partial double
67 55 54 Partial double
68 56 55 Partial double
69 57 56 Partial double
70 52 54 Partial double
71 51 57 Partial double
72 59 58 Partial double
73 60 59 Partial double
74 61 60 Partial double
75 56 58 Partial double
76 55 61 Partial double
77 63 62 Partial double
78 27 63 Partial double
79 53 62 Partial double
80 65 64 Partial double
81 62 65 Partial double
82 54 64 Partial double
83 67 66 Partial double
84 64 67 Partial double
85 61 66 Partial double
86 69 68 Partial double
87 70 69 Partial double
88 66 70 Partial double
89 60 68 Partial double
90 72 71 1
91 73 72 1
92 74 73 1
93 59 71 1
94 58 74 1
95 76 75 1
96 77 76 1
97 78 77 1
98 73 75 1
99 72 78 1
100 80 79 1
101 81 80 1
102 82 81 1
103 78 79 1
104 77 82 1
105 84 83 Partial double
106 85 84 Partial double
107 67 85 Partial double
108 65 83 Partial double
109 87 86 1
110 88 87 1
111 89 88 1
112 84 86 1
113 83 89 1
114 91 90 1
115 92 91 1
116 93 92 1
117 88 90 1
118 87 93 1
119 95 94 Partial double
120 85 95 Partial double
121 70 94 Partial double
122 97 96 Partial double
123 98 97 Partial double
124 94 98 Partial double
125 69 96 Partial double
126 100 99 Partial double
127 101 100 Partial double
128 68 101 Partial double
129 96 99 Partial double
130 103 102 1
131 104 103 Partial double
132 97 102 1
133 99 104 1
134 106 105 1
135 107 106 1
136 100 105 1
137 104 107 Partial double
138 109 108 1
139 110 109 1
140 111 110 1
141 106 108 1
142 105 111 1
143 113 112 1
144 114 113 1
145 103 114 Partial double
146 107 112 Partial double
147 108 115 1
148 112 116 Partial double
149 115 116 Partial double
150 42 117 1
151 117 118 1
152 117 119 1
153 74 120 1
154 122 121 1
155 123 122 Partial double
156 124 123 1
157 114 121 Partial double
158 113 124 Partial double
159 126 125 Partial double
160 127 126 1
161 128 127 Partial double
162 124 125 Partial double
163 123 128 Partial double
164 130 129 Partial double
165 131 130 1
166 132 131 1
167 127 129 Partial double
168 126 132 Partial double
169 134 133 Partial double
170 135 134 Partial double
171 125 135 Partial double
172 132 133 Partial double
173 137 136 Partial double
174 138 137 Partial double
175 131 138 Partial double
176 133 136 Partial double
177 140 139 Partial double
178 134 140 Partial double
179 116 135 Partial double
180 115 139 Partial double
181 142 141 Partial double
182 140 142 Partial double
183 136 141 Partial double
184 144 143 1
185 145 144 1
186 146 145 1
187 142 143 1
188 141 146 1
189 146 147 Double
190 1 148 1
191 1 149 1
192 2 150 1
193 2 151 1
194 3 152 1
195 4 153 1
196 5 154 1
197 5 155 1
198 7 156 1
199 8 157 1
200 9 158 1
201 9 159 1
202 10 160 1
203 10 161 1
204 12 162 1
205 13 163 1
206 14 164 1
207 14 165 1
208 18 166 1
209 23 167 1
210 23 168 1
211 24 169 1
212 24 170 1
213 25 171 1
214 35 173 1
215 35 174 1
216 36 175 1
217 37 176 1
218 37 177 1
219 38 178 1
220 38 179 1
221 41 180 1
222 41 181 1
223 42 182 1
224 43 183 1
225 43 184 1
226 44 185 1
227 44 186 1
228 46 187 1
229 50 188 1
230 57 189 1
231 63 190 1
232 72 191 1
233 73 192 1
234 74 193 1
235 75 194 1
236 75 195 1
237 76 196 1
238 76 197 1
239 77 198 1
240 78 199 1
241 79 200 1
242 79 201 1
243 80 202 1
244 80 203 1
245 81 204 1
246 81 205 1
247 82 206 1
248 87 207 1
249 88 208 1
250 90 209 1
251 90 210 1
252 91 211 1
253 91 212 1
254 92 213 1
255 92 214 1
256 93 215 1
257 93 216 1
258 95 217 1
259 98 218 1
260 101 219 1
261 105 220 1
262 106 221 1
263 108 222 1
264 109 223 1
265 109 224 1
266 110 225 1
267 110 226 1
268 111 227 1
269 111 228 1
270 117 229 1
271 118 230 1
272 118 231 1
273 118 232 1
274 119 233 1
275 119 234 1
276 119 235 1
277 120 236 1
278 121 237 1
279 122 238 1
280 128 239 1
281 129 240 1
282 130 241 1
283 137 242 1
284 138 243 1
285 139 244 1
286 143 245 1
287 143 246 1
288 144 247 1
289 144 248 1
290 145 249 1
291 145 250 1
292 31 172 1
@<TRIPOS>MOLECULE
Sketch 4
250 292
SMALL
USER_CHARGES


@<TRIPOS>ATOM
1 C62534 0.381861456683034 0.503213861479907 0.593067120303873 C 0.0 **** 0.0
2 C62535 0.393613866356422 0.501862312000825 0.608744804091558 C 0.0 **** 0.0
3 C62536 0.404344253597329 0.517972833844783 0.611135777615618 C 0.0 **** 0.0
4 C62537 0.414291426000908 0.522697888873882 0.594687293434041 C 0.0 **** 0.0
5 C62538 0.404345910579035 0.515850144822905 0.579265608095759 C 0.0 **** 0.0
6 O62539 0.386613853000117 0.516631079377364 0.582057331733973 O 0.0 **** 0.0
7 C62546 0.433234946920802 0.517522648397068 0.593976071570072 C 0.0 **** 0.0
8 C62547 0.442911700667528 0.520532742636777 0.611163903926968 C 0.0 **** 0.0
9 C62548 0.431402351773116 0.527480872590504 0.625094701092163 C 0.0 **** 0.0
10 C62549 0.415319170940854 0.517158754050314 0.627149065242543 C 0.0 **** 0.0
11 O62555 0.45711167920624 0.531588345903574 0.61129476401356 O 0.0 **** 0.0
12 C62556 0.467118976165034 0.531482976897408 0.59637304855616 C 0.0 **** 0.0
13 C62557 0.456148427079431 0.537705604651558 0.581689458788446 C 0.0 **** 0.0
14 C62558 0.441980811624162 0.524974516663847 0.577802146499772 C 0.0 **** 0.0
15 C62564 0.467706117086381 0.541559066247877 0.566941391555242 C 0.0 **** 0.0
16 C62565 0.481900876153622 0.529230648733789 0.56392931635915 C 0.0 **** 0.0
17 C62566 0.485048571235969 0.516296638966787 0.575412105388411 C 0.0 **** 0.0
18 C62567 0.475210503493043 0.514497996507319 0.591832008459234 C 0.0 **** 0.0
19 C62573 0.497861974230825 0.504776640575786 0.572002266492302 C 0.0 **** 0.0
20 C62574 0.5085624681409 0.507697963556441 0.558483320087364 C 0.0 **** 0.0
21 C62575 0.506025750622109 0.52122743192818 0.547597267278048 C 0.0 **** 0.0
22 C62576 0.492079205015749 0.531589881125805 0.549842441170522 C 0.0 **** 0.0
23 C62582 0.488205837064229 0.545144645777517 0.536859229253142 C 0.0 **** 0.0
24 C62583 0.480165752095148 0.560893201744753 0.545170156136962 C 0.0 **** 0.0
25 C62584 0.46714009386542 0.556236386878053 0.558280589973031 C 0.0 **** 0.0
26 O62589 0.517082288402137 0.524695921012407 0.534439101604298 O 0.0 **** 0.0
27 C62590 0.528738248537405 0.512574986766722 0.529912180353505 C 0.0 **** 0.0
28 C62591 0.532671213878382 0.498829213006697 0.539976908232142 C 0.0 **** 0.0
29 C62592 0.523564766514409 0.496526642624408 0.556356536901718 C 0.0 **** 0.0
30 C62598 0.487433908428979 0.507404569371964 0.604562834092307 C 0.0 **** 0.0
31 C62599 0.491258479206265 0.4892357688869 0.600080949128587 C 0.0 **** 0.0
32 C62600 0.500771242027199 0.489240463747152 0.582901986711328 C 0.0 **** 0.0
33 C62605 0.499943208020313 0.479034736449001 0.614296238107592 C 0.0 **** 0.0
34 C62606 0.508532745831542 0.48788343530263 0.626406776691085 C 0.0 **** 0.0
35 C62607 0.508804847447009 0.507071792206335 0.62763496903612 C 0.0 **** 0.0
36 C62608 0.495582475568584 0.515699216274842 0.616854597172076 C 0.0 **** 0.0
37 C62614 0.517076086526591 0.479841773313097 0.641306940026432 C 0.0 **** 0.0
38 C62615 0.518692731493754 0.460538189044648 0.639903522217234 C 0.0 **** 0.0
39 C62616 0.506614336005405 0.452811649887478 0.62741155801927 C 0.0 **** 0.0
40 C62617 0.49837540736473 0.461830852634186 0.615231646765955 C 0.0 **** 0.0
41 C62623 0.48711174941146 0.45151493978956 0.603121269665004 C 0.0 **** 0.0
42 C62624 0.479124462364134 0.436599574545008 0.612440592668433 C 0.0 **** 0.0
43 C62625 0.493714812844862 0.424847242936769 0.617527669106215 C 0.0 **** 0.0
44 C62626 0.505169345785457 0.433976114639132 0.630125627598449 C 0.0 **** 0.0
45 C62632 0.528428477813467 0.485257081833021 0.568363679249562 C 0.0 **** 0.0
46 C62633 0.518598430238958 0.481937251850055 0.582114239836781 C 0.0 **** 0.0
47 C62637 0.544787904450556 0.487054686050609 0.534289576952229 C 0.0 **** 0.0
48 C62638 0.550937592097665 0.474023089575541 0.544835106109602 C 0.0 **** 0.0
49 S62639 0.548009789905434 0.475332010670935 0.566537567962059 S 0.0 **** 0.0
50 C62644 0.559295115312052 0.460331513253598 0.538357444446223 C 0.0 **** 0.0
51 C62645 0.562725697985356 0.45972603402637 0.520841287906337 C 0.0 **** 0.0
52 C62646 0.558876865368303 0.473888043803206 0.510550555136329 C 0.0 **** 0.0
53 C62647 0.550094985816193 0.487557497665711 0.517320940889768 C 0.0 **** 0.0
54 C62653 0.565001407559895 0.474405951870102 0.494040662757887 C 0.0 **** 0.0
55 C62654 0.574329424288971 0.460841803144597 0.487489171043748 C 0.0 **** 0.0
56 C62655 0.576001510623988 0.445615498424215 0.496673692300897 C 0.0 **** 0.0
57 C62656 0.570685670632284 0.445642272310266 0.513624845309227 C 0.0 **** 0.0
58 C62662 0.584448400526692 0.431693788184757 0.489646345470028 C 0.0 **** 0.0
59 C62663 0.594612216407341 0.434414935330932 0.475644998428699 C 0.0 **** 0.0
60 C62664 0.594043520208237 0.449906391087448 0.466709630176712 C 0.0 **** 0.0
61 C62665 0.583230401858716 0.462723920777244 0.472455448356355 C 0.0 **** 0.0
62 C62671 0.546400378133327 0.501718776754984 0.507176114634155 C 0.0 **** 0.0
63 C62672 0.536737652211698 0.514606889139779 0.514629800338518 C 0.0 **** 0.0
64 C62676 0.562517389884201 0.488924776641821 0.484349213180101 C 0.0 **** 0.0
65 C62677 0.551871144221045 0.501920077021998 0.489982218872427 C 0.0 **** 0.0
66 C62681 0.582312672923083 0.478052415134739 0.463828117000695 C 0.0 **** 0.0
67 C62682 0.570961617920806 0.490467479336884 0.469077673146828 C 0.0 **** 0.0
68 C62686 0.603944188682342 0.452810759620653 0.451926293254286 C 0.0 **** 0.0
69 C62687 0.604978163656035 0.469286470144623 0.445416776837118 C 0.0 **** 0.0
70 C62688 0.593385311719784 0.481418172401855 0.450544364113967 C 0.0 **** 0.0
71 O62693 0.606025463780807 0.421999767565787 0.470846892432758 O 0.0 **** 0.0
72 C62694 0.599415340911598 0.405240700613797 0.469668677597494 C 0.0 **** 0.0
73 C62695 0.585593314675944 0.401354830771063 0.483082827313147 C 0.0 **** 0.0
74 C62696 0.585028483517793 0.414083410553853 0.497647982976428 C 0.0 **** 0.0
75 C62702 0.586000477937663 0.382855670493492 0.489265975565645 C 0.0 **** 0.0
76 C62703 0.591635921578917 0.37107886500813 0.475060941640697 C 0.0 **** 0.0
77 C62704 0.610356432798317 0.374010504805035 0.47094091375109 C 0.0 **** 0.0
78 C62705 0.614864328742261 0.393187279208903 0.469333839635 C 0.0 **** 0.0
79 C62711 0.62576221879287 0.397260224941173 0.453596592819942 C 0.0 **** 0.0
80 C62712 0.639130354493268 0.383761836908586 0.449153979544497 C 0.0 **** 0.0
81 C62713 0.633962289636796 0.365406701081401 0.453892151460912 C 0.0 **** 0.0
82 N62714 0.615990122658802 0.363389470018786 0.457066023928919 N 0.0 **** 0.0
83 C62720 0.547120425678506 0.514850160313874 0.478578551605147 C 0.0 **** 0.0
84 C62721 0.555805677868234 0.516800681882618 0.463520834719154 C 0.0 **** 0.0
85 C62722 0.568521802968624 0.505055979940792 0.459264035276024 C 0.0 **** 0.0
86 O62727 0.552303931256172 0.529932555846103 0.452460359980822 O 0.0 **** 0.0
87 C62728 0.544534774351709 0.544599693715956 0.459744807789345 C 0.0 **** 0.0
88 C62729 0.539331592368291 0.542763135376554 0.4780771053547 C 0.0 **** 0.0
89 O62730 0.534124525400804 0.525951667228602 0.482121450643964 O 0.0 **** 0.0
90 C62736 0.524762368972635 0.55488725612345 0.482366327948004 C 0.0 **** 0.0
91 C62737 0.508628537413724 0.550587858529979 0.472196494531859 C 0.0 **** 0.0
92 C62738 0.512831001787194 0.544121420557497 0.454225253626244 C 0.0 **** 0.0
93 C62739 0.529995301263115 0.550818841306298 0.448280581469606 C 0.0 **** 0.0
94 C62745 0.592263358688489 0.496893930449529 0.441536355070092 C 0.0 **** 0.0
95 C62746 0.579101323458154 0.508172275417898 0.445411483178205 C 0.0 **** 0.0
96 C62750 0.615540331363675 0.472592549631738 0.431635092267932 C 0.0 **** 0.0
97 C62751 0.616313129823886 0.488956936425412 0.424544153116478 C 0.0 **** 0.0
98 C62752 0.604416235246764 0.500739769641525 0.429033717877663 C 0.0 **** 0.0
99 C62757 0.622993923520711 0.459229032930911 0.422453510487625 C 0.0 **** 0.0
100 C62758 0.619855679723741 0.442683131161645 0.427056072053979 C 0.0 **** 0.0
101 C62759 0.611021010539533 0.439884223712092 0.441790502158021 C 0.0 **** 0.0
102 O62764 0.628224864962019 0.492933967693373 0.412506594489756 O 0.0 **** 0.0
103 C62765 0.633549054757164 0.48014752049808 0.401998380221285 C 0.0 **** 0.0
104 C62766 0.631858742430852 0.463497659698773 0.406315176391484 C 0.0 **** 0.0
105 C62771 0.625598231883384 0.427502669890047 0.416776905729673 C 0.0 **** 0.0
106 C62772 0.636633573911556 0.432279874714619 0.400488787384295 C 0.0 **** 0.0
107 C62773 0.637537839076458 0.451003633260021 0.395790707536441 C 0.0 **** 0.0
108 C62778 0.631370257033313 0.421500511713436 0.384999853120913 C 0.0 **** 0.0
109 C62779 0.629942148270023 0.402756418660423 0.390029982252182 C 0.0 **** 0.0
110 C62780 0.615609135774629 0.40022754109204 0.403111882043308 C 0.0 **** 0.0
111 C62781 0.610178752393858 0.41681844411274 0.411680624137703 C 0.0 **** 0.0
112 C62787 0.644350963832837 0.455339857425942 0.380495352987616 C 0.0 **** 0.0
113 C62788 0.646324047184173 0.472097688736618 0.376359504467843 C 0.0 **** 0.0
114 C62789 0.640990640153522 0.484461627299387 0.387103654520343 C 0.0 **** 0.0
115 C62794 0.643373311531691 0.425079925564535 0.370264537772809 C 0.0 **** 0.0
116 C62796 0.649195186329411 0.441524712942957 0.36816595987839 C 0.0 **** 0.0
117 C62799 0.464507128720459 0.428191638432292 0.60263903469738 C 0.0 **** 0.0
118 C62801 0.470141206847827 0.418697657006114 0.586761101423332 C 0.0 **** 0.0
119 C62803 0.45422885611736 0.416339917626967 0.614029544528182 C 0.0 **** 0.0
120 O62805 0.57028222726863 0.410504005627509 0.507355670222081 O 0.0 **** 0.0
121 C62807 0.642916313396448 0.501158150020474 0.383013903312892 C 0.0 **** 0.0
122 C62808 0.650015668449864 0.505613004944375 0.368034186408396 C 0.0 **** 0.0
123 C62809 0.655200636060985 0.493388740155545 0.357060101818377 C 0.0 **** 0.0
124 C62810 0.653497727317903 0.476680022282297 0.361351060067468 C 0.0 **** 0.0
125 C62816 0.659157704304462 0.463468443695559 0.349336809924786 C 0.0 **** 0.0
126 C62817 0.664860517161615 0.468532987298958 0.3338498358044 C 0.0 **** 0.0
127 C62818 0.666303962604785 0.486744762598605 0.329944914366921 C 0.0 **** 0.0
128 C62819 0.661776903972917 0.498458962455364 0.341796141911194 C 0.0 **** 0.0
129 C62825 0.671763688577195 0.491718878480014 0.314341400233613 C 0.0 **** 0.0
130 C62826 0.675423443901331 0.480137180984194 0.301989176894413 C 0.0 **** 0.0
131 C62827 0.67397444895719 0.463150020228679 0.304871649468848 C 0.0 **** 0.0
132 C62828 0.668828482938985 0.456888137460418 0.3217440396765 C 0.0 **** 0.0
133 C62834 0.666817767187305 0.439544613286534 0.324787528308923 C 0.0 **** 0.0
134 C62835 0.66118850209665 0.434209112309641 0.340699511885898 C 0.0 **** 0.0
135 C62836 0.657355001312565 0.446237527718838 0.353171300216154 C 0.0 **** 0.0
136 C62841 0.66848897802935 0.427981539005958 0.311502021670497 C 0.0 **** 0.0
137 C62842 0.674862186149869 0.435101140733561 0.294880075614399 C 0.0 **** 0.0
138 C62843 0.677088646314155 0.45198218012024 0.292164403712009 C 0.0 **** 0.0
139 C62848 0.647250704667642 0.413305179139396 0.357979343992418 C 0.0 **** 0.0
140 C62849 0.656378834717099 0.417261562904844 0.343020527695223 C 0.0 **** 0.0
141 C62854 0.664101231833853 0.411169281808589 0.313976899922989 C 0.0 **** 0.0
142 C62855 0.658708562407325 0.405545646325588 0.329757317037065 C 0.0 **** 0.0
143 C62859 0.654410835337215 0.386930444707727 0.331946983638626 C 0.0 **** 0.0
144 C62860 0.668235545805451 0.376489689639131 0.323227876576305 C 0.0 **** 0.0
145 C62861 0.667746233065968 0.380431685505263 0.304487025007357 C 0.0 **** 0.0
146 C62862 0.664984224123962 0.398647217158772 0.299732033989329 C 0.0 **** 0.0
147 O62868 0.662873538926002 0.402127467172896 0.284910871010947 O 0.0 **** 0.0
148 H62870 0.368802907168394 0.505931853988056 0.596940203904394 H 0.0 **** 0.0
149 H62872 0.381497727386575 0.491109516824521 0.58612256982238 H 0.0 **** 0.0
150 H62874 0.386181293661064 0.499434748328652 0.620276563624354 H 0.0 **** 0.0
151 H62876 0.402265721137914 0.490982370878012 0.607493933501682 H 0.0 **** 0.0
152 H62878 0.395231120320601 0.528382925670682 0.613062040977125 H 0.0 **** 0.0
153 H62880 0.414287400653541 0.536599118037298 0.594208653858188 H 0.0 **** 0.0
154 H62882 0.408282240444028 0.502731750236717 0.576685050641511 H 0.0 **** 0.0
155 H62884 0.406874837884826 0.523101859401562 0.567714922302925 H 0.0 **** 0.0
156 H62886 0.433006146294462 0.503657804871668 0.592299152662287 H 0.0 **** 0.0
157 H62888 0.447389389335492 0.507950420032878 0.615204093983022 H 0.0 **** 0.0
158 H62890 0.428220773331756 0.540694909522943 0.621967964101345 H 0.0 **** 0.0
159 H62892 0.438690564424436 0.527993429898529 0.636961921072464 H 0.0 **** 0.0
160 H62894 0.407900885374048 0.521696132179846 0.63800209838013 H 0.0 **** 0.0
161 H62896 0.418867858692265 0.503964024764738 0.629885766826957 H 0.0 **** 0.0
162 H62898 0.477058308422205 0.540860340911842 0.598945414417613 H 0.0 **** 0.0
163 H62900 0.450185745882168 0.549543467401001 0.585885163682802 H 0.0 **** 0.0
164 H62902 0.447081095915295 0.514396941039276 0.57031354284105 H 0.0 **** 0.0
165 H62904 0.432597323866451 0.531063263942079 0.569529846207287 H 0.0 **** 0.0
166 H62906 0.464973261346121 0.505123487044156 0.590202969743531 H 0.0 **** 0.0
167 H62908 0.499683320685808 0.548952604987239 0.529986868372544 H 0.0 **** 0.0
168 H62910 0.479433241527033 0.539981749146515 0.527307345479365 H 0.0 **** 0.0
169 H62912 0.474338572758511 0.56895154041009 0.535373416186772 H 0.0 **** 0.0
170 H62914 0.490074678087391 0.568580083462636 0.551258729081214 H 0.0 **** 0.0
171 H62916 0.458102322134893 0.566154631950912 0.561166233787866 H 0.0 **** 0.0
172 H62918 0.478742645087092 0.483514598429018 0.597929090907899 H 0.0 **** 0.0
173 H62919 0.521487790686326 0.511810644360892 0.624277512628174 H 0.0 **** 0.0
174 H62921 0.506578397125359 0.510626996011051 0.640981388990194 H 0.0 **** 0.0
175 H62923 0.493210956555753 0.529086648216568 0.618988159269178 H 0.0 **** 0.0
176 H62925 0.529756012761415 0.485414973625049 0.643039391213433 H 0.0 **** 0.0
177 H62927 0.509762410199751 0.483012144452538 0.652759772844507 H 0.0 **** 0.0
178 H62929 0.516807798924783 0.454856576063864 0.652521477353935 H 0.0 **** 0.0
179 H62931 0.531645113863212 0.457259811825105 0.635969597646371 H 0.0 **** 0.0
180 H62933 0.477028852884581 0.459229942298777 0.597531575938114 H 0.0 **** 0.0
181 H62935 0.494811618166374 0.446904775734095 0.592467409199066 H 0.0 **** 0.0
182 H62937 0.47343916989704 0.441545048239977 0.624197915198509 H 0.0 **** 0.0
183 H62939 0.500883857833926 0.421431018347328 0.606086331152962 H 0.0 **** 0.0
184 H62941 0.489303414555414 0.41289607943494 0.623159902703385 H 0.0 **** 0.0
185 H62943 0.51791405503276 0.428359231825086 0.630259843085655 H 0.0 **** 0.0
186 H62945 0.499847920435451 0.432212856916473 0.642891823102764 H 0.0 **** 0.0
187 H62947 0.522843586016526 0.473493935622685 0.59211874621538 H 0.0 **** 0.0
188 H62949 0.563526748660709 0.449866954271454 0.546358392179857 H 0.0 **** 0.0
189 H62951 0.573398709757311 0.434862702603531 0.521901129032918 H 0.0 **** 0.0
190 H62953 0.533617186646294 0.52645490777385 0.50826739449187 H 0.0 **** 0.0
191 H62955 0.593143567177616 0.404141908790507 0.457246559628269 H 0.0 **** 0.0
192 H62957 0.573238398974093 0.402881172953203 0.476672252638444 H 0.0 **** 0.0
193 H62959 0.596307786638665 0.412949248211056 0.505788715744345 H 0.0 **** 0.0
194 H62961 0.594854594271362 0.381565901618054 0.499903262119344 H 0.0 **** 0.0
195 H62963 0.573440235204701 0.379190849718109 0.494076519156377 H 0.0 **** 0.0
196 H62965 0.583852191915057 0.373591510013883 0.463822703187174 H 0.0 **** 0.0
197 H62967 0.589677130790991 0.35770689120642 0.47845272722138 H 0.0 **** 0.0
198 H62969 0.617290607875231 0.369333239220678 0.482075540071329 H 0.0 **** 0.0
199 H62971 0.622253155816089 0.396608379776647 0.480617064498588 H 0.0 **** 0.0
200 H62973 0.617086140705314 0.398009737094788 0.442710121370191 H 0.0 **** 0.0
201 H62975 0.631687012595343 0.409810191814637 0.454814026934129 H 0.0 **** 0.0
202 H62977 0.65126038939197 0.386795352112438 0.455247886365759 H 0.0 **** 0.0
203 H62979 0.641702024861877 0.384632164976524 0.435472380750961 H 0.0 **** 0.0
204 H62981 0.640626292183161 0.361603082833012 0.465502706719451 H 0.0 **** 0.0
205 H62983 0.638150066440324 0.356393099006162 0.444123242347126 H 0.0 **** 0.0
206 H62985 0.609245371117085 0.365674924516375 0.446563961731459 H 0.0 **** 0.0
207 H62987 0.554333595228042 0.554373115844475 0.459321250695167 H 0.0 **** 0.0
208 H62989 0.550291227158332 0.545723339123614 0.486211806468908 H 0.0 **** 0.0
209 H62991 0.522074427316445 0.554462520823717 0.496037094028258 H 0.0 **** 0.0
210 H62993 0.528668760662424 0.567950298156508 0.479508900540026 H 0.0 **** 0.0
211 H62995 0.500491150601995 0.561868840010725 0.471440133526079 H 0.0 **** 0.0
212 H62997 0.501204069722971 0.540933563728597 0.478973166153271 H 0.0 **** 0.0
213 H62999 0.502718199911214 0.547510641289491 0.445273776455571 H 0.0 **** 0.0
214 H63001 0.513535322636826 0.530236854127449 0.454359244340839 H 0.0 **** 0.0
215 H63003 0.529410644983588 0.564744925386137 0.448051608603126 H 0.0 **** 0.0
216 H63005 0.532771326821836 0.546878606942937 0.435235146666416 H 0.0 **** 0.0
217 H63007 0.577693004726433 0.519907124084704 0.438141850282625 H 0.0 **** 0.0
218 H63009 0.604174099379011 0.513108843383918 0.42270819778932 H 0.0 **** 0.0
219 H63011 0.608925397846541 0.426615154092258 0.444892291923179 H 0.0 **** 0.0
220 H63013 0.633774778686346 0.419572140820886 0.424850390064835 H 0.0 **** 0.0
221 H63015 0.649716556093481 0.428555178991512 0.403647365609236 H 0.0 **** 0.0
222 H63017 0.618677415867404 0.425599576842599 0.380794170598567 H 0.0 **** 0.0
223 H63019 0.642129660091015 0.398622149609623 0.39536696509214 H 0.0 **** 0.0
224 H63021 0.627319184111477 0.394542084423688 0.379123803476096 H 0.0 **** 0.0
225 H63023 0.619646285658694 0.391153634763305 0.412870319739272 H 0.0 **** 0.0
226 H63025 0.604504147277429 0.394586071917004 0.396869861674155 H 0.0 **** 0.0
227 H63027 0.601981873219843 0.41375214838879 0.422516975714019 H 0.0 **** 0.0
228 H63029 0.602240111163038 0.424252135730652 0.40294348776331 H 0.0 **** 0.0
229 H63031 0.455897246279824 0.438456726095685 0.598619012825974 H 0.0 **** 0.0
230 H63033 0.459136639385014 0.414759773336124 0.579226101866537 H 0.0 **** 0.0
231 H63035 0.477261696549073 0.407285330095021 0.590208345774658 H 0.0 **** 0.0
232 H63037 0.478324138003383 0.426406392735755 0.5785980406683 H 0.0 **** 0.0
233 H63039 0.449855988606391 0.422792904345784 0.625556756307048 H 0.0 **** 0.0
234 H63041 0.461780436523276 0.405318188694443 0.617916893092537 H 0.0 **** 0.0
235 H63043 0.442956376770419 0.411637373970055 0.607388302175539 H 0.0 **** 0.0
236 H63045 0.572379891761916 0.399717368100398 0.512271338490729 H 0.0 **** 0.0
237 H63047 0.638787017279561 0.511208967969463 0.391522285468735 H 0.0 **** 0.0
238 H63049 0.651218003464153 0.519014069640766 0.365023577721053 H 0.0 **** 0.0
239 H63051 0.662960683414466 0.51187870761689 0.33890618825003 H 0.0 **** 0.0
240 H63053 0.672862145273962 0.505110658548956 0.311337277125687 H 0.0 **** 0.0
241 H63055 0.679163631817914 0.484783747972229 0.289546876051435 H 0.0 **** 0.0
242 H63057 0.677806900861162 0.426503071376448 0.284585410193785 H 0.0 **** 0.0
243 H63059 0.681173156418797 0.456371700261628 0.279761722436423 H 0.0 **** 0.0
244 H63061 0.642152956624841 0.400543373468362 0.359514155691459 H 0.0 **** 0.0
245 H63063 0.653561879075027 0.383221610337173 0.345264797789047 H 0.0 **** 0.0
246 H63065 0.641969455382254 0.384078104984112 0.326262173883992 H 0.0 **** 0.0
247 H63067 0.666518039561685 0.36284535681246 0.325292506097854 H 0.0 **** 0.0
248 H63069 0.680671873872679 0.379768010229944 0.328607401236261 H 0.0 **** 0.0
249 H63071 0.657129619021753 0.374223074092437 0.297980407364412 H 0.0 **** 0.0
250 H63073 0.679234439132424 0.376920851532445 0.297492175042244 H 0.0 **** 0.0
@<TRIPOS>BOND
1 3 2 1
2 4 3 1
3 5 4 1
4 6 5 1
5 1 2 1
6 1 6 1
7 8 7 1
8 9 8 1
9 10 9 1
10 4 7 1
11 3 10 1
12 12 11 1
13 13 12 1
14 14 13 1
15 8 11 1
16 7 14 1
17 16 15 1
18 17 16 Partial double
19 18 17 1
20 13 15 1
21 12 18 1
22 20 19 Partial double
23 21 20 Partial double
24 22 21 Partial double
25 17 19 Partial double
26 16 22 Partial double
27 24 23 1
28 25 24 1
29 15 25 Double
30 22 23 1
31 27 26 1
32 28 27 Partial double
33 29 28 Partial double
34 21 26 1
35 20 29 Partial double
36 31 30 1
37 32 31 1
38 18 30 1
39 19 32 1
40 34 33 Double
41 35 34 1
42 36 35 1
43 31 33 1
44 30 36 Double
45 38 37 1
46 39 38 1
47 40 39 Double
48 34 37 1
49 33 40 1
50 42 41 1
51 43 42 1
52 44 43 1
53 40 41 1
54 39 44 1
55 46 45 Partial double
56 32 46 1
57 29 45 Partial double
58 48 47 Partial double
59 49 48 1
60 45 49 Partial double
61 28 47 Partial double
62 51 50 Partial double
63 52 51 Partial double
64 53 52 Partial double
65 48 50 Partial double
66 47 53 Partial double
67 55 54 Partial double
68 56 55 Partial double
69 57 56 Partial double
70 52 54 Partial double
71 51 57 Partial double
72 59 58 Partial double
73 60 59 Partial double
74 61 60 Partial double
75 56 58 Partial double
76 55 61 Partial double
77 63 62 Partial double
78 27 63 Partial double
79 53 62 Partial double
80 65 64 Partial double
81 62 65 Partial double
82 54 64 Partial double
83 67 66 Partial double
84 64 67 Partial double
85 61 66 Partial double
86 69 68 Partial double
87 70 69 Partial double
88 66 70 Partial double
89 60 68 Partial double
90 72 71 1
91 73 72 1
92 74 73 1
93 59 71 1
94 58 74 1
95 76 75 1
96 77 76 1
97 78 77 1
98 73 75 1
99 72 78 1
100 80 79 1
101 81 80 1
102 82 81 1
103 78 79 1
104 77 82 1
105 84 83 Partial double
106 85 84 Partial double
107 67 85 Partial double
108 65 83 Partial double
109 87 86 1
110 88 87 1
111 89 88 1
112 84 86 1
113 83 89 1
114 91 90 1
115 92 91 1
116 93 92 1
117 88 90 1
118 87 93 1
119 95 94 Partial double
120 85 95 Partial double
121 70 94 Partial double
122 97 96 Partial double
123 98 97 Partial double
124 94 98 Partial double
125 69 96 Partial double
126 100 99 Partial double
127 101 100 Partial double
128 68 101 Partial double
129 96 99 Partial double
130 103 102 1
131 104 103 Partial double
132 97 102 1
133 99 104 1
134 106 105 1
135 107 106 1
136 100 105 1
137 104 107 Partial double
138 109 108 1
139 110 109 1
140 111 110 1
141 106 108 1
142 105 111 1
143 113 112 1
144 114 113 1
145 103 114 Partial double
146 107 112 Partial double
147 108 115 1
148 112 116 Partial double
149 115 116 Partial double
150 42 117 1
151 117 118 1
152 117 119 1
153 74 120 1
154 122 121 1
155 123 122 Partial double
156 124 123 1
157 114 121 Partial double
158 113 124 Partial double
159 126 125 Partial double
160 127 126 1
161 128 127 Partial double
162 124 125 Partial double
163 123 128 Partial double
164 130 129 Partial double
165 131 130 1
166 132 131 1
167 127 129 Partial double
168 126 132 Partial double
169 134 133 Partial double
170 135 134 Partial double
171 125 135 Partial double
172 132 133 Partial double
173 137 136 Partial double
174 138 137 Partial double
175 131 138 Partial double
176 133 136 Partial double
177 140 139 Partial double
178 134 140 Partial double
179 116 135 Partial double
180 115 139 Partial double
181 142 141 Partial double
182 140 142 Partial double
183 136 141 Partial double
184 144 143 1
185 145 144 1
186 146 145 1
187 142 143 1
188 141 146 1
189 146 147 Double
190 1 148 1
191 1 149 1
192 2 150 1
193 2 151 1
194 3 152 1
195 4 153 1
196 5 154 1
197 5 155 1
198 7 156 1
199 8 157 1
200 9 158 1
201 9 159 1
202 10 160 1
203 10 161 1
204 12 162 1
205 13 163 1
206 14 164 1
207 14 165 1
208 18 166 1
209 23 167 1
210 23 168 1
211 24 169 1
212 24 170 1
213 25 171 1
214 35 173 1
215 35 174 1
216 36 175 1
217 37 176 1
218 37 177 1
219 38 178 1
220 38 179 1
221 41 180 1
222 41 181 1
223 42 182 1
224 43 183 1
225 43 184 1
226 44 185 1
227 44 186 1
228 46 187 1
229 50 188 1
230 57 189 1
231 63 190 1
232 72 191 1
233 73 192 1
234 74 193 1
235 75 194 1
236 75 195 1
237 76 196 1
238 76 197 1
239 77 198 1
240 78 199 1
241 79 200 1
242 79 201 1
243 80 202 1
244 80 203 1
245 81 204 1
246 81 205 1
247 82 206 1
248 87 207 1
249 88 208 1
250 90 209 1
251 90 210 1
252 91 211 1
253 91 212 1
254 92 213 1
255 92 214 1
256 93 215 1
257 93 216 1
258 95 217 1
259 98 218 1
260 101 219 1
261 105 220 1
262 106 221 1
263 108 222 1
264 109 223 1
265 109 224 1
266 110 225 1
267 110 226 1
268 111 227 1
269 111 228 1
270 117 229 1
271 118 230 1
272 118 231 1
273 118 232 1
274 119 233 1
275 119 234 1
276 119 235 1
277 120 236 1
278 121 237 1
279 122 238 1
280 128 239 1
281 129 240 1
282 130 241 1
283 137 242 1
284 138 243 1
285 139 244 1
286 143 245 1
287 143 246 1
288 144 247 1
289 144 248 1
290 145 249 1
291 145 250 1
292 31 172 1
@<TRIPOS>MOLECULE
Sketch 4
250 292
SMALL
USER_CHARGES


@<TRIPOS>ATOM
1 C63076 0.490295888865709 -0.106444538349938 0.874980261882945 C 0.0 **** 0.0
2 C63077 0.487618824635378 -0.107174539583625 0.894386238124031 C 0.0 **** 0.0
3 C63078 0.477705122859864 -0.0917418075844738 0.900963164665154 C 0.0 **** 0.0
4 C63079 0.486217990480911 -0.0748023893135772 0.895089104557644 C 0.0 **** 0.0
5 C63080 0.497301085872992 -0.0780940697096534 0.879277725075256 C 0.0 **** 0.0
6 O63081 0.489170732613883 -0.0897705748283885 0.868299793275581 O 0.0 **** 0.0
7 C63088 0.495384487483643 -0.0658699910240761 0.909900068425942 C 0.0 **** 0.0
8 C63089 0.482659183860343 -0.0613162853363525 0.924145928208288 C 0.0 **** 0.0
9 C63090 0.469492555646555 -0.0753657428927722 0.927243131068691 C 0.0 **** 0.0
10 C63091 0.47497620906115 -0.0925654948953174 0.92024754159225 C 0.0 **** 0.0
11 O63097 0.472781896010306 -0.0468053600999221 0.919953989616031 O 0.0 **** 0.0
12 C63098 0.48201617812169 -0.0316347760186931 0.916497602326405 C 0.0 **** 0.0
13 C63099 0.493856479488665 -0.0348973197090553 0.901449057592834 C 0.0 **** 0.0
14 C63100 0.505539666695137 -0.0499672422587647 0.904856607105019 C 0.0 **** 0.0
15 C63106 0.503298907958486 -0.0190375160226892 0.896440940500863 C 0.0 **** 0.0
16 C63107 0.507233460484771 -0.00619100791711366 0.909988934132293 C 0.0 **** 0.0
17 C63108 0.500766823522134 -0.00791643642867291 0.926257078464859 C 0.0 **** 0.0
18 C63109 0.491710548176191 -0.0242001430123629 0.93160377882379 C 0.0 **** 0.0
19 C63115 0.50336459185388 0.00505106217210589 0.937872063259183 C 0.0 **** 0.0
20 C63116 0.513748184713971 0.0185720146278445 0.933682704175654 C 0.0 **** 0.0
21 C63117 0.520800657540798 0.0197432822541603 0.917672340524598 C 0.0 **** 0.0
22 C63118 0.51724184100804 0.0075189230511706 0.905628761781528 C 0.0 **** 0.0
23 C63124 0.525270832926436 0.0090023195842343 0.888258639786931 C 0.0 **** 0.0
24 C63125 0.514106942716096 0.000948376473549322 0.874392992606151 C 0.0 **** 0.0
25 C63126 0.506511903271491 -0.015574177665445 0.880061203730997 C 0.0 **** 0.0
26 O63131 0.531338032432069 0.0329306018647203 0.91311897754726 O 0.0 **** 0.0
27 C63132 0.534681033919073 0.0457102833061241 0.924449310832435 C 0.0 **** 0.0
28 C63133 0.528859959650028 0.0458804392419792 0.940999890862646 C 0.0 **** 0.0
29 C63134 0.517841938467863 0.0315786889646156 0.946856763879377 C 0.0 **** 0.0
30 C63140 0.481656130210253 -0.0213145906312466 0.947614331090869 C 0.0 **** 0.0
31 C63141 0.492497969275415 -0.0135218413269755 0.961480119489238 C 0.0 **** 0.0
32 C63142 0.494781911389727 0.00470842944241204 0.954972603223759 C 0.0 **** 0.0
33 C63147 0.484848994136327 -0.0146226330568194 0.97959910366508 C 0.0 **** 0.0
34 C63148 0.467812741498322 -0.0173219271690831 0.980826246854203 C 0.0 **** 0.0
35 C63149 0.45604096247588 -0.0200655695864084 0.965928787788546 C 0.0 **** 0.0
36 C63150 0.465013815799999 -0.0238803125510454 0.949568777721062 C 0.0 **** 0.0
37 C63156 0.458604054265542 -0.0199282872649813 0.997192509778866 C 0.0 **** 0.0
38 C63157 0.468820391206998 -0.0147571410837081 1.01283376168929 C 0.0 **** 0.0
39 C63158 0.487465809149693 -0.0135397365453081 1.00964148343757 C 0.0 **** 0.0
40 C63159 0.494645198833511 -0.0134849186154153 0.993904356637647 C 0.0 **** 0.0
41 C63165 0.514127936095782 -0.011946555280192 0.993182744783748 C 0.0 **** 0.0
42 C63166 0.522771826483793 -0.0178570885329512 1.00937505654854 C 0.0 **** 0.0
43 C63167 0.51541658214462 -0.00778308974146042 1.02429277398564 C 0.0 **** 0.0
44 C63168 0.496689065455932 -0.0117673875724401 1.02628237317052 C 0.0 **** 0.0
45 C63174 0.511930147040481 0.0302502131917297 0.962922025741113 C 0.0 **** 0.0
46 C63175 0.501163520061519 0.0176833046804093 0.967569846440379 C 0.0 **** 0.0
47 C63179 0.534026448204142 0.0591065380516259 0.951902432593149 C 0.0 **** 0.0
48 C63180 0.530555059173632 0.0593314676906929 0.969469680074778 C 0.0 **** 0.0
49 S63181 0.51741702918413 0.044520449264435 0.978764423013739 S 0.0 **** 0.0
50 C63186 0.53795347579981 0.07077675599021 0.980143684782666 C 0.0 **** 0.0
51 C63187 0.5486942428927 0.0834275287840851 0.973643869494312 C 0.0 **** 0.0
52 C63188 0.550781298528375 0.0847888158485389 0.955941558842713 C 0.0 **** 0.0
53 C63189 0.543890927767824 0.0724929742982949 0.945348207782779 C 0.0 **** 0.0
54 C63195 0.559926750229129 0.0983814802771994 0.949391852276266 C 0.0 **** 0.0
55 C63196 0.56813173766367 0.109772255021597 0.960183850690232 C 0.0 **** 0.0
56 C63197 0.568360263522741 0.10703279145798 0.977807421179076 C 0.0 **** 0.0
57 C63198 0.557579574042352 0.0944841443668143 0.984323092605729 C 0.0 **** 0.0
58 C63204 0.579159212206814 0.11637496308481 0.988451372731881 C 0.0 **** 0.0
59 C63205 0.587117060342082 0.130470683931079 0.981826797487571 C 0.0 **** 0.0
60 C63206 0.584913549563448 0.134878049424008 0.964513264120057 C 0.0 **** 0.0
61 C63207 0.576405238555212 0.123775084157775 0.953662773134021 C 0.0 **** 0.0
62 C63213 0.547227157322111 0.0734962059670456 0.927976060727748 C 0.0 **** 0.0
63 C63214 0.54415916792891 0.0589365630254312 0.9183594471466 C 0.0 **** 0.0
64 C63218 0.560694449850128 0.100750329718207 0.931947566476536 C 0.0 **** 0.0
65 C63219 0.553367022883968 0.0888975011248801 0.921062644905425 C 0.0 **** 0.0
66 C63223 0.576857820734089 0.126246919418515 0.936180403100008 C 0.0 **** 0.0
67 C63224 0.568697122420848 0.114871857410319 0.925442552002386 C 0.0 **** 0.0
68 C63228 0.592379496436335 0.149713553429082 0.957449254605639 C 0.0 **** 0.0
69 C63229 0.594573923540988 0.150706208026587 0.939824796809452 C 0.0 **** 0.0
70 C63230 0.58623404057586 0.139501959679879 0.929325210821113 C 0.0 **** 0.0
71 O63235 0.597613843511075 0.140535918327939 0.991706685746286 O 0.0 **** 0.0
72 C63236 0.596665691426252 0.139354891241892 1.00966527938647 C 0.0 **** 0.0
73 C63237 0.595782634311218 0.120946592199009 1.01528707807245 C 0.0 **** 0.0
74 C63238 0.581205818979764 0.111430194762799 1.00704486173645 C 0.0 **** 0.0
75 C63244 0.596172599061384 0.119349257128405 1.03487231282183 C 0.0 **** 0.0
76 C63245 0.589875798710467 0.135429233986935 1.04414078816909 C 0.0 **** 0.0
77 C63246 0.575700766656304 0.143910778953151 1.03400705210712 C 0.0 **** 0.0
78 C63247 0.583045520462628 0.15115600840993 1.01728143123978 C 0.0 **** 0.0
79 C63253 0.590650926454739 0.169092349030918 1.01932786810567 C 0.0 **** 0.0
80 C63254 0.579189632252648 0.180799085503179 1.02964445348292 C 0.0 **** 0.0
81 C63255 0.574624222658727 0.172487184327599 1.04643123229066 C 0.0 **** 0.0
82 N63256 0.565705480602067 0.156833767665176 1.04260670769767 N 0.0 **** 0.0
83 C63262 0.551644034644635 0.0925469869092029 0.903622457147644 C 0.0 **** 0.0
84 C63263 0.559320141311324 0.106850058294423 0.897003120565513 C 0.0 **** 0.0
85 C63264 0.568709919692949 0.117508442278268 0.907861608946537 C 0.0 **** 0.0
86 O63269 0.55850717643395 0.110853662771861 0.879936814811163 O 0.0 **** 0.0
87 C63270 0.543971414584843 0.10337097110428 0.872268677126328 C 0.0 **** 0.0
88 C63271 0.543844312882453 0.0847843717692451 0.875748974141804 C 0.0 **** 0.0
89 O63272 0.542383445428911 0.0816743486836212 0.893435697312809 O 0.0 **** 0.0
90 C63278 0.559324221531553 0.0755982803416897 0.868051816108255 C 0.0 **** 0.0
91 C63279 0.566180929512965 0.0843207401229348 0.85196411152134 C 0.0 **** 0.0
92 C63280 0.551939771050618 0.0933039908280123 0.842359203908952 C 0.0 **** 0.0
93 C63281 0.543784433485234 0.107378831141302 0.853221183440079 C 0.0 **** 0.0
94 C63287 0.587723943314291 0.141482564183307 0.911576611108489 C 0.0 **** 0.0
95 C63288 0.578207935558658 0.130826219238491 0.901001739467968 C 0.0 **** 0.0
96 C63292 0.605244082534975 0.16309085279415 0.932950753389621 C 0.0 **** 0.0
97 C63293 0.608461048453989 0.163770518408685 0.915390258014751 C 0.0 **** 0.0
98 C63294 0.599269026332169 0.153455447495331 0.904892631108096 C 0.0 **** 0.0
99 C63299 0.612566293847725 0.175455965740683 0.94335854119293 C 0.0 **** 0.0
100 C63300 0.609136501204584 0.175653359746225 0.960457041274611 C 0.0 **** 0.0
101 C63301 0.598551913257115 0.163444875676373 0.966944164608852 C 0.0 **** 0.0
102 O63306 0.620381724260547 0.17460477402142 0.90856324484912 O 0.0 **** 0.0
103 C63307 0.626632760571107 0.187681698607914 0.918372021454791 C 0.0 **** 0.0
104 C63308 0.623311046291431 0.188700993568566 0.935310103559888 C 0.0 **** 0.0
105 C63313 0.616851765546236 0.188211403313778 0.972581247953418 C 0.0 **** 0.0
106 C63314 0.625362618159981 0.203944192368214 0.96360821370073 C 0.0 **** 0.0
107 C63315 0.629290173494012 0.20185171950034 0.944782589165709 C 0.0 **** 0.0
108 C63320 0.642005812905754 0.209201354582688 0.972492175944705 C 0.0 **** 0.0
109 C63321 0.641408939420428 0.208341794273071 0.991817759286526 C 0.0 **** 0.0
110 C63322 0.635751796898803 0.190593953262121 0.997891979911412 C 0.0 **** 0.0
111 C63323 0.629699923711899 0.178925853878687 0.983663127279389 C 0.0 **** 0.0
112 C63329 0.639111390608644 0.213894196773066 0.937287736966378 C 0.0 **** 0.0
113 C63330 0.642245862644439 0.213157119977858 0.92028169430054 C 0.0 **** 0.0
114 C63331 0.636300752152345 0.199943928519895 0.910909909050171 C 0.0 **** 0.0
115 C63336 0.647271000166127 0.226324101434604 0.965434844044675 C 0.0 **** 0.0
116 C63338 0.646152821929532 0.22800430356096 0.948019757158311 C 0.0 **** 0.0
117 C63341 0.542275185101962 -0.0170574124951316 1.00817729736865 C 0.0 **** 0.0
118 C63343 0.549522984106515 0.000929993926677933 1.00876348389026 C 0.0 **** 0.0
119 C63345 0.550640208407485 -0.0277734659554554 1.02198136336904 C 0.0 **** 0.0
120 O63347 0.584742693695346 0.0937972633954752 1.00833205996265 O 0.0 **** 0.0
121 C63349 0.639937478898584 0.199166033919707 0.894028865188882 C 0.0 **** 0.0
122 C63350 0.649249397092835 0.211551496284739 0.886514884997467 C 0.0 **** 0.0
123 C63351 0.654732988308139 0.225097660926036 0.895698471739631 C 0.0 **** 0.0
124 C63352 0.651150623393748 0.225817312942265 0.912591186242608 C 0.0 **** 0.0
125 C63358 0.656707148096927 0.240758258747408 0.922495675461244 C 0.0 **** 0.0
126 C63359 0.665655275493106 0.253178066007012 0.914524189256737 C 0.0 **** 0.0
127 C63360 0.669224910057104 0.251654469119593 0.896265214450829 C 0.0 **** 0.0
128 C63361 0.663642523288351 0.237712148608706 0.887634523942409 C 0.0 **** 0.0
129 C63367 0.678106751119708 0.264211358576798 0.88834706764872 C 0.0 **** 0.0
130 C63368 0.683941165496815 0.278020904353862 0.897080916631119 C 0.0 **** 0.0
131 C63369 0.681282243648302 0.279812701431184 0.914089952864341 C 0.0 **** 0.0
132 C63370 0.671495506594675 0.266844268992784 0.923375154324619 C 0.0 **** 0.0
133 C63376 0.668987577085367 0.268171094943062 0.940901159152461 C 0.0 **** 0.0
134 C63377 0.660107095588363 0.255341493835433 0.949196564311358 C 0.0 **** 0.0
135 C63378 0.653564708955502 0.241772876192537 0.939889537157726 C 0.0 **** 0.0
136 C63383 0.676560278897053 0.281210432505794 0.950156976112814 C 0.0 **** 0.0
137 C63384 0.68545558560383 0.294666917532918 0.939648353664548 C 0.0 **** 0.0
138 C63385 0.687586734946035 0.293433795625704 0.92255747216037 C 0.0 **** 0.0
139 C63390 0.653879951760116 0.23959629041224 0.974621987844405 C 0.0 **** 0.0
140 C63391 0.659898574589332 0.254748015921077 0.966943670288389 C 0.0 **** 0.0
141 C63396 0.675856026006246 0.28096557366466 0.967778370759265 C 0.0 **** 0.0
142 C63397 0.667136338053087 0.268164841627512 0.97623507563341 C 0.0 **** 0.0
143 C63401 0.666149532488035 0.267982358543897 0.995503034695371 C 0.0 **** 0.0
144 C63402 0.664647573932239 0.285982972112396 1.00243971482868 C 0.0 **** 0.0
145 C63403 0.679663502911757 0.296027299884976 0.996347927919802 C 0.0 **** 0.0
146 C63404 0.684543304586829 0.294324752008501 0.978091907600639 C 0.0 **** 0.0
147 O63410 0.695812460269784 0.303423889356876 0.973045350862053 O 0.0 **** 0.0
148 H63412 0.480428409265504 -0.11372223283899 0.868436575480418 H 0.0 **** 0.0
149 H63414 0.502531738011648 -0.11219315667733 0.871523536458812 H 0.0 **** 0.0
150 H63416 0.481219378310734 -0.119005881072566 0.898022646042028 H 0.0 **** 0.0
151 H63418 0.49997007093614 -0.107424024482612 0.900887226023978 H 0.0 **** 0.0
152 H63420 0.465091622861883 -0.0922078211912968 0.894975138779352 H 0.0 **** 0.0
153 H63422 0.475864546504879 -0.0663473662624864 0.891012950353249 H 0.0 **** 0.0
154 H63424 0.510009743872854 -0.082638528962275 0.882855583570014 H 0.0 **** 0.0
155 H63426 0.499131240277426 -0.0664363728100427 0.871932292410666 H 0.0 **** 0.0
156 H63428 0.504432901616461 -0.0751683220565272 0.915095105676393 H 0.0 **** 0.0
157 H63430 0.489881562775302 -0.0589932171760833 0.935865393134493 H 0.0 **** 0.0
158 H63432 0.457794479866776 -0.0715325630057824 0.9206980214583 H 0.0 **** 0.0
159 H63434 0.466154006906368 -0.0763864034692025 0.940733701489421 H 0.0 **** 0.0
160 H63436 0.465528851551198 -0.102363241255352 0.92325733991188 H 0.0 **** 0.0
161 H63438 0.486792079643233 -0.0964615690173185 0.926551763064367 H 0.0 **** 0.0
162 H63440 0.472155362551591 -0.0226030746303993 0.912592286933854 H 0.0 **** 0.0
163 H63442 0.485680191472317 -0.0383826431913185 0.890710720037036 H 0.0 **** 0.0
164 H63444 0.514308148528602 -0.046860025394235 0.915241160646356 H 0.0 **** 0.0
165 H63446 0.513648377757289 -0.0525418848563943 0.893815666191408 H 0.0 **** 0.0
166 H63448 0.501616380008746 -0.0334258747223015 0.935172759247049 H 0.0 **** 0.0
167 H63450 0.527677565772377 0.0223154369909026 0.885004114070365 H 0.0 **** 0.0
168 H63452 0.537715794368579 0.00272907146780413 0.888437162683358 H 0.0 **** 0.0
169 H63454 0.521643875935768 -0.00102579084833148 0.862807073257873 H 0.0 **** 0.0
170 H63456 0.503802961275736 0.00969272594336622 0.870996938514203 H 0.0 **** 0.0
171 H63458 0.502953514272171 -0.0241746230828346 0.869935242270276 H 0.0 **** 0.0
172 H63460 0.504810375660447 -0.0200367572483991 0.961376685062254 H 0.0 **** 0.0
173 H63461 0.447820798356316 -0.00892050312338407 0.964317512342031 H 0.0 **** 0.0
174 H63463 0.447651722256004 -0.03087726609521 0.968870768779492 H 0.0 **** 0.0
175 H63465 0.457323877473279 -0.0288051492027288 0.939252805553297 H 0.0 **** 0.0
176 H63467 0.446552334859738 -0.0129338079024738 0.996963555847378 H 0.0 **** 0.0
177 H63469 0.455258137425316 -0.0334440477431589 0.998105611255866 H 0.0 **** 0.0
178 H63471 0.466412052660494 -0.0238432798304463 1.0231530058591 H 0.0 **** 0.0
179 H63473 0.464485606400305 -0.00236197373172801 1.0174231115602 H 0.0 **** 0.0
180 H63475 0.519185037744404 -0.0192630780536916 0.982492069412965 H 0.0 **** 0.0
181 H63477 0.517620267805908 0.00131633198481239 0.990879043872312 H 0.0 **** 0.0
182 H63479 0.519446881089385 -0.0313152050389525 1.01128231068872 H 0.0 **** 0.0
183 H63481 0.517128287047113 0.00584220901169364 1.02189300252798 H 0.0 **** 0.0
184 H63483 0.522036804286252 -0.0105814271360214 1.03623468654536 H 0.0 **** 0.0
185 H63485 0.490416699849721 -0.00199157362405527 1.03403925741385 H 0.0 **** 0.0
186 H63487 0.495300578817591 -0.0238102930109715 1.03322116764005 H 0.0 **** 0.0
187 H63489 0.496333300914861 0.0171058491823818 0.980442017640241 H 0.0 **** 0.0
188 H63491 0.535844096488369 0.0702296268629313 0.993830844090034 H 0.0 **** 0.0
189 H63493 0.556354335577955 0.0925862938827925 0.998007739384589 H 0.0 **** 0.0
190 H63495 0.548329345558524 0.0578664512181964 0.905178181217432 H 0.0 **** 0.0
191 H63497 0.6089812142821 0.143902166235103 1.01439561648447 H 0.0 **** 0.0
192 H63499 0.607248796595707 0.1148087293821 1.010176228697 H 0.0 **** 0.0
193 H63501 0.569145391788603 0.114192569228041 1.0135447513545 H 0.0 **** 0.0
194 H63503 0.588416094585412 0.108504442359567 1.03890973210248 H 0.0 **** 0.0
195 H63505 0.609101348653197 0.116375628260161 1.03912217734513 H 0.0 **** 0.0
196 H63507 0.600339793074057 0.144476990097103 1.04585490178263 H 0.0 **** 0.0
197 H63509 0.585565230894131 0.132070375728003 1.0569580638434 H 0.0 **** 0.0
198 H63511 0.566628432157808 0.133845261978928 1.0306301020227 H 0.0 **** 0.0
199 H63513 0.572554314805087 0.152123378826161 1.0081452928534 H 0.0 **** 0.0
200 H63515 0.602876261648964 0.168171955817449 1.02600477132427 H 0.0 **** 0.0
201 H63517 0.593419817813582 0.174567670290601 1.00682404147103 H 0.0 **** 0.0
202 H63519 0.567483632334973 0.183433687066913 1.02252629291963 H 0.0 **** 0.0
203 H63521 0.585456197707188 0.193017023139898 1.0318910116925 H 0.0 **** 0.0
204 H63523 0.566260980211685 0.180904293190799 1.05375692453091 H 0.0 **** 0.0
205 H63525 0.586186841380839 0.170652126904378 1.0540625791397 H 0.0 **** 0.0
206 H63527 0.559926144402773 0.151980793031959 1.052797498181 H 0.0 **** 0.0
207 H63529 0.532708826249233 0.108830407772839 0.878379849127992 H 0.0 **** 0.0
208 H63531 0.532331790622605 0.0796143691440153 0.869909188684421 H 0.0 **** 0.0
209 H63533 0.569307073019781 0.0749990660598479 0.877705921605458 H 0.0 **** 0.0
210 H63535 0.555969958408245 0.0623636935293388 0.865250428917624 H 0.0 **** 0.0
211 H63537 0.572676470110748 0.0750696156964127 0.843811788789751 H 0.0 **** 0.0
212 H63539 0.575778768132318 0.0937890218490871 0.855540630835404 H 0.0 **** 0.0
213 H63541 0.54229767630266 0.083842829427867 0.83892159791461 H 0.0 **** 0.0
214 H63543 0.556509547478844 0.0986317662626088 0.830347276747284 H 0.0 **** 0.0
215 H63545 0.530865978194559 0.109791904703824 0.848637973008683 H 0.0 **** 0.0
216 H63547 0.550836928289082 0.119253817505128 0.851487655941648 H 0.0 **** 0.0
217 H63549 0.578838935306833 0.132545099859939 0.887238525747773 H 0.0 **** 0.0
218 H63551 0.600949127569693 0.15436045289189 0.891127161067538 H 0.0 **** 0.0
219 H63553 0.595808558032491 0.164544182739358 0.980456900215192 H 0.0 **** 0.0
220 H63555 0.606845233571418 0.193171596250231 0.980927994472689 H 0.0 **** 0.0
221 H63557 0.616261006248898 0.21446519829593 0.964727022285216 H 0.0 **** 0.0
222 H63559 0.651873027629132 0.200012641576702 0.968679781747381 H 0.0 **** 0.0
223 H63561 0.63294194638335 0.218146771908378 0.996823166354841 H 0.0 **** 0.0
224 H63563 0.654034941784106 0.211134592250121 0.997011876140055 H 0.0 **** 0.0
225 H63565 0.625278445921832 0.19181989842308 1.00699761719412 H 0.0 **** 0.0
226 H63567 0.646271833865497 0.18451970833471 1.00459954438132 H 0.0 **** 0.0
227 H63569 0.624249745151404 0.167396346263144 0.989298615930989 H 0.0 **** 0.0
228 H63571 0.640463541053063 0.174745187515405 0.97584457474636 H 0.0 **** 0.0
229 H63573 0.545942253574525 -0.0227081112147201 0.995922672509088 H 0.0 **** 0.0
230 H63575 0.56337989460064 0.000654633332206633 1.00749475898575 H 0.0 **** 0.0
231 H63577 0.546660737147461 0.00708289430627437 1.02091169937901 H 0.0 **** 0.0
232 H63579 0.544543598771868 0.00899702467917301 0.998585724937852 H 0.0 **** 0.0
233 H63581 0.546030299029442 -0.0409020437840411 1.02182595511785 H 0.0 **** 0.0
234 H63583 0.548097006930359 -0.0225275888543306 1.03461196675965 H 0.0 **** 0.0
235 H63585 0.564433899331953 -0.028175092690919 1.02021952656466 H 0.0 **** 0.0
236 H63587 0.585935396724242 0.0915568139702126 1.02007722699568 H 0.0 **** 0.0
237 H63589 0.635313870453412 0.18879389349195 0.886221061991873 H 0.0 **** 0.0
238 H63591 0.651821788822653 0.210495649391107 0.873024905771908 H 0.0 **** 0.0
239 H63593 0.666259649609278 0.236624090105659 0.874193441004708 H 0.0 **** 0.0
240 H63595 0.680847937242294 0.263506314381194 0.874853486241214 H 0.0 **** 0.0
241 H63597 0.691017511699244 0.287567771725328 0.890089599747843 H 0.0 **** 0.0
242 H63599 0.690473467688796 0.305891072253183 0.945778385560784 H 0.0 **** 0.0
243 H63601 0.694511420103011 0.303413736477849 0.916017919995552 H 0.0 **** 0.0
244 H63603 0.654687723922416 0.238016583977605 0.988369290153745 H 0.0 **** 0.0
245 H63605 0.655172754311468 0.260727189592247 0.999981922433934 H 0.0 **** 0.0
246 H63607 0.677489237336008 0.261804553927248 1.00083157322675 H 0.0 **** 0.0
247 H63609 0.664321747356328 0.285994409049913 1.01636692083312 H 0.0 **** 0.0
248 H63611 0.652710232821498 0.291702957730919 0.998094907000536 H 0.0 **** 0.0
249 H63613 0.691316134632129 0.291993708561511 1.00275278711836 H 0.0 **** 0.0
250 H63615 0.678832570081137 0.309796815062864 0.997992780910817 H 0.0 **** 0.0
@<TRIPOS>BOND
1 3 2 1
2 4 3 1
3 5 4 1
4 6 5 1
5 1 2 1
6 1 6 1
7 8 7 1
8 9 8 1
9 10 9 1
10 4 7 1
11 3 10 1
12 12 11 1
13 13 12 1
14 14 13 1
15 8 11 1
16 7 14 1
17 16 15 1
18 17 16 Partial double
19 18 17 1
20 13 15 1
21 12 18 1
22 20 19 Partial double
23 21 20 Partial double
24 22 21 Partial double
25 17 19 Partial double
26 16 22 Partial double
27 24 23 1
28 25 24 1
29 15 25 Double
30 22 23 1
31 27 26 1
32 28 27 Partial double
33 29 28 Partial double
34 21 26 1
35 20 29 Partial double
36 31 30 1
37 32 31 1
38 18 30 1
39 19 32 1
40 34 33 Double
41 35 34 1
42 36 35 1
43 31 33 1
44 30 36 Double
45 38 37 1
46 39 38 1
47 40 39 Double
48 34 37 1
49 33 40 1
50 42 41 1
51 43 42 1
52 44 43 1
53 40 41 1
54 39 44 1
55 46 45 Partial double
56 32 46 1
57 29 45 Partial double
58 48 47 Partial double
59 49 48 1
60 45 49 Partial double
61 28 47 Partial double
62 51 50 Partial double
63 52 51 Partial double
64 53 52 Partial double
65 48 50 Partial double
66 47 53 Partial double
67 55 54 Partial double
68 56 55 Partial double
69 57 56 Partial double
70 52 54 Partial double
71 51 57 Partial double
72 59 58 Partial double
73 60 59 Partial double
74 61 60 Partial double
75 56 58 Partial double
76 55 61 Partial double
77 63 62 Partial double
78 27 63 Partial double
79 53 62 Partial double
80 65 64 Partial double
81 62 65 Partial double
82 54 64 Partial double
83 67 66 Partial double
84 64 67 Partial double
85 61 66 Partial double
86 69 68 Partial double
87 70 69 Partial double
88 66 70 Partial double
89 60 68 Partial double
90 72 71 1
91 73 72 1
92 74 73 1
93 59 71 1
94 58 74 1
95 76 75 1
96 77 76 1
97 78 77 1
98 73 75 1
99 72 78 1
100 80 79 1
101 81 80 1
102 82 81 1
103 78 79 1
104 77 82 1
105 84 83 Partial double
106 85 84 Partial double
107 67 85 Partial double
108 65 83 Partial double
109 87 86 1
110 88 87 1
111 89 88 1
112 84 86 1
113 83 89 1
114 91 90 1
115 92 91 1
116 93 92 1
117 88 90 1
118 87 93 1
119 95 94 Partial double
120 85 95 Partial double
121 70 94 Partial double
122 97 96 Partial double
123 98 97 Partial double
124 94 98 Partial double
125 69 96 Partial double
126 100 99 Partial double
127 101 100 Partial double
128 68 101 Partial double
129 96 99 Partial double
130 103 102 1
131 104 103 Partial double
132 97 102 1
133 99 104 1
134 106 105 1
135 107 106 1
136 100 105 1
137 104 107 Partial double
138 109 108 1
139 110 109 1
140 111 110 1
141 106 108 1
142 105 111 1
143 113 112 1
144 114 113 1
145 103 114 Partial double
146 107 112 Partial double
147 108 115 1
148 112 116 Partial double
149 115 116 Partial double
150 42 117 1
151 117 118 1
152 117 119 1
153 74 120 1
154 122 121 1
155 123 122 Partial double
156 124 123 1
157 114 121 Partial double
158 113 124 Partial double
159 126 125 Partial double
160 127 126 1
161 128 127 Partial double
162 124 125 Partial double
163 123 128 Partial double
164 130 129 Partial double
165 131 130 1
166 132 131 1
167 127 129 Partial double
168 126 132 Partial double
169 134 133 Partial double
170 135 134 Partial double
171 125 135 Partial double
172 132 133 Partial double
173 137 136 Partial double
174 138 137 Partial double
175 131 138 Partial double
176 133 136 Partial double
177 140 139 Partial double
178 134 140 Partial double
179 116 135 Partial double
180 115 139 Partial double
181 142 141 Partial double
182 140 142 Partial double
183 136 141 Partial double
184 144 143 1
185 145 144 1
186 146 145 1
187 142 143 1
188 141 146 1
189 146 147 Double
190 1 148 1
191 1 149 1
192 2 150 1
193 2 151 1
194 3 152 1
195 4 153 1
196 5 154 1
197 5 155 1
198 7 156 1
199 8 157 1
200 9 158 1
201 9 159 1
202 10 160 1
203 10 161 1
204 12 162 1
205 13 163 1
206 14 164 1
207 14 165 1
208 18 166 1
209 23 167 1
210 23 168 1
211 24 169 1
212 24 170 1
213 25 171 1
214 35 173 1
215 35 174 1
216 36 175 1
217 37 176 1
218 37 177 1
219 38 178 1
220 38 179 1
221 41 180 1
222 41 181 1
223 42 182 1
224 43 183 1
225 43 184 1
226 44 185 1
227 44 186 1
228 46 187 1
229 50 188 1
230 57 189 1
231 63 190 1
232 72 191 1
233 73 192 1
234 74 193 1
235 75 194 1
236 75 195 1
237 76 196 1
238 76 197 1
239 77 198 1
240 78 199 1
241 79 200 1
242 79 201 1
243 80 202 1
244 80 203 1
245 81 204 1
246 81 205 1
247 82 206 1
248 87 207 1
249 88 208 1
250 90 209 1
251 90 210 1
252 91 211 1
253 91 212 1
254 92 213 1
255 92 214 1
256 93 215 1
257 93 216 1
258 95 217 1
259 98 218 1
260 101 219 1
261 105 220 1
262 106 221 1
263 108 222 1
264 109 223 1
265 109 224 1
266 110 225 1
267 110 226 1
268 111 227 1
269 111 228 1
270 117 229 1
271 118 230 1
272 118 231 1
273 118 232 1
274 119 233 1
275 119 234 1
276 119 235 1
277 120 236 1
278 121 237 1
279 122 238 1
280 128 239 1
281 129 240 1
282 130 241 1
283 137 242 1
284 138 243 1
285 139 244 1
286 143 245 1
287 143 246 1
288 144 247 1
289 144 248 1
290 145 249 1
291 145 250 1
292 31 172 1
@<TRIPOS>MOLECULE
Sketch 4
250 292
SMALL
USER_CHARGES


@<TRIPOS>ATOM
1 C63618 0.0970175206962468 0.455458524234279 0.938587771794212 C 0.0 **** 0.0
2 C63619 0.08258738180098 0.467845180020688 0.9436455765306 C 0.0 **** 0.0
3 C63620 0.0673411815418532 0.46592126661047 0.931584130636071 C 0.0 **** 0.0
4 C63621 0.07402737266735 0.465934461613325 0.913190110265595 C 0.0 **** 0.0
5 C63622 0.0870755072050628 0.451268674909333 0.911144678510994 C 0.0 **** 0.0
6 O63623 0.091269904312922 0.443264074661114 0.92673420774831 O 0.0 **** 0.0
7 C63630 0.0816055205976781 0.483491210586027 0.908348377801576 C 0.0 **** 0.0
8 C63631 0.0707945843995883 0.498572574180387 0.915421503617057 C 0.0 **** 0.0
9 C63632 0.0531701458192647 0.492924713498386 0.921035499813771 C 0.0 **** 0.0
10 C63633 0.0533457121403102 0.4792044506493 0.934711850247485 C 0.0 **** 0.0
11 O63639 0.0679218651926835 0.512247459521614 0.90410781719093 O 0.0 **** 0.0
12 C63640 0.0820058129174929 0.516615750453225 0.893720959729887 C 0.0 **** 0.0
13 C63641 0.0844940714107704 0.502332466315953 0.880821556444999 C 0.0 **** 0.0
14 C63642 0.085749200518598 0.484440435570722 0.889162944948946 C 0.0 **** 0.0
15 C63648 0.0991080741247347 0.505813822772658 0.868942594007573 C 0.0 **** 0.0
16 C63649 0.110823745490458 0.520288115706257 0.873078421588911 C 0.0 **** 0.0
17 C63650 0.110820159092735 0.527506757256939 0.889109580559415 C 0.0 **** 0.0
18 C63651 0.0987407443869062 0.520861237295639 0.902617519735298 C 0.0 **** 0.0
19 C63657 0.122199425476334 0.540441505248487 0.892659195173168 C 0.0 **** 0.0
20 C63658 0.133211928943328 0.54582233860615 0.880154438499904 C 0.0 **** 0.0
21 C63659 0.132631865909563 0.539114574801001 0.863948307837441 C 0.0 **** 0.0
22 C63660 0.121443935902668 0.526104858126537 0.86041572696691 C 0.0 **** 0.0
23 C63666 0.120545216450868 0.518788422973061 0.842744292110366 C 0.0 **** 0.0
24 C63667 0.116169064398862 0.499731689237748 0.843128556135592 C 0.0 **** 0.0
25 C63668 0.101711115881902 0.496245265385108 0.855084218731619 C 0.0 **** 0.0
26 O63673 0.143064792603965 0.545014350344379 0.851144266178913 O 0.0 **** 0.0
27 C63674 0.152299585202263 0.559561543920096 0.853871929105083 C 0.0 **** 0.0
28 C63675 0.155191310394016 0.566276406844305 0.869738689875454 C 0.0 **** 0.0
29 C63676 0.146294283268027 0.558660152826414 0.88456734070986 C 0.0 **** 0.0
30 C63682 0.0979455792874522 0.533448957577494 0.916923184385016 C 0.0 **** 0.0
31 C63683 0.115509408362179 0.53742495337908 0.923660001938884 C 0.0 **** 0.0
32 C63684 0.122574062266413 0.549177697536657 0.909755471733556 C 0.0 **** 0.0
33 C63689 0.115548970187061 0.545276565567881 0.941688825280641 C 0.0 **** 0.0
34 C63690 0.101378089684726 0.553988833292481 0.946402249750927 C 0.0 **** 0.0
35 C63691 0.0854836151848411 0.555369366233902 0.935706336471202 C 0.0 **** 0.0
36 C63692 0.0842887130055003 0.542057218889541 0.922104122639759 C 0.0 **** 0.0
37 C63698 0.0991086278021448 0.562755536712683 0.963055239821831 C 0.0 **** 0.0
38 C63699 0.114020952136969 0.560710237672195 0.975331846117511 C 0.0 **** 0.0
39 C63700 0.128349000201132 0.550331410114386 0.96850669079637 C 0.0 **** 0.0
40 C63701 0.128785978073589 0.543266408393747 0.952731585937509 C 0.0 **** 0.0
41 C63707 0.144679771727991 0.532806716620961 0.94816315296211 C 0.0 **** 0.0
42 C63708 0.15435292523203 0.526181122224157 0.963488688115511 C 0.0 **** 0.0
43 C63709 0.158270042836385 0.541116362115028 0.975267006843266 C 0.0 **** 0.0
44 C63710 0.141820257415567 0.548526849347384 0.981929844587843 C 0.0 **** 0.0
45 C63716 0.149457656366964 0.563271407246886 0.900779729017279 C 0.0 **** 0.0
46 C63717 0.1390256770006 0.558477160049625 0.913630479226591 C 0.0 **** 0.0
47 C63721 0.165327078258837 0.580888239050953 0.871346272973445 C 0.0 **** 0.0
48 C63722 0.170335911665164 0.587247164009603 0.887289972299914 C 0.0 **** 0.0
49 S63723 0.167571385056766 0.575033810189984 0.905303541191558 S 0.0 **** 0.0
50 C63728 0.178099585845033 0.602621024674983 0.88893153778606 C 0.0 **** 0.0
51 C63729 0.180073066799925 0.613037382202975 0.874524376641891 C 0.0 **** 0.0
52 C63730 0.175026681452086 0.606904505204743 0.858448555465146 C 0.0 **** 0.0
53 C63731 0.169648972939058 0.590215352960783 0.856755775270082 C 0.0 **** 0.0
54 C63737 0.173923126554324 0.6181638120719 0.844907845477948 C 0.0 **** 0.0
55 C63738 0.177004674984552 0.635495738028612 0.847249627669955 C 0.0 **** 0.0
56 C63739 0.180835515884024 0.641957440044677 0.863480439140302 C 0.0 **** 0.0
57 C63740 0.184291975790935 0.630159622642113 0.876330794764907 C 0.0 **** 0.0
58 C63746 0.181568677561172 0.659493913770706 0.865978008156238 C 0.0 **** 0.0
59 C63747 0.183580683480759 0.669902674122837 0.852017057513883 C 0.0 **** 0.0
60 C63748 0.181898909636549 0.663475360220038 0.835417667499201 C 0.0 **** 0.0
61 C63749 0.176852243311082 0.646538646722763 0.833549869115413 C 0.0 **** 0.0
62 C63755 0.166281516961646 0.583649608043484 0.840584755662077 C 0.0 **** 0.0
63 C63756 0.158687822781527 0.567599550034216 0.83986093455758 C 0.0 **** 0.0
64 C63760 0.169393660849956 0.612022952915319 0.829011256128362 C 0.0 **** 0.0
65 C63761 0.167461290348013 0.594567230813344 0.826249515335915 C 0.0 **** 0.0
66 C63765 0.172743334142522 0.640178496850667 0.817632308907201 C 0.0 **** 0.0
67 C63766 0.167787792627371 0.623317158817627 0.815735453916459 C 0.0 **** 0.0
68 C63770 0.18594709432899 0.673102993245648 0.820584134274261 C 0.0 **** 0.0
69 C63771 0.18433111110494 0.665187536892598 0.804732443653333 C 0.0 **** 0.0
70 C63772 0.175916924180344 0.6499431069546 0.803268386103418 C 0.0 **** 0.0
71 O63777 0.187154433455641 0.68689535171889 0.854978973104782 O 0.0 **** 0.0
72 C63778 0.200008965070857 0.690402129947936 0.86741049241657 C 0.0 **** 0.0
73 C63779 0.199822071753374 0.677597596867397 0.882476366431992 C 0.0 **** 0.0
74 C63780 0.18250335090085 0.668988785365392 0.882669037129638 C 0.0 **** 0.0
75 C63786 0.204809726093326 0.68586786980423 0.899450387658557 C 0.0 **** 0.0
76 C63787 0.219097595670405 0.698541609879916 0.896605297753202 C 0.0 **** 0.0
77 C63788 0.212261635174456 0.713844127220938 0.886724737171723 C 0.0 **** 0.0
78 C63789 0.198066633116881 0.70882439348868 0.873883333791507 C 0.0 **** 0.0
79 C63795 0.196148886457015 0.722081505729834 0.859638378080641 C 0.0 **** 0.0
80 C63796 0.201460380735455 0.739416236120699 0.866406758301938 C 0.0 **** 0.0
81 C63797 0.220228259444522 0.739734971104031 0.871906783161812 C 0.0 **** 0.0
82 N63798 0.22595103557213 0.723597982295477 0.879345333496921 N 0.0 **** 0.0
83 C63804 0.16529968047941 0.588343959099231 0.809589850777059 C 0.0 **** 0.0
84 C63805 0.161717838258559 0.599586082509953 0.796686416627883 C 0.0 **** 0.0
85 C63806 0.16340991271358 0.61710768209315 0.799686319615872 C 0.0 **** 0.0
86 O63811 0.157916002086331 0.594552258245441 0.78033567054154 O 0.0 **** 0.0
87 C63812 0.154230895286454 0.57702587407222 0.778549726536017 C 0.0 **** 0.0
88 C63813 0.165964672610418 0.566337669931251 0.788965408758635 C 0.0 **** 0.0
89 O63814 0.166040239260176 0.571126255999949 0.80636840185079 O 0.0 **** 0.0
90 C63820 0.184221349771644 0.565731549817742 0.78181871742991 C 0.0 **** 0.0
91 C63821 0.18742346325161 0.578059660957567 0.767104510494981 C 0.0 **** 0.0
92 C63822 0.173965438069001 0.576605974614354 0.752995288651822 C 0.0 **** 0.0
93 C63823 0.156051641042613 0.572282101582224 0.759808232642246 C 0.0 **** 0.0
94 C63829 0.172560194648054 0.643394109032467 0.786932527503673 C 0.0 **** 0.0
95 C63830 0.164307636481148 0.627788027770958 0.785571344444139 C 0.0 **** 0.0
96 C63834 0.191166459251857 0.672767420479347 0.790246241775024 C 0.0 **** 0.0
97 C63835 0.190376478125629 0.664707482288318 0.774331282002724 C 0.0 **** 0.0
98 C63836 0.1802496489888 0.650793428740057 0.772543317990027 C 0.0 **** 0.0
99 C63841 0.197302702463011 0.689400332896829 0.790791542321013 C 0.0 **** 0.0
100 C63842 0.197243721176717 0.698184017089505 0.805857746548589 C 0.0 **** 0.0
101 C63843 0.191902219138878 0.689937441005035 0.820269386478628 C 0.0 **** 0.0
102 O63848 0.199095272023709 0.670871902136008 0.760568011277825 O 0.0 **** 0.0
103 C63849 0.201963911081601 0.688007097295532 0.759972288153311 C 0.0 **** 0.0
104 C63850 0.201862954512454 0.69758381869795 0.774369632530844 C 0.0 **** 0.0
105 C63855 0.202024327809058 0.716714647176384 0.807026113421346 C 0.0 **** 0.0
106 C63856 0.203199983546427 0.725978166521226 0.789182362920992 C 0.0 **** 0.0
107 C63857 0.20476074902884 0.714563559721888 0.773660463909446 C 0.0 **** 0.0
108 C63862 0.217536391664825 0.739256445610578 0.788981592898139 C 0.0 **** 0.0
109 C63863 0.218024787460646 0.74993526338345 0.805222969881139 C 0.0 **** 0.0
110 C63864 0.219672223779302 0.738632776860502 0.821219051821187 C 0.0 **** 0.0
111 C63865 0.218214582857228 0.719628906702528 0.817172682563181 C 0.0 **** 0.0
112 C63871 0.208618087346544 0.721797547800575 0.758466785989122 C 0.0 **** 0.0
113 C63872 0.208059186197678 0.712331337915185 0.743915490668269 C 0.0 **** 0.0
114 C63873 0.204876749293792 0.695420898413244 0.744668196014405 C 0.0 **** 0.0
115 C63878 0.216293179464874 0.74938055562563 0.772594631526051 C 0.0 **** 0.0
116 C63880 0.212670468088229 0.740403961654428 0.757950910152039 C 0.0 **** 0.0
117 C63883 0.170076133713273 0.515657226187112 0.958424968128141 C 0.0 **** 0.0
118 C63885 0.184000825629956 0.525880524274072 0.949587594759513 C 0.0 **** 0.0
119 C63887 0.177728209660016 0.506335229342349 0.973622457061302 C 0.0 **** 0.0
120 O63889 0.180098237453878 0.658936683311667 0.897396656838093 O 0.0 **** 0.0
121 C63891 0.204504946570941 0.685995018813561 0.730153686010086 C 0.0 **** 0.0
122 C63892 0.206823097842254 0.693495994321798 0.71483554068723 C 0.0 **** 0.0
123 C63893 0.20955141821332 0.710503547620068 0.71386836670702 C 0.0 **** 0.0
124 C63894 0.210356692648202 0.71976555797183 0.728481264610772 C 0.0 **** 0.0
125 C63900 0.2132733915812 0.738221695707837 0.727434563539221 C 0.0 **** 0.0
126 C63901 0.215303125279571 0.745430514897014 0.711878527346337 C 0.0 **** 0.0
127 C63902 0.2140429618606 0.734842004692698 0.696538232331867 C 0.0 **** 0.0
128 C63903 0.211281270331126 0.717798536314421 0.698123341663928 C 0.0 **** 0.0
129 C63909 0.215693418319591 0.742312902361922 0.681009375196467 C 0.0 **** 0.0
130 C63910 0.218855057048955 0.759313531179289 0.679441051029247 C 0.0 **** 0.0
131 C63911 0.220364830361716 0.769590448413082 0.693297015977475 C 0.0 **** 0.0
132 C63912 0.218402503683722 0.76238182490791 0.710441749650189 C 0.0 **** 0.0
133 C63918 0.21973711488622 0.77268241149671 0.72481818811376 C 0.0 **** 0.0
134 C63919 0.217529634553698 0.765367414976866 0.740744571661193 C 0.0 **** 0.0
135 C63920 0.214137877640364 0.748065651209459 0.742111527979166 C 0.0 **** 0.0
136 C63925 0.223147415578977 0.789972265093143 0.723370875136364 C 0.0 **** 0.0
137 C63926 0.224963873623772 0.796537197244501 0.705391816380306 C 0.0 **** 0.0
138 C63927 0.223540054071081 0.786433868056065 0.691453254075078 C 0.0 **** 0.0
139 C63932 0.21947850009291 0.766478555184382 0.771169059406233 C 0.0 **** 0.0
140 C63933 0.219234926443752 0.775171113209809 0.755406881460851 C 0.0 **** 0.0
141 C63938 0.223789436820369 0.799932600661992 0.737888816770707 C 0.0 **** 0.0
142 C63939 0.221311516787101 0.792802522418867 0.753822889478229 C 0.0 **** 0.0
143 C63943 0.221674443373697 0.803892271518122 0.76951615623404 C 0.0 **** 0.0
144 C63944 0.212454672314717 0.820519559588531 0.765922074684617 C 0.0 **** 0.0
145 C63945 0.220984936922888 0.829393769659464 0.751280646354238 C 0.0 **** 0.0
146 C63946 0.226985960654358 0.81859426334068 0.73682125176819 C 0.0 **** 0.0
147 O63952 0.234624100303292 0.825567173801925 0.725494495742531 O 0.0 **** 0.0
148 H63954 0.101597078696003 0.448295040818326 0.949579280434057 H 0.0 **** 0.0
149 H63956 0.108007308744405 0.462428158765978 0.933550141550664 H 0.0 **** 0.0
150 H63958 0.0783201643183752 0.465840321403572 0.956727811680057 H 0.0 **** 0.0
151 H63960 0.0871446953265868 0.481013129715326 0.94338495233352 H 0.0 **** 0.0
152 H63962 0.0619007728542007 0.45328794771683 0.93404842523448 H 0.0 **** 0.0
153 H63964 0.0631614960409217 0.463664112444814 0.904694148294714 H 0.0 **** 0.0
154 H63966 0.098681699128597 0.455600653360191 0.904731527309697 H 0.0 **** 0.0
155 H63968 0.081756968466546 0.441161232625384 0.903254786085902 H 0.0 **** 0.0
156 H63970 0.0939764610154551 0.484283350553693 0.914790357784197 H 0.0 **** 0.0
157 H63972 0.0774321245597578 0.503522183805255 0.926679483152153 H 0.0 **** 0.0
158 H63974 0.0464821279347384 0.488187764907419 0.90977102983435 H 0.0 **** 0.0
159 H63976 0.046074097434001 0.504129212106203 0.925328589453004 H 0.0 **** 0.0
160 H63978 0.0408627077320684 0.473038696011215 0.935111953078907 H 0.0 **** 0.0
161 H63980 0.0550936811119099 0.485038805596149 0.947248978855188 H 0.0 **** 0.0
162 H63982 0.077607490791821 0.527983578516069 0.886949559144446 H 0.0 **** 0.0
163 H63984 0.0729534783224029 0.50230705018725 0.873058648841075 H 0.0 **** 0.0
164 H63986 0.0984528893482733 0.478995815784991 0.887344948655142 H 0.0 **** 0.0
165 H63988 0.0771818336279086 0.475959441477521 0.882188433899151 H 0.0 **** 0.0
166 H63990 0.104124459282079 0.509121628906048 0.907990737885281 H 0.0 **** 0.0
167 H63992 0.11075909989977 0.525597953662396 0.835504768488072 H 0.0 **** 0.0
168 H63994 0.132565069109794 0.52062930528985 0.836007547416434 H 0.0 **** 0.0
169 H63996 0.127303860731307 0.492346981166131 0.847077285348586 H 0.0 **** 0.0
170 H63998 0.112856726209753 0.495449466908808 0.830264754152779 H 0.0 **** 0.0
171 H64000 0.0937674005965763 0.485431359697861 0.851986111825849 H 0.0 **** 0.0
172 H64002 0.122766311468474 0.525549877621749 0.9237464928111 H 0.0 **** 0.0
173 H64003 0.0846978358441127 0.5680367886743 0.929995876384702 H 0.0 **** 0.0
174 H64005 0.0743497056170624 0.553985150545452 0.944067210565509 H 0.0 **** 0.0
175 H64007 0.0719202690386141 0.540011720163191 0.916377795578137 H 0.0 **** 0.0
176 H64009 0.0969432285097219 0.576331044522369 0.960678270718557 H 0.0 **** 0.0
177 H64011 0.087528838599933 0.557899646570226 0.96916309461149 H 0.0 **** 0.0
178 H64013 0.109477164530931 0.55483523295313 0.987160364290022 H 0.0 **** 0.0
179 H64015 0.11889172046649 0.573327143523972 0.978806007064572 H 0.0 **** 0.0
180 H64017 0.141277372148511 0.5219754843349 0.940148296991389 H 0.0 **** 0.0
181 H64019 0.153170141833237 0.540808812055074 0.9405818405556 H 0.0 **** 0.0
182 H64021 0.145874142756869 0.517491735744111 0.970448728962129 H 0.0 **** 0.0
183 H64023 0.165388473764918 0.550792608645543 0.968198168218274 H 0.0 **** 0.0
184 H64025 0.166282095909155 0.537360484058193 0.98601840614246 H 0.0 **** 0.0
185 H64027 0.144065845949465 0.560926912227943 0.987877693611342 H 0.0 **** 0.0
186 H64029 0.136798683481126 0.540219694014133 0.991968249893954 H 0.0 **** 0.0
187 H64031 0.141728536971096 0.561954833195655 0.926664487438016 H 0.0 **** 0.0
188 H64033 0.181781367179093 0.607472279039072 0.901395105754786 H 0.0 **** 0.0
189 H64035 0.188518669128735 0.63414965865315 0.888891603472424 H 0.0 **** 0.0
190 H64037 0.155049676621142 0.561539861310867 0.828000519777641 H 0.0 **** 0.0
191 H64039 0.212256273656472 0.689551566361846 0.860823646277078 H 0.0 **** 0.0
192 H64041 0.209384801107557 0.667653485131459 0.880227613453176 H 0.0 **** 0.0
193 H64043 0.172693104226552 0.678984873877859 0.882849504225005 H 0.0 **** 0.0
194 H64045 0.193944629854579 0.692619273895812 0.904947746699762 H 0.0 **** 0.0
195 H64047 0.208371165571238 0.675991299485897 0.908618072605676 H 0.0 **** 0.0
196 H64049 0.22932342391439 0.692341812714189 0.889437269493642 H 0.0 **** 0.0
197 H64051 0.224737375349417 0.702855244392042 0.908600571873948 H 0.0 **** 0.0
198 H64053 0.206282689711781 0.722205209360459 0.896194696825978 H 0.0 **** 0.0
199 H64055 0.186104668057985 0.708928541588754 0.881100619329185 H 0.0 **** 0.0
200 H64057 0.204386548290471 0.718757910530444 0.848995106027632 H 0.0 **** 0.0
201 H64059 0.183140479862973 0.722294677633297 0.854729118652468 H 0.0 **** 0.0
202 H64061 0.193468348517974 0.742067188196421 0.877473121657001 H 0.0 **** 0.0
203 H64063 0.199066863741945 0.749701087334381 0.857340542918382 H 0.0 **** 0.0
204 H64065 0.22230577895088 0.749901966593404 0.881218938660946 H 0.0 **** 0.0
205 H64067 0.228335269718076 0.742795293810178 0.861004376538713 H 0.0 **** 0.0
206 H64069 0.23211332061597 0.716681871315557 0.870719806313803 H 0.0 **** 0.0
207 H64071 0.141163120119362 0.574930612185187 0.782963873714335 H 0.0 **** 0.0
208 H64073 0.16085545657819 0.553368452661293 0.78861165580182 H 0.0 **** 0.0
209 H64075 0.193004659134401 0.56848901624527 0.792237344009487 H 0.0 **** 0.0
210 H64077 0.187327112498764 0.552898452607422 0.777401680332689 H 0.0 **** 0.0
211 H64079 0.200205705077396 0.576119843832255 0.761882566067748 H 0.0 **** 0.0
212 H64081 0.187399404938241 0.59108596268843 0.772096803355812 H 0.0 **** 0.0
213 H64083 0.177908916520302 0.567027200968361 0.743702975247623 H 0.0 **** 0.0
214 H64085 0.173528725807602 0.588667454042833 0.746024784223386 H 0.0 **** 0.0
215 H64087 0.15357723485408 0.558662997034769 0.758358276382728 H 0.0 **** 0.0
216 H64089 0.14641227918334 0.578797215856759 0.75215325403079 H 0.0 **** 0.0
217 H64091 0.162254174084392 0.622520845049495 0.772874686445043 H 0.0 **** 0.0
218 H64093 0.178894489353915 0.644727769301667 0.760116781089175 H 0.0 **** 0.0
219 H64095 0.192712174178258 0.697605971712721 0.831712155433262 H 0.0 **** 0.0
220 H64097 0.191771216620279 0.723048701837245 0.814016085013644 H 0.0 **** 0.0
221 H64099 0.191124548132609 0.732810584819486 0.787686127182933 H 0.0 **** 0.0
222 H64101 0.22966608070618 0.732370023957592 0.788480820889012 H 0.0 **** 0.0
223 H64103 0.206470609045523 0.757653614415425 0.806037317209992 H 0.0 **** 0.0
224 H64105 0.228713161864205 0.758842449483541 0.804814188328616 H 0.0 **** 0.0
225 H64107 0.209572197215609 0.741964342896393 0.830208576075096 H 0.0 **** 0.0
226 H64109 0.231565981852738 0.741372290118168 0.827841060855303 H 0.0 **** 0.0
227 H64111 0.218519861650175 0.712100560070751 0.82885631404401 H 0.0 **** 0.0
228 H64113 0.229064490102197 0.715295355223011 0.809669223816362 H 0.0 **** 0.0
229 H64115 0.165718343684682 0.505874014003185 0.949429130630103 H 0.0 **** 0.0
230 H64117 0.194563763672749 0.517566848731426 0.945939293323468 H 0.0 **** 0.0
231 H64119 0.189112186697933 0.535706415105772 0.958016876709498 H 0.0 **** 0.0
232 H64121 0.179491553594989 0.532137318816031 0.938013719930549 H 0.0 **** 0.0
233 H64123 0.168214808797967 0.498704078878821 0.980329462937604 H 0.0 **** 0.0
234 H64125 0.183190400609437 0.515299785887115 0.982748255945408 H 0.0 **** 0.0
235 H64127 0.187918810527233 0.497750700233599 0.969583772636862 H 0.0 **** 0.0
236 H64129 0.169891546282481 0.652846951338825 0.895535171435703 H 0.0 **** 0.0
237 H64131 0.202178056886748 0.672400131480084 0.730477208465037 H 0.0 **** 0.0
238 H64133 0.206289281444483 0.685655915710757 0.703497504765987 H 0.0 **** 0.0
239 H64135 0.210414437573683 0.709925716013017 0.686809911851973 H 0.0 **** 0.0
240 H64137 0.214610722391405 0.734814992674887 0.669482617975883 H 0.0 **** 0.0
241 H64139 0.22014095309858 0.764550225040226 0.666741355519444 H 0.0 **** 0.0
242 H64141 0.22737975787229 0.809883390455182 0.703243378348308 H 0.0 **** 0.0
243 H64143 0.224929220393831 0.792159628850612 0.678984148826531 H 0.0 **** 0.0
244 H64145 0.222087474704377 0.773443070522906 0.782854126157455 H 0.0 **** 0.0
245 H64147 0.215484204158329 0.797792124984478 0.780350044401401 H 0.0 **** 0.0
246 H64149 0.234851178825456 0.806385421669353 0.773292001626158 H 0.0 **** 0.0
247 H64151 0.212517678795578 0.828707110661812 0.777173384937128 H 0.0 **** 0.0
248 H64153 0.199096314034557 0.817825025381739 0.762950923275618 H 0.0 **** 0.0
249 H64155 0.232731411763475 0.835830190204557 0.755012321443842 H 0.0 **** 0.0
250 H64157 0.213212721744132 0.839015080782415 0.744928006623302 H 0.0 **** 0.0
@<TRIPOS>BOND
1 3 2 1
2 4 3 1
3 5 4 1
4 6 5 1
5 1 2 1
6 1 6 1
7 8 7 1
8 9 8 1
9 10 9 1
10 4 7 1
11 3 10 1
12 12 11 1
13 13 12 1
14 14 13 1
15 8 11 1
16 7 14 1
17 16 15 1
18 17 16 Partial double
19 18 17 1
20 13 15 1
21 12 18 1
22 20 19 Partial double
23 21 20 Partial double
24 22 21 Partial double
25 17 19 Partial double
26 16 22 Partial double
27 24 23 1
28 25 24 1
29 15 25 Double
30 22 23 1
31 27 26 1
32 28 27 Partial double
33 29 28 Partial double
34 21 26 1
35 20 29 Partial double
36 31 30 1
37 32 31 1
38 18 30 1
39 19 32 1
40 34 33 Double
41 35 34 1
42 36 35 1
43 31 33 1
44 30 36 Double
45 38 37 1
46 39 38 1
47 40 39 Double
48 34 37 1
49 33 40 1
50 42 41 1
51 43 42 1
52 44 43 1
53 40 41 1
54 39 44 1
55 46 45 Partial double
56 32 46 1
57 29 45 Partial double
58 48 47 Partial double
59 49 48 1
60 45 49 Partial double
61 28 47 Partial double
62 51 50 Partial double
63 52 51 Partial double
64 53 52 Partial double
65 48 50 Partial double
66 47 53 Partial double
67 55 54 Partial double
68 56 55 Partial double
69 57 56 Partial double
70 52 54 Partial double
71 51 57 Partial double
72 59 58 Partial double
73 60 59 Partial double
74 61 60 Partial double
75 56 58 Partial double
76 55 61 Partial double
77 63 62 Partial double
78 27 63 Partial double
79 53 62 Partial double
80 65 64 Partial double
81 62 65 Partial double
82 54 64 Partial double
83 67 66 Partial double
84 64 67 Partial double
85 61 66 Partial double
86 69 68 Partial double
87 70 69 Partial double
88 66 70 Partial double
89 60 68 Partial double
90 72 71 1
91 73 72 1
92 74 73 1
93 59 71 1
94 58 74 1
95 76 75 1
96 77 76 1
97 78 77 1
98 73 75 1
99 72 78 1
100 80 79 1
101 81 80 1
102 82 81 1
103 78 79 1
104 77 82 1
105 84 83 Partial double
106 85 84 Partial double
107 67 85 Partial double
108 65 83 Partial double
109 87 86 1
110 88 87 1
111 89 88 1
112 84 86 1
113 83 89 1
114 91 90 1
115 92 91 1
116 93 92 1
117 88 90 1
118 87 93 1
119 95 94 Partial double
120 85 95 Partial double
121 70 94 Partial double
122 97 96 Partial double
123 98 97 Partial double
124 94 98 Partial double
125 69 96 Partial double
126 100 99 Partial double
127 101 100 Partial double
128 68 101 Partial double
129 96 99 Partial double
130 103 102 1
131 104 103 Partial double
132 97 102 1
133 99 104 1
134 106 105 1
135 107 106 1
136 100 105 1
137 104 107 Partial double
138 109 108 1
139 110 109 1
140 111 110 1
141 106 108 1
142 105 111 1
143 113 112 1
144 114 113 1
145 103 114 Partial double
146 107 112 Partial double
147 108 115 1
148 112 116 Partial double
149 115 116 Partial double
150 42 117 1
151 117 118 1
152 117 119 1
153 74 120 1
154 122 121 1
155 123 122 Partial double
156 124 123 1
157 114 121 Partial double
158 113 124 Partial double
159 126 125 Partial double
160 127 126 1
161 128 127 Partial double
162 124 125 Partial double
163 123 128 Partial double
164 130 129 Partial double
165 131 130 1
166 132 131 1
167 127 129 Partial double
168 126 132 Partial double
169 134 133 Partial double
170 135 134 Partial double
171 125 135 Partial double
172 132 133 Partial double
173 137 136 Partial double
174 138 137 Partial double
175 131 138 Partial double
176 133 136 Partial double
177 140 139 Partial double
178 134 140 Partial double
179 116 135 Partial double
180 115 139 Partial double
181 142 141 Partial double
182 140 142 Partial double
183 136 141 Partial double
184 144 143 1
185 145 144 1
186 146 145 1
187 142 143 1
188 141 146 1
189 146 147 Double
190 1 148 1
191 1 149 1
192 2 150 1
193 2 151 1
194 3 152 1
195 4 153 1
196 5 154 1
197 5 155 1
198 7 156 1
199 8 157 1
200 9 158 1
201 9 159 1
202 10 160 1
203 10 161 1
204 12 162 1
205 13 163 1
206 14 164 1
207 14 165 1
208 18 166 1
209 23 167 1
210 23 168 1
211 24 169 1
212 24 170 1
213 25 171 1
214 35 173 1
215 35 174 1
216 36 175 1
217 37 176 1
218 37 177 1
219 38 178 1
220 38 179 1
221 41 180 1
222 41 181 1
223 42 182 1
224 43 183 1
225 43 184 1
226 44 185 1
227 44 186 1
228 46 187 1
229 50 188 1
230 57 189 1
231 63 190 1
232 72 191 1
233 73 192 1
234 74 193 1
235 75 194 1
236 75 195 1
237 76 196 1
238 76 197 1
239 77 198 1
240 78 199 1
241 79 200 1
242 79 201 1
243 80 202 1
244 80 203 1
245 81 204 1
246 81 205 1
247 82 206 1
248 87 207 1
249 88 208 1
250 90 209 1
251 90 210 1
252 91 211 1
253 91 212 1
254 92 213 1
255 92 214 1
256 93 215 1
257 93 216 1
258 95 217 1
259 98 218 1
260 101 219 1
261 105 220 1
262 106 221 1
263 108 222 1
264 109 223 1
265 109 224 1
266 110 225 1
267 110 226 1
268 111 227 1
269 111 228 1
270 117 229 1
271 118 230 1
272 118 231 1
273 118 232 1
274 119 233 1
275 119 234 1
276 119 235 1
277 120 236 1
278 121 237 1
279 122 238 1
280 128 239 1
281 129 240 1
282 130 241 1
283 137 242 1
284 138 243 1
285 139 244 1
286 143 245 1
287 143 246 1
288 144 247 1
289 144 248 1
290 145 249 1
291 145 250 1
292 31 172 1
@<TRIPOS>MOLECULE
Sketch 4
250 292
SMALL
USER_CHARGES


@<TRIPOS>ATOM
1 C64160 0.062450296007627 0.434490293751607 0.535455861212868 C 0.0 **** 0.0
2 C64161 0.0806090006155519 0.427918703698632 0.531888652546432 C 0.0 **** 0.0
3 C64162 0.0822992706819629 0.422514991085671 0.513274621935365 C 0.0 **** 0.0
4 C64163 0.0682494014257023 0.40939798560301 0.509101426231778 C 0.0 **** 0.0
5 C64164 0.0508561835995422 0.416224637460974 0.515455823799773 C 0.0 **** 0.0
6 O64165 0.051719141310601 0.433266932629346 0.52110122616373 O 0.0 **** 0.0
7 C64172 0.0717570474031569 0.391344037576672 0.51612629819867 C 0.0 **** 0.0
8 C64173 0.0909132543583544 0.386655049067335 0.515883243118568 C 0.0 **** 0.0
9 C64174 0.100929373577778 0.397959212379387 0.503886684560138 C 0.0 **** 0.0
10 C64175 0.10035509625682 0.416651275365745 0.508679013258351 C 0.0 **** 0.0
11 O64181 0.0943539415353517 0.369813215779363 0.510569753648246 O 0.0 **** 0.0
12 C64182 0.0834859884612291 0.357339208095151 0.517811528191806 C 0.0 **** 0.0
13 C64183 0.0657655389868163 0.359080760662492 0.509713171921336 C 0.0 **** 0.0
14 C64184 0.0608759642666945 0.378160518039059 0.506640515346042 C 0.0 **** 0.0
15 C64190 0.052187197935083 0.348725859955255 0.518562130647659 C 0.0 **** 0.0
16 C64191 0.0569869856307263 0.338397150907107 0.533846605887497 C 0.0 **** 0.0
17 C64192 0.0717650542903136 0.342013053875701 0.542585195760686 C 0.0 **** 0.0
18 C64193 0.0826071243537941 0.357062343998052 0.537195922697943 C 0.0 **** 0.0
19 C64199 0.0759682582438843 0.33224702368995 0.556547005215051 C 0.0 **** 0.0
20 C64200 0.0652518023919196 0.319345211388075 0.561566875286142 C 0.0 **** 0.0
21 C64201 0.0504408138064382 0.31577808587461 0.552886632904682 C 0.0 **** 0.0
22 C64202 0.0462953980584875 0.325376196742496 0.538829495010503 C 0.0 **** 0.0
23 C64208 0.0305596837901747 0.321098017434795 0.528849831006232 C 0.0 **** 0.0
24 C64209 0.0229548541643032 0.337204510469067 0.520932364159484 C 0.0 **** 0.0
25 C64210 0.0362910598016251 0.347978169796139 0.512513695668925 C 0.0 **** 0.0
26 O64215 0.0396807863657573 0.302824681860365 0.557949132428078 O 0.0 **** 0.0
27 C64216 0.0460407748071157 0.290572819797811 0.568639972656814 C 0.0 **** 0.0
28 C64217 0.0600339138795829 0.293307309382041 0.578791486824572 C 0.0 **** 0.0
29 C64218 0.0696880568912105 0.309417617495798 0.576890707349103 C 0.0 **** 0.0
30 C64224 0.0993512325009872 0.356812168157758 0.546455842933834 C 0.0 **** 0.0
31 C64225 0.0967586056853374 0.354302714508847 0.565299240951297 C 0.0 **** 0.0
32 C64226 0.0921595425713648 0.335375263902849 0.566247462313602 C 0.0 **** 0.0
33 C64231 0.11206005920804 0.35919642106243 0.576476175583531 C 0.0 **** 0.0
34 C64232 0.127621970809602 0.359589598642126 0.569002889937619 C 0.0 **** 0.0
35 C64233 0.130667151486802 0.356915978609762 0.550237362042105 C 0.0 **** 0.0
36 C64234 0.114846690635627 0.357378813675711 0.539589484237881 C 0.0 **** 0.0
37 C64240 0.143433417508897 0.364951248198338 0.57802477446328 C 0.0 **** 0.0
38 C64241 0.141740720690942 0.364838939800331 0.597386335606392 C 0.0 **** 0.0
39 C64242 0.123744457634429 0.36627852157772 0.603336685413548 C 0.0 **** 0.0
40 C64243 0.110095755116303 0.363496629556001 0.593145000171473 C 0.0 **** 0.0
41 C64249 0.0924438543843195 0.365234798769375 0.601195602241731 C 0.0 **** 0.0
42 C64250 0.0921756734235306 0.375963311390005 0.617142173862402 C 0.0 **** 0.0
43 C64251 0.105261756238873 0.368770592538654 0.629562014427964 C 0.0 **** 0.0
44 C64252 0.122987236891567 0.370180884069565 0.622029231655706 C 0.0 **** 0.0
45 C64258 0.0821677300347679 0.314191225104216 0.587607827150482 C 0.0 **** 0.0
46 C64259 0.0929613783814294 0.326985444897637 0.583607418080012 C 0.0 **** 0.0
47 C64263 0.0656188794846718 0.280452901245255 0.58979704939756 C 0.0 **** 0.0
48 C64264 0.0783202673776829 0.283314845250833 0.602049379336895 C 0.0 **** 0.0
49 S64265 0.0842180565476964 0.303850072829934 0.60695325839929 S 0.0 **** 0.0
50 C64270 0.0859757277271608 0.270318911305026 0.610513118819525 C 0.0 **** 0.0
51 C64271 0.0805872386682938 0.253549064857372 0.607481548468852 C 0.0 **** 0.0
52 C64272 0.0666840186277912 0.250623178537095 0.596505324754809 C 0.0 **** 0.0
53 C64273 0.0591946420192857 0.263981912095955 0.58782658685948 C 0.0 **** 0.0
54 C64279 0.0601135722337542 0.234372861725268 0.59519016024956 C 0.0 **** 0.0
55 C64280 0.0662861850502069 0.221431346571362 0.605566069063793 C 0.0 **** 0.0
56 C64281 0.0810126686239181 0.223617307573568 0.615588372728258 C 0.0 **** 0.0
57 C64282 0.0880250550177844 0.239916517368331 0.616085154735763 C 0.0 **** 0.0
58 C64288 0.0869358554219788 0.210182748676634 0.625581100033756 C 0.0 **** 0.0
59 C64289 0.0762262078148548 0.196618089544981 0.628526764635389 C 0.0 **** 0.0
60 C64290 0.0615488706342785 0.194266068681497 0.61861122942552 C 0.0 **** 0.0
61 C64291 0.0578382341988566 0.206113809688193 0.606038434541516 C 0.0 **** 0.0
62 C64297 0.0455669993201383 0.260896821675295 0.576743600052521 C 0.0 **** 0.0
63 C64298 0.0380847207335575 0.275075281899678 0.569046362799298 C 0.0 **** 0.0
64 C64302 0.0472405109193311 0.231013249499617 0.583546126564106 C 0.0 **** 0.0
65 C64303 0.0410540011405734 0.243815517912178 0.573022671533009 C 0.0 **** 0.0
66 C64307 0.0459835578602827 0.202288909929639 0.593556345520044 C 0.0 **** 0.0
67 C64308 0.041128902050275 0.214689505095968 0.582031868303258 C 0.0 **** 0.0
68 C64312 0.05167614694943 0.179379911655399 0.61955983982999 C 0.0 **** 0.0
69 C64313 0.0424736416777753 0.174427942122463 0.605207562436289 C 0.0 **** 0.0
70 C64314 0.0393791611569756 0.186014831864054 0.59243129072736 C 0.0 **** 0.0
71 O64319 0.0808502389485592 0.184687390913137 0.640579270618548 O 0.0 **** 0.0
72 C64320 0.0850162472417314 0.192876402654354 0.656277968502284 C 0.0 **** 0.0
73 C64321 0.0985646767227021 0.207136147104555 0.653977710840454 C 0.0 **** 0.0
74 C64322 0.103486342901734 0.208655700736245 0.635327353174448 C 0.0 **** 0.0
75 C64328 0.113567354089501 0.205004351205364 0.666177180179109 C 0.0 **** 0.0
76 C64329 0.10646901247328 0.203287399598094 0.684067846063339 C 0.0 **** 0.0
77 C64330 0.0973377714945184 0.186229138257241 0.686208189427067 C 0.0 **** 0.0
78 C64331 0.0901515084951746 0.179166162728711 0.669237796521252 C 0.0 **** 0.0
79 C64337 0.0757739680675622 0.166236630518425 0.672319867608243 C 0.0 **** 0.0
80 C64338 0.0787160844957189 0.157207571079921 0.689196150571079 C 0.0 **** 0.0
81 C64339 0.0786354442128533 0.169863696567879 0.704169552576598 C 0.0 **** 0.0
82 N64340 0.0847303669354692 0.186838221054261 0.699562989300249 N 0.0 **** 0.0
83 C64346 0.0311249061650557 0.239463836306439 0.558715734265918 C 0.0 **** 0.0
84 C64347 0.0255139556318905 0.222951318608767 0.556686154254776 C 0.0 **** 0.0
85 C64348 0.0302591759722059 0.210538568071861 0.568634760713699 C 0.0 **** 0.0
86 O64353 0.0150711898150893 0.218042095844155 0.543464655807776 O 0.0 **** 0.0
87 C64354 0.0146163190155659 0.229850536374937 0.529824623700208 C 0.0 **** 0.0
88 C64355 0.0128801342292253 0.247511735431518 0.536458793342093 C 0.0 **** 0.0
89 O64356 0.0269813021849141 0.251757139401332 0.546902887728157 O 0.0 **** 0.0
90 C64362 -0.00408901171392092 0.250535246786613 0.545838619590254 C 0.0 **** 0.0
91 C64363 -0.0181515394407379 0.238081918830862 0.540551713259395 C 0.0 **** 0.0
92 C64364 -0.0167397264724817 0.23381172078315 0.521695933826044 C 0.0 **** 0.0
93 C64365 0.000255337104249813 0.22494228374692 0.517613649480797 C 0.0 **** 0.0
94 C64371 0.0288338898410067 0.181339582434078 0.578755908988912 C 0.0 **** 0.0
95 C64372 0.0243938809538267 0.193848911521457 0.566881539925769 C 0.0 **** 0.0
96 C64376 0.0350476301392053 0.158424211119811 0.604777895061278 C 0.0 **** 0.0
97 C64377 0.026205036915458 0.152951821920096 0.590268327252578 C 0.0 **** 0.0
98 C64378 0.0229117469936953 0.164456658169344 0.577634594781757 C 0.0 **** 0.0
99 C64383 0.034360938370003 0.148488987222239 0.619517730693372 C 0.0 **** 0.0
100 C64384 0.0407100067515721 0.154616736537087 0.634638268242295 C 0.0 **** 0.0
101 C64385 0.0496089811877509 0.169578575172443 0.634337163195634 C 0.0 **** 0.0
102 O64390 0.0202071325312837 0.136597860322849 0.588852280476186 O 0.0 **** 0.0
103 C64391 0.0191145166609385 0.126692947082936 0.603244827146045 C 0.0 **** 0.0
104 C64392 0.0254532385471561 0.131907792204596 0.618483290506422 C 0.0 **** 0.0
105 C64397 0.0383684351295078 0.145777901008913 0.65145737132973 C 0.0 **** 0.0
106 C64398 0.031161464215213 0.127111873749613 0.649770492850008 C 0.0 **** 0.0
107 C64399 0.0239116583667743 0.122090212033982 0.632602854213191 C 0.0 **** 0.0
108 C64404 0.0181337786717731 0.123138246417412 0.663803770640381 C 0.0 **** 0.0
109 C64405 0.024384461365716 0.129673606101972 0.681007962848965 C 0.0 **** 0.0
110 C64406 0.0260156086133516 0.149176421410815 0.680857490695979 C 0.0 **** 0.0
111 C64407 0.0269986967011899 0.156568822072648 0.662877478261058 C 0.0 **** 0.0
112 C64413 0.0157966612317999 0.106917204879366 0.631491678008471 C 0.0 **** 0.0
113 C64414 0.0104568636635415 0.101085703510748 0.616071637621513 C 0.0 **** 0.0
114 C64415 0.0118581367470355 0.111045654663511 0.602048520648871 C 0.0 **** 0.0
115 C64420 0.0145155437382515 0.104188702413343 0.663182316662774 C 0.0 **** 0.0
116 C64422 0.0132600088662303 0.0966787154889975 0.647372997791836 C 0.0 **** 0.0
117 C64425 0.0740355402369385 0.377766702962582 0.624272232697084 C 0.0 **** 0.0
118 C64427 0.066441062962772 0.361323981151791 0.631225432694044 C 0.0 **** 0.0
119 C64429 0.0729231295628711 0.39156079107624 0.637816302814282 C 0.0 **** 0.0
120 O64431 0.115343896602294 0.221759240126277 0.632057164604886 O 0.0 **** 0.0
121 C64433 0.00604820504375452 0.105267581006074 0.586824213451294 C 0.0 **** 0.0
122 C64434 -0.000819186939043619 0.0895465294754918 0.585553682398327 C 0.0 **** 0.0
123 C64435 -0.00206315599619993 0.0794145386016125 0.599436724037632 C 0.0 **** 0.0
124 C64436 0.00373167948161206 0.0852288256751705 0.614665247792214 C 0.0 **** 0.0
125 C64442 0.00248635057829481 0.0741852968831806 0.629779909037961 C 0.0 **** 0.0
126 C64443 -0.00526271117494519 0.058836792046469 0.628105449133856 C 0.0 **** 0.0
127 C64444 -0.0113828074498433 0.0533161033560496 0.611311664777418 C 0.0 **** 0.0
128 C64445 -0.00937944218911772 0.0637132542649109 0.597608612064597 C 0.0 **** 0.0
129 C64451 -0.0194114937275488 0.0380710809135507 0.609844063562542 C 0.0 **** 0.0
130 C64452 -0.0225320820368797 0.0281361094810004 0.62370039753054 C 0.0 **** 0.0
131 C64453 -0.0177643256728427 0.0330491544671744 0.639593905066509 C 0.0 **** 0.0
132 C64454 -0.00820714306796254 0.0489742045865044 0.642005506925804 C 0.0 **** 0.0
133 C64460 -0.00357595836027424 0.0544178518874572 0.658259967136885 C 0.0 **** 0.0
134 C64461 0.00461174403198063 0.069997769976449 0.660030222675046 C 0.0 **** 0.0
135 C64462 0.00763865460366654 0.0800010568878231 0.645715329155671 C 0.0 **** 0.0
136 C64467 -0.00897213838615955 0.0455003470809908 0.672580711248595 C 0.0 **** 0.0
137 C64468 -0.0177889388160195 0.0287730173910197 0.669113291732716 C 0.0 **** 0.0
138 C64469 -0.0219403396655134 0.0234244942788812 0.653249655136787 C 0.0 **** 0.0
139 C64474 0.01143697914208 0.0943290168522744 0.677207858313292 C 0.0 **** 0.0
140 C64475 0.00675353874206904 0.0769994969491099 0.676211723765775 C 0.0 **** 0.0
141 C64480 -0.00651957426873796 0.0523593633255647 0.68862033895527 C 0.0 **** 0.0
142 C64481 0.00201752228027816 0.0676173371198261 0.690621032977128 C 0.0 **** 0.0
143 C64485 0.00500765542714279 0.0748994577516708 0.708225463228791 C 0.0 **** 0.0
144 C64486 0.00877807184818642 0.060749605293466 0.720872250447578 C 0.0 **** 0.0
145 C64487 -0.00601702622031701 0.0486695033667476 0.721010513358874 C 0.0 **** 0.0
146 C64488 -0.0132235976342151 0.0437324135188794 0.704133030476696 C 0.0 **** 0.0
147 O64494 -0.0246662378482658 0.0335317556137604 0.704116472979948 O 0.0 **** 0.0
148 H64496 0.0629606566757976 0.448013102237009 0.538509524716994 H 0.0 **** 0.0
149 H64498 0.0567577787932681 0.428102052589122 0.546456652245654 H 0.0 **** 0.0
150 H64500 0.0901139334600257 0.437675550381632 0.534898825509761 H 0.0 **** 0.0
151 H64502 0.0837499476734224 0.417029852593532 0.540014081295331 H 0.0 **** 0.0
152 H64504 0.079532085293518 0.433818757945349 0.505554449684485 H 0.0 **** 0.0
153 H64506 0.0680265484482338 0.408344611722288 0.495162308578809 H 0.0 **** 0.0
154 H64508 0.0457523473674661 0.408095227950473 0.525577500950615 H 0.0 **** 0.0
155 H64510 0.0414457838541742 0.416076515664755 0.505240683188468 H 0.0 **** 0.0
156 H64512 0.0675956994649627 0.391234404947424 0.52944758053417 H 0.0 **** 0.0
157 H64514 0.0960591056885901 0.388560017249869 0.528735154005196 H 0.0 **** 0.0
158 H64516 0.0959317853006254 0.39614908484218 0.491007740469709 H 0.0 **** 0.0
159 H64518 0.114081876077511 0.393530280030648 0.503703403606776 H 0.0 **** 0.0
160 H64520 0.10539132031417 0.424294378591088 0.498180212468096 H 0.0 **** 0.0
161 H64522 0.108974379492383 0.418854094372165 0.519408263527208 H 0.0 **** 0.0
162 H64524 0.0890978776321745 0.345317292739355 0.513589345637151 H 0.0 **** 0.0
163 H64526 0.0667461839185015 0.353525948745354 0.49696337342305 H 0.0 **** 0.0
164 H64528 0.047374315261236 0.380661815272333 0.508983562488969 H 0.0 **** 0.0
165 H64530 0.0627584653966814 0.380440977949845 0.492992653152525 H 0.0 **** 0.0
166 H64532 0.0760837399849309 0.368651593614986 0.541514495392537 H 0.0 **** 0.0
167 H64534 0.0336844078601625 0.311937709098805 0.518809600943509 H 0.0 **** 0.0
168 H64536 0.020998808867533 0.315014589646742 0.536927574867683 H 0.0 **** 0.0
169 H64538 0.0166782985630037 0.344681353470816 0.530860307085564 H 0.0 **** 0.0
170 H64540 0.013207854359878 0.333536675843808 0.511677395674442 H 0.0 **** 0.0
171 H64542 0.0322049299077047 0.355242192265444 0.501549904859245 H 0.0 **** 0.0
172 H64544 0.0857219180216783 0.361922112328956 0.569012571302139 H 0.0 **** 0.0
173 H64545 0.137301137009035 0.344860227039964 0.548187102055109 H 0.0 **** 0.0
174 H64547 0.139236569450631 0.366993981070865 0.545674591314101 H 0.0 **** 0.0
175 H64549 0.116631823750218 0.358166100062906 0.525956469446813 H 0.0 **** 0.0
176 H64551 0.154072172935486 0.356763681870678 0.574220744395552 H 0.0 **** 0.0
177 H64553 0.146667027800942 0.377827306946751 0.573736513019326 H 0.0 **** 0.0
178 H64555 0.149364103753125 0.375261170094881 0.602704411138663 H 0.0 **** 0.0
179 H64557 0.14707473090105 0.353008953803595 0.602493263968192 H 0.0 **** 0.0
180 H64559 0.0837351890741437 0.37100821286849 0.592078594638256 H 0.0 **** 0.0
181 H64561 0.0874881553933944 0.35257117460521 0.604083085451151 H 0.0 **** 0.0
182 H64563 0.0963506906479659 0.388865265438549 0.613680372274972 H 0.0 **** 0.0
183 H64565 0.102263521669373 0.355406813875786 0.632163921842012 H 0.0 **** 0.0
184 H64567 0.104905759762971 0.375376542389186 0.641813718405902 H 0.0 **** 0.0
185 H64569 0.131808178819515 0.361740946668184 0.628799290501938 H 0.0 **** 0.0
186 H64571 0.127715823281554 0.383189304176624 0.623845672156117 H 0.0 **** 0.0
187 H64573 0.102905746706689 0.330811709737648 0.592313737133589 H 0.0 **** 0.0
188 H64575 0.0959688922333308 0.272646959806352 0.619832451983213 H 0.0 **** 0.0
189 H64577 0.0985383679563118 0.242858060765756 0.624605114392098 H 0.0 **** 0.0
190 H64579 0.0266067587303357 0.27419349531272 0.561343630122345 H 0.0 **** 0.0
191 H64581 0.0733611497395098 0.198819716543555 0.66097872663364 H 0.0 **** 0.0
192 H64583 0.0928608517052996 0.219420614019236 0.657416629685116 H 0.0 **** 0.0
193 H64585 0.109467095576428 0.196609128999978 0.631373011896459 H 0.0 **** 0.0
194 H64587 0.121217786155522 0.193824293115821 0.662913574983699 H 0.0 **** 0.0
195 H64589 0.122028853421141 0.215983909400823 0.665326087409314 H 0.0 **** 0.0
196 H64591 0.0975793461977196 0.213790141776924 0.68622224454593 H 0.0 **** 0.0
197 H64593 0.116351645516495 0.204671166907546 0.693761662641648 H 0.0 **** 0.0
198 H64595 0.107079812505828 0.177146600242763 0.690437053394031 H 0.0 **** 0.0
199 H64597 0.100661921466478 0.17236330160222 0.663124355763143 H 0.0 **** 0.0
200 H64599 0.0635358663204481 0.172877031285032 0.673031080043285 H 0.0 **** 0.0
201 H64601 0.0749192111026052 0.157300556473279 0.661697583225906 H 0.0 **** 0.0
202 H64603 0.0911152962938015 0.150828346934411 0.688566702954367 H 0.0 **** 0.0
203 H64605 0.0693763606153335 0.147149755072517 0.691510352708469 H 0.0 **** 0.0
204 H64607 0.0866216072027266 0.165032629150934 0.714519658202889 H 0.0 **** 0.0
205 H64609 0.065810704725923 0.171015247058216 0.709432036609451 H 0.0 **** 0.0
206 H64611 0.0749680232249172 0.194025766320565 0.695630679829175 H 0.0 **** 0.0
207 H64613 0.0267972095394956 0.228926852856837 0.523200858283313 H 0.0 **** 0.0
208 H64615 0.0133104951393791 0.256041078378268 0.525432184051982 H 0.0 **** 0.0
209 H64617 -0.00186116464649637 0.249556204320199 0.559519402346577 H 0.0 **** 0.0
210 H64619 -0.00841965490880283 0.263609774061285 0.543659958361245 H 0.0 **** 0.0
211 H64621 -0.0306703581844003 0.243391760408089 0.543592835814085 H 0.0 **** 0.0
212 H64623 -0.0170186306505256 0.226301877671413 0.54793989673423 H 0.0 **** 0.0
213 H64625 -0.0176460296045394 0.245702655722559 0.514451983864568 H 0.0 **** 0.0
214 H64627 -0.027419418189581 0.225904594502854 0.517500503830021 H 0.0 **** 0.0
215 H64629 0.00371851981482203 0.227453594396322 0.504356882316934 H 0.0 **** 0.0
216 H64631 -0.00132003094113218 0.211142677877066 0.518622055266271 H 0.0 **** 0.0
217 H64633 0.0161160704359199 0.190485758286148 0.556249090652351 H 0.0 **** 0.0
218 H64635 0.0152629265613953 0.160638436962869 0.56667246129141 H 0.0 **** 0.0
219 H64637 0.0550826146480979 0.174002386229696 0.646254643139145 H 0.0 **** 0.0
220 H64639 0.0507789020274068 0.144597017183189 0.65769632641854 H 0.0 **** 0.0
221 H64641 0.0421193659656975 0.118741918588236 0.651968581814434 H 0.0 **** 0.0
222 H64643 0.00616211631859893 0.129786975196675 0.660913098639609 H 0.0 **** 0.0
223 H64645 0.0367548367382306 0.123871610898978 0.683744456536973 H 0.0 **** 0.0
224 H64647 0.0158339474375207 0.126050118916294 0.691368827836654 H 0.0 **** 0.0
225 H64649 0.0373185986380228 0.153024807388895 0.688019661474042 H 0.0 **** 0.0
226 H64651 0.0150929738707959 0.154734935157153 0.687429932223179 H 0.0 **** 0.0
227 H64653 0.0314096190314678 0.169763998142139 0.663527925873412 H 0.0 **** 0.0
228 H64655 0.0142155541467881 0.15706162905459 0.657315895351533 H 0.0 **** 0.0
229 H64657 0.0659045681927223 0.38191233774265 0.613675542157875 H 0.0 **** 0.0
230 H64659 0.053380239760069 0.36348649715903 0.635560637748816 H 0.0 **** 0.0
231 H64661 0.0737477632130799 0.356632325504799 0.642101489382795 H 0.0 **** 0.0
232 H64663 0.0660019322209422 0.351206787599859 0.621693249497115 H 0.0 **** 0.0
233 H64665 0.0777622388624047 0.403756390594712 0.633172394111242 H 0.0 **** 0.0
234 H64667 0.080266439316018 0.388071070754992 0.649104748576269 H 0.0 **** 0.0
235 H64669 0.0597226766983083 0.39353099210544 0.64178285410708 H 0.0 **** 0.0
236 H64671 0.125548565203713 0.218009902621703 0.637189902727771 H 0.0 **** 0.0
237 H64673 0.00684081259087877 0.112977859263093 0.57541082618969 H 0.0 **** 0.0
238 H64675 -0.00530784730463545 0.0852919414663741 0.573277229813208 H 0.0 **** 0.0
239 H64677 -0.0140213350642395 0.0597624707304767 0.585221445573013 H 0.0 **** 0.0
240 H64679 -0.0239739200553366 0.0336737771337853 0.597619157101805 H 0.0 **** 0.0
241 H64681 -0.0293727188877375 0.0163008184208775 0.621785459325987 H 0.0 **** 0.0
242 H64683 -0.0210536067099601 0.0204972562668448 0.679586317113429 H 0.0 **** 0.0
243 H64685 -0.028719043911135 0.0114976755675432 0.651841627763822 H 0.0 **** 0.0
244 H64687 0.0120408193694848 0.100495565796437 0.689584713114086 H 0.0 **** 0.0
245 H64689 0.0157010329298706 0.0837737425287121 0.708351663575238 H 0.0 **** 0.0
246 H64691 -0.00621652134417931 0.0820383002007657 0.712438235385628 H 0.0 **** 0.0
247 H64693 0.0108219481732122 0.0659393508308 0.733608250376319 H 0.0 **** 0.0
248 H64695 0.020536509554082 0.0542155325292999 0.717221068025014 H 0.0 **** 0.0
249 H64697 -0.017116324892577 0.0540566098487206 0.727489558416997 H 0.0 **** 0.0
250 H64699 -0.00367931351210052 0.0363410747665944 0.726976323888038 H 0.0 **** 0.0
@<TRIPOS>BOND
1 3 2 1
2 4 3 1
3 5 4 1
4 6 5 1
5 1 2 1
6 1 6 1
7 8 7 1
8 9 8 1
9 10 9 1
10 4 7 1
11 3 10 1
12 12 11 1
13 13 12 1
14 14 13 1
15 8 11 1
16 7 14 1
17 16 15 1
18 17 16 Partial double
19 18 17 1
20 13 15 1
21 12 18 1
22 20 19 Partial double
23 21 20 Partial double
24 22 21 Partial double
25 17 19 Partial double
26 16 22 Partial double
27 24 23 1
28 25 24 1
29 15 25 Double
30 22 23 1
31 27 26 1
32 28 27 Partial double
33 29 28 Partial double
34 21 26 1
35 20 29 Partial double
36 31 30 1
37 32 31 1
38 18 30 1
39 19 32 1
40 34 33 Double
41 35 34 1
42 36 35 1
43 31 33 1
44 30 36 Double
45 38 37 1
46 39 38 1
47 40 39 Double
48 34 37 1
49 33 40 1
50 42 41 1
51 43 42 1
52 44 43 1
53 40 41 1
54 39 44 1
55 46 45 Partial double
56 32 46 1
57 29 45 Partial double
58 48 47 Partial double
59 49 48 1
60 45 49 Partial double
61 28 47 Partial double
62 51 50 Partial double
63 52 51 Partial double
64 53 52 Partial double
65 48 50 Partial double
66 47 53 Partial double
67 55 54 Partial double
68 56 55 Partial double
69 57 56 Partial double
70 52 54 Partial double
71 51 57 Partial double
72 59 58 Partial double
73 60 59 Partial double
74 61 60 Partial double
75 56 58 Partial double
76 55 61 Partial double
77 63 62 Partial double
78 27 63 Partial double
79 53 62 Partial double
80 65 64 Partial double
81 62 65 Partial double
82 54 64 Partial double
83 67 66 Partial double
84 64 67 Partial double
85 61 66 Partial double
86 69 68 Partial double
87 70 69 Partial double
88 66 70 Partial double
89 60 68 Partial double
90 72 71 1
91 73 72 1
92 74 73 1
93 59 71 1
94 58 74 1
95 76 75 1
96 77 76 1
97 78 77 1
98 73 75 1
99 72 78 1
100 80 79 1
101 81 80 1
102 82 81 1
103 78 79 1
104 77 82 1
105 84 83 Partial double
106 85 84 Partial double
107 67 85 Partial double
108 65 83 Partial double
109 87 86 1
110 88 87 1
111 89 88 1
112 84 86 1
113 83 89 1
114 91 90 1
115 92 91 1
116 93 92 1
117 88 90 1
118 87 93 1
119 95 94 Partial double
120 85 95 Partial double
121 70 94 Partial double
122 97 96 Partial double
123 98 97 Partial double
124 94 98 Partial double
125 69 96 Partial double
126 100 99 Partial double
127 101 100 Partial double
128 68 101 Partial double
129 96 99 Partial double
130 103 102 1
131 104 103 Partial double
132 97 102 1
133 99 104 1
134 106 105 1
135 107 106 1
136 100 105 1
137 104 107 Partial double
138 109 108 1
139 110 109 1
140 111 110 1
141 106 108 1
142 105 111 1
143 113 112 1
144 114 113 1
145 103 114 Partial double
146 107 112 Partial double
147 108 115 1
148 112 116 Partial double
149 115 116 Partial double
150 42 117 1
151 117 118 1
152 117 119 1
153 74 120 1
154 122 121 1
155 123 122 Partial double
156 124 123 1
157 114 121 Partial double
158 113 124 Partial double
159 126 125 Partial double
160 127 126 1
161 128 127 Partial double
162 124 125 Partial double
163 123 128 Partial double
164 130 129 Partial double
165 131 130 1
166 132 131 1
167 127 129 Partial double
168 126 132 Partial double
169 134 133 Partial double
170 135 134 Partial double
171 125 135 Partial double
172 132 133 Partial double
173 137 136 Partial double
174 138 137 Partial double
175 131 138 Partial double
176 133 136 Partial double
177 140 139 Partial double
178 134 140 Partial double
179 116 135 Partial double
180 115 139 Partial double
181 142 141 Partial double
182 140 142 Partial double
183 136 141 Partial double
184 144 143 1
185 145 144 1
186 146 145 1
187 142 143 1
188 141 146 1
189 146 147 Double
190 1 148 1
191 1 149 1
192 2 150 1
193 2 151 1
194 3 152 1
195 4 153 1
196 5 154 1
197 5 155 1
198 7 156 1
199 8 157 1
200 9 158 1
201 9 159 1
202 10 160 1
203 10 161 1
204 12 162 1
205 13 163 1
206 14 164 1
207 14 165 1
208 18 166 1
209 23 167 1
210 23 168 1
211 24 169 1
212 24 170 1
213 25 171 1
214 35 173 1
215 35 174 1
216 36 175 1
217 37 176 1
218 37 177 1
219 38 178 1
220 38 179 1
221 41 180 1
222 41 181 1
223 42 182 1
224 43 183 1
225 43 184 1
226 44 185 1
227 44 186 1
228 46 187 1
229 50 188 1
230 57 189 1
231 63 190 1
232 72 191 1
233 73 192 1
234 74 193 1
235 75 194 1
236 75 195 1
237 76 196 1
238 76 197 1
239 77 198 1
240 78 199 1
241 79 200 1
242 79 201 1
243 80 202 1
244 80 203 1
245 81 204 1
246 81 205 1
247 82 206 1
248 87 207 1
249 88 208 1
250 90 209 1
251 90 210 1
252 91 211 1
253 91 212 1
254 92 213 1
255 92 214 1
256 93 215 1
257 93 216 1
258 95 217 1
259 98 218 1
260 101 219 1
261 105 220 1
262 106 221 1
263 108 222 1
264 109 223 1
265 109 224 1
266 110 225 1
267 110 226 1
268 111 227 1
269 111 228 1
270 117 229 1
271 118 230 1
272 118 231 1
273 118 232 1
274 119 233 1
275 119 234 1
276 119 235 1
277 120 236 1
278 121 237 1
279 122 238 1
280 128 239 1
281 129 240 1
282 130 241 1
283 137 242 1
284 138 243 1
285 139 244 1
286 143 245 1
287 143 246 1
288 144 247 1
289 144 248 1
290 145 249 1
291 145 250 1
292 31 172 1
@<TRIPOS>MOLECULE
Sketch 4
250 292
SMALL
USER_CHARGES


@<TRIPOS>ATOM
1 C64702 0.0382544986201782 0.20340143658519 0.684940151518914 C 0.0 **** 0.0
2 C64703 0.029688925559471 0.212936566076636 0.670067552450979 C 0.0 **** 0.0
3 C64704 0.0427391613419111 0.221079778962547 0.658092175831815 C 0.0 **** 0.0
4 C64705 0.0558535894439343 0.232064326565426 0.66806964182178 C 0.0 **** 0.0
5 C64706 0.0590031530743089 0.224002371332734 0.685753552812016 C 0.0 **** 0.0
6 O64707 0.0559566594777253 0.206304295400059 0.685773555113355 O 0.0 **** 0.0
7 C64714 0.0507802797516238 0.251005681959095 0.669432176327402 C 0.0 **** 0.0
8 C64715 0.0460034226467501 0.259007627127568 0.651843265442536 C 0.0 **** 0.0
9 C64716 0.0443456309319013 0.245752829922084 0.637824719247455 C 0.0 **** 0.0
10 C64717 0.0340252195919731 0.230497078089728 0.643417101072568 C 0.0 **** 0.0
11 O64723 0.0573489238693485 0.271381068033857 0.645326337680879 O 0.0 **** 0.0
12 C64724 0.0619699668960733 0.283985778741806 0.657389574316725 C 0.0 **** 0.0
13 C64725 0.0732790216176116 0.275476485331982 0.670636675662483 C 0.0 **** 0.0
14 C64726 0.0634738392550307 0.261663772805303 0.680333717554182 C 0.0 **** 0.0
15 C64732 0.0805905952150073 0.288902260834049 0.682213362373621 C 0.0 **** 0.0
16 C64733 0.0688448457228608 0.302941471801346 0.687717850513641 C 0.0 **** 0.0
17 C64734 0.0533637492309825 0.305126284819393 0.679689231842589 C 0.0 **** 0.0
18 C64735 0.0470968193414381 0.292666326728859 0.666295640012045 C 0.0 **** 0.0
19 C64741 0.0429879427114567 0.318394927486294 0.684652828770542 C 0.0 **** 0.0
20 C64742 0.047757591447804 0.328375253031713 0.698252512355788 C 0.0 **** 0.0
21 C64743 0.0633316007102932 0.326435118454976 0.706110758463699 C 0.0 **** 0.0
22 C64744 0.0740898019153616 0.313677125505635 0.700624357951172 C 0.0 **** 0.0
23 C64750 0.0909400580026081 0.310899461179803 0.709358812990006 C 0.0 **** 0.0
24 C64751 0.104224057182449 0.303751353678405 0.696884806929784 C 0.0 **** 0.0
25 C64752 0.0971045904668398 0.289416643505494 0.686435069332476 C 0.0 **** 0.0
26 O64757 0.0683227339003121 0.336880129729268 0.719409537064718 O 0.0 **** 0.0
27 C64758 0.0584962430017509 0.350750291172641 0.723670143470276 C 0.0 **** 0.0
28 C64759 0.0420089417684766 0.352691573999668 0.718087937963614 C 0.0 **** 0.0
29 C64760 0.0353043667180364 0.340769986816801 0.704998558778585 C 0.0 **** 0.0
30 C64766 0.0341014384601248 0.301053861658524 0.655258451539766 C 0.0 **** 0.0
31 C64767 0.0193521386082727 0.306916368105995 0.665988281787969 C 0.0 **** 0.0
32 C64768 0.0267125837842472 0.322439186014741 0.675236059863337 C 0.0 **** 0.0
33 C64773 0.00310883670825194 0.311034622742175 0.655804994789465 C 0.0 **** 0.0
34 C64774 0.00510986232736805 0.315287785961083 0.639166149400324 C 0.0 **** 0.0
35 C64775 0.0217758888951631 0.314461658150533 0.629620887556952 C 0.0 **** 0.0
36 C64776 0.0353925585819269 0.304668471258549 0.638752997993748 C 0.0 **** 0.0
37 C64782 -0.00924175642891399 0.319498927557656 0.627526473719387 C 0.0 **** 0.0
38 C64783 -0.0259623622495679 0.322950111412248 0.636764604232656 C 0.0 **** 0.0
39 C64784 -0.026593456415656 0.315680597580458 0.654273566584509 C 0.0 **** 0.0
40 C64785 -0.0127012466572712 0.310109889610523 0.662890502929263 C 0.0 **** 0.0
41 C64791 -0.0155968875461894 0.303005068123523 0.680864430894288 C 0.0 **** 0.0
42 C64792 -0.0338080343599646 0.297702179614986 0.684297484730037 C 0.0 **** 0.0
43 C64793 -0.0454892756267007 0.312614029193724 0.679956446988482 C 0.0 **** 0.0
44 C64794 -0.0444202246540281 0.316449899990183 0.661105794361382 C 0.0 **** 0.0
45 C64800 0.0191757769676228 0.341496058233118 0.699172746593333 C 0.0 **** 0.0
46 C64801 0.0141192511638722 0.332874111778445 0.685241554741028 C 0.0 **** 0.0
47 C64805 0.0327290227089962 0.367418286740248 0.722602485803698 C 0.0 **** 0.0
48 C64806 0.0166160644106789 0.37045558885046 0.715736928824011 C 0.0 **** 0.0
49 S64807 0.00431510648695076 0.353541767601785 0.709835759339163 S 0.0 **** 0.0
50 C64812 0.0112862808502944 0.386390613214435 0.711598813755659 C 0.0 **** 0.0
51 C64813 0.0214235324804696 0.400219182658761 0.716447299369571 C 0.0 **** 0.0
52 C64814 0.0357280663946984 0.397491174664521 0.726943699958172 C 0.0 **** 0.0
53 C64815 0.0412614774940269 0.38096398245215 0.73021136023697 C 0.0 **** 0.0
54 C64821 0.0453234112912782 0.411351125458438 0.73197835712218 C 0.0 **** 0.0
55 C64822 0.0411672809563578 0.427641431101553 0.726377031476529 C 0.0 **** 0.0
56 C64823 0.028546443960187 0.430188772452125 0.713912457322758 C 0.0 **** 0.0
57 C64824 0.0181538786418845 0.41639298456705 0.710026983476223 C 0.0 **** 0.0
58 C64830 0.0266826740252605 0.446075093302985 0.706253376724836 C 0.0 **** 0.0
59 C64831 0.0339322563536643 0.459961222449404 0.714046415603202 C 0.0 **** 0.0
60 C64832 0.0453608474419253 0.457877873861775 0.727651068173567 C 0.0 **** 0.0
61 C64833 0.0500634191079846 0.441500903563367 0.732401355456659 C 0.0 **** 0.0
62 C64839 0.0571732947588332 0.378390888425135 0.737611857512185 C 0.0 **** 0.0
63 C64840 0.0655245071846909 0.362954508711215 0.733932191684572 C 0.0 **** 0.0
64 C64844 0.059765412670304 0.408786740593263 0.741755937304428 C 0.0 **** 0.0
65 C64845 0.0652769126698082 0.392331464501826 0.745565507192952 C 0.0 **** 0.0
66 C64849 0.0639413809117118 0.439030206414441 0.742996191117565 C 0.0 **** 0.0
67 C64850 0.0689667223586177 0.422646543103127 0.74718527502664 C 0.0 **** 0.0
68 C64854 0.0525630642606062 0.471807369685631 0.736364358963589 C 0.0 **** 0.0
69 C64855 0.0670396159189855 0.469216903355656 0.746328290400401 C 0.0 **** 0.0
70 C64856 0.0728072101097604 0.452927922144356 0.749262216907046 C 0.0 **** 0.0
71 O64861 0.0302509714140965 0.475966316308219 0.707732841223169 O 0.0 **** 0.0
72 C64862 0.0123916215935001 0.478647808304494 0.705414718056641 C 0.0 **** 0.0
73 C64863 0.00351357886560226 0.463780506751039 0.695837554677768 C 0.0 **** 0.0
74 C64864 0.0165977982124528 0.450619750355571 0.690491714014189 C 0.0 **** 0.0
75 C64870 -0.00763171925673069 0.469873057202483 0.681041039813084 C 0.0 **** 0.0
76 C64871 -0.0190643062245455 0.484119942202302 0.687285804858191 C 0.0 **** 0.0
77 C64872 -0.00861558327563893 0.500008242609758 0.69147148512756 C 0.0 **** 0.0
78 C64873 0.00998064689167478 0.495992556794235 0.696694899771808 C 0.0 **** 0.0
79 C64879 0.0178021829133918 0.510581077196702 0.707142300801417 C 0.0 **** 0.0
80 C64880 0.00964300637630748 0.5274000821099 0.702084638991099 C 0.0 **** 0.0
81 C64881 -0.00961817251570428 0.527444114475095 0.705560106980416 C 0.0 **** 0.0
82 N64882 -0.0174495668604931 0.510665344455238 0.703537873683806 N 0.0 **** 0.0
83 C64888 0.0790799352159671 0.389841895300323 0.756700337734134 C 0.0 **** 0.0
84 C64889 0.0887030235411181 0.403594706750363 0.76163157210336 C 0.0 **** 0.0
85 C64890 0.0835280965337349 0.420051282017873 0.756966403229654 C 0.0 **** 0.0
86 O64895 0.10303569208492 0.402144339875956 0.771533653260863 O 0.0 **** 0.0
87 C64896 0.109303762964606 0.385351379368702 0.773298960945395 C 0.0 **** 0.0
88 C64897 0.0954290063148217 0.37247843500128 0.775147488361257 C 0.0 **** 0.0
89 O64898 0.0829070210974202 0.373632136280309 0.762180917194984 O 0.0 **** 0.0
90 C64904 0.0872846007796211 0.37249144024865 0.793000361625265 C 0.0 **** 0.0
91 C64905 0.0913035174501813 0.388468424614367 0.803369258559697 C 0.0 **** 0.0
92 C64906 0.110573939296093 0.391744202788905 0.804648751191871 C 0.0 **** 0.0
93 C64907 0.120459433969041 0.385004332119219 0.789141769036931 C 0.0 **** 0.0
94 C64913 0.0872316142143651 0.450556774348511 0.759598316559943 C 0.0 **** 0.0
95 C64914 0.0926975893553676 0.433994952586345 0.762963789218502 C 0.0 **** 0.0
96 C64918 0.0742643175387796 0.482917934253664 0.754923911886226 C 0.0 **** 0.0
97 C64919 0.0889436890962969 0.480694599228604 0.764881008723694 C 0.0 **** 0.0
98 C64920 0.095314340908886 0.464698775423935 0.766969721595725 C 0.0 **** 0.0
99 C64925 0.0660992336627497 0.498725706064342 0.755289779732379 C 0.0 **** 0.0
100 C64926 0.050888960726164 0.500974582904973 0.746971466279257 C 0.0 **** 0.0
101 C64927 0.0447836644716168 0.487816405490213 0.737390467230331 C 0.0 **** 0.0
102 O64932 0.0969266549306581 0.494071459110206 0.772763038932384 O 0.0 **** 0.0
103 C64933 0.0884118696961087 0.509226718085152 0.774433071734848 C 0.0 **** 0.0
104 C64934 0.0735927254892324 0.512314558142888 0.766040191008648 C 0.0 **** 0.0
105 C64939 0.0404948791842983 0.517056852883706 0.747708747414923 C 0.0 **** 0.0
106 C64940 0.0499064281613206 0.532131266140388 0.757059183461953 C 0.0 **** 0.0
107 C64941 0.0656873239866335 0.527607910156944 0.767315599423748 C 0.0 **** 0.0
108 C64946 0.0374559497723628 0.542473009780724 0.767991892196128 C 0.0 **** 0.0
109 C64947 0.0207945276441913 0.545809210446856 0.758561889055796 C 0.0 **** 0.0
110 C64948 0.0114941419790178 0.529004278639913 0.754809225720946 C 0.0 **** 0.0
111 C64949 0.0232788684719631 0.51353427601341 0.755986649485441 C 0.0 **** 0.0
112 C64955 0.0722918512740034 0.539619983880291 0.777795085574355 C 0.0 **** 0.0
113 C64956 0.0874090280429619 0.536803217820162 0.785864278075374 C 0.0 **** 0.0
114 C64957 0.0954260924263933 0.521623998417255 0.784241535906285 C 0.0 **** 0.0
115 C64962 0.0466470443883691 0.55828900017583 0.773932964643039 C 0.0 **** 0.0
116 C64964 0.0631763820114073 0.556271167977725 0.779469951268879 C 0.0 **** 0.0
117 C64967 -0.0361529441103319 0.290585340696674 0.702397178833978 C 0.0 **** 0.0
118 C64969 -0.0324382382437451 0.303390945261797 0.716490234211913 C 0.0 **** 0.0
119 C64971 -0.0538494697293227 0.283094565720582 0.705060126865658 C 0.0 **** 0.0
120 O64973 0.00932512772939913 0.436694078653686 0.681791342671901 O 0.0 **** 0.0
121 C64975 0.110561697239952 0.519002401748538 0.79223804983843 C 0.0 **** 0.0
122 C64976 0.11778326706869 0.531527639557889 0.801604873949215 C 0.0 **** 0.0
123 C64977 0.109986242341438 0.546845654879405 0.803142241701993 C 0.0 **** 0.0
124 C64978 0.0948062783194636 0.549353027207176 0.795225150605892 C 0.0 **** 0.0
125 C64984 0.086687532584114 0.566209249835326 0.796278866120821 C 0.0 **** 0.0
126 C64985 0.0943707049358039 0.578650533200484 0.805455989592174 C 0.0 **** 0.0
127 C64986 0.110572450510292 0.575062754748107 0.81405309575087 C 0.0 **** 0.0
128 C64987 0.117717678970007 0.55932637812143 0.812572867135066 C 0.0 **** 0.0
129 C64993 0.118150396312841 0.58763148747069 0.823229079419193 C 0.0 **** 0.0
130 C64994 0.111148368361259 0.603483537579441 0.824383118324315 C 0.0 **** 0.0
131 C64995 0.0962541363339536 0.60745136433065 0.816450162684685 C 0.0 **** 0.0
132 C64996 0.0871974565965359 0.594365522630035 0.806634744643617 C 0.0 **** 0.0
133 C65002 0.0719256988499583 0.598145365192933 0.79839963099198 C 0.0 **** 0.0
134 C65003 0.0639346463427205 0.585338550944301 0.789283043515445 C 0.0 **** 0.0
135 C65004 0.0713749857562485 0.569344888207831 0.788025157535277 C 0.0 **** 0.0
136 C65009 0.0650936359883027 0.614479540796563 0.798553198606737 C 0.0 **** 0.0
137 C65010 0.0748890681182933 0.627165949474981 0.809287596779107 C 0.0 **** 0.0
138 C65011 0.0896199978919039 0.623330688382891 0.817500444694772 C 0.0 **** 0.0
139 C65016 0.039486718904328 0.574155500897875 0.775014778152818 C 0.0 **** 0.0
140 C65017 0.0483728489215402 0.588389174491255 0.781459637631179 C 0.0 **** 0.0
141 C65022 0.050788580476614 0.61807034506217 0.788744908967203 C 0.0 **** 0.0
142 C65023 0.042282348667736 0.605109586828606 0.780291298232386 C 0.0 **** 0.0
143 C65027 0.026152190802104 0.608218071118849 0.770148990153818 C 0.0 **** 0.0
144 C65028 0.0261882917010721 0.625614971828932 0.761926513359294 C 0.0 **** 0.0
145 C65029 0.0294286553020428 0.638777743903097 0.775308906100425 C 0.0 **** 0.0
146 C65030 0.0443237581227403 0.63581937088368 0.786787394215041 C 0.0 **** 0.0
147 O65036 0.0503697917358422 0.64820396695284 0.793486489728194 O 0.0 **** 0.0
148 H65038 0.0367707222297459 0.189677770665544 0.683471574782228 H 0.0 **** 0.0
149 H65040 0.0321476828900374 0.20682133800918 0.697020471978921 H 0.0 **** 0.0
150 H65042 0.0213333203808446 0.204439189063269 0.662815983148434 H 0.0 **** 0.0
151 H65044 0.0213744181082477 0.223019951758315 0.674959365162824 H 0.0 **** 0.0
152 H65046 0.0499986572531255 0.21056459601989 0.652476130614561 H 0.0 **** 0.0
153 H65048 0.0677488967882156 0.231620621121421 0.660774679749136 H 0.0 **** 0.0
154 H65050 0.0511511929084343 0.230282799163795 0.695450101808399 H 0.0 **** 0.0
155 H65052 0.072198376457939 0.225701503528665 0.689730820331346 H 0.0 **** 0.0
156 H65054 0.0388576218983068 0.250678493236551 0.676735937167742 H 0.0 **** 0.0
157 H65056 0.0334059187579854 0.264872912584199 0.653377377278187 H 0.0 **** 0.0
158 H65058 0.0571765706400939 0.241723564970567 0.634252594111577 H 0.0 **** 0.0
159 H65060 0.0388051510593068 0.251813549793891 0.6265551206218 H 0.0 **** 0.0
160 H65062 0.0319465615892511 0.221670596972243 0.632857372154829 H 0.0 **** 0.0
161 H65064 0.0214123332103122 0.234959836166397 0.647355647023475 H 0.0 **** 0.0
162 H65066 0.0693706417467007 0.293275371150623 0.650124299370575 H 0.0 **** 0.0
163 H65068 0.0837178888609026 0.269352238176139 0.663746796557635 H 0.0 **** 0.0
164 H65070 0.0561337101100618 0.267651221984598 0.690563457906279 H 0.0 **** 0.0
165 H65072 0.0725978298176754 0.253424097360675 0.686851484844307 H 0.0 **** 0.0
166 H65074 0.0400532560316772 0.282721985309936 0.673181937584879 H 0.0 **** 0.0
167 H65076 0.0957060282274715 0.322765355215424 0.71484890315322 H 0.0 **** 0.0
168 H65078 0.0892436909614518 0.302015762086129 0.719983190480762 H 0.0 **** 0.0
169 H65080 0.115517444877738 0.299491426639652 0.703878936822677 H 0.0 **** 0.0
170 H65082 0.108488853478913 0.31388505168715 0.688321842301434 H 0.0 **** 0.0
171 H65084 0.106204177460412 0.280133767354814 0.681869243307593 H 0.0 **** 0.0
172 H65086 0.0165646835696189 0.29695279491873 0.675305910479277 H 0.0 **** 0.0
173 H65087 0.0262665148456935 0.327379740788027 0.626869189507098 H 0.0 **** 0.0
174 H65089 0.0194849326103672 0.30826628894543 0.617282100093625 H 0.0 **** 0.0
175 H65091 0.0465436900628742 0.300967994898155 0.631538626670514 H 0.0 **** 0.0
176 H65093 -0.00577649405507132 0.330625561048975 0.619865935500706 H 0.0 **** 0.0
177 H65095 -0.0109245958960653 0.308855926946646 0.618659506872366 H 0.0 **** 0.0
178 H65097 -0.0365133804082992 0.317721273163131 0.62930645009297 H 0.0 **** 0.0
179 H65099 -0.0281097825272735 0.336699057139534 0.637729249461056 H 0.0 **** 0.0
180 H65101 -0.0073268342380966 0.292026118363257 0.683028756384646 H 0.0 **** 0.0
181 H65103 -0.011923002237678 0.312626731017949 0.690191163383616 H 0.0 **** 0.0
182 H65105 -0.0369894610183153 0.287271683644659 0.675529591270837 H 0.0 **** 0.0
183 H65107 -0.0416403600457987 0.323806623940247 0.687327774840241 H 0.0 **** 0.0
184 H65109 -0.0587325170558153 0.309991783498815 0.683358162535497 H 0.0 **** 0.0
185 H65111 -0.0498344321506071 0.329046240832341 0.658421926928634 H 0.0 **** 0.0
186 H65113 -0.0521641260112794 0.307207518553403 0.654065487769924 H 0.0 **** 0.0
187 H65115 0.00121141602496318 0.333939912775287 0.680631725482339 H 0.0 **** 0.0
188 H65117 -0.000193075658628461 0.388478268314588 0.704124255082285 H 0.0 **** 0.0
189 H65119 0.00734821134724404 0.417615827562402 0.701474952370466 H 0.0 **** 0.0
190 H65121 0.0786909617911061 0.360840678196191 0.73776436253535 H 0.0 **** 0.0
191 H65123 0.00673000639133887 0.479475041532951 0.718122977369709 H 0.0 **** 0.0
192 H65125 -0.00518877183235481 0.457287588475708 0.704650522205292 H 0.0 **** 0.0
193 H65127 0.0254757062203883 0.456770765880946 0.681658444411118 H 0.0 **** 0.0
194 H65129 0.000204774112715062 0.474350155666289 0.670406610459504 H 0.0 **** 0.0
195 H65131 -0.0152066087227059 0.459227149428649 0.676207488107787 H 0.0 **** 0.0
196 H65133 -0.0257150634367659 0.47965475140959 0.698704789138968 H 0.0 **** 0.0
197 H65135 -0.0289996476581267 0.487249042441797 0.678027399345617 H 0.0 **** 0.0
198 H65137 -0.00778442294330543 0.507388801729045 0.679638019914174 H 0.0 **** 0.0
199 H65139 0.0172113086555355 0.494994785730051 0.684796308736775 H 0.0 **** 0.0
200 H65141 0.015199939163256 0.508503797779844 0.720657349799893 H 0.0 **** 0.0
201 H65143 0.0316345748485735 0.510834920752774 0.705664868129354 H 0.0 **** 0.0
202 H65145 0.0118079261278117 0.529288699127997 0.688450488069754 H 0.0 **** 0.0
203 H65147 0.0155629821185845 0.538254173964537 0.708477421277796 H 0.0 **** 0.0
204 H65149 -0.0159807442059831 0.536339350714728 0.696915226612115 H 0.0 **** 0.0
205 H65151 -0.0122296120374301 0.532098908212022 0.7184220833657 H 0.0 **** 0.0
206 H65153 -0.0183004278528432 0.504711463379696 0.714681288582746 H 0.0 **** 0.0
207 H65155 0.116664781492189 0.382295014641546 0.761875926525903 H 0.0 **** 0.0
208 H65157 0.101461640982592 0.360022989605577 0.773401996936458 H 0.0 **** 0.0
209 H65159 0.0735641819946829 0.370942797328933 0.791524679503591 H 0.0 **** 0.0
210 H65161 0.0916034830214289 0.361436344208177 0.800314427001541 H 0.0 **** 0.0
211 H65163 0.0856352326550249 0.387610066333553 0.816070994425645 H 0.0 **** 0.0
212 H65165 0.0852085453438475 0.399417200436601 0.797251574833119 H 0.0 **** 0.0
213 H65167 0.115675435935484 0.38589140152045 0.816175350306099 H 0.0 **** 0.0
214 H65169 0.112758333620771 0.405442204284525 0.806013289716406 H 0.0 **** 0.0
215 H65171 0.12455240325512 0.37191899636921 0.791602997989507 H 0.0 **** 0.0
216 H65173 0.132048275472741 0.392502057119651 0.787219085387572 H 0.0 **** 0.0
217 H65175 0.103825633980905 0.432032388766636 0.771026107679242 H 0.0 **** 0.0
218 H65177 0.106560930607566 0.462701426499399 0.774890917195965 H 0.0 **** 0.0
219 H65179 0.0326573857000734 0.489951408945703 0.731131025029221 H 0.0 **** 0.0
220 H65181 0.0381423617218825 0.521424173157428 0.734661810756234 H 0.0 **** 0.0
221 H65183 0.0542952023644223 0.540612440562793 0.746879654145911 H 0.0 **** 0.0
222 H65185 0.034264638506697 0.535069619688279 0.779412816349924 H 0.0 **** 0.0
223 H65187 0.023621213210595 0.552472727400695 0.746654237548424 H 0.0 **** 0.0
224 H65189 0.0123221086209893 0.554049966439516 0.76591491239366 H 0.0 **** 0.0
225 H65191 0.00578794426186306 0.529520533287376 0.742126017259762 H 0.0 **** 0.0
226 H65193 0.000890127684851623 0.527367918942418 0.763704742812139 H 0.0 **** 0.0
227 H65195 0.0168772090870002 0.502494915092888 0.750402669175849 H 0.0 **** 0.0
228 H65197 0.0254576092717268 0.510341895559004 0.769377458836746 H 0.0 **** 0.0
229 H65199 -0.0270496400124012 0.280063122186836 0.703837058550775 H 0.0 **** 0.0
230 H65201 -0.0346524081536994 0.297690959630804 0.729004996451863 H 0.0 **** 0.0
231 H65203 -0.0407006705675622 0.314517785485445 0.715407234420531 H 0.0 **** 0.0
232 H65205 -0.0192759703730781 0.307875410504006 0.716293161093253 H 0.0 **** 0.0
233 H65207 -0.0570088712755213 0.27373237576472 0.695261524781778 H 0.0 **** 0.0
234 H65209 -0.0635983208105476 0.293018243905572 0.704792980062559 H 0.0 **** 0.0
235 H65211 -0.0547099187911075 0.276721754895165 0.717410733849628 H 0.0 **** 0.0
236 H65213 0.00883204367220699 0.440045171961494 0.670261762507497 H 0.0 **** 0.0
237 H65215 0.117241019586528 0.50696791980903 0.791207490793262 H 0.0 **** 0.0
238 H65217 0.129913036594246 0.529059296980705 0.80770672058613 H 0.0 **** 0.0
239 H65219 0.129685762582707 0.556662109732266 0.818897257688617 H 0.0 **** 0.0
240 H65221 0.130051143607218 0.58535908708558 0.829802421871055 H 0.0 **** 0.0
241 H65223 0.117891011546743 0.612989500302158 0.831802443622172 H 0.0 **** 0.0
242 H65225 0.0701441459635691 0.639956403903265 0.810828353349991 H 0.0 **** 0.0
243 H65227 0.0958760768640814 0.63322724638568 0.824807573513961 H 0.0 **** 0.0
244 H65229 0.0266865749192131 0.575749523327168 0.769986186295106 H 0.0 **** 0.0
245 H65231 0.0247468588443775 0.598859076299057 0.759958194312102 H 0.0 **** 0.0
246 H65233 0.0149712211647696 0.606857362955099 0.778375917585371 H 0.0 **** 0.0
247 H65235 0.0141841540897273 0.628214328121317 0.755394166710117 H 0.0 **** 0.0
248 H65237 0.0360997712983451 0.625957924177221 0.752193656077264 H 0.0 **** 0.0
249 H65239 0.0185373682592455 0.639969042126448 0.783883180361512 H 0.0 **** 0.0
250 H65241 0.0322111414208685 0.651446790543418 0.77039946992712 H 0.0 **** 0.0
@<TRIPOS>BOND
1 3 2 1
2 4 3 1
3 5 4 1
4 6 5 1
5 1 2 1
6 1 6 1
7 8 7 1
8 9 8 1
9 10 9 1
10 4 7 1
11 3 10 1
12 12 11 1
13 13 12 1
14 14 13 1
15 8 11 1
16 7 14 1
17 16 15 1
18 17 16 Partial double
19 18 17 1
20 13 15 1
21 12 18 1
22 20 19 Partial double
23 21 20 Partial double
24 22 21 Partial double
25 17 19 Partial double
26 16 22 Partial double
27 24 23 1
28 25 24 1
29 15 25 Double
30 22 23 1
31 27 26 1
32 28 27 Partial double
33 29 28 Partial double
34 21 26 1
35 20 29 Partial double
36 31 30 1
37 32 31 1
38 18 30 1
39 19 32 1
40 34 33 Double
41 35 34 1
42 36 35 1
43 31 33 1
44 30 36 Double
45 38 37 1
46 39 38 1
47 40 39 Double
48 34 37 1
49 33 40 1
50 42 41 1
51 43 42 1
52 44 43 1
53 40 41 1
54 39 44 1
55 46 45 Partial double
56 32 46 1
57 29 45 Partial double
58 48 47 Partial double
59 49 48 1
60 45 49 Partial double
61 28 47 Partial double
62 51 50 Partial double
63 52 51 Partial double
64 53 52 Partial double
65 48 50 Partial double
66 47 53 Partial double
67 55 54 Partial double
68 56 55 Partial double
69 57 56 Partial double
70 52 54 Partial double
71 51 57 Partial double
72 59 58 Partial double
73 60 59 Partial double
74 61 60 Partial double
75 56 58 Partial double
76 55 61 Partial double
77 63 62 Partial double
78 27 63 Partial double
79 53 62 Partial double
80 65 64 Partial double
81 62 65 Partial double
82 54 64 Partial double
83 67 66 Partial double
84 64 67 Partial double
85 61 66 Partial double
86 69 68 Partial double
87 70 69 Partial double
88 66 70 Partial double
89 60 68 Partial double
90 72 71 1
91 73 72 1
92 74 73 1
93 59 71 1
94 58 74 1
95 76 75 1
96 77 76 1
97 78 77 1
98 73 75 1
99 72 78 1
100 80 79 1
101 81 80 1
102 82 81 1
103 78 79 1
104 77 82 1
105 84 83 Partial double
106 85 84 Partial double
107 67 85 Partial double
108 65 83 Partial double
109 87 86 1
110 88 87 1
111 89 88 1
112 84 86 1
113 83 89 1
114 91 90 1
115 92 91 1
116 93 92 1
117 88 90 1
118 87 93 1
119 95 94 Partial double
120 85 95 Partial double
121 70 94 Partial double
122 97 96 Partial double
123 98 97 Partial double
124 94 98 Partial double
125 69 96 Partial double
126 100 99 Partial double
127 101 100 Partial double
128 68 101 Partial double
129 96 99 Partial double
130 103 102 1
131 104 103 Partial double
132 97 102 1
133 99 104 1
134 106 105 1
135 107 106 1
136 100 105 1
137 104 107 Partial double
138 109 108 1
139 110 109 1
140 111 110 1
141 106 108 1
142 105 111 1
143 113 112 1
144 114 113 1
145 103 114 Partial double
146 107 112 Partial double
147 108 115 1
148 112 116 Partial double
149 115 116 Partial double
150 42 117 1
151 117 118 1
152 117 119 1
153 74 120 1
154 122 121 1
155 123 122 Partial double
156 124 123 1
157 114 121 Partial double
158 113 124 Partial double
159 126 125 Partial double
160 127 126 1
161 128 127 Partial double
162 124 125 Partial double
163 123 128 Partial double
164 130 129 Partial double
165 131 130 1
166 132 131 1
167 127 129 Partial double
168 126 132 Partial double
169 134 133 Partial double
170 135 134 Partial double
171 125 135 Partial double
172 132 133 Partial double
173 137 136 Partial double
174 138 137 Partial double
175 131 138 Partial double
176 133 136 Partial double
177 140 139 Partial double
178 134 140 Partial double
179 116 135 Partial double
180 115 139 Partial double
181 142 141 Partial double
182 140 142 Partial double
183 136 141 Partial double
184 144 143 1
185 145 144 1
186 146 145 1
187 142 143 1
188 141 146 1
189 146 147 Double
190 1 148 1
191 1 149 1
192 2 150 1
193 2 151 1
194 3 152 1
195 4 153 1
196 5 154 1
197 5 155 1
198 7 156 1
199 8 157 1
200 9 158 1
201 9 159 1
202 10 160 1
203 10 161 1
204 12 162 1
205 13 163 1
206 14 164 1
207 14 165 1
208 18 166 1
209 23 167 1
210 23 168 1
211 24 169 1
212 24 170 1
213 25 171 1
214 35 173 1
215 35 174 1
216 36 175 1
217 37 176 1
218 37 177 1
219 38 178 1
220 38 179 1
221 41 180 1
222 41 181 1
223 42 182 1
224 43 183 1
225 43 184 1
226 44 185 1
227 44 186 1
228 46 187 1
229 50 188 1
230 57 189 1
231 63 190 1
232 72 191 1
233 73 192 1
234 74 193 1
235 75 194 1
236 75 195 1
237 76 196 1
238 76 197 1
239 77 198 1
240 78 199 1
241 79 200 1
242 79 201 1
243 80 202 1
244 80 203 1
245 81 204 1
246 81 205 1
247 82 206 1
248 87 207 1
249 88 208 1
250 90 209 1
251 90 210 1
252 91 211 1
253 91 212 1
254 92 213 1
255 92 214 1
256 93 215 1
257 93 216 1
258 95 217 1
259 98 218 1
260 101 219 1
261 105 220 1
262 106 221 1
263 108 222 1
264 109 223 1
265 109 224 1
266 110 225 1
267 110 226 1
268 111 227 1
269 111 228 1
270 117 229 1
271 118 230 1
272 118 231 1
273 118 232 1
274 119 233 1
275 119 234 1
276 119 235 1
277 120 236 1
278 121 237 1
279 122 238 1
280 128 239 1
281 129 240 1
282 130 241 1
283 137 242 1
284 138 243 1
285 139 244 1
286 143 245 1
287 143 246 1
288 144 247 1
289 144 248 1
290 145 249 1
291 145 250 1
292 31 172 1
@<TRIPOS>MOLECULE
Sketch 4
250 292
SMALL
USER_CHARGES


@<TRIPOS>ATOM
1 C65244 0.392645272664971 0.679453130445836 0.0405386268627396 C 0.0 **** 0.0
2 C65245 0.388844326214549 0.69772753347235 0.046537851566943 C 0.0 **** 0.0
3 C65246 0.391454695683728 0.699796454078173 0.0657439380115558 C 0.0 **** 0.0
4 C65247 0.381357364262817 0.686074923391979 0.075878076736799 C 0.0 **** 0.0
5 C65248 0.377341078823534 0.670870335823476 0.064293986883979 C 0.0 **** 0.0
6 O65249 0.391304169976345 0.667255639303034 0.0536605783057219 O 0.0 **** 0.0
7 C65256 0.365592354012215 0.693647022953784 0.0845536824670558 C 0.0 **** 0.0
8 C65257 0.370522254969983 0.707736877189816 0.0973287933318647 C 0.0 **** 0.0
9 C65258 0.385549489119844 0.718402949915752 0.0910149471768291 C 0.0 **** 0.0
10 C65259 0.387457590340176 0.717896014728109 0.0717728251118754 C 0.0 **** 0.0
11 O65265 0.375774947591358 0.701326115281562 0.113387222109488 O 0.0 **** 0.0
12 C65266 0.364270986625422 0.689993433907162 0.121591084887881 C 0.0 **** 0.0
13 C65267 0.361492752127657 0.67466370030273 0.110015448754913 C 0.0 **** 0.0
14 C65268 0.354088787773449 0.680448170198897 0.0931349965495246 C 0.0 **** 0.0
15 C65274 0.350780368050065 0.661616966810782 0.118856616344953 C 0.0 **** 0.0
16 C65275 0.335530853019792 0.668178434754312 0.128100618452462 C 0.0 **** 0.0
17 C65276 0.333857003373497 0.685324778525127 0.131378139333962 C 0.0 **** 0.0
18 C65277 0.34736378161169 0.698243425230271 0.126938157876689 C 0.0 **** 0.0
19 C65283 0.31939081943561 0.691194210511077 0.139472662099953 C 0.0 **** 0.0
20 C65284 0.307395986061317 0.679665231196343 0.144937537478214 C 0.0 **** 0.0
21 C65285 0.309423768107752 0.662440521820484 0.142205709208271 C 0.0 **** 0.0
22 C65286 0.323469481900404 0.656640279900303 0.133454415034277 C 0.0 **** 0.0
23 C65292 0.325199933622918 0.637949781676431 0.129513359883236 C 0.0 **** 0.0
24 C65293 0.34397853093904 0.63242704774269 0.128680942456694 C 0.0 **** 0.0
25 C65294 0.354723089547039 0.645038614212692 0.119192441247299 C 0.0 **** 0.0
26 O65299 0.297706318652858 0.650783397312892 0.148057102936034 O 0.0 **** 0.0
27 C65300 0.282110042478647 0.656472753842834 0.153349384733432 C 0.0 **** 0.0
28 C65301 0.278753211010915 0.673207522503696 0.157129741397765 C 0.0 **** 0.0
29 C65302 0.292414336212719 0.686008290300209 0.154482419359496 C 0.0 **** 0.0
30 C65308 0.347815996107801 0.709576013274893 0.142286675154616 C 0.0 **** 0.0
31 C65309 0.332643422814846 0.721358122420341 0.142175967501053 C 0.0 **** 0.0
32 C65310 0.316502642666574 0.709997628571462 0.142581111331514 C 0.0 **** 0.0
33 C65315 0.333200683553271 0.735585508932104 0.155759823828969 C 0.0 **** 0.0
34 C65316 0.343645092601694 0.733249612749855 0.169320424090862 C 0.0 **** 0.0
35 C65317 0.355418907078192 0.718270966017768 0.171598925470188 C 0.0 **** 0.0
36 C65318 0.357725533288225 0.707679575271609 0.155908872003521 C 0.0 **** 0.0
37 C65324 0.34642361461531 0.7461629865273 0.182913786439498 C 0.0 **** 0.0
38 C65325 0.333250813930292 0.760396126327575 0.183026034016007 C 0.0 **** 0.0
39 C65326 0.323977462069454 0.762193506223679 0.166559222912885 C 0.0 **** 0.0
40 C65327 0.324091360936837 0.750254100466517 0.154057252620564 C 0.0 **** 0.0
41 C65333 0.313344373297 0.753976904217184 0.138184108820534 C 0.0 **** 0.0
42 C65334 0.310060716802442 0.772792005930538 0.135463076145654 C 0.0 **** 0.0
43 C65335 0.301812666434337 0.779918610811683 0.151556672723533 C 0.0 **** 0.0
44 C65336 0.314055810199975 0.778516912513976 0.166369251238793 C 0.0 **** 0.0
45 C65342 0.291259898071652 0.702208896220363 0.159988214484544 C 0.0 **** 0.0
46 C65343 0.302853070103013 0.714111094966687 0.155554962852533 C 0.0 **** 0.0
47 C65347 0.262396484347557 0.677872364035824 0.162565797466727 C 0.0 **** 0.0
48 C65348 0.258702224598648 0.694385837819889 0.168308756754836 C 0.0 **** 0.0
49 S65349 0.274998713649024 0.708038931593165 0.173611134822115 S 0.0 **** 0.0
50 C65354 0.24247615132667 0.699799020920542 0.170802209941143 C 0.0 **** 0.0
51 C65355 0.229011578292537 0.688148834367284 0.169222248278368 C 0.0 **** 0.0
52 C65356 0.232561251371076 0.671041778038042 0.165150529956078 C 0.0 **** 0.0
53 C65357 0.24908091860749 0.666056557685271 0.161589674857355 C 0.0 **** 0.0
54 C65363 0.219563323117519 0.659180737619052 0.166077756483041 C 0.0 **** 0.0
55 C65364 0.203270207128949 0.664077335444371 0.17113264828659 C 0.0 **** 0.0
56 C65365 0.199841120266929 0.680800721661568 0.176724172788233 C 0.0 **** 0.0
57 C65366 0.212563671246979 0.692839075732311 0.173951467131654 C 0.0 **** 0.0
58 C65372 0.184580224824822 0.684407778597887 0.185250321704005 C 0.0 **** 0.0
59 C65373 0.171516122360351 0.67283451651058 0.184015034799967 C 0.0 **** 0.0
60 C65374 0.174111344747351 0.656877518700113 0.176333742907759 C 0.0 **** 0.0
61 C65375 0.190517376781151 0.652084552681764 0.171985126319687 C 0.0 **** 0.0
62 C65381 0.25251915663878 0.649067758506754 0.157551465180143 C 0.0 **** 0.0
63 C65382 0.269504758056848 0.644648662921938 0.154840747024732 C 0.0 **** 0.0
64 C65386 0.223067117133408 0.642178514371537 0.162782405149074 C 0.0 **** 0.0
65 C65387 0.238956101924749 0.637216027788109 0.156734417807059 C 0.0 **** 0.0
66 C65391 0.194305194472537 0.634969304053936 0.169884052558523 C 0.0 **** 0.0
67 C65392 0.210662250251395 0.630116074720984 0.165450575803198 C 0.0 **** 0.0
68 C65396 0.16084919882991 0.644927958752438 0.174740406225208 C 0.0 **** 0.0
69 C65397 0.165007997438485 0.627658327215651 0.173852441409802 C 0.0 **** 0.0
70 C65398 0.181722893357369 0.62280258696868 0.172001683029763 C 0.0 **** 0.0
71 O65403 0.155954780434466 0.676383155184772 0.191350656824253 O 0.0 **** 0.0
72 C65404 0.149432956676608 0.693082230527043 0.188553622016148 C 0.0 **** 0.0
73 C65405 0.163317589721095 0.707097047669321 0.189205889575949 C 0.0 **** 0.0
74 C65406 0.180033154403837 0.699933285465709 0.195791580348518 C 0.0 **** 0.0
75 C65412 0.157485672579685 0.722850335618757 0.199215035427829 C 0.0 **** 0.0
76 C65413 0.139115567600469 0.727054922836187 0.195005961179952 C 0.0 **** 0.0
77 C65414 0.126922056783527 0.713546801631857 0.201710836014131 C 0.0 **** 0.0
78 C65415 0.134966662949666 0.695553364923929 0.201524224882669 C 0.0 **** 0.0
79 C65421 0.121356204995475 0.681638194155863 0.19966476733732 C 0.0 **** 0.0
80 C65422 0.105113556251405 0.687280560018237 0.208547213036552 C 0.0 **** 0.0
81 C65423 0.0977920325568064 0.703482432083534 0.200290905710418 C 0.0 **** 0.0
82 N65424 0.110817279255542 0.714539576539247 0.192890294937217 N 0.0 **** 0.0
83 C65430 0.241391727330227 0.62047714392989 0.150884749377237 C 0.0 **** 0.0
84 C65431 0.229880032336119 0.608036326381222 0.155439001199283 C 0.0 **** 0.0
85 C65432 0.214466512469526 0.612939435140821 0.16303232549828 C 0.0 **** 0.0
86 O65437 0.232636526520866 0.591003524022785 0.152236839008153 O 0.0 **** 0.0
87 C65438 0.250255310029112 0.58762535847135 0.150137993073961 C 0.0 **** 0.0
88 C65439 0.257083930745719 0.599049361545741 0.136648037205769 C 0.0 **** 0.0
89 O65440 0.255692881831751 0.616365901733467 0.141555316248344 O 0.0 **** 0.0
90 C65446 0.248551075051649 0.595840761740135 0.119325505939758 C 0.0 **** 0.0
91 C65447 0.244153880169093 0.577022633092551 0.116291723946827 C 0.0 **** 0.0
92 C65448 0.255579596292509 0.565503554882233 0.126879340924245 C 0.0 **** 0.0
93 C65449 0.252968381794815 0.568783976062791 0.145960835184746 C 0.0 **** 0.0
94 C65455 0.185593144445518 0.605377887600698 0.170628376206502 C 0.0 **** 0.0
95 C65456 0.202229569054825 0.600623318953694 0.166540607606364 C 0.0 **** 0.0
96 C65460 0.152067787995161 0.615596026952923 0.173572646702699 C 0.0 **** 0.0
97 C65461 0.155875373631395 0.598152710349503 0.172742819900808 C 0.0 **** 0.0
98 C65462 0.172477878617013 0.593271279750946 0.171560441131794 C 0.0 **** 0.0
99 C65467 0.135040936793383 0.620621208823108 0.173371245478684 C 0.0 **** 0.0
100 C65468 0.130780012149098 0.637567186395115 0.172654539727445 C 0.0 **** 0.0
101 C65469 0.143602533595694 0.649314157814321 0.17325023119937 C 0.0 **** 0.0
102 O65474 0.143471815301596 0.585889063511865 0.172315175217663 O 0.0 **** 0.0
103 C65475 0.126824394174509 0.590564683677156 0.174669958534625 C 0.0 **** 0.0
104 C65476 0.121896245432398 0.607135715915334 0.17443118920872 C 0.0 **** 0.0
105 C65481 0.112708526421275 0.643831331754242 0.171758254908271 C 0.0 **** 0.0
106 C65482 0.0992509145058085 0.629811807893677 0.176721053598528 C 0.0 **** 0.0
107 C65483 0.10529203424424 0.611475902930481 0.176217935302779 C 0.0 **** 0.0
108 C65488 0.0830187353811636 0.63147722826871 0.16603536670753 C 0.0 **** 0.0
109 C65489 0.0777844184307328 0.650080624874797 0.164083716459702 C 0.0 **** 0.0
110 C65490 0.0914860487477944 0.660198432867598 0.154385190085941 C 0.0 **** 0.0
111 C65491 0.108910159723638 0.651474475238569 0.15435273378351 C 0.0 **** 0.0
112 C65497 0.0934742270752881 0.599060121103095 0.178036321446466 C 0.0 **** 0.0
113 C65498 0.0984515046924849 0.582504213837456 0.179344251671718 C 0.0 **** 0.0
114 C65499 0.115046739718679 0.578225079598681 0.177442839902519 C 0.0 **** 0.0
115 C65504 0.0696794299927205 0.619860507505927 0.173786983861622 C 0.0 **** 0.0
116 C65506 0.0750885408254954 0.604012667659748 0.179057450127424 C 0.0 **** 0.0
117 C65509 0.30007823751282 0.776336668463838 0.119006098746205 C 0.0 **** 0.0
118 C65511 0.281914186982951 0.769544517987086 0.119113503520902 C 0.0 **** 0.0
119 C65513 0.299837849336483 0.795186405391114 0.114492700751255 C 0.0 **** 0.0
120 O65515 0.19239196222655 0.712992888482843 0.196156420250956 O 0.0 **** 0.0
121 C65517 0.119817982308751 0.561616366805566 0.178405687723053 C 0.0 **** 0.0
122 C65518 0.108170562113028 0.549362907407139 0.181662446226509 C 0.0 **** 0.0
123 C65519 0.0915889036852265 0.553556857293518 0.183844679565667 C 0.0 **** 0.0
124 C65520 0.0868198183983528 0.570158573358641 0.182608748120251 C 0.0 **** 0.0
125 C65526 0.0687780944073637 0.574728098017241 0.184867650417463 C 0.0 **** 0.0
126 C65527 0.0573213542867138 0.562033773218049 0.187133367033423 C 0.0 **** 0.0
127 C65528 0.0632836288050973 0.544375884418823 0.188607096383606 C 0.0 **** 0.0
128 C65529 0.0801675662105483 0.540819892311673 0.187111202424155 C 0.0 **** 0.0
129 C65535 0.0517523683921047 0.531800004751317 0.191289148075413 C 0.0 **** 0.0
130 C65536 0.0347312349437015 0.535111670379483 0.191680498749899 C 0.0 **** 0.0
131 C65537 0.0285959397280094 0.551202075365125 0.189872879650645 C 0.0 **** 0.0
132 C65538 0.0404115772066246 0.565562134708441 0.187921438442875 C 0.0 **** 0.0
133 C65544 0.0343881718940464 0.582203150723918 0.186393630885039 C 0.0 **** 0.0
134 C65545 0.0461102125876298 0.595280472181548 0.18441012962933 C 0.0 **** 0.0
135 C65546 0.0634032722533643 0.591556922753337 0.183539487707364 C 0.0 **** 0.0
136 C65551 0.0170202409089185 0.585673679484918 0.186143102463743 C 0.0 **** 0.0
137 C65552 0.005664362402313 0.570230793894571 0.188272164658784 C 0.0 **** 0.0
138 C65553 0.0116429929502822 0.554126290341866 0.18994028138448 C 0.0 **** 0.0
139 C65558 0.0526725599444977 0.623542957604153 0.174960046849126 C 0.0 **** 0.0
140 C65559 0.0404591796815498 0.611719108022523 0.180925216477063 C 0.0 **** 0.0
141 C65564 0.0114178817005781 0.602357364410419 0.184400877939415 C 0.0 **** 0.0
142 C65565 0.0230289017599035 0.615418711536661 0.181975513497672 C 0.0 **** 0.0
143 C65569 0.0171551043705445 0.633616964005973 0.179365521974723 C 0.0 **** 0.0
144 C65570 0.00171067291261624 0.637574931085303 0.190279389510916 C 0.0 **** 0.0
145 C65571 -0.0120688961997409 0.625108906558841 0.18597044472399 C 0.0 **** 0.0
146 C65572 -0.00710509138235606 0.606766566907119 0.185159466433582 C 0.0 **** 0.0
147 O65578 -0.0185562626359008 0.596586513668036 0.185088142755907 O 0.0 **** 0.0
148 H65580 0.405724702389263 0.678391744239279 0.0360046586988322 H 0.0 **** 0.0
149 H65582 0.384374628216919 0.675955732261614 0.0298682026997725 H 0.0 **** 0.0
150 H65584 0.396656483821082 0.70689018671963 0.03953182133419 H 0.0 **** 0.0
151 H65586 0.375596185350464 0.701025064730628 0.0436261770834465 H 0.0 **** 0.0
152 H65588 0.404991922389799 0.697401541908642 0.0682154146387303 H 0.0 **** 0.0
153 H65590 0.389834448157471 0.681425793883566 0.0859602936435142 H 0.0 **** 0.0
154 H65592 0.365811483379683 0.673219763023619 0.0567966828149488 H 0.0 **** 0.0
155 H65594 0.375018870972363 0.659387702676844 0.0717649415304906 H 0.0 **** 0.0
156 H65596 0.358226912588062 0.699677914135495 0.0743269961241459 H 0.0 **** 0.0
157 H65598 0.35944123646596 0.716034399032092 0.0989423080461507 H 0.0 **** 0.0
158 H65600 0.397078024818037 0.713057576985988 0.0967416897620564 H 0.0 **** 0.0
159 H65602 0.384675410726172 0.731526095212489 0.0956024019890143 H 0.0 **** 0.0
160 H65604 0.397421044292937 0.726629141379681 0.0675358001315673 H 0.0 **** 0.0
161 H65606 0.375599290902914 0.722348455440228 0.0659178634165265 H 0.0 **** 0.0
162 H65608 0.371299080682429 0.685655735528976 0.132777590855495 H 0.0 **** 0.0
163 H65610 0.373990105652152 0.669003593325946 0.107577363951172 H 0.0 **** 0.0
164 H65612 0.341644948284275 0.686278109235068 0.0954430876932258 H 0.0 **** 0.0
165 H65614 0.351603520872978 0.669646399585324 0.0847009108525702 H 0.0 **** 0.0
166 H65616 0.342814345745709 0.705778880791429 0.116105609760403 H 0.0 **** 0.0
167 H65618 0.318610453399718 0.630240874012317 0.139037076264147 H 0.0 **** 0.0
168 H65620 0.319053437786943 0.635198419005628 0.117291065501546 H 0.0 **** 0.0
169 H65622 0.344864737050564 0.619901910756367 0.122578583512584 H 0.0 **** 0.0
170 H65624 0.349037799310863 0.630942118621042 0.141581451956854 H 0.0 **** 0.0
171 H65626 0.366034731619431 0.639968235862896 0.113175694571102 H 0.0 **** 0.0
172 H65628 0.333030756785425 0.727623675036095 0.129727468926717 H 0.0 **** 0.0
173 H65629 0.350745492016402 0.710267256395661 0.182035522865262 H 0.0 **** 0.0
174 H65631 0.367956642633124 0.723069312984274 0.175528217566505 H 0.0 **** 0.0
175 H65633 0.367466217024677 0.697951575104059 0.156373232982316 H 0.0 **** 0.0
176 H65635 0.346608755485436 0.739907846647326 0.195389770748275 H 0.0 **** 0.0
177 H65637 0.359096733452632 0.751652361827374 0.181003144856826 H 0.0 **** 0.0
178 H65639 0.339525922981956 0.772440120273392 0.186265581800887 H 0.0 **** 0.0
179 H65641 0.323853490457497 0.7579868804583 0.193053231344583 H 0.0 **** 0.0
180 H65643 0.3195157340876 0.748842656261146 0.126844569202839 H 0.0 **** 0.0
181 H65645 0.301199352074902 0.747278858579985 0.139418583519659 H 0.0 **** 0.0
182 H65647 0.322461317738733 0.77910744839447 0.133970362794315 H 0.0 **** 0.0
183 H65649 0.290193943210022 0.772730733236472 0.154348353733162 H 0.0 **** 0.0
184 H65651 0.29796507194261 0.793217463439633 0.150036578157582 H 0.0 **** 0.0
185 H65653 0.307201035236131 0.779822763061949 0.178455973814185 H 0.0 **** 0.0
186 H65655 0.323183975052072 0.789070059936435 0.165807932942251 H 0.0 **** 0.0
187 H65657 0.302089043701232 0.726847570234863 0.16069400644413 H 0.0 **** 0.0
188 H65659 0.239820832046059 0.712695206253419 0.175180967372551 H 0.0 **** 0.0
189 H65661 0.210640107882645 0.706239595690234 0.176816849551683 H 0.0 **** 0.0
190 H65663 0.273719193935181 0.631625398438143 0.152841696440016 H 0.0 **** 0.0
191 H65665 0.143804163063173 0.693253687270028 0.175798346648809 H 0.0 **** 0.0
192 H65667 0.165813478601476 0.711507189332314 0.176178474753691 H 0.0 **** 0.0
193 H65669 0.177924546756033 0.695810306873772 0.208977489015053 H 0.0 **** 0.0
194 H65671 0.158743958322729 0.720699018926865 0.212935047022177 H 0.0 **** 0.0
195 H65673 0.165735582098691 0.733626851555623 0.196034073718463 H 0.0 **** 0.0
196 H65675 0.137956818172279 0.727518554024717 0.181179388193071 H 0.0 **** 0.0
197 H65677 0.135441655384366 0.739634121221844 0.199749200822683 H 0.0 **** 0.0
198 H65679 0.124290680594052 0.716650066818105 0.215069002854156 H 0.0 **** 0.0
199 H65681 0.141064787642504 0.693840797253499 0.213971208561297 H 0.0 **** 0.0
200 H65683 0.118546335142904 0.679775845691449 0.186137688219091 H 0.0 **** 0.0
201 H65685 0.126036230639699 0.669507391327231 0.204550024504613 H 0.0 **** 0.0
202 H65687 0.108211129158856 0.689813946956268 0.221921816954297 H 0.0 **** 0.0
203 H65689 0.095412132206165 0.677298782034179 0.208707446335621 H 0.0 **** 0.0
204 H65691 0.0906738836821283 0.710859083032926 0.209733817238403 H 0.0 **** 0.0
205 H65693 0.0886268124030635 0.700105291680187 0.190358324664741 H 0.0 **** 0.0
206 H65695 0.112701875205743 0.711738310443423 0.180637748017748 H 0.0 **** 0.0
207 H65697 0.256632068644577 0.590698749190723 0.16215209422778 H 0.0 **** 0.0
208 H65699 0.270710054189881 0.596349635780959 0.135373838508353 H 0.0 **** 0.0
209 H65701 0.237003298293835 0.603575836406703 0.11857763358479 H 0.0 **** 0.0
210 H65703 0.256899813857983 0.600498412338367 0.109202121879174 H 0.0 **** 0.0
211 H65705 0.245056944947671 0.573938747589252 0.102734618640657 H 0.0 **** 0.0
212 H65707 0.230900574370053 0.574680569728827 0.119944535129662 H 0.0 **** 0.0
213 H65709 0.268854032830696 0.568019764777653 0.123424629486758 H 0.0 **** 0.0
214 H65711 0.253387230331965 0.552074422283334 0.124024287532837 H 0.0 **** 0.0
215 H65713 0.263678078178952 0.563430406117687 0.153065624819436 H 0.0 **** 0.0
216 H65715 0.241654666226139 0.561941766021564 0.150297719395252 H 0.0 **** 0.0
217 H65717 0.205123374363052 0.587198064509558 0.164497379242567 H 0.0 **** 0.0
218 H65719 0.175616018182957 0.579794756271504 0.170318351074545 H 0.0 **** 0.0
219 H65721 0.139903321393829 0.662657717840998 0.172533559155857 H 0.0 **** 0.0
220 H65723 0.111134580743608 0.654002480227617 0.181152739662515 H 0.0 **** 0.0
221 H65725 0.0957672662639376 0.632485947005909 0.189974779008958 H 0.0 **** 0.0
222 H65727 0.0858501835632343 0.626615191551182 0.153231029811828 H 0.0 **** 0.0
223 H65729 0.0759817552199298 0.655557819058033 0.176770946003967 H 0.0 **** 0.0
224 H65731 0.065652137668393 0.651400605274699 0.157394665337626 H 0.0 **** 0.0
225 H65733 0.0928452741844305 0.672767644732795 0.160210603931178 H 0.0 **** 0.0
226 H65735 0.0873750837179997 0.662348747864203 0.141262998728929 H 0.0 **** 0.0
227 H65737 0.118662600283486 0.660704130483077 0.150586036416572 H 0.0 **** 0.0
228 H65739 0.109198680596815 0.641351928535515 0.144769447573533 H 0.0 **** 0.0
229 H65741 0.306908467497085 0.769887009363697 0.10867468255471 H 0.0 **** 0.0
230 H65743 0.27573696324187 0.771975687454728 0.106871592928439 H 0.0 **** 0.0
231 H65745 0.274316974101089 0.775767606520551 0.128975328899439 H 0.0 **** 0.0
232 H65747 0.28139656820316 0.755828327100777 0.121364915606478 H 0.0 **** 0.0
233 H65749 0.312673785649611 0.800545512196286 0.114091376975452 H 0.0 **** 0.0
234 H65751 0.292449549037798 0.802437608479534 0.123772001737435 H 0.0 **** 0.0
235 H65753 0.294038973742547 0.797221180863688 0.101998355655464 H 0.0 **** 0.0
236 H65755 0.201786076589322 0.708536476591408 0.202170678064045 H 0.0 **** 0.0
237 H65757 0.132991730504204 0.55783363372488 0.176800704020375 H 0.0 **** 0.0
238 H65759 0.112383501146134 0.53623969342964 0.182486204775498 H 0.0 **** 0.0
239 H65761 0.0845459837430258 0.527761219213843 0.188235485238849 H 0.0 **** 0.0
240 H65763 0.0559283458584945 0.518786666771921 0.193029520494974 H 0.0 **** 0.0
241 H65765 0.0261021342786801 0.524484138795749 0.193503069043004 H 0.0 **** 0.0
242 H65767 -0.00796386815219318 0.571698129414998 0.188612649849108 H 0.0 **** 0.0
243 H65769 0.00261056967806567 0.543793551459241 0.191332899909653 H 0.0 **** 0.0
244 H65771 0.048599483983034 0.636125611727339 0.170844302622257 H 0.0 **** 0.0
245 H65773 0.0271447565466864 0.642691090164728 0.182688128999797 H 0.0 **** 0.0
246 H65775 0.0140928914323668 0.63574499206619 0.165900227771343 H 0.0 **** 0.0
247 H65777 -0.00280704310877223 0.650572249837984 0.188142981372177 H 0.0 **** 0.0
248 H65779 0.00518349469876147 0.636659133958344 0.203756181201541 H 0.0 **** 0.0
249 H65781 -0.0175301726221615 0.62759204771369 0.173389924301084 H 0.0 **** 0.0
250 H65783 -0.0227521579368404 0.624740710826241 0.194841070793338 H 0.0 **** 0.0
@<TRIPOS>BOND
1 3 2 1
2 4 3 1
3 5 4 1
4 6 5 1
5 1 2 1
6 1 6 1
7 8 7 1
8 9 8 1
9 10 9 1
10 4 7 1
11 3 10 1
12 12 11 1
13 13 12 1
14 14 13 1
15 8 11 1
16 7 14 1
17 16 15 1
18 17 16 Partial double
19 18 17 1
20 13 15 1
21 12 18 1
22 20 19 Partial double
23 21 20 Partial double
24 22 21 Partial double
25 17 19 Partial double
26 16 22 Partial double
27 24 23 1
28 25 24 1
29 15 25 Double
30 22 23 1
31 27 26 1
32 28 27 Partial double
33 29 28 Partial double
34 21 26 1
35 20 29 Partial double
36 31 30 1
37 32 31 1
38 18 30 1
39 19 32 1
40 34 33 Double
41 35 34 1
42 36 35 1
43 31 33 1
44 30 36 Double
45 38 37 1
46 39 38 1
47 40 39 Double
48 34 37 1
49 33 40 1
50 42 41 1
51 43 42 1
52 44 43 1
53 40 41 1
54 39 44 1
55 46 45 Partial double
56 32 46 1
57 29 45 Partial double
58 48 47 Partial double
59 49 48 1
60 45 49 Partial double
61 28 47 Partial double
62 51 50 Partial double
63 52 51 Partial double
64 53 52 Partial double
65 48 50 Partial double
66 47 53 Partial double
67 55 54 Partial double
68 56 55 Partial double
69 57 56 Partial double
70 52 54 Partial double
71 51 57 Partial double
72 59 58 Partial double
73 60 59 Partial double
74 61 60 Partial double
75 56 58 Partial double
76 55 61 Partial double
77 63 62 Partial double
78 27 63 Partial double
79 53 62 Partial double
80 65 64 Partial double
81 62 65 Partial double
82 54 64 Partial double
83 67 66 Partial double
84 64 67 Partial double
85 61 66 Partial double
86 69 68 Partial double
87 70 69 Partial double
88 66 70 Partial double
89 60 68 Partial double
90 72 71 1
91 73 72 1
92 74 73 1
93 59 71 1
94 58 74 1
95 76 75 1
96 77 76 1
97 78 77 1
98 73 75 1
99 72 78 1
100 80 79 1
101 81 80 1
102 82 81 1
103 78 79 1
104 77 82 1
105 84 83 Partial double
106 85 84 Partial double
107 67 85 Partial double
108 65 83 Partial double
109 87 86 1
110 88 87 1
111 89 88 1
112 84 86 1
113 83 89 1
114 91 90 1
115 92 91 1
116 93 92 1
117 88 90 1
118 87 93 1
119 95 94 Partial double
120 85 95 Partial double
121 70 94 Partial double
122 97 96 Partial double
123 98 97 Partial double
124 94 98 Partial double
125 69 96 Partial double
126 100 99 Partial double
127 101 100 Partial double
128 68 101 Partial double
129 96 99 Partial double
130 103 102 1
131 104 103 Partial double
132 97 102 1
133 99 104 1
134 106 105 1
135 107 106 1
136 100 105 1
137 104 107 Partial double
138 109 108 1
139 110 109 1
140 111 110 1
141 106 108 1
142 105 111 1
143 113 112 1
144 114 113 1
145 103 114 Partial double
146 107 112 Partial double
147 108 115 1
148 112 116 Partial double
149 115 116 Partial double
150 42 117 1
151 117 118 1
152 117 119 1
153 74 120 1
154 122 121 1
155 123 122 Partial double
156 124 123 1
157 114 121 Partial double
158 113 124 Partial double
159 126 125 Partial double
160 127 126 1
161 128 127 Partial double
162 124 125 Partial double
163 123 128 Partial double
164 130 129 Partial double
165 131 130 1
166 132 131 1
167 127 129 Partial double
168 126 132 Partial double
169 134 133 Partial double
170 135 134 Partial double
171 125 135 Partial double
172 132 133 Partial double
173 137 136 Partial double
174 138 137 Partial double
175 131 138 Partial double
176 133 136 Partial double
177 140 139 Partial double
178 134 140 Partial double
179 116 135 Partial double
180 115 139 Partial double
181 142 141 Partial double
182 140 142 Partial double
183 136 141 Partial double
184 144 143 1
185 145 144 1
186 146 145 1
187 142 143 1
188 141 146 1
189 146 147 Double
190 1 148 1
191 1 149 1
192 2 150 1
193 2 151 1
194 3 152 1
195 4 153 1
196 5 154 1
197 5 155 1
198 7 156 1
199 8 157 1
200 9 158 1
201 9 159 1
202 10 160 1
203 10 161 1
204 12 162 1
205 13 163 1
206 14 164 1
207 14 165 1
208 18 166 1
209 23 167 1
210 23 168 1
211 24 169 1
212 24 170 1
213 25 171 1
214 35 173 1
215 35 174 1
216 36 175 1
217 37 176 1
218 37 177 1
219 38 178 1
220 38 179 1
221 41 180 1
222 41 181 1
223 42 182 1
224 43 183 1
225 43 184 1
226 44 185 1
227 44 186 1
228 46 187 1
229 50 188 1
230 57 189 1
231 63 190 1
232 72 191 1
233 73 192 1
234 74 193 1
235 75 194 1
236 75 195 1
237 76 196 1
238 76 197 1
239 77 198 1
240 78 199 1
241 79 200 1
242 79 201 1
243 80 202 1
244 80 203 1
245 81 204 1
246 81 205 1
247 82 206 1
248 87 207 1
249 88 208 1
250 90 209 1
251 90 210 1
252 91 211 1
253 91 212 1
254 92 213 1
255 92 214 1
256 93 215 1
257 93 216 1
258 95 217 1
259 98 218 1
260 101 219 1
261 105 220 1
262 106 221 1
263 108 222 1
264 109 223 1
265 109 224 1
266 110 225 1
267 110 226 1
268 111 227 1
269 111 228 1
270 117 229 1
271 118 230 1
272 118 231 1
273 118 232 1
274 119 233 1
275 119 234 1
276 119 235 1
277 120 236 1
278 121 237 1
279 122 238 1
280 128 239 1
281 129 240 1
282 130 241 1
283 137 242 1
284 138 243 1
285 139 244 1
286 143 245 1
287 143 246 1
288 144 247 1
289 144 248 1
290 145 249 1
291 145 250 1
292 31 172 1
@<TRIPOS>MOLECULE
Sketch 4
250 292
SMALL
USER_CHARGES


@<TRIPOS>ATOM
1 C65786 -0.0156240930604169 0.816142534921729 0.335224513242039 C 0.0 **** 0.0
2 C65787 -0.00902585122029228 0.832776414989602 0.327179405422064 C 0.0 **** 0.0
3 C65788 -0.000909997277595278 0.829391226883591 0.309664145194871 C 0.0 **** 0.0
4 C65789 0.00913288843128044 0.812581605187122 0.310115621787785 C 0.0 **** 0.0
5 C65790 -0.00291314814946987 0.797970525482438 0.315582193109613 C 0.0 **** 0.0
6 O65791 -0.0184781973672094 0.803653533516944 0.322679252267755 O 0.0 **** 0.0
7 C65798 0.0249417351469738 0.813750566155021 0.321816960360157 C 0.0 **** 0.0
8 C65799 0.0333591412225642 0.831708649017397 0.321593217340782 C 0.0 **** 0.0
9 C65800 0.028879784219116 0.841401762833275 0.305464091173273 C 0.0 **** 0.0
10 C65801 0.00981994957074011 0.844396565447184 0.303176403964864 C 0.0 **** 0.0
11 O65807 0.0514004414191268 0.83182165327809 0.322672603866008 O 0.0 **** 0.0
12 C65808 0.0583495327808762 0.819495054808624 0.333970365321391 C 0.0 **** 0.0
13 C65809 0.0560581157407532 0.802009060898325 0.325666126112422 C 0.0 **** 0.0
14 C65810 0.0377821628470309 0.799428971918681 0.318168378694067 C 0.0 **** 0.0
15 C65816 0.0619826091710838 0.787577092680723 0.336887186291145 C 0.0 **** 0.0
16 C65817 0.0614753648471767 0.789706182421224 0.355837433584834 C 0.0 **** 0.0
17 C65818 0.0576459918018769 0.805310498124328 0.362901292712547 C 0.0 **** 0.0
18 C65819 0.0508848496480149 0.819716761136319 0.351823896238588 C 0.0 **** 0.0
19 C65825 0.0576940232157345 0.807061232497385 0.380379375625764 C 0.0 **** 0.0
20 C65826 0.059417102743078 0.792859111368241 0.390465038237629 C 0.0 **** 0.0
21 C65827 0.0630900804362376 0.777227103364467 0.383397645414316 C 0.0 **** 0.0
22 C65828 0.0646190388921269 0.775695860820956 0.365959305601156 C 0.0 **** 0.0
23 C65834 0.0678419943822392 0.7583741064215 0.358327264229793 C 0.0 **** 0.0
24 C65835 0.0761848207243075 0.75953557558327 0.340654293042576 C 0.0 **** 0.0
25 C65836 0.0687608434653383 0.773521570621598 0.330037573755539 C 0.0 **** 0.0
26 O65841 0.0651907739277222 0.763012730017126 0.3934487092763 O 0.0 **** 0.0
27 C65842 0.0585518319214988 0.763167195155073 0.409594297538351 C 0.0 **** 0.0
28 C65843 0.0545365315158687 0.777900855290509 0.418218983058961 C 0.0 **** 0.0
29 C65844 0.0562648348305214 0.794422557588351 0.409038992802771 C 0.0 **** 0.0
30 C65850 0.0500164204055642 0.836358331968056 0.361129040358153 C 0.0 **** 0.0
31 C65851 0.0412169416322723 0.833569481485543 0.377895885032077 C 0.0 **** 0.0
32 C65852 0.0547260885615853 0.824165238661318 0.388284262688199 C 0.0 **** 0.0
33 C65857 0.0335937257909774 0.849561022552087 0.386014863688941 C 0.0 **** 0.0
34 C65858 0.0389614222682134 0.864958019236925 0.380367148654934 C 0.0 **** 0.0
35 C65859 0.0519201038731703 0.86740689418706 0.366371681904542 C 0.0 **** 0.0
36 C65860 0.0554119901917845 0.851619606434139 0.356101177280681 C 0.0 **** 0.0
37 C65866 0.0327985618897198 0.881383454651557 0.387727951141103 C 0.0 **** 0.0
38 C65867 0.0160428382490773 0.879643305995349 0.39750757653774 C 0.0 **** 0.0
39 C65868 0.0124175266026579 0.861963379189248 0.403413686726514 C 0.0 **** 0.0
40 C65869 0.0210825227879689 0.848153282042265 0.39786880425623 C 0.0 **** 0.0
41 C65875 0.0154149412147893 0.830974172990568 0.404944247312764 C 0.0 **** 0.0
42 C65876 -0.00368925516073335 0.829657935175644 0.406325265935715 C 0.0 **** 0.0
43 C65877 -0.00883338622255001 0.843273884578144 0.419299259217333 C 0.0 **** 0.0
44 C65878 -0.00326345624050268 0.86118315856614 0.414295305180472 C 0.0 **** 0.0
45 C65884 0.0538567180129013 0.809646578035734 0.416573447886111 C 0.0 **** 0.0
46 C65885 0.0531581291399476 0.824240053867555 0.407451789453857 C 0.0 **** 0.0
47 C65889 0.0484245069102486 0.776903024407438 0.435019861970603 C 0.0 **** 0.0
48 C65890 0.045663286231755 0.791367223139605 0.445177304613449 C 0.0 **** 0.0
49 S65891 0.0522134599254882 0.811174710563945 0.438473338363125 S 0.0 **** 0.0
50 C65896 0.0391606323984335 0.790230842645064 0.461168739152102 C 0.0 **** 0.0
51 C65897 0.0356655131446099 0.77424701414036 0.468304063146834 C 0.0 **** 0.0
52 C65898 0.0384552076747492 0.759492793656637 0.458601621384141 C 0.0 **** 0.0
53 C65899 0.0446800246545752 0.760954695716819 0.442140148251896 C 0.0 **** 0.0
54 C65905 0.035119464893075 0.743741159595944 0.465864874987953 C 0.0 **** 0.0
55 C65906 0.0290968419912945 0.742354596859642 0.482539610475774 C 0.0 **** 0.0
56 C65907 0.0266075173861248 0.757039148884744 0.492541053654201 C 0.0 **** 0.0
57 C65908 0.0301497589380668 0.772740996743942 0.485094598429639 C 0.0 **** 0.0
58 C65914 0.0192907819309614 0.755613494328384 0.508624823949033 C 0.0 **** 0.0
59 C65915 0.0125926060645836 0.740167240876337 0.513477515432349 C 0.0 **** 0.0
60 C65916 0.0166698448660696 0.725149995999797 0.50486430946542 C 0.0 **** 0.0
61 C65917 0.024871501285135 0.726573191448921 0.489172002625717 C 0.0 **** 0.0
62 C65923 0.0472705405936858 0.746221054600244 0.432597993345004 C 0.0 **** 0.0
63 C65924 0.0558369913581914 0.747750398509306 0.41713000581549 C 0.0 **** 0.0
64 C65928 0.0368758434131786 0.729261486998217 0.455941922900808 C 0.0 **** 0.0
65 C65929 0.0409053549298718 0.73062362659312 0.438744336228636 C 0.0 **** 0.0
66 C65933 0.0277064367298275 0.712090000198158 0.479507281990966 C 0.0 **** 0.0
67 C65934 0.0331055739058824 0.713617127524518 0.462754089853796 C 0.0 **** 0.0
68 C65938 0.0132916260712376 0.708798651112406 0.511832083270366 C 0.0 **** 0.0
69 C65939 0.017087816081549 0.694425066434649 0.502023389513566 C 0.0 **** 0.0
70 C65940 0.0238444398778036 0.696153788284662 0.48599743100766 C 0.0 **** 0.0
71 O65945 0.00235741104138416 0.740031287420448 0.527798689556601 O 0.0 **** 0.0
72 C65946 -0.01060980342172 0.752584778538603 0.525844455807974 C 0.0 **** 0.0
73 C65947 -0.00284598565616843 0.77070933584477 0.524953504542614 C 0.0 **** 0.0
74 C65948 0.0163279620395295 0.769085662615799 0.522209630482896 C 0.0 **** 0.0
75 C65954 -0.00715464438861862 0.781374061027446 0.540693635348326 C 0.0 **** 0.0
76 C65955 -0.0263328999950756 0.782500576934035 0.544427774881071 C 0.0 **** 0.0
77 C65956 -0.0358718607813838 0.765867208816755 0.540681020393197 C 0.0 **** 0.0
78 C65957 -0.0239491997691509 0.750536136459974 0.539936433372846 C 0.0 **** 0.0
79 C65963 -0.0341780790141753 0.733881147898282 0.538126536188696 C 0.0 **** 0.0
80 C65964 -0.0520424035751269 0.737311193301405 0.531027432899481 C 0.0 **** 0.0
81 C65965 -0.0518712495572483 0.751309313606031 0.517657642473447 C 0.0 **** 0.0
82 N65966 -0.0458916684504069 0.767430096094246 0.52513855959358 N 0.0 **** 0.0
83 C65972 0.0377003537440508 0.716940588024282 0.427593606847303 C 0.0 **** 0.0
84 C65973 0.0346908995481631 0.701088107813542 0.434349915963913 C 0.0 **** 0.0
85 C65974 0.0332118801452683 0.699418425706272 0.452085612768406 C 0.0 **** 0.0
86 O65979 0.0327117789054732 0.68675075641948 0.424459538227747 O 0.0 **** 0.0
87 C65980 0.0382969509249042 0.689124761124843 0.40744377122969 C 0.0 **** 0.0
88 C65981 0.0315263418812719 0.705509644341212 0.400728900421052 C 0.0 **** 0.0
89 O65982 0.0380684014690003 0.719431254191587 0.41021782492089 O 0.0 **** 0.0
90 C65988 0.0119172407983171 0.705767565766653 0.400143143280317 C 0.0 **** 0.0
91 C65989 0.00401243989988814 0.688011392682419 0.398017951685466 C 0.0 **** 0.0
92 C65990 0.0156142962733729 0.676380849642832 0.387733627725109 C 0.0 **** 0.0
93 C65991 0.0327532129692779 0.673771561147883 0.396803562300554 C 0.0 **** 0.0
94 C65997 0.0260437796511794 0.681444653983915 0.475967098855766 C 0.0 **** 0.0
95 C65998 0.0304396008550351 0.683367909417712 0.458898001156817 C 0.0 **** 0.0
96 C66002 0.0142203399130308 0.678212187410288 0.508606788593947 C 0.0 **** 0.0
97 C66003 0.0167739039715995 0.663449353731564 0.498814380755034 C 0.0 **** 0.0
98 C66004 0.0228293508491353 0.665204933256856 0.482723189968533 C 0.0 **** 0.0
99 C66009 0.00915629185372899 0.676082330502695 0.525434367000354 C 0.0 **** 0.0
100 C66010 0.00541810630279923 0.689908335008443 0.535357755817812 C 0.0 **** 0.0
101 C66011 0.00737875915169749 0.705747215349158 0.528444713695349 C 0.0 **** 0.0
102 O66016 0.0126324334065016 0.64756632123807 0.504896759634387 O 0.0 **** 0.0
103 C66017 0.0131496566507806 0.645299628468927 0.522187115275927 C 0.0 **** 0.0
104 C66018 0.0102564659040733 0.658716461395433 0.532670950594593 C 0.0 **** 0.0
105 C66023 0.000335266408889998 0.688214031490868 0.553751460421962 C 0.0 **** 0.0
106 C66024 0.00801314343589448 0.671696714123448 0.561807025558329 C 0.0 **** 0.0
107 C66025 0.0105417923187816 0.65687206028866 0.549753963994735 C 0.0 **** 0.0
108 C66030 -0.00255468985445233 0.665545656446785 0.5770026571163 C 0.0 **** 0.0
109 C66031 -0.00952054671074245 0.680382183108586 0.587314286897303 C 0.0 **** 0.0
110 C66032 -0.0221297956826654 0.690725094892656 0.576289793852567 C 0.0 **** 0.0
111 C66033 -0.018749043605696 0.689047094299608 0.557020786717874 C 0.0 **** 0.0
112 C66039 0.0139561777796278 0.641432244237942 0.556525044709075 C 0.0 **** 0.0
113 C66040 0.0176656401298305 0.62804644909582 0.546146230487828 C 0.0 **** 0.0
114 C66041 0.0167656392394002 0.629775334517307 0.528990913203782 C 0.0 **** 0.0
115 C66046 0.00823203825561577 0.652354813307503 0.586023072132004 C 0.0 **** 0.0
116 C66048 0.0149928578589133 0.64002958575358 0.575485302870067 C 0.0 **** 0.0
117 C66051 -0.00937588173476216 0.811562751297226 0.411205265343099 C 0.0 **** 0.0
118 C66053 -0.0286147487828254 0.80966256414676 0.411678754462107 C 0.0 **** 0.0
119 C66055 -0.00261051831229324 0.797844420862612 0.399214913670252 C 0.0 **** 0.0
120 O66057 0.0247710970073169 0.784705663203347 0.51946633909316 O 0.0 **** 0.0
121 C66059 0.019866613624565 0.616068709805868 0.518870472342907 C 0.0 **** 0.0
122 C66060 0.0243497192100286 0.600909418576684 0.52579969082645 C 0.0 **** 0.0
123 C66061 0.0262121000608317 0.599358722521376 0.542910474398738 C 0.0 **** 0.0
124 C66062 0.0227394251675001 0.613006443597646 0.552969438203438 C 0.0 **** 0.0
125 C66068 0.0255716790156026 0.611744693866015 0.571455985802662 C 0.0 **** 0.0
126 C66069 0.0318248177791678 0.597043483164401 0.5779298574014 C 0.0 **** 0.0
127 C66070 0.0348680291857478 0.582574522549898 0.566543928374656 C 0.0 **** 0.0
128 C66071 0.0318162071903083 0.584201940167922 0.549530022214669 C 0.0 **** 0.0
129 C66077 0.0409127226613884 0.56785659935779 0.573302696307971 C 0.0 **** 0.0
130 C66078 0.0450758287511184 0.566565628138132 0.590111218010772 C 0.0 **** 0.0
131 C66079 0.0429096051113701 0.57983428680119 0.601030052194137 C 0.0 **** 0.0
132 C66080 0.0353410138335257 0.595751542877342 0.594822953763762 C 0.0 **** 0.0
133 C66086 0.0322891396393009 0.609271466248321 0.605917571642418 C 0.0 **** 0.0
134 C66087 0.0250416471993058 0.624023582609437 0.599512084574831 C 0.0 **** 0.0
135 C66088 0.0221555585891681 0.625423458721681 0.582137288794431 C 0.0 **** 0.0
136 C66093 0.0365964578449553 0.608246270955072 0.623023700016797 C 0.0 **** 0.0
137 C66094 0.0452889415524955 0.591908758279731 0.62830099642575 C 0.0 **** 0.0
138 C66095 0.0478840793277694 0.57867302904688 0.617495595760726 C 0.0 **** 0.0
139 C66100 0.0113712244359967 0.651113296177118 0.603144731108763 C 0.0 **** 0.0
140 C66101 0.0208976063178334 0.637519451324465 0.610264809458417 C 0.0 **** 0.0
141 C66106 0.0333082400671398 0.621921883180395 0.633658022318661 C 0.0 **** 0.0
142 C66107 0.0260037605406143 0.636713894167137 0.627364412099409 C 0.0 **** 0.0
143 C66111 0.0230062326635812 0.651768992468448 0.638995299539691 C 0.0 **** 0.0
144 C66112 0.0377319154569704 0.653551594469801 0.651450147780656 C 0.0 **** 0.0
145 C66113 0.0390330660390437 0.637454995430371 0.661650019390259 C 0.0 **** 0.0
146 C66114 0.0375303760730908 0.621068439495475 0.652156056562519 C 0.0 **** 0.0
147 O66120 0.0390797863372008 0.608107973797317 0.660232193390772 O 0.0 **** 0.0
148 H66122 -0.0278131412401959 0.818125621357617 0.341605920553799 H 0.0 **** 0.0
149 H66124 -0.0067877289293226 0.811452319220332 0.344953334446052 H 0.0 **** 0.0
150 H66126 -0.0193287710328555 0.842047904653258 0.325618156885454 H 0.0 **** 0.0
151 H66128 0.000152297439350477 0.838864946011999 0.335705645621841 H 0.0 **** 0.0
152 H66130 -0.0115458322348251 0.827527249296714 0.300778455281747 H 0.0 **** 0.0
153 H66132 0.0137282035049315 0.810104939208602 0.297183543676451 H 0.0 **** 0.0
154 H66134 0.0034197295836116 0.789155833339649 0.324349530715558 H 0.0 **** 0.0
155 H66136 -0.00671215351261226 0.790510920991945 0.30454274320624 H 0.0 **** 0.0
156 H66138 0.0200373408100934 0.81149367265754 0.334655379032441 H 0.0 **** 0.0
157 H66140 0.0282969984127416 0.838994830324005 0.332376636080883 H 0.0 **** 0.0
158 H66142 0.0337955595715267 0.834090621516448 0.294665692638766 H 0.0 **** 0.0
159 H66144 0.0357646877675772 0.853517033914009 0.305439570518109 H 0.0 **** 0.0
160 H66146 0.00723240613061697 0.846682062386468 0.289688489660571 H 0.0 **** 0.0
161 H66148 0.00604380294799304 0.856085869687739 0.309766955769289 H 0.0 **** 0.0
162 H66150 0.071923132374775 0.822525908505082 0.334566391795575 H 0.0 **** 0.0
163 H66152 0.0646401065047403 0.801960303752828 0.314670873690091 H 0.0 **** 0.0
164 H66154 0.0323449275257999 0.78714417278943 0.321876299517554 H 0.0 **** 0.0
165 H66156 0.0393428963564111 0.798741452263215 0.304375402130097 H 0.0 **** 0.0
166 H66158 0.0374081752652543 0.816473923715087 0.350442035558752 H 0.0 **** 0.0
167 H66160 0.0758574785775821 0.750671555592475 0.366703935837667 H 0.0 **** 0.0
168 H66162 0.0556796985159924 0.751616629958043 0.357208691858192 H 0.0 **** 0.0
169 H66164 0.074844884570483 0.747331879044929 0.334011217998678 H 0.0 **** 0.0
170 H66166 0.0898610476073051 0.761789582140134 0.342004422767588 H 0.0 **** 0.0
171 H66168 0.0700266879649102 0.771920961389617 0.316429127386225 H 0.0 **** 0.0
172 H66170 0.0305307408647004 0.824971115516843 0.375269363921479 H 0.0 **** 0.0
173 H66171 0.063733692276693 0.872449181030142 0.371755885466868 H 0.0 **** 0.0
174 H66173 0.0470811880628736 0.877200632702104 0.357626998706416 H 0.0 **** 0.0
175 H66175 0.0618933606968662 0.853191675145316 0.34403707993497 H 0.0 **** 0.0
176 H66177 0.0427471497770672 0.886329590287139 0.396141017488138 H 0.0 **** 0.0
177 H66179 0.0311229236056054 0.890880774180798 0.377629482377868 H 0.0 **** 0.0
178 H66181 0.0055298510011753 0.883715763864327 0.389307673632957 H 0.0 **** 0.0
179 H66183 0.0160846874017884 0.888346166071974 0.408378569231936 H 0.0 **** 0.0
180 H66185 0.0204250204632604 0.820544324175703 0.397354591591109 H 0.0 **** 0.0
181 H66187 0.0208482248623033 0.829280729818002 0.417681875780165 H 0.0 **** 0.0
182 H66189 -0.00943582533379483 0.832707788827524 0.393964227543923 H 0.0 **** 0.0
183 H66191 -0.00268544914767674 0.83999604173752 0.431312186405874 H 0.0 **** 0.0
184 H66193 -0.0225110153762505 0.843340805538224 0.421778770983269 H 0.0 **** 0.0
185 H66195 -0.0014138319183101 0.868928561911456 0.425741310969418 H 0.0 **** 0.0
186 H66197 -0.0135856793596304 0.867255428255142 0.407144755420323 H 0.0 **** 0.0
187 H66199 0.0517355307581001 0.836441292510492 0.413686743194549 H 0.0 **** 0.0
188 H66201 0.0373516736261711 0.801529968139574 0.468986372031694 H 0.0 **** 0.0
189 H66203 0.0280125049405568 0.784556169801646 0.491962998501953 H 0.0 **** 0.0
190 H66205 0.0595242792300798 0.736595081226385 0.409751967372762 H 0.0 **** 0.0
191 H66207 -0.0168667538734034 0.750079109774222 0.513639501209933 H 0.0 **** 0.0
192 H66209 -0.00816164084275388 0.777505208017629 0.514019027890981 H 0.0 **** 0.0
193 H66211 0.0216985256580134 0.763766025592202 0.534031963737224 H 0.0 **** 0.0
194 H66213 -0.000849234028915839 0.77563932602299 0.551730530370069 H 0.0 **** 0.0
195 H66215 -0.00189980902622635 0.794234378294295 0.539470544241502 H 0.0 **** 0.0
196 H66217 -0.0319829839034878 0.792927701246876 0.537155861539743 H 0.0 **** 0.0
197 H66219 -0.0278567265952544 0.786025060162543 0.557822681780451 H 0.0 **** 0.0
198 H66221 -0.0450362321539687 0.763814249042451 0.551027531743074 H 0.0 **** 0.0
199 H66223 -0.0168882502175768 0.750104305617343 0.551949648625449 H 0.0 **** 0.0
200 H66225 -0.0274690172839424 0.724965892352709 0.529776054306014 H 0.0 **** 0.0
201 H66227 -0.0352964428940325 0.727510130831715 0.550454840225288 H 0.0 **** 0.0
202 H66229 -0.0605381897576591 0.741154163202508 0.541398912761988 H 0.0 **** 0.0
203 H66231 -0.0574146971003514 0.725660303408695 0.525664390987061 H 0.0 **** 0.0
204 H66233 -0.0646081977171463 0.753143776011924 0.512312145423834 H 0.0 **** 0.0
205 H66235 -0.043748929497126 0.747186763022873 0.507086644480696 H 0.0 **** 0.0
206 H66237 -0.0400036788921386 0.774678672864935 0.516570534901235 H 0.0 **** 0.0
207 H66239 0.0522141965025096 0.689922817608022 0.4076840136821 H 0.0 **** 0.0
208 H66241 0.0362970358590011 0.706914970615366 0.387700093774267 H 0.0 **** 0.0
209 H66243 0.00719556305911201 0.711589934062973 0.411867643468127 H 0.0 **** 0.0
210 H66245 0.00766375455899889 0.714098089262622 0.389811573383596 H 0.0 **** 0.0
211 H66247 -0.00861289915151522 0.688990571410923 0.39220672908334 H 0.0 **** 0.0
212 H66249 0.00206606038653354 0.682244328249406 0.410569312163922 H 0.0 **** 0.0
213 H66251 0.0177750180265412 0.682136481573022 0.375217012107009 H 0.0 **** 0.0
214 H66253 0.00956755259109172 0.664040605368072 0.385372328688026 H 0.0 **** 0.0
215 H66255 0.0424362678028027 0.670124641885651 0.38748468223662 H 0.0 **** 0.0
216 H66257 0.0316367689686269 0.663059225718523 0.405618217779586 H 0.0 **** 0.0
217 H66259 0.0311370874971375 0.672197670745563 0.450753152954357 H 0.0 **** 0.0
218 H66261 0.0246385312149867 0.65397651420089 0.474753460167387 H 0.0 **** 0.0
219 H66263 0.0048717433468763 0.715992265389893 0.537368865477411 H 0.0 **** 0.0
220 H66265 0.0057095972023552 0.699061999821246 0.560567238615958 H 0.0 **** 0.0
221 H66267 0.0207230760808145 0.674955407573546 0.566401736368519 H 0.0 **** 0.0
222 H66269 -0.013823483415339 0.658781811260415 0.572141354786842 H 0.0 **** 0.0
223 H66271 0.0010344939388368 0.688423018906578 0.591427563882287 H 0.0 **** 0.0
224 H66273 -0.0158390943396993 0.676035440740482 0.598902799877489 H 0.0 **** 0.0
225 H66275 -0.0214992979746481 0.704162931574475 0.579870174394263 H 0.0 **** 0.0
226 H66277 -0.0351711312108706 0.686674762323681 0.579021975494492 H 0.0 **** 0.0
227 H66279 -0.0246232823899021 0.699695275007201 0.550240506197605 H 0.0 **** 0.0
228 H66281 -0.0247628939844468 0.677468684120217 0.552101725276989 H 0.0 **** 0.0
229 H66283 -0.00441953672298637 0.808784375896055 0.423969937087793 H 0.0 **** 0.0
230 H66285 -0.0340324337967645 0.812647742989421 0.399227596561733 H 0.0 **** 0.0
231 H66287 -0.0345236476428872 0.817940340007768 0.421096253053825 H 0.0 **** 0.0
232 H66289 -0.0322508902410131 0.796613976466985 0.414925955100623 H 0.0 **** 0.0
233 H66291 0.0112042657559255 0.796377977794657 0.399803378096228 H 0.0 **** 0.0
234 H66293 -0.00610609053401699 0.800655090288088 0.386039254840887 H 0.0 **** 0.0
235 H66295 -0.0080463608075934 0.785438332344276 0.402488610649072 H 0.0 **** 0.0
236 H66297 0.0239490419580928 0.790566757419792 0.529932239646135 H 0.0 **** 0.0
237 H66299 0.0190042681761758 0.616999387370384 0.505132928304647 H 0.0 **** 0.0
238 H66301 0.0268978976281911 0.590272362273428 0.517381075302659 H 0.0 **** 0.0
239 H66303 0.0342839106434593 0.573532136740219 0.541112521607899 H 0.0 **** 0.0
240 H66305 0.0428338190474209 0.556883652362877 0.565267806077399 H 0.0 **** 0.0
241 H66307 0.0503750337932335 0.554639298053506 0.594577962021802 H 0.0 **** 0.0
242 H66309 0.0498578662653186 0.590500944548659 0.641177726899439 H 0.0 **** 0.0
243 H66311 0.0541288323183887 0.567349078941944 0.622280529323084 H 0.0 **** 0.0
244 H66313 0.00666047508740881 0.661401261734977 0.611151012919655 H 0.0 **** 0.0
245 H66315 0.0219095537307003 0.663571314153579 0.631747360164734 H 0.0 **** 0.0
246 H66317 0.0110459870386292 0.650205613989277 0.646013752549848 H 0.0 **** 0.0
247 H66319 0.0358972980367405 0.664325915351815 0.660041152519608 H 0.0 **** 0.0
248 H66321 0.0495153608185097 0.655963612634074 0.644387735835012 H 0.0 **** 0.0
249 H66323 0.028735648555089 0.636341796174071 0.670950309368157 H 0.0 **** 0.0
250 H66325 0.0508693657923754 0.63583095411072 0.668767613557235 H 0.0 **** 0.0
@<TRIPOS>BOND
1 3 2 1
2 4 3 1
3 5 4 1
4 6 5 1
5 1 2 1
6 1 6 1
7 8 7 1
8 9 8 1
9 10 9 1
10 4 7 1
11 3 10 1
12 12 11 1
13 13 12 1
14 14 13 1
15 8 11 1
16 7 14 1
17 16 15 1
18 17 16 Partial double
19 18 17 1
20 13 15 1
21 12 18 1
22 20 19 Partial double
23 21 20 Partial double
24 22 21 Partial double
25 17 19 Partial double
26 16 22 Partial double
27 24 23 1
28 25 24 1
29 15 25 Double
30 22 23 1
31 27 26 1
32 28 27 Partial double
33 29 28 Partial double
34 21 26 1
35 20 29 Partial double
36 31 30 1
37 32 31 1
38 18 30 1
39 19 32 1
40 34 33 Double
41 35 34 1
42 36 35 1
43 31 33 1
44 30 36 Double
45 38 37 1
46 39 38 1
47 40 39 Double
48 34 37 1
49 33 40 1
50 42 41 1
51 43 42 1
52 44 43 1
53 40 41 1
54 39 44 1
55 46 45 Partial double
56 32 46 1
57 29 45 Partial double
58 48 47 Partial double
59 49 48 1
60 45 49 Partial double
61 28 47 Partial double
62 51 50 Partial double
63 52 51 Partial double
64 53 52 Partial double
65 48 50 Partial double
66 47 53 Partial double
67 55 54 Partial double
68 56 55 Partial double
69 57 56 Partial double
70 52 54 Partial double
71 51 57 Partial double
72 59 58 Partial double
73 60 59 Partial double
74 61 60 Partial double
75 56 58 Partial double
76 55 61 Partial double
77 63 62 Partial double
78 27 63 Partial double
79 53 62 Partial double
80 65 64 Partial double
81 62 65 Partial double
82 54 64 Partial double
83 67 66 Partial double
84 64 67 Partial double
85 61 66 Partial double
86 69 68 Partial double
87 70 69 Partial double
88 66 70 Partial double
89 60 68 Partial double
90 72 71 1
91 73 72 1
92 74 73 1
93 59 71 1
94 58 74 1
95 76 75 1
96 77 76 1
97 78 77 1
98 73 75 1
99 72 78 1
100 80 79 1
101 81 80 1
102 82 81 1
103 78 79 1
104 77 82 1
105 84 83 Partial double
106 85 84 Partial double
107 67 85 Partial double
108 65 83 Partial double
109 87 86 1
110 88 87 1
111 89 88 1
112 84 86 1
113 83 89 1
114 91 90 1
115 92 91 1
116 93 92 1
117 88 90 1
118 87 93 1
119 95 94 Partial double
120 85 95 Partial double
121 70 94 Partial double
122 97 96 Partial double
123 98 97 Partial double
124 94 98 Partial double
125 69 96 Partial double
126 100 99 Partial double
127 101 100 Partial double
128 68 101 Partial double
129 96 99 Partial double
130 103 102 1
131 104 103 Partial double
132 97 102 1
133 99 104 1
134 106 105 1
135 107 106 1
136 100 105 1
137 104 107 Partial double
138 109 108 1
139 110 109 1
140 111 110 1
141 106 108 1
142 105 111 1
143 113 112 1
144 114 113 1
145 103 114 Partial double
146 107 112 Partial double
147 108 115 1
148 112 116 Partial double
149 115 116 Partial double
150 42 117 1
151 117 118 1
152 117 119 1
153 74 120 1
154 122 121 1
155 123 122 Partial double
156 124 123 1
157 114 121 Partial double
158 113 124 Partial double
159 126 125 Partial double
160 127 126 1
161 128 127 Partial double
162 124 125 Partial double
163 123 128 Partial double
164 130 129 Partial double
165 131 130 1
166 132 131 1
167 127 129 Partial double
168 126 132 Partial double
169 134 133 Partial double
170 135 134 Partial double
171 125 135 Partial double
172 132 133 Partial double
173 137 136 Partial double
174 138 137 Partial double
175 131 138 Partial double
176 133 136 Partial double
177 140 139 Partial double
178 134 140 Partial double
179 116 135 Partial double
180 115 139 Partial double
181 142 141 Partial double
182 140 142 Partial double
183 136 141 Partial double
184 144 143 1
185 145 144 1
186 146 145 1
187 142 143 1
188 141 146 1
189 146 147 Double
190 1 148 1
191 1 149 1
192 2 150 1
193 2 151 1
194 3 152 1
195 4 153 1
196 5 154 1
197 5 155 1
198 7 156 1
199 8 157 1
200 9 158 1
201 9 159 1
202 10 160 1
203 10 161 1
204 12 162 1
205 13 163 1
206 14 164 1
207 14 165 1
208 18 166 1
209 23 167 1
210 23 168 1
211 24 169 1
212 24 170 1
213 25 171 1
214 35 173 1
215 35 174 1
216 36 175 1
217 37 176 1
218 37 177 1
219 38 178 1
220 38 179 1
221 41 180 1
222 41 181 1
223 42 182 1
224 43 183 1
225 43 184 1
226 44 185 1
227 44 186 1
228 46 187 1
229 50 188 1
230 57 189 1
231 63 190 1
232 72 191 1
233 73 192 1
234 74 193 1
235 75 194 1
236 75 195 1
237 76 196 1
238 76 197 1
239 77 198 1
240 78 199 1
241 79 200 1
242 79 201 1
243 80 202 1
244 80 203 1
245 81 204 1
246 81 205 1
247 82 206 1
248 87 207 1
249 88 208 1
250 90 209 1
251 90 210 1
252 91 211 1
253 91 212 1
254 92 213 1
255 92 214 1
256 93 215 1
257 93 216 1
258 95 217 1
259 98 218 1
260 101 219 1
261 105 220 1
262 106 221 1
263 108 222 1
264 109 223 1
265 109 224 1
266 110 225 1
267 110 226 1
268 111 227 1
269 111 228 1
270 117 229 1
271 118 230 1
272 118 231 1
273 118 232 1
274 119 233 1
275 119 234 1
276 119 235 1
277 120 236 1
278 121 237 1
279 122 238 1
280 128 239 1
281 129 240 1
282 130 241 1
283 137 242 1
284 138 243 1
285 139 244 1
286 143 245 1
287 143 246 1
288 144 247 1
289 144 248 1
290 145 249 1
291 145 250 1
292 31 172 1
@<TRIPOS>MOLECULE
Sketch 4
250 292
SMALL
USER_CHARGES


@<TRIPOS>ATOM
1 C66328 1.03477495779858 0.497232321269499 0.804769524219887 C 0.0 **** 0.0
2 C66329 1.01680434608438 0.490326930975313 0.807951594337395 C 0.0 **** 0.0
3 C66330 1.00315664530754 0.501821914306787 0.80022848049148 C 0.0 **** 0.0
4 C66331 1.00562537385578 0.520772972489748 0.805713493414606 C 0.0 **** 0.0
5 C66332 1.02302256386104 0.523084895547061 0.814197812342318 C 0.0 **** 0.0
6 O66333 1.03580814709959 0.515226027353545 0.804294699941898 O 0.0 **** 0.0
7 C66340 0.990349802198673 0.527540102877282 0.815885805915515 C 0.0 **** 0.0
8 C66341 0.974028048081619 0.525512216711625 0.805331219042731 C 0.0 **** 0.0
9 C66342 0.971869308215666 0.507717993242192 0.797689267421244 C 0.0 **** 0.0
10 C66343 0.985269708742232 0.495163459648728 0.803822813761917 C 0.0 **** 0.0
11 O66349 0.974338246449811 0.536878540198955 0.791272305894642 O 0.0 **** 0.0
12 C66350 0.974468629993465 0.554456684053338 0.795764992630616 C 0.0 **** 0.0
13 C66351 0.990206283205251 0.558416574519645 0.806545942437649 C 0.0 **** 0.0
14 C66352 0.99173234448118 0.546202896059363 0.821547697057889 C 0.0 **** 0.0
15 C66358 0.990732650829095 0.576879428762189 0.8118248846241 C 0.0 **** 0.0
16 C66359 0.974191946093585 0.586030366492379 0.814755043910526 C 0.0 **** 0.0
17 C66360 0.958942735388546 0.578496101688235 0.810335248461558 C 0.0 **** 0.0
18 C66361 0.958127027594893 0.560085809845521 0.804512496416386 C 0.0 **** 0.0
19 C66367 0.944030641175551 0.587632924992664 0.812226429256835 C 0.0 **** 0.0
20 C66368 0.944578929880597 0.603578208293403 0.819450917788708 C 0.0 **** 0.0
21 C66369 0.959728700374257 0.611000796563042 0.824218066642493 C 0.0 **** 0.0
22 C66370 0.974699630138766 0.602178820216976 0.821714508242659 C 0.0 **** 0.0
23 C66376 0.991262988326294 0.609769847923793 0.827639609426943 C 0.0 **** 0.0
24 C66377 1.0062412602933 0.604084676428978 0.816428386772716 C 0.0 **** 0.0
25 C66378 1.00549266889783 0.585422192564624 0.81246099612613 C 0.0 **** 0.0
26 O66383 0.96019080983438 0.626976626531402 0.831622244340281 O 0.0 **** 0.0
27 C66384 0.945771109093034 0.636918267750244 0.831455198154426 C 0.0 **** 0.0
28 C66385 0.929860562098156 0.630392504237417 0.828295555777326 C 0.0 **** 0.0
29 C66386 0.928309858470025 0.612272368938575 0.823229370465501 C 0.0 **** 0.0
30 C66392 0.942003557751347 0.557348160324548 0.794692859055356 C 0.0 **** 0.0
31 C66393 0.926724230387878 0.561323010005477 0.805546304818256 C 0.0 **** 0.0
32 C66394 0.927119274336738 0.580777929019113 0.806145305437339 C 0.0 **** 0.0
33 C66399 0.909771445822606 0.55426140164213 0.798561328120915 C 0.0 **** 0.0
34 C66400 0.908760395061231 0.552281379066427 0.781416454442975 C 0.0 **** 0.0
35 C66401 0.923508179652509 0.554762179206068 0.769372233159323 C 0.0 **** 0.0
36 C66402 0.940549353114355 0.554527113932674 0.778033828557447 C 0.0 **** 0.0
37 C66408 0.892741338918278 0.547988902598373 0.772185270748448 C 0.0 **** 0.0
38 C66409 0.878843966630202 0.540751458974053 0.783623656883219 C 0.0 **** 0.0
39 C66410 0.881671331187133 0.543885490891158 0.802105668807433 C 0.0 **** 0.0
40 C66411 0.896363461924595 0.550083220077239 0.808790215834012 C 0.0 **** 0.0
41 C66417 0.896947732229184 0.551641322634097 0.828270257569039 C 0.0 **** 0.0
42 C66418 0.885676750922322 0.538693400268732 0.837110068796893 C 0.0 **** 0.0
43 C66419 0.867473902626245 0.54150453695223 0.830912696932781 C 0.0 **** 0.0
44 C66420 0.866404971264757 0.537998573027073 0.81198844515615 C 0.0 **** 0.0
45 C66426 0.91322102140682 0.604300785922642 0.821773656934915 C 0.0 **** 0.0
46 C66427 0.911790373384553 0.588983588365579 0.814213212271375 C 0.0 **** 0.0
47 C66431 0.915609244965668 0.641084775035523 0.828878241112691 C 0.0 **** 0.0
48 C66432 0.898916022564422 0.634692301775442 0.827962911685309 C 0.0 **** 0.0
49 S66433 0.895164499382589 0.613341649378809 0.830245408409125 S 0.0 **** 0.0
50 C66438 0.885123254091294 0.644964778470948 0.826698519861742 C 0.0 **** 0.0
51 C66439 0.887350127971633 0.662605486108512 0.827673802425772 C 0.0 **** 0.0
52 C66440 0.903855884622204 0.669376509234658 0.829634915392068 C 0.0 **** 0.0
53 C66441 0.917883505565299 0.65871172502136 0.830040587970495 C 0.0 **** 0.0
54 C66447 0.905659379609726 0.68665817755908 0.832377507005802 C 0.0 **** 0.0
55 C66448 0.891419979656583 0.696837530042639 0.835246990584972 C 0.0 **** 0.0
56 C66449 0.87495931971598 0.689972159183455 0.834747970104229 C 0.0 **** 0.0
57 C66450 0.873231017737544 0.673197779656155 0.82925312030525 C 0.0 **** 0.0
58 C66456 0.860746811202323 0.699487813585433 0.83960643089407 C 0.0 **** 0.0
59 C66457 0.862767117332358 0.716582500303903 0.842401295040366 C 0.0 **** 0.0
60 C66458 0.879154089983884 0.723937281599849 0.842310304437998 C 0.0 **** 0.0
61 C66459 0.893254399635258 0.713966416800176 0.838347275036419 C 0.0 **** 0.0
62 C66465 0.934185709485801 0.665575489054473 0.832187864538972 C 0.0 **** 0.0
63 C66466 0.947517458802129 0.653969101991013 0.834526323911752 C 0.0 **** 0.0
64 C66470 0.9217809574468 0.693783323133759 0.832459292377284 C 0.0 **** 0.0
65 C66471 0.936215878359622 0.68352144462777 0.831386822362396 C 0.0 **** 0.0
66 C66475 0.909097557930946 0.721368061194251 0.836095775861711 C 0.0 **** 0.0
67 C66476 0.923238152740984 0.7112091765085 0.833091041909945 C 0.0 **** 0.0
68 C66480 0.881581291003404 0.74161257817413 0.844985040367364 C 0.0 **** 0.0
69 C66481 0.896867908956969 0.749015400662195 0.839702024558172 C 0.0 **** 0.0
70 C66482 0.910585912724554 0.738919391123301 0.83572857854259 C 0.0 **** 0.0
71 O66487 0.848938282858166 0.726973172498764 0.845356548006832 O 0.0 **** 0.0
72 C66488 0.832181349502738 0.7209464083297 0.842777376520071 C 0.0 **** 0.0
73 C66489 0.830432870511245 0.702839313087374 0.849107123067753 C 0.0 **** 0.0
74 C66490 0.843392138124777 0.69121364116749 0.840909320437606 C 0.0 **** 0.0
75 C66496 0.812070848070514 0.696125507681321 0.847262775987667 C 0.0 **** 0.0
76 C66497 0.800676166153984 0.70798984635321 0.836851647399809 C 0.0 **** 0.0
77 C66498 0.80939722713889 0.714224597144017 0.820655939023535 C 0.0 **** 0.0
78 C66499 0.826577469474361 0.723427097597108 0.824301953271732 C 0.0 **** 0.0
79 C66505 0.82610425314684 0.742321648657187 0.8196469668194 C 0.0 **** 0.0
80 C66506 0.819433557833552 0.74506466678312 0.801511526561947 C 0.0 **** 0.0
81 C66507 0.806395703810622 0.731518210516309 0.795990979285848 C 0.0 **** 0.0
82 N66508 0.797669979564991 0.723909770126318 0.81024655400956 N 0.0 **** 0.0
83 C66514 0.952276548929517 0.691150764288605 0.829009008035413 C 0.0 **** 0.0
84 C66515 0.953679996395006 0.708621320919817 0.828260498708412 C 0.0 **** 0.0
85 C66516 0.939025567891729 0.718674945265733 0.829994100924156 C 0.0 **** 0.0
86 O66521 0.969054370270166 0.716859065254701 0.826076720727899 O 0.0 **** 0.0
87 C66522 0.982377666560583 0.70607509872714 0.820439244945022 C 0.0 **** 0.0
88 C66523 0.982065380495649 0.689768800580113 0.830023347250675 C 0.0 **** 0.0
89 O66524 0.966524468051362 0.681125332524832 0.827210758332599 O 0.0 **** 0.0
90 C66530 0.985555114554125 0.69196918169923 0.849152386541932 C 0.0 **** 0.0
91 C66531 0.997046597939776 0.707206798622566 0.853168773999098 C 0.0 **** 0.0
92 C66532 1.00916067549251 0.710922565919533 0.838506069381106 C 0.0 **** 0.0
93 C66533 0.999408890184501 0.715431996526427 0.822141655739121 C 0.0 **** 0.0
94 C66539 0.926041224091799 0.746649892233986 0.831048925980359 C 0.0 **** 0.0
95 C66540 0.940253300477619 0.73629682064101 0.828353875717422 C 0.0 **** 0.0
96 C66544 0.898130139505385 0.766657467872124 0.838601473033822 C 0.0 **** 0.0
97 C66545 0.913291589587063 0.774474560680038 0.833253588289872 C 0.0 **** 0.0
98 C66546 0.926962541244142 0.764458438835793 0.829532284794206 C 0.0 **** 0.0
99 C66551 0.884438947495502 0.776954797789857 0.843223739344129 C 0.0 **** 0.0
100 C66552 0.870130868257408 0.769935899299252 0.850359612295093 C 0.0 **** 0.0
101 C66553 0.869373386212547 0.752625790650084 0.851830012590085 C 0.0 **** 0.0
102 O66558 0.914963593181286 0.791843622482819 0.832227880220064 O 0.0 **** 0.0
103 C66559 0.900929465934541 0.80198158609759 0.834723757869727 C 0.0 **** 0.0
104 C66560 0.885960768696283 0.795511890715119 0.840475640939086 C 0.0 **** 0.0
105 C66565 0.854964979442363 0.780090259786735 0.856154530270015 C 0.0 **** 0.0
106 C66566 0.855104175125816 0.79875885162126 0.848914611745581 C 0.0 **** 0.0
107 C66567 0.872234889659066 0.805633927855884 0.843082322946597 C 0.0 **** 0.0
108 C66572 0.847103025939891 0.811131645080814 0.861683950548138 C 0.0 **** 0.0
109 C66573 0.831331485094516 0.80348779847736 0.87001814094274 C 0.0 **** 0.0
110 C66574 0.836317823902533 0.788064101052959 0.881049908272926 C 0.0 **** 0.0
111 C66575 0.853229170797746 0.779982455145525 0.875489938658893 C 0.0 **** 0.0
112 C66581 0.873613914591162 0.822559436815522 0.840114741696652 C 0.0 **** 0.0
113 C66582 0.888394023124383 0.829113925164723 0.833811961681029 C 0.0 **** 0.0
114 C66583 0.902078533394944 0.818904004098014 0.831307642673292 C 0.0 **** 0.0
115 C66588 0.844652185493001 0.827914652382149 0.852591927597909 C 0.0 **** 0.0
116 C66590 0.858387000312706 0.833595862359809 0.843212339029634 C 0.0 **** 0.0
117 C66593 0.88774561034861 0.53888317270278 0.856571829719909 C 0.0 **** 0.0
118 C66595 0.882864335889389 0.555586900510461 0.865108592692179 C 0.0 **** 0.0
119 C66597 0.878146046071417 0.524334732301161 0.865058946297117 C 0.0 **** 0.0
120 O66599 0.844308652773067 0.676664612769473 0.851564818296175 O 0.0 **** 0.0
121 C66601 0.916838484309966 0.825677295294914 0.82531136946474 C 0.0 **** 0.0
122 C66602 0.917909350253035 0.842491408090212 0.82168970582216 C 0.0 **** 0.0
123 C66603 0.904187126943832 0.852749730283895 0.823812333292839 C 0.0 **** 0.0
124 C66604 0.889479626235164 0.845913967769139 0.829853107291733 C 0.0 **** 0.0
125 C66610 0.874426839386276 0.856899910735403 0.831720795926998 C 0.0 **** 0.0
126 C66611 0.875761396952017 0.873644135537636 0.82774772846236 C 0.0 **** 0.0
127 C66612 0.892004767638028 0.880339679499601 0.821389633729353 C 0.0 **** 0.0
128 C66613 0.905566578142503 0.869659990357948 0.819686727322923 C 0.0 **** 0.0
129 C66619 0.893118770044705 0.897108161706671 0.817244170994809 C 0.0 **** 0.0
130 C66620 0.879482243052826 0.907739018713528 0.81889938082186 C 0.0 **** 0.0
131 C66621 0.864189771486349 0.902093694409613 0.824789409103989 C 0.0 **** 0.0
132 C66622 0.86213460865665 0.884158282645023 0.829551219664429 C 0.0 **** 0.0
133 C66628 0.846568561622854 0.878128700231129 0.835596590168744 C 0.0 **** 0.0
134 C66629 0.845238547687802 0.861042686201029 0.839788508892919 C 0.0 **** 0.0
135 C66630 0.859166927265459 0.850342442322169 0.837789972290113 C 0.0 **** 0.0
136 C66635 0.832524048476818 0.888762945315821 0.837273161753509 C 0.0 **** 0.0
137 C66636 0.835552950947859 0.907022560725235 0.832113363688826 C 0.0 **** 0.0
138 C66637 0.850764931984001 0.912794363463257 0.826281017039304 C 0.0 **** 0.0
139 C66642 0.830598528238598 0.838199597111203 0.853708277302416 C 0.0 **** 0.0
140 C66643 0.8300843368791 0.854608897935436 0.846295436428556 C 0.0 **** 0.0
141 C66648 0.817032101845683 0.882078384608115 0.842486861705589 C 0.0 **** 0.0
142 C66649 0.815489124209729 0.864858020080879 0.846040493531631 C 0.0 **** 0.0
143 C66653 0.79852134512768 0.856844801278688 0.850434569652649 C 0.0 **** 0.0
144 C66654 0.784179337326581 0.865733934711112 0.840986088212645 C 0.0 **** 0.0
145 C66655 0.78470023402681 0.884400225785072 0.845079060540256 C 0.0 **** 0.0
146 C66656 0.801639492448045 0.893016736670242 0.844386151533702 C 0.0 **** 0.0
147 O66662 0.801782664898402 0.908271986213127 0.846146460091813 O 0.0 **** 0.0
148 H66664 1.0393848790444 0.492973197238939 0.792361898460036 H 0.0 **** 0.0
149 H66666 1.04363543261964 0.492272917866453 0.814297800297617 H 0.0 **** 0.0
150 H66668 1.01573080298703 0.477347032716735 0.802976300741126 H 0.0 **** 0.0
151 H66670 1.01443726313342 0.489395361614739 0.821671442207054 H 0.0 **** 0.0
152 H66672 1.00485480920415 0.501332894818935 0.786386535491371 H 0.0 **** 0.0
153 H66674 1.00622616112164 0.528213772872952 0.793918184464355 H 0.0 **** 0.0
154 H66676 1.02292511482414 0.518151100681358 0.827240240449715 H 0.0 **** 0.0
155 H66678 1.02651818240484 0.536523357003358 0.814934714993159 H 0.0 **** 0.0
156 H66680 0.989190725921314 0.519699445356067 0.827386996318282 H 0.0 **** 0.0
157 H66682 0.963063875693419 0.528067692213011 0.813543269717241 H 0.0 **** 0.0
158 H66684 0.97301223724107 0.508963152429053 0.783870383625185 H 0.0 **** 0.0
159 H66686 0.959169105863706 0.502538574524728 0.800102573454604 H 0.0 **** 0.0
160 H66688 0.983488574515533 0.482778375454014 0.797659078133727 H 0.0 **** 0.0
161 H66690 0.983653634414557 0.493008240921584 0.817503480288096 H 0.0 **** 0.0
162 H66692 0.975763340224622 0.561077630923053 0.783594819157365 H 0.0 **** 0.0
163 H66694 1.00128765375493 0.556226174286795 0.798369366227329 H 0.0 **** 0.0
164 H66696 0.981464262183213 0.548732598875886 0.830654649038558 H 0.0 **** 0.0
165 H66698 1.00356817357746 0.54844371215833 0.828567251508773 H 0.0 **** 0.0
166 H66700 0.956997248704693 0.552453320461274 0.816124295823478 H 0.0 **** 0.0
167 H66702 0.990652426853282 0.623667280954653 0.827845673568195 H 0.0 **** 0.0
168 H66704 0.993566961641405 0.605706851176535 0.840774749317907 H 0.0 **** 0.0
169 H66706 1.01828658093109 0.607099936045923 0.82281211989935 H 0.0 **** 0.0
170 H66708 1.00613575953813 0.611331900635324 0.80454547832302 H 0.0 **** 0.0
171 H66710 1.01757665351971 0.579465105301374 0.809530773981306 H 0.0 **** 0.0
172 H66712 0.929013024830888 0.55634298100941 0.818290043263885 H 0.0 **** 0.0
173 H66713 0.921891138828533 0.566723763569642 0.76238904255406 H 0.0 **** 0.0
174 H66715 0.9232895034256 0.544482471809039 0.759894363287727 H 0.0 **** 0.0
175 H66717 0.951675439321574 0.552850182907533 0.770085273955047 H 0.0 **** 0.0
176 H66719 0.888091916694432 0.559588714249296 0.765985383637432 H 0.0 **** 0.0
177 H66721 0.895374762917448 0.538939689428026 0.761925613132354 H 0.0 **** 0.0
178 H66723 0.87794001939563 0.526983439043496 0.781698928750498 H 0.0 **** 0.0
179 H66725 0.866535326240113 0.546075456407052 0.779799171979153 H 0.0 **** 0.0
180 H66727 0.909909191358581 0.550318927802113 0.833039542980094 H 0.0 **** 0.0
181 H66729 0.892778640407477 0.564412620472366 0.831915647829465 H 0.0 **** 0.0
182 H66731 0.889650205191655 0.525929593037842 0.832953102431733 H 0.0 **** 0.0
183 H66733 0.863733995319588 0.554668190783302 0.833565251202356 H 0.0 **** 0.0
184 H66735 0.858336864844159 0.533357891259226 0.837562715736682 H 0.0 **** 0.0
185 H66737 0.854903920846866 0.543792170986671 0.806594858030621 H 0.0 **** 0.0
186 H66739 0.865206050367278 0.524223648472876 0.810016570528723 H 0.0 **** 0.0
187 H66741 0.899586072751125 0.582772449905139 0.8131061909111 H 0.0 **** 0.0
188 H66743 0.872276778082668 0.639750064235666 0.826257215109365 H 0.0 **** 0.0
189 H66745 0.860714496793842 0.667367780881491 0.827775387337912 H 0.0 **** 0.0
190 H66747 0.960399879770133 0.657884450489048 0.837717818941739 H 0.0 **** 0.0
191 H66749 0.823926891810108 0.728917632036544 0.850748686614701 H 0.0 **** 0.0
192 H66751 0.833770116053426 0.703058923989247 0.862664495498988 H 0.0 **** 0.0
193 H66753 0.839159476281201 0.687381457664835 0.828157699175692 H 0.0 **** 0.0
194 H66755 0.812181430010497 0.683583228961132 0.841168833032881 H 0.0 **** 0.0
195 H66757 0.806387002473206 0.694092722066686 0.859814018315055 H 0.0 **** 0.0
196 H66759 0.796994816636881 0.718994332197701 0.84459413858295 H 0.0 **** 0.0
197 H66761 0.788821804212684 0.7014403707894 0.833521347851055 H 0.0 **** 0.0
198 H66763 0.812367214199025 0.702733006757794 0.813286226355967 H 0.0 **** 0.0
199 H66765 0.836403357748173 0.717638725168398 0.816259167886527 H 0.0 **** 0.0
200 H66767 0.817536259917063 0.74882367453508 0.828537380563455 H 0.0 **** 0.0
201 H66769 0.83866639144379 0.748078861291327 0.821374255520524 H 0.0 **** 0.0
202 H66771 0.829941762506013 0.744947468391551 0.792377764827368 H 0.0 **** 0.0
203 H66773 0.813857513573398 0.75780652463501 0.800652756054453 H 0.0 **** 0.0
204 H66775 0.812944655488793 0.721331625148816 0.78911645060498 H 0.0 **** 0.0
205 H66777 0.797172489217361 0.736903749670666 0.787052188801606 H 0.0 **** 0.0
206 H66779 0.792138062418855 0.733111916674482 0.817088742554552 H 0.0 **** 0.0
207 H66781 0.979935044384233 0.703188348333769 0.807053943246867 H 0.0 **** 0.0
208 H66783 0.992132491013934 0.681750416730063 0.824718086013001 H 0.0 **** 0.0
209 H66785 0.973409909246423 0.69343303472433 0.855785580234129 H 0.0 **** 0.0
210 H66787 0.991162965855508 0.68023052461761 0.854118138107297 H 0.0 **** 0.0
211 H66789 1.00399968352097 0.705065391164096 0.865050767810246 H 0.0 **** 0.0
212 H66791 0.9890657946134 0.718431643223194 0.855272968515531 H 0.0 **** 0.0
213 H66793 1.01703551774188 0.699635309619871 0.836320721656182 H 0.0 **** 0.0
214 H66795 1.01792679744464 0.721227387307184 0.84179464467534 H 0.0 **** 0.0
215 H66797 1.00764527443015 0.713315101841994 0.811117473138727 H 0.0 **** 0.0
216 H66799 0.996492958886778 0.729040072622265 0.822187678622286 H 0.0 **** 0.0
217 H66801 0.95244320640031 0.742132191467082 0.825156614728571 H 0.0 **** 0.0
218 H66803 0.938994762673392 0.770287072509811 0.825690831814573 H 0.0 **** 0.0
219 H66805 0.857962010288297 0.747863500373488 0.858040228757177 H 0.0 **** 0.0
220 H66807 0.843480396741214 0.774016679729192 0.851005115261924 H 0.0 **** 0.0
221 H66809 0.846845241771093 0.798614801246239 0.837670437099255 H 0.0 **** 0.0
222 H66811 0.856281971999815 0.813475780324974 0.871997069545895 H 0.0 **** 0.0
223 H66813 0.822497328771514 0.799476645951293 0.860037418850152 H 0.0 **** 0.0
224 H66815 0.824635211541044 0.812817252320253 0.877887914972809 H 0.0 **** 0.0
225 H66817 0.826214182038075 0.778483015302727 0.88052170727575 H 0.0 **** 0.0
226 H66819 0.837265644522435 0.791909702858272 0.89440827773904 H 0.0 **** 0.0
227 H66821 0.854103314675692 0.767052600880657 0.880625152660399 H 0.0 **** 0.0
228 H66823 0.863896480592059 0.78707281289459 0.88100962283675 H 0.0 **** 0.0
229 H66825 0.901311352404566 0.536800428802669 0.859128930171182 H 0.0 **** 0.0
230 H66827 0.885200293400136 0.554830865432414 0.878823241408367 H 0.0 **** 0.0
231 H66829 0.869367120244099 0.558417404837406 0.863268743010711 H 0.0 **** 0.0
232 H66831 0.890205924719236 0.566356436381139 0.860253413742616 H 0.0 **** 0.0
233 H66833 0.881016357176486 0.512111870653764 0.859102179765559 H 0.0 **** 0.0
234 H66835 0.864396414654373 0.52628345098104 0.864306074942502 H 0.0 **** 0.0
235 H66837 0.881569735098104 0.523330261998727 0.878511718358797 H 0.0 **** 0.0
236 H66839 0.855844193304538 0.673304898678311 0.851816465675778 H 0.0 **** 0.0
237 H66841 0.927997627352598 0.817835707681326 0.823224441382958 H 0.0 **** 0.0
238 H66843 0.929844198289633 0.847457830433434 0.816879590587026 H 0.0 **** 0.0
239 H66845 0.917535562350453 0.874592459052789 0.814879700479108 H 0.0 **** 0.0
240 H66847 0.904953467455248 0.902359604736193 0.812482168282202 H 0.0 **** 0.0
241 H66849 0.881126604782759 0.920967895409076 0.815372266656755 H 0.0 **** 0.0
242 H66851 0.825316900050184 0.916124145967837 0.832963012122102 H 0.0 **** 0.0
243 H66853 0.851892839357653 0.926089946900161 0.822893173856636 H 0.0 **** 0.0
244 H66855 0.819456141685805 0.833306055471185 0.860345183654281 H 0.0 **** 0.0
245 H66857 0.798417501305466 0.843387169243822 0.84687746297973 H 0.0 **** 0.0
246 H66859 0.796223363904323 0.857272087162685 0.864155361112985 H 0.0 **** 0.0
247 H66861 0.771777386392859 0.860446271544273 0.844476809830943 H 0.0 **** 0.0
248 H66863 0.785758124399244 0.863648159772764 0.827288394990734 H 0.0 **** 0.0
249 H66865 0.780522162124872 0.886964592267736 0.858104148343395 H 0.0 **** 0.0
250 H66867 0.77690736494013 0.89253184694529 0.836942037694645 H 0.0 **** 0.0
@<TRIPOS>BOND
1 3 2 1
2 4 3 1
3 5 4 1
4 6 5 1
5 1 2 1
6 1 6 1
7 8 7 1
8 9 8 1
9 10 9 1
10 4 7 1
11 3 10 1
12 12 11 1
13 13 12 1
14 14 13 1
15 8 11 1
16 7 14 1
17 16 15 1
18 17 16 Partial double
19 18 17 1
20 13 15 1
21 12 18 1
22 20 19 Partial double
23 21 20 Partial double
24 22 21 Partial double
25 17 19 Partial double
26 16 22 Partial double
27 24 23 1
28 25 24 1
29 15 25 Double
30 22 23 1
31 27 26 1
32 28 27 Partial double
33 29 28 Partial double
34 21 26 1
35 20 29 Partial double
36 31 30 1
37 32 31 1
38 18 30 1
39 19 32 1
40 34 33 Double
41 35 34 1
42 36 35 1
43 31 33 1
44 30 36 Double
45 38 37 1
46 39 38 1
47 40 39 Double
48 34 37 1
49 33 40 1
50 42 41 1
51 43 42 1
52 44 43 1
53 40 41 1
54 39 44 1
55 46 45 Partial double
56 32 46 1
57 29 45 Partial double
58 48 47 Partial double
59 49 48 1
60 45 49 Partial double
61 28 47 Partial double
62 51 50 Partial double
63 52 51 Partial double
64 53 52 Partial double
65 48 50 Partial double
66 47 53 Partial double
67 55 54 Partial double
68 56 55 Partial double
69 57 56 Partial double
70 52 54 Partial double
71 51 57 Partial double
72 59 58 Partial double
73 60 59 Partial double
74 61 60 Partial double
75 56 58 Partial double
76 55 61 Partial double
77 63 62 Partial double
78 27 63 Partial double
79 53 62 Partial double
80 65 64 Partial double
81 62 65 Partial double
82 54 64 Partial double
83 67 66 Partial double
84 64 67 Partial double
85 61 66 Partial double
86 69 68 Partial double
87 70 69 Partial double
88 66 70 Partial double
89 60 68 Partial double
90 72 71 1
91 73 72 1
92 74 73 1
93 59 71 1
94 58 74 1
95 76 75 1
96 77 76 1
97 78 77 1
98 73 75 1
99 72 78 1
100 80 79 1
101 81 80 1
102 82 81 1
103 78 79 1
104 77 82 1
105 84 83 Partial double
106 85 84 Partial double
107 67 85 Partial double
108 65 83 Partial double
109 87 86 1
110 88 87 1
111 89 88 1
112 84 86 1
113 83 89 1
114 91 90 1
115 92 91 1
116 93 92 1
117 88 90 1
118 87 93 1
119 95 94 Partial double
120 85 95 Partial double
121 70 94 Partial double
122 97 96 Partial double
123 98 97 Partial double
124 94 98 Partial double
125 69 96 Partial double
126 100 99 Partial double
127 101 100 Partial double
128 68 101 Partial double
129 96 99 Partial double
130 103 102 1
131 104 103 Partial double
132 97 102 1
133 99 104 1
134 106 105 1
135 107 106 1
136 100 105 1
137 104 107 Partial double
138 109 108 1
139 110 109 1
140 111 110 1
141 106 108 1
142 105 111 1
143 113 112 1
144 114 113 1
145 103 114 Partial double
146 107 112 Partial double
147 108 115 1
148 112 116 Partial double
149 115 116 Partial double
150 42 117 1
151 117 118 1
152 117 119 1
153 74 120 1
154 122 121 1
155 123 122 Partial double
156 124 123 1
157 114 121 Partial double
158 113 124 Partial double
159 126 125 Partial double
160 127 126 1
161 128 127 Partial double
162 124 125 Partial double
163 123 128 Partial double
164 130 129 Partial double
165 131 130 1
166 132 131 1
167 127 129 Partial double
168 126 132 Partial double
169 134 133 Partial double
170 135 134 Partial double
171 125 135 Partial double
172 132 133 Partial double
173 137 136 Partial double
174 138 137 Partial double
175 131 138 Partial double
176 133 136 Partial double
177 140 139 Partial double
178 134 140 Partial double
179 116 135 Partial double
180 115 139 Partial double
181 142 141 Partial double
182 140 142 Partial double
183 136 141 Partial double
184 144 143 1
185 145 144 1
186 146 145 1
187 142 143 1
188 141 146 1
189 146 147 Double
190 1 148 1
191 1 149 1
192 2 150 1
193 2 151 1
194 3 152 1
195 4 153 1
196 5 154 1
197 5 155 1
198 7 156 1
199 8 157 1
200 9 158 1
201 9 159 1
202 10 160 1
203 10 161 1
204 12 162 1
205 13 163 1
206 14 164 1
207 14 165 1
208 18 166 1
209 23 167 1
210 23 168 1
211 24 169 1
212 24 170 1
213 25 171 1
214 35 173 1
215 35 174 1
216 36 175 1
217 37 176 1
218 37 177 1
219 38 178 1
220 38 179 1
221 41 180 1
222 41 181 1
223 42 182 1
224 43 183 1
225 43 184 1
226 44 185 1
227 44 186 1
228 46 187 1
229 50 188 1
230 57 189 1
231 63 190 1
232 72 191 1
233 73 192 1
234 74 193 1
235 75 194 1
236 75 195 1
237 76 196 1
238 76 197 1
239 77 198 1
240 78 199 1
241 79 200 1
242 79 201 1
243 80 202 1
244 80 203 1
245 81 204 1
246 81 205 1
247 82 206 1
248 87 207 1
249 88 208 1
250 90 209 1
251 90 210 1
252 91 211 1
253 91 212 1
254 92 213 1
255 92 214 1
256 93 215 1
257 93 216 1
258 95 217 1
259 98 218 1
260 101 219 1
261 105 220 1
262 106 221 1
263 108 222 1
264 109 223 1
265 109 224 1
266 110 225 1
267 110 226 1
268 111 227 1
269 111 228 1
270 117 229 1
271 118 230 1
272 118 231 1
273 118 232 1
274 119 233 1
275 119 234 1
276 119 235 1
277 120 236 1
278 121 237 1
279 122 238 1
280 128 239 1
281 129 240 1
282 130 241 1
283 137 242 1
284 138 243 1
285 139 244 1
286 143 245 1
287 143 246 1
288 144 247 1
289 144 248 1
290 145 249 1
291 145 250 1
292 31 172 1
@<TRIPOS>MOLECULE
Sketch 4
250 292
SMALL
USER_CHARGES


@<TRIPOS>ATOM
1 C66870 0.140200112739209 0.139083398471268 0.246929693022355 C 0.0 **** 0.0
2 C66871 0.140921700295396 0.119579635127185 0.245528475550361 C 0.0 **** 0.0
3 C66872 0.151428680279643 0.113807845734511 0.230190382739626 C 0.0 **** 0.0
4 C66873 0.145492386811304 0.122789203937742 0.213451884358503 C 0.0 **** 0.0
5 C66874 0.134072685033108 0.13798833024268 0.217906447697058 C 0.0 **** 0.0
6 O66875 0.14156486484697 0.147631150079692 0.231111574343987 O 0.0 **** 0.0
7 C66882 0.137869699226992 0.11023733751729 0.20049534136203 C 0.0 **** 0.0
8 C66883 0.150641444755618 0.0959427819930123 0.196207129621562 C 0.0 **** 0.0
9 C66884 0.160782380111846 0.0899612311489668 0.211690115586274 C 0.0 **** 0.0
10 C66885 0.152392129367333 0.0944466746636334 0.228507183312281 C 0.0 **** 0.0
11 O66891 0.163311817963531 0.101325485138992 0.184559654760275 O 0.0 **** 0.0
12 C66892 0.157140153341269 0.107463287481921 0.168724160490425 C 0.0 **** 0.0
13 C66893 0.145877847677756 0.122934158672773 0.171996061547994 C 0.0 **** 0.0
14 C66894 0.131305894422899 0.118465090571206 0.183979239319637 C 0.0 **** 0.0
15 C66900 0.140363615170731 0.130608797391441 0.155357734742357 C 0.0 **** 0.0
16 C66901 0.136783632954334 0.118835787961711 0.140770868629187 C 0.0 **** 0.0
17 C66902 0.141264742764762 0.101877972584232 0.141631397095384 C 0.0 **** 0.0
18 C66903 0.147893608669305 0.094155428694514 0.158075459926197 C 0.0 **** 0.0
19 C66909 0.138928157104228 0.0917479435578908 0.127441594336037 C 0.0 **** 0.0
20 C66910 0.130525593201917 0.0982240649492268 0.11345288316629 C 0.0 **** 0.0
21 C66911 0.12559880564243 0.115040616270066 0.112859763986415 C 0.0 **** 0.0
22 C66912 0.129269132494897 0.125546181116052 0.126402063018935 C 0.0 **** 0.0
23 C66918 0.124144161749746 0.14398010037111 0.125690795200264 C 0.0 **** 0.0
24 C66919 0.136886602834549 0.154928795735538 0.135625251747436 C 0.0 **** 0.0
25 C66920 0.140372267063081 0.147466062191498 0.152857633950819 C 0.0 **** 0.0
26 O66925 0.117088931725457 0.1217864952918 0.0990614162843219 O 0.0 **** 0.0
27 C66926 0.11448100751734 0.112018020325153 0.0848225609267433 C 0.0 **** 0.0
28 C66927 0.118053184491886 0.0948634936104054 0.0841687809121162 C 0.0 **** 0.0
29 C66928 0.126112147168292 0.0865988715331311 0.0992363691961668 C 0.0 **** 0.0
30 C66934 0.157704961216125 0.0782950564949289 0.154235769415019 C 0.0 **** 0.0
31 C66935 0.14678966907708 0.0657784024097122 0.144626407321646 C 0.0 **** 0.0
32 C66936 0.14574798972351 0.0738336281470541 0.126870906172601 C 0.0 **** 0.0
33 C66941 0.153813329926452 0.0474682911296418 0.144317193722021 C 0.0 **** 0.0
34 C66942 0.170810114167401 0.04547494722867 0.146796977535651 C 0.0 **** 0.0
35 C66943 0.182896531181109 0.0596178334062927 0.151550465031019 C 0.0 **** 0.0
36 C66944 0.174207360871095 0.0756607158067854 0.15709086834537 C 0.0 **** 0.0
37 C66950 0.179564475216555 0.0286738717263489 0.147112078223532 C 0.0 **** 0.0
38 C66951 0.168791919782239 0.0141427591951372 0.140081692812652 C 0.0 **** 0.0
39 C66952 0.15017750528791 0.0179066821030295 0.139907423240656 C 0.0 **** 0.0
40 C66953 0.143506833987753 0.0337040469950408 0.142017178159996 C 0.0 **** 0.0
41 C66959 0.124020311655314 0.0353462800913894 0.141428308475319 C 0.0 **** 0.0
42 C66960 0.114730711987554 0.0187343059846788 0.144530361467653 C 0.0 **** 0.0
43 C66961 0.121662870641725 0.00542160298135471 0.132189709914073 C 0.0 **** 0.0
44 C66962 0.14022619604395 0.00206585289357814 0.136045118534673 C 0.0 **** 0.0
45 C66968 0.129392902034428 0.0697646387683372 0.100017580870773 C 0.0 **** 0.0
46 C66969 0.138482001675019 0.0628748632153354 0.112872993444408 C 0.0 **** 0.0
47 C66973 0.115696305132219 0.0859881277710636 0.0687758399934388 C 0.0 **** 0.0
48 C66974 0.119576277174059 0.0686507552068819 0.0670251484388696 C 0.0 **** 0.0
49 S66975 0.121432563046795 0.0560658399250787 0.0847646876693591 S 0.0 **** 0.0
50 C66980 0.121808370271151 0.0612279748887166 0.0515553878320351 C 0.0 **** 0.0
51 C66981 0.11929345333367 0.0709107405122059 0.0367696829695215 C 0.0 **** 0.0
52 C66982 0.113679707913916 0.087876817114338 0.0381278138451479 C 0.0 **** 0.0
53 C66983 0.111173791368083 0.0949584036437476 0.0541012351042884 C 0.0 **** 0.0
54 C66989 0.110584452711483 0.0972092706354353 0.0234670855773432 C 0.0 **** 0.0
55 C66990 0.113588762860573 0.0901732918410874 0.00750128821690593 C 0.0 **** 0.0
56 C66991 0.118245511615673 0.0729871902907345 0.0059091429380396 C 0.0 **** 0.0
57 C66992 0.12153291899363 0.0637878404626172 0.0207248894131494 C 0.0 **** 0.0
58 C66998 0.118977492680839 0.0650142565654473 -0.00995399968773628 C 0.0 **** 0.0
59 C66999 0.117842855329867 0.0749110140637031 -0.024278452347281 C 0.0 **** 0.0
60 C67000 0.113380883123914 0.0922946574295538 -0.0229847467010614 C 0.0 **** 0.0
61 C67001 0.110176903395205 0.0993569031417781 -0.00703726780862628 C 0.0 **** 0.0
62 C67007 0.105364496264012 0.111652153180832 0.05533171701276 C 0.0 **** 0.0
63 C67008 0.107888003456331 0.120048775769794 0.0708673851320145 C 0.0 **** 0.0
64 C67012 0.10288379424631 0.113053325024245 0.0247593063836375 C 0.0 **** 0.0
65 C67013 0.0987429800523418 0.119607022998887 0.0406973530280838 C 0.0 **** 0.0
66 C67017 0.10175669809342 0.114863481642548 -0.00569532294470224 C 0.0 **** 0.0
67 C67018 0.0978214013399319 0.121392702344499 0.0102378823536815 C 0.0 **** 0.0
68 C67022 0.109559093260523 0.102051088513762 -0.0376457484878954 C 0.0 **** 0.0
69 C67023 0.0987180477565266 0.116027373634207 -0.0359948206209941 C 0.0 **** 0.0
70 C67024 0.0955566052140252 0.122803422934489 -0.020187904412868 C 0.0 **** 0.0
71 O67029 0.120307302639192 0.0678697048613287 -0.0401923187472031 O 0.0 **** 0.0
72 C67030 0.130784735194157 0.0531705074013446 -0.0407918014033572 C 0.0 **** 0.0
73 C67031 0.123071352727501 0.0397622821994484 -0.0293425442495539 C 0.0 **** 0.0
74 C67032 0.121931481431645 0.045963781993546 -0.0111372055517403 C 0.0 **** 0.0
75 C67038 0.13232774044799 0.0226419647444571 -0.0310116126533129 C 0.0 **** 0.0
76 C67039 0.151660077615649 0.024529766100549 -0.0337555475170966 C 0.0 **** 0.0
77 C67040 0.158959674098113 0.0417724116569285 -0.0285856450372807 C 0.0 **** 0.0
78 C67041 0.149534810523721 0.0571177100342536 -0.0368953738039897 C 0.0 **** 0.0
79 C67047 0.159081092167412 0.0640818742665384 -0.0523892988082704 C 0.0 **** 0.0
80 C67048 0.17752521046096 0.0686851095361575 -0.047675983046707 C 0.0 **** 0.0
81 C67049 0.183957781210778 0.05890831918922 -0.0320029850589812 C 0.0 **** 0.0
82 N67050 0.17727666672125 0.0417963971371696 -0.0314816723355743 N 0.0 **** 0.0
83 C67056 0.0873654371443027 0.133372530335291 0.0421638320335074 C 0.0 **** 0.0
84 C67057 0.0820796909421646 0.141717881839783 0.0277114072599032 C 0.0 **** 0.0
85 C67058 0.0873546892311988 0.13570007430138 0.0117200677432444 C 0.0 **** 0.0
86 O67063 0.0714583625790069 0.155682659886674 0.0282561432775014 O 0.0 **** 0.0
87 C67064 0.0716439107876111 0.163579674840511 0.0444908274575957 C 0.0 **** 0.0
88 C67065 0.0684766645741277 0.150477141866746 0.0578297718934832 C 0.0 **** 0.0
89 O67066 0.0817210564933713 0.138223306612524 0.0580680181402888 O 0.0 **** 0.0
90 C67072 0.0509773527158297 0.141945989932963 0.0557386830187731 C 0.0 **** 0.0
91 C67073 0.0374331014583508 0.153930226438697 0.0483390504539906 C 0.0 **** 0.0
92 C67074 0.0412970767970599 0.172456381092 0.0524714611022538 C 0.0 **** 0.0
93 C67075 0.0584630760584827 0.177944259975856 0.0448743851740733 C 0.0 **** 0.0
94 C67081 0.0847271759471153 0.137021391017717 -0.0189534349781526 C 0.0 **** 0.0
95 C67082 0.0811545829539685 0.143623946349024 -0.00286858484708827 C 0.0 **** 0.0
96 C67086 0.0907205102352448 0.122612622875304 -0.0503989677986568 C 0.0 **** 0.0
97 C67087 0.0786045682953619 0.135655732393631 -0.0489914144442974 C 0.0 **** 0.0
98 C67088 0.0763269301895093 0.14318438841954 -0.0335339675785554 C 0.0 **** 0.0
99 C67093 0.0950085387949808 0.116760925139752 -0.0666073199228414 C 0.0 **** 0.0
100 C67094 0.107361349200508 0.104566327402155 -0.0685247717983289 C 0.0 **** 0.0
101 C67095 0.114742295192634 0.097998770844798 -0.0541772861081947 C 0.0 **** 0.0
102 O67100 0.0691887395454544 0.141117524082572 -0.0626658606348847 O 0.0 **** 0.0
103 C67101 0.0741260978792793 0.136506795295134 -0.0787900945116618 C 0.0 **** 0.0
104 C67102 0.0865085829193107 0.124718622843664 -0.0814612870258109 C 0.0 **** 0.0
105 C67107 0.113239324056752 0.0979141053213033 -0.0854766894563174 C 0.0 **** 0.0
106 C67108 0.105809771315602 0.10816644728602 -0.101123855114594 C 0.0 **** 0.0
107 C67109 0.0913842517898883 0.120443249173356 -0.0974563698390662 C 0.0 **** 0.0
108 C67114 0.101058943756741 0.0963831687382418 -0.116008048517541 C 0.0 **** 0.0
109 C67115 0.115109360503567 0.0832591816052294 -0.118550792605767 C 0.0 **** 0.0
110 C67116 0.116786944391203 0.0715203717145975 -0.103072846601886 C 0.0 **** 0.0
111 C67117 0.109156221913069 0.0790505117788218 -0.0868987509652581 C 0.0 **** 0.0
112 C67123 0.0834274633560279 0.127670777370422 -0.110927070668924 C 0.0 **** 0.0
113 C67124 0.0712838104621526 0.139780957544589 -0.108365822874827 C 0.0 **** 0.0
114 C67125 0.0664245731925222 0.144002050840546 -0.0923590001520599 C 0.0 **** 0.0
115 C67130 0.0975582376740514 0.107563471518187 -0.131372164822763 C 0.0 **** 0.0
116 C67132 0.0886409441514324 0.122414748431736 -0.128502394678479 C 0.0 **** 0.0
117 C67135 0.0952618046727498 0.0208319959395303 0.14402251251322 C 0.0 **** 0.0
118 C67137 0.0881737660952391 0.0255399382938738 0.126580574620991 C 0.0 **** 0.0
119 C67139 0.0860603468055433 0.00503067883143806 0.150506772879396 C 0.0 **** 0.0
120 O67141 0.10846894727486 0.0373066544707035 -0.00282912888524431 O 0.0 **** 0.0
121 C67143 0.0539168466839291 0.155753829947713 -0.0900256249914258 C 0.0 **** 0.0
122 C67144 0.0466004824942105 0.163548538713217 -0.103545378813906 C 0.0 **** 0.0
123 C67145 0.0519384747694924 0.159955523505329 -0.119558685426713 C 0.0 **** 0.0
124 C67146 0.0641673297641827 0.147927218119709 -0.121850362778964 C 0.0 **** 0.0
125 C67152 0.0702659963810338 0.144294823394801 -0.139198925350594 C 0.0 **** 0.0
126 C67153 0.0635890771719456 0.153181332733331 -0.15240077312602 C 0.0 **** 0.0
127 C67154 0.0504014706315037 0.166006521195093 -0.149137859446026 C 0.0 **** 0.0
128 C67155 0.0449853132526685 0.16877138684937 -0.132904276690825 C 0.0 **** 0.0
129 C67161 0.0439190031341285 0.174942980040753 -0.162453589333243 C 0.0 **** 0.0
130 C67162 0.049424908382707 0.172278783647909 -0.178697782468074 C 0.0 **** 0.0
131 C67163 0.0616363251394163 0.160535739375144 -0.182320962261759 C 0.0 **** 0.0
132 C67164 0.0691174564605892 0.15033805938219 -0.168545006025713 C 0.0 **** 0.0
133 C67170 0.0813881571934162 0.137977855791108 -0.172016814883205 C 0.0 **** 0.0
134 C67171 0.0877658795579508 0.128424778698649 -0.158612605410225 C 0.0 **** 0.0
135 C67172 0.0826550769674154 0.13197789143565 -0.142050531058913 C 0.0 **** 0.0
136 C67177 0.0867882421280934 0.134793603183182 -0.188565893265887 C 0.0 **** 0.0
137 C67178 0.0791500079701245 0.146338955514851 -0.201966210986257 C 0.0 **** 0.0
138 C67179 0.0670807505470294 0.158215628140887 -0.198503732382332 C 0.0 **** 0.0
139 C67184 0.101752326399622 0.103605999592679 -0.147863228412533 C 0.0 **** 0.0
140 C67185 0.098206743845225 0.114453254556192 -0.161790550335105 C 0.0 **** 0.0
141 C67190 0.0983171425306388 0.121770842643443 -0.191630735317416 C 0.0 **** 0.0
142 C67191 0.104085400788474 0.111588090628284 -0.178407604546197 C 0.0 **** 0.0
143 C67195 0.116030910876736 0.0968868846006364 -0.182049432261798 C 0.0 **** 0.0
144 C67196 0.129366151517755 0.102093268563686 -0.195057788795438 C 0.0 **** 0.0
145 C67197 0.120358592210695 0.107428543446282 -0.211030360105355 C 0.0 **** 0.0
146 C67198 0.104771030531492 0.118221938654214 -0.20917106193956 C 0.0 **** 0.0
147 O67204 0.0981877681102647 0.123062261808214 -0.222140645147093 O 0.0 **** 0.0
148 H67206 0.150874005929938 0.143676159375052 0.254551810424174 H 0.0 **** 0.0
149 H67208 0.128525449648832 0.143067858327954 0.253432794011472 H 0.0 **** 0.0
150 H67210 0.145999743133921 0.11409209298454 0.257300751802789 H 0.0 **** 0.0
151 H67212 0.128018369310744 0.114470037416168 0.244194627856446 H 0.0 **** 0.0
152 H67214 0.164478623173974 0.118121449814943 0.232611648247039 H 0.0 **** 0.0
153 H67216 0.156952167617318 0.128171222139425 0.207565251460623 H 0.0 **** 0.0
154 H67218 0.121212137068244 0.133795113601151 0.221371164685661 H 0.0 **** 0.0
155 H67220 0.132682372874344 0.146605475222606 0.207099770176152 H 0.0 **** 0.0
156 H67222 0.126945606446868 0.104252171662758 0.206806857207521 H 0.0 **** 0.0
157 H67224 0.143480506774173 0.0851690315184521 0.190959373955878 H 0.0 **** 0.0
158 H67226 0.173049707533531 0.0965191935375803 0.211209627847676 H 0.0 **** 0.0
159 H67228 0.16375782900367 0.0764103910403988 0.210833860124838 H 0.0 **** 0.0
160 H67230 0.159608518548839 0.0891517958438323 0.239204069817844 H 0.0 **** 0.0
161 H67232 0.139668563749825 0.0887881681439636 0.229090742296516 H 0.0 **** 0.0
162 H67234 0.168583718051323 0.111569261420949 0.161937244795775 H 0.0 **** 0.0
163 H67236 0.153814766982362 0.132363200208042 0.17849483925919 H 0.0 **** 0.0
164 H67238 0.122697299671006 0.109453497925279 0.1777236291483 H 0.0 **** 0.0
165 H67240 0.123487891162544 0.129666715320986 0.186711509033609 H 0.0 **** 0.0
166 H67242 0.136734708822625 0.0899499270122569 0.165396336594882 H 0.0 **** 0.0
167 H67244 0.123449349509063 0.148465395019493 0.112541015242907 H 0.0 **** 0.0
168 H67246 0.111362611082973 0.145373848076379 0.131066187293746 H 0.0 **** 0.0
169 H67248 0.132169254107353 0.167979538933446 0.136830983614559 H 0.0 **** 0.0
170 H67250 0.148866243838942 0.155671110266984 0.128546219811864 H 0.0 **** 0.0
171 H67252 0.143886480297469 0.156296118802218 0.162792944744863 H 0.0 **** 0.0
172 H67254 0.134131361323033 0.0657989370977934 0.150427759801493 H 0.0 **** 0.0
173 H67255 0.191427428663241 0.062315984158835 0.140856100350119 H 0.0 **** 0.0
174 H67257 0.190945044593882 0.055163199975451 0.162099227210259 H 0.0 **** 0.0
175 H67259 0.181977131366725 0.0852523029722736 0.163225432774627 H 0.0 **** 0.0
176 H67261 0.191538751135237 0.0294550129597034 0.139969934489801 H 0.0 **** 0.0
177 H67263 0.183033683734298 0.0258803196199263 0.160316731171917 H 0.0 **** 0.0
178 H67265 0.171231809356068 0.00267455901466361 0.147645169862964 H 0.0 **** 0.0
179 H67267 0.172790295174017 0.0112445113410687 0.127036693452782 H 0.0 **** 0.0
180 H67269 0.119765900144415 0.0446103516502628 0.150902994878347 H 0.0 **** 0.0
181 H67271 0.120267363498735 0.0403746138861044 0.129025422204537 H 0.0 **** 0.0
182 H67273 0.117896824187063 0.0144868285476099 0.157470446634806 H 0.0 **** 0.0
183 H67275 0.120249763227371 0.0101002010127308 0.119129599090613 H 0.0 **** 0.0
184 H67277 0.114595079630907 -0.00656060557061856 0.132902141426864 H 0.0 **** 0.0
185 H67279 0.146272617585226 -0.0047144803589004 0.12543946782092 H 0.0 **** 0.0
186 H67281 0.14109046798947 -0.00627427623486279 0.147145992907481 H 0.0 **** 0.0
187 H67283 0.14118436246542 0.0493904433195915 0.113058589063325 H 0.0 **** 0.0
188 H67285 0.12525764161249 0.0478478243801892 0.0504198330236183 H 0.0 **** 0.0
189 H67287 0.125316792266126 0.050466146124392 0.0201517411414423 H 0.0 **** 0.0
190 H67289 0.105267551931693 0.133610956296995 0.0721791295558375 H 0.0 **** 0.0
191 H67291 0.130050046038925 0.0483303210152207 -0.0538645652141008 H 0.0 **** 0.0
192 H67293 0.109849898418854 0.0381858396132092 -0.0335645941203304 H 0.0 **** 0.0
193 H67295 0.133871705324731 0.0431086286104687 -0.0045237511930994 H 0.0 **** 0.0
194 H67297 0.129843034184998 0.0147370866000406 -0.0198307027522006 H 0.0 **** 0.0
195 H67299 0.127019710184434 0.0155153637889798 -0.0417505676413602 H 0.0 **** 0.0
196 H67301 0.154640309390631 0.0226361537903973 -0.047214576734986 H 0.0 **** 0.0
197 H67303 0.158485355481815 0.0143967451808313 -0.0270500934673415 H 0.0 **** 0.0
198 H67305 0.157474126401611 0.0429446873805134 -0.0147765393293637 H 0.0 **** 0.0
199 H67307 0.149647409914431 0.0674472757557411 -0.0275162441930724 H 0.0 **** 0.0
200 H67309 0.159208116801116 0.0542991791966086 -0.0623238807986812 H 0.0 **** 0.0
201 H67311 0.152432624444806 0.0750452661940188 -0.0578061367866372 H 0.0 **** 0.0
202 H67313 0.178687987590276 0.0823306136688546 -0.0451405998850588 H 0.0 **** 0.0
203 H67315 0.185809621878924 0.0661926376711214 -0.0586062032799805 H 0.0 **** 0.0
204 H67317 0.179994216110828 0.0654843254156484 -0.0203675829897977 H 0.0 **** 0.0
205 H67319 0.19786968644818 0.0585876550437053 -0.0316437058475938 H 0.0 **** 0.0
206 H67321 0.179937277104774 0.035995684327911 -0.0424358444500457 H 0.0 **** 0.0
207 H67323 0.0844027208370419 0.168867152819793 0.0464242391550964 H 0.0 **** 0.0
208 H67325 0.0687579362392056 0.156942563030634 0.0701812633601982 H 0.0 **** 0.0
209 H67327 0.0524537300363141 0.130870154869629 0.0474333307762799 H 0.0 **** 0.0
210 H67329 0.046753002124992 0.136911663590166 0.0680244244697881 H 0.0 **** 0.0
211 H67331 0.0248037938145696 0.150369504065944 0.0529585627274592 H 0.0 **** 0.0
212 H67333 0.0371207765109598 0.152550320850377 0.0344635537367712 H 0.0 **** 0.0
213 H67335 0.0416249074130189 0.173973406803211 0.0663311099897478 H 0.0 **** 0.0
214 H67337 0.031128399687697 0.180807004400388 0.0478618148200826 H 0.0 **** 0.0
215 H67339 0.0631695700688778 0.189082715429963 0.0517787405541647 H 0.0 **** 0.0
216 H67341 0.0565706030138195 0.182062830620362 0.0317088886475924 H 0.0 **** 0.0
217 H67343 0.0724437297153809 0.154381881822261 -0.00172392780132581 H 0.0 **** 0.0
218 H67345 0.0673160168127311 0.153689932978234 -0.0322050409930539 H 0.0 **** 0.0
219 H67347 0.124649536452456 0.0885806113105961 -0.0563723489800613 H 0.0 **** 0.0
220 H67349 0.127122341468948 0.099231907145901 -0.0861617877337406 H 0.0 **** 0.0
221 H67351 0.116437123762177 0.116023853172022 -0.105643917242807 H 0.0 **** 0.0
222 H67353 0.0892717213165247 0.0895085096978851 -0.112979122461927 H 0.0 **** 0.0
223 H67355 0.127053814323377 0.0901617342490589 -0.120083736329908 H 0.0 **** 0.0
224 H67357 0.11323512863938 0.0755090021238893 -0.129946990780294 H 0.0 **** 0.0
225 H67359 0.130237442099587 0.0685861676193893 -0.101009128239991 H 0.0 **** 0.0
226 H67361 0.110426324735859 0.0594765446452975 -0.105613616234222 H 0.0 **** 0.0
227 H67363 0.113723694932463 0.0718178976991171 -0.0759005227876861 H 0.0 **** 0.0
228 H67365 0.0953286337506083 0.0773996586464057 -0.0871246449909625 H 0.0 **** 0.0
229 H67367 0.0920392542406549 0.031266937060726 0.152768934997835 H 0.0 **** 0.0
230 H67369 0.0743779266622167 0.0273506440747033 0.127276277126243 H 0.0 **** 0.0
231 H67371 0.0905979076523296 0.0154746109664341 0.11727872290484 H 0.0 **** 0.0
232 H67373 0.0936165041684138 0.0373311422537961 0.121603624572295 H 0.0 **** 0.0
233 H67375 0.0902257367083482 0.00148405702397175 0.163295530417101 H 0.0 **** 0.0
234 H67377 0.0882270529664998 -0.00585953019238062 0.142121448604709 H 0.0 **** 0.0
235 H67379 0.0723146221709589 0.00720818642104998 0.151013001063303 H 0.0 **** 0.0
236 H67381 0.110133741786605 0.0256771199740517 -0.00544097636529662 H 0.0 **** 0.0
237 H67383 0.0496386917875768 0.159277541922834 -0.0773953927175693 H 0.0 **** 0.0
238 H67385 0.0367711649629344 0.172972430448184 -0.101268784255162 H 0.0 **** 0.0
239 H67387 0.0352620183148755 0.178238668211054 -0.130493173144217 H 0.0 **** 0.0
240 H67389 0.0342058073808287 0.184469139788171 -0.160396844261526 H 0.0 **** 0.0
241 H67391 0.0437629011222322 0.179805626658458 -0.188799474352391 H 0.0 **** 0.0
242 H67393 0.0832453664961479 0.145306089976491 -0.215026511580576 H 0.0 **** 0.0
243 H67395 0.0619689859937723 0.165734365116887 -0.208881534095321 H 0.0 **** 0.0
244 H67397 0.108476368971347 0.091708389488554 -0.149986917988413 H 0.0 **** 0.0
245 H67399 0.12256976270821 0.0924962460083124 -0.170640018076968 H 0.0 **** 0.0
246 H67401 0.108777533943081 0.0859491207730659 -0.186847794973428 H 0.0 **** 0.0
247 H67403 0.138074504685733 0.0915864223099023 -0.19782819284336 H 0.0 **** 0.0
248 H67405 0.137048893318243 0.112491045739435 -0.189889295725586 H 0.0 **** 0.0
249 H67407 0.11547266243833 0.0965064619312844 -0.218171020054549 H 0.0 **** 0.0
250 H67409 0.128020044191392 0.114716305267984 -0.220054747720059 H 0.0 **** 0.0
@<TRIPOS>BOND
1 3 2 1
2 4 3 1
3 5 4 1
4 6 5 1
5 1 2 1
6 1 6 1
7 8 7 1
8 9 8 1
9 10 9 1
10 4 7 1
11 3 10 1
12 12 11 1
13 13 12 1
14 14 13 1
15 8 11 1
16 7 14 1
17 16 15 1
18 17 16 Partial double
19 18 17 1
20 13 15 1
21 12 18 1
22 20 19 Partial double
23 21 20 Partial double
24 22 21 Partial double
25 17 19 Partial double
26 16 22 Partial double
27 24 23 1
28 25 24 1
29 15 25 Double
30 22 23 1
31 27 26 1
32 28 27 Partial double
33 29 28 Partial double
34 21 26 1
35 20 29 Partial double
36 31 30 1
37 32 31 1
38 18 30 1
39 19 32 1
40 34 33 Double
41 35 34 1
42 36 35 1
43 31 33 1
44 30 36 Double
45 38 37 1
46 39 38 1
47 40 39 Double
48 34 37 1
49 33 40 1
50 42 41 1
51 43 42 1
52 44 43 1
53 40 41 1
54 39 44 1
55 46 45 Partial double
56 32 46 1
57 29 45 Partial double
58 48 47 Partial double
59 49 48 1
60 45 49 Partial double
61 28 47 Partial double
62 51 50 Partial double
63 52 51 Partial double
64 53 52 Partial double
65 48 50 Partial double
66 47 53 Partial double
67 55 54 Partial double
68 56 55 Partial double
69 57 56 Partial double
70 52 54 Partial double
71 51 57 Partial double
72 59 58 Partial double
73 60 59 Partial double
74 61 60 Partial double
75 56 58 Partial double
76 55 61 Partial double
77 63 62 Partial double
78 27 63 Partial double
79 53 62 Partial double
80 65 64 Partial double
81 62 65 Partial double
82 54 64 Partial double
83 67 66 Partial double
84 64 67 Partial double
85 61 66 Partial double
86 69 68 Partial double
87 70 69 Partial double
88 66 70 Partial double
89 60 68 Partial double
90 72 71 1
91 73 72 1
92 74 73 1
93 59 71 1
94 58 74 1
95 76 75 1
96 77 76 1
97 78 77 1
98 73 75 1
99 72 78 1
100 80 79 1
101 81 80 1
102 82 81 1
103 78 79 1
104 77 82 1
105 84 83 Partial double
106 85 84 Partial double
107 67 85 Partial double
108 65 83 Partial double
109 87 86 1
110 88 87 1
111 89 88 1
112 84 86 1
113 83 89 1
114 91 90 1
115 92 91 1
116 93 92 1
117 88 90 1
118 87 93 1
119 95 94 Partial double
120 85 95 Partial double
121 70 94 Partial double
122 97 96 Partial double
123 98 97 Partial double
124 94 98 Partial double
125 69 96 Partial double
126 100 99 Partial double
127 101 100 Partial double
128 68 101 Partial double
129 96 99 Partial double
130 103 102 1
131 104 103 Partial double
132 97 102 1
133 99 104 1
134 106 105 1
135 107 106 1
136 100 105 1
137 104 107 Partial double
138 109 108 1
139 110 109 1
140 111 110 1
141 106 108 1
142 105 111 1
143 113 112 1
144 114 113 1
145 103 114 Partial double
146 107 112 Partial double
147 108 115 1
148 112 116 Partial double
149 115 116 Partial double
150 42 117 1
151 117 118 1
152 117 119 1
153 74 120 1
154 122 121 1
155 123 122 Partial double
156 124 123 1
157 114 121 Partial double
158 113 124 Partial double
159 126 125 Partial double
160 127 126 1
161 128 127 Partial double
162 124 125 Partial double
163 123 128 Partial double
164 130 129 Partial double
165 131 130 1
166 132 131 1
167 127 129 Partial double
168 126 132 Partial double
169 134 133 Partial double
170 135 134 Partial double
171 125 135 Partial double
172 132 133 Partial double
173 137 136 Partial double
174 138 137 Partial double
175 131 138 Partial double
176 133 136 Partial double
177 140 139 Partial double
178 134 140 Partial double
179 116 135 Partial double
180 115 139 Partial double
181 142 141 Partial double
182 140 142 Partial double
183 136 141 Partial double
184 144 143 1
185 145 144 1
186 146 145 1
187 142 143 1
188 141 146 1
189 146 147 Double
190 1 148 1
191 1 149 1
192 2 150 1
193 2 151 1
194 3 152 1
195 4 153 1
196 5 154 1
197 5 155 1
198 7 156 1
199 8 157 1
200 9 158 1
201 9 159 1
202 10 160 1
203 10 161 1
204 12 162 1
205 13 163 1
206 14 164 1
207 14 165 1
208 18 166 1
209 23 167 1
210 23 168 1
211 24 169 1
212 24 170 1
213 25 171 1
214 35 173 1
215 35 174 1
216 36 175 1
217 37 176 1
218 37 177 1
219 38 178 1
220 38 179 1
221 41 180 1
222 41 181 1
223 42 182 1
224 43 183 1
225 43 184 1
226 44 185 1
227 44 186 1
228 46 187 1
229 50 188 1
230 57 189 1
231 63 190 1
232 72 191 1
233 73 192 1
234 74 193 1
235 75 194 1
236 75 195 1
237 76 196 1
238 76 197 1
239 77 198 1
240 78 199 1
241 79 200 1
242 79 201 1
243 80 202 1
244 80 203 1
245 81 204 1
246 81 205 1
247 82 206 1
248 87 207 1
249 88 208 1
250 90 209 1
251 90 210 1
252 91 211 1
253 91 212 1
254 92 213 1
255 92 214 1
256 93 215 1
257 93 216 1
258 95 217 1
259 98 218 1
260 101 219 1
261 105 220 1
262 106 221 1
263 108 222 1
264 109 223 1
265 109 224 1
266 110 225 1
267 110 226 1
268 111 227 1
269 111 228 1
270 117 229 1
271 118 230 1
272 118 231 1
273 118 232 1
274 119 233 1
275 119 234 1
276 119 235 1
277 120 236 1
278 121 237 1
279 122 238 1
280 128 239 1
281 129 240 1
282 130 241 1
283 137 242 1
284 138 243 1
285 139 244 1
286 143 245 1
287 143 246 1
288 144 247 1
289 144 248 1
290 145 249 1
291 145 250 1
292 31 172 1
@<TRIPOS>MOLECULE
Sketch 4
250 292
SMALL
USER_CHARGES


@<TRIPOS>ATOM
1 C67412 0.39594767060162 0.772296820028492 0.293139375764646 C 0.0 **** 0.0
2 C67413 0.412724887885922 0.771436633481632 0.303270762169322 C 0.0 **** 0.0
3 C67414 0.415631559953055 0.787958183863774 0.313352853375156 C 0.0 **** 0.0
4 C67415 0.411004021609959 0.803171863229608 0.301902146470957 C 0.0 **** 0.0
5 C67416 0.392283291127019 0.801216684573092 0.295914840530528 C 0.0 **** 0.0
6 O67417 0.385244231523874 0.78506618094865 0.299809188446858 O 0.0 **** 0.0
7 C67424 0.423803392378429 0.804689123376042 0.287030641711331 C 0.0 **** 0.0
8 C67425 0.442596010919764 0.802734746394578 0.292940540489112 C 0.0 **** 0.0
9 C67426 0.444311833826403 0.802737071549613 0.312196772160945 C 0.0 **** 0.0
10 C67427 0.433627528100925 0.789176480762902 0.320935165135096 C 0.0 **** 0.0
11 O67433 0.453012867329402 0.816409778490272 0.287497687746273 O 0.0 **** 0.0
12 C67434 0.453368677797573 0.81902965975256 0.269638958079887 C 0.0 **** 0.0
13 C67435 0.435217796939877 0.821875133322445 0.262367869573084 C 0.0 **** 0.0
14 C67436 0.422108021886533 0.821256297553213 0.276907205359759 C 0.0 **** 0.0
15 C67442 0.429548556975232 0.810878333189506 0.247651651091809 C 0.0 **** 0.0
16 C67443 0.440977155847717 0.797214414208942 0.240838732240208 C 0.0 **** 0.0
17 C67444 0.457280708649897 0.795279926849122 0.246881190385157 C 0.0 **** 0.0
18 C67445 0.464974054120987 0.805393787729076 0.261196057515798 C 0.0 **** 0.0
19 C67451 0.468244275354923 0.784253334175265 0.238644202615868 C 0.0 **** 0.0
20 C67452 0.462771031109185 0.775524977130143 0.224470386711207 C 0.0 **** 0.0
21 C67453 0.446018857411832 0.776298918365676 0.219358324497837 C 0.0 **** 0.0
22 C67454 0.434990902941827 0.787097681246295 0.227733047680939 C 0.0 **** 0.0
23 C67460 0.416642733828311 0.78790490428815 0.222378661335575 C 0.0 **** 0.0
24 C67461 0.409798863161245 0.806177222840607 0.223362219315624 C 0.0 **** 0.0
25 C67462 0.415315164718304 0.815088698313969 0.23924188324328 C 0.0 **** 0.0
26 O67467 0.440113029293248 0.766580851334786 0.20594485969922 O 0.0 **** 0.0
27 C67468 0.451659057975591 0.76019421911044 0.194453860752763 C 0.0 **** 0.0
28 C67469 0.468746495723052 0.758783021740814 0.197974667728847 C 0.0 **** 0.0
29 C67470 0.47522056691206 0.765358662570072 0.214565894956543 C 0.0 **** 0.0
30 C67476 0.481190077122268 0.811801004519382 0.253529807490206 C 0.0 **** 0.0
31 C67477 0.494416995199763 0.797882268512068 0.253819005633606 C 0.0 **** 0.0
32 C67478 0.486417433647949 0.782291474461714 0.244652668558889 C 0.0 **** 0.0
33 C67483 0.512071756847299 0.803232779023748 0.247081906258162 C 0.0 **** 0.0
34 C67484 0.512834104843947 0.817123218327335 0.23680937651893 C 0.0 **** 0.0
35 C67485 0.49813892601721 0.828986185594982 0.233322880715548 C 0.0 **** 0.0
36 C67486 0.482685163705678 0.825763996761738 0.244038904927029 C 0.0 **** 0.0
37 C67492 0.528974598746006 0.824043907518494 0.229631979753329 C 0.0 **** 0.0
38 C67493 0.543574877223299 0.811303340667079 0.23015193634982 C 0.0 **** 0.0
39 C67494 0.54165140478443 0.79856676122109 0.244124699661833 C 0.0 **** 0.0
40 C67495 0.526606850177276 0.795031231533938 0.251848938053969 C 0.0 **** 0.0
41 C67501 0.526754449713088 0.781603601368543 0.266083972788828 C 0.0 **** 0.0
42 C67502 0.544291293683897 0.778215198866364 0.273472061274944 C 0.0 **** 0.0
43 C67503 0.556218604882204 0.774149864006222 0.258668714890849 C 0.0 **** 0.0
44 C67504 0.558175105224181 0.789631003257429 0.247409754569001 C 0.0 **** 0.0
45 C67510 0.491505501787299 0.76348960199255 0.219630648309408 C 0.0 **** 0.0
46 C67511 0.49771260996119 0.77138049908447 0.233581575954899 C 0.0 **** 0.0
47 C67515 0.479748734434792 0.752455788031857 0.185389054305892 C 0.0 **** 0.0
48 C67516 0.497272414111581 0.750328093101159 0.188298470158365 C 0.0 **** 0.0
49 S67517 0.505089427568351 0.750149992693657 0.208687678264881 S 0.0 **** 0.0
50 C67522 0.508582709256475 0.747905538753656 0.175447523981359 C 0.0 **** 0.0
51 C67523 0.50248443666272 0.745546822315869 0.158837167391355 C 0.0 **** 0.0
52 C67524 0.484761852633065 0.745028389183393 0.156119984771546 C 0.0 **** 0.0
53 C67525 0.473516394212893 0.749343846098225 0.168962574590549 C 0.0 **** 0.0
54 C67531 0.478817773625654 0.739129361450074 0.140667476475022 C 0.0 **** 0.0
55 C67532 0.490065178590445 0.732400002994009 0.128788042689181 C 0.0 **** 0.0
56 C67533 0.50772067111568 0.735247608471445 0.130061369429407 C 0.0 **** 0.0
57 C67534 0.513584116195123 0.741895056280417 0.145465149903839 C 0.0 **** 0.0
58 C67540 0.518328251194003 0.730586307786914 0.116596931132444 C 0.0 **** 0.0
59 C67541 0.512156208903703 0.719340698909826 0.10463221903564 C 0.0 **** 0.0
60 C67542 0.494726555756481 0.715195820990855 0.104050964166544 C 0.0 **** 0.0
61 C67543 0.483807294506079 0.723747122225702 0.114929521656429 C 0.0 **** 0.0
62 C67549 0.456062408590024 0.750492751091903 0.165403286555976 C 0.0 **** 0.0
63 C67550 0.445527969593295 0.755110056656269 0.178982938173185 C 0.0 **** 0.0
64 C67554 0.461595429123718 0.74019150079087 0.136928184575829 C 0.0 **** 0.0
65 C67555 0.450292403729872 0.747380270822491 0.148517917932031 C 0.0 **** 0.0
66 C67559 0.466734703909331 0.72542389368844 0.110728673994291 C 0.0 **** 0.0
67 C67560 0.456074042031146 0.734676551247175 0.121268000998081 C 0.0 **** 0.0
68 C67564 0.487690335351938 0.705020121174757 0.0910715322503289 C 0.0 **** 0.0
69 C67565 0.470911503969682 0.708226327278613 0.0860248396608623 C 0.0 **** 0.0
70 C67566 0.460818291789052 0.718928869079156 0.0954859782947754 C 0.0 **** 0.0
71 O67571 0.523178463014533 0.713009606814165 0.0925257244960962 O 0.0 **** 0.0
72 C67572 0.53823065557672 0.706248611966791 0.100082974251418 C 0.0 **** 0.0
73 C67573 0.546441831822265 0.71844043506127 0.113359210037982 C 0.0 **** 0.0
74 C67574 0.536812929868702 0.735208252207653 0.113733578626168 C 0.0 **** 0.0
75 C67580 0.565732009780499 0.720211491373449 0.110997870218477 C 0.0 **** 0.0
76 C67581 0.573170643439484 0.702450484366192 0.109306171734592 C 0.0 **** 0.0
77 C67582 0.567535894556586 0.694168365113322 0.0926088921886746 C 0.0 **** 0.0
78 C67583 0.5506495130484 0.701510138997524 0.085811851303277 C 0.0 **** 0.0
79 C67589 0.542486515284454 0.689740295982849 0.0724700954416266 C 0.0 **** 0.0
80 C67590 0.556059016763913 0.678909616203569 0.0639333220159902 C 0.0 **** 0.0
81 C67591 0.565447010379149 0.667830830433227 0.0770766416604514 C 0.0 **** 0.0
82 N67592 0.566926457554608 0.675873481943665 0.0938597695110913 N 0.0 **** 0.0
83 C67598 0.43380243476379 0.751720874176983 0.142895446091855 C 0.0 **** 0.0
84 C67599 0.428880871340609 0.748177724623117 0.126385882832274 C 0.0 **** 0.0
85 C67600 0.439816104300383 0.73898286232986 0.115703220296273 C 0.0 **** 0.0
86 O67605 0.413104316537888 0.752529942507688 0.119988954924618 O 0.0 **** 0.0
87 C67606 0.402533496051662 0.761776591972164 0.131340864124252 C 0.0 **** 0.0
88 C67607 0.405398189189257 0.756239769440425 0.149186841312542 C 0.0 **** 0.0
89 O67608 0.422510571804483 0.759551710521249 0.153747839604635 O 0.0 **** 0.0
90 C67614 0.400453107238858 0.737471787194412 0.152263778950896 C 0.0 **** 0.0
91 C67615 0.39000397054828 0.730008997004671 0.137626158854094 C 0.0 **** 0.0
92 C67616 0.376285547401609 0.742597859298812 0.132169041188706 C 0.0 **** 0.0
93 C67617 0.384020747873678 0.759508123705418 0.125867029679873 C 0.0 **** 0.0
94 C67623 0.444485635344335 0.723173374930018 0.0895320117496577 C 0.0 **** 0.0
95 C67624 0.434229302722877 0.733603755264182 0.0997046991908867 C 0.0 **** 0.0
96 C67628 0.464844925988687 0.701074036730694 0.0710435786323343 C 0.0 **** 0.0
97 C67629 0.448575311198663 0.705227682081638 0.0649076254865721 C 0.0 **** 0.0
98 C67630 0.438732255579428 0.71623354862427 0.0740525047498762 C 0.0 **** 0.0
99 C67635 0.475123062866492 0.690198264937708 0.0614795242334758 C 0.0 **** 0.0
100 C67636 0.490849945497561 0.685285432373184 0.0673735284414814 C 0.0 **** 0.0
101 C67637 0.496644463925848 0.692432592862293 0.0821719855607915 C 0.0 **** 0.0
102 O67642 0.442204954349978 0.698200020219399 0.0502272746636667 O 0.0 **** 0.0
103 C67643 0.453255680955293 0.690222907847676 0.0392486148544397 C 0.0 **** 0.0
104 C67644 0.469010109266227 0.685227770486628 0.0443471179334772 C 0.0 **** 0.0
105 C67649 0.502165333657046 0.673044857352104 0.0578925805220666 C 0.0 **** 0.0
106 C67650 0.497649314648977 0.671969486690936 0.0384505338361517 C 0.0 **** 0.0
107 C67651 0.479685199264783 0.677034328108445 0.0335423178328353 C 0.0 **** 0.0
108 C67656 0.501472283211046 0.65420967770332 0.0312436653275202 C 0.0 **** 0.0
109 C67657 0.517907286108277 0.646946846156515 0.0385645817861659 C 0.0 **** 0.0
110 C67658 0.515957717791926 0.643966943709398 0.0578758571321348 C 0.0 **** 0.0
111 C67659 0.502399682960658 0.655462670448444 0.0661032923494121 C 0.0 **** 0.0
112 C67665 0.47446305048328 0.673525543296805 0.0174936652024479 C 0.0 **** 0.0
113 C67666 0.459014182306863 0.679211086535904 0.0120312741152081 C 0.0 **** 0.0
114 C67667 0.448337750705784 0.687291790447918 0.0229232090078675 C 0.0 **** 0.0
115 C67672 0.500302621022538 0.655425295375265 0.0120139057017713 C 0.0 **** 0.0
116 C67674 0.486329033244378 0.664120286519454 0.00584921437890538 C 0.0 **** 0.0
117 C67677 0.543683138703865 0.764556074760853 0.28751314395035 C 0.0 **** 0.0
118 C67679 0.561034180032397 0.757535590275276 0.292628723217483 C 0.0 **** 0.0
119 C67681 0.535226663049194 0.771463597135901 0.303555140000046 C 0.0 **** 0.0
120 O67683 0.543386443681625 0.747049580727772 0.125522192987314 O 0.0 **** 0.0
121 C67685 0.432807480896669 0.69251725471343 0.0173867722833953 C 0.0 **** 0.0
122 C67686 0.428057339421367 0.690041313653144 0.00101847024098868 C 0.0 **** 0.0
123 C67687 0.438865900127533 0.682467252782566 -0.0100977971989427 C 0.0 **** 0.0
124 C67688 0.454277967989214 0.676978185779852 -0.0044389841157992 C 0.0 **** 0.0
125 C67694 0.466142066157019 0.668945788857783 -0.016523859170259 C 0.0 **** 0.0
126 C67695 0.461222992014979 0.667087188483179 -0.0329567774409063 C 0.0 **** 0.0
127 C67696 0.444502611970584 0.673405261873711 -0.0383550063002124 C 0.0 **** 0.0
128 C67697 0.433932777361373 0.680735944924955 -0.0267344012474917 C 0.0 **** 0.0
129 C67703 0.439960765174977 0.671941406268426 -0.054976273229409 C 0.0 **** 0.0
130 C67704 0.450396231691314 0.664378072189402 -0.0666056590854925 C 0.0 **** 0.0
131 C67705 0.465890721542984 0.658060924889308 -0.0621221784292866 C 0.0 **** 0.0
132 C67706 0.471738094368872 0.659541742687431 -0.0444222476915144 C 0.0 **** 0.0
133 C67712 0.487617160273082 0.653300556273214 -0.0395640017613684 C 0.0 **** 0.0
134 C67713 0.492722177149612 0.655118171486872 -0.0227560965288996 C 0.0 **** 0.0
135 C67714 0.481987247621457 0.663122932877324 -0.0111978936552153 C 0.0 **** 0.0
136 C67719 0.498127619751248 0.645129982602922 -0.051180462388021 C 0.0 **** 0.0
137 C67720 0.491490891892556 0.644292279536231 -0.0691797350939074 C 0.0 **** 0.0
138 C67721 0.476098141016393 0.650596293794456 -0.0738387462904539 C 0.0 **** 0.0
139 C67726 0.511130988132343 0.647965138014452 0.000512487909443053 C 0.0 **** 0.0
140 C67727 0.508193673383093 0.64835043483398 -0.0172765252055365 C 0.0 **** 0.0
141 C67732 0.513792178180092 0.639056520603074 -0.0459522829011249 C 0.0 **** 0.0
142 C67733 0.519320104843687 0.641382383010768 -0.0293873305957637 C 0.0 **** 0.0
143 C67737 0.536971118918308 0.635547512521466 -0.0244371774512028 C 0.0 **** 0.0
144 C67738 0.549490690050738 0.639280098842587 -0.0387502282376067 C 0.0 **** 0.0
145 C67739 0.54381941090029 0.629842107354561 -0.0543915571069552 C 0.0 **** 0.0
146 C67740 0.525147099230697 0.629793351053005 -0.0580105482303786 C 0.0 **** 0.0
147 O67746 0.520108067066672 0.621554960770858 -0.0699295749999262 O 0.0 **** 0.0
148 H67748 0.388947250023754 0.760328051208008 0.293872751659217 H 0.0 **** 0.0
149 H67750 0.398417733021218 0.774493994629895 0.279576576565857 H 0.0 **** 0.0
150 H67752 0.412922883702786 0.760585479402029 0.31200213502094 H 0.0 **** 0.0
151 H67754 0.423428250396756 0.769333043107488 0.294592619048361 H 0.0 **** 0.0
152 H67756 0.406543291100899 0.787880045790873 0.323930781457273 H 0.0 **** 0.0
153 H67758 0.412156713438662 0.814853389167964 0.309481988509399 H 0.0 **** 0.0
154 H67760 0.390995711407303 0.803784489713058 0.282259934840005 H 0.0 **** 0.0
155 H67762 0.384134400857122 0.810407294924408 0.302404262182359 H 0.0 **** 0.0
156 H67764 0.420926719054652 0.79432893306639 0.278117157109339 H 0.0 **** 0.0
157 H67766 0.447602756611572 0.790614591300423 0.288142952573388 H 0.0 **** 0.0
158 H67768 0.440548981924355 0.815391008120386 0.316687281701606 H 0.0 **** 0.0
159 H67770 0.45777588065611 0.801295834267823 0.315516955088018 H 0.0 **** 0.0
160 H67772 0.432982120731796 0.791835566147206 0.334589402160116 H 0.0 **** 0.0
161 H67774 0.44010994369252 0.77692530574407 0.319747278092423 H 0.0 **** 0.0
162 H67776 0.459613847717938 0.831445274842323 0.268858322229268 H 0.0 **** 0.0
163 H67778 0.434873112982971 0.834822278441986 0.25715334920612 H 0.0 **** 0.0
164 H67780 0.409125821131583 0.82305965930186 0.272211803359523 H 0.0 **** 0.0
165 H67782 0.424535498444898 0.831973984302474 0.285529200134918 H 0.0 **** 0.0
166 H67784 0.468431255082172 0.796683386066006 0.271549855097977 H 0.0 **** 0.0
167 H67786 0.415080721518632 0.783170450468245 0.209417832808918 H 0.0 **** 0.0
168 H67788 0.40898841661877 0.77961642209648 0.230591505720584 H 0.0 **** 0.0
169 H67790 0.395868700677936 0.806044821833224 0.222708751086788 H 0.0 **** 0.0
170 H67792 0.414277970682016 0.813470697744952 0.212366146708314 H 0.0 **** 0.0
171 H67794 0.407492799183505 0.825826154529143 0.242917065094034 H 0.0 **** 0.0
172 H67796 0.495925885766105 0.794450731101446 0.267246749765848 H 0.0 **** 0.0
173 H67797 0.494679034135807 0.828168603443572 0.219820905180096 H 0.0 **** 0.0
174 H67799 0.502433045286141 0.842101963250762 0.235608009258285 H 0.0 **** 0.0
175 H67801 0.472114183584941 0.834502418524141 0.242668024567746 H 0.0 **** 0.0
176 H67803 0.526921989234668 0.828236330040991 0.216470146211186 H 0.0 **** 0.0
177 H67805 0.532442562252296 0.83540062052203 0.23695325047871 H 0.0 **** 0.0
178 H67807 0.555641860667962 0.81818954690071 0.231557805796398 H 0.0 **** 0.0
179 H67809 0.544277472817373 0.804421800233635 0.218042776087669 H 0.0 **** 0.0
180 H67811 0.518250437928815 0.785709804083053 0.276286225380237 H 0.0 **** 0.0
181 H67813 0.521557290125803 0.769610505172726 0.261315323840715 H 0.0 **** 0.0
182 H67815 0.549051840963456 0.789928769214704 0.279446631207893 H 0.0 **** 0.0
183 H67817 0.550893180702956 0.763606479475655 0.251307422561913 H 0.0 **** 0.0
184 H67819 0.568846032610972 0.77013798820544 0.262948567653862 H 0.0 **** 0.0
185 H67821 0.563990541549859 0.786044370031594 0.235229753171462 H 0.0 **** 0.0
186 H67823 0.56688977837536 0.798683403035594 0.253493483534274 H 0.0 **** 0.0
187 H67825 0.510810149206913 0.769574743021926 0.237291723525136 H 0.0 **** 0.0
188 H67827 0.522196506417078 0.746803975332571 0.177865529737659 H 0.0 **** 0.0
189 H67829 0.527154377823231 0.742731128054808 0.148101527985397 H 0.0 **** 0.0
190 H67831 0.431752001343915 0.755717351951695 0.177951902125687 H 0.0 **** 0.0
191 H67833 0.534578385479984 0.694498139100777 0.106648525730697 H 0.0 **** 0.0
192 H67835 0.544979833221374 0.712790685886849 0.126025913617965 H 0.0 **** 0.0
193 H67837 0.537742101644783 0.741055394649748 0.101024196103447 H 0.0 **** 0.0
194 H67839 0.568807232712967 0.727784800171226 0.0997155440490244 H 0.0 **** 0.0
195 H67841 0.571262077500741 0.726829968501434 0.121951388460931 H 0.0 **** 0.0
196 H67843 0.568568960345133 0.694948884947698 0.120075828381432 H 0.0 **** 0.0
197 H67845 0.587037177057351 0.702393038829237 0.110356834773528 H 0.0 **** 0.0
198 H67847 0.577288614555404 0.697153128711892 0.0831536717030341 H 0.0 **** 0.0
199 H67849 0.553723804119645 0.713564424263599 0.079520800671595 H 0.0 **** 0.0
200 H67851 0.53365071055526 0.681031346887969 0.0788016555796496 H 0.0 **** 0.0
201 H67853 0.535104113347086 0.697121033058449 0.0632696123829368 H 0.0 **** 0.0
202 H67855 0.565120142932084 0.687383101056943 0.0575893659456104 H 0.0 **** 0.0
203 H67857 0.550767222669897 0.670806577282679 0.0539298118995457 H 0.0 **** 0.0
204 H67859 0.578285336101488 0.664884326233247 0.072523935424897 H 0.0 **** 0.0
205 H67861 0.558964488793172 0.655582522226274 0.0784923824725239 H 0.0 **** 0.0
206 H67863 0.556933595398033 0.672727370661145 0.101051461515982 H 0.0 **** 0.0
207 H67865 0.406281589984969 0.775169483278422 0.13050582696677 H 0.0 **** 0.0
208 H67867 0.397375070973806 0.764324909966346 0.157192450638319 H 0.0 **** 0.0
209 H67869 0.41197099213401 0.729928895989194 0.154217238968147 H 0.0 **** 0.0
210 H67871 0.393113645088762 0.736204914398978 0.164040851886756 H 0.0 **** 0.0
211 H67873 0.384547654616323 0.717814609163654 0.141436421662343 H 0.0 **** 0.0
212 H67875 0.39824604223166 0.727102526645469 0.126765187659724 H 0.0 **** 0.0
213 H67877 0.368150442183084 0.74513122152472 0.143207826387689 H 0.0 **** 0.0
214 H67879 0.367958103475813 0.737108578707296 0.122452808032362 H 0.0 **** 0.0
215 H67881 0.376166987561004 0.770072719900053 0.130365521777049 H 0.0 **** 0.0
216 H67883 0.383732073439459 0.759991942768154 0.111959342859464 H 0.0 **** 0.0
217 H67885 0.421404941481287 0.736767765565557 0.0954266030971695 H 0.0 **** 0.0
218 H67887 0.425968479779558 0.719333657215615 0.0695602707718738 H 0.0 **** 0.0
219 H67889 0.509228275177911 0.688670185195468 0.0865332610423034 H 0.0 **** 0.0
220 H67891 0.51518550392595 0.677910220462875 0.0583307691935385 H 0.0 **** 0.0
221 H67893 0.506132752750314 0.681083531011431 0.0321272178577946 H 0.0 **** 0.0
222 H67895 0.491265572381085 0.645514642083302 0.0353133604196392 H 0.0 **** 0.0
223 H67897 0.528255521676663 0.655941435541311 0.0361700658811829 H 0.0 **** 0.0
224 H67899 0.521393575067246 0.634963843282025 0.0323885490352431 H 0.0 **** 0.0
225 H67901 0.528207889715863 0.645998001114867 0.0641864682171752 H 0.0 **** 0.0
226 H67903 0.512609627522617 0.630644077903172 0.0602504291845838 H 0.0 **** 0.0
227 H67905 0.504676809881616 0.656295464883769 0.0798342939715132 H 0.0 **** 0.0
228 H67907 0.489806017188207 0.649649840716425 0.0646143332568661 H 0.0 **** 0.0
229 H67909 0.536117272139984 0.753805148159173 0.28277349233906 H 0.0 **** 0.0
230 H67911 0.559669672677704 0.748469663590796 0.303111396316303 H 0.0 **** 0.0
231 H67913 0.569446072797663 0.76776644536736 0.296904256802533 H 0.0 **** 0.0
232 H67915 0.567379641296966 0.750786799904413 0.282258633775183 H 0.0 **** 0.0
233 H67917 0.522152708926931 0.775627610958488 0.301363421311284 H 0.0 **** 0.0
234 H67919 0.542389976683232 0.78235861992098 0.308442035401986 H 0.0 **** 0.0
235 H67921 0.534855962272145 0.761839121737973 0.313606774253235 H 0.0 **** 0.0
236 H67923 0.55448170650381 0.749558138864034 0.121675011924477 H 0.0 **** 0.0
237 H67925 0.42400451236656 0.698910174774473 0.0258528131482229 H 0.0 **** 0.0
238 H67927 0.415621180726568 0.694475661652725 -0.00298453132087535 H 0.0 **** 0.0
239 H67929 0.421558322514824 0.68537335513927 -0.0307386259803163 H 0.0 **** 0.0
240 H67931 0.427836963284035 0.676859481702053 -0.0592803260507082 H 0.0 **** 0.0
241 H67933 0.446018089767537 0.66348477973323 -0.0796577342549663 H 0.0 **** 0.0
242 H67935 0.49922157909627 0.638556799791525 -0.0789892652251249 H 0.0 **** 0.0
243 H67937 0.472243845842333 0.64950739931767 -0.0870221953346258 H 0.0 **** 0.0
244 H67939 0.522410206374311 0.64164739023504 0.00550726296552459 H 0.0 **** 0.0
245 H67941 0.541283074152872 0.64174380662645 -0.0127927054149447 H 0.0 **** 0.0
246 H67943 0.537187588681698 0.621881839144634 -0.0219989057368192 H 0.0 **** 0.0
247 H67945 0.562404292299957 0.635411732224778 -0.0352559206980328 H 0.0 **** 0.0
248 H67947 0.549861464406915 0.652959109368084 -0.0412409063961513 H 0.0 **** 0.0
249 H67949 0.546543908507225 0.616240539680244 -0.0537346288947849 H 0.0 **** 0.0
250 H67951 0.549474060331433 0.634248492803991 -0.066298894893007 H 0.0 **** 0.0
@<TRIPOS>BOND
1 3 2 1
2 4 3 1
3 5 4 1
4 6 5 1
5 1 2 1
6 1 6 1
7 8 7 1
8 9 8 1
9 10 9 1
10 4 7 1
11 3 10 1
12 12 11 1
13 13 12 1
14 14 13 1
15 8 11 1
16 7 14 1
17 16 15 1
18 17 16 Partial double
19 18 17 1
20 13 15 1
21 12 18 1
22 20 19 Partial double
23 21 20 Partial double
24 22 21 Partial double
25 17 19 Partial double
26 16 22 Partial double
27 24 23 1
28 25 24 1
29 15 25 Double
30 22 23 1
31 27 26 1
32 28 27 Partial double
33 29 28 Partial double
34 21 26 1
35 20 29 Partial double
36 31 30 1
37 32 31 1
38 18 30 1
39 19 32 1
40 34 33 Double
41 35 34 1
42 36 35 1
43 31 33 1
44 30 36 Double
45 38 37 1
46 39 38 1
47 40 39 Double
48 34 37 1
49 33 40 1
50 42 41 1
51 43 42 1
52 44 43 1
53 40 41 1
54 39 44 1
55 46 45 Partial double
56 32 46 1
57 29 45 Partial double
58 48 47 Partial double
59 49 48 1
60 45 49 Partial double
61 28 47 Partial double
62 51 50 Partial double
63 52 51 Partial double
64 53 52 Partial double
65 48 50 Partial double
66 47 53 Partial double
67 55 54 Partial double
68 56 55 Partial double
69 57 56 Partial double
70 52 54 Partial double
71 51 57 Partial double
72 59 58 Partial double
73 60 59 Partial double
74 61 60 Partial double
75 56 58 Partial double
76 55 61 Partial double
77 63 62 Partial double
78 27 63 Partial double
79 53 62 Partial double
80 65 64 Partial double
81 62 65 Partial double
82 54 64 Partial double
83 67 66 Partial double
84 64 67 Partial double
85 61 66 Partial double
86 69 68 Partial double
87 70 69 Partial double
88 66 70 Partial double
89 60 68 Partial double
90 72 71 1
91 73 72 1
92 74 73 1
93 59 71 1
94 58 74 1
95 76 75 1
96 77 76 1
97 78 77 1
98 73 75 1
99 72 78 1
100 80 79 1
101 81 80 1
102 82 81 1
103 78 79 1
104 77 82 1
105 84 83 Partial double
106 85 84 Partial double
107 67 85 Partial double
108 65 83 Partial double
109 87 86 1
110 88 87 1
111 89 88 1
112 84 86 1
113 83 89 1
114 91 90 1
115 92 91 1
116 93 92 1
117 88 90 1
118 87 93 1
119 95 94 Partial double
120 85 95 Partial double
121 70 94 Partial double
122 97 96 Partial double
123 98 97 Partial double
124 94 98 Partial double
125 69 96 Partial double
126 100 99 Partial double
127 101 100 Partial double
128 68 101 Partial double
129 96 99 Partial double
130 103 102 1
131 104 103 Partial double
132 97 102 1
133 99 104 1
134 106 105 1
135 107 106 1
136 100 105 1
137 104 107 Partial double
138 109 108 1
139 110 109 1
140 111 110 1
141 106 108 1
142 105 111 1
143 113 112 1
144 114 113 1
145 103 114 Partial double
146 107 112 Partial double
147 108 115 1
148 112 116 Partial double
149 115 116 Partial double
150 42 117 1
151 117 118 1
152 117 119 1
153 74 120 1
154 122 121 1
155 123 122 Partial double
156 124 123 1
157 114 121 Partial double
158 113 124 Partial double
159 126 125 Partial double
160 127 126 1
161 128 127 Partial double
162 124 125 Partial double
163 123 128 Partial double
164 130 129 Partial double
165 131 130 1
166 132 131 1
167 127 129 Partial double
168 126 132 Partial double
169 134 133 Partial double
170 135 134 Partial double
171 125 135 Partial double
172 132 133 Partial double
173 137 136 Partial double
174 138 137 Partial double
175 131 138 Partial double
176 133 136 Partial double
177 140 139 Partial double
178 134 140 Partial double
179 116 135 Partial double
180 115 139 Partial double
181 142 141 Partial double
182 140 142 Partial double
183 136 141 Partial double
184 144 143 1
185 145 144 1
186 146 145 1
187 142 143 1
188 141 146 1
189 146 147 Double
190 1 148 1
191 1 149 1
192 2 150 1
193 2 151 1
194 3 152 1
195 4 153 1
196 5 154 1
197 5 155 1
198 7 156 1
199 8 157 1
200 9 158 1
201 9 159 1
202 10 160 1
203 10 161 1
204 12 162 1
205 13 163 1
206 14 164 1
207 14 165 1
208 18 166 1
209 23 167 1
210 23 168 1
211 24 169 1
212 24 170 1
213 25 171 1
214 35 173 1
215 35 174 1
216 36 175 1
217 37 176 1
218 37 177 1
219 38 178 1
220 38 179 1
221 41 180 1
222 41 181 1
223 42 182 1
224 43 183 1
225 43 184 1
226 44 185 1
227 44 186 1
228 46 187 1
229 50 188 1
230 57 189 1
231 63 190 1
232 72 191 1
233 73 192 1
234 74 193 1
235 75 194 1
236 75 195 1
237 76 196 1
238 76 197 1
239 77 198 1
240 78 199 1
241 79 200 1
242 79 201 1
243 80 202 1
244 80 203 1
245 81 204 1
246 81 205 1
247 82 206 1
248 87 207 1
249 88 208 1
250 90 209 1
251 90 210 1
252 91 211 1
253 91 212 1
254 92 213 1
255 92 214 1
256 93 215 1
257 93 216 1
258 95 217 1
259 98 218 1
260 101 219 1
261 105 220 1
262 106 221 1
263 108 222 1
264 109 223 1
265 109 224 1
266 110 225 1
267 110 226 1
268 111 227 1
269 111 228 1
270 117 229 1
271 118 230 1
272 118 231 1
273 118 232 1
274 119 233 1
275 119 234 1
276 119 235 1
277 120 236 1
278 121 237 1
279 122 238 1
280 128 239 1
281 129 240 1
282 130 241 1
283 137 242 1
284 138 243 1
285 139 244 1
286 143 245 1
287 143 246 1
288 144 247 1
289 144 248 1
290 145 249 1
291 145 250 1
292 31 172 1
@<TRIPOS>MOLECULE
Sketch 4
250 292
SMALL
USER_CHARGES


@<TRIPOS>ATOM
1 C67954 0.366939042018231 0.609650025861306 0.590116161486471 C 0.0 **** 0.0
2 C67955 0.348665364936991 0.604769266424704 0.585053362719372 C 0.0 **** 0.0
3 C67956 0.347638070436241 0.586703613777066 0.577892635149629 C 0.0 **** 0.0
4 C67957 0.360590849984408 0.584128333361101 0.563100779568891 C 0.0 **** 0.0
5 C67958 0.374498244156233 0.597918135874639 0.564121147879721 C 0.0 **** 0.0
6 O67959 0.37956556535559 0.600519823194424 0.581141034108518 O 0.0 **** 0.0
7 C67966 0.352080766316825 0.582780203153916 0.545495661964299 C 0.0 **** 0.0
8 C67967 0.33828122167518 0.568663317915145 0.544716112735015 C 0.0 **** 0.0
9 C67968 0.329957104079959 0.56570989023688 0.562006469440316 C 0.0 **** 0.0
10 C67969 0.329514899984433 0.581521857435175 0.573052366812763 C 0.0 **** 0.0
11 O67975 0.344077914402661 0.55216936960059 0.540111179821503 O 0.0 **** 0.0
12 C67976 0.354693127211745 0.551004771594407 0.525551100435964 C 0.0 **** 0.0
13 C67977 0.370129491692704 0.562322380279147 0.528657730414487 C 0.0 **** 0.0
14 C67978 0.364879955564776 0.580828191926958 0.530904012721037 C 0.0 **** 0.0
15 C67984 0.383084016127994 0.559897811333532 0.514973150057919 C 0.0 **** 0.0
16 C67985 0.376400158889844 0.558361526520443 0.497266513559768 C 0.0 **** 0.0
17 C67986 0.359227900420273 0.555783315115786 0.494356875115495 C 0.0 **** 0.0
18 C67987 0.346201866860091 0.555578460643783 0.508735731806564 C 0.0 **** 0.0
19 C67993 0.353674842665985 0.55429144039775 0.477739736873587 C 0.0 **** 0.0
20 C67994 0.36489527015825 0.557339593963735 0.46465312891896 C 0.0 **** 0.0
21 C67995 0.382070033921414 0.559163299490814 0.467620809207465 C 0.0 **** 0.0
22 C67996 0.387943521362229 0.559454752669588 0.484109407003135 C 0.0 **** 0.0
23 C68002 0.406581652904313 0.56269084593786 0.48733274117304 C 0.0 **** 0.0
24 C68003 0.412389626030957 0.555112573102827 0.50439201510335 C 0.0 **** 0.0
25 C68004 0.399742304050481 0.558427696649196 0.518257965020334 C 0.0 **** 0.0
26 O68009 0.393484039509171 0.560869107848641 0.454449603983003 O 0.0 **** 0.0
27 C68010 0.387507406357333 0.567216423290612 0.439369393231807 C 0.0 **** 0.0
28 C68011 0.370577149760386 0.567014838795344 0.434971054368904 C 0.0 **** 0.0
29 C68012 0.358054676025028 0.559897744548384 0.44728434463754 C 0.0 **** 0.0
30 C68018 0.331046012865935 0.54540016577669 0.503291939956009 C 0.0 **** 0.0
31 C68019 0.323017407780292 0.553379543291201 0.48776500418368 C 0.0 **** 0.0
32 C68020 0.335684731024042 0.549220207268754 0.473562055113786 C 0.0 **** 0.0
33 C68025 0.304962256337628 0.547032307501402 0.483660661785097 C 0.0 **** 0.0
34 C68026 0.300558341447227 0.531415915183304 0.48955306860726 C 0.0 **** 0.0
35 C68027 0.311398024326549 0.520888880999428 0.501423610665125 C 0.0 **** 0.0
36 C68028 0.325864265337376 0.530486208475281 0.509433135004348 C 0.0 **** 0.0
37 C68034 0.28330531000417 0.523920907544501 0.487100644764896 C 0.0 **** 0.0
38 C68035 0.273404492226775 0.532049566672928 0.472547879827339 C 0.0 **** 0.0
39 C68036 0.27853038410283 0.550098852933173 0.469524606974896 C 0.0 **** 0.0
40 C68037 0.293518118501766 0.556741981486047 0.474956082972387 C 0.0 **** 0.0
41 C68043 0.297000218191105 0.575480321168594 0.470812051994339 C 0.0 **** 0.0
42 C68044 0.281188314646256 0.58574573258798 0.466669472595582 C 0.0 **** 0.0
43 C68045 0.271518469707848 0.576454614029779 0.452576746681121 C 0.0 **** 0.0
44 C68046 0.265573695652584 0.559232612412128 0.458909094972709 C 0.0 **** 0.0
45 C68052 0.341441872015279 0.557741259870497 0.443621993903732 C 0.0 **** 0.0
46 C68053 0.330097116405115 0.552809358972316 0.455546042866267 C 0.0 **** 0.0
47 C68057 0.365446276565483 0.57477910863328 0.419730098130834 C 0.0 **** 0.0
48 C68058 0.348389442584351 0.574771076932723 0.41442473037551 C 0.0 **** 0.0
49 S68059 0.334075509837614 0.560722758654581 0.423154625537303 S 0.0 **** 0.0
50 C68064 0.342667749735869 0.58529822130317 0.40198109851522 C 0.0 **** 0.0
51 C68065 0.354433711963809 0.595034568300208 0.39269877825295 C 0.0 **** 0.0
52 C68066 0.371933439576725 0.593584269893953 0.396317932882483 C 0.0 **** 0.0
53 C68067 0.377290812009182 0.584074318075223 0.410144728202743 C 0.0 **** 0.0
54 C68073 0.383612934425058 0.600281419149934 0.384911223054477 C 0.0 **** 0.0
55 C68074 0.378234801780128 0.606974966230183 0.369357868765458 C 0.0 **** 0.0
56 C68075 0.360888138957802 0.607661176882133 0.36528931993994 C 0.0 **** 0.0
57 C68076 0.349267137664214 0.603510501840302 0.37801462652169 C 0.0 **** 0.0
58 C68082 0.355486985322785 0.609607414541146 0.348419545699784 C 0.0 **** 0.0
59 C68083 0.367624750716782 0.611464549006524 0.336005696890412 C 0.0 **** 0.0
60 C68084 0.384673657051003 0.61475882316727 0.340425718125437 C 0.0 **** 0.0
61 C68085 0.389897296526301 0.611536833936093 0.357085769649605 C 0.0 **** 0.0
62 C68091 0.394600737052606 0.583568591094888 0.414253743021424 C 0.0 **** 0.0
63 C68092 0.399195236245971 0.574067552969038 0.428524340819327 C 0.0 **** 0.0
64 C68096 0.400834448421459 0.599228847523318 0.38855216722124 C 0.0 **** 0.0
65 C68097 0.406393781585384 0.592638844733008 0.404040759435588 C 0.0 **** 0.0
66 C68101 0.407033006576266 0.611377258951842 0.361132939147871 C 0.0 **** 0.0
67 C68102 0.412382318063628 0.605092293472184 0.376778778209275 C 0.0 **** 0.0
68 C68106 0.396764150002391 0.621044662768404 0.328473671659057 C 0.0 **** 0.0
69 C68107 0.413858927422704 0.622090714546703 0.333363138118789 C 0.0 **** 0.0
70 C68108 0.418860685382824 0.616943742007969 0.349332366066028 C 0.0 **** 0.0
71 O68113 0.363082485192622 0.610995723272901 0.319123804897799 O 0.0 **** 0.0
72 C68114 0.34843606078017 0.601381703064485 0.315130153481722 C 0.0 **** 0.0
73 C68115 0.333201686216439 0.608078498230967 0.325000065196207 C 0.0 **** 0.0
74 C68116 0.336718372824441 0.608115491828532 0.343992038395084 C 0.0 **** 0.0
75 C68122 0.316744040223386 0.598213556519174 0.32067727322089 C 0.0 **** 0.0
76 C68123 0.319430491270362 0.58558858270465 0.306177721783968 C 0.0 **** 0.0
77 C68124 0.334285202439905 0.573279905768243 0.309255677970916 C 0.0 **** 0.0
78 C68125 0.350044107502988 0.58202298297778 0.317554764397283 C 0.0 **** 0.0
79 C68131 0.367062628235795 0.573970237417027 0.312306996498721 C 0.0 **** 0.0
80 C68132 0.364086312454147 0.555034551158808 0.309615455187401 C 0.0 **** 0.0
81 C68133 0.351273003226472 0.5514732216563 0.295238962611362 C 0.0 **** 0.0
82 N68134 0.337811016122796 0.564292956500902 0.293664300020998 N 0.0 **** 0.0
83 C68140 0.423460181236569 0.594913204676761 0.409029314136678 C 0.0 **** 0.0
84 C68141 0.435253472312434 0.599981790346553 0.397103314229306 C 0.0 **** 0.0
85 C68142 0.429658197333014 0.604797875759217 0.380858745929272 C 0.0 **** 0.0
86 O68147 0.452425851484447 0.601013680791927 0.40058745714102 O 0.0 **** 0.0
87 C68148 0.456985001950077 0.590835363278319 0.414772739573349 C 0.0 **** 0.0
88 C68149 0.445717700992837 0.595285772225069 0.429343636465588 C 0.0 **** 0.0
89 O68150 0.428475617428689 0.591510879368527 0.425506665672876 O 0.0 **** 0.0
90 C68156 0.447776195616016 0.613986387612563 0.434844417639577 C 0.0 **** 0.0
91 C68157 0.465734608304487 0.621078893445089 0.431757409340705 C 0.0 **** 0.0
92 C68158 0.479070857807408 0.607026680700991 0.432549051885456 C 0.0 **** 0.0
93 C68159 0.475891609092814 0.593445563672104 0.41880337770444 C 0.0 **** 0.0
94 C68165 0.43630155085883 0.616979013732761 0.35344210296337 C 0.0 **** 0.0
95 C68166 0.441556366468955 0.610499182108677 0.369098116442823 C 0.0 **** 0.0
96 C68170 0.426067289849464 0.627315544733687 0.321607280425108 C 0.0 **** 0.0
97 C68171 0.443333432071659 0.628536867976542 0.326101602952305 C 0.0 **** 0.0
98 C68172 0.448236454153048 0.623409171437677 0.341864002109759 C 0.0 **** 0.0
99 C68177 0.421706331992708 0.630320722730297 0.304657561302265 C 0.0 **** 0.0
100 C68178 0.405015640398343 0.629658229243238 0.299659580713849 C 0.0 **** 0.0
101 C68179 0.393001533067229 0.625960316364899 0.311717762949309 C 0.0 **** 0.0
102 O68184 0.455305951129329 0.634786264764618 0.315070348292631 O 0.0 **** 0.0
103 C68185 0.451972907558872 0.633644083917829 0.298013788679955 C 0.0 **** 0.0
104 C68186 0.435724772001983 0.632698183643888 0.292223749703893 C 0.0 **** 0.0
105 C68191 0.39941851890262 0.632025736043774 0.281436369360715 C 0.0 **** 0.0
106 C68192 0.414534162678203 0.630463168818005 0.268250411516995 C 0.0 **** 0.0
107 C68193 0.432375051772869 0.632494423977712 0.275310494331425 C 0.0 **** 0.0
108 C68198 0.412185865258204 0.642417903593502 0.252955240044993 C 0.0 **** 0.0
109 C68199 0.393719181385342 0.642453798818288 0.247043825766404 C 0.0 **** 0.0
110 C68200 0.381990001527611 0.649682429654255 0.261000736218969 C 0.0 **** 0.0
111 C68201 0.389562785648254 0.64848121975466 0.278979232251638 C 0.0 **** 0.0
112 C68207 0.445442159320797 0.633574212238905 0.264101134183336 C 0.0 **** 0.0
113 C68208 0.461812669112292 0.633229641123577 0.269853210145753 C 0.0 **** 0.0
114 C68209 0.465102822555453 0.633477324622842 0.286777050660127 C 0.0 **** 0.0
115 C68214 0.425316483637118 0.63758657676968 0.239589715414259 C 0.0 **** 0.0
116 C68216 0.44149337607901 0.634100354356663 0.245444054060791 C 0.0 **** 0.0
117 C68219 0.285871472709565 0.604344522295561 0.462639790715616 C 0.0 **** 0.0
118 C68221 0.271740547514926 0.614447004190373 0.454035443178103 C 0.0 **** 0.0
119 C68223 0.290983837205384 0.61390431518386 0.478747400792337 C 0.0 **** 0.0
120 O68225 0.327523834184882 0.621418129852132 0.351899294041118 O 0.0 **** 0.0
121 C68227 0.481480560713603 0.633419456929186 0.292386487004764 C 0.0 **** 0.0
122 C68228 0.49452771599499 0.6324558550727 0.281182993071138 C 0.0 **** 0.0
123 C68229 0.491354860510578 0.631568416570152 0.264237091573197 C 0.0 **** 0.0
124 C68230 0.474967633778969 0.632283558298083 0.258683595168807 C 0.0 **** 0.0
125 C68236 0.471476592735514 0.631192229854971 0.240307869747824 C 0.0 **** 0.0
126 C68237 0.484726650715965 0.629009484238798 0.229469016437813 C 0.0 **** 0.0
127 C68238 0.502124596662984 0.628029359487881 0.236220871893949 C 0.0 **** 0.0
128 C68239 0.504788968094674 0.629662297849315 0.253272779077734 C 0.0 **** 0.0
129 C68245 0.5152312992686 0.625225476732602 0.225282595655304 C 0.0 **** 0.0
130 C68246 0.512490463932958 0.6230990724151 0.208275486063644 C 0.0 **** 0.0
131 C68247 0.496615517725493 0.624087508603969 0.201422697994069 C 0.0 **** 0.0
132 C68248 0.481919522239596 0.627447153899525 0.212476053098056 C 0.0 **** 0.0
133 C68254 0.465544607308008 0.628645834870949 0.205723528862094 C 0.0 **** 0.0
134 C68255 0.452044620232205 0.631615464046139 0.216701488938079 C 0.0 **** 0.0
135 C68256 0.454902244200331 0.632089774690218 0.23415497525806 C 0.0 **** 0.0
136 C68261 0.462650258222839 0.626786666830493 0.188375524868191 C 0.0 **** 0.0
137 C68262 0.478333645473381 0.623259250065802 0.177784599470221 C 0.0 **** 0.0
138 C68263 0.494195662434911 0.621945198112693 0.184498565319645 C 0.0 **** 0.0
139 C68268 0.422626031552245 0.637439871066374 0.222332989777309 C 0.0 **** 0.0
140 C68269 0.435675451509869 0.634136177792888 0.210339002327299 C 0.0 **** 0.0
141 C68274 0.44630240366286 0.628629849777801 0.182016335029609 C 0.0 **** 0.0
142 C68275 0.432950174359513 0.633006212475973 0.192698896324442 C 0.0 **** 0.0
143 C68279 0.415255872864469 0.635784674425841 0.185540366731912 C 0.0 **** 0.0
144 C68280 0.41595601879953 0.643842291110324 0.167979220091463 C 0.0 **** 0.0
145 C68281 0.426384448555204 0.63272852096083 0.156485180752337 C 0.0 **** 0.0
146 C68282 0.442666322008144 0.625916132168902 0.163544446205892 C 0.0 **** 0.0
147 O68288 0.451534471712848 0.617834845816422 0.153984433839122 O 0.0 **** 0.0
148 H68290 0.369163022347361 0.606741712171968 0.603496244986069 H 0.0 **** 0.0
149 H68292 0.368941560752266 0.623362918898441 0.5885154332184 H 0.0 **** 0.0
150 H68294 0.340043511026914 0.606276024457624 0.595893904733005 H 0.0 **** 0.0
151 H68296 0.344087851973613 0.613493139984826 0.575196493034742 H 0.0 **** 0.0
152 H68298 0.35166420364121 0.578150690811947 0.588163877894985 H 0.0 **** 0.0
153 H68300 0.366724359998656 0.571864969690518 0.565541432256115 H 0.0 **** 0.0
154 H68302 0.370103287903116 0.609841142003266 0.558313411769072 H 0.0 **** 0.0
155 H68304 0.385993239699139 0.594208129909107 0.557279015095675 H 0.0 **** 0.0
156 H68306 0.34541324096149 0.594934433218713 0.543747066966283 H 0.0 **** 0.0
157 H68308 0.328656428743499 0.572855166487044 0.535501724042523 H 0.0 **** 0.0
158 H68310 0.337549585908911 0.55599867556149 0.568547738878671 H 0.0 **** 0.0
159 H68312 0.317359277793274 0.560136354374145 0.560250152355545 H 0.0 **** 0.0
160 H68314 0.321997691404397 0.579478124384332 0.584594032343439 H 0.0 **** 0.0
161 H68316 0.323259507612507 0.59176767102946 0.56603758465891 H 0.0 **** 0.0
162 H68318 0.358743240373326 0.537685787706616 0.525382274582295 H 0.0 **** 0.0
163 H68320 0.375686218079913 0.557970757802502 0.540604978185852 H 0.0 **** 0.0
164 H68322 0.359090552600892 0.585572744166279 0.519152116986971 H 0.0 **** 0.0
165 H68324 0.376008910189296 0.588972884535072 0.532828072668587 H 0.0 **** 0.0
166 H68326 0.341348169276502 0.568581428487199 0.510316731120773 H 0.0 **** 0.0
167 H68328 0.414347241582729 0.557475135845277 0.477032025682666 H 0.0 **** 0.0
168 H68330 0.408842739948309 0.576461101300421 0.487393205998714 H 0.0 **** 0.0
169 H68332 0.424851779806694 0.560316268354591 0.50790303998565 H 0.0 **** 0.0
170 H68334 0.414008445720909 0.541360320068457 0.503140283804865 H 0.0 **** 0.0
171 H68336 0.404823814180455 0.558858655064621 0.53103884935928 H 0.0 **** 0.0
172 H68338 0.322679672738352 0.567110614361948 0.489737195800957 H 0.0 **** 0.0
173 H68339 0.316392198422922 0.509909497253313 0.494501365525536 H 0.0 **** 0.0
174 H68341 0.303256308316717 0.515816317002368 0.511604430793815 H 0.0 **** 0.0
175 H68343 0.33235569123935 0.524544810544217 0.520038636731169 H 0.0 **** 0.0
176 H68345 0.284309504831607 0.510168561398216 0.484962062040936 H 0.0 **** 0.0
177 H68347 0.276231377020632 0.525734253003926 0.498964965983629 H 0.0 **** 0.0
178 H68349 0.259738325139937 0.531300283765529 0.475323835970907 H 0.0 **** 0.0
179 H68351 0.275495698218315 0.524848806528147 0.460791626455368 H 0.0 **** 0.0
180 H68353 0.303449744019116 0.581403565470569 0.481603883737088 H 0.0 **** 0.0
181 H68355 0.305749733273871 0.576257087919072 0.460015286669135 H 0.0 **** 0.0
182 H68357 0.272807634005864 0.585984143517558 0.477865121757545 H 0.0 **** 0.0
183 H68359 0.279859563489945 0.574960587488788 0.441511844962237 H 0.0 **** 0.0
184 H68361 0.260375882963432 0.583626747937996 0.448267980448416 H 0.0 **** 0.0
185 H68363 0.261800878255743 0.551120340979355 0.448188267101205 H 0.0 **** 0.0
186 H68365 0.254175182013165 0.560990364175488 0.466744974377467 H 0.0 **** 0.0
187 H68367 0.316920291217184 0.550646219885272 0.452228133357527 H 0.0 **** 0.0
188 H68369 0.329337404986326 0.585331402451359 0.398155851419235 H 0.0 **** 0.0
189 H68371 0.335647877277339 0.603661208785344 0.375385527958454 H 0.0 **** 0.0
190 H68373 0.412324235024361 0.572107893565039 0.432405000257361 H 0.0 **** 0.0
191 H68375 0.346221806135705 0.603712255313087 0.301587787288209 H 0.0 **** 0.0
192 H68377 0.331698569252098 0.6214214182428 0.32129724902184 H 0.0 **** 0.0
193 H68379 0.332470474770946 0.595849643931785 0.3492232557887 H 0.0 **** 0.0
194 H68381 0.312256887398284 0.591092622583752 0.33178746370371 H 0.0 **** 0.0
195 H68383 0.306466012959485 0.607014473206355 0.317423022575223 H 0.0 **** 0.0
196 H68385 0.321783986601379 0.592698172072692 0.294413665063551 H 0.0 **** 0.0
197 H68387 0.307858419999858 0.578170910142826 0.303831388219076 H 0.0 **** 0.0
198 H68389 0.329732548942119 0.563609940502343 0.31824576184976 H 0.0 **** 0.0
199 H68391 0.34897053743357 0.579586282506467 0.331258581157223 H 0.0 **** 0.0
200 H68393 0.371997258020348 0.579609611895088 0.30058151146524 H 0.0 **** 0.0
201 H68395 0.376683614918147 0.576251987217104 0.322127076032922 H 0.0 **** 0.0
202 H68397 0.359145327987465 0.549816167812405 0.321583497280543 H 0.0 **** 0.0
203 H68399 0.375866092847195 0.548066564194371 0.307036757954737 H 0.0 **** 0.0
204 H68401 0.345242456590319 0.539149776166952 0.297247945682106 H 0.0 **** 0.0
205 H68403 0.357993299927578 0.550450729159867 0.283097062959104 H 0.0 **** 0.0
206 H68405 0.340472378734965 0.572407188590876 0.284320060477677 H 0.0 **** 0.0
207 H68407 0.454722831421108 0.577517607126783 0.41130597276631 H 0.0 **** 0.0
208 H68409 0.449328041680226 0.587126574414172 0.440060358949205 H 0.0 **** 0.0
209 H68411 0.438470549980626 0.621633452520695 0.427875618034974 H 0.0 **** 0.0
210 H68413 0.444390325567409 0.615263417251206 0.448301995653464 H 0.0 **** 0.0
211 H68415 0.468573780703664 0.631249039999637 0.440855008392482 H 0.0 **** 0.0
212 H68417 0.466298074472626 0.626931103007203 0.419118202687431 H 0.0 **** 0.0
213 H68419 0.478530247918456 0.601094324670095 0.445160300011252 H 0.0 **** 0.0
214 H68421 0.491929486492457 0.61225566371298 0.431248567925498 H 0.0 **** 0.0
215 H68423 0.482048245243116 0.581529018020884 0.422567954794872 H 0.0 **** 0.0
216 H68425 0.482036066692805 0.59735558928023 0.406934612861229 H 0.0 **** 0.0
217 H68427 0.455073861182163 0.610479352218734 0.372256434043029 H 0.0 **** 0.0
218 H68429 0.461606952062618 0.623904937432877 0.345547088420341 H 0.0 **** 0.0
219 H68431 0.380015918012886 0.626550446931087 0.307023851639768 H 0.0 **** 0.0
220 H68433 0.390688992641801 0.621604394102874 0.278378066932609 H 0.0 **** 0.0
221 H68435 0.413803795995803 0.617377562172945 0.263396073207225 H 0.0 **** 0.0
222 H68437 0.415092488493898 0.655485116909435 0.256989864858305 H 0.0 **** 0.0
223 H68439 0.390070128711588 0.629373580896597 0.244017217316728 H 0.0 **** 0.0
224 H68441 0.392012107132489 0.649913016395021 0.235411599912559 H 0.0 **** 0.0
225 H68443 0.369768096999069 0.643028931804892 0.260751593328847 H 0.0 **** 0.0
226 H68445 0.37911050879271 0.663013357316662 0.258168351213532 H 0.0 **** 0.0
227 H68447 0.379351523302202 0.649715757908026 0.288383799197288 H 0.0 **** 0.0
228 H68449 0.398226337752654 0.659133884248893 0.281213042303496 H 0.0 **** 0.0
229 H68451 0.296794130037542 0.604267811533098 0.453925775234068 H 0.0 **** 0.0
230 H68453 0.275638624147284 0.627691645679312 0.452204640027139 H 0.0 **** 0.0
231 H68455 0.260294822807343 0.614444112256733 0.461906589331032 H 0.0 **** 0.0
232 H68457 0.268347435846455 0.6093984484154 0.441531032827794 H 0.0 **** 0.0
233 H68459 0.301562932455775 0.607912187480548 0.485462768615593 H 0.0 **** 0.0
234 H68461 0.280240356964603 0.614540329724571 0.487591526961747 H 0.0 **** 0.0
235 H68463 0.294836184070009 0.626964649530146 0.475833972015639 H 0.0 **** 0.0
236 H68465 0.315937374381593 0.619072356557435 0.349817559614231 H 0.0 **** 0.0
237 H68467 0.48443644698769 0.63379792836558 0.305857067213499 H 0.0 **** 0.0
238 H68469 0.507415366790672 0.6320660952824 0.286086130027669 H 0.0 **** 0.0
239 H68471 0.517635958200231 0.62899529634096 0.258234290319977 H 0.0 **** 0.0
240 H68473 0.528171379832785 0.624433418051022 0.229919366002733 H 0.0 **** 0.0
241 H68475 0.523372778856836 0.620593213246869 0.200175776548892 H 0.0 **** 0.0
242 H68477 0.477200157592585 0.621820613221112 0.164171375911087 H 0.0 **** 0.0
243 H68479 0.504755987828026 0.61932383363298 0.176020608948477 H 0.0 **** 0.0
244 H68481 0.409651064540917 0.639612496906272 0.218002343766033 H 0.0 **** 0.0
245 H68483 0.408395449409684 0.623642673408812 0.18494217210629 H 0.0 **** 0.0
246 H68485 0.40778619535415 0.644238066550792 0.193634478238045 H 0.0 **** 0.0
247 H68487 0.421568744100717 0.656541431317393 0.169123349208329 H 0.0 **** 0.0
248 H68489 0.4031781699063 0.645523544706386 0.162704337036071 H 0.0 **** 0.0
249 H68491 0.430481842034406 0.638570853713095 0.144549611106544 H 0.0 **** 0.0
250 H68493 0.419607787032672 0.621091114354339 0.152927730971666 H 0.0 **** 0.0
@<TRIPOS>BOND
1 3 2 1
2 4 3 1
3 5 4 1
4 6 5 1
5 1 2 1
6 1 6 1
7 8 7 1
8 9 8 1
9 10 9 1
10 4 7 1
11 3 10 1
12 12 11 1
13 13 12 1
14 14 13 1
15 8 11 1
16 7 14 1
17 16 15 1
18 17 16 Partial double
19 18 17 1
20 13 15 1
21 12 18 1
22 20 19 Partial double
23 21 20 Partial double
24 22 21 Partial double
25 17 19 Partial double
26 16 22 Partial double
27 24 23 1
28 25 24 1
29 15 25 Double
30 22 23 1
31 27 26 1
32 28 27 Partial double
33 29 28 Partial double
34 21 26 1
35 20 29 Partial double
36 31 30 1
37 32 31 1
38 18 30 1
39 19 32 1
40 34 33 Double
41 35 34 1
42 36 35 1
43 31 33 1
44 30 36 Double
45 38 37 1
46 39 38 1
47 40 39 Double
48 34 37 1
49 33 40 1
50 42 41 1
51 43 42 1
52 44 43 1
53 40 41 1
54 39 44 1
55 46 45 Partial double
56 32 46 1
57 29 45 Partial double
58 48 47 Partial double
59 49 48 1
60 45 49 Partial double
61 28 47 Partial double
62 51 50 Partial double
63 52 51 Partial double
64 53 52 Partial double
65 48 50 Partial double
66 47 53 Partial double
67 55 54 Partial double
68 56 55 Partial double
69 57 56 Partial double
70 52 54 Partial double
71 51 57 Partial double
72 59 58 Partial double
73 60 59 Partial double
74 61 60 Partial double
75 56 58 Partial double
76 55 61 Partial double
77 63 62 Partial double
78 27 63 Partial double
79 53 62 Partial double
80 65 64 Partial double
81 62 65 Partial double
82 54 64 Partial double
83 67 66 Partial double
84 64 67 Partial double
85 61 66 Partial double
86 69 68 Partial double
87 70 69 Partial double
88 66 70 Partial double
89 60 68 Partial double
90 72 71 1
91 73 72 1
92 74 73 1
93 59 71 1
94 58 74 1
95 76 75 1
96 77 76 1
97 78 77 1
98 73 75 1
99 72 78 1
100 80 79 1
101 81 80 1
102 82 81 1
103 78 79 1
104 77 82 1
105 84 83 Partial double
106 85 84 Partial double
107 67 85 Partial double
108 65 83 Partial double
109 87 86 1
110 88 87 1
111 89 88 1
112 84 86 1
113 83 89 1
114 91 90 1
115 92 91 1
116 93 92 1
117 88 90 1
118 87 93 1
119 95 94 Partial double
120 85 95 Partial double
121 70 94 Partial double
122 97 96 Partial double
123 98 97 Partial double
124 94 98 Partial double
125 69 96 Partial double
126 100 99 Partial double
127 101 100 Partial double
128 68 101 Partial double
129 96 99 Partial double
130 103 102 1
131 104 103 Partial double
132 97 102 1
133 99 104 1
134 106 105 1
135 107 106 1
136 100 105 1
137 104 107 Partial double
138 109 108 1
139 110 109 1
140 111 110 1
141 106 108 1
142 105 111 1
143 113 112 1
144 114 113 1
145 103 114 Partial double
146 107 112 Partial double
147 108 115 1
148 112 116 Partial double
149 115 116 Partial double
150 42 117 1
151 117 118 1
152 117 119 1
153 74 120 1
154 122 121 1
155 123 122 Partial double
156 124 123 1
157 114 121 Partial double
158 113 124 Partial double
159 126 125 Partial double
160 127 126 1
161 128 127 Partial double
162 124 125 Partial double
163 123 128 Partial double
164 130 129 Partial double
165 131 130 1
166 132 131 1
167 127 129 Partial double
168 126 132 Partial double
169 134 133 Partial double
170 135 134 Partial double
171 125 135 Partial double
172 132 133 Partial double
173 137 136 Partial double
174 138 137 Partial double
175 131 138 Partial double
176 133 136 Partial double
177 140 139 Partial double
178 134 140 Partial double
179 116 135 Partial double
180 115 139 Partial double
181 142 141 Partial double
182 140 142 Partial double
183 136 141 Partial double
184 144 143 1
185 145 144 1
186 146 145 1
187 142 143 1
188 141 146 1
189 146 147 Double
190 1 148 1
191 1 149 1
192 2 150 1
193 2 151 1
194 3 152 1
195 4 153 1
196 5 154 1
197 5 155 1
198 7 156 1
199 8 157 1
200 9 158 1
201 9 159 1
202 10 160 1
203 10 161 1
204 12 162 1
205 13 163 1
206 14 164 1
207 14 165 1
208 18 166 1
209 23 167 1
210 23 168 1
211 24 169 1
212 24 170 1
213 25 171 1
214 35 173 1
215 35 174 1
216 36 175 1
217 37 176 1
218 37 177 1
219 38 178 1
220 38 179 1
221 41 180 1
222 41 181 1
223 42 182 1
224 43 183 1
225 43 184 1
226 44 185 1
227 44 186 1
228 46 187 1
229 50 188 1
230 57 189 1
231 63 190 1
232 72 191 1
233 73 192 1
234 74 193 1
235 75 194 1
236 75 195 1
237 76 196 1
238 76 197 1
239 77 198 1
240 78 199 1
241 79 200 1
242 79 201 1
243 80 202 1
244 80 203 1
245 81 204 1
246 81 205 1
247 82 206 1
248 87 207 1
249 88 208 1
250 90 209 1
251 90 210 1
252 91 211 1
253 91 212 1
254 92 213 1
255 92 214 1
256 93 215 1
257 93 216 1
258 95 217 1
259 98 218 1
260 101 219 1
261 105 220 1
262 106 221 1
263 108 222 1
264 109 223 1
265 109 224 1
266 110 225 1
267 110 226 1
268 111 227 1
269 111 228 1
270 117 229 1
271 118 230 1
272 118 231 1
273 118 232 1
274 119 233 1
275 119 234 1
276 119 235 1
277 120 236 1
278 121 237 1
279 122 238 1
280 128 239 1
281 129 240 1
282 130 241 1
283 137 242 1
284 138 243 1
285 139 244 1
286 143 245 1
287 143 246 1
288 144 247 1
289 144 248 1
290 145 249 1
291 145 250 1
292 31 172 1
@<TRIPOS>MOLECULE
Sketch 4
250 292
SMALL
USER_CHARGES


@<TRIPOS>ATOM
1 C68496 0.855579591686997 0.34680012866089 0.511963409579959 C 0.0 **** 0.0
2 C68497 0.844844827796577 0.345524460449621 0.528264318004565 C 0.0 **** 0.0
3 C68498 0.826654885511797 0.340003511761949 0.524133380486754 C 0.0 **** 0.0
4 C68499 0.818401843802372 0.352335058555941 0.510893184673084 C 0.0 **** 0.0
5 C68500 0.832402213857371 0.360029665966707 0.499619170373008 C 0.0 **** 0.0
6 O68501 0.845430634799158 0.34790277624098 0.497130764807982 O 0.0 **** 0.0
7 C68508 0.806597785634877 0.365092607940605 0.519806248121399 C 0.0 **** 0.0
8 C68509 0.791901069929168 0.355255492907867 0.528221376346375 C 0.0 **** 0.0
9 C68510 0.797220267519686 0.338189924390167 0.535906429902091 C 0.0 **** 0.0
10 C68511 0.815992717743915 0.337710112976922 0.540266266060728 C 0.0 **** 0.0
11 O68517 0.779441927757412 0.351046524835213 0.515930176984101 O 0.0 **** 0.0
12 C68518 0.771160537233318 0.36545481387044 0.508852533458762 C 0.0 **** 0.0
13 C68519 0.783856727503322 0.375586349552174 0.498213273106783 C 0.0 **** 0.0
14 C68520 0.799596794692516 0.379904098782517 0.508917449135757 C 0.0 **** 0.0
15 C68526 0.775724250990767 0.391455472009401 0.490726996470877 C 0.0 **** 0.0
16 C68527 0.75897958731142 0.397530079199508 0.497847072205953 C 0.0 **** 0.0
17 C68528 0.752684390393906 0.390446160719334 0.512598649065672 C 0.0 **** 0.0
18 C68529 0.762732204006456 0.376952571545213 0.521960517292319 C 0.0 **** 0.0
19 C68535 0.737595012006025 0.396365847737005 0.519227651710074 C 0.0 **** 0.0
20 C68536 0.72937847635192 0.409796341834215 0.511604494193427 C 0.0 **** 0.0
21 C68537 0.735486778892119 0.416769216809481 0.496704686845439 C 0.0 **** 0.0
22 C68538 0.750234046579031 0.410347232920802 0.489547247612021 C 0.0 **** 0.0
23 C68544 0.756553671669364 0.417147636634735 0.472785217702753 C 0.0 **** 0.0
24 C68545 0.776108599516634 0.416613894272863 0.471584643373521 C 0.0 **** 0.0
25 C68546 0.783444358824876 0.400360476280391 0.478430832891885 C 0.0 **** 0.0
26 O68551 0.726997401055127 0.429959572001358 0.488804224855374 O 0.0 **** 0.0
27 C68552 0.714808883529126 0.438883456901907 0.497665507357132 C 0.0 **** 0.0
28 C68553 0.707464428037907 0.433046938446332 0.512425175110243 C 0.0 **** 0.0
29 C68554 0.713893330864698 0.416835001541953 0.519877161179458 C 0.0 **** 0.0
30 C68560 0.751892710824533 0.368301057663466 0.535073650530518 C 0.0 **** 0.0
31 C68561 0.743672412450932 0.381110177635942 0.54671112137459 C 0.0 **** 0.0
32 C68562 0.730115776130965 0.388223685564258 0.534745142377146 C 0.0 **** 0.0
33 C68567 0.736827775754538 0.373599956327323 0.563530746814797 C 0.0 **** 0.0
34 C68568 0.732984667749614 0.356769642853456 0.563611078874118 C 0.0 **** 0.0
35 C68569 0.736339066917252 0.344799981242927 0.549035512105668 C 0.0 **** 0.0
36 C68570 0.748089593616876 0.351799814111802 0.535806681980599 C 0.0 **** 0.0
37 C68576 0.727218896037967 0.347168160600674 0.578874917083019 C 0.0 **** 0.0
38 C68577 0.722388578324557 0.358251282331299 0.593989646812949 C 0.0 **** 0.0
39 C68578 0.72891041534874 0.376012864118034 0.592559834569658 C 0.0 **** 0.0
40 C68579 0.735402774364139 0.382950167761678 0.578062382550015 C 0.0 **** 0.0
41 C68585 0.741221999140379 0.401603544863365 0.579017677632709 C 0.0 **** 0.0
42 C68586 0.746224892393628 0.406512897858586 0.59698117690713 C 0.0 **** 0.0
43 C68587 0.730757440927027 0.40365639695183 0.608329650580793 C 0.0 **** 0.0
44 C68588 0.726858284226841 0.38488161840435 0.609352054613954 C 0.0 **** 0.0
45 C68594 0.707128811773787 0.409743076317736 0.533963995671847 C 0.0 **** 0.0
46 C68595 0.714570955520306 0.396531678925796 0.542019905089233 C 0.0 **** 0.0
47 C68599 0.69517798360019 0.443105009059046 0.520687874051255 C 0.0 **** 0.0
48 C68600 0.686656362498641 0.437500178925724 0.535397547990318 C 0.0 **** 0.0
49 S68601 0.687952201168679 0.416740020894394 0.541910473266949 S 0.0 **** 0.0
50 C68606 0.676242752678218 0.447746114087247 0.544547810188337 C 0.0 **** 0.0
51 C68607 0.672928795749736 0.464264416765091 0.538836167830637 C 0.0 **** 0.0
52 C68608 0.680703381269846 0.470105475939307 0.523783284034128 C 0.0 **** 0.0
53 C68609 0.691676465350609 0.459605112069181 0.51477365446771 C 0.0 **** 0.0
54 C68615 0.676461211155653 0.486163832930878 0.517916811354413 C 0.0 **** 0.0
55 C68616 0.666119783791356 0.4969970750075 0.527505647161761 C 0.0 **** 0.0
56 C68617 0.658740297380166 0.491513866901256 0.542813487601728 C 0.0 **** 0.0
57 C68618 0.661571707853801 0.474686738497469 0.547612583433874 C 0.0 **** 0.0
58 C68624 0.6487806742485 0.502368862304697 0.552810806428361 C 0.0 **** 0.0
59 C68625 0.645639387760355 0.518526306856097 0.547015305372258 C 0.0 **** 0.0
60 C68626 0.652833789683998 0.524326679650991 0.531630183336437 C 0.0 **** 0.0
61 C68627 0.662132364620089 0.513031132568354 0.52164753165464 C 0.0 **** 0.0
62 C68633 0.69909738137393 0.465486043207298 0.499703086508189 C 0.0 **** 0.0
63 C68634 0.709981166905817 0.454265970580254 0.491195131460033 C 0.0 **** 0.0
64 C68638 0.682482853374065 0.491379262676898 0.502226337513582 C 0.0 **** 0.0
65 C68639 0.694958778086575 0.482047108179484 0.493688820453207 C 0.0 **** 0.0
66 C68643 0.666245854276499 0.51722575659678 0.505044214690651 C 0.0 **** 0.0
67 C68644 0.676431249107282 0.506365144211726 0.495511081504693 C 0.0 **** 0.0
68 C68648 0.649267297237973 0.540863524536492 0.525222001744954 C 0.0 **** 0.0
69 C68649 0.651929445701561 0.543980546194847 0.507885344763603 C 0.0 **** 0.0
70 C68650 0.660327690672814 0.532246118099153 0.497999299361589 C 0.0 **** 0.0
71 O68655 0.635317257377575 0.529539271780585 0.555928924924663 O 0.0 **** 0.0
72 C68656 0.624047850514351 0.523379093529646 0.568469166574624 C 0.0 **** 0.0
73 C68657 0.632883339113919 0.510414630423961 0.579559580502844 C 0.0 **** 0.0
74 C68658 0.641106028756655 0.496267688315848 0.569451042628546 C 0.0 **** 0.0
75 C68664 0.621094376297738 0.503749615150145 0.593729403395161 C 0.0 **** 0.0
76 C68665 0.602598938408981 0.509345313632794 0.591530574844389 C 0.0 **** 0.0
77 C68666 0.596234250932717 0.507159253181708 0.573325278393846 C 0.0 **** 0.0
78 C68667 0.607247295516945 0.517539411383839 0.560513623482752 C 0.0 **** 0.0
79 C68673 0.598276208247003 0.533023610753321 0.552660411908121 C 0.0 **** 0.0
80 C68674 0.580001987886357 0.52925196374155 0.546872374102591 C 0.0 **** 0.0
81 C68675 0.572702203926348 0.512991020049556 0.554690458973525 C 0.0 **** 0.0
82 N68676 0.57840374219297 0.51184272501985 0.572164430459283 N 0.0 **** 0.0
83 C68682 0.702749471428815 0.489193690118926 0.479220582788254 C 0.0 **** 0.0
84 C68683 0.695141883101541 0.502842262188766 0.471232678338619 C 0.0 **** 0.0
85 C68684 0.681574212504478 0.511160037619418 0.479277456524513 C 0.0 **** 0.0
86 O68689 0.700777927948331 0.509379111909169 0.455984549841583 O 0.0 **** 0.0
87 C68690 0.711539875901714 0.497914815042174 0.447207827442468 C 0.0 **** 0.0
88 C68691 0.724890925492135 0.491690040470469 0.459139473992849 C 0.0 **** 0.0
89 O68692 0.717407513260243 0.482232293840167 0.472571637610717 O 0.0 **** 0.0
90 C68698 0.736064408909351 0.506260894989174 0.465985711178105 C 0.0 **** 0.0
91 C68699 0.737976951617433 0.521087100845597 0.453384506917519 C 0.0 **** 0.0
92 C68700 0.736506016743234 0.514943749581804 0.435054348086714 C 0.0 **** 0.0
93 C68701 0.718893097306749 0.50711300893438 0.431694955365714 C 0.0 **** 0.0
94 C68707 0.663775042703441 0.536184052731879 0.480869166281498 C 0.0 **** 0.0
95 C68708 0.674633556856582 0.525538853343382 0.47168503504186 C 0.0 **** 0.0
96 C68712 0.646305215630479 0.559175376824048 0.500712052692386 C 0.0 **** 0.0
97 C68713 0.649405478331143 0.563012203104879 0.48352472843604 C 0.0 **** 0.0
98 C68714 0.657662837447065 0.551367685090926 0.473737130247421 C 0.0 **** 0.0
99 C68719 0.637281204182302 0.570970854851676 0.510394297598968 C 0.0 **** 0.0
100 C68720 0.635170011471906 0.568532843539972 0.527532896625798 C 0.0 **** 0.0
101 C68721 0.642162083919795 0.554261305617181 0.534662503506651 C 0.0 **** 0.0
102 O68726 0.645100137340519 0.578411884328144 0.47654931241427 O 0.0 **** 0.0
103 C68727 0.633170162596315 0.588110329032171 0.484730037429684 C 0.0 **** 0.0
104 C68728 0.629500044619497 0.585594185683353 0.501418708625419 C 0.0 **** 0.0
105 C68733 0.624833307071246 0.580303455771811 0.538631290642228 C 0.0 **** 0.0
106 C68734 0.612833844948817 0.592374677602958 0.527951295086191 C 0.0 **** 0.0
107 C68735 0.617877410685022 0.595383407356134 0.509544237123333 C 0.0 **** 0.0
108 C68740 0.610453397499357 0.609607570419904 0.536841572690775 C 0.0 **** 0.0
109 C68741 0.608155776960353 0.607251853183711 0.55599620979996 C 0.0 **** 0.0
110 C68742 0.624503660111666 0.599842814220039 0.563991959962857 C 0.0 **** 0.0
111 C68743 0.635734185243611 0.590398083859526 0.551073488332975 C 0.0 **** 0.0
112 C68749 0.609939989343967 0.607985888319786 0.500842732572261 C 0.0 **** 0.0
113 C68750 0.612875978708668 0.609944309752309 0.483838973562712 C 0.0 **** 0.0
114 C68751 0.624699664643539 0.600261436069336 0.475857637081668 C 0.0 **** 0.0
115 C68756 0.59648843781702 0.619212839813882 0.527519828531722 C 0.0 **** 0.0
116 C68758 0.597059397810666 0.618673225519756 0.509980556020383 C 0.0 **** 0.0
117 C68761 0.753663038764567 0.424425290448904 0.599227526328779 C 0.0 **** 0.0
118 C68763 0.769818841855115 0.427189269119596 0.588896653998223 C 0.0 **** 0.0
119 C68765 0.741035729084484 0.438674565538659 0.595761156751485 C 0.0 **** 0.0
120 O68767 0.653791429929106 0.48941855671521 0.580312461615234 O 0.0 **** 0.0
121 C68769 0.627740821688771 0.60247524067285 0.458968585033055 C 0.0 **** 0.0
122 C68770 0.618587266253115 0.613907543869197 0.449926805438536 C 0.0 **** 0.0
123 C68771 0.606252292443967 0.623197774664242 0.457625567227196 C 0.0 **** 0.0
124 C68772 0.603560473571243 0.62120977139724 0.474617420652517 C 0.0 **** 0.0
125 C68778 0.589851952796089 0.630920953539022 0.482929138358938 C 0.0 **** 0.0
126 C68779 0.580722322989809 0.642069464575421 0.473427497334467 C 0.0 **** 0.0
127 C68780 0.584288889866137 0.643770357720868 0.455150144673977 C 0.0 **** 0.0
128 C68781 0.59685636843714 0.634252313185594 0.447951530330555 C 0.0 **** 0.0
129 C68787 0.574973804549082 0.654915180296117 0.44574646601051 C 0.0 **** 0.0
130 C68788 0.562681037483201 0.664776827593023 0.453022475826431 C 0.0 **** 0.0
131 C68789 0.559187216860239 0.663917343912414 0.46996436375981 C 0.0 **** 0.0
132 C68790 0.568446940717335 0.651774957352584 0.480777375419053 C 0.0 **** 0.0
133 C68796 0.565142281640336 0.650734517015899 0.498184166954686 C 0.0 **** 0.0
134 C68797 0.574301300978425 0.63919557154539 0.507942685183732 C 0.0 **** 0.0
135 C68798 0.586662239462185 0.629122695947745 0.500267807708029 C 0.0 **** 0.0
136 C68803 0.55361514014484 0.661718040518641 0.505879061344774 C 0.0 **** 0.0
137 C68804 0.544121707939445 0.67342444497511 0.493936651729229 C 0.0 **** 0.0
138 C68805 0.547236987707591 0.674165613181895 0.476969793143605 C 0.0 **** 0.0
139 C68810 0.584246669473156 0.629129895660467 0.535019290958869 C 0.0 **** 0.0
140 C68811 0.572442595607869 0.638971058161686 0.525596752600092 C 0.0 **** 0.0
141 C68816 0.551397008139163 0.661205606189535 0.523346350799616 C 0.0 **** 0.0
142 C68817 0.560193596510117 0.649515750348378 0.533191304855444 C 0.0 **** 0.0
143 C68821 0.557331316894784 0.648869727198505 0.552243317923115 C 0.0 **** 0.0
144 C68822 0.538571297614217 0.6516121610468 0.556247916090513 C 0.0 **** 0.0
145 C68823 0.53313356161444 0.668571174956097 0.54928928719423 C 0.0 **** 0.0
146 C68824 0.539555923591067 0.673275823846227 0.532015020806083 C 0.0 **** 0.0
147 O68830 0.535517676483299 0.686989242976944 0.526428715860199 O 0.0 **** 0.0
148 H68832 0.863241887637314 0.335311126493768 0.510460615747457 H 0.0 **** 0.0
149 H68834 0.864468545576999 0.35753984711464 0.512630731571604 H 0.0 **** 0.0
150 H68836 0.850687150283628 0.336705519097308 0.537349699153504 H 0.0 **** 0.0
151 H68838 0.844280218179756 0.357854891828606 0.534778297852934 H 0.0 **** 0.0
152 H68840 0.827559095312727 0.327503622760024 0.517944373229025 H 0.0 **** 0.0
153 H68842 0.810336999198265 0.344540657581256 0.502570671619261 H 0.0 **** 0.0
154 H68844 0.837537368893789 0.37181028506984 0.505072939565707 H 0.0 **** 0.0
155 H68846 0.827448050323993 0.363265352191563 0.487043311513398 H 0.0 **** 0.0
156 H68848 0.814258757105622 0.370982970645907 0.529906879698068 H 0.0 **** 0.0
157 H68850 0.786535112107862 0.363108196172738 0.538424136881184 H 0.0 **** 0.0
158 H68852 0.794606933597905 0.328341738864488 0.526401666523629 H 0.0 **** 0.0
159 H68854 0.789377808796059 0.335058892737444 0.546998581109984 H 0.0 **** 0.0
160 H68856 0.81942249762411 0.325770299005846 0.546584810040553 H 0.0 **** 0.0
161 H68858 0.818771045570335 0.347920564114206 0.549358478323824 H 0.0 **** 0.0
162 H68860 0.761379449735287 0.360020697208464 0.500556085842679 H 0.0 **** 0.0
163 H68862 0.787912311775733 0.367464255909587 0.487640138618678 H 0.0 **** 0.0
164 H68864 0.796232191925511 0.390141624600149 0.517789742683203 H 0.0 **** 0.0
165 H68866 0.809638190693556 0.385267130501097 0.500876712508297 H 0.0 **** 0.0
166 H68868 0.772712629388588 0.383578826660031 0.529198479619737 H 0.0 **** 0.0
167 H68870 0.75115017252343 0.409541210418913 0.462414457509208 H 0.0 **** 0.0
168 H68872 0.752227750173247 0.430216511880963 0.470756883536446 H 0.0 **** 0.0
169 H68874 0.781531415783071 0.427314011590138 0.478680133574222 H 0.0 **** 0.0
170 H68876 0.780010068546975 0.418314086125651 0.458282351954774 H 0.0 **** 0.0
171 H68878 0.795764800851101 0.396813164753367 0.473354685396294 H 0.0 **** 0.0
172 H68880 0.753059260574461 0.391009279983784 0.549437470333433 H 0.0 **** 0.0
173 H68881 0.724324243803092 0.34080681754187 0.543262401903075 H 0.0 **** 0.0
174 H68883 0.742327765002596 0.333309501620034 0.554176184545519 H 0.0 **** 0.0
175 H68885 0.753199162024646 0.34281098636742 0.526708353923783 H 0.0 **** 0.0
176 H68887 0.716625596571569 0.33874658598863 0.575459508784268 H 0.0 **** 0.0
177 H68889 0.737831296334924 0.339052308542331 0.582700864263849 H 0.0 **** 0.0
178 H68891 0.727362838861892 0.352380772640393 0.605650119596719 H 0.0 **** 0.0
179 H68893 0.708528452425509 0.35867461352684 0.595392176610821 H 0.0 **** 0.0
180 H68895 0.752013317832478 0.40378013221062 0.57056320880384 H 0.0 **** 0.0
181 H68897 0.730954099168337 0.409854856385139 0.574480397124423 H 0.0 **** 0.0
182 H68899 0.756246527159608 0.397697680159299 0.601206278947728 H 0.0 **** 0.0
183 H68901 0.719879624569239 0.410563368516313 0.603041927010477 H 0.0 **** 0.0
184 H68903 0.732841296991331 0.408767185423372 0.621072713617223 H 0.0 **** 0.0
185 H68905 0.713980929959041 0.382771096244263 0.61429704664776 H 0.0 **** 0.0
186 H68907 0.735619680394837 0.378904450650966 0.618437908896021 H 0.0 **** 0.0
187 H68909 0.709131150810075 0.391020559121587 0.553301973800261 H 0.0 **** 0.0
188 H68911 0.669890654337944 0.443117460793969 0.555961184901428 H 0.0 **** 0.0
189 H68913 0.655435277740447 0.469285903633755 0.558806211388013 H 0.0 **** 0.0
190 H68915 0.715754256740476 0.457137207621472 0.478951677167236 H 0.0 **** 0.0
191 H68917 0.621116172578583 0.534263983623423 0.576738220808224 H 0.0 **** 0.0
192 H68919 0.64355003167457 0.517219688891134 0.585447830408073 H 0.0 **** 0.0
193 H68921 0.631804370414374 0.486265144832556 0.566583170557898 H 0.0 **** 0.0
194 H68923 0.621528637257888 0.48983005212078 0.594169532504429 H 0.0 **** 0.0
195 H68925 0.625671395455947 0.508116280055262 0.606094787190977 H 0.0 **** 0.0
196 H68927 0.601285649165824 0.522770950169258 0.595049307383689 H 0.0 **** 0.0
197 H68929 0.594437408844336 0.502202038084164 0.600295941422443 H 0.0 **** 0.0
198 H68931 0.597990381332782 0.49366847533541 0.570007139249941 H 0.0 **** 0.0
199 H68933 0.610606983425874 0.509035286935007 0.549999947774751 H 0.0 **** 0.0
200 H68935 0.597705834526459 0.543022782423462 0.562370409804334 H 0.0 **** 0.0
201 H68937 0.605913999665533 0.538182527939296 0.542211228555376 H 0.0 **** 0.0
202 H68939 0.579208045164776 0.528364406579817 0.533015252000918 H 0.0 **** 0.0
203 H68941 0.571922256446666 0.540051729962541 0.550414533246926 H 0.0 **** 0.0
204 H68943 0.576465682640143 0.501946102284518 0.54702542279895 H 0.0 **** 0.0
205 H68945 0.55881970315209 0.513741338563683 0.554310383026001 H 0.0 **** 0.0
206 H68947 0.57129727897778 0.503615507819804 0.578689907885164 H 0.0 **** 0.0
207 H68949 0.703757823205539 0.487069563643034 0.443173332427338 H 0.0 **** 0.0
208 H68951 0.733133508913226 0.482907020251012 0.452142486166455 H 0.0 **** 0.0
209 H68953 0.730512721106243 0.510902196088459 0.477871670382045 H 0.0 **** 0.0
210 H68955 0.748615503484309 0.501244123125832 0.469380818478405 H 0.0 **** 0.0
211 H68957 0.750027479171403 0.527734733475688 0.455544646032399 H 0.0 **** 0.0
212 H68959 0.727908261530155 0.530469584841158 0.455677328767782 H 0.0 **** 0.0
213 H68961 0.74640161768297 0.505392216735885 0.432717577002382 H 0.0 **** 0.0
214 H68963 0.738906782349471 0.52535476978227 0.42610227924791 H 0.0 **** 0.0
215 H68965 0.719450554667366 0.498843582165299 0.420534612944792 H 0.0 **** 0.0
216 H68967 0.709933586132498 0.517277812806307 0.428486369029641 H 0.0 **** 0.0
217 H68969 0.678535552805605 0.529168247403943 0.458867194594254 H 0.0 **** 0.0
218 H68971 0.660594916187794 0.554386856588789 0.460491669477795 H 0.0 **** 0.0
219 H68973 0.64104581418104 0.553715908581792 0.54844133260304 H 0.0 **** 0.0
220 H68975 0.61630900822561 0.572370022355125 0.546357709882741 H 0.0 **** 0.0
221 H68977 0.600406095127324 0.586006080030671 0.527619440415663 H 0.0 **** 0.0
222 H68979 0.622215951875592 0.616985608252192 0.535132620298749 H 0.0 **** 0.0
223 H68981 0.597457386677415 0.598602010407332 0.558187246367745 H 0.0 **** 0.0
224 H68983 0.604999456217616 0.61921278239009 0.562365951106705 H 0.0 **** 0.0
225 H68985 0.621108379786776 0.591131102816034 0.574320718854288 H 0.0 **** 0.0
226 H68987 0.631935034735811 0.610028090308393 0.56992152981426 H 0.0 **** 0.0
227 H68989 0.644654014875389 0.582129561322879 0.557867138797938 H 0.0 **** 0.0
228 H68991 0.643473087102163 0.599527370785774 0.543928284331942 H 0.0 **** 0.0
229 H68993 0.757328897199476 0.425449641316617 0.612681528490075 H 0.0 **** 0.0
230 H68995 0.77577362594103 0.439312783376438 0.592254598775758 H 0.0 **** 0.0
231 H68997 0.767115198501034 0.427431700661261 0.575253112845815 H 0.0 **** 0.0
232 H68999 0.779174402271654 0.417151119337796 0.591213610646124 H 0.0 **** 0.0
233 H69001 0.729584573603104 0.437613318822563 0.603587552988684 H 0.0 **** 0.0
234 H69003 0.737100193988923 0.438821455060514 0.582420530347303 H 0.0 **** 0.0
235 H69005 0.7468272075104 0.450964954387988 0.598714918449797 H 0.0 **** 0.0
236 H69007 0.664044553943961 0.489335424685122 0.574025845334406 H 0.0 **** 0.0
237 H69009 0.637293231932959 0.595030654215115 0.452349740909608 H 0.0 **** 0.0
238 H69011 0.621189643278828 0.615242537451875 0.436459333713598 H 0.0 **** 0.0
239 H69013 0.599445362533658 0.635476878116963 0.434435465778852 H 0.0 **** 0.0
240 H69015 0.577275728346235 0.656326280240556 0.432213604056706 H 0.0 **** 0.0
241 H69017 0.555793124139363 0.673598012902699 0.444938045083605 H 0.0 **** 0.0
242 H69019 0.53424057625386 0.68159248485067 0.498885125087653 H 0.0 **** 0.0
243 H69021 0.540033747208057 0.683080642130236 0.469287429023851 H 0.0 **** 0.0
244 H69023 0.584033672913882 0.62952839253603 0.548864532512332 H 0.0 **** 0.0
245 H69025 0.561141869744102 0.636622835746857 0.557580498193512 H 0.0 **** 0.0
246 H69027 0.565053872911531 0.658625307384109 0.558595828955984 H 0.0 **** 0.0
247 H69029 0.536179473754951 0.651136594024668 0.569958855161709 H 0.0 **** 0.0
248 H69031 0.531107443259744 0.641349780568798 0.550487987402983 H 0.0 **** 0.0
249 H69033 0.537747233149641 0.679200682101488 0.557004949051643 H 0.0 **** 0.0
250 H69035 0.51938960562776 0.670348793405625 0.548126334274579 H 0.0 **** 0.0
@<TRIPOS>BOND
1 3 2 1
2 4 3 1
3 5 4 1
4 6 5 1
5 1 2 1
6 1 6 1
7 8 7 1
8 9 8 1
9 10 9 1
10 4 7 1
11 3 10 1
12 12 11 1
13 13 12 1
14 14 13 1
15 8 11 1
16 7 14 1
17 16 15 1
18 17 16 Partial double
19 18 17 1
20 13 15 1
21 12 18 1
22 20 19 Partial double
23 21 20 Partial double
24 22 21 Partial double
25 17 19 Partial double
26 16 22 Partial double
27 24 23 1
28 25 24 1
29 15 25 Double
30 22 23 1
31 27 26 1
32 28 27 Partial double
33 29 28 Partial double
34 21 26 1
35 20 29 Partial double
36 31 30 1
37 32 31 1
38 18 30 1
39 19 32 1
40 34 33 Double
41 35 34 1
42 36 35 1
43 31 33 1
44 30 36 Double
45 38 37 1
46 39 38 1
47 40 39 Double
48 34 37 1
49 33 40 1
50 42 41 1
51 43 42 1
52 44 43 1
53 40 41 1
54 39 44 1
55 46 45 Partial double
56 32 46 1
57 29 45 Partial double
58 48 47 Partial double
59 49 48 1
60 45 49 Partial double
61 28 47 Partial double
62 51 50 Partial double
63 52 51 Partial double
64 53 52 Partial double
65 48 50 Partial double
66 47 53 Partial double
67 55 54 Partial double
68 56 55 Partial double
69 57 56 Partial double
70 52 54 Partial double
71 51 57 Partial double
72 59 58 Partial double
73 60 59 Partial double
74 61 60 Partial double
75 56 58 Partial double
76 55 61 Partial double
77 63 62 Partial double
78 27 63 Partial double
79 53 62 Partial double
80 65 64 Partial double
81 62 65 Partial double
82 54 64 Partial double
83 67 66 Partial double
84 64 67 Partial double
85 61 66 Partial double
86 69 68 Partial double
87 70 69 Partial double
88 66 70 Partial double
89 60 68 Partial double
90 72 71 1
91 73 72 1
92 74 73 1
93 59 71 1
94 58 74 1
95 76 75 1
96 77 76 1
97 78 77 1
98 73 75 1
99 72 78 1
100 80 79 1
101 81 80 1
102 82 81 1
103 78 79 1
104 77 82 1
105 84 83 Partial double
106 85 84 Partial double
107 67 85 Partial double
108 65 83 Partial double
109 87 86 1
110 88 87 1
111 89 88 1
112 84 86 1
113 83 89 1
114 91 90 1
115 92 91 1
116 93 92 1
117 88 90 1
118 87 93 1
119 95 94 Partial double
120 85 95 Partial double
121 70 94 Partial double
122 97 96 Partial double
123 98 97 Partial double
124 94 98 Partial double
125 69 96 Partial double
126 100 99 Partial double
127 101 100 Partial double
128 68 101 Partial double
129 96 99 Partial double
130 103 102 1
131 104 103 Partial double
132 97 102 1
133 99 104 1
134 106 105 1
135 107 106 1
136 100 105 1
137 104 107 Partial double
138 109 108 1
139 110 109 1
140 111 110 1
141 106 108 1
142 105 111 1
143 113 112 1
144 114 113 1
145 103 114 Partial double
146 107 112 Partial double
147 108 115 1
148 112 116 Partial double
149 115 116 Partial double
150 42 117 1
151 117 118 1
152 117 119 1
153 74 120 1
154 122 121 1
155 123 122 Partial double
156 124 123 1
157 114 121 Partial double
158 113 124 Partial double
159 126 125 Partial double
160 127 126 1
161 128 127 Partial double
162 124 125 Partial double
163 123 128 Partial double
164 130 129 Partial double
165 131 130 1
166 132 131 1
167 127 129 Partial double
168 126 132 Partial double
169 134 133 Partial double
170 135 134 Partial double
171 125 135 Partial double
172 132 133 Partial double
173 137 136 Partial double
174 138 137 Partial double
175 131 138 Partial double
176 133 136 Partial double
177 140 139 Partial double
178 134 140 Partial double
179 116 135 Partial double
180 115 139 Partial double
181 142 141 Partial double
182 140 142 Partial double
183 136 141 Partial double
184 144 143 1
185 145 144 1
186 146 145 1
187 142 143 1
188 141 146 1
189 146 147 Double
190 1 148 1
191 1 149 1
192 2 150 1
193 2 151 1
194 3 152 1
195 4 153 1
196 5 154 1
197 5 155 1
198 7 156 1
199 8 157 1
200 9 158 1
201 9 159 1
202 10 160 1
203 10 161 1
204 12 162 1
205 13 163 1
206 14 164 1
207 14 165 1
208 18 166 1
209 23 167 1
210 23 168 1
211 24 169 1
212 24 170 1
213 25 171 1
214 35 173 1
215 35 174 1
216 36 175 1
217 37 176 1
218 37 177 1
219 38 178 1
220 38 179 1
221 41 180 1
222 41 181 1
223 42 182 1
224 43 183 1
225 43 184 1
226 44 185 1
227 44 186 1
228 46 187 1
229 50 188 1
230 57 189 1
231 63 190 1
232 72 191 1
233 73 192 1
234 74 193 1
235 75 194 1
236 75 195 1
237 76 196 1
238 76 197 1
239 77 198 1
240 78 199 1
241 79 200 1
242 79 201 1
243 80 202 1
244 80 203 1
245 81 204 1
246 81 205 1
247 82 206 1
248 87 207 1
249 88 208 1
250 90 209 1
251 90 210 1
252 91 211 1
253 91 212 1
254 92 213 1
255 92 214 1
256 93 215 1
257 93 216 1
258 95 217 1
259 98 218 1
260 101 219 1
261 105 220 1
262 106 221 1
263 108 222 1
264 109 223 1
265 109 224 1
266 110 225 1
267 110 226 1
268 111 227 1
269 111 228 1
270 117 229 1
271 118 230 1
272 118 231 1
273 118 232 1
274 119 233 1
275 119 234 1
276 119 235 1
277 120 236 1
278 121 237 1
279 122 238 1
280 128 239 1
281 129 240 1
282 130 241 1
283 137 242 1
284 138 243 1
285 139 244 1
286 143 245 1
287 143 246 1
288 144 247 1
289 144 248 1
290 145 249 1
291 145 250 1
292 31 172 1
@<TRIPOS>MOLECULE
Sketch 4
250 292
SMALL
USER_CHARGES


@<TRIPOS>ATOM
1 C69038 -0.0597545829640224 0.585367314761906 0.283142211287482 C 0.0 **** 0.0
2 C69039 -0.0591194886962191 0.565745487012602 0.28297517405198 C 0.0 **** 0.0
3 C69040 -0.0459880533592483 0.55894094276035 0.295641027457981 C 0.0 **** 0.0
4 C69041 -0.0282335729443672 0.567072265510801 0.292446194687145 C 0.0 **** 0.0
5 C69042 -0.0303577127604552 0.584153181915353 0.283251554309073 C 0.0 **** 0.0
6 O69043 -0.0447216086471166 0.592889097563718 0.289596069489447 O 0.0 **** 0.0
7 C69050 -0.0155622468200861 0.555000661744353 0.283770644409935 C 0.0 **** 0.0
8 C69051 -0.0130863956364526 0.538541048553857 0.294126984492945 C 0.0 **** 0.0
9 C69052 -0.0287225356656637 0.533857605527841 0.304580629853424 C 0.0 **** 0.0
10 C69053 -0.0451882051053733 0.539514658669599 0.296183075410305 C 0.0 **** 0.0
11 O69059 0.000635680543755235 0.540345631972633 0.305705038414611 O 0.0 **** 0.0
12 C69060 0.0167196796028546 0.540119632091797 0.297413316258873 C 0.0 **** 0.0
13 C69061 0.0166510900876114 0.55076064341549 0.280732958971671 C 0.0 **** 0.0
14 C69062 0.00183164761935393 0.563507598071759 0.281120682075991 C 0.0 **** 0.0
15 C69068 0.0179867638308516 0.54025655043563 0.264839669909741 C 0.0 **** 0.0
16 C69069 0.0315591942023249 0.52707268496667 0.265646072924173 C 0.0 **** 0.0
17 C69070 0.0352740666784695 0.519318008395349 0.280926464465665 C 0.0 **** 0.0
18 C69071 0.0233042339646038 0.521631747965326 0.295935414785646 C 0.0 **** 0.0
19 C69077 0.0485967947894933 0.507940700088318 0.281608372276049 C 0.0 **** 0.0
20 C69078 0.0563971328631627 0.50305318256275 0.266651468126546 C 0.0 **** 0.0
21 C69079 0.0521277717116934 0.51037591691047 0.251254103864966 C 0.0 **** 0.0
22 C69080 0.039622390781035 0.52262419659054 0.250765174345039 C 0.0 **** 0.0
23 C69086 0.034112648749071 0.530433877229607 0.234208788661822 C 0.0 **** 0.0
24 C69087 0.0147261319495992 0.533409470688747 0.234416407891019 C 0.0 **** 0.0
25 C69088 0.00969053058066037 0.543030010360575 0.250200053713897 C 0.0 **** 0.0
26 O69093 0.0599621257167012 0.505599442840194 0.236302126616455 O 0.0 **** 0.0
27 C69094 0.0678802296612976 0.490079505562422 0.235778509313821 C 0.0 **** 0.0
28 C69095 0.0730833199193655 0.481542714539012 0.250117097306137 C 0.0 **** 0.0
29 C69096 0.0686139986217294 0.488706336983916 0.267105127772047 C 0.0 **** 0.0
30 C69102 0.0308255085982276 0.514305837253701 0.312077477962753 C 0.0 **** 0.0
31 C69103 0.0389561257585946 0.496762570591439 0.3100459310866 C 0.0 **** 0.0
32 C69104 0.0541850030857611 0.50053710657085 0.298344756137281 C 0.0 **** 0.0
33 C69109 0.0442635770986276 0.4878613201293 0.326966676199168 C 0.0 **** 0.0
34 C69110 0.0449944833389097 0.497690122721376 0.341169970898359 C 0.0 **** 0.0
35 C69111 0.0399183529853329 0.51602502421666 0.342255609551954 C 0.0 **** 0.0
36 C69112 0.0312859718858375 0.522730132151948 0.326794742435081 C 0.0 **** 0.0
37 C69118 0.0486910859431394 0.491166152987369 0.358585367465313 C 0.0 **** 0.0
38 C69119 0.0580157220070874 0.474277642324117 0.358401907724707 C 0.0 **** 0.0
39 C69120 0.0545211849611554 0.464277675970159 0.342685513121615 C 0.0 **** 0.0
40 C69121 0.0477181392196108 0.470843298729794 0.328168687451653 C 0.0 **** 0.0
41 C69127 0.0445533609162973 0.458305787013598 0.31342306598006 C 0.0 **** 0.0
42 C69128 0.0454932584635824 0.439641172879986 0.318526351157235 C 0.0 **** 0.0
43 C69129 0.0618874078854836 0.436788096404619 0.328562271115627 C 0.0 **** 0.0
44 C69130 0.060858294111364 0.446463266668602 0.345088096935483 C 0.0 **** 0.0
45 C69136 0.0738664447382054 0.481712377639819 0.281843721505534 C 0.0 **** 0.0
46 C69137 0.0678391430793009 0.487057486043257 0.297057105773511 C 0.0 **** 0.0
47 C69141 0.080089768526529 0.465134253997909 0.2484055111931 C 0.0 **** 0.0
48 C69142 0.0848832312560607 0.455589389449904 0.262669497916799 C 0.0 **** 0.0
49 S69143 0.0891634178528453 0.46588396405113 0.281480380402219 S 0.0 **** 0.0
50 C69148 0.0859640829829661 0.438323044543529 0.262194454511669 C 0.0 **** 0.0
51 C69149 0.082793312562936 0.429844418403676 0.246815759587665 C 0.0 **** 0.0
52 C69150 0.0801139695470757 0.439342804629241 0.231830409819405 C 0.0 **** 0.0
53 C69151 0.0796770179919636 0.457008577359258 0.232575962842906 C 0.0 **** 0.0
54 C69157 0.0772659631725544 0.430811510684553 0.216674936149089 C 0.0 **** 0.0
55 C69158 0.0759624065935948 0.413108707907745 0.216374843710554 C 0.0 **** 0.0
56 C69159 0.0772067653724172 0.403550931429142 0.231432923396004 C 0.0 **** 0.0
57 C69160 0.0816709921563386 0.412168539302187 0.246289438131061 C 0.0 **** 0.0
58 C69166 0.0741820142808175 0.386007866179382 0.231630604485242 C 0.0 **** 0.0
59 C69167 0.0722131550129144 0.377818147882206 0.216355478986768 C 0.0 **** 0.0
60 C69168 0.072517713420723 0.386926551357178 0.200897617756112 C 0.0 **** 0.0
61 C69169 0.0736181177336429 0.404613812991573 0.201212088288554 C 0.0 **** 0.0
62 C69175 0.0762871734764102 0.466308001025513 0.217848625643763 C 0.0 **** 0.0
63 C69176 0.0703737421552426 0.482990189255426 0.220119871317799 C 0.0 **** 0.0
64 C69180 0.0758969804031179 0.440046392508629 0.201723087324516 C 0.0 **** 0.0
65 C69181 0.0762559136435052 0.457829432820749 0.201966969581908 C 0.0 **** 0.0
66 C69185 0.0723643496557203 0.413826806506135 0.186249925045896 C 0.0 **** 0.0
67 C69186 0.0739052597067155 0.431425692896545 0.186617979057476 C 0.0 **** 0.0
68 C69190 0.072046878157547 0.378427852929323 0.184964121026304 C 0.0 **** 0.0
69 C69191 0.0690364285105885 0.387941109829749 0.170265226728025 C 0.0 **** 0.0
70 C69192 0.0696570367133059 0.405481117234536 0.17093265700893 C 0.0 **** 0.0
71 O69197 0.0696647206474723 0.360511713373901 0.215638882499792 O 0.0 **** 0.0
72 C69198 0.0751798676244748 0.350249473801249 0.229329003423389 C 0.0 **** 0.0
73 C69199 0.069222098574741 0.357432057698576 0.246278108925969 C 0.0 **** 0.0
74 C69200 0.0742388928330744 0.376023422188438 0.248235257987208 C 0.0 **** 0.0
75 C69206 0.075594928568762 0.346476421261446 0.261304824482661 C 0.0 **** 0.0
76 C69207 0.0817645629980357 0.329049565155528 0.255345427672878 C 0.0 **** 0.0
77 C69208 0.0965469425917907 0.330809477986231 0.242636724127845 C 0.0 **** 0.0
78 C69209 0.0943797645295813 0.346403428820556 0.230581713555199 C 0.0 **** 0.0
79 C69215 0.104356294937903 0.3442451981474 0.213946315622539 C 0.0 **** 0.0
80 C69216 0.120254458630446 0.334029621687123 0.217915537461879 C 0.0 **** 0.0
81 C69217 0.115168144933225 0.315920084360274 0.223159452262629 C 0.0 **** 0.0
82 N69218 0.0995439143402787 0.315113339887125 0.233466600612944 N 0.0 **** 0.0
83 C69224 0.0757758902825826 0.467017433629337 0.186580969928908 C 0.0 **** 0.0
84 C69225 0.0744516110516825 0.458436147476291 0.171392482866151 C 0.0 **** 0.0
85 C69226 0.073401987568034 0.440659123524139 0.17148681992794 C 0.0 **** 0.0
86 O69231 0.073613484743849 0.466567330288191 0.155828556892915 O 0.0 **** 0.0
87 C69232 0.0776641507713048 0.484124076052968 0.156507615931037 C 0.0 **** 0.0
88 C69233 0.0693794475100677 0.491759146066257 0.171687895813638 C 0.0 **** 0.0
89 O69234 0.0764830540673324 0.484541658797311 0.186643196383433 O 0.0 **** 0.0
90 C69240 0.0498157609053525 0.489898474052124 0.170950267988396 C 0.0 **** 0.0
91 C69241 0.0427412826563714 0.490358751368915 0.152720413893053 C 0.0 **** 0.0
92 C69242 0.0542539374213458 0.500601733018454 0.140956272998432 C 0.0 **** 0.0
93 C69243 0.0721109585681303 0.492655354705543 0.139892650792651 C 0.0 **** 0.0
94 C69249 0.0694136511777668 0.414706513205264 0.155536454050377 C 0.0 **** 0.0
95 C69250 0.0715981610117669 0.432264224048529 0.156044592266345 C 0.0 **** 0.0
96 C69254 0.0694437104465746 0.379962869196385 0.154471947193076 C 0.0 **** 0.0
97 C69255 0.0668419220545843 0.3890949890903 0.139349638456438 C 0.0 **** 0.0
98 C69256 0.0672789075360636 0.40637324691572 0.139872091282628 C 0.0 **** 0.0
99 C69261 0.0763480754842797 0.363598867783865 0.152798562025538 C 0.0 **** 0.0
100 C69262 0.080787920966577 0.354439761971325 0.166933428125764 C 0.0 **** 0.0
101 C69263 0.0776506937632126 0.361581469534778 0.182481779112331 C 0.0 **** 0.0
102 O69268 0.0651498960667976 0.380630513332094 0.124169319891069 O 0.0 **** 0.0
103 C69269 0.0762615713998944 0.367441733979837 0.121874077170191 C 0.0 **** 0.0
104 C69270 0.0815021473279998 0.358150343569744 0.135468902377907 C 0.0 **** 0.0
105 C69275 0.0901413800709682 0.337690693321466 0.166055294492669 C 0.0 **** 0.0
106 C69276 0.0996240680881328 0.335186009780613 0.148551860278977 C 0.0 **** 0.0
107 C69277 0.092659884565955 0.345173197252247 0.133563671826119 C 0.0 **** 0.0
108 C69282 0.100694114804141 0.316295044649223 0.143701235403991 C 0.0 **** 0.0
109 C69283 0.104581705338366 0.305342224426929 0.159260313275211 C 0.0 **** 0.0
110 C69284 0.0896533279746126 0.306236466479055 0.172027359475117 C 0.0 **** 0.0
111 C69285 0.0788824636596813 0.322482093736698 0.170181983006996 C 0.0 **** 0.0
112 C69291 0.0983189751366043 0.341230399269729 0.117767742885214 C 0.0 **** 0.0
113 C69292 0.0933751459067401 0.35075124701728 0.104117456210046 C 0.0 **** 0.0
114 C69293 0.0820977908450472 0.363641537748251 0.106080210363348 C 0.0 **** 0.0
115 C69298 0.11273088423205 0.314853879941182 0.128643455711787 C 0.0 **** 0.0
116 C69300 0.110531341032858 0.326725328610421 0.115866068760795 C 0.0 **** 0.0
117 C69303 0.0434152134270431 0.427276399882482 0.303441465420047 C 0.0 **** 0.0
118 C69305 0.056313996148695 0.429970989947354 0.289267128767378 C 0.0 **** 0.0
119 C69307 0.0444244948054189 0.408688407584895 0.309012147600824 C 0.0 **** 0.0
120 O69309 0.0636929187500142 0.38379610545185 0.260637837052513 O 0.0 **** 0.0
121 C69311 0.0767587128061266 0.372655050260616 0.092313824482305 C 0.0 **** 0.0
122 C69312 0.0827981540728443 0.368949025821938 0.0766214377555195 C 0.0 **** 0.0
123 C69313 0.0945792070681515 0.356503092778578 0.0745977031991469 C 0.0 **** 0.0
124 C69314 0.0998247995172094 0.347511677469899 0.0884347131406041 C 0.0 **** 0.0
125 C69320 0.112923412657332 0.334288996531828 0.0863850803797047 C 0.0 **** 0.0
126 C69321 0.119133370057634 0.331207868932989 0.0705970316259278 C 0.0 **** 0.0
127 C69322 0.112962641648864 0.341299425289949 0.0561393236278339 C 0.0 **** 0.0
128 C69323 0.100876764413126 0.353457354725621 0.0586357722913434 C 0.0 **** 0.0
129 C69329 0.119534062801633 0.338325276800961 0.0404482466518156 C 0.0 **** 0.0
130 C69330 0.131507242742747 0.326028684299858 0.0378695830191205 C 0.0 **** 0.0
131 C69331 0.137218215244638 0.316023830841571 0.0507823800005722 C 0.0 **** 0.0
132 C69332 0.130885340105042 0.318768728391974 0.0681281516146148 C 0.0 **** 0.0
133 C69338 0.13671347491608 0.308784281488949 0.0815928266215859 C 0.0 **** 0.0
134 C69339 0.130239830577209 0.311785300092493 0.0977441990911112 C 0.0 **** 0.0
135 C69340 0.118361442027423 0.324650088364275 0.100204910864043 C 0.0 **** 0.0
136 C69345 0.148501407911502 0.295845557105804 0.0789920502918758 C 0.0 **** 0.0
137 C69346 0.154415412769198 0.293742597760752 0.0608113833649858 C 0.0 **** 0.0
138 C69347 0.148703456618242 0.303545974922265 0.0477995499000914 C 0.0 **** 0.0
139 C69352 0.124703803704111 0.302379759291 0.126253036611539 C 0.0 **** 0.0
140 C69353 0.134569410423496 0.301099377272185 0.11120188610968 C 0.0 **** 0.0
141 C69358 0.154214544930938 0.286363257035624 0.0927248907975762 C 0.0 **** 0.0
142 C69359 0.147589219010982 0.289118729882248 0.108860252770305 C 0.0 **** 0.0
143 C69363 0.15360867108239 0.278621619776732 0.123834881638363 C 0.0 **** 0.0
144 C69364 0.1726899873306 0.275810569040155 0.122589188083842 C 0.0 **** 0.0
145 C69365 0.176427824798579 0.266748002391381 0.106204393652284 C 0.0 **** 0.0
146 C69366 0.167537146939812 0.272971554148905 0.0906080197185389 C 0.0 **** 0.0
147 O69372 0.17136678497784 0.266291832052793 0.0773503939090875 O 0.0 **** 0.0
148 H69374 -0.0699851304798846 0.589790006279405 0.291447123251492 H 0.0 **** 0.0
149 H69376 -0.0624919453220308 0.590299701825224 0.270376410533928 H 0.0 **** 0.0
150 H69378 -0.0717228781402127 0.560415675073596 0.285629762186732 H 0.0 **** 0.0
151 H69380 -0.0556489731225293 0.561158441793518 0.270253518708425 H 0.0 **** 0.0
152 H69382 -0.0500749156992955 0.563227246918911 0.308302011601257 H 0.0 **** 0.0
153 H69384 -0.0228732157185647 0.569750002143709 0.305038683571947 H 0.0 **** 0.0
154 H69386 -0.0314349025269739 0.582090480163162 0.269529052612117 H 0.0 **** 0.0
155 H69388 -0.0193718060961407 0.592429474757174 0.285218626079459 H 0.0 **** 0.0
156 H69390 -0.0208830575395874 0.551526619724114 0.271352013940568 H 0.0 **** 0.0
157 H69392 -0.0105085149727071 0.528133313130243 0.285195781759267 H 0.0 **** 0.0
158 H69394 -0.0275760357087698 0.540047978731596 0.317013460145865 H 0.0 **** 0.0
159 H69396 -0.0287033413406737 0.5201919597623 0.306934550472533 H 0.0 **** 0.0
160 H69398 -0.0562709013510447 0.534465234449893 0.302957660410435 H 0.0 **** 0.0
161 H69400 -0.0457100782119371 0.534320958303091 0.283250770328981 H 0.0 **** 0.0
162 H69402 0.0249950283045068 0.547407114657545 0.305885318805297 H 0.0 **** 0.0
163 H69404 0.0283353453480601 0.558473945302392 0.280745294867289 H 0.0 **** 0.0
164 H69406 0.00175357832471492 0.571928346935102 0.270067839668995 H 0.0 **** 0.0
165 H69408 0.00423299145516122 0.571775688376759 0.292105971373784 H 0.0 **** 0.0
166 H69410 0.0120304247495591 0.513840372000237 0.293154734046172 H 0.0 **** 0.0
167 H69412 0.0407598403061935 0.54250727211996 0.232035693391016 H 0.0 **** 0.0
168 H69414 0.0374195563821538 0.522063801301798 0.223628696410654 H 0.0 **** 0.0
169 H69416 0.00800405102789811 0.521233199966153 0.233954533021574 H 0.0 **** 0.0
170 H69418 0.0108966354254219 0.54052718461497 0.223064524888569 H 0.0 **** 0.0
171 H69420 -9.56735835961203e-05 0.552536457201924 0.248638690031774 H 0.0 **** 0.0
172 H69422 0.0299406795101919 0.48851082512238 0.303342343960383 H 0.0 **** 0.0
173 H69423 0.0511201702373409 0.523832095425511 0.344985184313339 H 0.0 **** 0.0
174 H69425 0.0312823593040363 0.517493615746824 0.353138314251921 H 0.0 **** 0.0
175 H69427 0.0255957502330839 0.535199264295681 0.328186942859119 H 0.0 **** 0.0
176 H69429 0.0561427456732252 0.500589773586949 0.365686160504146 H 0.0 **** 0.0
177 H69431 0.0365572129573165 0.489780852343131 0.365326323931216 H 0.0 **** 0.0
178 H69433 0.0544498660446612 0.466869180823395 0.369690114852667 H 0.0 **** 0.0
179 H69435 0.0717458336867689 0.476461672708184 0.359195712395358 H 0.0 **** 0.0
180 H69437 0.0321582699922088 0.460964128350773 0.307654894260294 H 0.0 **** 0.0
181 H69439 0.0539963641174107 0.460495121954718 0.30352120344132 H 0.0 **** 0.0
182 H69441 0.0348747734210318 0.436947660758258 0.327223466734365 H 0.0 **** 0.0
183 H69443 0.0727844520855675 0.441162795164341 0.321049312865182 H 0.0 **** 0.0
184 H69445 0.0641122790837174 0.423346838900949 0.331405717999079 H 0.0 **** 0.0
185 H69447 0.0733688204006044 0.446818871643258 0.351291944403956 H 0.0 **** 0.0
186 H69449 0.0522237483319985 0.439843166729602 0.353834101353213 H 0.0 **** 0.0
187 H69451 0.072889441261842 0.481927615711829 0.308791574638266 H 0.0 **** 0.0
188 H69453 0.0889466347978375 0.430927852298354 0.273528500792116 H 0.0 **** 0.0
189 H69455 0.0835446140030231 0.405330066098979 0.258218786870439 H 0.0 **** 0.0
190 H69457 0.0653815106367602 0.490627088807434 0.209714306267678 H 0.0 **** 0.0
191 H69459 0.0687682551028799 0.338036000789676 0.227179659706208 H 0.0 **** 0.0
192 H69461 0.05531872660579 0.35710423003448 0.246154677996852 H 0.0 **** 0.0
193 H69463 0.087144647219545 0.376699985242077 0.253405847235061 H 0.0 **** 0.0
194 H69465 0.0862566990232616 0.352800676822693 0.26767759590525 H 0.0 **** 0.0
195 H69467 0.0656507198587266 0.345258425559922 0.270985602771607 H 0.0 **** 0.0
196 H69469 0.0711540791938902 0.322233636096233 0.249403068505827 H 0.0 **** 0.0
197 H69471 0.0857213794083035 0.321178182362129 0.266149097689636 H 0.0 **** 0.0
198 H69473 0.107972294659685 0.333109229268006 0.250279872029713 H 0.0 **** 0.0
199 H69475 0.100299775950836 0.357247425676439 0.23709173150038 H 0.0 **** 0.0
200 H69477 0.0969382878787052 0.336969605817611 0.204681019114636 H 0.0 **** 0.0
201 H69479 0.107219016482905 0.356615738958111 0.208260461886185 H 0.0 **** 0.0
202 H69481 0.127192615906651 0.340380181804381 0.228217213828891 H 0.0 **** 0.0
203 H69483 0.129066802386513 0.333358953953487 0.207159504357846 H 0.0 **** 0.0
204 H69485 0.125414647027409 0.309712564793047 0.230134567941858 H 0.0 **** 0.0
205 H69487 0.11335237571868 0.308363023337694 0.211618813866602 H 0.0 **** 0.0
206 H69489 0.0896377673677039 0.31309268516855 0.225694566693609 H 0.0 **** 0.0
207 H69491 0.0914838682203345 0.485152534986911 0.158035805464405 H 0.0 **** 0.0
208 H69493 0.072525519584517 0.505328128425879 0.17181320818983 H 0.0 **** 0.0
209 H69495 0.0461533712642929 0.477921388034497 0.176999176294696 H 0.0 **** 0.0
210 H69497 0.043693700536498 0.499787699947931 0.178562877960745 H 0.0 **** 0.0
211 H69499 0.029744087314101 0.495392022505468 0.152724887163533 H 0.0 **** 0.0
212 H69501 0.0418296638357536 0.477363451704212 0.147762217120059 H 0.0 **** 0.0
213 H69503 0.0552161593129613 0.513612429778916 0.145902541559702 H 0.0 **** 0.0
214 H69505 0.0487114650153002 0.501669409483744 0.12821167508633 H 0.0 **** 0.0
215 H69507 0.0812243501119504 0.502346715131431 0.135830768969838 H 0.0 **** 0.0
216 H69509 0.0721975083749477 0.482827459377497 0.130030946793046 H 0.0 **** 0.0
217 H69511 0.0716250720512137 0.439383981479266 0.144129905608633 H 0.0 **** 0.0
218 H69513 0.0665612679782475 0.413769266849783 0.128131869744058 H 0.0 **** 0.0
219 H69515 0.0816353158172973 0.35384519357926 0.193137486909499 H 0.0 **** 0.0
220 H69517 0.100211235909546 0.337952975152899 0.175720769341588 H 0.0 **** 0.0
221 H69519 0.112655639500392 0.339779283799781 0.150612829841904 H 0.0 **** 0.0
222 H69521 0.0880963956008401 0.312210238130664 0.13915907584312 H 0.0 **** 0.0
223 H69523 0.116257532849301 0.310024850408716 0.16525157975614 H 0.0 **** 0.0
224 H69525 0.106855061746329 0.292059424204689 0.155783499042407 H 0.0 **** 0.0
225 H69527 0.0945660761919222 0.305539508669671 0.185039455296183 H 0.0 **** 0.0
226 H69529 0.0814312229367664 0.295095811993031 0.170460966527357 H 0.0 **** 0.0
227 H69531 0.0715403255451797 0.324609216666636 0.181843359474745 H 0.0 **** 0.0
228 H69533 0.0695797079920954 0.320896856842466 0.159925412710989 H 0.0 **** 0.0
229 H69535 0.0306991566156661 0.429466422744421 0.298073333578066 H 0.0 **** 0.0
230 H69537 0.0549768019370589 0.420136721574608 0.279507332357571 H 0.0 **** 0.0
231 H69539 0.069270378489868 0.429172248411999 0.294250069765163 H 0.0 **** 0.0
232 H69541 0.0548258839555901 0.442273341998772 0.28295809851488 H 0.0 **** 0.0
233 H69543 0.0359160835704003 0.405908716445294 0.319641508492408 H 0.0 **** 0.0
234 H69545 0.0573480243548522 0.40538988205943 0.312993318697482 H 0.0 **** 0.0
235 H69547 0.0411952281181714 0.400073908053327 0.298581152243492 H 0.0 **** 0.0
236 H69549 0.0531257313805907 0.385695184088829 0.255161702923075 H 0.0 **** 0.0
237 H69551 0.0675373102006119 0.382834597716147 0.0935618759025913 H 0.0 **** 0.0
238 H69553 0.078177655929912 0.376255800385491 0.0658615071593043 H 0.0 **** 0.0
239 H69555 0.0963053211027527 0.360851496133289 0.0478935337621616 H 0.0 **** 0.0
240 H69557 0.115262099915161 0.345685792422879 0.0295833172891692 H 0.0 **** 0.0
241 H69559 0.136308322231697 0.324247261602929 0.0250622185074272 H 0.0 **** 0.0
242 H69561 0.163698494520673 0.284127306876533 0.0576908056164333 H 0.0 **** 0.0
243 H69563 0.153645682123042 0.301235432987768 0.0351358424851322 H 0.0 **** 0.0
244 H69565 0.126635856415793 0.293377753662366 0.136606934844369 H 0.0 **** 0.0
245 H69567 0.150899621375888 0.284919055551483 0.135918451393628 H 0.0 **** 0.0
246 H69569 0.146992070767842 0.266325897154572 0.124095679734198 H 0.0 **** 0.0
247 H69571 0.17740200565396 0.268386728968941 0.13334726021542 H 0.0 **** 0.0
248 H69573 0.179254820257287 0.288088034276606 0.122980206158413 H 0.0 **** 0.0
249 H69575 0.172602695318318 0.253366023711254 0.106592289959067 H 0.0 **** 0.0
250 H69577 0.189754418878268 0.266824865755758 0.102243353160178 H 0.0 **** 0.0
@<TRIPOS>BOND
1 3 2 1
2 4 3 1
3 5 4 1
4 6 5 1
5 1 2 1
6 1 6 1
7 8 7 1
8 9 8 1
9 10 9 1
10 4 7 1
11 3 10 1
12 12 11 1
13 13 12 1
14 14 13 1
15 8 11 1
16 7 14 1
17 16 15 1
18 17 16 Partial double
19 18 17 1
20 13 15 1
21 12 18 1
22 20 19 Partial double
23 21 20 Partial double
24 22 21 Partial double
25 17 19 Partial double
26 16 22 Partial double
27 24 23 1
28 25 24 1
29 15 25 Double
30 22 23 1
31 27 26 1
32 28 27 Partial double
33 29 28 Partial double
34 21 26 1
35 20 29 Partial double
36 31 30 1
37 32 31 1
38 18 30 1
39 19 32 1
40 34 33 Double
41 35 34 1
42 36 35 1
43 31 33 1
44 30 36 Double
45 38 37 1
46 39 38 1
47 40 39 Double
48 34 37 1
49 33 40 1
50 42 41 1
51 43 42 1
52 44 43 1
53 40 41 1
54 39 44 1
55 46 45 Partial double
56 32 46 1
57 29 45 Partial double
58 48 47 Partial double
59 49 48 1
60 45 49 Partial double
61 28 47 Partial double
62 51 50 Partial double
63 52 51 Partial double
64 53 52 Partial double
65 48 50 Partial double
66 47 53 Partial double
67 55 54 Partial double
68 56 55 Partial double
69 57 56 Partial double
70 52 54 Partial double
71 51 57 Partial double
72 59 58 Partial double
73 60 59 Partial double
74 61 60 Partial double
75 56 58 Partial double
76 55 61 Partial double
77 63 62 Partial double
78 27 63 Partial double
79 53 62 Partial double
80 65 64 Partial double
81 62 65 Partial double
82 54 64 Partial double
83 67 66 Partial double
84 64 67 Partial double
85 61 66 Partial double
86 69 68 Partial double
87 70 69 Partial double
88 66 70 Partial double
89 60 68 Partial double
90 72 71 1
91 73 72 1
92 74 73 1
93 59 71 1
94 58 74 1
95 76 75 1
96 77 76 1
97 78 77 1
98 73 75 1
99 72 78 1
100 80 79 1
101 81 80 1
102 82 81 1
103 78 79 1
104 77 82 1
105 84 83 Partial double
106 85 84 Partial double
107 67 85 Partial double
108 65 83 Partial double
109 87 86 1
110 88 87 1
111 89 88 1
112 84 86 1
113 83 89 1
114 91 90 1
115 92 91 1
116 93 92 1
117 88 90 1
118 87 93 1
119 95 94 Partial double
120 85 95 Partial double
121 70 94 Partial double
122 97 96 Partial double
123 98 97 Partial double
124 94 98 Partial double
125 69 96 Partial double
126 100 99 Partial double
127 101 100 Partial double
128 68 101 Partial double
129 96 99 Partial double
130 103 102 1
131 104 103 Partial double
132 97 102 1
133 99 104 1
134 106 105 1
135 107 106 1
136 100 105 1
137 104 107 Partial double
138 109 108 1
139 110 109 1
140 111 110 1
141 106 108 1
142 105 111 1
143 113 112 1
144 114 113 1
145 103 114 Partial double
146 107 112 Partial double
147 108 115 1
148 112 116 Partial double
149 115 116 Partial double
150 42 117 1
151 117 118 1
152 117 119 1
153 74 120 1
154 122 121 1
155 123 122 Partial double
156 124 123 1
157 114 121 Partial double
158 113 124 Partial double
159 126 125 Partial double
160 127 126 1
161 128 127 Partial double
162 124 125 Partial double
163 123 128 Partial double
164 130 129 Partial double
165 131 130 1
166 132 131 1
167 127 129 Partial double
168 126 132 Partial double
169 134 133 Partial double
170 135 134 Partial double
171 125 135 Partial double
172 132 133 Partial double
173 137 136 Partial double
174 138 137 Partial double
175 131 138 Partial double
176 133 136 Partial double
177 140 139 Partial double
178 134 140 Partial double
179 116 135 Partial double
180 115 139 Partial double
181 142 141 Partial double
182 140 142 Partial double
183 136 141 Partial double
184 144 143 1
185 145 144 1
186 146 145 1
187 142 143 1
188 141 146 1
189 146 147 Double
190 1 148 1
191 1 149 1
192 2 150 1
193 2 151 1
194 3 152 1
195 4 153 1
196 5 154 1
197 5 155 1
198 7 156 1
199 8 157 1
200 9 158 1
201 9 159 1
202 10 160 1
203 10 161 1
204 12 162 1
205 13 163 1
206 14 164 1
207 14 165 1
208 18 166 1
209 23 167 1
210 23 168 1
211 24 169 1
212 24 170 1
213 25 171 1
214 35 173 1
215 35 174 1
216 36 175 1
217 37 176 1
218 37 177 1
219 38 178 1
220 38 179 1
221 41 180 1
222 41 181 1
223 42 182 1
224 43 183 1
225 43 184 1
226 44 185 1
227 44 186 1
228 46 187 1
229 50 188 1
230 57 189 1
231 63 190 1
232 72 191 1
233 73 192 1
234 74 193 1
235 75 194 1
236 75 195 1
237 76 196 1
238 76 197 1
239 77 198 1
240 78 199 1
241 79 200 1
242 79 201 1
243 80 202 1
244 80 203 1
245 81 204 1
246 81 205 1
247 82 206 1
248 87 207 1
249 88 208 1
250 90 209 1
251 90 210 1
252 91 211 1
253 91 212 1
254 92 213 1
255 92 214 1
256 93 215 1
257 93 216 1
258 95 217 1
259 98 218 1
260 101 219 1
261 105 220 1
262 106 221 1
263 108 222 1
264 109 223 1
265 109 224 1
266 110 225 1
267 110 226 1
268 111 227 1
269 111 228 1
270 117 229 1
271 118 230 1
272 118 231 1
273 118 232 1
274 119 233 1
275 119 234 1
276 119 235 1
277 120 236 1
278 121 237 1
279 122 238 1
280 128 239 1
281 129 240 1
282 130 241 1
283 137 242 1
284 138 243 1
285 139 244 1
286 143 245 1
287 143 246 1
288 144 247 1
289 144 248 1
290 145 249 1
291 145 250 1
292 31 172 1
@<TRIPOS>MOLECULE
Sketch 4
250 292
SMALL
USER_CHARGES


@<TRIPOS>ATOM
1 C69580 0.341057447082357 0.47840195617549 0.856869414736764 C 0.0 **** 0.0
2 C69581 0.350054473088689 0.461873227700899 0.86223917762172 C 0.0 **** 0.0
3 C69582 0.342503251862408 0.446275446482279 0.853386731714728 C 0.0 **** 0.0
4 C69583 0.322799017176049 0.445643640785805 0.855492353406473 C 0.0 **** 0.0
5 C69584 0.316072710716249 0.462989309483686 0.861399488637531 C 0.0 **** 0.0
6 O69585 0.323898336979451 0.476066313421713 0.851891653360696 O 0.0 **** 0.0
7 C69592 0.316852049383306 0.430238381845098 0.865943471080958 C 0.0 **** 0.0
8 C69593 0.322817359716567 0.413752439253518 0.857269775800847 C 0.0 **** 0.0
9 C69594 0.341665833722151 0.414262197630072 0.85227422854528 C 0.0 **** 0.0
10 C69595 0.351069737555575 0.429798703582628 0.859095960213484 C 0.0 **** 0.0
11 O69601 0.313887193595877 0.411227608339757 0.841735372411184 O 0.0 **** 0.0
12 C69602 0.295874823446018 0.409673689303299 0.843175611352147 C 0.0 **** 0.0
13 C69603 0.288648101859509 0.42562646784793 0.851614021535723 C 0.0 **** 0.0
14 C69604 0.297535235367562 0.429281208898687 0.868398597780528 C 0.0 **** 0.0
15 C69610 0.269651696878583 0.424706374409239 0.853298631795937 C 0.0 **** 0.0
16 C69611 0.261821505818817 0.407719527355591 0.856945861833027 C 0.0 **** 0.0
17 C69612 0.271162705989506 0.392953716811602 0.855158837088807 C 0.0 **** 0.0
18 C69613 0.290242444014604 0.393266968472588 0.851945683675735 C 0.0 **** 0.0
19 C69619 0.262945313974854 0.377487188728578 0.856976051580886 C 0.0 **** 0.0
20 C69620 0.246456207320556 0.377064503688761 0.862907762773072 C 0.0 **** 0.0
21 C69621 0.237343774008652 0.391888304176799 0.865140687013715 C 0.0 **** 0.0
22 C69622 0.244895874542805 0.407305936685479 0.861546750554542 C 0.0 **** 0.0
23 C69628 0.235019945183906 0.423592406331908 0.863758038194158 C 0.0 **** 0.0
24 C69629 0.240742205275402 0.437107423357229 0.850855810813312 C 0.0 **** 0.0
25 C69630 0.259789186600223 0.438297798911013 0.850292467897602 C 0.0 **** 0.0
26 O69635 0.220678440998931 0.391669628908588 0.870557320743501 O 0.0 **** 0.0
27 C69636 0.214258716464046 0.377049964477773 0.877603653508798 C 0.0 **** 0.0
28 C69637 0.221976483986575 0.361393277842877 0.876143918039839 C 0.0 **** 0.0
29 C69638 0.238680670975721 0.360350299926561 0.86719395932633 C 0.0 **** 0.0
30 C69644 0.295160737730015 0.377170942934625 0.842960203640788 C 0.0 **** 0.0
31 C69645 0.290921935333274 0.361628054475436 0.853482313901717 C 0.0 **** 0.0
32 C69646 0.271514010539025 0.361074474935866 0.852039898671114 C 0.0 **** 0.0
33 C69651 0.29996843519192 0.34521359529836 0.847375155305922 C 0.0 **** 0.0
34 C69652 0.304777849309801 0.344714469918159 0.830766522285739 C 0.0 **** 0.0
35 C69653 0.302199700938986 0.358999686366421 0.81828982587769 C 0.0 **** 0.0
36 C69654 0.300025142091379 0.375921836081021 0.826754767684929 C 0.0 **** 0.0
37 C69660 0.312516512755923 0.329490407810798 0.822458388480087 C 0.0 **** 0.0
38 C69661 0.320643165684855 0.317357286787446 0.835155135716512 C 0.0 **** 0.0
39 C69662 0.312689903717059 0.318336511390459 0.852366961279755 C 0.0 **** 0.0
40 C69663 0.303312260614209 0.331794927871611 0.857888438330794 C 0.0 **** 0.0
41 C69669 0.2971280278503 0.331371173525256 0.876418014160143 C 0.0 **** 0.0
42 C69670 0.306522857480249 0.319005066625385 0.887862426579979 C 0.0 **** 0.0
43 C69671 0.308125884585977 0.301752100906376 0.879170567913245 C 0.0 **** 0.0
44 C69672 0.318323732958316 0.303544358869231 0.863028126134228 C 0.0 **** 0.0
45 C69678 0.246795230707304 0.345520872268144 0.864161475097357 C 0.0 **** 0.0
46 C69679 0.262468076846161 0.344978126089428 0.857122407384506 C 0.0 **** 0.0
47 C69683 0.214508498038771 0.347171837393528 0.884041597629797 C 0.0 **** 0.0
48 C69684 0.221466702483595 0.330719316538131 0.882868077519209 C 0.0 **** 0.0
49 S69685 0.237226501543862 0.32621451000001 0.86841959310044 S 0.0 **** 0.0
50 C69690 0.215734867193098 0.31754517625401 0.892496010350863 C 0.0 **** 0.0
51 C69691 0.201213644175349 0.319731739384429 0.902629218810573 C 0.0 **** 0.0
52 C69692 0.192825104048899 0.335503706446765 0.902504916338706 C 0.0 **** 0.0
53 C69693 0.200046538043421 0.349327754203776 0.894305621100256 C 0.0 **** 0.0
54 C69699 0.176814552085827 0.336577178907587 0.9098106710455 C 0.0 **** 0.0
55 C69700 0.169303456478183 0.322606122621713 0.917820579500859 C 0.0 **** 0.0
56 C69701 0.178353342852165 0.307312746919075 0.919624108040603 C 0.0 **** 0.0
57 C69702 0.194168438066701 0.306150810495307 0.911612792668711 C 0.0 **** 0.0
58 C69708 0.172345300109006 0.295084987962355 0.930935431288351 C 0.0 **** 0.0
59 C69709 0.159116988154652 0.299213380027004 0.941746796948022 C 0.0 **** 0.0
60 C69710 0.147805611524193 0.312395649496236 0.937341332640398 C 0.0 **** 0.0
61 C69711 0.153318689743568 0.324028593770468 0.924992800066306 C 0.0 **** 0.0
62 C69717 0.192285304900363 0.365259417965015 0.895698080557516 C 0.0 **** 0.0
63 C69718 0.199457497657757 0.378648615005884 0.886517132239601 C 0.0 **** 0.0
64 C69722 0.168264843840209 0.351898914547259 0.909265905307532 C 0.0 **** 0.0
65 C69723 0.176779840254009 0.366780819017356 0.904823432885891 C 0.0 **** 0.0
66 C69727 0.143618818955294 0.338234883688892 0.921161300297267 C 0.0 **** 0.0
67 C69728 0.151323473059088 0.352279214778411 0.913525992173267 C 0.0 **** 0.0
68 C69732 0.131307925217045 0.314593197625389 0.944521556192416 C 0.0 **** 0.0
69 C69733 0.121176679478142 0.328247098212793 0.939116209273542 C 0.0 **** 0.0
70 C69734 0.127154283487203 0.33964287849392 0.927182276870551 C 0.0 **** 0.0
71 O69739 0.156957034875372 0.288864247286514 0.955976742058388 O 0.0 **** 0.0
72 C69740 0.172567178371682 0.284985432698344 0.964932520999926 C 0.0 **** 0.0
73 C69741 0.187796276165846 0.281889967018241 0.952587407295461 C 0.0 **** 0.0
74 C69742 0.180212648387579 0.278188023243086 0.935239208155469 C 0.0 **** 0.0
75 C69748 0.20055581880873 0.268681979685553 0.958956294867392 C 0.0 **** 0.0
76 C69749 0.203074549641161 0.271390412714633 0.977857822578088 C 0.0 **** 0.0
77 C69750 0.187077761389875 0.265576019290037 0.987169502700003 C 0.0 **** 0.0
78 C69751 0.170403893539325 0.269811126229656 0.977295744622782 C 0.0 **** 0.0
79 C69757 0.155519851790547 0.271596074287462 0.989764814013716 C 0.0 **** 0.0
80 C69758 0.157799629672622 0.259149188162597 1.00446041543371 C 0.0 **** 0.0
81 C69759 0.173761503723197 0.263585124405625 1.01485729955551 C 0.0 **** 0.0
82 N69760 0.187067185670266 0.271513761029761 1.00454354479795 N 0.0 **** 0.0
83 C69766 0.168927564856716 0.382556959285029 0.90771945308851 C 0.0 **** 0.0
84 C69767 0.151478936545745 0.383033959478552 0.909749950931247 C 0.0 **** 0.0
85 C69768 0.142593767244194 0.367609717884247 0.91187160932915 C 0.0 **** 0.0
86 O69773 0.142377560365002 0.397991099953522 0.910337464096324 O 0.0 **** 0.0
87 C69774 0.151762954812264 0.41194096067903 0.903781923827916 C 0.0 **** 0.0
88 C69775 0.169018038691971 0.412192000894562 0.91165561678747 C 0.0 **** 0.0
89 O69776 0.178319285241732 0.397393724630904 0.907082650717634 O 0.0 **** 0.0
90 C69782 0.168240607394669 0.414400558272866 0.931122638240987 C 0.0 **** 0.0
91 C69783 0.15217825276587 0.423751676442696 0.937171957105657 C 0.0 **** 0.0
92 C69784 0.146348326428625 0.436826890982714 0.924086959282886 C 0.0 **** 0.0
93 C69785 0.141754491026693 0.428331450461608 0.907047442962835 C 0.0 **** 0.0
94 C69791 0.117531936672433 0.354363957330939 0.923506243155993 C 0.0 **** 0.0
95 C69792 0.125262511864063 0.368017409716584 0.915087170255516 C 0.0 **** 0.0
96 C69796 0.106146975275258 0.331987841191358 0.947799209818794 C 0.0 **** 0.0
97 C69797 0.0958092436564009 0.34573671537294 0.942949193989512 C 0.0 **** 0.0
98 C69798 0.101399477449595 0.356593731090614 0.930734959630196 C 0.0 **** 0.0
99 C69803 0.101865628940174 0.323491807030575 0.96282223200133 C 0.0 **** 0.0
100 C69804 0.111691372195845 0.310184273068837 0.968326606150374 C 0.0 **** 0.0
101 C69805 0.125055152606412 0.305125448761648 0.958234451558146 C 0.0 **** 0.0
102 O69810 0.0803174421218856 0.348487736580757 0.950390548069232 O 0.0 **** 0.0
103 C69811 0.0788572636065053 0.344011771614826 0.967113206337606 C 0.0 **** 0.0
104 C69812 0.0879259449737606 0.330747310245063 0.973409104139089 C 0.0 **** 0.0
105 C69817 0.108275635618544 0.300993167831768 0.98483360251469 C 0.0 **** 0.0
106 C69818 0.0933251474028072 0.308839447901525 0.996061959425543 C 0.0 **** 0.0
107 C69819 0.085216476993914 0.325093156259391 0.989488726203773 C 0.0 **** 0.0
108 C69824 0.0988981483668179 0.310985420101695 1.01463425161567 C 0.0 **** 0.0
109 C69825 0.107178121594608 0.294857503862119 1.02173440165559 C 0.0 **** 0.0
110 C69826 0.122069240105104 0.288837501725429 1.01057813350553 C 0.0 **** 0.0
111 C69827 0.124582290826934 0.300409256362475 0.995239860508117 C 0.0 **** 0.0
112 C69833 0.0748572833625213 0.334201358022345 0.99993731657321 C 0.0 **** 0.0
113 C69834 0.0662434498703121 0.347984045689452 0.993792028495014 C 0.0 **** 0.0
114 C69835 0.067975228396669 0.352668703366057 0.977297618804407 C 0.0 **** 0.0
115 C69840 0.084263711284387 0.317439762159377 1.0254187931152 C 0.0 **** 0.0
116 C69842 0.0732505708949949 0.329057259653937 1.0182536646418 C 0.0 **** 0.0
117 C69845 0.298363046992413 0.317933715747771 0.905597922821097 C 0.0 **** 0.0
118 C69847 0.28106498224575 0.309185129015556 0.906157749601302 C 0.0 **** 0.0
119 C69849 0.310316592262122 0.309433473834338 0.918217254347031 C 0.0 **** 0.0
120 O69851 0.19204758336084 0.271690164844693 0.923354637653343 O 0.0 **** 0.0
121 C69853 0.0590312951487656 0.366088431394144 0.971048046427702 C 0.0 **** 0.0
122 C69854 0.0487087552318238 0.375160034042086 0.981381057411637 C 0.0 **** 0.0
123 C69855 0.0472454268894219 0.370977207161867 0.998038044578933 C 0.0 **** 0.0
124 C69856 0.0557953105390885 0.357171286695941 1.00405778767806 C 0.0 **** 0.0
125 C69862 0.0536397118456112 0.352231229819372 1.02198480441913 C 0.0 **** 0.0
126 C69863 0.0440539040481906 0.362306831631989 1.03222547984542 C 0.0 **** 0.0
127 C69864 0.0355291312456618 0.377351539277725 1.02509144740779 C 0.0 **** 0.0
128 C69865 0.0372124625698 0.380940505696623 1.00823318219766 C 0.0 **** 0.0
129 C69871 0.0260160258923041 0.387411270534331 1.0354695557045 C 0.0 **** 0.0
130 C69872 0.0242711453310336 0.383811547973898 1.05235594966015 C 0.0 **** 0.0
131 C69873 0.0319290181187254 0.370033477802327 1.0595484526335 C 0.0 **** 0.0
132 C69874 0.0422886533943325 0.358553930200145 1.04901144952052 C 0.0 **** 0.0
133 C69880 0.0502709565157252 0.344389844784377 1.05613466700574 C 0.0 **** 0.0
134 C69881 0.0601017200456626 0.334085430334815 1.04567293874917 C 0.0 **** 0.0
135 C69882 0.0618500305245989 0.337947766686298 1.02846846931016 C 0.0 **** 0.0
136 C69887 0.0492548735821928 0.34111437574835 1.07351497503271 C 0.0 **** 0.0
137 C69888 0.0378071256524416 0.353021414171566 1.08339838105155 C 0.0 **** 0.0
138 C69889 0.0299086558295947 0.366642851407293 1.07631799649308 C 0.0 **** 0.0
139 C69894 0.0823091704474144 0.313557345609263 1.04231670403969 C 0.0 **** 0.0
140 C69895 0.0698366137032635 0.321132357999107 1.05280148600344 C 0.0 **** 0.0
141 C69900 0.0584614510101954 0.327767605060605 1.08050217341741 C 0.0 **** 0.0
142 C69901 0.0682793268439369 0.317386821236614 1.07017730068768 C 0.0 **** 0.0
143 C69905 0.0783100040638705 0.302565661112972 1.07740800497521 C 0.0 **** 0.0
144 C69906 0.0691338068624917 0.294432724111186 1.09232915541658 C 0.0 **** 0.0
145 C69907 0.0657343837927406 0.307928498468088 1.10537449362862 C 0.0 **** 0.0
146 C69908 0.0582692831963038 0.324279358780099 1.09918046066878 C 0.0 **** 0.0
147 O69914 0.0530264533448521 0.333913349881393 1.10988913987531 O 0.0 **** 0.0
148 H69916 0.3473506225815 0.483846109080066 0.845746752393454 H 0.0 **** 0.0
149 H69918 0.341792309275703 0.487907751854967 0.867049428152559 H 0.0 **** 0.0
150 H69920 0.363720320033122 0.462772775347967 0.859707795246213 H 0.0 **** 0.0
151 H69922 0.348838449985025 0.460071923391356 0.876026627565665 H 0.0 **** 0.0
152 H69924 0.345087629409992 0.447777226692776 0.83973693985493 H 0.0 **** 0.0
153 H69926 0.31770950853752 0.443746834213706 0.84266330871728 H 0.0 **** 0.0
154 H69928 0.317994977211358 0.464835049179826 0.875103991761201 H 0.0 **** 0.0
155 H69930 0.302426887878194 0.464146428245194 0.859016345921939 H 0.0 **** 0.0
156 H69932 0.322819773143665 0.431107534733837 0.878529167856892 H 0.0 **** 0.0
157 H69934 0.320636070789855 0.403042146097757 0.865931004040421 H 0.0 **** 0.0
158 H69936 0.342128339088615 0.414878303666884 0.838407571246487 H 0.0 **** 0.0
159 H69938 0.348407865591702 0.402607792974196 0.855851267732983 H 0.0 **** 0.0
160 H69940 0.364370547813382 0.429652411769928 0.85488595152733 H 0.0 **** 0.0
161 H69942 0.351290615651278 0.429318843760991 0.873027731375874 H 0.0 **** 0.0
162 H69944 0.291418857789464 0.40958374070759 0.829986885911596 H 0.0 **** 0.0
163 H69946 0.291404855450294 0.436245613418764 0.843012571037483 H 0.0 **** 0.0
164 H69948 0.294665263892583 0.419044602274835 0.877413456436161 H 0.0 **** 0.0
165 H69950 0.292644857420653 0.440946265263689 0.874248539528262 H 0.0 **** 0.0
166 H69952 0.296483110995782 0.392934918417822 0.86446528908255 H 0.0 **** 0.0
167 H69954 0.221345915444393 0.42138615552757 0.862497374243027 H 0.0 **** 0.0
168 H69956 0.237151844496043 0.428516232288349 0.87661052345116 H 0.0 **** 0.0
169 H69958 0.235251474424202 0.449489707806063 0.854226179187687 H 0.0 **** 0.0
170 H69960 0.235960439841398 0.433943556956466 0.838154333370314 H 0.0 **** 0.0
171 H69962 0.265030089675433 0.450514187667739 0.846675512667299 H 0.0 **** 0.0
172 H69964 0.29451598022227 0.364262434207805 0.866681333402624 H 0.0 **** 0.0
173 H69965 0.291246210209564 0.35628145601205 0.81011093157367 H 0.0 **** 0.0
174 H69967 0.313358226995596 0.359754144519517 0.809922126330693 H 0.0 **** 0.0
175 H69969 0.301981989913253 0.387075824419164 0.818908239103342 H 0.0 **** 0.0
176 H69971 0.302498076827473 0.322913048010598 0.815352438970389 H 0.0 **** 0.0
177 H69973 0.32212327328444 0.333384131812447 0.813114799786635 H 0.0 **** 0.0
178 H69975 0.334207507586511 0.320333808067988 0.83648064297403 H 0.0 **** 0.0
179 H69977 0.31989008734053 0.304334497999427 0.830191868598836 H 0.0 **** 0.0
180 H69979 0.297859041529545 0.344054791621313 0.882084755513656 H 0.0 **** 0.0
181 H69981 0.283670762196911 0.327890192130618 0.876383041802162 H 0.0 **** 0.0
182 H69983 0.319502109164926 0.323914731357719 0.889622345328275 H 0.0 **** 0.0
183 H69985 0.295396727146361 0.296995577230958 0.876280813514809 H 0.0 **** 0.0
184 H69987 0.314225123263427 0.292372441625762 0.887469345704611 H 0.0 **** 0.0
185 H69989 0.317666646725069 0.291841087075273 0.855502245867277 H 0.0 **** 0.0
186 H69991 0.331791720346783 0.305365466080326 0.866239519062534 H 0.0 **** 0.0
187 H69993 0.268540433376374 0.332958601397391 0.854310513982235 H 0.0 **** 0.0
188 H69995 0.221536089215588 0.304965795452169 0.891677292694909 H 0.0 **** 0.0
189 H69997 0.201880483893459 0.294689199199006 0.912181030512948 H 0.0 **** 0.0
190 H69999 0.193682418336941 0.391222893247252 0.886013338832142 H 0.0 **** 0.0
191 H70001 0.175482970363077 0.296115133927849 0.972770296235694 H 0.0 **** 0.0
192 H70003 0.195268104377975 0.29369563669552 0.951626824839393 H 0.0 **** 0.0
193 H70005 0.170282358865601 0.268463462766749 0.936890729367921 H 0.0 **** 0.0
194 H70007 0.195981423665045 0.255723342677254 0.956645844183461 H 0.0 **** 0.0
195 H70009 0.21245482328901 0.270041153606253 0.95183129343912 H 0.0 **** 0.0
196 H70011 0.205421430128582 0.284929470132233 0.980253546555072 H 0.0 **** 0.0
197 H70013 0.214171760413576 0.26463216865832 0.982832815549736 H 0.0 **** 0.0
198 H70015 0.187814746669146 0.251666690142304 0.987835873859641 H 0.0 **** 0.0
199 H70017 0.167792477912765 0.258775636500271 0.969155399916168 H 0.0 **** 0.0
200 H70019 0.155825372245037 0.284430495133202 0.995164928150741 H 0.0 **** 0.0
201 H70021 0.14330329962591 0.26995419973574 0.983354422893146 H 0.0 **** 0.0
202 H70023 0.159112066529789 0.246312384530118 0.999217184765333 H 0.0 **** 0.0
203 H70025 0.14669691315093 0.258718940462644 1.01284766230921 H 0.0 **** 0.0
204 H70027 0.179003623065767 0.252144454274965 1.02081386750666 H 0.0 **** 0.0
205 H70029 0.170496134442878 0.272157807622504 1.02534444440533 H 0.0 **** 0.0
206 H70031 0.185457222756968 0.284077618826172 1.00449458178921 H 0.0 **** 0.0
207 H70033 0.153250439810662 0.409946375751947 0.890067090684953 H 0.0 **** 0.0
208 H70035 0.175853560407711 0.423081351573357 0.906261289475977 H 0.0 **** 0.0
209 H70037 0.168805259016462 0.401813396121618 0.937034362164757 H 0.0 **** 0.0
210 H70039 0.179592083032214 0.421167367683135 0.935547904950454 H 0.0 **** 0.0
211 H70041 0.154430644803933 0.429698020372355 0.949573092281768 H 0.0 **** 0.0
212 H70043 0.1418852436996 0.414535708424663 0.939110740752948 H 0.0 **** 0.0
213 H70045 0.156692195835041 0.445967379620475 0.922084156097828 H 0.0 **** 0.0
214 H70047 0.135511956184558 0.444180402966883 0.928850416490927 H 0.0 **** 0.0
215 H70049 0.143357980414744 0.437517604009538 0.896706114546527 H 0.0 **** 0.0
216 H70051 0.128260652165212 0.424862885609066 0.907071827992055 H 0.0 **** 0.0
217 H70053 0.118268342189816 0.379961180599214 0.913852300326592 H 0.0 **** 0.0
218 H70055 0.0940347727498868 0.367994489039662 0.92775092444332 H 0.0 **** 0.0
219 H70057 0.131676826221872 0.293785470452869 0.962506717568586 H 0.0 **** 0.0
220 H70059 0.104700150333847 0.287835871883421 0.981834070505998 H 0.0 **** 0.0
221 H70061 0.083210394507502 0.299275340738658 0.996114814121124 H 0.0 **** 0.0
222 H70063 0.108512183333828 0.321068745571833 1.01472231868766 H 0.0 **** 0.0
223 H70065 0.097622852064412 0.284811247070516 1.02285374481898 H 0.0 **** 0.0
224 H70067 0.111976049296172 0.297173796200219 1.03456501126418 H 0.0 **** 0.0
225 H70069 0.119658908034894 0.275901948238255 1.00598248949105 H 0.0 **** 0.0
226 H70071 0.133727569269202 0.28807860450872 1.01812365389529 H 0.0 **** 0.0
227 H70073 0.135200283094983 0.295954883773407 0.987593240112877 H 0.0 **** 0.0
228 H70075 0.128150561723959 0.313271397225941 0.999232756941891 H 0.0 **** 0.0
229 H70077 0.296421867520868 0.331030350651772 0.909968862955315 H 0.0 **** 0.0
230 H70079 0.275815599784478 0.309742810523131 0.919046656624251 H 0.0 **** 0.0
231 H70081 0.282122965525694 0.295776420695197 0.902668950255685 H 0.0 **** 0.0
232 H70083 0.271781218897071 0.315112948448883 0.897669032644211 H 0.0 **** 0.0
233 H70085 0.322658485062171 0.315826684372091 0.918400825874639 H 0.0 **** 0.0
234 H70087 0.312446458269578 0.296067995241669 0.915002365690398 H 0.0 **** 0.0
235 H70089 0.305194177701341 0.309857893399962 0.931122773173494 H 0.0 **** 0.0
236 H70091 0.185746059479441 0.269357670337514 0.913387285677217 H 0.0 **** 0.0
237 H70093 0.060109977374138 0.369955819405223 0.957852737453663 H 0.0 **** 0.0
238 H70095 0.0417767400761146 0.385808421103859 0.976088805786546 H 0.0 **** 0.0
239 H70097 0.0307128393487295 0.391897690656214 1.00290507595324 H 0.0 **** 0.0
240 H70099 0.0195867610087649 0.398549306667843 1.03048006487075 H 0.0 **** 0.0
241 H70101 0.0165042237635262 0.392256931030654 1.06001986794499 H 0.0 **** 0.0
242 H70103 0.0355405758680663 0.350790979278885 1.09675193120687 H 0.0 **** 0.0
243 H70105 0.0220170100507513 0.374581830407118 1.08436465794126 H 0.0 **** 0.0
244 H70107 0.0912128262271424 0.304570452574474 1.04792528516173 H 0.0 **** 0.0
245 H70109 0.0802469756006293 0.292743609059786 1.06776195565738 H 0.0 **** 0.0
246 H70111 0.0909614130544157 0.306864484160718 1.08140987256005 H 0.0 **** 0.0
247 H70113 0.0767030273699949 0.284176987797013 1.09793425862491 H 0.0 **** 0.0
248 H70115 0.0572358602506012 0.28872965335875 1.08782861344673 H 0.0 **** 0.0
249 H70117 0.0774842338846156 0.311979402247069 1.11161972438616 H 0.0 **** 0.0
250 H70119 0.0569596223926264 0.304473539858546 1.11557235353828 H 0.0 **** 0.0
@<TRIPOS>BOND
1 3 2 1
2 4 3 1
3 5 4 1
4 6 5 1
5 1 2 1
6 1 6 1
7 8 7 1
8 9 8 1
9 10 9 1
10 4 7 1
11 3 10 1
12 12 11 1
13 13 12 1
14 14 13 1
15 8 11 1
16 7 14 1
17 16 15 1
18 17 16 Partial double
19 18 17 1
20 13 15 1
21 12 18 1
22 20 19 Partial double
23 21 20 Partial double
24 22 21 Partial double
25 17 19 Partial double
26 16 22 Partial double
27 24 23 1
28 25 24 1
29 15 25 Double
30 22 23 1
31 27 26 1
32 28 27 Partial double
33 29 28 Partial double
34 21 26 1
35 20 29 Partial double
36 31 30 1
37 32 31 1
38 18 30 1
39 19 32 1
40 34 33 Double
41 35 34 1
42 36 35 1
43 31 33 1
44 30 36 Double
45 38 37 1
46 39 38 1
47 40 39 Double
48 34 37 1
49 33 40 1
50 42 41 1
51 43 42 1
52 44 43 1
53 40 41 1
54 39 44 1
55 46 45 Partial double
56 32 46 1
57 29 45 Partial double
58 48 47 Partial double
59 49 48 1
60 45 49 Partial double
61 28 47 Partial double
62 51 50 Partial double
63 52 51 Partial double
64 53 52 Partial double
65 48 50 Partial double
66 47 53 Partial double
67 55 54 Partial double
68 56 55 Partial double
69 57 56 Partial double
70 52 54 Partial double
71 51 57 Partial double
72 59 58 Partial double
73 60 59 Partial double
74 61 60 Partial double
75 56 58 Partial double
76 55 61 Partial double
77 63 62 Partial double
78 27 63 Partial double
79 53 62 Partial double
80 65 64 Partial double
81 62 65 Partial double
82 54 64 Partial double
83 67 66 Partial double
84 64 67 Partial double
85 61 66 Partial double
86 69 68 Partial double
87 70 69 Partial double
88 66 70 Partial double
89 60 68 Partial double
90 72 71 1
91 73 72 1
92 74 73 1
93 59 71 1
94 58 74 1
95 76 75 1
96 77 76 1
97 78 77 1
98 73 75 1
99 72 78 1
100 80 79 1
101 81 80 1
102 82 81 1
103 78 79 1
104 77 82 1
105 84 83 Partial double
106 85 84 Partial double
107 67 85 Partial double
108 65 83 Partial double
109 87 86 1
110 88 87 1
111 89 88 1
112 84 86 1
113 83 89 1
114 91 90 1
115 92 91 1
116 93 92 1
117 88 90 1
118 87 93 1
119 95 94 Partial double
120 85 95 Partial double
121 70 94 Partial double
122 97 96 Partial double
123 98 97 Partial double
124 94 98 Partial double
125 69 96 Partial double
126 100 99 Partial double
127 101 100 Partial double
128 68 101 Partial double
129 96 99 Partial double
130 103 102 1
131 104 103 Partial double
132 97 102 1
133 99 104 1
134 106 105 1
135 107 106 1
136 100 105 1
137 104 107 Partial double
138 109 108 1
139 110 109 1
140 111 110 1
141 106 108 1
142 105 111 1
143 113 112 1
144 114 113 1
145 103 114 Partial double
146 107 112 Partial double
147 108 115 1
148 112 116 Partial double
149 115 116 Partial double
150 42 117 1
151 117 118 1
152 117 119 1
153 74 120 1
154 122 121 1
155 123 122 Partial double
156 124 123 1
157 114 121 Partial double
158 113 124 Partial double
159 126 125 Partial double
160 127 126 1
161 128 127 Partial double
162 124 125 Partial double
163 123 128 Partial double
164 130 129 Partial double
165 131 130 1
166 132 131 1
167 127 129 Partial double
168 126 132 Partial double
169 134 133 Partial double
170 135 134 Partial double
171 125 135 Partial double
172 132 133 Partial double
173 137 136 Partial double
174 138 137 Partial double
175 131 138 Partial double
176 133 136 Partial double
177 140 139 Partial double
178 134 140 Partial double
179 116 135 Partial double
180 115 139 Partial double
181 142 141 Partial double
182 140 142 Partial double
183 136 141 Partial double
184 144 143 1
185 145 144 1
186 146 145 1
187 142 143 1
188 141 146 1
189 146 147 Double
190 1 148 1
191 1 149 1
192 2 150 1
193 2 151 1
194 3 152 1
195 4 153 1
196 5 154 1
197 5 155 1
198 7 156 1
199 8 157 1
200 9 158 1
201 9 159 1
202 10 160 1
203 10 161 1
204 12 162 1
205 13 163 1
206 14 164 1
207 14 165 1
208 18 166 1
209 23 167 1
210 23 168 1
211 24 169 1
212 24 170 1
213 25 171 1
214 35 173 1
215 35 174 1
216 36 175 1
217 37 176 1
218 37 177 1
219 38 178 1
220 38 179 1
221 41 180 1
222 41 181 1
223 42 182 1
224 43 183 1
225 43 184 1
226 44 185 1
227 44 186 1
228 46 187 1
229 50 188 1
230 57 189 1
231 63 190 1
232 72 191 1
233 73 192 1
234 74 193 1
235 75 194 1
236 75 195 1
237 76 196 1
238 76 197 1
239 77 198 1
240 78 199 1
241 79 200 1
242 79 201 1
243 80 202 1
244 80 203 1
245 81 204 1
246 81 205 1
247 82 206 1
248 87 207 1
249 88 208 1
250 90 209 1
251 90 210 1
252 91 211 1
253 91 212 1
254 92 213 1
255 92 214 1
256 93 215 1
257 93 216 1
258 95 217 1
259 98 218 1
260 101 219 1
261 105 220 1
262 106 221 1
263 108 222 1
264 109 223 1
265 109 224 1
266 110 225 1
267 110 226 1
268 111 227 1
269 111 228 1
270 117 229 1
271 118 230 1
272 118 231 1
273 118 232 1
274 119 233 1
275 119 234 1
276 119 235 1
277 120 236 1
278 121 237 1
279 122 238 1
280 128 239 1
281 129 240 1
282 130 241 1
283 137 242 1
284 138 243 1
285 139 244 1
286 143 245 1
287 143 246 1
288 144 247 1
289 144 248 1
290 145 249 1
291 145 250 1
292 31 172 1
@<TRIPOS>MOLECULE
Sketch 4
250 292
SMALL
USER_CHARGES


@<TRIPOS>ATOM
1 C70122 0.588623490208899 0.297334027660209 0.733952102213663 C 0.0 **** 0.0
2 C70123 0.589821005788357 0.285012445873931 0.749123594395365 C 0.0 **** 0.0
3 C70124 0.603566632019051 0.290783997731406 0.761626628489159 C 0.0 **** 0.0
4 C70125 0.621034922346758 0.292451083233854 0.752360092284743 C 0.0 **** 0.0
5 C70126 0.618059103212104 0.296075568009447 0.733407434638487 C 0.0 **** 0.0
6 O70127 0.603756062226707 0.306698645939802 0.731259518431276 O 0.0 **** 0.0
7 C70134 0.632304372199155 0.276936402677431 0.756089575561271 C 0.0 **** 0.0
8 C70135 0.636532654852255 0.276586533242543 0.775207544961264 C 0.0 **** 0.0
9 C70136 0.621483541279467 0.281967756282027 0.786325069065209 C 0.0 **** 0.0
10 C70137 0.604508034384889 0.279467322801273 0.777456435182218 C 0.0 **** 0.0
11 O70143 0.649447876578449 0.288523974451645 0.779104062182599 O 0.0 **** 0.0
12 C70144 0.665189739321341 0.285596208629255 0.770718689002215 C 0.0 **** 0.0
13 C70145 0.66271098560211 0.287440611594845 0.751565111282594 C 0.0 **** 0.0
14 C70146 0.648663172375603 0.275587906534784 0.745419416373149 C 0.0 **** 0.0
15 C70152 0.679356501553501 0.285126731693303 0.742165815942399 C 0.0 **** 0.0
16 C70153 0.693080013055444 0.274497901687067 0.750258828152591 C 0.0 **** 0.0
17 C70154 0.690677437954409 0.267575729208198 0.766206852349134 C 0.0 **** 0.0
18 C70155 0.673341886839508 0.268518701355281 0.774682336443785 C 0.0 **** 0.0
19 C70161 0.703962869818604 0.259164448673211 0.774035900401216 C 0.0 **** 0.0
20 C70162 0.719156808117396 0.256976224242746 0.765617207442549 C 0.0 **** 0.0
21 C70163 0.7212438741887 0.263239251772359 0.749357596077527 C 0.0 **** 0.0
22 C70164 0.708171167387951 0.272093967200259 0.741618606961014 C 0.0 **** 0.0
23 C70170 0.710384855971798 0.278227716410748 0.723571064940294 C 0.0 **** 0.0
24 C70171 0.699881736839312 0.294344354154434 0.719828834684078 C 0.0 **** 0.0
25 C70172 0.682718723349355 0.294213032667657 0.728133426407082 C 0.0 **** 0.0
26 O70177 0.736171294862871 0.260930501190788 0.740498810997829 O 0.0 **** 0.0
27 C70178 0.749619238594057 0.252732230470173 0.747995733169662 C 0.0 **** 0.0
28 C70179 0.749203606573637 0.245998902650891 0.764218104665344 C 0.0 **** 0.0
29 C70180 0.733135145745865 0.247492830985284 0.774237632894433 C 0.0 **** 0.0
30 C70186 0.674662726501079 0.263847295068004 0.793066808995394 C 0.0 **** 0.0
31 C70187 0.683631813352992 0.247052653993617 0.795035784670068 C 0.0 **** 0.0
32 C70188 0.701964182134037 0.25260113600565 0.791835644569517 C 0.0 **** 0.0
33 C70193 0.680241374897393 0.238203267415088 0.812143720114664 C 0.0 **** 0.0
34 C70194 0.675604064694176 0.248330008672097 0.825322295540213 C 0.0 **** 0.0
35 C70195 0.673692037692996 0.267366700227945 0.824178147397788 C 0.0 **** 0.0
36 C70196 0.670530506558127 0.273430888648125 0.806412454024709 C 0.0 **** 0.0
37 C70202 0.671339308314743 0.242145544052029 0.842649673326659 C 0.0 **** 0.0
38 C70203 0.671426514522312 0.222824117613299 0.844518846834233 C 0.0 **** 0.0
39 C70204 0.6773205289147 0.213511158001835 0.82913843311046 C 0.0 **** 0.0
40 C70205 0.681142583447026 0.221017234138265 0.814049066969041 C 0.0 **** 0.0
41 C70211 0.685793095058989 0.208933128027231 0.799493803507367 C 0.0 **** 0.0
42 C70212 0.675927622199544 0.192410985699744 0.801173707229261 C 0.0 **** 0.0
43 C70213 0.682015886774191 0.183843579154113 0.817541752346155 C 0.0 **** 0.0
44 C70214 0.676805970777878 0.194710481424061 0.832588523776003 C 0.0 **** 0.0
45 C70220 0.731048214548474 0.240529923101591 0.789841664886465 C 0.0 **** 0.0
46 C70221 0.716215340039625 0.24170448067179 0.798484158888372 C 0.0 **** 0.0
47 C70225 0.763342193083075 0.236733123341326 0.770204642887775 C 0.0 **** 0.0
48 C70226 0.763335750941479 0.227652357608004 0.785642915225942 C 0.0 **** 0.0
49 S70227 0.747442594038216 0.230334964803378 0.800382939275592 S 0.0 **** 0.0
50 C70232 0.775304764244787 0.215677726526437 0.789379256897334 C 0.0 **** 0.0
51 C70233 0.788227052630346 0.212096364034428 0.777656797316359 C 0.0 **** 0.0
52 C70234 0.789729132651654 0.222440090951519 0.763158375204134 C 0.0 **** 0.0
53 C70235 0.777568344002908 0.23476530919889 0.759639330287371 C 0.0 **** 0.0
54 C70241 0.802784008167428 0.219237157784091 0.751815081811337 C 0.0 **** 0.0
55 C70242 0.812985220355824 0.204848727709218 0.75361001709873 C 0.0 **** 0.0
56 C70243 0.809277710430724 0.192518140265311 0.765936721854744 C 0.0 **** 0.0
57 C70244 0.798263484822778 0.19742822711834 0.77900566155432 C 0.0 **** 0.0
58 C70250 0.816193910248474 0.176220205590905 0.764130208524127 C 0.0 **** 0.0
59 C70251 0.829243470590499 0.173762770224428 0.752610828615555 C 0.0 **** 0.0
60 C70252 0.83594373038895 0.187372269722597 0.743156464932128 C 0.0 **** 0.0
61 C70253 0.826884661823616 0.202627985795219 0.743130184594867 C 0.0 **** 0.0
62 C70259 0.778823015896014 0.243746997438957 0.744375419734414 C 0.0 **** 0.0
63 C70260 0.764048838883666 0.251572115188311 0.738377858314221 C 0.0 **** 0.0
64 C70264 0.805769290532806 0.230529847166369 0.738642989790963 C 0.0 **** 0.0
65 C70265 0.794304221886286 0.243577485277588 0.735316051795184 C 0.0 **** 0.0
66 C70269 0.831662297077192 0.215839073850114 0.732533245300058 C 0.0 **** 0.0
67 C70270 0.820705634776642 0.229377621150971 0.72967449329027 C 0.0 **** 0.0
68 C70274 0.851439662122754 0.186587382634572 0.733848834748348 C 0.0 **** 0.0
69 C70275 0.857959307495802 0.201655741254617 0.726934567700575 C 0.0 **** 0.0
70 C70276 0.847594507672967 0.215704107921928 0.725131415124344 C 0.0 **** 0.0
71 O70281 0.836307097074524 0.157666973563177 0.751691380883138 O 0.0 **** 0.0
72 C70282 0.823966434425692 0.144623575411487 0.748905481450807 C 0.0 **** 0.0
73 C70283 0.807924990114839 0.147092912111544 0.760154718602815 C 0.0 **** 0.0
74 C70284 0.811519843241502 0.160273554381133 0.773943484992805 C 0.0 **** 0.0
75 C70290 0.800591173664512 0.130267894207979 0.766888007082368 C 0.0 **** 0.0
76 C70291 0.801105958038975 0.117064608889621 0.752786401041397 C 0.0 **** 0.0
77 C70292 0.819535197454885 0.112130784316719 0.748971837495443 C 0.0 **** 0.0
78 C70293 0.832178804849564 0.127071631152362 0.751753390793553 C 0.0 **** 0.0
79 C70299 0.848752038890625 0.124467040974672 0.741710885881367 C 0.0 **** 0.0
80 C70300 0.852136420343517 0.105476009957 0.739848469757767 C 0.0 **** 0.0
81 C70301 0.837947531346009 0.0966543158608726 0.729612037809359 C 0.0 **** 0.0
82 N70302 0.82103378549564 0.103974022506956 0.732581239570459 N 0.0 **** 0.0
83 C70308 0.798759629994608 0.256806714429955 0.724030665887073 C 0.0 **** 0.0
84 C70309 0.81434613584241 0.256498249290542 0.716020488297334 C 0.0 **** 0.0
85 C70310 0.825264881240933 0.242583436343252 0.718698203929444 C 0.0 **** 0.0
86 O70315 0.819687188487387 0.269393330009216 0.705357650521353 O 0.0 **** 0.0
87 C70316 0.81092005300418 0.284900814839551 0.708381190433336 C 0.0 **** 0.0
88 C70317 0.792233719279788 0.281677455889084 0.708501293002582 C 0.0 **** 0.0
89 O70318 0.787703346816281 0.270212322519596 0.721694695437876 O 0.0 **** 0.0
90 C70324 0.78569471956389 0.275367226518829 0.691205200783017 C 0.0 **** 0.0
91 C70325 0.796162588629368 0.282222629922935 0.676262213545643 C 0.0 **** 0.0
92 C70326 0.803708512330773 0.299597593483796 0.680213368078915 C 0.0 **** 0.0
93 C70327 0.816250451722636 0.298200021066443 0.695129136825733 C 0.0 **** 0.0
94 C70333 0.852929835624798 0.229504858878338 0.715010465513416 C 0.0 **** 0.0
95 C70334 0.841366369926122 0.242493112729883 0.711292751287262 C 0.0 **** 0.0
96 C70338 0.873855399846506 0.201689310066577 0.719204706253255 C 0.0 **** 0.0
97 C70339 0.880383664484886 0.216589925390074 0.711827628950351 C 0.0 **** 0.0
98 C70340 0.869780559208699 0.230050734273228 0.709108233133897 C 0.0 **** 0.0
99 C70345 0.882136656223396 0.186344439303573 0.715549812197235 C 0.0 **** 0.0
100 C70346 0.87464169417813 0.171149918422065 0.719856428518896 C 0.0 **** 0.0
101 C70347 0.860121161816934 0.171576552469919 0.729505543393085 C 0.0 **** 0.0
102 O70352 0.896907164371646 0.217405787120093 0.706345305633834 O 0.0 **** 0.0
103 C70353 0.904244217707818 0.202657060226794 0.700729768199663 C 0.0 **** 0.0
104 C70354 0.897823504130519 0.187166648431633 0.704993520492341 C 0.0 **** 0.0
105 C70359 0.881540290329465 0.154087573256844 0.714358062587491 C 0.0 **** 0.0
106 C70360 0.899340902058938 0.155100283835263 0.704808912200634 C 0.0 **** 0.0
107 C70361 0.905466146310638 0.172678341637042 0.699544873220242 C 0.0 **** 0.0
108 C70366 0.899784765795715 0.143122735054496 0.689348205776435 C 0.0 **** 0.0
109 C70367 0.892472866086581 0.125648249941622 0.693764294192773 C 0.0 **** 0.0
110 C70368 0.873647619924548 0.126998236035523 0.698925376071898 C 0.0 **** 0.0
111 C70369 0.868438292354667 0.145271198008929 0.703060696147162 C 0.0 **** 0.0
112 C70375 0.919202088741305 0.173836389902302 0.689094859172155 C 0.0 **** 0.0
113 C70376 0.925966311979297 0.189357486985701 0.685244869931205 C 0.0 **** 0.0
114 C70377 0.918533189266921 0.203737001044242 0.691133191583552 C 0.0 **** 0.0
115 C70382 0.917777543414345 0.142770950057498 0.682340295640253 C 0.0 **** 0.0
116 C70384 0.92674842135188 0.15785011444276 0.681941462408278 C 0.0 **** 0.0
117 C70387 0.676447119394019 0.181187854071101 0.785271893205096 C 0.0 **** 0.0
118 C70389 0.693744466729646 0.173357157046427 0.781550162573881 C 0.0 **** 0.0
119 C70391 0.662874912804765 0.167464868909197 0.78631965900405 C 0.0 **** 0.0
120 O70393 0.797409118547474 0.162206515334293 0.784801891938907 O 0.0 **** 0.0
121 C70395 0.925372449052818 0.219196013151774 0.687435451943117 C 0.0 **** 0.0
122 C70396 0.939418931653096 0.220382740304961 0.677578710100689 C 0.0 **** 0.0
123 C70397 0.946804946657221 0.206103665744978 0.671345379314011 C 0.0 **** 0.0
124 C70398 0.940160611613078 0.190627893905465 0.675458930031447 C 0.0 **** 0.0
125 C70404 0.948391710559964 0.175110765518519 0.668929988931427 C 0.0 **** 0.0
126 C70405 0.961560795634225 0.176876642518996 0.657893989333327 C 0.0 **** 0.0
127 C70406 0.968028460330609 0.193939087697564 0.653744716462294 C 0.0 **** 0.0
128 C70407 0.960621787403521 0.20786275810897 0.660881163483043 C 0.0 **** 0.0
129 C70413 0.981108095839203 0.195587324093479 0.642543925199194 C 0.0 **** 0.0
130 C70414 0.987805420378661 0.181775345696801 0.634460169131569 C 0.0 **** 0.0
131 C70415 0.981771969310961 0.165805507877803 0.637367880983965 C 0.0 **** 0.0
132 C70416 0.968454036675615 0.162998644477529 0.650231137997136 C 0.0 **** 0.0
133 C70422 0.962114712527682 0.146728182721327 0.653392169351314 C 0.0 **** 0.0
134 C70423 0.949114075406445 0.144772337549021 0.665252096841293 C 0.0 **** 0.0
135 C70424 0.941902660678273 0.159077924161801 0.672851015054609 C 0.0 **** 0.0
136 C70429 0.967123991129697 0.133048023012622 0.643297983308534 C 0.0 **** 0.0
137 C70430 0.981005977477166 0.136756023537455 0.630583101551657 C 0.0 **** 0.0
138 C70431 0.987669790206129 0.152492430847798 0.628175890614492 C 0.0 **** 0.0
139 C70436 0.925132190626436 0.128697570394745 0.675193249711518 C 0.0 **** 0.0
140 C70437 0.941023939751728 0.129067715631906 0.666804165595989 C 0.0 **** 0.0
141 C70442 0.959254087036228 0.117414294725236 0.645172763639664 C 0.0 **** 0.0
142 C70443 0.947072246668559 0.115033457003665 0.657643349320695 C 0.0 **** 0.0
143 C70447 0.938971581544216 0.0977715977772238 0.660383127066299 C 0.0 **** 0.0
144 C70448 0.952006842352389 0.0837622220217284 0.657638604892883 C 0.0 **** 0.0
145 C70449 0.958528990209744 0.085402006290751 0.639781510451208 C 0.0 **** 0.0
146 C70450 0.963253085400162 0.102803187068224 0.633764348600421 C 0.0 **** 0.0
147 O70456 0.968987961007334 0.104166344110818 0.619608294651039 O 0.0 **** 0.0
148 H70458 0.578794873681701 0.306835588359267 0.736359489455473 H 0.0 **** 0.0
149 H70460 0.58496948827565 0.290622015885807 0.722309972421219 H 0.0 **** 0.0
150 H70462 0.577476470024574 0.283865100222315 0.755489189813908 H 0.0 **** 0.0
151 H70464 0.593052718790869 0.272161045566323 0.744723804266651 H 0.0 **** 0.0
152 H70466 0.599999252959038 0.303601094228056 0.765894210887724 H 0.0 **** 0.0
153 H70468 0.62751820004409 0.303608758917528 0.757713686364706 H 0.0 **** 0.0
154 H70470 0.616465843256191 0.284158144711214 0.726404533433283 H 0.0 **** 0.0
155 H70472 0.628866319901945 0.302724363814429 0.727740914787251 H 0.0 **** 0.0
156 H70474 0.624590228448259 0.265671522984352 0.753086411074093 H 0.0 **** 0.0
157 H70476 0.640475717620241 0.263674211128236 0.778716192976299 H 0.0 **** 0.0
158 H70478 0.623035112370723 0.295544719921773 0.78906298759648 H 0.0 **** 0.0
159 H70480 0.621753172811042 0.275562996621896 0.798670623342013 H 0.0 **** 0.0
160 H70482 0.593877614962618 0.282274356366097 0.786018727248633 H 0.0 **** 0.0
161 H70484 0.603232565373915 0.266064991697541 0.773850552093632 H 0.0 **** 0.0
162 H70486 0.673430649741286 0.295812751311105 0.775375436846939 H 0.0 **** 0.0
163 H70488 0.658406360421291 0.300495681733498 0.749249884256292 H 0.0 **** 0.0
164 H70490 0.653068513414115 0.262379923381298 0.745996077149316 H 0.0 **** 0.0
165 H70492 0.645903749404045 0.277970759217873 0.732005337107824 H 0.0 **** 0.0
166 H70494 0.665417496779763 0.258478864972082 0.768997760451393 H 0.0 **** 0.0
167 H70496 0.723774221300915 0.280851671550792 0.720828155555378 H 0.0 **** 0.0
168 H70498 0.706552226921525 0.26805701867842 0.714822331140189 H 0.0 **** 0.0
169 H70500 0.698430420785059 0.295894082716989 0.70603164093525 H 0.0 **** 0.0
170 H70502 0.706860629383534 0.305541581804115 0.724337183712417 H 0.0 **** 0.0
171 H70504 0.673500617373056 0.302925168591895 0.722721451856664 H 0.0 **** 0.0
172 H70506 0.679355819673845 0.238801739104293 0.784672051571804 H 0.0 **** 0.0
173 H70507 0.685118224181346 0.273457480470205 0.829299578642022 H 0.0 **** 0.0
174 H70509 0.662935141333142 0.271360666718586 0.832175456532951 H 0.0 **** 0.0
175 H70511 0.665111054750961 0.285994689363393 0.804860684115195 H 0.0 **** 0.0
176 H70513 0.680314804019889 0.247852880141434 0.851633663532041 H 0.0 **** 0.0
177 H70515 0.658692085333137 0.246924804981613 0.846107021825261 H 0.0 **** 0.0
178 H70517 0.658443245952898 0.218547677952186 0.84734466801969 H 0.0 **** 0.0
179 H70519 0.679362084111948 0.219156646169905 0.855392697318755 H 0.0 **** 0.0
180 H70521 0.683153353469854 0.21457987965622 0.787104984403439 H 0.0 **** 0.0
181 H70523 0.699494331179742 0.206400225405204 0.799741792302925 H 0.0 **** 0.0
182 H70525 0.662429129089246 0.195753448503471 0.802906572445681 H 0.0 **** 0.0
183 H70527 0.695876700195968 0.182441430566212 0.817127048842502 H 0.0 **** 0.0
184 H70529 0.676791794972693 0.171040870233754 0.819188913019768 H 0.0 **** 0.0
185 H70531 0.684547020019373 0.191784441206971 0.84381757626422 H 0.0 **** 0.0
186 H70533 0.663630670310676 0.191521147121373 0.835956147846565 H 0.0 **** 0.0
187 H70535 0.714634491407736 0.235840861284439 0.810845267522 H 0.0 **** 0.0
188 H70537 0.774338957813832 0.207953698285077 0.80087400565274 H 0.0 **** 0.0
189 H70539 0.795917342863279 0.189297524422064 0.789965354330476 H 0.0 **** 0.0
190 H70541 0.763473465412118 0.257159003747192 0.725685626486226 H 0.0 **** 0.0
191 H70543 0.820199849955768 0.145382646587685 0.735509617994808 H 0.0 **** 0.0
192 H70545 0.79771712722684 0.152483506995622 0.752242767854593 H 0.0 **** 0.0
193 H70547 0.822532558169129 0.156209985952701 0.781531571778941 H 0.0 **** 0.0
194 H70549 0.80782673466288 0.125605848142032 0.777865980669036 H 0.0 **** 0.0
195 H70551 0.787522739415017 0.132308865256781 0.771282660691229 H 0.0 **** 0.0
196 H70553 0.795127993791229 0.122469148949457 0.741399612404415 H 0.0 **** 0.0
197 H70555 0.793760905141763 0.105657726868687 0.756004494063734 H 0.0 **** 0.0
198 H70557 0.822913735983254 0.10238586436974 0.758362564233703 H 0.0 **** 0.0
199 H70559 0.835518811004378 0.126820526981845 0.765303712538786 H 0.0 **** 0.0
200 H70561 0.847366055123317 0.129912602005556 0.728980270267776 H 0.0 **** 0.0
201 H70563 0.859360640935401 0.131089843863696 0.747826166071195 H 0.0 **** 0.0
202 H70565 0.852834027123425 0.0999123044620844 0.75263148114762 H 0.0 **** 0.0
203 H70567 0.86443792973272 0.102840139820066 0.733896880578962 H 0.0 **** 0.0
204 H70569 0.837454679170372 0.0831170898912598 0.732836216914905 H 0.0 **** 0.0
205 H70571 0.84078155793247 0.0972743246336814 0.715981713401717 H 0.0 **** 0.0
206 H70573 0.817990499386948 0.112159144485597 0.72339277848033 H 0.0 **** 0.0
207 H70575 0.814623983701929 0.289473934776037 0.720976239810858 H 0.0 **** 0.0
208 H70577 0.785976388068823 0.29381164006856 0.71135917505325 H 0.0 **** 0.0
209 H70579 0.786070822761349 0.261455050622811 0.69113941395832 H 0.0 **** 0.0
210 H70581 0.772282680320115 0.278821961231193 0.689713018267702 H 0.0 **** 0.0
211 H70583 0.788555773760986 0.28244522413529 0.664651056123486 H 0.0 **** 0.0
212 H70585 0.806720741839096 0.273506545842145 0.673808315530672 H 0.0 **** 0.0
213 H70587 0.793411728812391 0.308405584763462 0.683483520159802 H 0.0 **** 0.0
214 H70589 0.810083205552458 0.304948507567266 0.66903018746698 H 0.0 **** 0.0
215 H70591 0.818095485365095 0.310750769658469 0.700883734333251 H 0.0 **** 0.0
216 H70593 0.828725663330166 0.294319999341528 0.690307121697781 H 0.0 **** 0.0
217 H70595 0.845387543548924 0.253061090469746 0.703239425616321 H 0.0 **** 0.0
218 H70597 0.874266271137915 0.241170564100473 0.702088132871002 H 0.0 **** 0.0
219 H70599 0.855165101721191 0.159191969410163 0.733081388321451 H 0.0 **** 0.0
220 H70601 0.883478800879553 0.146167080582231 0.725692702485181 H 0.0 **** 0.0
221 H70603 0.908765308456874 0.150306738992646 0.713939863503552 H 0.0 **** 0.0
222 H70605 0.891692327978238 0.14853280946464 0.679285096987892 H 0.0 **** 0.0
223 H70607 0.899912032280185 0.120166712944963 0.704184243945588 H 0.0 **** 0.0
224 H70609 0.893413180151216 0.116897873247996 0.683015277941285 H 0.0 **** 0.0
225 H70611 0.871158187280182 0.118832185510093 0.709914862549087 H 0.0 **** 0.0
226 H70613 0.865556872825102 0.122181583037963 0.688648768317876 H 0.0 **** 0.0
227 H70615 0.855700155833418 0.14530498025741 0.708657687872251 H 0.0 **** 0.0
228 H70617 0.86736685249766 0.152520980807164 0.691216740459058 H 0.0 **** 0.0
229 H70619 0.673073520623332 0.189305762975225 0.774437273893353 H 0.0 **** 0.0
230 H70621 0.693329513839287 0.165982623455609 0.769744716367733 H 0.0 **** 0.0
231 H70623 0.697697386274075 0.164774236443676 0.791765025961656 H 0.0 **** 0.0
232 H70625 0.703557739190167 0.18310438537929 0.780083489148113 H 0.0 **** 0.0
233 H70627 0.650154981088139 0.172968262850056 0.787609601842269 H 0.0 **** 0.0
234 H70629 0.665067313693805 0.15926445199973 0.797295013309427 H 0.0 **** 0.0
235 H70631 0.662916849628754 0.159467385182311 0.774982006764961 H 0.0 **** 0.0
236 H70633 0.796110353480312 0.151622032507099 0.790348845620294 H 0.0 **** 0.0
237 H70635 0.919705464890884 0.230862472949782 0.692144828830686 H 0.0 **** 0.0
238 H70637 0.944418121770373 0.23291125880408 0.674673869081775 H 0.0 **** 0.0
239 H70639 0.965404518862069 0.220458918600678 0.657826785923506 H 0.0 **** 0.0
240 H70641 0.986139722433892 0.208050365118139 0.639435053710549 H 0.0 **** 0.0
241 H70643 0.997848765410665 0.18385988795399 0.625219503791533 H 0.0 **** 0.0
242 H70645 0.986000609125167 0.126511752079084 0.62294412514188 H 0.0 **** 0.0
243 H70647 0.997446999280029 0.154194458280599 0.618611706291976 H 0.0 **** 0.0
244 H70649 0.917840811738032 0.116954227084791 0.675211524282523 H 0.0 **** 0.0
245 H70651 0.934005026167696 0.0966628983287916 0.673283550513747 H 0.0 **** 0.0
246 H70653 0.928192664031723 0.0960211498464079 0.651681995015886 H 0.0 **** 0.0
247 H70655 0.946416052967896 0.0711439727546729 0.659494677758599 H 0.0 **** 0.0
248 H70657 0.962345725690144 0.0850518056105552 0.666906091281077 H 0.0 **** 0.0
249 H70659 0.94887820308549 0.0816144388225934 0.630527950980049 H 0.0 **** 0.0
250 H70661 0.969782475725014 0.0779383405446337 0.636794428789628 H 0.0 **** 0.0
@<TRIPOS>BOND
1 3 2 1
2 4 3 1
3 5 4 1
4 6 5 1
5 1 2 1
6 1 6 1
7 8 7 1
8 9 8 1
9 10 9 1
10 4 7 1
11 3 10 1
12 12 11 1
13 13 12 1
14 14 13 1
15 8 11 1
16 7 14 1
17 16 15 1
18 17 16 Partial double
19 18 17 1
20 13 15 1
21 12 18 1
22 20 19 Partial double
23 21 20 Partial double
24 22 21 Partial double
25 17 19 Partial double
26 16 22 Partial double
27 24 23 1
28 25 24 1
29 15 25 Double
30 22 23 1
31 27 26 1
32 28 27 Partial double
33 29 28 Partial double
34 21 26 1
35 20 29 Partial double
36 31 30 1
37 32 31 1
38 18 30 1
39 19 32 1
40 34 33 Double
41 35 34 1
42 36 35 1
43 31 33 1
44 30 36 Double
45 38 37 1
46 39 38 1
47 40 39 Double
48 34 37 1
49 33 40 1
50 42 41 1
51 43 42 1
52 44 43 1
53 40 41 1
54 39 44 1
55 46 45 Partial double
56 32 46 1
57 29 45 Partial double
58 48 47 Partial double
59 49 48 1
60 45 49 Partial double
61 28 47 Partial double
62 51 50 Partial double
63 52 51 Partial double
64 53 52 Partial double
65 48 50 Partial double
66 47 53 Partial double
67 55 54 Partial double
68 56 55 Partial double
69 57 56 Partial double
70 52 54 Partial double
71 51 57 Partial double
72 59 58 Partial double
73 60 59 Partial double
74 61 60 Partial double
75 56 58 Partial double
76 55 61 Partial double
77 63 62 Partial double
78 27 63 Partial double
79 53 62 Partial double
80 65 64 Partial double
81 62 65 Partial double
82 54 64 Partial double
83 67 66 Partial double
84 64 67 Partial double
85 61 66 Partial double
86 69 68 Partial double
87 70 69 Partial double
88 66 70 Partial double
89 60 68 Partial double
90 72 71 1
91 73 72 1
92 74 73 1
93 59 71 1
94 58 74 1
95 76 75 1
96 77 76 1
97 78 77 1
98 73 75 1
99 72 78 1
100 80 79 1
101 81 80 1
102 82 81 1
103 78 79 1
104 77 82 1
105 84 83 Partial double
106 85 84 Partial double
107 67 85 Partial double
108 65 83 Partial double
109 87 86 1
110 88 87 1
111 89 88 1
112 84 86 1
113 83 89 1
114 91 90 1
115 92 91 1
116 93 92 1
117 88 90 1
118 87 93 1
119 95 94 Partial double
120 85 95 Partial double
121 70 94 Partial double
122 97 96 Partial double
123 98 97 Partial double
124 94 98 Partial double
125 69 96 Partial double
126 100 99 Partial double
127 101 100 Partial double
128 68 101 Partial double
129 96 99 Partial double
130 103 102 1
131 104 103 Partial double
132 97 102 1
133 99 104 1
134 106 105 1
135 107 106 1
136 100 105 1
137 104 107 Partial double
138 109 108 1
139 110 109 1
140 111 110 1
141 106 108 1
142 105 111 1
143 113 112 1
144 114 113 1
145 103 114 Partial double
146 107 112 Partial double
147 108 115 1
148 112 116 Partial double
149 115 116 Partial double
150 42 117 1
151 117 118 1
152 117 119 1
153 74 120 1
154 122 121 1
155 123 122 Partial double
156 124 123 1
157 114 121 Partial double
158 113 124 Partial double
159 126 125 Partial double
160 127 126 1
161 128 127 Partial double
162 124 125 Partial double
163 123 128 Partial double
164 130 129 Partial double
165 131 130 1
166 132 131 1
167 127 129 Partial double
168 126 132 Partial double
169 134 133 Partial double
170 135 134 Partial double
171 125 135 Partial double
172 132 133 Partial double
173 137 136 Partial double
174 138 137 Partial double
175 131 138 Partial double
176 133 136 Partial double
177 140 139 Partial double
178 134 140 Partial double
179 116 135 Partial double
180 115 139 Partial double
181 142 141 Partial double
182 140 142 Partial double
183 136 141 Partial double
184 144 143 1
185 145 144 1
186 146 145 1
187 142 143 1
188 141 146 1
189 146 147 Double
190 1 148 1
191 1 149 1
192 2 150 1
193 2 151 1
194 3 152 1
195 4 153 1
196 5 154 1
197 5 155 1
198 7 156 1
199 8 157 1
200 9 158 1
201 9 159 1
202 10 160 1
203 10 161 1
204 12 162 1
205 13 163 1
206 14 164 1
207 14 165 1
208 18 166 1
209 23 167 1
210 23 168 1
211 24 169 1
212 24 170 1
213 25 171 1
214 35 173 1
215 35 174 1
216 36 175 1
217 37 176 1
218 37 177 1
219 38 178 1
220 38 179 1
221 41 180 1
222 41 181 1
223 42 182 1
224 43 183 1
225 43 184 1
226 44 185 1
227 44 186 1
228 46 187 1
229 50 188 1
230 57 189 1
231 63 190 1
232 72 191 1
233 73 192 1
234 74 193 1
235 75 194 1
236 75 195 1
237 76 196 1
238 76 197 1
239 77 198 1
240 78 199 1
241 79 200 1
242 79 201 1
243 80 202 1
244 80 203 1
245 81 204 1
246 81 205 1
247 82 206 1
248 87 207 1
249 88 208 1
250 90 209 1
251 90 210 1
252 91 211 1
253 91 212 1
254 92 213 1
255 92 214 1
256 93 215 1
257 93 216 1
258 95 217 1
259 98 218 1
260 101 219 1
261 105 220 1
262 106 221 1
263 108 222 1
264 109 223 1
265 109 224 1
266 110 225 1
267 110 226 1
268 111 227 1
269 111 228 1
270 117 229 1
271 118 230 1
272 118 231 1
273 118 232 1
274 119 233 1
275 119 234 1
276 119 235 1
277 120 236 1
278 121 237 1
279 122 238 1
280 128 239 1
281 129 240 1
282 130 241 1
283 137 242 1
284 138 243 1
285 139 244 1
286 143 245 1
287 143 246 1
288 144 247 1
289 144 248 1
290 145 249 1
291 145 250 1
292 31 172 1
@<TRIPOS>MOLECULE
Sketch 4
250 292
SMALL
USER_CHARGES


@<TRIPOS>ATOM
1 C70664 0.642009453064408 0.73765200841642 0.786768214530619 C 0.0 **** 0.0
2 C70665 0.651038414934395 0.722891379745726 0.796126164453981 C 0.0 **** 0.0
3 C70666 0.653063171965973 0.726881621224619 0.815137738329044 C 0.0 **** 0.0
4 C70667 0.660483038407157 0.744884753234686 0.817538348760284 C 0.0 **** 0.0
5 C70668 0.650198616041648 0.757580301584411 0.806504087803186 C 0.0 **** 0.0
6 O70669 0.636064776031287 0.750097807446277 0.798249827670454 O 0.0 **** 0.0
7 C70676 0.679793046933168 0.746021901505054 0.813722902614646 C 0.0 **** 0.0
8 C70677 0.689712522318183 0.730100567952071 0.820257774859874 C 0.0 **** 0.0
9 C70678 0.679127944731154 0.719832745711818 0.8327734313732 C 0.0 **** 0.0
10 C70679 0.662780913683829 0.713044400958406 0.824963965215292 C 0.0 **** 0.0
11 O70685 0.705500592246706 0.73286487537537 0.828467510935419 O 0.0 **** 0.0
12 C70686 0.714954115541568 0.747186152588479 0.822903212790859 C 0.0 **** 0.0
13 C70687 0.704892520935908 0.763139506927921 0.827555136511654 C 0.0 **** 0.0
14 C70688 0.687159196096988 0.763566044658087 0.819079095268224 C 0.0 **** 0.0
15 C70694 0.715199375631 0.778951739441527 0.824020419380748 C 0.0 **** 0.0
16 C70695 0.727724390066033 0.778430485494455 0.809597566938562 C 0.0 **** 0.0
17 C70696 0.73086954217546 0.763374242314312 0.801121110896233 C 0.0 **** 0.0
18 C70697 0.719589917763218 0.747866097336098 0.804117684764114 C 0.0 **** 0.0
19 C70703 0.74377724660991 0.762880070294423 0.789237339829812 C 0.0 **** 0.0
20 C70704 0.752283253753249 0.777529731386968 0.784825427783403 C 0.0 **** 0.0
21 C70705 0.748435399882945 0.792731603311168 0.792695896661891 C 0.0 **** 0.0
22 C70706 0.736244633179052 0.793173865759726 0.805333531436671 C 0.0 **** 0.0
23 C70712 0.731737312009151 0.809849799887056 0.813670405810428 C 0.0 **** 0.0
24 C70713 0.726480652521666 0.807320661560928 0.832347372614084 C 0.0 **** 0.0
25 C70714 0.714889750070933 0.79232816566661 0.834594227047293 C 0.0 **** 0.0
26 O70719 0.756630224191768 0.80759302978304 0.788369504530596 O 0.0 **** 0.0
27 C70720 0.769237480825324 0.807457099866754 0.776310445959727 C 0.0 **** 0.0
28 C70721 0.774045039984284 0.793176212264015 0.767342168647489 C 0.0 **** 0.0
29 C70722 0.765395756041609 0.776747511938622 0.771164242756362 C 0.0 **** 0.0
30 C70728 0.726850695072153 0.73227282966626 0.795795737771865 C 0.0 **** 0.0
31 C70729 0.732140641382808 0.736331731614006 0.777831904917373 C 0.0 **** 0.0
32 C70730 0.748430469993442 0.746343672810226 0.781064396318934 C 0.0 **** 0.0
33 C70735 0.734355167579035 0.720954510276049 0.766055294925933 C 0.0 **** 0.0
34 C70736 0.737351546891369 0.705712157661606 0.773553104836353 C 0.0 **** 0.0
35 C70737 0.737757056822956 0.702925634567571 0.79257552497269 C 0.0 **** 0.0
36 C70738 0.729672571426058 0.717039831063791 0.802656055771453 C 0.0 **** 0.0
37 C70744 0.738725496143056 0.689424062698202 0.763990104521447 C 0.0 **** 0.0
38 C70745 0.74057404797458 0.691656384265352 0.744769086983632 C 0.0 **** 0.0
39 C70746 0.73559438558995 0.708887537792608 0.738494422963421 C 0.0 **** 0.0
40 C70747 0.732878583836022 0.722432175764928 0.748854007419419 C 0.0 **** 0.0
41 C70753 0.72823490044255 0.739374086743394 0.740324446084839 C 0.0 **** 0.0
42 C70754 0.720463800721183 0.737288183729782 0.72282810709267 C 0.0 **** 0.0
43 C70755 0.732793393126614 0.726894119848639 0.711989442905445 C 0.0 **** 0.0
44 C70756 0.734628771452162 0.709182352797223 0.719399439291363 C 0.0 **** 0.0
45 C70762 0.769097375678439 0.762110582667502 0.762941976491988 C 0.0 **** 0.0
46 C70763 0.761266409661216 0.747317543376425 0.76686241200262 C 0.0 **** 0.0
47 C70767 0.788156816599413 0.794157263115857 0.75630994742733 C 0.0 **** 0.0
48 C70768 0.795569511534302 0.779763613626734 0.748828466032 C 0.0 **** 0.0
49 S70769 0.78375756323619 0.761516752317293 0.746496344888942 S 0.0 **** 0.0
50 C70774 0.812222725220396 0.779495346009943 0.743822358249439 C 0.0 **** 0.0
51 C70775 0.82160379778058 0.794741948158166 0.743920315928326 C 0.0 **** 0.0
52 C70776 0.812936750633409 0.809999454000126 0.747435226221334 C 0.0 **** 0.0
53 C70777 0.796836482547199 0.809599838890126 0.754622748474709 C 0.0 **** 0.0
54 C70783 0.820838428306125 0.8253508576632 0.74401995121266 C 0.0 **** 0.0
55 C70784 0.837756253474425 0.825669868259883 0.738736760600887 C 0.0 **** 0.0
56 C70785 0.847787410891585 0.810918128191467 0.73988328485165 C 0.0 **** 0.0
57 C70786 0.839096294302603 0.795382083484467 0.740552165398222 C 0.0 **** 0.0
58 C70792 0.865529492794193 0.812637578948509 0.740771756115024 C 0.0 **** 0.0
59 C70793 0.872756651265824 0.827360672626632 0.734647507731165 C 0.0 **** 0.0
60 C70794 0.862494790801665 0.841379596881444 0.730145463082213 C 0.0 **** 0.0
61 C70795 0.845256388596719 0.840822392148495 0.734057175091615 C 0.0 **** 0.0
62 C70801 0.790043686085739 0.82451780652332 0.761333144062432 C 0.0 **** 0.0
63 C70802 0.777135419444002 0.822648827421432 0.773377668999859 C 0.0 **** 0.0
64 C70806 0.812098801092901 0.840377903157531 0.746788067184352 C 0.0 **** 0.0
65 C70807 0.796865706048718 0.840300843035041 0.756018765336047 C 0.0 **** 0.0
66 C70811 0.836061605390712 0.855803267654702 0.735558610844384 C 0.0 **** 0.0
67 C70812 0.819500149413185 0.855440901032928 0.741787249022464 C 0.0 **** 0.0
68 C70816 0.869790914178805 0.856852822215159 0.724579504370508 C 0.0 **** 0.0
69 C70817 0.860800540078758 0.871901347199615 0.727532519194835 C 0.0 **** 0.0
70 C70818 0.844128807942179 0.871252958039749 0.73284994437392 C 0.0 **** 0.0
71 O70823 0.890204787976923 0.829119603393763 0.733838477730096 O 0.0 **** 0.0
72 C70824 0.901053926384394 0.814758509712755 0.731731535594171 C 0.0 **** 0.0
73 C70825 0.89228906074482 0.797460941298609 0.73501459063118 C 0.0 **** 0.0
74 C70826 0.877969750262928 0.79978075303577 0.747754260427699 C 0.0 **** 0.0
75 C70832 0.90490666485794 0.783574033974532 0.740660305133662 C 0.0 **** 0.0
76 C70833 0.922815069338809 0.787066699017224 0.734338184839787 C 0.0 **** 0.0
77 C70834 0.929906996769392 0.803147455621475 0.742658466869392 C 0.0 **** 0.0
78 C70835 0.916585398989872 0.817767350176382 0.743229184105374 C 0.0 **** 0.0
79 C70841 0.924679140084474 0.83533785743997 0.740296734880459 C 0.0 **** 0.0
80 C70842 0.941787056840646 0.835850042830867 0.749363910392492 C 0.0 **** 0.0
81 C70843 0.954257601037131 0.822321937814861 0.742541125777603 C 0.0 **** 0.0
82 N70844 0.945923590799433 0.807596796036515 0.734898061711623 N 0.0 **** 0.0
83 C70850 0.788966689851822 0.855778463984151 0.760045003578203 C 0.0 **** 0.0
84 C70851 0.795895581777059 0.87077818561063 0.754527953080192 C 0.0 **** 0.0
85 C70852 0.811041338553697 0.870651110952816 0.745215937725395 C 0.0 **** 0.0
86 O70857 0.788168268378815 0.885961410450176 0.758500039605143 O 0.0 **** 0.0
87 C70858 0.784332278971235 0.885662841032506 0.776169410780625 C 0.0 **** 0.0
88 C70859 0.775118866547092 0.869629270222961 0.781764209620926 C 0.0 **** 0.0
89 O70860 0.774014704046091 0.856766636072297 0.769008168382739 O 0.0 **** 0.0
90 C70866 0.757335666463344 0.873342003404742 0.788689354865309 C 0.0 **** 0.0
91 C70867 0.757481997094042 0.886093687684782 0.803336582337716 C 0.0 **** 0.0
92 C70868 0.768957821905602 0.901565523827817 0.799576522985973 C 0.0 **** 0.0
93 C70869 0.774824960516993 0.901941968757522 0.781103615469419 C 0.0 **** 0.0
94 C70875 0.835325089433171 0.886618669735924 0.735410693826595 C 0.0 **** 0.0
95 C70876 0.818660023491329 0.886062443241227 0.741386600082667 C 0.0 **** 0.0
96 C70880 0.868658871403063 0.887494171368793 0.724531894995493 C 0.0 **** 0.0
97 C70881 0.859905010197373 0.902829989172297 0.727255701115417 C 0.0 **** 0.0
98 C70882 0.84338088370883 0.902193692250785 0.732241488958013 C 0.0 **** 0.0
99 C70887 0.885096750709711 0.888274320035377 0.717946105128444 C 0.0 **** 0.0
100 C70888 0.893443980307837 0.873656890961027 0.713236562585796 C 0.0 **** 0.0
101 C70889 0.88563048220281 0.858364463652311 0.716377483709681 C 0.0 **** 0.0
102 O70894 0.867032470893108 0.918456173463074 0.724434989708423 O 0.0 **** 0.0
103 C70895 0.884020077462224 0.919354620104588 0.720872680901157 C 0.0 **** 0.0
104 C70896 0.893135615660243 0.905306483518311 0.71657036917618 C 0.0 **** 0.0
105 C70901 0.910837006948588 0.873900383781072 0.705093071532931 C 0.0 **** 0.0
106 C70902 0.920547397671417 0.891392547552003 0.707247066591483 C 0.0 **** 0.0
107 C70903 0.909700656945667 0.906643219632492 0.712041344459141 C 0.0 **** 0.0
108 C70908 0.930627700752288 0.896319243401761 0.691176040445868 C 0.0 **** 0.0
109 C70909 0.939691067165885 0.881395264723553 0.682759276626783 C 0.0 **** 0.0
110 C70910 0.927427746566914 0.86658086183116 0.67889479901694 C 0.0 **** 0.0
111 C70911 0.909645426698759 0.869091796877993 0.686379032973467 C 0.0 **** 0.0
112 C70917 0.917119828641982 0.922211148987668 0.711864573880291 C 0.0 **** 0.0
113 C70918 0.908435403075207 0.93609418483122 0.717517452274409 C 0.0 **** 0.0
114 C70919 0.891813208199333 0.93473987097359 0.721785196496299 C 0.0 **** 0.0
115 C70924 0.942212620009663 0.911038679914545 0.695922947264728 C 0.0 **** 0.0
116 C70926 0.935073378505583 0.923647343072006 0.705787857819299 C 0.0 **** 0.0
117 C70929 0.715094511595168 0.75447578038239 0.715137090311415 C 0.0 **** 0.0
118 C70931 0.729893236428186 0.76611392519696 0.710529507911286 C 0.0 **** 0.0
119 C70933 0.703691498629127 0.752306552870802 0.699606253851714 C 0.0 **** 0.0
120 O70935 0.870581029435975 0.783956244481811 0.752180188754109 O 0.0 **** 0.0
121 C70937 0.88310796961806 0.948726926163841 0.727079228239722 C 0.0 **** 0.0
122 C70938 0.891120441208157 0.963888590521011 0.728569385327011 C 0.0 **** 0.0
123 C70939 0.90785745200889 0.9653204470515 0.724652147567505 C 0.0 **** 0.0
124 C70940 0.916390143548714 0.951351601164161 0.719024144303452 C 0.0 **** 0.0
125 C70946 0.93462215083188 0.952734499356761 0.714936376901734 C 0.0 **** 0.0
126 C70947 0.942352765453366 0.968044819204974 0.716726568376895 C 0.0 **** 0.0
127 C70948 0.932488740341285 0.982674858548722 0.722967706623739 C 0.0 **** 0.0
128 C70949 0.91564618539642 0.980796500747893 0.726606183558672 C 0.0 **** 0.0
129 C70955 0.940372969401573 0.997934484211602 0.724854524374792 C 0.0 **** 0.0
130 C70956 0.957050619208348 0.999977374586329 0.720567512494666 C 0.0 **** 0.0
131 C70957 0.966470212990585 0.986994924142306 0.714014535143487 C 0.0 **** 0.0
132 C70958 0.958942792876208 0.969984416058903 0.712240067478065 C 0.0 **** 0.0
133 C70964 0.968299240781726 0.956512382035691 0.70538003180617 C 0.0 **** 0.0
134 C70965 0.960419654242684 0.940807607277768 0.703609754367591 C 0.0 **** 0.0
135 C70966 0.943592271931901 0.938813067815571 0.708669519983564 C 0.0 **** 0.0
136 C70971 0.984687047821419 0.958987912135615 0.69913771154602 C 0.0 **** 0.0
137 C70972 0.991730651500188 0.976747860615951 0.701785150151132 C 0.0 **** 0.0
138 C70973 0.982698253523483 0.989634066967009 0.708910844224268 C 0.0 **** 0.0
139 C70978 0.958675415309407 0.913196430931165 0.690602015017103 C 0.0 **** 0.0
140 C70979 0.968517140235695 0.927707191285434 0.694820941970127 C 0.0 **** 0.0
141 C70984 0.993117139796997 0.945700208488995 0.691060437944096 C 0.0 **** 0.0
142 C70985 0.985330095138627 0.929960239924677 0.689289197755814 C 0.0 **** 0.0
143 C70989 0.994153279189529 0.915228595720971 0.680445896357958 C 0.0 **** 0.0
144 C70990 1.01322503182884 0.915585262302214 0.683373327324522 C 0.0 **** 0.0
145 C70991 1.01992383038647 0.932517184680648 0.677714485001994 C 0.0 **** 0.0
146 C70992 1.01062582762522 0.947917074653605 0.683938332637693 C 0.0 **** 0.0
147 O70998 1.01791407050978 0.961328158702721 0.682487409190768 O 0.0 **** 0.0
148 H71000 0.630854186276638 0.733034434662382 0.779904233618851 H 0.0 **** 0.0
149 H71002 0.65038088012795 0.743417708771961 0.777217894210355 H 0.0 **** 0.0
150 H71004 0.643937153155504 0.710973315239268 0.794705183529384 H 0.0 **** 0.0
151 H71006 0.663594483846118 0.720457022792483 0.790579648400188 H 0.0 **** 0.0
152 H71008 0.640128324566502 0.727463898037499 0.82031659058213 H 0.0 **** 0.0
153 H71010 0.658817405920429 0.748072961958849 0.831049341058905 H 0.0 **** 0.0
154 H71012 0.658528767403602 0.763447393249458 0.797025873042152 H 0.0 **** 0.0
155 H71014 0.645071824887079 0.767884863076213 0.814257353709005 H 0.0 **** 0.0
156 H71016 0.680848760416016 0.745625121267337 0.799790352187941 H 0.0 **** 0.0
157 H71018 0.692101166318101 0.721972788824468 0.809146856111705 H 0.0 **** 0.0
158 H71020 0.676216190053965 0.727936160373558 0.843749162147719 H 0.0 **** 0.0
159 H71022 0.686962614524516 0.709426656989856 0.837691747024612 H 0.0 **** 0.0
160 H71024 0.654707855207828 0.707647216532044 0.834947437226258 H 0.0 **** 0.0
161 H71026 0.665904680430887 0.702452632427556 0.816472966132581 H 0.0 **** 0.0
162 H71028 0.726594312972745 0.746605769127185 0.83053510829272 H 0.0 **** 0.0
163 H71030 0.702811437835458 0.762433903002543 0.841314226947252 H 0.0 **** 0.0
164 H71032 0.687460405681005 0.771619462620783 0.807712578637331 H 0.0 **** 0.0
165 H71034 0.678373963547437 0.769913937481708 0.827828998656692 H 0.0 **** 0.0
166 H71036 0.707783334215143 0.750198679092165 0.796971499421963 H 0.0 **** 0.0
167 H71038 0.742376872303199 0.818788973593003 0.813071068857758 H 0.0 **** 0.0
168 H71040 0.721197959361716 0.815777912156611 0.806693314024271 H 0.0 **** 0.0
169 H71042 0.72025071218373 0.818877950079639 0.837094605380922 H 0.0 **** 0.0
170 H71044 0.737838327883981 0.805414612295241 0.840201209405835 H 0.0 **** 0.0
171 H71046 0.707021396751141 0.792580454667429 0.845895953634033 H 0.0 **** 0.0
172 H71048 0.722441014918743 0.744771620142317 0.772488629862634 H 0.0 **** 0.0
173 H71049 0.750949286023334 0.701072601158714 0.796703387694132 H 0.0 **** 0.0
174 H71051 0.730947616930282 0.691052410513543 0.795361446251736 H 0.0 **** 0.0
175 H71053 0.726382104624368 0.714488240258713 0.815793748952161 H 0.0 **** 0.0
176 H71055 0.749461023446743 0.681945062428599 0.768862331712358 H 0.0 **** 0.0
177 H71057 0.727198891046406 0.68206468613171 0.766648103494924 H 0.0 **** 0.0
178 H71059 0.733086172179668 0.681826574674306 0.73831985316852 H 0.0 **** 0.0
179 H71061 0.753802534784188 0.689406862392171 0.741092126144621 H 0.0 **** 0.0
180 H71063 0.719288570274258 0.746555854317242 0.748163173670682 H 0.0 **** 0.0
181 H71065 0.739768237798305 0.747117559224839 0.739374238803953 H 0.0 **** 0.0
182 H71067 0.708744233960922 0.729775599337045 0.72423927482741 H 0.0 **** 0.0
183 H71069 0.745195081100735 0.733259700237019 0.711780829542227 H 0.0 **** 0.0
184 H71071 0.728617282645953 0.725924614206591 0.698732472131508 H 0.0 **** 0.0
185 H71073 0.745881060430858 0.70287537807117 0.714134089979302 H 0.0 **** 0.0
186 H71075 0.723644551186039 0.701518249713794 0.715509854686922 H 0.0 **** 0.0
187 H71077 0.764317656972673 0.735668697494072 0.760187120931029 H 0.0 **** 0.0
188 H71079 0.818284092423067 0.767771069587982 0.739546829642126 H 0.0 **** 0.0
189 H71081 0.845664961281526 0.783326129525025 0.738591402153536 H 0.0 **** 0.0
190 H71083 0.772211990625199 0.833195729931283 0.780846812772915 H 0.0 **** 0.0
191 H71085 0.905434662862023 0.814930641415281 0.718493266019382 H 0.0 **** 0.0
192 H71087 0.886610557540008 0.79312834326143 0.723048620799238 H 0.0 **** 0.0
193 H71089 0.883612511047779 0.805243076390821 0.759345290924408 H 0.0 **** 0.0
194 H71091 0.905361305831238 0.782918941583847 0.754564897811495 H 0.0 **** 0.0
195 H71093 0.900377262388638 0.771103702623998 0.736402665062921 H 0.0 **** 0.0
196 H71095 0.922653136509718 0.788556134151289 0.720468185161837 H 0.0 **** 0.0
197 H71097 0.9312852454125 0.776315788360076 0.737033187786706 H 0.0 **** 0.0
198 H71099 0.932877954738997 0.799858671023216 0.755875802043417 H 0.0 **** 0.0
199 H71101 0.911363150990855 0.817954723826603 0.756180394546199 H 0.0 **** 0.0
200 H71103 0.92656201509692 0.837514333046517 0.726658451298814 H 0.0 **** 0.0
201 H71105 0.916189797531019 0.845414607694676 0.744827997118915 H 0.0 **** 0.0
202 H71107 0.939344155171339 0.833417624482332 0.762891884585109 H 0.0 **** 0.0
203 H71109 0.947717375965311 0.848430641223471 0.748789940124032 H 0.0 **** 0.0
204 H71111 0.962445626828334 0.817776316119037 0.752866405350833 H 0.0 **** 0.0
205 H71113 0.962807023873528 0.827982989349392 0.733114618379931 H 0.0 **** 0.0
206 H71115 0.944175317872537 0.809117358154191 0.722447950693702 H 0.0 **** 0.0
207 H71117 0.796596166448557 0.886210862248946 0.78284614244873 H 0.0 **** 0.0
208 H71119 0.782259046475302 0.863980533423606 0.792347546700338 H 0.0 **** 0.0
209 H71121 0.749565770281324 0.878254202075287 0.778219910412385 H 0.0 **** 0.0
210 H71123 0.751419052131524 0.861347332230011 0.792625189658413 H 0.0 **** 0.0
211 H71125 0.761866909812003 0.879689023246513 0.814887564726408 H 0.0 **** 0.0
212 H71127 0.744452771796079 0.890190196545807 0.806065826159293 H 0.0 **** 0.0
213 H71129 0.780291323781447 0.901091168820369 0.8076786069916 H 0.0 **** 0.0
214 H71131 0.762437978023361 0.913416273491453 0.802901334744898 H 0.0 **** 0.0
215 H71133 0.783100425229483 0.91291077087652 0.778726591288359 H 0.0 **** 0.0
216 H71135 0.763912038959355 0.903450249837191 0.772567853577798 H 0.0 **** 0.0
217 H71137 0.811920924576754 0.897807710304605 0.744162691871514 H 0.0 **** 0.0
218 H71139 0.836285904439251 0.914003051118338 0.733671344393149 H 0.0 **** 0.0
219 H71141 0.892533631005973 0.84696908983297 0.712491028666636 H 0.0 **** 0.0
220 H71143 0.918716144462084 0.864227630869497 0.711352493711544 H 0.0 **** 0.0
221 H71145 0.929618058982196 0.889455683897146 0.717678244734098 H 0.0 **** 0.0
222 H71147 0.921474108264356 0.901106965643434 0.681711989121156 H 0.0 **** 0.0
223 H71149 0.949800357404093 0.87699198660934 0.691161056460358 H 0.0 **** 0.0
224 H71151 0.945837991802341 0.885565681482777 0.670978990686174 H 0.0 **** 0.0
225 H71153 0.932754799458289 0.854825999281467 0.684106870448355 H 0.0 **** 0.0
226 H71155 0.926425708248 0.864558891224723 0.665175211374837 H 0.0 **** 0.0
227 H71157 0.902200064959902 0.857463004157912 0.684644685114499 H 0.0 **** 0.0
228 H71159 0.90285205658868 0.879091892514631 0.679422516380725 H 0.0 **** 0.0
229 H71161 0.707493862976536 0.761083071634931 0.724843881917885 H 0.0 **** 0.0
230 H71163 0.725169180403949 0.77842928139103 0.706096164937453 H 0.0 **** 0.0
231 H71165 0.737473400108585 0.760603133589215 0.700256972909338 H 0.0 **** 0.0
232 H71167 0.738348154809039 0.768560615025695 0.72129590389608 H 0.0 **** 0.0
233 H71169 0.692711144636663 0.744210677199566 0.702321801978212 H 0.0 **** 0.0
234 H71171 0.71067724064539 0.74657233863576 0.689024490083823 H 0.0 **** 0.0
235 H71173 0.698832310766286 0.764622488506959 0.695277241357244 H 0.0 **** 0.0
236 H71175 0.860725742999469 0.786801705686578 0.758439482249055 H 0.0 **** 0.0
237 H71177 0.869742002517003 0.948016393970439 0.730424860846157 H 0.0 **** 0.0
238 H71179 0.883927826879773 0.974700060205308 0.733110160218536 H 0.0 **** 0.0
239 H71181 0.908449443129665 0.991674084025954 0.731168877761775 H 0.0 **** 0.0
240 H71183 0.933502789004503 1.00889544207718 0.729667505583508 H 0.0 **** 0.0
241 H71185 0.962573904167961 1.01249074937605 0.722257389945707 H 0.0 **** 0.0
242 H71187 1.00460196772502 0.979656627435623 0.698033586343173 H 0.0 **** 0.0
243 H71189 0.98864755593284 1.00200824010962 0.710218892414073 H 0.0 **** 0.0
244 H71191 0.964112067311193 0.903194307135389 0.682706676294572 H 0.0 **** 0.0
245 H71193 0.989406113301748 0.903017243883891 0.685117303265961 H 0.0 **** 0.0
246 H71195 0.9914480869995 0.915642887564939 0.66674743211502 H 0.0 **** 0.0
247 H71197 1.01960296383799 0.905325097475496 0.676450176760819 H 0.0 **** 0.0
248 H71199 1.01583233411346 0.913564081835264 0.696900978848073 H 0.0 **** 0.0
249 H71201 1.019556121644 0.933791933610307 0.66384159783426 H 0.0 **** 0.0
250 H71203 1.03297879932279 0.935336530401369 0.681557734843194 H 0.0 **** 0.0
@<TRIPOS>BOND
1 3 2 1
2 4 3 1
3 5 4 1
4 6 5 1
5 1 2 1
6 1 6 1
7 8 7 1
8 9 8 1
9 10 9 1
10 4 7 1
11 3 10 1
12 12 11 1
13 13 12 1
14 14 13 1
15 8 11 1
16 7 14 1
17 16 15 1
18 17 16 Partial double
19 18 17 1
20 13 15 1
21 12 18 1
22 20 19 Partial double
23 21 20 Partial double
24 22 21 Partial double
25 17 19 Partial double
26 16 22 Partial double
27 24 23 1
28 25 24 1
29 15 25 Double
30 22 23 1
31 27 26 1
32 28 27 Partial double
33 29 28 Partial double
34 21 26 1
35 20 29 Partial double
36 31 30 1
37 32 31 1
38 18 30 1
39 19 32 1
40 34 33 Double
41 35 34 1
42 36 35 1
43 31 33 1
44 30 36 Double
45 38 37 1
46 39 38 1
47 40 39 Double
48 34 37 1
49 33 40 1
50 42 41 1
51 43 42 1
52 44 43 1
53 40 41 1
54 39 44 1
55 46 45 Partial double
56 32 46 1
57 29 45 Partial double
58 48 47 Partial double
59 49 48 1
60 45 49 Partial double
61 28 47 Partial double
62 51 50 Partial double
63 52 51 Partial double
64 53 52 Partial double
65 48 50 Partial double
66 47 53 Partial double
67 55 54 Partial double
68 56 55 Partial double
69 57 56 Partial double
70 52 54 Partial double
71 51 57 Partial double
72 59 58 Partial double
73 60 59 Partial double
74 61 60 Partial double
75 56 58 Partial double
76 55 61 Partial double
77 63 62 Partial double
78 27 63 Partial double
79 53 62 Partial double
80 65 64 Partial double
81 62 65 Partial double
82 54 64 Partial double
83 67 66 Partial double
84 64 67 Partial double
85 61 66 Partial double
86 69 68 Partial double
87 70 69 Partial double
88 66 70 Partial double
89 60 68 Partial double
90 72 71 1
91 73 72 1
92 74 73 1
93 59 71 1
94 58 74 1
95 76 75 1
96 77 76 1
97 78 77 1
98 73 75 1
99 72 78 1
100 80 79 1
101 81 80 1
102 82 81 1
103 78 79 1
104 77 82 1
105 84 83 Partial double
106 85 84 Partial double
107 67 85 Partial double
108 65 83 Partial double
109 87 86 1
110 88 87 1
111 89 88 1
112 84 86 1
113 83 89 1
114 91 90 1
115 92 91 1
116 93 92 1
117 88 90 1
118 87 93 1
119 95 94 Partial double
120 85 95 Partial double
121 70 94 Partial double
122 97 96 Partial double
123 98 97 Partial double
124 94 98 Partial double
125 69 96 Partial double
126 100 99 Partial double
127 101 100 Partial double
128 68 101 Partial double
129 96 99 Partial double
130 103 102 1
131 104 103 Partial double
132 97 102 1
133 99 104 1
134 106 105 1
135 107 106 1
136 100 105 1
137 104 107 Partial double
138 109 108 1
139 110 109 1
140 111 110 1
141 106 108 1
142 105 111 1
143 113 112 1
144 114 113 1
145 103 114 Partial double
146 107 112 Partial double
147 108 115 1
148 112 116 Partial double
149 115 116 Partial double
150 42 117 1
151 117 118 1
152 117 119 1
153 74 120 1
154 122 121 1
155 123 122 Partial double
156 124 123 1
157 114 121 Partial double
158 113 124 Partial double
159 126 125 Partial double
160 127 126 1
161 128 127 Partial double
162 124 125 Partial double
163 123 128 Partial double
164 130 129 Partial double
165 131 130 1
166 132 131 1
167 127 129 Partial double
168 126 132 Partial double
169 134 133 Partial double
170 135 134 Partial double
171 125 135 Partial double
172 132 133 Partial double
173 137 136 Partial double
174 138 137 Partial double
175 131 138 Partial double
176 133 136 Partial double
177 140 139 Partial double
178 134 140 Partial double
179 116 135 Partial double
180 115 139 Partial double
181 142 141 Partial double
182 140 142 Partial double
183 136 141 Partial double
184 144 143 1
185 145 144 1
186 146 145 1
187 142 143 1
188 141 146 1
189 146 147 Double
190 1 148 1
191 1 149 1
192 2 150 1
193 2 151 1
194 3 152 1
195 4 153 1
196 5 154 1
197 5 155 1
198 7 156 1
199 8 157 1
200 9 158 1
201 9 159 1
202 10 160 1
203 10 161 1
204 12 162 1
205 13 163 1
206 14 164 1
207 14 165 1
208 18 166 1
209 23 167 1
210 23 168 1
211 24 169 1
212 24 170 1
213 25 171 1
214 35 173 1
215 35 174 1
216 36 175 1
217 37 176 1
218 37 177 1
219 38 178 1
220 38 179 1
221 41 180 1
222 41 181 1
223 42 182 1
224 43 183 1
225 43 184 1
226 44 185 1
227 44 186 1
228 46 187 1
229 50 188 1
230 57 189 1
231 63 190 1
232 72 191 1
233 73 192 1
234 74 193 1
235 75 194 1
236 75 195 1
237 76 196 1
238 76 197 1
239 77 198 1
240 78 199 1
241 79 200 1
242 79 201 1
243 80 202 1
244 80 203 1
245 81 204 1
246 81 205 1
247 82 206 1
248 87 207 1
249 88 208 1
250 90 209 1
251 90 210 1
252 91 211 1
253 91 212 1
254 92 213 1
255 92 214 1
256 93 215 1
257 93 216 1
258 95 217 1
259 98 218 1
260 101 219 1
261 105 220 1
262 106 221 1
263 108 222 1
264 109 223 1
265 109 224 1
266 110 225 1
267 110 226 1
268 111 227 1
269 111 228 1
270 117 229 1
271 118 230 1
272 118 231 1
273 118 232 1
274 119 233 1
275 119 234 1
276 119 235 1
277 120 236 1
278 121 237 1
279 122 238 1
280 128 239 1
281 129 240 1
282 130 241 1
283 137 242 1
284 138 243 1
285 139 244 1
286 143 245 1
287 143 246 1
288 144 247 1
289 144 248 1
290 145 249 1
291 145 250 1
292 31 172 1
@<TRIPOS>MOLECULE
Sketch 4
250 292
SMALL
USER_CHARGES


@<TRIPOS>ATOM
1 C71206 0.823769355014769 0.478099952459779 0.82860641274291 C 0.0 **** 0.0
2 C71207 0.817139922586605 0.492776203620144 0.817355633336828 C 0.0 **** 0.0
3 C71208 0.822548386542862 0.51005977036666 0.824762965411651 C 0.0 **** 0.0
4 C71209 0.820253154868162 0.509531118013177 0.84419672655908 C 0.0 **** 0.0
5 C71210 0.831386318335405 0.495045902038102 0.851518095804562 C 0.0 **** 0.0
6 O71211 0.83739194290077 0.48362610181424 0.838894462310955 O 0.0 **** 0.0
7 C71218 0.801211885730644 0.507788376423322 0.849026362136915 C 0.0 **** 0.0
8 C71219 0.78962070450251 0.518872078691874 0.837485144175977 C 0.0 **** 0.0
9 C71220 0.799583769304856 0.532473338887077 0.828013806812622 C 0.0 **** 0.0
10 C71221 0.813406808725729 0.525230999047096 0.816478123291517 C 0.0 **** 0.0
11 O71227 0.776724887890083 0.52764625006887 0.846479096893069 O 0.0 **** 0.0
12 C71228 0.767531856385846 0.517224016309463 0.858035271201963 C 0.0 **** 0.0
13 C71229 0.77907295132384 0.512993743036801 0.873405153424806 C 0.0 **** 0.0
14 C71230 0.798181243291228 0.511673984574486 0.867893788928059 C 0.0 **** 0.0
15 C71236 0.772825684254036 0.498173568354819 0.884053502416137 C 0.0 **** 0.0
16 C71237 0.755702535331549 0.490793683488563 0.880082665875182 C 0.0 **** 0.0
17 C71238 0.748821890716819 0.492856065825064 0.864121067690885 C 0.0 **** 0.0
18 C71239 0.759586567104521 0.501224804047963 0.850446634492676 C 0.0 **** 0.0
19 C71245 0.732976054308395 0.486166390385818 0.86068920623532 C 0.0 **** 0.0
20 C71246 0.724675161382015 0.476736034183259 0.872934706983775 C 0.0 **** 0.0
21 C71247 0.731823115943342 0.474367620088957 0.888811137642088 C 0.0 **** 0.0
22 C71248 0.747413337052943 0.481561828450281 0.892469913401154 C 0.0 **** 0.0
23 C71254 0.755280495037855 0.479384018398997 0.90979848900168 C 0.0 **** 0.0
24 C71255 0.774749832372889 0.478118568729796 0.908317921521052 C 0.0 **** 0.0
25 C71256 0.781682757253893 0.492137163594018 0.897307711327635 C 0.0 **** 0.0
26 O71261 0.723886511502259 0.464865917210232 0.901219502176574 O 0.0 **** 0.0
27 C71262 0.708142230351536 0.457977291821743 0.898202379644666 C 0.0 **** 0.0
28 C71263 0.699880179270004 0.459076434791784 0.88275324087594 C 0.0 **** 0.0
29 C71264 0.708186139357889 0.468570340597871 0.868540021999194 C 0.0 **** 0.0
30 C71270 0.749760335471506 0.502939133135813 0.834055125079139 C 0.0 **** 0.0
31 C71271 0.739625635525514 0.487042518378473 0.830277616410059 C 0.0 **** 0.0
32 C71272 0.725274622476897 0.48857829785415 0.843401535099439 C 0.0 **** 0.0
33 C71277 0.734073527557949 0.484914327623902 0.811569007206692 C 0.0 **** 0.0
34 C71278 0.733909910454821 0.499075836517842 0.801668871924936 C 0.0 **** 0.0
35 C71279 0.739188752876699 0.516525798584875 0.807660118446286 C 0.0 **** 0.0
36 C71280 0.748965808497007 0.516558821546335 0.824000491667468 C 0.0 **** 0.0
37 C71286 0.730861556055505 0.498784798298736 0.782931381868591 C 0.0 **** 0.0
38 C71287 0.722779548008737 0.482340847796434 0.776598781889406 C 0.0 **** 0.0
39 C71288 0.72547427551492 0.467676207120379 0.788362317405108 C 0.0 **** 0.0
40 C71289 0.730466262916783 0.469337766601947 0.804828137476842 C 0.0 **** 0.0
41 C71295 0.731862683552164 0.452851228866455 0.815193708805482 C 0.0 **** 0.0
42 C71296 0.735607956614102 0.437432317839755 0.804225811377264 C 0.0 **** 0.0
43 C71297 0.721404508868883 0.43588125604632 0.791042171778489 C 0.0 **** 0.0
44 C71298 0.721562958593215 0.451257243842335 0.779415729381129 C 0.0 **** 0.0
45 C71304 0.701429420093723 0.469739236021386 0.852762229886752 C 0.0 **** 0.0
46 C71305 0.709115929130858 0.478699155646356 0.840210513598391 C 0.0 **** 0.0
47 C71309 0.683153650340734 0.452754987798163 0.881395759060147 C 0.0 **** 0.0
48 C71310 0.673121143037888 0.455179241968553 0.866860836843092 C 0.0 **** 0.0
49 S71311 0.682721666116166 0.459246099952775 0.847595753629346 S 0.0 **** 0.0
50 C71316 0.655768846820546 0.454845131812979 0.867583975292399 C 0.0 **** 0.0
51 C71317 0.647713214984501 0.449879898742362 0.882795125285472 C 0.0 **** 0.0
52 C71318 0.657729071200794 0.443880181341071 0.896349939098043 C 0.0 **** 0.0
53 C71319 0.675238350451376 0.445893399092723 0.895790641746943 C 0.0 **** 0.0
54 C71325 0.65004029729886 0.435462464531508 0.909848864382847 C 0.0 **** 0.0
55 C71326 0.632460871771279 0.433440779744752 0.910302425758721 C 0.0 **** 0.0
56 C71327 0.622123256602715 0.442069144769196 0.898530019504814 C 0.0 **** 0.0
57 C71328 0.630060406966157 0.449708337607009 0.884505572655006 C 0.0 **** 0.0
58 C71334 0.604542885789075 0.440870699750335 0.899963220238027 C 0.0 **** 0.0
59 C71335 0.597696060883509 0.427765899568128 0.909337388937613 C 0.0 **** 0.0
60 C71336 0.607637838721459 0.418860453325996 0.921176902053336 C 0.0 **** 0.0
61 C71337 0.625118652860294 0.422077975158416 0.921593796215461 C 0.0 **** 0.0
62 C71343 0.684755914333875 0.441816121954496 0.910138784596103 C 0.0 **** 0.0
63 C71344 0.700762530033318 0.449469573918887 0.911479076851743 C 0.0 **** 0.0
64 C71348 0.660121714432228 0.427840919589588 0.922129999923552 C 0.0 **** 0.0
65 C71349 0.677652720364537 0.430645634799971 0.922317403418064 C 0.0 **** 0.0
66 C71353 0.635507867690105 0.413032220281994 0.932618610839428 C 0.0 **** 0.0
67 C71354 0.65284391441212 0.416420424985962 0.933231018732021 C 0.0 **** 0.0
68 C71358 0.600440547572654 0.407336493465308 0.933025577824102 C 0.0 **** 0.0
69 C71359 0.611388927215267 0.397199595451203 0.942707992864479 C 0.0 **** 0.0
70 C71360 0.628663904322979 0.400273691861421 0.942683807290424 C 0.0 **** 0.0
71 O71365 0.580552887235188 0.42432515422615 0.907265739190228 O 0.0 **** 0.0
72 C71366 0.57518301920777 0.423701317295881 0.889849028561549 C 0.0 **** 0.0
73 C71367 0.582346042804999 0.438614766087748 0.87894673500998 C 0.0 **** 0.0
74 C71368 0.591263794441493 0.451019650581025 0.890638241738223 C 0.0 **** 0.0
75 C71374 0.56875964554913 0.447110324912169 0.867829245666869 C 0.0 **** 0.0
76 C71375 0.55868019804128 0.433448032621757 0.858630885511239 C 0.0 **** 0.0
77 C71376 0.548210263578898 0.422887797150133 0.871197331380437 C 0.0 **** 0.0
78 C71377 0.555635888093812 0.423058025317989 0.889435117090996 C 0.0 **** 0.0
79 C71383 0.548439762050541 0.408551231888301 0.900451434065746 C 0.0 **** 0.0
80 C71384 0.531353071267452 0.402744957543023 0.893420589432931 C 0.0 **** 0.0
81 C71385 0.532778087308024 0.396507873236956 0.874917822760646 C 0.0 **** 0.0
82 N71386 0.545326004775237 0.405919767325615 0.864804696972095 N 0.0 **** 0.0
83 C71392 0.688178976076649 0.4214283855733 0.933512849054252 C 0.0 **** 0.0
84 C71393 0.680960780137196 0.410348489460655 0.944976729052169 C 0.0 **** 0.0
85 C71394 0.663329226803418 0.407544607140505 0.944506537710906 C 0.0 **** 0.0
86 O71399 0.690501777987796 0.401332558418238 0.956635213617026 O 0.0 **** 0.0
87 C71400 0.706348755294736 0.40939456721878 0.959764597719559 C 0.0 **** 0.0
88 C71401 0.715151007878734 0.412315076590378 0.943216708748819 C 0.0 **** 0.0
89 O71402 0.705594946832094 0.423423692004457 0.932684964596292 O 0.0 **** 0.0
90 C71408 0.719204202270504 0.395571174584364 0.933940703023257 C 0.0 **** 0.0
91 C71409 0.723210584662235 0.380901448974184 0.946180641107744 C 0.0 **** 0.0
92 C71410 0.73018302491307 0.387455252590993 0.96301315971628 C 0.0 **** 0.0
93 C71411 0.716866710210938 0.398491241553364 0.972065116159474 C 0.0 **** 0.0
94 C71417 0.639123788699184 0.391133087924838 0.954049786288166 C 0.0 **** 0.0
95 C71418 0.656403281430633 0.395059603873815 0.954954661844483 C 0.0 **** 0.0
96 C71422 0.604616099119601 0.385899593995339 0.954516694479315 C 0.0 **** 0.0
97 C71423 0.615118967671943 0.375456829573368 0.964494971635095 C 0.0 **** 0.0
98 C71424 0.632155635125949 0.378457291402501 0.964543099809305 C 0.0 **** 0.0
99 C71429 0.587326388436224 0.386393057560997 0.958663452841078 C 0.0 **** 0.0
100 C71430 0.576436831665237 0.396921249660851 0.950028639773849 C 0.0 **** 0.0
101 C71431 0.583046333850142 0.406818491600103 0.937331504508229 C 0.0 **** 0.0
102 O71436 0.60827962477419 0.362851658419943 0.974498062403351 O 0.0 **** 0.0
103 C71437 0.593038897770506 0.366570712642919 0.98208119924571 C 0.0 **** 0.0
104 C71438 0.58190807809763 0.377236459641383 0.974255479546213 C 0.0 **** 0.0
105 C71443 0.557789589723598 0.398245117046462 0.954400795785237 C 0.0 **** 0.0
106 C71444 0.553977448569591 0.393000975413073 0.973313046845031 C 0.0 **** 0.0
107 C71445 0.566664922908355 0.380915066168374 0.981361076540221 C 0.0 **** 0.0
108 C71450 0.536101800371093 0.385173431749966 0.975109582179381 C 0.0 **** 0.0
109 C71451 0.523174378557094 0.394643468710694 0.964151671331061 C 0.0 **** 0.0
110 C71452 0.527712807133303 0.392482581854806 0.945140603884662 C 0.0 **** 0.0
111 C71453 0.546576964790015 0.388055873999942 0.942314444415014 C 0.0 **** 0.0
112 C71459 0.562585878243835 0.373946803129623 0.996547498382652 C 0.0 **** 0.0
113 C71460 0.574088615883806 0.364061913465324 1.0049431253169 C 0.0 **** 0.0
114 C71461 0.589050700042632 0.35981410552759 0.997497155413585 C 0.0 **** 0.0
115 C71466 0.53233034967756 0.383779438652452 0.994016502134688 C 0.0 **** 0.0
116 C71468 0.545520452999342 0.37790859554929 1.00399835585438 C 0.0 **** 0.0
117 C71471 0.738635769966707 0.421272794228792 0.814836407407333 C 0.0 **** 0.0
118 C71473 0.722980087428837 0.41505271534194 0.824448378919586 C 0.0 **** 0.0
119 C71475 0.745847054272471 0.406819251723914 0.804097670156489 C 0.0 **** 0.0
120 O71477 0.597615739863333 0.465220837466669 0.881688915456979 O 0.0 **** 0.0
121 C71479 0.59989861706924 0.349038078108575 1.00561949979694 C 0.0 **** 0.0
122 C71480 0.59621855963852 0.343263529508144 1.02144755692354 C 0.0 **** 0.0
123 C71481 0.581921922903421 0.348602082123714 1.02952867023603 C 0.0 **** 0.0
124 C71482 0.570750941029621 0.358695011498898 1.02099726881431 C 0.0 **** 0.0
125 C71488 0.555139703152283 0.364471138253956 1.02959070802359 C 0.0 **** 0.0
126 C71489 0.55276541404911 0.360251880372946 1.04611386929773 C 0.0 **** 0.0
127 C71490 0.565593153966882 0.34989724578517 1.0549000160651 C 0.0 **** 0.0
128 C71491 0.579347137308628 0.343968541458218 1.04614689635657 C 0.0 **** 0.0
129 C71497 0.563469328626566 0.346509867837547 1.07170812182778 C 0.0 **** 0.0
130 C71498 0.549572493985672 0.352271817316852 1.0803757488001 C 0.0 **** 0.0
131 C71499 0.536940004796792 0.361136040950188 1.07252344855612 C 0.0 **** 0.0
132 C71500 0.538540845798181 0.365503960150933 1.0544469357998 C 0.0 **** 0.0
133 C71506 0.525586424394588 0.37427934365238 1.04600612336806 C 0.0 **** 0.0
134 C71507 0.527685988624598 0.378047512586101 1.02891273004515 C 0.0 **** 0.0
135 C71508 0.542930941256004 0.373963526656794 1.0209437754281 C 0.0 **** 0.0
136 C71513 0.510219786216781 0.377738279403645 1.05402680284501 C 0.0 **** 0.0
137 C71514 0.509988271080645 0.374003146786124 1.07291001633536 C 0.0 **** 0.0
138 C71515 0.522876267907712 0.366022688408006 1.0811902817672 C 0.0 **** 0.0
139 C71520 0.516900538302469 0.386609103385638 1.00165241109917 C 0.0 **** 0.0
140 C71521 0.514064942950823 0.384217124299659 1.01931506002926 C 0.0 **** 0.0
141 C71526 0.496400279423799 0.38330617745719 1.04450858318796 C 0.0 **** 0.0
142 C71527 0.498218958786965 0.386680048878901 1.02726005189403 C 0.0 **** 0.0
143 C71531 0.483125169535977 0.392271776389648 1.01656104537696 C 0.0 **** 0.0
144 C71532 0.470714413301215 0.403121843987572 1.02661078205229 C 0.0 **** 0.0
145 C71533 0.465430267380885 0.39356158119491 1.04224789365303 C 0.0 **** 0.0
146 C71534 0.479258937859391 0.385488121836486 1.05252245940846 C 0.0 **** 0.0
147 O71540 0.475439655259199 0.380796865018244 1.06663075168999 O 0.0 **** 0.0
148 H71542 0.828631050384173 0.467568574053693 0.820968645036422 H 0.0 **** 0.0
149 H71544 0.813496872260942 0.47282265984443 0.83643299827295 H 0.0 **** 0.0
150 H71546 0.821845347317591 0.491822595088275 0.804292385457946 H 0.0 **** 0.0
151 H71548 0.803263443301878 0.492118780823145 0.816307689011227 H 0.0 **** 0.0
152 H71550 0.836237763521603 0.511322571654468 0.822205588786359 H 0.0 **** 0.0
153 H71552 0.824680183979592 0.521719888659796 0.849411485923947 H 0.0 **** 0.0
154 H71554 0.824635075466096 0.488060958016859 0.861515813811288 H 0.0 **** 0.0
155 H71556 0.84283878424314 0.500230547681862 0.857429974186886 H 0.0 **** 0.0
156 H71558 0.797641216327208 0.494425853373148 0.847173482035265 H 0.0 **** 0.0
157 H71560 0.783780118410021 0.510585773388939 0.827882082953066 H 0.0 **** 0.0
158 H71562 0.805297565883001 0.540920603635785 0.837529990320019 H 0.0 **** 0.0
159 H71564 0.790649743456159 0.540325509211143 0.820749957959936 H 0.0 **** 0.0
160 H71566 0.822558440619164 0.535284738544579 0.813447465943149 H 0.0 **** 0.0
161 H71568 0.807845316642551 0.52134931130809 0.804304749113944 H 0.0 **** 0.0
162 H71570 0.757220884784794 0.525481482150671 0.862446322399599 H 0.0 **** 0.0
163 H71572 0.778540846530861 0.523969597201663 0.882022461602483 H 0.0 **** 0.0
164 H71574 0.805328992561291 0.502624086748745 0.875668513183662 H 0.0 **** 0.0
165 H71576 0.803856764763144 0.52417717488672 0.870434249259191 H 0.0 **** 0.0
166 H71578 0.769924098920987 0.49227154502293 0.847462500789708 H 0.0 **** 0.0
167 H71580 0.751913548749646 0.49023626364776 0.917905395302506 H 0.0 **** 0.0
168 H71582 0.750351528259844 0.468030237489081 0.916139954958174 H 0.0 **** 0.0
169 H71584 0.778337379510469 0.465788022403627 0.90291938347216 H 0.0 **** 0.0
170 H71586 0.780493667668425 0.478759037753152 0.921021859325806 H 0.0 **** 0.0
171 H71588 0.794111376472391 0.496876199449378 0.900820611265455 H 0.0 **** 0.0
172 H71590 0.747782387535878 0.476233768371394 0.833565506896286 H 0.0 **** 0.0
173 H71591 0.72801250118584 0.524652285104816 0.809029701810328 H 0.0 **** 0.0
174 H71593 0.747241894213097 0.522345654479747 0.797807595563589 H 0.0 **** 0.0
175 H71595 0.755543044097343 0.528236536635616 0.827142695787115 H 0.0 **** 0.0
176 H71597 0.722955014335465 0.509592463030755 0.779086365901128 H 0.0 **** 0.0
177 H71599 0.743173293816277 0.500551240849567 0.776603966751171 H 0.0 **** 0.0
178 H71601 0.727880452093231 0.479316819682725 0.763954445157187 H 0.0 **** 0.0
179 H71603 0.709044315570849 0.484142986625208 0.775013565421096 H 0.0 **** 0.0
180 H71605 0.741722836849875 0.453842447838665 0.824925293103182 H 0.0 **** 0.0
181 H71607 0.719863588218121 0.450872277667521 0.821984880512636 H 0.0 **** 0.0
182 H71609 0.747542375341927 0.439876416800476 0.797337604845531 H 0.0 **** 0.0
183 H71611 0.709172566654731 0.43498379173737 0.797657355743593 H 0.0 **** 0.0
184 H71613 0.722605302842408 0.424324592564232 0.783356077320132 H 0.0 **** 0.0
185 H71615 0.709452098524717 0.452494037547268 0.772616824342348 H 0.0 **** 0.0
186 H71617 0.731353955491373 0.449374211813006 0.769633199017682 H 0.0 **** 0.0
187 H71619 0.703554965115045 0.47942182488377 0.82762745363663 H 0.0 **** 0.0
188 H71621 0.647993329788667 0.458003109107262 0.856539757877004 H 0.0 **** 0.0
189 H71623 0.622634347632468 0.454559567825205 0.873835515563617 H 0.0 **** 0.0
190 H71625 0.70824208842987 0.448764047812214 0.923132954491535 H 0.0 **** 0.0
191 H71627 0.57996276502958 0.411706004059271 0.884616453984973 H 0.0 **** 0.0
192 H71629 0.591983107734624 0.433701651124679 0.870092937283161 H 0.0 **** 0.0
193 H71631 0.581808499195103 0.45564513932223 0.899850006042571 H 0.0 **** 0.0
194 H71633 0.560240240768253 0.454983827339026 0.875576683288696 H 0.0 **** 0.0
195 H71635 0.574894140773717 0.455742310374206 0.858754826037211 H 0.0 **** 0.0
196 H71637 0.567726348423753 0.425268010885388 0.851876428161775 H 0.0 **** 0.0
197 H71639 0.550311493138187 0.438869708660732 0.848916391151463 H 0.0 **** 0.0
198 H71641 0.535665226470828 0.428977733888812 0.871954185732803 H 0.0 **** 0.0
199 H71643 0.551473394260795 0.435082485535165 0.895196937679355 H 0.0 **** 0.0
200 H71645 0.557205808379543 0.397708018968767 0.900392571706952 H 0.0 **** 0.0
201 H71647 0.547272262032343 0.41273175704866 0.913660686292343 H 0.0 **** 0.0
202 H71649 0.522555272413165 0.413570226606535 0.893985756551799 H 0.0 **** 0.0
203 H71651 0.525591233412846 0.392743134233007 0.901208782150516 H 0.0 **** 0.0
204 H71653 0.520463986852965 0.397725134188138 0.86859035794911 H 0.0 **** 0.0
205 H71655 0.535946163022324 0.38295111263844 0.874637902077141 H 0.0 **** 0.0
206 H71657 0.556336408994152 0.399671812239946 0.864492388317984 H 0.0 **** 0.0
207 H71659 0.703694067673347 0.42179063140743 0.965580040355238 H 0.0 **** 0.0
208 H71661 0.727193145841229 0.418784047262697 0.94598297334323 H 0.0 **** 0.0
209 H71663 0.708306893081838 0.3921833141305 0.925964052728588 H 0.0 **** 0.0
210 H71665 0.729843841271133 0.39759442594689 0.925175131527631 H 0.0 **** 0.0
211 H71667 0.731923251158459 0.371783458815585 0.940270538076898 H 0.0 **** 0.0
212 H71669 0.711462449824205 0.373927638763909 0.948896684725726 H 0.0 **** 0.0
213 H71671 0.741740621177417 0.39487261548237 0.960612036789585 H 0.0 **** 0.0
214 H71673 0.733922417620743 0.376915667141894 0.971287914016228 H 0.0 **** 0.0
215 H71675 0.723052710852608 0.406155264620128 0.9819116245856 H 0.0 **** 0.0
216 H71677 0.707970442033299 0.390105987084741 0.978723852202613 H 0.0 **** 0.0
217 H71679 0.664546726190316 0.387902281726072 0.963639227461775 H 0.0 **** 0.0
218 H71681 0.640498745974078 0.371237886148633 0.972968522494698 H 0.0 **** 0.0
219 H71683 0.573955735826674 0.41535055739457 0.931362536307912 H 0.0 **** 0.0
220 H71685 0.553962968358197 0.411577984691033 0.953232418967905 H 0.0 **** 0.0
221 H71687 0.554332292969109 0.404805488957883 0.980772030033617 H 0.0 **** 0.0
222 H71689 0.536504492202563 0.372065879897979 0.970192771574052 H 0.0 **** 0.0
223 H71691 0.523340536184839 0.408134763718578 0.967634198726505 H 0.0 **** 0.0
224 H71693 0.510218571717593 0.390061276500077 0.966355160142577 H 0.0 **** 0.0
225 H71695 0.524631419339436 0.404171439932905 0.938207801441963 H 0.0 **** 0.0
226 H71697 0.519780991244359 0.382507015587958 0.939509504327859 H 0.0 **** 0.0
227 H71699 0.550053554198836 0.390184874558828 0.929021882035424 H 0.0 **** 0.0
228 H71701 0.548663507794406 0.374459667143608 0.944627560889725 H 0.0 **** 0.0
229 H71703 0.748375375520187 0.424436592517531 0.824368465189803 H 0.0 **** 0.0
230 H71705 0.717842632362496 0.424745294886867 0.833004759983416 H 0.0 **** 0.0
231 H71707 0.726133023906303 0.403925489561105 0.832207249852025 H 0.0 **** 0.0
232 H71709 0.712849775196877 0.411320328474386 0.815666465246068 H 0.0 **** 0.0
233 H71711 0.757333161384733 0.410728378941402 0.797272973995074 H 0.0 **** 0.0
234 H71713 0.736589842918793 0.402423219418167 0.794687992233712 H 0.0 **** 0.0
235 H71715 0.749231403783335 0.395915244495062 0.812070834997083 H 0.0 **** 0.0
236 H71717 0.602824060150188 0.472194326610698 0.889994859808072 H 0.0 **** 0.0
237 H71719 0.611747124428644 0.345054140566274 0.99976449877773 H 0.0 **** 0.0
238 H71721 0.605171065139072 0.334791615193966 1.02766678398426 H 0.0 **** 0.0
239 H71723 0.588544964408967 0.335934908571108 1.05261212952948 H 0.0 **** 0.0
240 H71725 0.57281108430511 0.339070395953107 1.07860541954614 H 0.0 **** 0.0
241 H71727 0.5485828501379 0.349193074404471 1.09377763378644 H 0.0 **** 0.0
242 H71729 0.499202311059986 0.377830247178987 1.0804600580818 H 0.0 **** 0.0
243 H71731 0.521517113084464 0.363478398108159 1.09467310018902 H 0.0 **** 0.0
244 H71733 0.506626212313129 0.390817860341293 0.993392651838375 H 0.0 **** 0.0
245 H71735 0.487144854184608 0.399735078504892 1.00557844027741 H 0.0 **** 0.0
246 H71737 0.476537279623795 0.381006450065955 1.01156206373973 H 0.0 **** 0.0
247 H71739 0.459518246950296 0.406350558903264 1.0189801323669 H 0.0 **** 0.0
248 H71741 0.476875113530341 0.415155683297609 1.02997836447616 H 0.0 **** 0.0
249 H71743 0.457059330469991 0.382866241440882 1.03911784782398 H 0.0 **** 0.0
250 H71745 0.458746057708342 0.401062560148541 1.05185091524398 H 0.0 **** 0.0
@<TRIPOS>BOND
1 3 2 1
2 4 3 1
3 5 4 1
4 6 5 1
5 1 2 1
6 1 6 1
7 8 7 1
8 9 8 1
9 10 9 1
10 4 7 1
11 3 10 1
12 12 11 1
13 13 12 1
14 14 13 1
15 8 11 1
16 7 14 1
17 16 15 1
18 17 16 Partial double
19 18 17 1
20 13 15 1
21 12 18 1
22 20 19 Partial double
23 21 20 Partial double
24 22 21 Partial double
25 17 19 Partial double
26 16 22 Partial double
27 24 23 1
28 25 24 1
29 15 25 Double
30 22 23 1
31 27 26 1
32 28 27 Partial double
33 29 28 Partial double
34 21 26 1
35 20 29 Partial double
36 31 30 1
37 32 31 1
38 18 30 1
39 19 32 1
40 34 33 Double
41 35 34 1
42 36 35 1
43 31 33 1
44 30 36 Double
45 38 37 1
46 39 38 1
47 40 39 Double
48 34 37 1
49 33 40 1
50 42 41 1
51 43 42 1
52 44 43 1
53 40 41 1
54 39 44 1
55 46 45 Partial double
56 32 46 1
57 29 45 Partial double
58 48 47 Partial double
59 49 48 1
60 45 49 Partial double
61 28 47 Partial double
62 51 50 Partial double
63 52 51 Partial double
64 53 52 Partial double
65 48 50 Partial double
66 47 53 Partial double
67 55 54 Partial double
68 56 55 Partial double
69 57 56 Partial double
70 52 54 Partial double
71 51 57 Partial double
72 59 58 Partial double
73 60 59 Partial double
74 61 60 Partial double
75 56 58 Partial double
76 55 61 Partial double
77 63 62 Partial double
78 27 63 Partial double
79 53 62 Partial double
80 65 64 Partial double
81 62 65 Partial double
82 54 64 Partial double
83 67 66 Partial double
84 64 67 Partial double
85 61 66 Partial double
86 69 68 Partial double
87 70 69 Partial double
88 66 70 Partial double
89 60 68 Partial double
90 72 71 1
91 73 72 1
92 74 73 1
93 59 71 1
94 58 74 1
95 76 75 1
96 77 76 1
97 78 77 1
98 73 75 1
99 72 78 1
100 80 79 1
101 81 80 1
102 82 81 1
103 78 79 1
104 77 82 1
105 84 83 Partial double
106 85 84 Partial double
107 67 85 Partial double
108 65 83 Partial double
109 87 86 1
110 88 87 1
111 89 88 1
112 84 86 1
113 83 89 1
114 91 90 1
115 92 91 1
116 93 92 1
117 88 90 1
118 87 93 1
119 95 94 Partial double
120 85 95 Partial double
121 70 94 Partial double
122 97 96 Partial double
123 98 97 Partial double
124 94 98 Partial double
125 69 96 Partial double
126 100 99 Partial double
127 101 100 Partial double
128 68 101 Partial double
129 96 99 Partial double
130 103 102 1
131 104 103 Partial double
132 97 102 1
133 99 104 1
134 106 105 1
135 107 106 1
136 100 105 1
137 104 107 Partial double
138 109 108 1
139 110 109 1
140 111 110 1
141 106 108 1
142 105 111 1
143 113 112 1
144 114 113 1
145 103 114 Partial double
146 107 112 Partial double
147 108 115 1
148 112 116 Partial double
149 115 116 Partial double
150 42 117 1
151 117 118 1
152 117 119 1
153 74 120 1
154 122 121 1
155 123 122 Partial double
156 124 123 1
157 114 121 Partial double
158 113 124 Partial double
159 126 125 Partial double
160 127 126 1
161 128 127 Partial double
162 124 125 Partial double
163 123 128 Partial double
164 130 129 Partial double
165 131 130 1
166 132 131 1
167 127 129 Partial double
168 126 132 Partial double
169 134 133 Partial double
170 135 134 Partial double
171 125 135 Partial double
172 132 133 Partial double
173 137 136 Partial double
174 138 137 Partial double
175 131 138 Partial double
176 133 136 Partial double
177 140 139 Partial double
178 134 140 Partial double
179 116 135 Partial double
180 115 139 Partial double
181 142 141 Partial double
182 140 142 Partial double
183 136 141 Partial double
184 144 143 1
185 145 144 1
186 146 145 1
187 142 143 1
188 141 146 1
189 146 147 Double
190 1 148 1
191 1 149 1
192 2 150 1
193 2 151 1
194 3 152 1
195 4 153 1
196 5 154 1
197 5 155 1
198 7 156 1
199 8 157 1
200 9 158 1
201 9 159 1
202 10 160 1
203 10 161 1
204 12 162 1
205 13 163 1
206 14 164 1
207 14 165 1
208 18 166 1
209 23 167 1
210 23 168 1
211 24 169 1
212 24 170 1
213 25 171 1
214 35 173 1
215 35 174 1
216 36 175 1
217 37 176 1
218 37 177 1
219 38 178 1
220 38 179 1
221 41 180 1
222 41 181 1
223 42 182 1
224 43 183 1
225 43 184 1
226 44 185 1
227 44 186 1
228 46 187 1
229 50 188 1
230 57 189 1
231 63 190 1
232 72 191 1
233 73 192 1
234 74 193 1
235 75 194 1
236 75 195 1
237 76 196 1
238 76 197 1
239 77 198 1
240 78 199 1
241 79 200 1
242 79 201 1
243 80 202 1
244 80 203 1
245 81 204 1
246 81 205 1
247 82 206 1
248 87 207 1
249 88 208 1
250 90 209 1
251 90 210 1
252 91 211 1
253 91 212 1
254 92 213 1
255 92 214 1
256 93 215 1
257 93 216 1
258 95 217 1
259 98 218 1
260 101 219 1
261 105 220 1
262 106 221 1
263 108 222 1
264 109 223 1
265 109 224 1
266 110 225 1
267 110 226 1
268 111 227 1
269 111 228 1
270 117 229 1
271 118 230 1
272 118 231 1
273 118 232 1
274 119 233 1
275 119 234 1
276 119 235 1
277 120 236 1
278 121 237 1
279 122 238 1
280 128 239 1
281 129 240 1
282 130 241 1
283 137 242 1
284 138 243 1
285 139 244 1
286 143 245 1
287 143 246 1
288 144 247 1
289 144 248 1
290 145 249 1
291 145 250 1
292 31 172 1
@<TRIPOS>MOLECULE
Sketch 4
250 292
SMALL
USER_CHARGES


@<TRIPOS>ATOM
1 C71748 0.730173971019641 0.312344185000992 0.48034946944301 C 0.0 **** 0.0
2 C71749 0.722052532231614 0.330098037734817 0.479494273455621 C 0.0 **** 0.0
3 C71750 0.719420800354444 0.337915604469971 0.497143864649134 C 0.0 **** 0.0
4 C71751 0.710738900777978 0.325148195695223 0.509655526829796 C 0.0 **** 0.0
5 C71752 0.709411459245479 0.30765021644373 0.501164804375586 C 0.0 **** 0.0
6 O71753 0.72547729406413 0.302674902547965 0.494831970126233 O 0.0 **** 0.0
7 C71760 0.693804297619238 0.330844680010051 0.517907298597336 C 0.0 **** 0.0
8 C71761 0.692866316426662 0.349857195328259 0.52300799003411 C 0.0 **** 0.0
9 C71762 0.706108151320352 0.36096123009709 0.514207904122954 C 0.0 **** 0.0
10 C71763 0.710564878450658 0.355157376473061 0.496353471865143 C 0.0 **** 0.0
11 O71769 0.695482628498719 0.352216959742301 0.540717820189521 O 0.0 **** 0.0
12 C71770 0.682118887716658 0.345835146444559 0.551078568667982 C 0.0 **** 0.0
13 C71771 0.677371154436823 0.327109945165422 0.546615180113972 C 0.0 **** 0.0
14 C71772 0.690247169418389 0.319755681102792 0.533653781869056 C 0.0 **** 0.0
15 C71778 0.658821568666474 0.323709032590207 0.543304259109942 C 0.0 **** 0.0
16 C71779 0.646651700826743 0.334291834343374 0.55340981106886 C 0.0 **** 0.0
17 C71780 0.651352598381533 0.350235025089579 0.559162340007593 C 0.0 **** 0.0
18 C71781 0.667489655786587 0.358712283926168 0.552643446366434 C 0.0 **** 0.0
19 C71787 0.640680578354076 0.358763219493098 0.570194819588137 C 0.0 **** 0.0
20 C71788 0.624900718364006 0.352056737719377 0.573961508573665 C 0.0 **** 0.0
21 C71789 0.619871968602445 0.336650758572454 0.567263770209023 C 0.0 **** 0.0
22 C71790 0.630850759473695 0.327599715013821 0.556986900284203 C 0.0 **** 0.0
23 C71796 0.625285749561952 0.310459179283017 0.550285171034105 C 0.0 **** 0.0
24 C71797 0.634989171011292 0.304959916436414 0.53410970317114 C 0.0 **** 0.0
25 C71798 0.653312022715819 0.310213741251633 0.534446364710166 C 0.0 **** 0.0
26 O71803 0.604206461908214 0.329674870459813 0.570801389352978 O 0.0 **** 0.0
27 C71804 0.593344733756664 0.337783540030765 0.581819617901284 C 0.0 **** 0.0
28 C71805 0.596578391986473 0.353493931650843 0.58888173144244 C 0.0 **** 0.0
29 C71806 0.613073447603147 0.361936408682174 0.584934835610713 C 0.0 **** 0.0
30 C71812 0.672013725799306 0.374139611908735 0.563347057746742 C 0.0 **** 0.0
31 C71813 0.657278786951602 0.386111115674858 0.566812322375936 C 0.0 **** 0.0
32 C71814 0.646334889605755 0.375028952408192 0.578533830699506 C 0.0 **** 0.0
33 C71819 0.662003000363685 0.403291270711907 0.5754900297296 C 0.0 **** 0.0
34 C71820 0.677340832285411 0.40420650029025 0.583352235717039 C 0.0 **** 0.0
35 C71821 0.690668063276668 0.390648901425919 0.582870552422358 C 0.0 **** 0.0
36 C71822 0.687052601638962 0.376379913150563 0.57087823592594 C 0.0 **** 0.0
37 C71828 0.684094133092144 0.419596174223223 0.592151275866935 C 0.0 **** 0.0
38 C71829 0.670199192329143 0.432101872739865 0.596984317429581 C 0.0 **** 0.0
39 C71830 0.655123089261555 0.430873353679038 0.585523553380667 C 0.0 **** 0.0
40 C71831 0.651609639583301 0.41722023801658 0.57545513685249 C 0.0 **** 0.0
41 C71837 0.635364369718977 0.418343669211353 0.564631892176328 C 0.0 **** 0.0
42 C71838 0.630197291000249 0.436673047226915 0.561204430658384 C 0.0 **** 0.0
43 C71839 0.627621183494306 0.445590433991805 0.578277928417703 C 0.0 **** 0.0
44 C71840 0.64419004598134 0.446269755949853 0.587983903791418 C 0.0 **** 0.0
45 C71846 0.617298736553507 0.377426774039799 0.590945313185722 C 0.0 **** 0.0
46 C71847 0.632834561659484 0.384201831454565 0.588481725991181 C 0.0 **** 0.0
47 C71851 0.58443537018813 0.360944241487187 0.599706040972459 C 0.0 **** 0.0
48 C71852 0.586345823645732 0.377284602100351 0.606871934876458 C 0.0 **** 0.0
49 S71853 0.603272058603614 0.390072867105387 0.602034457467498 S 0.0 **** 0.0
50 C71858 0.574758774594287 0.384147577412571 0.617667487802575 C 0.0 **** 0.0
51 C71859 0.559880250833592 0.375188087321919 0.621466671805196 C 0.0 **** 0.0
52 C71860 0.556995179549757 0.359406114198612 0.613553394498539 C 0.0 **** 0.0
53 C71861 0.569545646488522 0.351924003448697 0.603724017550988 C 0.0 **** 0.0
54 C71867 0.54121115767805 0.35183881519792 0.615424927957529 C 0.0 **** 0.0
55 C71868 0.528522322275601 0.359870492440682 0.624773238661975 C 0.0 **** 0.0
56 C71869 0.532422239022087 0.37357754836029 0.635638334218523 C 0.0 **** 0.0
57 C71870 0.547861622094817 0.381821056047469 0.632717211285924 C 0.0 **** 0.0
58 C71876 0.520969145317797 0.378236497006285 0.648422075670232 C 0.0 **** 0.0
59 C71877 0.504275753635099 0.373298213346288 0.646698765683168 C 0.0 **** 0.0
60 C71878 0.499605372147145 0.361483256514335 0.633944753803279 C 0.0 **** 0.0
61 C71879 0.512305698149976 0.353289707214759 0.624837123321625 C 0.0 **** 0.0
62 C71885 0.566800177975056 0.335564456366596 0.597298282827337 C 0.0 **** 0.0
63 C71886 0.578672269338681 0.329333819275582 0.585666557870276 C 0.0 **** 0.0
64 C71890 0.538496797129253 0.335596169335664 0.609040156714703 C 0.0 **** 0.0
65 C71891 0.55198455363325 0.326538086970602 0.602051783493069 C 0.0 **** 0.0
66 C71895 0.509445515881153 0.337122456566562 0.618129869461236 C 0.0 **** 0.0
67 C71896 0.522914255525397 0.327998074444418 0.611290565838044 C 0.0 **** 0.0
68 C71900 0.482842772475144 0.35525464733597 0.632642497041472 C 0.0 **** 0.0
69 C71901 0.48052059940325 0.338349812043968 0.627412462771045 C 0.0 **** 0.0
70 C71902 0.493869598290948 0.329288393917645 0.62064708788295 C 0.0 **** 0.0
71 O71907 0.49223703053585 0.379010836884703 0.658212016054077 O 0.0 **** 0.0
72 C71908 0.49344183507964 0.396041651328233 0.664494562943914 C 0.0 **** 0.0
73 C71909 0.511630897716846 0.403445984683311 0.663649415872201 C 0.0 **** 0.0
74 C71910 0.524450812852965 0.389065948340902 0.663901101810977 C 0.0 **** 0.0
75 C71916 0.515075793158903 0.416859324237241 0.677511295206235 C 0.0 **** 0.0
76 C71917 0.498986878089349 0.42651873044636 0.682061859913779 C 0.0 **** 0.0
77 C71918 0.486341542600789 0.414587812555571 0.690750842439599 C 0.0 **** 0.0
78 C71919 0.486339317978669 0.39646897245893 0.682758196197211 C 0.0 **** 0.0
79 C71925 0.468801502093457 0.388036360741706 0.684207913104594 C 0.0 **** 0.0
80 C71926 0.460666541793467 0.393124589168146 0.701020203731439 C 0.0 **** 0.0
81 C71927 0.457641365770142 0.412475345331827 0.701896833508699 C 0.0 **** 0.0
82 N71928 0.469735133617478 0.422364458652087 0.691798949403069 N 0.0 **** 0.0
83 C71934 0.550870607796482 0.308687974660401 0.600524821525955 C 0.0 **** 0.0
84 C71935 0.535640929937024 0.300688420957104 0.603949924621627 C 0.0 **** 0.0
85 C71936 0.521406624970743 0.310488609376988 0.608602839434508 C 0.0 **** 0.0
86 O71941 0.533646315996151 0.283298110336064 0.602698946316235 O 0.0 **** 0.0
87 C71942 0.549396608417212 0.27448194113951 0.603255608110329 C 0.0 **** 0.0
88 C71943 0.561512006725213 0.282342341363742 0.591007928773254 C 0.0 **** 0.0
89 O71944 0.564978723305841 0.2994452451732 0.595657297964278 O 0.0 **** 0.0
90 C71950 0.555260171535487 0.281093076711263 0.572471133602449 C 0.0 **** 0.0
91 C71951 0.543635142888793 0.265702899429969 0.569283241503618 C 0.0 **** 0.0
92 C71952 0.548450864092795 0.250888063131545 0.580825946693902 C 0.0 **** 0.0
93 C71953 0.546222935408294 0.255599980814209 0.599687527279869 C 0.0 **** 0.0
94 C71959 0.492019657036034 0.311629797241335 0.618027042691484 C 0.0 **** 0.0
95 C71960 0.505936294783053 0.302436563985609 0.611834512133512 C 0.0 **** 0.0
96 C71964 0.465446766306567 0.330124023378291 0.631596507613249 C 0.0 **** 0.0
97 C71965 0.463365603470252 0.312571318420985 0.628840577611921 C 0.0 **** 0.0
98 C71966 0.476595596202789 0.303522549768792 0.622232675486628 C 0.0 **** 0.0
99 C71971 0.452869961276491 0.338758140506863 0.640672311401118 C 0.0 **** 0.0
100 C71972 0.454086573990447 0.355925628211686 0.643714891015501 C 0.0 **** 0.0
101 C71973 0.46863360753794 0.36407377140296 0.63868635463631 C 0.0 **** 0.0
102 O71978 0.448165052422687 0.304713896125959 0.632502721594175 O 0.0 **** 0.0
103 C71979 0.439137248098697 0.311324217218741 0.645923568124254 C 0.0 **** 0.0
104 C71980 0.439969231209044 0.328220291195455 0.649380678752947 C 0.0 **** 0.0
105 C71985 0.441132540125229 0.36566543497523 0.653842160148036 C 0.0 **** 0.0
106 C71986 0.432496350350107 0.353771795666342 0.667206536762614 C 0.0 **** 0.0
107 C71987 0.431150378282459 0.335143173737136 0.662412794962812 C 0.0 **** 0.0
108 C71992 0.414748370869798 0.360162421098179 0.671938406217861 C 0.0 **** 0.0
109 C71993 0.414157933277703 0.379496122302103 0.67267583817241 C 0.0 **** 0.0
110 C71994 0.417330921173843 0.387057600621614 0.654804367678507 C 0.0 **** 0.0
111 C71995 0.428163920277043 0.375438146969064 0.643270184410444 C 0.0 **** 0.0
112 C72001 0.421335026346449 0.325005702750104 0.672226072822683 C 0.0 **** 0.0
113 C72002 0.421308435024401 0.307888982366342 0.669621243297452 C 0.0 **** 0.0
114 C72003 0.429646252519742 0.301077855443578 0.656133448589967 C 0.0 **** 0.0
115 C72008 0.409614721478445 0.35032441442583 0.687698807809299 C 0.0 **** 0.0
116 C72010 0.412066585973209 0.332970553360184 0.686787567564542 C 0.0 **** 0.0
117 C72013 0.614769987876141 0.438515836198941 0.549385579192135 C 0.0 **** 0.0
118 C72015 0.597979819192672 0.434146882053263 0.557962776588586 C 0.0 **** 0.0
119 C72017 0.613662016561899 0.45638714066613 0.541950918225038 C 0.0 **** 0.0
120 O72019 0.541033103894326 0.395861661501709 0.66475456755994 O 0.0 **** 0.0
121 C72021 0.428786643246253 0.284069674718578 0.653260288386999 C 0.0 **** 0.0
122 C72022 0.420778183053102 0.273755923335751 0.66450931680352 C 0.0 **** 0.0
123 C72023 0.413664847470536 0.280316927642247 0.678806032410284 C 0.0 **** 0.0
124 C72024 0.413454646392103 0.297466421301987 0.680929505659164 C 0.0 **** 0.0
125 C72030 0.405787157719304 0.304726781536426 0.69640099268807 C 0.0 **** 0.0
126 C72031 0.399620726322728 0.294002748189168 0.708409810445771 C 0.0 **** 0.0
127 C72032 0.400634042045901 0.275574688563914 0.705659647928438 C 0.0 **** 0.0
128 C72033 0.407298138215804 0.269440497525952 0.690867795715231 C 0.0 **** 0.0
129 C72039 0.395236460571501 0.26497686094436 0.718200133768244 C 0.0 **** 0.0
130 C72040 0.388692690029314 0.271077645413153 0.733078098399664 C 0.0 **** 0.0
131 C72041 0.387469674092016 0.288078986746551 0.736144181192127 C 0.0 **** 0.0
132 C72042 0.393098271119269 0.300274333782513 0.723149159214126 C 0.0 **** 0.0
133 C72048 0.392219154726061 0.317757786429551 0.726098795758312 C 0.0 **** 0.0
134 C72049 0.39815719821722 0.328808800983043 0.713691611946313 C 0.0 **** 0.0
135 C72050 0.405414531991206 0.32220957543886 0.699005405077696 C 0.0 **** 0.0
136 C72055 0.385827843673747 0.324158957337051 0.741264866901082 C 0.0 **** 0.0
137 C72056 0.380599402638596 0.310916538302217 0.754188933331801 C 0.0 **** 0.0
138 C72057 0.381581159345285 0.29392647914135 0.751248687674208 C 0.0 **** 0.0
139 C72062 0.402409069134292 0.356815868889525 0.702183630249137 C 0.0 **** 0.0
140 C72063 0.397341424628329 0.346396693430721 0.716007265729756 C 0.0 **** 0.0
141 C72068 0.385171026135034 0.341594849755762 0.743757507459182 C 0.0 **** 0.0
142 C72069 0.391280737133075 0.352749211851688 0.731539444662449 C 0.0 **** 0.0
143 C72073 0.390829043246438 0.371723720961432 0.734750013220773 C 0.0 **** 0.0
144 C72074 0.395385766893947 0.375383958315564 0.75320196803449 C 0.0 **** 0.0
145 C72075 0.382692265855732 0.366557533714732 0.764426432472591 C 0.0 **** 0.0
146 C72076 0.377838269967944 0.348801924096624 0.759688766917698 C 0.0 **** 0.0
147 O72082 0.36773887575846 0.341544412512168 0.768674208935185 O 0.0 **** 0.0
148 H72084 0.744013189090797 0.313493471946202 0.480983235111736 H 0.0 **** 0.0
149 H72086 0.727218521506838 0.305101926656224 0.468815706556206 H 0.0 **** 0.0
150 H72088 0.72987334161867 0.33846718299777 0.471553165702872 H 0.0 **** 0.0
151 H72090 0.70964261540498 0.32928229494197 0.47315550528739 H 0.0 **** 0.0
152 H72092 0.732193385994158 0.34026977543442 0.502298739951848 H 0.0 **** 0.0
153 H72094 0.719892710156521 0.323503087182797 0.520069855959467 H 0.0 **** 0.0
154 H72096 0.699730457724741 0.307718590713456 0.491097361108104 H 0.0 **** 0.0
155 H72098 0.705639733940023 0.29778718641645 0.510169046351178 H 0.0 **** 0.0
156 H72100 0.683784958358288 0.328610630666452 0.508463463494933 H 0.0 **** 0.0
157 H72102 0.680193672030598 0.354455845551736 0.519500197696331 H 0.0 **** 0.0
158 H72104 0.71765298498199 0.36033643466799 0.521922754985556 H 0.0 **** 0.0
159 H72106 0.702068608924752 0.374267777881226 0.514433276565645 H 0.0 **** 0.0
160 H72108 0.71892133101342 0.364437860673526 0.490141314676196 H 0.0 **** 0.0
161 H72110 0.69907257106233 0.354256999738514 0.488544980285368 H 0.0 **** 0.0
162 H72112 0.68808146501392 0.34455500633319 0.563586315211098 H 0.0 **** 0.0
163 H72114 0.679795753530866 0.319645371969175 0.558206336867014 H 0.0 **** 0.0
164 H72116 0.687482396391932 0.306591138648686 0.530132576908737 H 0.0 **** 0.0
165 H72118 0.702236485737444 0.319116517842962 0.540831956044973 H 0.0 **** 0.0
166 H72120 0.664726915625692 0.363433270763943 0.539784124357769 H 0.0 **** 0.0
167 H72122 0.627130693324118 0.30081665839756 0.560131809655545 H 0.0 **** 0.0
168 H72124 0.61163386056068 0.310536874195728 0.547527377852169 H 0.0 **** 0.0
169 H72126 0.628906471520148 0.310127091733217 0.522740455463444 H 0.0 **** 0.0
170 H72128 0.634188196512673 0.291070921766982 0.532829958175118 H 0.0 **** 0.0
171 H72130 0.661728301344423 0.301850332982145 0.527523148568724 H 0.0 **** 0.0
172 H72132 0.650455077678041 0.388539312986118 0.554910869892701 H 0.0 **** 0.0
173 H72133 0.692516945031047 0.385623813937888 0.595722503366189 H 0.0 **** 0.0
174 H72135 0.702714947200881 0.396674971395117 0.579179994554967 H 0.0 **** 0.0
175 H72137 0.697501579239559 0.367673610833676 0.568794637450151 H 0.0 **** 0.0
176 H72139 0.691077492782929 0.415834265549609 0.603644120441032 H 0.0 **** 0.0
177 H72141 0.693321149169436 0.425778230912463 0.583709158912718 H 0.0 **** 0.0
178 H72143 0.675381684090826 0.445073704390111 0.596796033167735 H 0.0 **** 0.0
179 H72145 0.665985606692941 0.429659304739836 0.610054155619021 H 0.0 **** 0.0
180 H72147 0.637301166034467 0.411766362284539 0.552513467678696 H 0.0 **** 0.0
181 H72149 0.624980865669602 0.411726201974424 0.571099185996467 H 0.0 **** 0.0
182 H72151 0.640873692368299 0.442840274489667 0.554641421085566 H 0.0 **** 0.0
183 H72153 0.618141408820413 0.43853458837845 0.585681538445215 H 0.0 **** 0.0
184 H72155 0.622639289840959 0.458506359021171 0.576745389015877 H 0.0 **** 0.0
185 H72157 0.641746779717492 0.447952195525716 0.601618583682142 H 0.0 **** 0.0
186 H72159 0.651550760153449 0.457380459882066 0.583914567092248 H 0.0 **** 0.0
187 H72161 0.63599195147142 0.396354537108627 0.594095837497472 H 0.0 **** 0.0
188 H72163 0.576673381523928 0.396687038903562 0.623290578045015 H 0.0 **** 0.0
189 H72165 0.55093682536933 0.39395283683762 0.638628874026828 H 0.0 **** 0.0
190 H72167 0.576792848795179 0.317283699035074 0.579084253237516 H 0.0 **** 0.0
191 H72169 0.485096827089364 0.403853989696151 0.656514985191166 H 0.0 **** 0.0
192 H72171 0.51331402342377 0.409855197255834 0.651390225931205 H 0.0 **** 0.0
193 H72173 0.522357303763315 0.381333818826312 0.675399558052758 H 0.0 **** 0.0
194 H72175 0.519947200557881 0.410721776020394 0.689058732056319 H 0.0 **** 0.0
195 H72177 0.525117156010308 0.425517467157482 0.673221593612175 H 0.0 **** 0.0
196 H72179 0.493342979643191 0.431822721564445 0.670481514923784 H 0.0 **** 0.0
197 H72181 0.501696057344883 0.437360224523631 0.690408940049938 H 0.0 **** 0.0
198 H72183 0.490716527693345 0.413160377794761 0.703941051841776 H 0.0 **** 0.0
199 H72185 0.495241572686124 0.388773426329835 0.690280778591572 H 0.0 **** 0.0
200 H72187 0.460735846118004 0.392752319027256 0.673884963583974 H 0.0 **** 0.0
201 H72189 0.469769424590411 0.374212298659042 0.682823651599742 H 0.0 **** 0.0
202 H72191 0.469272221319758 0.389240598375041 0.711298339296094 H 0.0 **** 0.0
203 H72193 0.448688810014642 0.386419954801715 0.703348412935181 H 0.0 **** 0.0
204 H72195 0.458360463204521 0.416842420822875 0.715112180891713 H 0.0 **** 0.0
205 H72197 0.444768331224376 0.415500112474833 0.697517201720241 H 0.0 **** 0.0
206 H72199 0.465203019885972 0.424351487066872 0.680142328740942 H 0.0 **** 0.0
207 H72201 0.554694812011601 0.276022255524583 0.616036891285836 H 0.0 **** 0.0
208 H72203 0.573524350520086 0.275344744038362 0.592032027936949 H 0.0 **** 0.0
209 H72205 0.548495191939829 0.292825803954917 0.569281562842166 H 0.0 **** 0.0
210 H72207 0.566232422580122 0.280592756167354 0.56388645759543 H 0.0 **** 0.0
211 H72209 0.544107487235716 0.262004110136633 0.555856090078109 H 0.0 **** 0.0
212 H72211 0.530392638693124 0.269233652055642 0.571889614600124 H 0.0 **** 0.0
213 H72213 0.561794066221054 0.247649465554948 0.578421472165606 H 0.0 **** 0.0
214 H72215 0.54101967178881 0.239492608239562 0.57781063205386 H 0.0 **** 0.0
215 H72217 0.554391781429108 0.247488199766907 0.607489335390193 H 0.0 **** 0.0
216 H72219 0.533162543321345 0.252866054969275 0.603673997482225 H 0.0 **** 0.0
217 H72221 0.504750722661442 0.288707752959332 0.610061198605179 H 0.0 **** 0.0
218 H72223 0.475300202485485 0.289840582183349 0.620157845835707 H 0.0 **** 0.0
219 H72225 0.469597970226342 0.377570058742049 0.641756102195891 H 0.0 **** 0.0
220 H72227 0.447904759885213 0.37524353698548 0.661249073210396 H 0.0 **** 0.0
221 H72229 0.440593690635174 0.354386239126394 0.678578693593763 H 0.0 **** 0.0
222 H72231 0.405859633195594 0.356495669296225 0.661766234664067 H 0.0 **** 0.0
223 H72233 0.423794252512878 0.384082472968896 0.681622348948829 H 0.0 **** 0.0
224 H72235 0.401839975293931 0.383846072014096 0.677352326673504 H 0.0 **** 0.0
225 H72237 0.42354917751728 0.399461457688653 0.656068455985192 H 0.0 **** 0.0
226 H72239 0.405103612750679 0.389568522000346 0.648602624517009 H 0.0 **** 0.0
227 H72241 0.43444788434398 0.383048484419504 0.633427119491588 H 0.0 **** 0.0
228 H72243 0.419947276721365 0.366412592322533 0.636586891913222 H 0.0 **** 0.0
229 H72245 0.616577669168075 0.429715663905657 0.538698944425961 H 0.0 **** 0.0
230 H72247 0.587892339482586 0.432632084202746 0.548517674674749 H 0.0 **** 0.0
231 H72249 0.594133606125073 0.444231598554318 0.566754263219114 H 0.0 **** 0.0
232 H72251 0.598818835355388 0.42239241130109 0.565302842216993 H 0.0 **** 0.0
233 H72253 0.625501088424887 0.460027459525516 0.535608097679737 H 0.0 **** 0.0
234 H72255 0.611112849256432 0.465826460261576 0.551844982206701 H 0.0 **** 0.0
235 H72257 0.603405504238047 0.457282261166499 0.532578381683757 H 0.0 **** 0.0
236 H72259 0.548446196606395 0.386691697865216 0.662358577811044 H 0.0 **** 0.0
237 H72261 0.434856437460471 0.278403385302986 0.642252960136183 H 0.0 **** 0.0
238 H72263 0.420696306162956 0.260193440242952 0.662101888985215 H 0.0 **** 0.0
239 H72265 0.408093621495074 0.255800003713284 0.688885501082509 H 0.0 **** 0.0
240 H72267 0.396343266418242 0.251331087896262 0.716663495436597 H 0.0 **** 0.0
241 H72269 0.384717815633596 0.261924906955294 0.742611759658419 H 0.0 **** 0.0
242 H72271 0.376034130703414 0.314892937910139 0.766522943302096 H 0.0 **** 0.0
243 H72273 0.377669908262638 0.285282507187845 0.761250645506759 H 0.0 **** 0.0
244 H72275 0.401059739466249 0.37058280509777 0.702827935029037 H 0.0 **** 0.0
245 H72277 0.399793733615848 0.37852692194475 0.726646901319609 H 0.0 **** 0.0
246 H72279 0.378139834328578 0.376777090063178 0.731839013372548 H 0.0 **** 0.0
247 H72281 0.39540863755541 0.389043640972325 0.755865577713166 H 0.0 **** 0.0
248 H72283 0.408303175475244 0.370794754573063 0.755774955591569 H 0.0 **** 0.0
249 H72285 0.370335623804802 0.372973640543697 0.76448889381843 H 0.0 **** 0.0
250 H72287 0.386512577796538 0.365240846616833 0.777730161165142 H 0.0 **** 0.0
@<TRIPOS>BOND
1 3 2 1
2 4 3 1
3 5 4 1
4 6 5 1
5 1 2 1
6 1 6 1
7 8 7 1
8 9 8 1
9 10 9 1
10 4 7 1
11 3 10 1
12 12 11 1
13 13 12 1
14 14 13 1
15 8 11 1
16 7 14 1
17 16 15 1
18 17 16 Partial double
19 18 17 1
20 13 15 1
21 12 18 1
22 20 19 Partial double
23 21 20 Partial double
24 22 21 Partial double
25 17 19 Partial double
26 16 22 Partial double
27 24 23 1
28 25 24 1
29 15 25 Double
30 22 23 1
31 27 26 1
32 28 27 Partial double
33 29 28 Partial double
34 21 26 1
35 20 29 Partial double
36 31 30 1
37 32 31 1
38 18 30 1
39 19 32 1
40 34 33 Double
41 35 34 1
42 36 35 1
43 31 33 1
44 30 36 Double
45 38 37 1
46 39 38 1
47 40 39 Double
48 34 37 1
49 33 40 1
50 42 41 1
51 43 42 1
52 44 43 1
53 40 41 1
54 39 44 1
55 46 45 Partial double
56 32 46 1
57 29 45 Partial double
58 48 47 Partial double
59 49 48 1
60 45 49 Partial double
61 28 47 Partial double
62 51 50 Partial double
63 52 51 Partial double
64 53 52 Partial double
65 48 50 Partial double
66 47 53 Partial double
67 55 54 Partial double
68 56 55 Partial double
69 57 56 Partial double
70 52 54 Partial double
71 51 57 Partial double
72 59 58 Partial double
73 60 59 Partial double
74 61 60 Partial double
75 56 58 Partial double
76 55 61 Partial double
77 63 62 Partial double
78 27 63 Partial double
79 53 62 Partial double
80 65 64 Partial double
81 62 65 Partial double
82 54 64 Partial double
83 67 66 Partial double
84 64 67 Partial double
85 61 66 Partial double
86 69 68 Partial double
87 70 69 Partial double
88 66 70 Partial double
89 60 68 Partial double
90 72 71 1
91 73 72 1
92 74 73 1
93 59 71 1
94 58 74 1
95 76 75 1
96 77 76 1
97 78 77 1
98 73 75 1
99 72 78 1
100 80 79 1
101 81 80 1
102 82 81 1
103 78 79 1
104 77 82 1
105 84 83 Partial double
106 85 84 Partial double
107 67 85 Partial double
108 65 83 Partial double
109 87 86 1
110 88 87 1
111 89 88 1
112 84 86 1
113 83 89 1
114 91 90 1
115 92 91 1
116 93 92 1
117 88 90 1
118 87 93 1
119 95 94 Partial double
120 85 95 Partial double
121 70 94 Partial double
122 97 96 Partial double
123 98 97 Partial double
124 94 98 Partial double
125 69 96 Partial double
126 100 99 Partial double
127 101 100 Partial double
128 68 101 Partial double
129 96 99 Partial double
130 103 102 1
131 104 103 Partial double
132 97 102 1
133 99 104 1
134 106 105 1
135 107 106 1
136 100 105 1
137 104 107 Partial double
138 109 108 1
139 110 109 1
140 111 110 1
141 106 108 1
142 105 111 1
143 113 112 1
144 114 113 1
145 103 114 Partial double
146 107 112 Partial double
147 108 115 1
148 112 116 Partial double
149 115 116 Partial double
150 42 117 1
151 117 118 1
152 117 119 1
153 74 120 1
154 122 121 1
155 123 122 Partial double
156 124 123 1
157 114 121 Partial double
158 113 124 Partial double
159 126 125 Partial double
160 127 126 1
161 128 127 Partial double
162 124 125 Partial double
163 123 128 Partial double
164 130 129 Partial double
165 131 130 1
166 132 131 1
167 127 129 Partial double
168 126 132 Partial double
169 134 133 Partial double
170 135 134 Partial double
171 125 135 Partial double
172 132 133 Partial double
173 137 136 Partial double
174 138 137 Partial double
175 131 138 Partial double
176 133 136 Partial double
177 140 139 Partial double
178 134 140 Partial double
179 116 135 Partial double
180 115 139 Partial double
181 142 141 Partial double
182 140 142 Partial double
183 136 141 Partial double
184 144 143 1
185 145 144 1
186 146 145 1
187 142 143 1
188 141 146 1
189 146 147 Double
190 1 148 1
191 1 149 1
192 2 150 1
193 2 151 1
194 3 152 1
195 4 153 1
196 5 154 1
197 5 155 1
198 7 156 1
199 8 157 1
200 9 158 1
201 9 159 1
202 10 160 1
203 10 161 1
204 12 162 1
205 13 163 1
206 14 164 1
207 14 165 1
208 18 166 1
209 23 167 1
210 23 168 1
211 24 169 1
212 24 170 1
213 25 171 1
214 35 173 1
215 35 174 1
216 36 175 1
217 37 176 1
218 37 177 1
219 38 178 1
220 38 179 1
221 41 180 1
222 41 181 1
223 42 182 1
224 43 183 1
225 43 184 1
226 44 185 1
227 44 186 1
228 46 187 1
229 50 188 1
230 57 189 1
231 63 190 1
232 72 191 1
233 73 192 1
234 74 193 1
235 75 194 1
236 75 195 1
237 76 196 1
238 76 197 1
239 77 198 1
240 78 199 1
241 79 200 1
242 79 201 1
243 80 202 1
244 80 203 1
245 81 204 1
246 81 205 1
247 82 206 1
248 87 207 1
249 88 208 1
250 90 209 1
251 90 210 1
252 91 211 1
253 91 212 1
254 92 213 1
255 92 214 1
256 93 215 1
257 93 216 1
258 95 217 1
259 98 218 1
260 101 219 1
261 105 220 1
262 106 221 1
263 108 222 1
264 109 223 1
265 109 224 1
266 110 225 1
267 110 226 1
268 111 227 1
269 111 228 1
270 117 229 1
271 118 230 1
272 118 231 1
273 118 232 1
274 119 233 1
275 119 234 1
276 119 235 1
277 120 236 1
278 121 237 1
279 122 238 1
280 128 239 1
281 129 240 1
282 130 241 1
283 137 242 1
284 138 243 1
285 139 244 1
286 143 245 1
287 143 246 1
288 144 247 1
289 144 248 1
290 145 249 1
291 145 250 1
292 31 172 1
@<TRIPOS>MOLECULE
Sketch 4
250 292
SMALL
USER_CHARGES


@<TRIPOS>ATOM
1 C72290 -0.00350861455854989 0.427165349198342 -0.0615737683774483 C 0.0 **** 0.0
2 C72291 -0.00408210787126596 0.437751342506662 -0.0450374729767129 C 0.0 **** 0.0
3 C72292 0.0119200596669728 0.448685006539647 -0.0427805856163686 C 0.0 **** 0.0
4 C72293 0.0283431050377595 0.437744820837806 -0.0445491697539656 C 0.0 **** 0.0
5 C72294 0.024969276583906 0.422641937450318 -0.0566017186376784 C 0.0 **** 0.0
6 O72295 0.0128263366186023 0.426998888707175 -0.0690919862593807 O 0.0 **** 0.0
7 C72302 0.0354125222187419 0.432742465517817 -0.0269935703200053 C 0.0 **** 0.0
8 C72303 0.040656899886528 0.448750161109487 -0.0167920577380149 C 0.0 **** 0.0
9 C72304 0.0290982236612205 0.46398834875127 -0.0204664121170237 C 0.0 **** 0.0
10 C72305 0.0113494406920749 0.458823191624732 -0.026125402447106 C 0.0 **** 0.0
11 O72311 0.0572792513958684 0.45461316021853 -0.0207526237865496 O 0.0 **** 0.0
12 C72312 0.0704141883906374 0.442322139597527 -0.0188772210459598 C 0.0 **** 0.0
13 C72313 0.067026340581901 0.427763952991327 -0.0312010841202711 C 0.0 **** 0.0
14 C72314 0.0499067175247379 0.419615838854975 -0.0274195564753826 C 0.0 **** 0.0
15 C72320 0.0816485921294241 0.415460677711403 -0.0308913906602616 C 0.0 **** 0.0
16 C72321 0.0894923793535697 0.41164494510864 -0.0139294070202089 C 0.0 **** 0.0
17 C72322 0.0858120823262549 0.421649612568911 4.55843451942732e-05 C 0.0 **** 0.0
18 C72323 0.0728313031140924 0.435921469465108 -0.000740870204359688 C 0.0 **** 0.0
19 C72329 0.0939746569017764 0.41832361627436 0.0152755163293673 C 0.0 **** 0.0
20 C72330 0.104637500119664 0.404479798380018 0.0164805160128864 C 0.0 **** 0.0
21 C72331 0.108387742734012 0.394601427696592 0.00249399504842863 C 0.0 **** 0.0
22 C72332 0.100932881379929 0.398358693201544 -0.0129284413797613 C 0.0 **** 0.0
23 C72338 0.104739724213479 0.387515315091689 -0.0282744766271459 C 0.0 **** 0.0
24 C72339 0.104206990631705 0.398232789034645 -0.0446253480616091 C 0.0 **** 0.0
25 C72340 0.0886745531515802 0.409337029248715 -0.0451768600288805 C 0.0 **** 0.0
26 O72345 0.119442331517218 0.381017404179177 0.00357080464107662 O 0.0 **** 0.0
27 C72346 0.128235902664138 0.378220080728458 0.0183951825991785 C 0.0 **** 0.0
28 C72347 0.124420987309311 0.386094968169513 0.0335635927254144 C 0.0 **** 0.0
29 C72348 0.111213088895853 0.399633007991458 0.0334923199931182 C 0.0 **** 0.0
30 C72354 0.0780231068341719 0.449059795423091 0.0119807341864329 C 0.0 **** 0.0
31 C72355 0.0768678966545944 0.441853800587478 0.0296988268745662 C 0.0 **** 0.0
32 C72356 0.0922688206849392 0.429858325360328 0.0305736688560213 C 0.0 **** 0.0
33 C72361 0.0766651462551414 0.455757160757298 0.0436452829106366 C 0.0 **** 0.0
34 C72362 0.0848665911341579 0.470547977450691 0.0399806006634958 C 0.0 **** 0.0
35 C72363 0.0926644685041658 0.474610023306566 0.0229278166066798 C 0.0 **** 0.0
36 C72364 0.0855483024506223 0.463921315795529 0.00879488719636512 C 0.0 **** 0.0
37 C72370 0.0873310650649646 0.48478157131524 0.0523197092565412 C 0.0 **** 0.0
38 C72371 0.0756262277359017 0.483793336619167 0.0677582830005649 C 0.0 **** 0.0
39 C72372 0.0676252439950484 0.466768411378615 0.070236700840957 C 0.0 **** 0.0
40 C72373 0.068301201737015 0.453864646779436 0.0587258228906198 C 0.0 **** 0.0
41 C72379 0.0585452196421137 0.43765489668505 0.0634963776738275 C 0.0 **** 0.0
42 C72380 0.0428610737086296 0.441494200982131 0.07401864308902 C 0.0 **** 0.0
43 C72381 0.0488397482228072 0.450050710809183 0.0904286809120915 C 0.0 **** 0.0
44 C72382 0.0575434456156359 0.466798609645058 0.0864757354382388 C 0.0 **** 0.0
45 C72388 0.105226918221617 0.406961114706046 0.0477764915245736 C 0.0 **** 0.0
46 C72389 0.095320311002961 0.421012631259357 0.0473077918919905 C 0.0 **** 0.0
47 C72393 0.133037846992514 0.381295389959623 0.0485021982941644 C 0.0 **** 0.0
48 C72394 0.127724114198417 0.386497674412904 0.0647856306832753 C 0.0 **** 0.0
49 S72395 0.109374049767361 0.398028881745352 0.0673306564294759 S 0.0 **** 0.0
50 C72400 0.135253270675007 0.380785664225241 0.0792715451190393 C 0.0 **** 0.0
51 C72401 0.148264800844649 0.368642908162292 0.0783469052189024 C 0.0 **** 0.0
52 C72402 0.153616579170449 0.362906663020789 0.0622477375377952 C 0.0 **** 0.0
53 C72403 0.146680910610899 0.369844313745275 0.0475546284466355 C 0.0 **** 0.0
54 C72409 0.1643592146205 0.348951769921981 0.061416852895414 C 0.0 **** 0.0
55 C72410 0.169617849802596 0.340658451621208 0.0761653380545548 C 0.0 **** 0.0
56 C72411 0.164453509748858 0.346148722574041 0.0923754207522868 C 0.0 **** 0.0
57 C72412 0.154234524756277 0.36067702002518 0.0930570637780663 C 0.0 **** 0.0
58 C72418 0.169927760450631 0.337795405432102 0.10717635421003 C 0.0 **** 0.0
59 C72419 0.182767617115055 0.326027149678015 0.105731505977151 C 0.0 **** 0.0
60 C72420 0.188680896346224 0.321017684506465 0.0895578865410701 C 0.0 **** 0.0
61 C72421 0.180865027927212 0.327312711208634 0.0750116356618374 C 0.0 **** 0.0
62 C72427 0.151765334907983 0.363496902428888 0.0317727422121984 C 0.0 **** 0.0
63 C72428 0.141469637686507 0.36703461298089 0.0176799133163293 C 0.0 **** 0.0
64 C72432 0.169805377574733 0.343127862898443 0.0456711150819311 C 0.0 **** 0.0
65 C72433 0.165267651858535 0.351706483005926 0.0309081860318912 C 0.0 **** 0.0
66 C72437 0.184849958979342 0.320519066434303 0.059256685029094 C 0.0 **** 0.0
67 C72438 0.179438405982355 0.328581443395412 0.0445653323608828 C 0.0 **** 0.0
68 C72442 0.201502962106522 0.308536066973468 0.0876633585863896 C 0.0 **** 0.0
69 C72443 0.202179393061045 0.299396872175185 0.0724762435435924 C 0.0 **** 0.0
70 C72444 0.194467325380629 0.305840412923614 0.0581600512821428 C 0.0 **** 0.0
71 O72449 0.190047057689439 0.318262343378709 0.119674575658149 O 0.0 **** 0.0
72 C72450 0.185799507646801 0.322691015999818 0.136554325867941 C 0.0 **** 0.0
73 C72451 0.167527029148271 0.329007815390424 0.137954462550372 C 0.0 **** 0.0
74 C72452 0.163292046563734 0.342453199735314 0.124703590292867 C 0.0 **** 0.0
75 C72458 0.16347122125137 0.335225070882651 0.156130266036675 C 0.0 **** 0.0
76 C72459 0.176307643073329 0.328606013985416 0.169097554348982 C 0.0 **** 0.0
77 C72460 0.194548893890298 0.334378039660799 0.164944951874133 C 0.0 **** 0.0
78 C72461 0.198057478209969 0.335159244605123 0.145446269321716 C 0.0 **** 0.0
79 C72467 0.217096688092682 0.333301523688956 0.141313615556243 C 0.0 **** 0.0
80 C72468 0.227350647986397 0.340783470844868 0.155943274382017 C 0.0 **** 0.0
81 C72469 0.224328745157445 0.330773695604689 0.172497723210672 C 0.0 **** 0.0
82 N72470 0.206878898194309 0.324261471990502 0.174144841918137 N 0.0 **** 0.0
83 C72476 0.172691635311417 0.347187214298986 0.0153214230810661 C 0.0 **** 0.0
84 C72477 0.180636401674101 0.331583521823273 0.0137806160708464 C 0.0 **** 0.0
85 C72478 0.18397814406947 0.32216048272892 0.0286266216211864 C 0.0 **** 0.0
86 O72483 0.185736724251189 0.325089528345333 -0.00172243954309846 O 0.0 **** 0.0
87 C72484 0.18023944092435 0.335099717488534 -0.0157595098679369 C 0.0 **** 0.0
88 C72485 0.182167718394339 0.353573950011032 -0.0119493104288287 C 0.0 **** 0.0
89 O72486 0.17077123130362 0.357777238042951 0.0014302062732289 O 0.0 **** 0.0
90 C72492 0.178461171053691 0.364816855134134 -0.0274454560637153 C 0.0 **** 0.0
91 C72493 0.165462932958385 0.356808158256391 -0.0396726966613045 C 0.0 **** 0.0
92 C72494 0.152798360694442 0.345896806996707 -0.0299056483501715 C 0.0 **** 0.0
93 C72495 0.161764056308024 0.330988072682834 -0.0209541769069318 C 0.0 **** 0.0
94 C72501 0.197544452898402 0.298051500125863 0.0423647550742266 C 0.0 **** 0.0
95 C72502 0.192765937302044 0.306783566434592 0.0275928614532234 C 0.0 **** 0.0
96 C72506 0.211676656150702 0.284520767261215 0.0716190191114301 C 0.0 **** 0.0
97 C72507 0.212373957284574 0.275132559306553 0.0564607129206205 C 0.0 **** 0.0
98 C72508 0.20583010246578 0.282172377087192 0.0419690160698512 C 0.0 **** 0.0
99 C72513 0.221710102204055 0.279434881722758 0.0853744240669384 C 0.0 **** 0.0
100 C72514 0.222871313348272 0.289509500101819 0.0996334014728614 C 0.0 **** 0.0
101 C72515 0.213531702155079 0.304233575316424 0.100068086281083 C 0.0 **** 0.0
102 O72520 0.220386062725504 0.259665949035875 0.0555291126612711 O 0.0 **** 0.0
103 C72521 0.228993184638124 0.253645058436709 0.0695123218359093 C 0.0 **** 0.0
104 C72522 0.230843870634162 0.262991056678199 0.0839609535720975 C 0.0 **** 0.0
105 C72527 0.233732568640777 0.285244614394824 0.114829493271884 C 0.0 **** 0.0
106 C72528 0.244242004861833 0.268081523879307 0.112750615418106 C 0.0 **** 0.0
107 C72529 0.240304698680542 0.257171954601664 0.097203883603504 C 0.0 **** 0.0
108 C72534 0.243081390144173 0.257374812956307 0.129013706813373 C 0.0 **** 0.0
109 C72535 0.246460723244325 0.268003475816111 0.145008227436948 C 0.0 **** 0.0
110 C72536 0.234013849022991 0.283023170809896 0.14664188947637 C 0.0 **** 0.0
111 C72537 0.222823291572503 0.284873213881164 0.130914727786631 C 0.0 **** 0.0
112 C72543 0.246664201074025 0.241100026248951 0.0965132419772963 C 0.0 **** 0.0
113 C72544 0.244563469631515 0.231508972423571 0.0821833270225772 C 0.0 **** 0.0
114 C72545 0.235858888957383 0.237819402958614 0.0687047874511835 C 0.0 **** 0.0
115 C72550 0.254404441040245 0.241851970663541 0.127426214131586 C 0.0 **** 0.0
116 C72552 0.255687180015862 0.234025495938861 0.111780224872616 C 0.0 **** 0.0
117 C72555 0.0317024028608258 0.425679396074665 0.0767279486374887 C 0.0 **** 0.0
118 C72557 0.0402705744147099 0.411843235660921 0.0872748165784402 C 0.0 **** 0.0
119 C72559 0.0144297580386312 0.43027924310681 0.0842326659849843 C 0.0 **** 0.0
120 O72561 0.145382887518623 0.344498574985767 0.124608481399754 O 0.0 **** 0.0
121 C72563 0.233782717464728 0.228195956848437 0.0544785942802579 C 0.0 **** 0.0
122 C72564 0.240152799562201 0.212241457396871 0.0536763726166143 C 0.0 **** 0.0
123 C72565 0.248777081206354 0.205740406160399 0.0671131478377152 C 0.0 **** 0.0
124 C72566 0.251116767296438 0.215524424564697 0.081231351191194 C 0.0 **** 0.0
125 C72572 0.260755456816602 0.208519779931107 0.0957046258280412 C 0.0 **** 0.0
126 C72573 0.266144631717579 0.192133387346535 0.0948374835745337 C 0.0 **** 0.0
127 C72574 0.263128521197118 0.182183994141245 0.0792880644994049 C 0.0 **** 0.0
128 C72575 0.254731510706234 0.18940443568335 0.0659767919715155 C 0.0 **** 0.0
129 C72581 0.268805429079197 0.16587024174687 0.0784532749870556 C 0.0 **** 0.0
130 C72582 0.276674591494139 0.158360786268559 0.0919619858058086 C 0.0 **** 0.0
131 C72583 0.279322539392249 0.16689921361407 0.106790836758652 C 0.0 **** 0.0
132 C72584 0.274204976545454 0.1848398386495 0.108285548381451 C 0.0 **** 0.0
133 C72590 0.276848358022345 0.193827437128656 0.123360101144382 C 0.0 **** 0.0
134 C72591 0.271441840393665 0.210639518439724 0.12426538143403 C 0.0 **** 0.0
135 C72592 0.263364416316815 0.218129953732352 0.110367489753736 C 0.0 **** 0.0
136 C72597 0.283281870474655 0.185713003887632 0.137735557053078 C 0.0 **** 0.0
137 C72598 0.288769970757369 0.167463784698395 0.135103578537936 C 0.0 **** 0.0
138 C72599 0.28662977064861 0.158979322177218 0.120225952890693 C 0.0 **** 0.0
139 C72604 0.26223334859149 0.23433740905269 0.141050846628377 C 0.0 **** 0.0
140 C72605 0.271402106852728 0.218947309108497 0.139927151757298 C 0.0 **** 0.0
141 C72610 0.28399480600698 0.194343435871241 0.153100208983351 C 0.0 **** 0.0
142 C72611 0.27846062468436 0.211017259691472 0.154241242676385 C 0.0 **** 0.0
143 C72615 0.278683195372506 0.220398927539286 0.171091636841194 C 0.0 **** 0.0
144 C72616 0.294531228407035 0.216012134891364 0.181159233301777 C 0.0 **** 0.0
145 C72617 0.295707396735112 0.197105834956191 0.183385655079417 C 0.0 **** 0.0
146 C72618 0.29048685229468 0.185994850916976 0.168846921679537 C 0.0 **** 0.0
147 O72624 0.291347515941548 0.170831849017238 0.170990764180558 O 0.0 **** 0.0
148 H72626 -0.0120586739034669 0.432582466118109 -0.0710651516636025 H 0.0 **** 0.0
149 H72628 -0.0079659348911166 0.414135019662967 -0.0592703000977676 H 0.0 **** 0.0
150 H72630 -0.0154541850008743 0.445821916381936 -0.0446724942981187 H 0.0 **** 0.0
151 H72632 -0.00512703083423567 0.429334409864954 -0.0339697228417642 H 0.0 **** 0.0
152 H72634 0.0120498022260853 0.457835930293153 -0.053339389452525 H 0.0 **** 0.0
153 H72636 0.0379600866326066 0.445848382647653 -0.0506086881408635 H 0.0 **** 0.0
154 H72638 0.0208371873570413 0.411350422545886 -0.0495034745261409 H 0.0 **** 0.0
155 H72640 0.0365515861013895 0.419068707199019 -0.0634036300764602 H 0.0 **** 0.0
156 H72642 0.0247182444541787 0.426826740765472 -0.0202055063534518 H 0.0 **** 0.0
157 H72644 0.0398216565830879 0.445653999396866 -0.00320792528959766 H 0.0 **** 0.0
158 H72646 0.0350765805111794 0.471304364445229 -0.0307088811349369 H 0.0 **** 0.0
159 H72648 0.028526897145286 0.472505595448238 -0.0094478284956576 H 0.0 **** 0.0
160 H72650 0.00312276042814175 0.469975258229988 -0.027617247620925 H 0.0 **** 0.0
161 H72652 0.00558255827046086 0.451047632222211 -0.0161054319679746 H 0.0 **** 0.0
162 H72654 0.0819866234920807 0.448880746407112 -0.0229287351250312 H 0.0 **** 0.0
163 H72656 0.0663818648990238 0.433283637713626 -0.0439753408617997 H 0.0 **** 0.0
164 H72658 0.0504535951388928 0.413331035907637 -0.014988193117439 H 0.0 **** 0.0
165 H72660 0.0472054692066581 0.409528563435195 -0.0366172442281011 H 0.0 **** 0.0
166 H72662 0.0605809131759572 0.430737488748688 0.0035716022298584 H 0.0 **** 0.0
167 H72664 0.117196008770679 0.381422342019124 -0.0271338988957877 H 0.0 **** 0.0
168 H72666 0.0953858998115427 0.377217091792727 -0.0291311415798103 H 0.0 **** 0.0
169 H72668 0.10455931627391 0.389902047553897 -0.0557874235549398 H 0.0 **** 0.0
170 H72670 0.115560805977464 0.406279964343146 -0.0453590796457699 H 0.0 **** 0.0
171 H72672 0.0841554986838957 0.412860203512349 -0.0577144814173443 H 0.0 **** 0.0
172 H72674 0.0651752202575786 0.434346101465921 0.0303479583833044 H 0.0 **** 0.0
173 H72675 0.106511705551049 0.473145960074813 0.0235703197392658 H 0.0 **** 0.0
174 H72677 0.0901339127412949 0.488037245608822 0.0199164714485212 H 0.0 **** 0.0
175 H72679 0.0875250456656976 0.46834415602714 -0.00409661233072274 H 0.0 **** 0.0
176 H72681 0.100653706789429 0.484687643498021 0.056462845620993 H 0.0 **** 0.0
177 H72683 0.0852942513856239 0.497037126324449 0.0459394663507801 H 0.0 **** 0.0
178 H72685 0.0654152954114398 0.493208650542826 0.0663557441041942 H 0.0 **** 0.0
179 H72687 0.0827505792350056 0.487371316824138 0.0792187221346414 H 0.0 **** 0.0
180 H72689 0.0547688421444975 0.430410517494264 0.0522755575380954 H 0.0 **** 0.0
181 H72691 0.0668968698670176 0.429308492033611 0.0708785720206259 H 0.0 **** 0.0
182 H72693 0.035031632621506 0.450708645210977 0.0669765016686908 H 0.0 **** 0.0
183 H72695 0.0577253619779989 0.441583165902405 0.0970331346296165 H 0.0 **** 0.0
184 H72697 0.0383003549664157 0.45242486792146 0.0992113118602044 H 0.0 **** 0.0
185 H72699 0.065771653995211 0.470635163886769 0.0970783255916799 H 0.0 **** 0.0
186 H72701 0.0477858394418605 0.476721683694219 0.085278831978007 H 0.0 **** 0.0
187 H72703 0.0902606897426344 0.426601109521014 0.0587763391834313 H 0.0 **** 0.0
188 H72705 0.130335004109579 0.384289239017564 0.0917626630374673 H 0.0 **** 0.0
189 H72707 0.149897077452078 0.365759895573175 0.105226036685349 H 0.0 **** 0.0
190 H72709 0.143604519388475 0.360896816315376 0.00545497458813129 H 0.0 **** 0.0
191 H72711 0.186672102037373 0.310673065616559 0.143611119226896 H 0.0 **** 0.0
192 H72713 0.159241064253083 0.318152092788733 0.135106054712612 H 0.0 **** 0.0
193 H72715 0.16871820798842 0.354741371480477 0.128402618582732 H 0.0 **** 0.0
194 H72717 0.163653272859014 0.349156505485759 0.15656100540066 H 0.0 **** 0.0
195 H72719 0.150498276133159 0.331575308612367 0.159667396260613 H 0.0 **** 0.0
196 H72721 0.175721692593029 0.314679477642189 0.169301152216213 H 0.0 **** 0.0
197 H72723 0.172896057513856 0.33277651879415 0.181958965050127 H 0.0 **** 0.0
198 H72725 0.195821208716474 0.347307068757031 0.169994850756143 H 0.0 **** 0.0
199 H72727 0.194516035391056 0.347947810927656 0.141137566411839 H 0.0 **** 0.0
200 H72729 0.220660565477363 0.319951744540742 0.139971894958884 H 0.0 **** 0.0
201 H72731 0.220037420972663 0.339438971205171 0.129190325417032 H 0.0 **** 0.0
202 H72733 0.223390222386455 0.354057563668296 0.157669833831762 H 0.0 **** 0.0
203 H72735 0.241005858622675 0.341169191888981 0.153237038626943 H 0.0 **** 0.0
204 H72737 0.227219566528844 0.338779261786201 0.183525672695518 H 0.0 **** 0.0
205 H72739 0.233186371206138 0.320041419367264 0.173235507783633 H 0.0 **** 0.0
206 H72741 0.206326768450634 0.312278567441127 0.170087248024002 H 0.0 **** 0.0
207 H72743 0.188641715406393 0.332010215213869 -0.0264467698879711 H 0.0 **** 0.0
208 H72745 0.195127608133612 0.355951588358226 -0.00738988450093199 H 0.0 **** 0.0
209 H72747 0.173442908184753 0.376870980750193 -0.0225995282123147 H 0.0 **** 0.0
210 H72749 0.190099971717707 0.367959434207661 -0.0344197693948537 H 0.0 **** 0.0
211 H72751 0.172064894138511 0.348761976815219 -0.0489537684892553 H 0.0 **** 0.0
212 H72753 0.158963810921343 0.366709797898714 -0.0470191549491167 H 0.0 **** 0.0
213 H72755 0.142711033060201 0.341208328013611 -0.0382150570048773 H 0.0 **** 0.0
214 H72757 0.146396208168003 0.353963845091631 -0.0205323622167151 H 0.0 **** 0.0
215 H72759 0.161526476645074 0.31984211435473 -0.0292451075519495 H 0.0 **** 0.0
216 H72761 0.154628391767071 0.327363377900917 -0.00957912246828981 H 0.0 **** 0.0
217 H72763 0.196443403202365 0.301744031831388 0.0152215775613537 H 0.0 **** 0.0
218 H72765 0.207675155363321 0.275681521383979 0.0298177079224869 H 0.0 **** 0.0
219 H72767 0.215159148326978 0.312350363435543 0.111164436311068 H 0.0 **** 0.0
220 H72769 0.243116835051365 0.295437339222251 0.116476541396479 H 0.0 **** 0.0
221 H72771 0.257587754291308 0.271975622582941 0.11138027998421 H 0.0 **** 0.0
222 H72773 0.23003682131962 0.252610906880132 0.129745155718174 H 0.0 **** 0.0
223 H72775 0.259557516756441 0.272706748103094 0.144527408573719 H 0.0 **** 0.0
224 H72777 0.245353182989015 0.260241072326018 0.156492951761109 H 0.0 **** 0.0
225 H72779 0.241101603774509 0.294868752491099 0.148562553846536 H 0.0 **** 0.0
226 H72781 0.226055514959051 0.281429773233413 0.157958531838401 H 0.0 **** 0.0
227 H72783 0.214912253726708 0.296210798369785 0.132209879624753 H 0.0 **** 0.0
228 H72785 0.213844507881095 0.27429789675744 0.130197864949273 H 0.0 **** 0.0
229 H72787 0.029202862638636 0.420267233085759 0.06407622900431 H 0.0 **** 0.0
230 H72789 0.0316708278420465 0.401081671074528 0.0891565922032708 H 0.0 **** 0.0
231 H72791 0.0438730864879193 0.416518238899614 0.0998628339089264 H 0.0 **** 0.0
232 H72793 0.0517462747803874 0.406981784644443 0.0810956663197163 H 0.0 **** 0.0
233 H72795 0.00770381970960425 0.439447979369752 0.0762008788238953 H 0.0 **** 0.0
234 H72797 0.0157224353353823 0.435932620726099 0.0968698140245332 H 0.0 **** 0.0
235 H72799 0.00630834451705596 0.419035391320083 0.0854519049154566 H 0.0 **** 0.0
236 H72801 0.141332370211989 0.337688023824148 0.115562106367173 H 0.0 **** 0.0
237 H72803 0.226830368036378 0.232974789348432 0.04358677657282 H 0.0 **** 0.0
238 H72805 0.238073731462381 0.204868098696845 0.0421976432629365 H 0.0 **** 0.0
239 H72807 0.252556923443368 0.182058926807839 0.0544815633718032 H 0.0 **** 0.0
240 H72809 0.267015071883912 0.158422697735385 0.0669964454534739 H 0.0 **** 0.0
241 H72811 0.280662646924142 0.145221468495714 0.0906532581173331 H 0.0 **** 0.0
242 H72813 0.294703840168077 0.160566007625223 0.145366695043618 H 0.0 **** 0.0
243 H72815 0.290739628147462 0.145840084695324 0.119411094855797 H 0.0 **** 0.0
244 H72817 0.260766362962362 0.2404371378949 0.153365581893423 H 0.0 **** 0.0
245 H72819 0.278719428930213 0.234154372897613 0.169264553622554 H 0.0 **** 0.0
246 H72821 0.267250220992823 0.217331200451954 0.178439105902614 H 0.0 **** 0.0
247 H72823 0.2945432996379 0.222285471861676 0.193597101725978 H 0.0 **** 0.0
248 H72825 0.305504297453478 0.220888549142644 0.174191164075117 H 0.0 **** 0.0
249 H72827 0.287502265041392 0.192463232734153 0.193584089094395 H 0.0 **** 0.0
250 H72829 0.308444206334806 0.192447557647152 0.186328290376593 H 0.0 **** 0.0
@<TRIPOS>BOND
1 3 2 1
2 4 3 1
3 5 4 1
4 6 5 1
5 1 2 1
6 1 6 1
7 8 7 1
8 9 8 1
9 10 9 1
10 4 7 1
11 3 10 1
12 12 11 1
13 13 12 1
14 14 13 1
15 8 11 1
16 7 14 1
17 16 15 1
18 17 16 Partial double
19 18 17 1
20 13 15 1
21 12 18 1
22 20 19 Partial double
23 21 20 Partial double
24 22 21 Partial double
25 17 19 Partial double
26 16 22 Partial double
27 24 23 1
28 25 24 1
29 15 25 Double
30 22 23 1
31 27 26 1
32 28 27 Partial double
33 29 28 Partial double
34 21 26 1
35 20 29 Partial double
36 31 30 1
37 32 31 1
38 18 30 1
39 19 32 1
40 34 33 Double
41 35 34 1
42 36 35 1
43 31 33 1
44 30 36 Double
45 38 37 1
46 39 38 1
47 40 39 Double
48 34 37 1
49 33 40 1
50 42 41 1
51 43 42 1
52 44 43 1
53 40 41 1
54 39 44 1
55 46 45 Partial double
56 32 46 1
57 29 45 Partial double
58 48 47 Partial double
59 49 48 1
60 45 49 Partial double
61 28 47 Partial double
62 51 50 Partial double
63 52 51 Partial double
64 53 52 Partial double
65 48 50 Partial double
66 47 53 Partial double
67 55 54 Partial double
68 56 55 Partial double
69 57 56 Partial double
70 52 54 Partial double
71 51 57 Partial double
72 59 58 Partial double
73 60 59 Partial double
74 61 60 Partial double
75 56 58 Partial double
76 55 61 Partial double
77 63 62 Partial double
78 27 63 Partial double
79 53 62 Partial double
80 65 64 Partial double
81 62 65 Partial double
82 54 64 Partial double
83 67 66 Partial double
84 64 67 Partial double
85 61 66 Partial double
86 69 68 Partial double
87 70 69 Partial double
88 66 70 Partial double
89 60 68 Partial double
90 72 71 1
91 73 72 1
92 74 73 1
93 59 71 1
94 58 74 1
95 76 75 1
96 77 76 1
97 78 77 1
98 73 75 1
99 72 78 1
100 80 79 1
101 81 80 1
102 82 81 1
103 78 79 1
104 77 82 1
105 84 83 Partial double
106 85 84 Partial double
107 67 85 Partial double
108 65 83 Partial double
109 87 86 1
110 88 87 1
111 89 88 1
112 84 86 1
113 83 89 1
114 91 90 1
115 92 91 1
116 93 92 1
117 88 90 1
118 87 93 1
119 95 94 Partial double
120 85 95 Partial double
121 70 94 Partial double
122 97 96 Partial double
123 98 97 Partial double
124 94 98 Partial double
125 69 96 Partial double
126 100 99 Partial double
127 101 100 Partial double
128 68 101 Partial double
129 96 99 Partial double
130 103 102 1
131 104 103 Partial double
132 97 102 1
133 99 104 1
134 106 105 1
135 107 106 1
136 100 105 1
137 104 107 Partial double
138 109 108 1
139 110 109 1
140 111 110 1
141 106 108 1
142 105 111 1
143 113 112 1
144 114 113 1
145 103 114 Partial double
146 107 112 Partial double
147 108 115 1
148 112 116 Partial double
149 115 116 Partial double
150 42 117 1
151 117 118 1
152 117 119 1
153 74 120 1
154 122 121 1
155 123 122 Partial double
156 124 123 1
157 114 121 Partial double
158 113 124 Partial double
159 126 125 Partial double
160 127 126 1
161 128 127 Partial double
162 124 125 Partial double
163 123 128 Partial double
164 130 129 Partial double
165 131 130 1
166 132 131 1
167 127 129 Partial double
168 126 132 Partial double
169 134 133 Partial double
170 135 134 Partial double
171 125 135 Partial double
172 132 133 Partial double
173 137 136 Partial double
174 138 137 Partial double
175 131 138 Partial double
176 133 136 Partial double
177 140 139 Partial double
178 134 140 Partial double
179 116 135 Partial double
180 115 139 Partial double
181 142 141 Partial double
182 140 142 Partial double
183 136 141 Partial double
184 144 143 1
185 145 144 1
186 146 145 1
187 142 143 1
188 141 146 1
189 146 147 Double
190 1 148 1
191 1 149 1
192 2 150 1
193 2 151 1
194 3 152 1
195 4 153 1
196 5 154 1
197 5 155 1
198 7 156 1
199 8 157 1
200 9 158 1
201 9 159 1
202 10 160 1
203 10 161 1
204 12 162 1
205 13 163 1
206 14 164 1
207 14 165 1
208 18 166 1
209 23 167 1
210 23 168 1
211 24 169 1
212 24 170 1
213 25 171 1
214 35 173 1
215 35 174 1
216 36 175 1
217 37 176 1
218 37 177 1
219 38 178 1
220 38 179 1
221 41 180 1
222 41 181 1
223 42 182 1
224 43 183 1
225 43 184 1
226 44 185 1
227 44 186 1
228 46 187 1
229 50 188 1
230 57 189 1
231 63 190 1
232 72 191 1
233 73 192 1
234 74 193 1
235 75 194 1
236 75 195 1
237 76 196 1
238 76 197 1
239 77 198 1
240 78 199 1
241 79 200 1
242 79 201 1
243 80 202 1
244 80 203 1
245 81 204 1
246 81 205 1
247 82 206 1
248 87 207 1
249 88 208 1
250 90 209 1
251 90 210 1
252 91 211 1
253 91 212 1
254 92 213 1
255 92 214 1
256 93 215 1
257 93 216 1
258 95 217 1
259 98 218 1
260 101 219 1
261 105 220 1
262 106 221 1
263 108 222 1
264 109 223 1
265 109 224 1
266 110 225 1
267 110 226 1
268 111 227 1
269 111 228 1
270 117 229 1
271 118 230 1
272 118 231 1
273 118 232 1
274 119 233 1
275 119 234 1
276 119 235 1
277 120 236 1
278 121 237 1
279 122 238 1
280 128 239 1
281 129 240 1
282 130 241 1
283 137 242 1
284 138 243 1
285 139 244 1
286 143 245 1
287 143 246 1
288 144 247 1
289 144 248 1
290 145 249 1
291 145 250 1
292 31 172 1
@<TRIPOS>MOLECULE
Sketch 4
250 292
SMALL
USER_CHARGES


@<TRIPOS>ATOM
1 C72832 0.35316926508449 -0.100990583594158 0.631669959810622 C 0.0 **** 0.0
2 C72833 0.350647368403399 -0.113828719201796 0.617007558581957 C 0.0 **** 0.0
3 C72834 0.367373185938713 -0.12319234226355 0.613154242532334 C 0.0 **** 0.0
4 C72835 0.382068875617589 -0.110282736001536 0.613420470482956 C 0.0 **** 0.0
5 C72836 0.38258707582571 -0.101417708529545 0.631015633238151 C 0.0 **** 0.0
6 O72837 0.367990886820603 -0.104815199647649 0.641026721352696 O 0.0 **** 0.0
7 C72844 0.380785488379561 -0.0974571216134607 0.598540872857545 C 0.0 **** 0.0
8 C72845 0.374694468046374 -0.106085440565093 0.581720043536057 C 0.0 **** 0.0
9 C72846 0.376881601051064 -0.12528534728391 0.582301862606078 C 0.0 **** 0.0
10 C72847 0.366860855122221 -0.133695116202487 0.596656547633902 C 0.0 **** 0.0
11 O72853 0.383034848282166 -0.100471690436811 0.566714365202419 O 0.0 **** 0.0
12 C72854 0.385527530251593 -0.0825652273877565 0.566336002274913 C 0.0 **** 0.0
13 C72855 0.399605065847389 -0.0781775491459517 0.578999649129758 C 0.0 **** 0.0
14 C72856 0.397519507716921 -0.0876312431444115 0.596308611114904 C 0.0 **** 0.0
15 C72862 0.402623062902092 -0.0592997714180583 0.580540251198475 C 0.0 **** 0.0
16 C72863 0.388544396210188 -0.047213295347428 0.576084125933883 C 0.0 **** 0.0
17 C72864 0.373495449142655 -0.0532079392529702 0.569271304429487 C 0.0 **** 0.0
18 C72865 0.369452652507035 -0.0721273772448215 0.568877580123181 C 0.0 **** 0.0
19 C72871 0.361271608515096 -0.0417090307727312 0.564162441469984 C 0.0 **** 0.0
20 C72872 0.363257210302862 -0.0247112459823118 0.567964779547741 C 0.0 **** 0.0
21 C72873 0.378098205819898 -0.0187556080788776 0.575174106997395 C 0.0 **** 0.0
22 C72874 0.391063946593479 -0.030036659010416 0.578839111242328 C 0.0 **** 0.0
23 C72880 0.407025334014924 -0.0234619971150187 0.587277076683981 C 0.0 **** 0.0
24 C72881 0.422595434430328 -0.03492887455906 0.584040001622407 C 0.0 **** 0.0
25 C72882 0.418238647281567 -0.0534540113718402 0.584050198549617 C 0.0 **** 0.0
26 O72887 0.380332313550365 -0.00170595489296826 0.57879600982327 O 0.0 **** 0.0
27 C72888 0.366430913215146 0.00890110913604635 0.578973840218915 C 0.0 **** 0.0
28 C72889 0.350903265392428 0.00444120944129416 0.572189956344755 C 0.0 **** 0.0
29 C72890 0.348749942577667 -0.0129885883363393 0.565026027212219 C 0.0 **** 0.0
30 C72896 0.355092982686674 -0.0760728454009293 0.556855448158634 C 0.0 **** 0.0
31 C72897 0.339758319454389 -0.0652108554808326 0.560711928798404 C 0.0 **** 0.0
32 C72898 0.345772457672931 -0.0476816571028437 0.55470235972985 C 0.0 **** 0.0
33 C72903 0.323034633589918 -0.0709002701157057 0.552138229127577 C 0.0 **** 0.0
34 C72904 0.324182900302729 -0.0816653182905607 0.538669882513768 C 0.0 **** 0.0
35 C72905 0.340422993910814 -0.089835320338002 0.532521996896803 C 0.0 **** 0.0
36 C72906 0.355495768912591 -0.0869450890691751 0.543841319296826 C 0.0 **** 0.0
37 C72912 0.309248525977876 -0.088355594116103 0.529100197218259 C 0.0 **** 0.0
38 C72913 0.292623234621487 -0.0791701143823614 0.533052288368319 C 0.0 **** 0.0
39 C72914 0.293067944984798 -0.0694201203725015 0.54932583882046 C 0.0 **** 0.0
40 C72915 0.307551994351841 -0.0657042954621587 0.557983585631523 C 0.0 **** 0.0
41 C72921 0.305698102664226 -0.0553192995155797 0.574427230498168 C 0.0 **** 0.0
42 C72922 0.288021176653402 -0.0559400288893135 0.582003303190324 C 0.0 **** 0.0
43 C72923 0.275276320061438 -0.0507687107588005 0.568316685197822 C 0.0 **** 0.0
44 C72924 0.275472419858494 -0.0636925190349715 0.554044315772607 C 0.0 **** 0.0
45 C72930 0.334354544504347 -0.0182740229608812 0.557333956174326 C 0.0 **** 0.0
46 C72931 0.332285952130194 -0.0344174879818037 0.551917247567361 C 0.0 **** 0.0
47 C72935 0.337280212378075 0.0159547300060595 0.573177310064386 C 0.0 **** 0.0
48 C72936 0.321025550638905 0.0122957610734776 0.56663222585086 C 0.0 **** 0.0
49 S72937 0.317751251915645 -0.00459546479168622 0.55328849829315 S 0.0 **** 0.0
50 C72942 0.307274296954907 0.0222011122465152 0.569925573827047 C 0.0 **** 0.0
51 C72943 0.309524200296768 0.0379086495994402 0.578027709008891 C 0.0 **** 0.0
52 C72944 0.326084167409471 0.0429165989264916 0.582630766387268 C 0.0 **** 0.0
53 C72945 0.339415806422375 0.0314789348635751 0.581728857205728 C 0.0 **** 0.0
54 C72951 0.329008221983079 0.0597943045721766 0.586744966600739 C 0.0 **** 0.0
55 C72952 0.316074393696012 0.0717363006741678 0.585233109456344 C 0.0 **** 0.0
56 C72953 0.299175231798406 0.0667381013787024 0.582353294479824 C 0.0 **** 0.0
57 C72954 0.296197080471033 0.0495268803838803 0.579151049314726 C 0.0 **** 0.0
58 C72960 0.285929640625226 0.0786019350732764 0.581874701632918 C 0.0 **** 0.0
59 C72961 0.289992462768489 0.0955784625833681 0.581763582052683 C 0.0 **** 0.0
60 C72962 0.306991156174084 0.100758401596618 0.58457577966408 C 0.0 **** 0.0
61 C72963 0.31952024503289 0.0886719003145259 0.587687883831069 C 0.0 **** 0.0
62 C72969 0.355175759329265 0.0360295266243644 0.588620983116524 C 0.0 **** 0.0
63 C72970 0.368545548887476 0.0244862495522785 0.586406075724911 C 0.0 **** 0.0
64 C72974 0.344730585106342 0.0645747787259657 0.593215802679722 C 0.0 **** 0.0
65 C72975 0.356997802350498 0.0522349779334628 0.596352466716747 C 0.0 **** 0.0
66 C72979 0.334912600764109 0.0933783941494758 0.595002966341558 C 0.0 **** 0.0
67 C72980 0.34717513842003 0.0811264087422104 0.598325072810255 C 0.0 **** 0.0
68 C72984 0.311312630715023 0.11806247226399 0.586254810838016 C 0.0 **** 0.0
69 C72985 0.325803552014277 0.122393568488168 0.595613166049109 C 0.0 **** 0.0
70 C72986 0.337324048297206 0.110024666271673 0.600217989654075 C 0.0 **** 0.0
71 O72991 0.277688863857842 0.107959390210322 0.579752007613009 O 0.0 **** 0.0
72 C72992 0.261723366265324 0.103149523192962 0.572847343041097 C 0.0 **** 0.0
73 C72993 0.255255176015057 0.0874528829986844 0.582002836827104 C 0.0 **** 0.0
74 C72994 0.26764785460814 0.0728186950956421 0.580301876591539 C 0.0 **** 0.0
75 C73000 0.237133414923002 0.0824911528248244 0.576399081510447 C 0.0 **** 0.0
76 C73001 0.231358417009536 0.0919822681961194 0.560419771452038 C 0.0 **** 0.0
77 C73002 0.245172452258525 0.092851382174272 0.546779152370699 C 0.0 **** 0.0
78 C73003 0.262051072333516 0.101092265262635 0.553360667730091 C 0.0 **** 0.0
79 C73009 0.266493688367412 0.117663094015384 0.544089987606787 C 0.0 **** 0.0
80 C73010 0.264962045623483 0.115986897508626 0.524667303406594 C 0.0 **** 0.0
81 C73011 0.251387563428425 0.10310342714242 0.518799741384305 C 0.0 **** 0.0
82 N73012 0.238301329759704 0.100378006941134 0.531378740726538 N 0.0 **** 0.0
83 C73018 0.370575714343359 0.0559650224142334 0.607423245973067 C 0.0 **** 0.0
84 C73019 0.37305676541266 0.0724370189198311 0.612926505184917 C 0.0 **** 0.0
85 C73020 0.361337373663335 0.0851577926268302 0.608266301053622 C 0.0 **** 0.0
86 O73025 0.386623380763205 0.0768881184727869 0.623104182817763 O 0.0 **** 0.0
87 C73026 0.40036632706512 0.0652124650690054 0.621844701001696 C 0.0 **** 0.0
88 C73027 0.394194371142101 0.0474195352985687 0.624247318504597 C 0.0 **** 0.0
89 O73028 0.381312507194164 0.0430582149084228 0.612413764928973 O 0.0 **** 0.0
90 C73034 0.388553203900258 0.0442034004876955 0.642579742675264 C 0.0 **** 0.0
91 C73035 0.40274526627648 0.0479708158155722 0.655574783898266 C 0.0 **** 0.0
92 C73036 0.41859200857953 0.0557421613334727 0.647336933175065 C 0.0 **** 0.0
93 C73037 0.413913533627358 0.0701111832386032 0.635054706224793 C 0.0 **** 0.0
94 C73043 0.351835130799258 0.114606343510788 0.609663408554887 C 0.0 **** 0.0
95 C73044 0.363521206440779 0.101851507224051 0.613963130933561 C 0.0 **** 0.0
96 C73048 0.329346199455701 0.139423321493105 0.598702356691888 C 0.0 **** 0.0
97 C73049 0.343472811158458 0.144167419208117 0.608574676713706 C 0.0 **** 0.0
98 C73050 0.35450723521192 0.131837026940507 0.613891641024108 C 0.0 **** 0.0
99 C73055 0.319953172696028 0.152191935240896 0.590603352164942 C 0.0 **** 0.0
100 C73056 0.306580996871454 0.148106549569212 0.580111653224302 C 0.0 **** 0.0
101 C73057 0.302477265062526 0.131346615881238 0.578258812267253 C 0.0 **** 0.0
102 O73062 0.346155867501908 0.160909799540688 0.612943384242462 O 0.0 **** 0.0
103 C73063 0.339777521676894 0.173230982332015 0.602262441789889 C 0.0 **** 0.0
104 C73064 0.326391530749759 0.169865202110948 0.591825246127309 C 0.0 **** 0.0
105 C73069 0.296502347141684 0.160922711966294 0.570057011902769 C 0.0 **** 0.0
106 C73070 0.306137507028957 0.178344036825867 0.568301333897691 C 0.0 **** 0.0
107 C73071 0.320084428368664 0.181906183874671 0.581190308729043 C 0.0 **** 0.0
108 C73076 0.293674708023033 0.193374958078599 0.567729706750964 C 0.0 **** 0.0
109 C73077 0.278167330969761 0.188964175655379 0.55688367865161 C 0.0 **** 0.0
110 C73078 0.267853792643748 0.174525519655135 0.565256528816934 C 0.0 **** 0.0
111 C73079 0.278634181574097 0.163383048296772 0.577179761981542 C 0.0 **** 0.0
112 C73085 0.326950711715748 0.197689521815831 0.581303558661135 C 0.0 **** 0.0
113 C73086 0.340777194048827 0.201015514456368 0.591230528751958 C 0.0 **** 0.0
114 C73087 0.347021914277699 0.188949848017399 0.601899840537569 C 0.0 **** 0.0
115 C73092 0.303819808044743 0.2088367810431 0.56221846475549 C 0.0 **** 0.0
116 C73094 0.319654620837509 0.210834354654453 0.569555872861701 C 0.0 **** 0.0
117 C73097 0.286673249180454 -0.0455392012503994 0.598528745798115 C 0.0 **** 0.0
118 C73099 0.28854884668656 -0.0263753937948487 0.596096665154637 C 0.0 **** 0.0
119 C73101 0.270062658862092 -0.0490536198397152 0.607862993771169 C 0.0 **** 0.0
120 O73103 0.2637158509084 0.0613356302854018 0.593662350083426 O 0.0 **** 0.0
121 C73105 0.360632956225563 0.192615484761391 0.611947835481268 C 0.0 **** 0.0
122 C73106 0.368157054272238 0.20810029239443 0.611146410883386 C 0.0 **** 0.0
123 C73107 0.362342015331633 0.220020877477011 0.600088213426775 C 0.0 **** 0.0
124 C73108 0.348624073343447 0.216375045794602 0.590199302787493 C 0.0 **** 0.0
125 C73114 0.34271517786612 0.229050539229625 0.577697788687388 C 0.0 **** 0.0
126 C73115 0.351125565163716 0.244065779394947 0.576468194870438 C 0.0 **** 0.0
127 C73116 0.365605225356522 0.247463100755107 0.587770042346947 C 0.0 **** 0.0
128 C73117 0.37060149591591 0.235342624471311 0.599116959589698 C 0.0 **** 0.0
129 C73123 0.373886721758832 0.26260928076971 0.586492061574782 C 0.0 **** 0.0
130 C73124 0.369401540635272 0.274356622753692 0.574532814244978 C 0.0 **** 0.0
131 C73125 0.356126674483231 0.271708861241697 0.56371981652783 C 0.0 **** 0.0
132 C73126 0.346224793755482 0.255898590652142 0.564842236192872 C 0.0 **** 0.0
133 C73132 0.332154831613811 0.253220884363459 0.554340180781443 C 0.0 **** 0.0
134 C73133 0.323113303371393 0.238162666582396 0.556026818575375 C 0.0 **** 0.0
135 C73134 0.328710413176636 0.225792414204714 0.567371299107298 C 0.0 **** 0.0
136 C73139 0.326782388928449 0.265581591524642 0.542881210963302 C 0.0 **** 0.0
137 C73140 0.338190341758259 0.281041607416648 0.541701628333524 C 0.0 **** 0.0
138 C73141 0.351933422641788 0.283489384661732 0.55187186188611 C 0.0 **** 0.0
139 C73146 0.298177008789823 0.221245508493711 0.551330908866169 C 0.0 **** 0.0
140 C73147 0.3078855909955 0.235852868956736 0.547228470414572 C 0.0 **** 0.0
141 C73152 0.311925458982148 0.263128214850121 0.533653448017823 C 0.0 **** 0.0
142 C73153 0.302586421113959 0.248256832024434 0.535517525916693 C 0.0 **** 0.0
143 C73157 0.286254552461961 0.245538112794523 0.525590546425179 C 0.0 **** 0.0
144 C73158 0.287668490289129 0.252977613373544 0.507807091556447 C 0.0 **** 0.0
145 C73159 0.291862827719325 0.271533708775805 0.509306945637729 C 0.0 **** 0.0
146 C73160 0.305545728548162 0.276389516241037 0.521594826963055 C 0.0 **** 0.0
147 O73166 0.310237386997208 0.290988768478371 0.521213136704523 O 0.0 **** 0.0
148 H73168 0.342626481184011 -0.101421131206709 0.640703116358725 H 0.0 **** 0.0
149 H73170 0.353640055971319 -0.0879152237286615 0.626816220781617 H 0.0 **** 0.0
150 H73172 0.340849411187962 -0.123220630508087 0.620067098888504 H 0.0 **** 0.0
151 H73174 0.346056464488151 -0.10729399861734 0.605592870833148 H 0.0 **** 0.0
152 H73176 0.369453366759733 -0.132016965031231 0.623801322841696 H 0.0 **** 0.0
153 H73178 0.393864924695389 -0.117441946896091 0.61150899655922 H 0.0 **** 0.0
154 H73180 0.3844057323716 -0.0876442180786513 0.629749599261607 H 0.0 **** 0.0
155 H73182 0.393289351287439 -0.106078493844477 0.638521157098291 H 0.0 **** 0.0
156 H73184 0.371163293029029 -0.0880771900168407 0.602270400913993 H 0.0 **** 0.0
157 H73186 0.361010624546829 -0.103614732988308 0.580347760966395 H 0.0 **** 0.0
158 H73188 0.390478487951969 -0.128019111926632 0.583759268985936 H 0.0 **** 0.0
159 H73190 0.373130467939275 -0.130551137678744 0.569962387244182 H 0.0 **** 0.0
160 H73192 0.37199416032126 -0.146441489707984 0.598949874045521 H 0.0 **** 0.0
161 H73194 0.353646160237455 -0.135600211701387 0.592660850050138 H 0.0 **** 0.0
162 H73196 0.390372958768411 -0.0798479523665337 0.553610141147293 H 0.0 **** 0.0
163 H73198 0.411287563384048 -0.0833582937132522 0.573371690416236 H 0.0 **** 0.0
164 H73200 0.399632676653424 -0.0791945049675452 0.607187160859155 H 0.0 **** 0.0
165 H73202 0.40780327050287 -0.0969777581070181 0.596804359117967 H 0.0 **** 0.0
166 H73204 0.364334681382316 -0.0750399346730213 0.5815365618854 H 0.0 **** 0.0
167 H73206 0.409923304807186 -0.0105461312186083 0.582968752129128 H 0.0 **** 0.0
168 H73208 0.404787580450483 -0.0226107175815754 0.601025762461483 H 0.0 **** 0.0
169 H73210 0.432367366195991 -0.032396548191113 0.593688882660882 H 0.0 **** 0.0
170 H73212 0.428362832665812 -0.0317822602250044 0.571765517422176 H 0.0 **** 0.0
171 H73214 0.428834970556467 -0.0619847514639997 0.586135085883035 H 0.0 **** 0.0
172 H73216 0.338002651332083 -0.0650341191855834 0.574528071074717 H 0.0 **** 0.0
173 H73217 0.343276019728822 -0.0854760741574689 0.519579929783771 H 0.0 **** 0.0
174 H73219 0.33829493991194 -0.103638589933512 0.53165335643255 H 0.0 **** 0.0
175 H73221 0.366845938628826 -0.0942301829352338 0.54101139011154 H 0.0 **** 0.0
176 H73223 0.31181102183253 -0.0874671666334124 0.515407979642459 H 0.0 **** 0.0
177 H73225 0.307901209605166 -0.101914545796632 0.53209715823329 H 0.0 **** 0.0
178 H73227 0.282228964568331 -0.0884708451809856 0.533461352774967 H 0.0 **** 0.0
179 H73229 0.289637719345336 -0.0702764336723659 0.522724715943807 H 0.0 **** 0.0
180 H73231 0.314778630166649 -0.059798501677416 0.583969591736243 H 0.0 **** 0.0
181 H73233 0.308904759618064 -0.0420577628881965 0.571831159093928 H 0.0 **** 0.0
182 H73235 0.285251660309914 -0.0692199514620619 0.585382188460229 H 0.0 **** 0.0
183 H73237 0.278639697204248 -0.0381523156431208 0.563447714425019 H 0.0 **** 0.0
184 H73239 0.262410625585111 -0.0498291841702991 0.573518609361147 H 0.0 **** 0.0
185 H73241 0.269136078563896 -0.0586001458742879 0.542702032189993 H 0.0 **** 0.0
186 H73243 0.268198265638299 -0.0749468368306472 0.557962468527728 H 0.0 **** 0.0
187 H73245 0.320941053144379 -0.0380739442766144 0.545040100146985 H 0.0 **** 0.0
188 H73247 0.294761261536199 0.0188652963756864 0.565075908205148 H 0.0 **** 0.0
189 H73249 0.283598288031501 0.0451869087005286 0.57537443373957 H 0.0 **** 0.0
190 H73251 0.381475888419741 0.027380599517508 0.590459490329844 H 0.0 **** 0.0
191 H73253 0.252987308843502 0.113644145641344 0.575782548150642 H 0.0 **** 0.0
192 H73255 0.255077911230212 0.0905936654825848 0.595605075399127 H 0.0 **** 0.0
193 H73257 0.26588003645035 0.0664896088454756 0.567968538696032 H 0.0 **** 0.0
194 H73259 0.236501005569126 0.068772398029988 0.573972246540327 H 0.0 **** 0.0
195 H73261 0.228059925256748 0.0848548181721918 0.586696075127482 H 0.0 **** 0.0
196 H73263 0.227514565015826 0.104953370509936 0.563816862915629 H 0.0 **** 0.0
197 H73265 0.220002754649582 0.0858453985230337 0.555115236749618 H 0.0 **** 0.0
198 H73267 0.248154437551235 0.0795953249653732 0.543570628558561 H 0.0 **** 0.0
199 H73269 0.272375411427418 0.092208279526479 0.550442870829535 H 0.0 **** 0.0
200 H73271 0.257711668245158 0.127613675036603 0.548377206541871 H 0.0 **** 0.0
201 H73273 0.279285628079838 0.121955509294083 0.547457390610071 H 0.0 **** 0.0
202 H73275 0.277224889191824 0.112306986749423 0.519179255527808 H 0.0 **** 0.0
203 H73277 0.262209326099744 0.128588090403036 0.519372753771418 H 0.0 **** 0.0
204 H73279 0.25736011907187 0.0908073847895798 0.516203630575611 H 0.0 **** 0.0
205 H73281 0.245714490984478 0.107094785142328 0.506708178984198 H 0.0 **** 0.0
206 H73283 0.232597434231984 0.111371072183174 0.534121304712958 H 0.0 **** 0.0
207 H73285 0.405617875822803 0.0662678812431132 0.608982497788524 H 0.0 **** 0.0
208 H73287 0.404873825700064 0.0388430053528257 0.621564976093759 H 0.0 **** 0.0
209 H73289 0.377394238997076 0.0521225623127336 0.645196969321442 H 0.0 **** 0.0
210 H73291 0.384189058544795 0.0310281925594377 0.64369361101025 H 0.0 **** 0.0
211 H73293 0.406233322586401 0.0363819330314445 0.662472187542726 H 0.0 **** 0.0
212 H73295 0.397950234613298 0.056786756712406 0.665207758324653 H 0.0 **** 0.0
213 H73297 0.425580987177735 0.0458232905944206 0.640461970182449 H 0.0 **** 0.0
214 H73299 0.427257842541227 0.0605126815277584 0.657174142408893 H 0.0 **** 0.0
215 H73301 0.42544130986614 0.0752925002416314 0.629211620697457 H 0.0 **** 0.0
216 H73303 0.408443281035334 0.0804058766290318 0.642590176446538 H 0.0 **** 0.0
217 H73305 0.37476907349629 0.105213638226339 0.62137871624555 H 0.0 **** 0.0
218 H73307 0.365806617639681 0.135344724944712 0.621186177796161 H 0.0 **** 0.0
219 H73309 0.292045512642059 0.128608423168608 0.569608608257231 H 0.0 **** 0.0
220 H73311 0.295041137083392 0.156022258094773 0.557054150705066 H 0.0 **** 0.0
221 H73313 0.312507918274114 0.177733493808814 0.555875029501385 H 0.0 **** 0.0
222 H73315 0.288993478367403 0.195883291890274 0.580681732529231 H 0.0 **** 0.0
223 H73317 0.28253990548929 0.184970275321603 0.544266580014273 H 0.0 **** 0.0
224 H73319 0.269823553166899 0.199922855796128 0.554935959811703 H 0.0 **** 0.0
225 H73321 0.262132239734926 0.166551750918632 0.555366430509437 H 0.0 **** 0.0
226 H73323 0.257208622843415 0.179934333216472 0.572441480635329 H 0.0 **** 0.0
227 H73325 0.272245712889824 0.1511604889313 0.579221547299191 H 0.0 **** 0.0
228 H73327 0.279577790475396 0.169435508901218 0.589707304672232 H 0.0 **** 0.0
229 H73329 0.297062050856747 -0.0497285727587736 0.606904914121028 H 0.0 **** 0.0
230 H73331 0.288072070619951 -0.0198925454049236 0.608417867297298 H 0.0 **** 0.0
231 H73333 0.278214074470725 -0.0212687332093436 0.588301203073956 H 0.0 **** 0.0
232 H73335 0.300587512552626 -0.022883841410533 0.590071154195337 H 0.0 **** 0.0
233 H73337 0.268155767639955 -0.0625945759950002 0.610327605036567 H 0.0 **** 0.0
234 H73339 0.259253699549825 -0.0446542988482131 0.600356523642956 H 0.0 **** 0.0
235 H73341 0.269723547787021 -0.0424544404577609 0.620117274520409 H 0.0 **** 0.0
236 H73343 0.273880330794276 0.0555427296053808 0.59637512114794 H 0.0 **** 0.0
237 H73345 0.365815117506347 0.18327245615915 0.620681507087432 H 0.0 **** 0.0
238 H73347 0.379029571933383 0.210573289887236 0.61927812802562 H 0.0 **** 0.0
239 H73349 0.381436561696059 0.237697464672481 0.607273856630977 H 0.0 **** 0.0
240 H73351 0.384493968796908 0.265539353370189 0.594815546887461 H 0.0 **** 0.0
241 H73353 0.376686078683956 0.286054742265006 0.573866683755927 H 0.0 **** 0.0
242 H73355 0.335549391373787 0.290783912034436 0.532401164371397 H 0.0 **** 0.0
243 H73357 0.359271061813326 0.29505727443814 0.550343363047297 H 0.0 **** 0.0
244 H73359 0.285702773387885 0.219396375841608 0.545614406215881 H 0.0 **** 0.0
245 H73361 0.283210329190038 0.232051038279859 0.524271139188998 H 0.0 **** 0.0
246 H73363 0.275530140661304 0.251404911174832 0.532364747821119 H 0.0 **** 0.0
247 H73365 0.275799437212754 0.251344285989449 0.500708055745785 H 0.0 **** 0.0
248 H73367 0.297593411166367 0.246192793678613 0.500743257985198 H 0.0 **** 0.0
249 H73369 0.28095260316026 0.278958634003786 0.513778895622011 H 0.0 **** 0.0
250 H73371 0.296160401494759 0.277652015129722 0.497587385308172 H 0.0 **** 0.0
@<TRIPOS>BOND
1 3 2 1
2 4 3 1
3 5 4 1
4 6 5 1
5 1 2 1
6 1 6 1
7 8 7 1
8 9 8 1
9 10 9 1
10 4 7 1
11 3 10 1
12 12 11 1
13 13 12 1
14 14 13 1
15 8 11 1
16 7 14 1
17 16 15 1
18 17 16 Partial double
19 18 17 1
20 13 15 1
21 12 18 1
22 20 19 Partial double
23 21 20 Partial double
24 22 21 Partial double
25 17 19 Partial double
26 16 22 Partial double
27 24 23 1
28 25 24 1
29 15 25 Double
30 22 23 1
31 27 26 1
32 28 27 Partial double
33 29 28 Partial double
34 21 26 1
35 20 29 Partial double
36 31 30 1
37 32 31 1
38 18 30 1
39 19 32 1
40 34 33 Double
41 35 34 1
42 36 35 1
43 31 33 1
44 30 36 Double
45 38 37 1
46 39 38 1
47 40 39 Double
48 34 37 1
49 33 40 1
50 42 41 1
51 43 42 1
52 44 43 1
53 40 41 1
54 39 44 1
55 46 45 Partial double
56 32 46 1
57 29 45 Partial double
58 48 47 Partial double
59 49 48 1
60 45 49 Partial double
61 28 47 Partial double
62 51 50 Partial double
63 52 51 Partial double
64 53 52 Partial double
65 48 50 Partial double
66 47 53 Partial double
67 55 54 Partial double
68 56 55 Partial double
69 57 56 Partial double
70 52 54 Partial double
71 51 57 Partial double
72 59 58 Partial double
73 60 59 Partial double
74 61 60 Partial double
75 56 58 Partial double
76 55 61 Partial double
77 63 62 Partial double
78 27 63 Partial double
79 53 62 Partial double
80 65 64 Partial double
81 62 65 Partial double
82 54 64 Partial double
83 67 66 Partial double
84 64 67 Partial double
85 61 66 Partial double
86 69 68 Partial double
87 70 69 Partial double
88 66 70 Partial double
89 60 68 Partial double
90 72 71 1
91 73 72 1
92 74 73 1
93 59 71 1
94 58 74 1
95 76 75 1
96 77 76 1
97 78 77 1
98 73 75 1
99 72 78 1
100 80 79 1
101 81 80 1
102 82 81 1
103 78 79 1
104 77 82 1
105 84 83 Partial double
106 85 84 Partial double
107 67 85 Partial double
108 65 83 Partial double
109 87 86 1
110 88 87 1
111 89 88 1
112 84 86 1
113 83 89 1
114 91 90 1
115 92 91 1
116 93 92 1
117 88 90 1
118 87 93 1
119 95 94 Partial double
120 85 95 Partial double
121 70 94 Partial double
122 97 96 Partial double
123 98 97 Partial double
124 94 98 Partial double
125 69 96 Partial double
126 100 99 Partial double
127 101 100 Partial double
128 68 101 Partial double
129 96 99 Partial double
130 103 102 1
131 104 103 Partial double
132 97 102 1
133 99 104 1
134 106 105 1
135 107 106 1
136 100 105 1
137 104 107 Partial double
138 109 108 1
139 110 109 1
140 111 110 1
141 106 108 1
142 105 111 1
143 113 112 1
144 114 113 1
145 103 114 Partial double
146 107 112 Partial double
147 108 115 1
148 112 116 Partial double
149 115 116 Partial double
150 42 117 1
151 117 118 1
152 117 119 1
153 74 120 1
154 122 121 1
155 123 122 Partial double
156 124 123 1
157 114 121 Partial double
158 113 124 Partial double
159 126 125 Partial double
160 127 126 1
161 128 127 Partial double
162 124 125 Partial double
163 123 128 Partial double
164 130 129 Partial double
165 131 130 1
166 132 131 1
167 127 129 Partial double
168 126 132 Partial double
169 134 133 Partial double
170 135 134 Partial double
171 125 135 Partial double
172 132 133 Partial double
173 137 136 Partial double
174 138 137 Partial double
175 131 138 Partial double
176 133 136 Partial double
177 140 139 Partial double
178 134 140 Partial double
179 116 135 Partial double
180 115 139 Partial double
181 142 141 Partial double
182 140 142 Partial double
183 136 141 Partial double
184 144 143 1
185 145 144 1
186 146 145 1
187 142 143 1
188 141 146 1
189 146 147 Double
190 1 148 1
191 1 149 1
192 2 150 1
193 2 151 1
194 3 152 1
195 4 153 1
196 5 154 1
197 5 155 1
198 7 156 1
199 8 157 1
200 9 158 1
201 9 159 1
202 10 160 1
203 10 161 1
204 12 162 1
205 13 163 1
206 14 164 1
207 14 165 1
208 18 166 1
209 23 167 1
210 23 168 1
211 24 169 1
212 24 170 1
213 25 171 1
214 35 173 1
215 35 174 1
216 36 175 1
217 37 176 1
218 37 177 1
219 38 178 1
220 38 179 1
221 41 180 1
222 41 181 1
223 42 182 1
224 43 183 1
225 43 184 1
226 44 185 1
227 44 186 1
228 46 187 1
229 50 188 1
230 57 189 1
231 63 190 1
232 72 191 1
233 73 192 1
234 74 193 1
235 75 194 1
236 75 195 1
237 76 196 1
238 76 197 1
239 77 198 1
240 78 199 1
241 79 200 1
242 79 201 1
243 80 202 1
244 80 203 1
245 81 204 1
246 81 205 1
247 82 206 1
248 87 207 1
249 88 208 1
250 90 209 1
251 90 210 1
252 91 211 1
253 91 212 1
254 92 213 1
255 92 214 1
256 93 215 1
257 93 216 1
258 95 217 1
259 98 218 1
260 101 219 1
261 105 220 1
262 106 221 1
263 108 222 1
264 109 223 1
265 109 224 1
266 110 225 1
267 110 226 1
268 111 227 1
269 111 228 1
270 117 229 1
271 118 230 1
272 118 231 1
273 118 232 1
274 119 233 1
275 119 234 1
276 119 235 1
277 120 236 1
278 121 237 1
279 122 238 1
280 128 239 1
281 129 240 1
282 130 241 1
283 137 242 1
284 138 243 1
285 139 244 1
286 143 245 1
287 143 246 1
288 144 247 1
289 144 248 1
290 145 249 1
291 145 250 1
292 31 172 1
@<TRIPOS>MOLECULE
Sketch 4
250 292
SMALL
USER_CHARGES


@<TRIPOS>ATOM
1 C73374 0.335041751095305 1.00259324653846 0.967525460642251 C 0.0 **** 0.0
2 C73375 0.341223937842734 1.00920249734624 0.98497172589151 C 0.0 **** 0.0
3 C73376 0.352529786731486 1.02502705825867 0.982858983669135 C 0.0 **** 0.0
4 C73377 0.364581687825538 1.02256449325527 0.967614946608639 C 0.0 **** 0.0
5 C73378 0.354249651463042 1.01788052480851 0.951469942839192 C 0.0 **** 0.0
6 O73379 0.336779929606628 1.01511930535317 0.954794059561664 O 0.0 **** 0.0
7 C73386 0.378386870157831 1.00904170685872 0.971106535762244 C 0.0 **** 0.0
8 C73387 0.38400056141879 1.00814149450842 0.989994034206662 C 0.0 **** 0.0
9 C73388 0.380794353991552 1.0249725163741 0.998937978602101 C 0.0 **** 0.0
10 C73389 0.36201558142471 1.03004197060724 0.999261050315235 C 0.0 **** 0.0
11 O73395 0.401563634219525 1.00455157881611 0.991980808009138 O 0.0 **** 0.0
12 C73396 0.407663410113811 0.991568646397134 0.980943184477907 C 0.0 **** 0.0
13 C73397 0.408243226367763 0.998602767637905 0.962585986500651 C 0.0 **** 0.0
14 C73398 0.393932236663908 1.01202116656329 0.959828405252877 C 0.0 **** 0.0
15 C73404 0.408805573181435 0.985257041013503 0.948818309761446 C 0.0 **** 0.0
16 C73405 0.409674632888378 0.966877894463972 0.953744836737311 C 0.0 **** 0.0
17 C73406 0.405477815737825 0.961786865734537 0.970008984609409 C 0.0 **** 0.0
18 C73407 0.398456739670633 0.974557332746938 0.982767225838888 C 0.0 **** 0.0
19 C73413 0.406656124932826 0.944732580435681 0.974077673647409 C 0.0 **** 0.0
20 C73414 0.410654591757245 0.93302584304139 0.961630176909336 C 0.0 **** 0.0
21 C73415 0.414724078236638 0.93818783045039 0.945392105881539 C 0.0 **** 0.0
22 C73416 0.414599850235567 0.955270733976952 0.941523332762789 C 0.0 **** 0.0
23 C73422 0.41989628039707 0.960860993086299 0.924011559101569 C 0.0 **** 0.0
24 C73423 0.409836725025608 0.976620599114542 0.918532579967498 C 0.0 **** 0.0
25 C73424 0.409163639282509 0.989699535037997 0.932375580069372 C 0.0 **** 0.0
26 O73429 0.418958342945733 0.926766471605603 0.932781324091488 O 0.0 **** 0.0
27 C73430 0.42026076949738 0.90978825422371 0.936514050457736 C 0.0 **** 0.0
28 C73431 0.415571386123164 0.902926682638834 0.951940019386368 C 0.0 **** 0.0
29 C73432 0.409886452385494 0.914605933605759 0.965731678634223 C 0.0 **** 0.0
30 C73438 0.39859980835651 0.967131488244212 1.00046261199929 C 0.0 **** 0.0
31 C73439 0.390333872481266 0.9498467258179 1.00093575544266 C 0.0 **** 0.0
32 C73440 0.403625933390094 0.938780135037536 0.991962348404935 C 0.0 **** 0.0
33 C73445 0.386544287165771 0.942699424499176 1.01873431208972 C 0.0 **** 0.0
34 C73446 0.395718905238877 0.948910318335008 1.03194465643147 C 0.0 **** 0.0
35 C73447 0.40705188976845 0.964342647360913 1.03078492890967 C 0.0 **** 0.0
36 C73448 0.406279175403338 0.973625518706789 1.01411618165023 C 0.0 **** 0.0
37 C73454 0.394640694140432 0.942138253819545 1.04960095757412 C 0.0 **** 0.0
38 C73455 0.384864098415607 0.925378852824599 1.05099127232918 C 0.0 **** 0.0
39 C73456 0.373304737202098 0.922102313828956 1.03627227749353 C 0.0 **** 0.0
40 C73457 0.374567791454059 0.930444408751517 1.02121512014964 C 0.0 **** 0.0
41 C73463 0.362355214685164 0.925199726738693 1.00700212263053 C 0.0 **** 0.0
42 C73464 0.346446897037463 0.916508706728355 1.01338974576088 C 0.0 **** 0.0
43 C73465 0.351696182140307 0.901359884375562 1.02439084445309 C 0.0 **** 0.0
44 C73466 0.361535396544938 0.907459283381884 1.03985410176115 C 0.0 **** 0.0
45 C73472 0.404695521725364 0.908986230455514 0.981073370425324 C 0.0 **** 0.0
46 C73473 0.401558585287855 0.919783278883267 0.994012548206232 C 0.0 **** 0.0
47 C73477 0.418285881436656 0.885453572296765 0.955009872006 C 0.0 **** 0.0
48 C73478 0.415059635910067 0.877975419996045 0.970872446635657 C 0.0 **** 0.0
49 S73479 0.401256385679192 0.887589934613908 0.984722184745879 S 0.0 **** 0.0
50 C73484 0.422861162896188 0.863378466873225 0.975936256253886 C 0.0 **** 0.0
51 C73485 0.433561516502473 0.854831501926333 0.964488526080978 C 0.0 **** 0.0
52 C73486 0.435180510616108 0.860836080306576 0.947697791439694 C 0.0 **** 0.0
53 C73487 0.426947983486282 0.875732332373973 0.942923897471792 C 0.0 **** 0.0
54 C73493 0.44559419957482 0.852158018576618 0.936416074925367 C 0.0 **** 0.0
55 C73494 0.455302453501756 0.838323726955554 0.941773782706604 C 0.0 **** 0.0
56 C73495 0.455132650190898 0.83333695657115 0.958965604262594 C 0.0 **** 0.0
57 C73496 0.442988518036592 0.840733681378139 0.969588213318957 C 0.0 **** 0.0
58 C73502 0.466685733138316 0.821235025905499 0.964684212407326 C 0.0 **** 0.0
59 C73503 0.475365916040375 0.811631898427072 0.952909777224832 C 0.0 **** 0.0
60 C73504 0.474762630632989 0.815397541595513 0.935449668060618 C 0.0 **** 0.0
61 C73505 0.465363077705792 0.829538656322233 0.930307652956021 C 0.0 **** 0.0
62 C73511 0.429380845279996 0.882065167694046 0.926583136556343 C 0.0 **** 0.0
63 C73512 0.426472161981523 0.899476595680485 0.923990036497208 C 0.0 **** 0.0
64 C73516 0.446388336451029 0.857486099644289 0.919652898483799 C 0.0 **** 0.0
65 C73517 0.437030796173641 0.871540163914531 0.914279420638185 C 0.0 **** 0.0
66 C73521 0.466331179994854 0.83518374405812 0.91361804379372 C 0.0 **** 0.0
67 C73522 0.456625633889408 0.848965330324717 0.908339246242817 C 0.0 **** 0.0
68 C73526 0.484211298748237 0.806094629734432 0.923176185431844 C 0.0 **** 0.0
69 C73527 0.486051820998001 0.812900517499516 0.90682879368721 C 0.0 **** 0.0
70 C73528 0.47713881780804 0.827237326098071 0.902208473299678 C 0.0 **** 0.0
71 O73533 0.485242719501345 0.798489635025098 0.959119175489627 O 0.0 **** 0.0
72 C73534 0.476175385306659 0.787354362539802 0.970301983958172 C 0.0 **** 0.0
73 C73535 0.464364285618552 0.797138794582721 0.982821809104656 C 0.0 **** 0.0
74 C73536 0.47008558528961 0.815599140958014 0.982764796461878 C 0.0 **** 0.0
75 C73542 0.463394341158967 0.788837825093099 1.00046309125968 C 0.0 **** 0.0
76 C73543 0.462890860073442 0.76966381071709 0.998218868807603 C 0.0 **** 0.0
77 C73544 0.480248540880038 0.763423754644825 0.992020291101557 C 0.0 **** 0.0
78 C73545 0.48905996888808 0.776384155441559 0.980036494515749 C 0.0 **** 0.0
79 C73551 0.502430118694723 0.767919532139164 0.96858621180823 C 0.0 **** 0.0
80 C73552 0.50990839203186 0.752756592011627 0.97798601007321 C 0.0 **** 0.0
81 C73553 0.496252880493565 0.739161857493457 0.981617794792143 C 0.0 **** 0.0
82 N73554 0.479406911926695 0.746360984897654 0.985282807090645 N 0.0 **** 0.0
83 C73560 0.435771280595703 0.875515930451972 0.896912011587645 C 0.0 **** 0.0
84 C73561 0.446360376970727 0.867461073791129 0.885540446034476 C 0.0 **** 0.0
85 C73562 0.457206106585215 0.854542617033023 0.891472632289615 C 0.0 **** 0.0
86 O73567 0.446753049928715 0.871534336256321 0.8684989518418 O 0.0 **** 0.0
87 C73568 0.439230790080446 0.887614647661006 0.865164156953059 C 0.0 **** 0.0
88 C73569 0.422397435757638 0.888730990683597 0.873810801959518 C 0.0 **** 0.0
89 O73570 0.424338593708059 0.887779238223107 0.891705528490216 O 0.0 **** 0.0
90 C73576 0.409831004188496 0.875134885519516 0.867386791811351 C 0.0 **** 0.0
91 C73577 0.41325005044818 0.869617182285542 0.848959009015128 C 0.0 **** 0.0
92 C73578 0.420464772992071 0.884382302068595 0.838743104908157 C 0.0 **** 0.0
93 C73579 0.437803598408508 0.889915691036272 0.84588621264889 C 0.0 **** 0.0
94 C73585 0.478713619053978 0.833444644720406 0.88547290418168 C 0.0 **** 0.0
95 C73586 0.468611004620796 0.847064206883204 0.880223616392229 C 0.0 **** 0.0
96 C73590 0.496764292966147 0.804933728287864 0.895131535238583 C 0.0 **** 0.0
97 C73591 0.498587890472769 0.811295690790811 0.878520100481098 C 0.0 **** 0.0
98 C73592 0.489688085149836 0.825407465753822 0.873954732590642 C 0.0 **** 0.0
99 C73597 0.505813161796415 0.790300793953586 0.89951931564841 C 0.0 **** 0.0
100 C73598 0.503507988084148 0.782939037515857 0.915168145079848 C 0.0 **** 0.0
101 C73599 0.492470948247423 0.790581207909408 0.926259059962148 C 0.0 **** 0.0
102 O73604 0.508444681008995 0.803441039383224 0.866477214302508 O 0.0 **** 0.0
103 C73605 0.519144845844314 0.790593902938736 0.871357142586492 C 0.0 **** 0.0
104 C73606 0.518082671118027 0.783303765199243 0.886980513033404 C 0.0 **** 0.0
105 C73611 0.513011690556366 0.767276961397805 0.920958818180316 C 0.0 **** 0.0
106 C73612 0.52859314023427 0.762584711168662 0.9091040827333 C 0.0 **** 0.0
107 C73613 0.528603247295631 0.77034632945399 0.89141592986436 C 0.0 **** 0.0
108 C73618 0.530764987180845 0.743216631862844 0.907802396213214 C 0.0 **** 0.0
109 C73619 0.528637307380933 0.734976384802077 0.925261185057987 C 0.0 **** 0.0
110 C73620 0.510121413302088 0.736969464962312 0.931278752072744 C 0.0 **** 0.0
111 C73621 0.501089571336467 0.752131653973542 0.922909995630125 C 0.0 **** 0.0
112 C73627 0.53991799893615 0.764288996490423 0.879850115674529 C 0.0 **** 0.0
113 C73628 0.541556358637484 0.7721365827556 0.864462154171358 C 0.0 **** 0.0
114 C73629 0.531119457161156 0.785161375643948 0.860177059213339 C 0.0 **** 0.0
115 C73634 0.54722940338768 0.739377286953049 0.898458377163139 C 0.0 **** 0.0
116 C73636 0.55093549576261 0.749410696343271 0.884560523191819 C 0.0 **** 0.0
117 C73639 0.334303912428313 0.912278415795421 0.998671627434735 C 0.0 **** 0.0
118 C73641 0.341142780244601 0.898873971840443 0.98645363956154 C 0.0 **** 0.0
119 C73643 0.31678784391667 0.907031187285373 1.00501850586955 C 0.0 **** 0.0
120 O73645 0.462158397542139 0.825252182940783 0.995703344658272 O 0.0 **** 0.0
121 C73647 0.53271759498314 0.792816121258171 0.844746883495292 C 0.0 **** 0.0
122 C73648 0.544861615956602 0.787725420704812 0.833684213399284 C 0.0 **** 0.0
123 C73649 0.555620000665391 0.774958514867313 0.837983918812282 C 0.0 **** 0.0
124 C73650 0.553818612216477 0.767162934221808 0.8533523626208 C 0.0 **** 0.0
125 C73656 0.565602228751441 0.753383392638945 0.858072800588229 C 0.0 **** 0.0
126 C73657 0.577678074950524 0.74863942818265 0.846701558335673 C 0.0 **** 0.0
127 C73658 0.579146269236418 0.757706179027536 0.83042027103297 C 0.0 **** 0.0
128 C73659 0.568056610177952 0.77045238008185 0.826651645175076 C 0.0 **** 0.0
129 C73665 0.591575422756085 0.753132088283003 0.819322226214479 C 0.0 **** 0.0
130 C73666 0.60215563855093 0.739808854772764 0.822698923235811 C 0.0 **** 0.0
131 C73667 0.60074699882886 0.730500728539602 0.837211308693698 C 0.0 **** 0.0
132 C73668 0.588209129216652 0.735377893084085 0.850187334996644 C 0.0 **** 0.0
133 C73674 0.586681705241831 0.726143007566282 0.865258132084457 C 0.0 **** 0.0
134 C73675 0.574604817059418 0.731191226777823 0.877125439333409 C 0.0 **** 0.0
135 C73676 0.564056142587046 0.74499008046548 0.873593835698185 C 0.0 **** 0.0
136 C73681 0.596319895690299 0.711542711519575 0.867947081728649 C 0.0 **** 0.0
137 C73682 0.609134325554391 0.707454250927769 0.854221646489864 C 0.0 **** 0.0
138 C73683 0.610769841734994 0.716734105329971 0.8397776497458 C 0.0 **** 0.0
139 C73688 0.557688725716074 0.725836250439359 0.901901367004001 C 0.0 **** 0.0
140 C73689 0.571743296878009 0.721335040590158 0.891606445879627 C 0.0 **** 0.0
141 C73694 0.593756515011765 0.701930322458853 0.88247047454077 C 0.0 **** 0.0
142 C73695 0.58176868938399 0.706818773164821 0.894432273177169 C 0.0 **** 0.0
143 C73699 0.578994342767472 0.6958683061943 0.910023823446948 C 0.0 **** 0.0
144 C73700 0.596026770773422 0.689886086352519 0.91702393171114 C 0.0 **** 0.0
145 C73701 0.604870688628481 0.679660092514103 0.903561844615565 C 0.0 **** 0.0
146 C73702 0.603835003809782 0.686128902539036 0.885692519616945 C 0.0 **** 0.0
147 O73708 0.610885833758209 0.677795987961142 0.874936647024077 O 0.0 **** 0.0
148 H73710 0.321566468839666 0.999257419454834 0.96795376243067 H 0.0 **** 0.0
149 H73712 0.341855708175623 0.990951881893277 0.96393714238893 H 0.0 **** 0.0
150 H73714 0.330468764158708 1.01244435056641 0.993239219122068 H 0.0 **** 0.0
151 H73716 0.34817886110047 0.99917789364991 0.991692615833729 H 0.0 **** 0.0
152 H73718 0.343867876997712 1.03549465758702 0.979538905005968 H 0.0 **** 0.0
153 H73720 0.371135778072639 1.03475306097068 0.965655947999985 H 0.0 **** 0.0
154 H73722 0.359706703358125 1.00671346889063 0.945106084825436 H 0.0 **** 0.0
155 H73724 0.354682531924609 1.02811525640563 0.942128993859035 H 0.0 **** 0.0
156 H73726 0.373026528220617 0.996665376453472 0.967519649512905 H 0.0 **** 0.0
157 H73728 0.376591948348066 0.998297899718939 0.996571748292096 H 0.0 **** 0.0
158 H73730 0.388198833649658 1.03472912579713 0.992263334245973 H 0.0 **** 0.0
159 H73732 0.38600961121741 1.02434839603224 1.01184090083787 H 0.0 **** 0.0
160 H73734 0.361090685512389 1.04380146182441 1.0012515434058 H 0.0 **** 0.0
161 H73736 0.355755019214891 1.02420911386846 1.01026005734496 H 0.0 **** 0.0
162 H73738 0.420822697737078 0.989607517211051 0.985000207750649 H 0.0 **** 0.0
163 H73740 0.420251547464988 1.00555954656795 0.961211259410081 H 0.0 **** 0.0
164 H73742 0.390139303525118 1.01322999037002 0.946492094605131 H 0.0 **** 0.0
165 H73744 0.399225741514285 1.02446912619291 0.963320227973294 H 0.0 **** 0.0
166 H73746 0.384981854118873 0.976411489547922 0.979567458832054 H 0.0 **** 0.0
167 H73748 0.433543206307837 0.963747710699075 0.923877829057729 H 0.0 **** 0.0
168 H73750 0.4179710201167 0.950730382981924 0.914670434640467 H 0.0 **** 0.0
169 H73752 0.396887805916083 0.973009654088528 0.914898661796529 H 0.0 **** 0.0
170 H73754 0.415873569389797 0.982027298861941 0.907265098352059 H 0.0 **** 0.0
171 H73756 0.408704699716952 1.00280429122157 0.928174559640555 H 0.0 **** 0.0
172 H73758 0.37870576521438 0.950335489159254 0.993306473377957 H 0.0 **** 0.0
173 H73759 0.420204816497357 0.960566857267327 1.03321101627346 H 0.0 **** 0.0
174 H73761 0.403488735964893 0.973228936796552 1.0409824692609 H 0.0 **** 0.0
175 H73763 0.412792902684759 0.985723586350448 1.01350217463473 H 0.0 **** 0.0
176 H73765 0.407469396518158 0.940355614073212 1.05471874117274 H 0.0 **** 0.0
177 H73767 0.38875115100147 0.951788056393308 1.05762978227628 H 0.0 **** 0.0
178 H73769 0.377589640619479 0.925209740448148 1.06287518119402 H 0.0 **** 0.0
179 H73771 0.393914594946158 0.914803682363324 1.05180640150306 H 0.0 **** 0.0
180 H73773 0.358537013378848 0.936392684852793 0.999670328666533 H 0.0 **** 0.0
181 H73775 0.369009855721078 0.916733353185473 0.998211098396435 H 0.0 **** 0.0
182 H73777 0.339681783860952 0.925535109615862 1.02164367653261 H 0.0 **** 0.0
183 H73779 0.359634063679392 0.892752103966669 1.01682840880378 H 0.0 **** 0.0
184 H73781 0.340686895333138 0.893930872559517 1.02861286315238 H 0.0 **** 0.0
185 H73783 0.368852862890004 0.896939070550667 1.04539488126263 H 0.0 **** 0.0
186 H73785 0.352498645924163 0.91150948254704 1.04964134051241 H 0.0 **** 0.0
187 H73787 0.397926533421212 0.914857143555372 1.00633494836378 H 0.0 **** 0.0
188 H73789 0.42103033218286 0.858224152566344 0.988685315058017 H 0.0 **** 0.0
189 H73791 0.44094507759382 0.836392267764296 0.982563603051112 H 0.0 **** 0.0
190 H73793 0.43003913342888 0.905707280578843 0.912113845762951 H 0.0 **** 0.0
191 H73795 0.468491491541471 0.778914716332271 0.962309623684089 H 0.0 **** 0.0
192 H73797 0.451251059412327 0.796845587325238 0.977981486928866 H 0.0 **** 0.0
193 H73799 0.48386217899881 0.815811439970276 0.98526310260056 H 0.0 **** 0.0
194 H73801 0.474380462174994 0.792325280902576 1.00832136986328 H 0.0 **** 0.0
195 H73803 0.452131471791133 0.793536114253201 1.00720424676589 H 0.0 **** 0.0
196 H73805 0.453018578085761 0.766517235570208 0.988913394915517 H 0.0 **** 0.0
197 H73807 0.459386666722708 0.763093650509994 1.00997339457949 H 0.0 **** 0.0
198 H73809 0.488216162388147 0.762674673314074 1.00339893616162 H 0.0 **** 0.0
199 H73811 0.495927158777581 0.785317803598719 0.988303075921911 H 0.0 **** 0.0
200 H73813 0.496436992434307 0.763347043457695 0.956890493095393 H 0.0 **** 0.0
201 H73815 0.512225696299301 0.777085469481267 0.964842779209794 H 0.0 **** 0.0
202 H73817 0.51522191665675 0.757420293063081 0.990003986766557 H 0.0 **** 0.0
203 H73819 0.520569702727927 0.747043502688639 0.971119630172957 H 0.0 **** 0.0
204 H73821 0.500093197557355 0.731230373174276 0.992411410543497 H 0.0 **** 0.0
205 H73823 0.49511012738827 0.730503268380333 0.970763047748065 H 0.0 **** 0.0
206 H73825 0.472141076716845 0.746229143344511 0.974895076794791 H 0.0 **** 0.0
207 H73827 0.447636800492439 0.897318189789407 0.870585463787685 H 0.0 **** 0.0
208 H73829 0.417109754188987 0.901319588318232 0.870983927218718 H 0.0 **** 0.0
209 H73831 0.410566968708336 0.86417356211457 0.875912750741787 H 0.0 **** 0.0
210 H73833 0.396807136411824 0.879952065676452 0.868559336380487 H 0.0 **** 0.0
211 H73835 0.401659700640929 0.864641597424248 0.843061859205782 H 0.0 **** 0.0
212 H73837 0.422523410655982 0.859194595645968 0.848760977736248 H 0.0 **** 0.0
213 H73839 0.411514162404391 0.895062300371345 0.839420828193449 H 0.0 **** 0.0
214 H73841 0.421602598005034 0.881141013077039 0.82524389793056 H 0.0 **** 0.0
215 H73843 0.440427669735091 0.902945267988989 0.841830876624788 H 0.0 **** 0.0
216 H73845 0.447846455892587 0.882053251894054 0.840359445610473 H 0.0 **** 0.0
217 H73847 0.469355682240347 0.851427275864705 0.867056423799984 H 0.0 **** 0.0
218 H73849 0.490504098245685 0.830281351534342 0.860983820083398 H 0.0 **** 0.0
219 H73851 0.490822250257764 0.783805357747233 0.938159555033943 H 0.0 **** 0.0
220 H73853 0.518428045463511 0.769948876404321 0.933552000792758 H 0.0 **** 0.0
221 H73855 0.539925402040416 0.767582876047947 0.915562707008861 H 0.0 **** 0.0
222 H73857 0.520456952136084 0.738303248507884 0.899764433956067 H 0.0 **** 0.0
223 H73859 0.537285889886116 0.741220076576723 0.934221482153278 H 0.0 **** 0.0
224 H73861 0.531895178371701 0.721455574468276 0.925281357966186 H 0.0 **** 0.0
225 H73863 0.509813856514303 0.738381054541223 0.945104462477691 H 0.0 **** 0.0
226 H73865 0.503030460644596 0.72530702928212 0.928499911453747 H 0.0 **** 0.0
227 H73867 0.48969753998059 0.755410840017098 0.930216544367557 H 0.0 **** 0.0
228 H73869 0.496659841730125 0.748513490744345 0.91021017895306 H 0.0 **** 0.0
229 H73871 0.33253589478332 0.924066864278875 0.99135098393262 H 0.0 **** 0.0
230 H73873 0.332206772555782 0.896827852062093 0.975986636092015 H 0.0 **** 0.0
231 H73875 0.342941642541527 0.886698088209032 0.992921895603022 H 0.0 **** 0.0
232 H73877 0.353302153495357 0.902531503348197 0.980790084980545 H 0.0 **** 0.0
233 H73879 0.311275614419188 0.916698734319309 1.01333868025396 H 0.0 **** 0.0
234 H73881 0.317429932586327 0.895129872108547 1.01215060942373 H 0.0 **** 0.0
235 H73883 0.307984543980944 0.905188532468291 0.994404230342374 H 0.0 **** 0.0
236 H73885 0.466862363681666 0.836282128610926 0.994897786617926 H 0.0 **** 0.0
237 H73887 0.524480961533251 0.803218969483767 0.841021763589524 H 0.0 **** 0.0
238 H73889 0.545844791328541 0.794179361574225 0.821525230818087 H 0.0 **** 0.0
239 H73891 0.569086457143385 0.777040343737089 0.814550590967114 H 0.0 **** 0.0
240 H73893 0.593153126715432 0.759849708888082 0.807373391803331 H 0.0 **** 0.0
241 H73895 0.611707026457825 0.736572252062273 0.81330971451666 H 0.0 **** 0.0
242 H73897 0.61751770509539 0.696678621772596 0.855686530012034 H 0.0 **** 0.0
243 H73899 0.620067579784704 0.712726851071953 0.830443136614506 H 0.0 **** 0.0
244 H73901 0.554386041101108 0.718026261680086 0.912835737914299 H 0.0 **** 0.0
245 H73903 0.572297025157605 0.702719358098492 0.920018872428216 H 0.0 **** 0.0
246 H73905 0.571062694909009 0.684837751533302 0.90678207495887 H 0.0 **** 0.0
247 H73907 0.5943645047958 0.682162647413304 0.928480385066894 H 0.0 **** 0.0
248 H73909 0.60373738413653 0.700943036869931 0.92056953682598 H 0.0 **** 0.0
249 H73911 0.599608544556223 0.66685023754202 0.90232698948735 H 0.0 **** 0.0
250 H73913 0.618554629738838 0.677997085339384 0.905412402582778 H 0.0 **** 0.0
@<TRIPOS>BOND
1 3 2 1
2 4 3 1
3 5 4 1
4 6 5 1
5 1 2 1
6 1 6 1
7 8 7 1
8 9 8 1
9 10 9 1
10 4 7 1
11 3 10 1
12 12 11 1
13 13 12 1
14 14 13 1
15 8 11 1
16 7 14 1
17 16 15 1
18 17 16 Partial double
19 18 17 1
20 13 15 1
21 12 18 1
22 20 19 Partial double
23 21 20 Partial double
24 22 21 Partial double
25 17 19 Partial double
26 16 22 Partial double
27 24 23 1
28 25 24 1
29 15 25 Double
30 22 23 1
31 27 26 1
32 28 27 Partial double
33 29 28 Partial double
34 21 26 1
35 20 29 Partial double
36 31 30 1
37 32 31 1
38 18 30 1
39 19 32 1
40 34 33 Double
41 35 34 1
42 36 35 1
43 31 33 1
44 30 36 Double
45 38 37 1
46 39 38 1
47 40 39 Double
48 34 37 1
49 33 40 1
50 42 41 1
51 43 42 1
52 44 43 1
53 40 41 1
54 39 44 1
55 46 45 Partial double
56 32 46 1
57 29 45 Partial double
58 48 47 Partial double
59 49 48 1
60 45 49 Partial double
61 28 47 Partial double
62 51 50 Partial double
63 52 51 Partial double
64 53 52 Partial double
65 48 50 Partial double
66 47 53 Partial double
67 55 54 Partial double
68 56 55 Partial double
69 57 56 Partial double
70 52 54 Partial double
71 51 57 Partial double
72 59 58 Partial double
73 60 59 Partial double
74 61 60 Partial double
75 56 58 Partial double
76 55 61 Partial double
77 63 62 Partial double
78 27 63 Partial double
79 53 62 Partial double
80 65 64 Partial double
81 62 65 Partial double
82 54 64 Partial double
83 67 66 Partial double
84 64 67 Partial double
85 61 66 Partial double
86 69 68 Partial double
87 70 69 Partial double
88 66 70 Partial double
89 60 68 Partial double
90 72 71 1
91 73 72 1
92 74 73 1
93 59 71 1
94 58 74 1
95 76 75 1
96 77 76 1
97 78 77 1
98 73 75 1
99 72 78 1
100 80 79 1
101 81 80 1
102 82 81 1
103 78 79 1
104 77 82 1
105 84 83 Partial double
106 85 84 Partial double
107 67 85 Partial double
108 65 83 Partial double
109 87 86 1
110 88 87 1
111 89 88 1
112 84 86 1
113 83 89 1
114 91 90 1
115 92 91 1
116 93 92 1
117 88 90 1
118 87 93 1
119 95 94 Partial double
120 85 95 Partial double
121 70 94 Partial double
122 97 96 Partial double
123 98 97 Partial double
124 94 98 Partial double
125 69 96 Partial double
126 100 99 Partial double
127 101 100 Partial double
128 68 101 Partial double
129 96 99 Partial double
130 103 102 1
131 104 103 Partial double
132 97 102 1
133 99 104 1
134 106 105 1
135 107 106 1
136 100 105 1
137 104 107 Partial double
138 109 108 1
139 110 109 1
140 111 110 1
141 106 108 1
142 105 111 1
143 113 112 1
144 114 113 1
145 103 114 Partial double
146 107 112 Partial double
147 108 115 1
148 112 116 Partial double
149 115 116 Partial double
150 42 117 1
151 117 118 1
152 117 119 1
153 74 120 1
154 122 121 1
155 123 122 Partial double
156 124 123 1
157 114 121 Partial double
158 113 124 Partial double
159 126 125 Partial double
160 127 126 1
161 128 127 Partial double
162 124 125 Partial double
163 123 128 Partial double
164 130 129 Partial double
165 131 130 1
166 132 131 1
167 127 129 Partial double
168 126 132 Partial double
169 134 133 Partial double
170 135 134 Partial double
171 125 135 Partial double
172 132 133 Partial double
173 137 136 Partial double
174 138 137 Partial double
175 131 138 Partial double
176 133 136 Partial double
177 140 139 Partial double
178 134 140 Partial double
179 116 135 Partial double
180 115 139 Partial double
181 142 141 Partial double
182 140 142 Partial double
183 136 141 Partial double
184 144 143 1
185 145 144 1
186 146 145 1
187 142 143 1
188 141 146 1
189 146 147 Double
190 1 148 1
191 1 149 1
192 2 150 1
193 2 151 1
194 3 152 1
195 4 153 1
196 5 154 1
197 5 155 1
198 7 156 1
199 8 157 1
200 9 158 1
201 9 159 1
202 10 160 1
203 10 161 1
204 12 162 1
205 13 163 1
206 14 164 1
207 14 165 1
208 18 166 1
209 23 167 1
210 23 168 1
211 24 169 1
212 24 170 1
213 25 171 1
214 35 173 1
215 35 174 1
216 36 175 1
217 37 176 1
218 37 177 1
219 38 178 1
220 38 179 1
221 41 180 1
222 41 181 1
223 42 182 1
224 43 183 1
225 43 184 1
226 44 185 1
227 44 186 1
228 46 187 1
229 50 188 1
230 57 189 1
231 63 190 1
232 72 191 1
233 73 192 1
234 74 193 1
235 75 194 1
236 75 195 1
237 76 196 1
238 76 197 1
239 77 198 1
240 78 199 1
241 79 200 1
242 79 201 1
243 80 202 1
244 80 203 1
245 81 204 1
246 81 205 1
247 82 206 1
248 87 207 1
249 88 208 1
250 90 209 1
251 90 210 1
252 91 211 1
253 91 212 1
254 92 213 1
255 92 214 1
256 93 215 1
257 93 216 1
258 95 217 1
259 98 218 1
260 101 219 1
261 105 220 1
262 106 221 1
263 108 222 1
264 109 223 1
265 109 224 1
266 110 225 1
267 110 226 1
268 111 227 1
269 111 228 1
270 117 229 1
271 118 230 1
272 118 231 1
273 118 232 1
274 119 233 1
275 119 234 1
276 119 235 1
277 120 236 1
278 121 237 1
279 122 238 1
280 128 239 1
281 129 240 1
282 130 241 1
283 137 242 1
284 138 243 1
285 139 244 1
286 143 245 1
287 143 246 1
288 144 247 1
289 144 248 1
290 145 249 1
291 145 250 1
292 31 172 1
@<TRIPOS>MOLECULE
Sketch 4
250 292
SMALL
USER_CHARGES


@<TRIPOS>ATOM
1 C73916 0.89542507681538 0.341860432225302 0.436550430665657 C 0.0 **** 0.0
2 C73917 0.892355381566875 0.360763401291105 0.432156590133398 C 0.0 **** 0.0
3 C73918 0.876150434455651 0.36325312458401 0.421553668774815 C 0.0 **** 0.0
4 C73919 0.875635296571358 0.350804020626146 0.406269185880037 C 0.0 **** 0.0
5 C73920 0.883041453785429 0.333379940563469 0.411601235248942 C 0.0 **** 0.0
6 O73921 0.882836861227461 0.331192790100534 0.429480192084181 O 0.0 **** 0.0
7 C73928 0.884002479841312 0.359500733232489 0.390842414731648 C 0.0 **** 0.0
8 C73929 0.872671202887248 0.374407807201022 0.384843613846524 C 0.0 **** 0.0
9 C73930 0.863904705848517 0.383341618072063 0.399757772140341 C 0.0 **** 0.0
10 C73931 0.873947823243457 0.381870568155408 0.416202519275847 C 0.0 **** 0.0
11 O73937 0.859095423304849 0.369030736587862 0.374240760277323 O 0.0 **** 0.0
12 C73938 0.863953563613684 0.359969767626438 0.359353439163869 C 0.0 **** 0.0
13 C73939 0.873267478885431 0.343839505384305 0.364843106216878 C 0.0 **** 0.0
14 C73940 0.888620927596834 0.348034093003389 0.375810212329644 C 0.0 **** 0.0
15 C73946 0.878166109277679 0.333038994383228 0.34991558643157 C 0.0 **** 0.0
16 C73947 0.882714861640361 0.341811493677746 0.333632477840796 C 0.0 **** 0.0
17 C73948 0.879459967117312 0.358932576849655 0.33153531166661 C 0.0 **** 0.0
18 C73949 0.874666312875829 0.370055325388609 0.346698440682281 C 0.0 **** 0.0
19 C73955 0.881627333120873 0.366000803150462 0.315596293943737 C 0.0 **** 0.0
20 C73956 0.889379715950087 0.356705092988471 0.302889866378379 C 0.0 **** 0.0
21 C73957 0.89411820018688 0.340029072191776 0.305632318951374 C 0.0 **** 0.0
22 C73958 0.890004238846871 0.332291635924769 0.320830119676199 C 0.0 **** 0.0
23 C73964 0.894519308572442 0.313912273553164 0.323766768728822 C 0.0 **** 0.0
24 C73965 0.881381102586523 0.305313207206209 0.335401752211947 C 0.0 **** 0.0
25 C73966 0.877261777737633 0.316053538037849 0.350561316364847 C 0.0 **** 0.0
26 O73971 0.902773567249986 0.330715954514151 0.293568028791553 O 0.0 **** 0.0
27 C73972 0.90664130227795 0.337920489534242 0.278138892251363 C 0.0 **** 0.0
28 C73973 0.902238507837716 0.354327029759569 0.273672021173205 C 0.0 **** 0.0
29 C73974 0.893175638063035 0.365141769296885 0.286392751242778 C 0.0 **** 0.0
30 C73980 0.867891704543987 0.386941612950071 0.340901698620306 C 0.0 **** 0.0
31 C73981 0.879524992118224 0.394898541342265 0.32783676817906 C 0.0 **** 0.0
32 C73982 0.875839504549947 0.383879332370783 0.312278366564001 C 0.0 **** 0.0
33 C73987 0.876931292898118 0.414152463024249 0.325002636611052 C 0.0 **** 0.0
34 C73988 0.861599752157981 0.420728490045448 0.329468062255388 C 0.0 **** 0.0
35 C73989 0.84746842319127 0.410584435361146 0.337584664756504 C 0.0 **** 0.0
36 C73990 0.853142544347724 0.394054886663746 0.345223599825924 C 0.0 **** 0.0
37 C73996 0.857260231498042 0.439167707917054 0.328576497898158 C 0.0 **** 0.0
38 C73997 0.870084316279755 0.449795904381574 0.318621510367416 C 0.0 **** 0.0
39 C73998 0.886813718546711 0.441199964447505 0.316091260236859 C 0.0 **** 0.0
40 C73999 0.889581448487733 0.424388552763458 0.31897997938961 C 0.0 **** 0.0
41 C74005 0.907538911706304 0.417748126076664 0.315130979806566 C 0.0 **** 0.0
42 C74006 0.921041169050476 0.431442630205683 0.316741200677025 C 0.0 **** 0.0
43 C74007 0.916491058781575 0.44581356248816 0.304458506794522 C 0.0 **** 0.0
44 C74008 0.899646305363563 0.453736040301529 0.309515895904648 C 0.0 **** 0.0
45 C74014 0.888793482271938 0.381505658105726 0.283483080141668 C 0.0 **** 0.0
46 C74015 0.880700567841934 0.391075546980407 0.295234070687048 C 0.0 **** 0.0
47 C74019 0.905465514504626 0.360022681101727 0.257000512881443 C 0.0 **** 0.0
48 C74020 0.900126949433266 0.376008549326729 0.250977366282928 C 0.0 **** 0.0
49 S74021 0.893521548651868 0.391684655804201 0.264655886418828 S 0.0 **** 0.0
50 C74026 0.900232943477111 0.380063785799425 0.23416934323495 C 0.0 **** 0.0
51 C74027 0.907169561378829 0.368699892296408 0.222352516224709 C 0.0 **** 0.0
52 C74028 0.913746692372204 0.353090696438669 0.228102144561302 C 0.0 **** 0.0
53 C74029 0.913112467283738 0.348978210389158 0.245262856424074 C 0.0 **** 0.0
54 C74035 0.921364136244865 0.342319485104452 0.21641284330009 C 0.0 **** 0.0
55 C74036 0.924541293605155 0.347632595440904 0.199774407578286 C 0.0 **** 0.0
56 C74037 0.920637493217729 0.364271333142125 0.194862644547769 C 0.0 **** 0.0
57 C74038 0.909859513498715 0.373586366715524 0.205496706282612 C 0.0 **** 0.0
58 C74044 0.927278288503563 0.370960061918552 0.179824246411833 C 0.0 **** 0.0
59 C74045 0.933757435155902 0.35988549133697 0.167894564998891 C 0.0 **** 0.0
60 C74046 0.936398670910295 0.342566050485372 0.17187630423519 C 0.0 **** 0.0
61 C74047 0.932030494214799 0.336844031124182 0.188121782163654 C 0.0 **** 0.0
62 C74053 0.919754874618162 0.333424300660416 0.250644691471502 C 0.0 **** 0.0
63 C74054 0.915469410846739 0.327921435216599 0.266986891337039 C 0.0 **** 0.0
64 C74058 0.927348107484658 0.326688870715751 0.221758692336497 C 0.0 **** 0.0
65 C74059 0.928897132652308 0.32321638508859 0.239041049472226 C 0.0 **** 0.0
66 C74063 0.935167771217782 0.32018253000082 0.192970244211911 C 0.0 **** 0.0
67 C74064 0.933532560885537 0.315423472726966 0.209943779977342 C 0.0 **** 0.0
68 C74068 0.943591578040443 0.330700322709762 0.160208301778037 C 0.0 **** 0.0
69 C74069 0.944649636787872 0.313500435616852 0.164893762369658 C 0.0 **** 0.0
70 C74070 0.941147237307243 0.308509303078297 0.18127828683263 C 0.0 **** 0.0
71 O74075 0.936817465255127 0.365901097295748 0.151656874721757 O 0.0 **** 0.0
72 C74076 0.945147856476669 0.381862339959811 0.149859523784731 C 0.0 **** 0.0
73 C74077 0.940425212429479 0.394798442704859 0.163882289884341 C 0.0 **** 0.0
74 C74078 0.925635476543245 0.389605279137737 0.17514036952041 C 0.0 **** 0.0
75 C74084 0.93789402858969 0.412925442901418 0.15703381685827 C 0.0 **** 0.0
76 C74085 0.95145289060343 0.417324106970564 0.144075657278563 C 0.0 **** 0.0
77 C74086 0.949602022164747 0.40642589050625 0.128080135762362 C 0.0 **** 0.0
78 C74087 0.941905402457599 0.388574339393926 0.131694392399562 C 0.0 **** 0.0
79 C74093 0.946973907463193 0.375617291328526 0.117890784246255 C 0.0 **** 0.0
80 C74094 0.949868168501841 0.384760172239621 0.101040642385107 C 0.0 **** 0.0
81 C74095 0.964496814822752 0.397699283208162 0.102210660828769 C 0.0 **** 0.0
82 N74096 0.96543596198024 0.406186951460564 0.118781955786626 N 0.0 **** 0.0
83 C74102 0.939772858528362 0.310053225525482 0.244499768790517 C 0.0 **** 0.0
84 C74103 0.945041731620368 0.298057448354048 0.232831308351522 C 0.0 **** 0.0
85 C74104 0.940343626513308 0.300071643347673 0.215640244775849 C 0.0 **** 0.0
86 O74109 0.954932943588433 0.284297526790899 0.23720559364325 O 0.0 **** 0.0
87 C74110 0.964952459868403 0.288046228856941 0.251711175070788 C 0.0 **** 0.0
88 C74111 0.95412420684709 0.29448136040101 0.265911955497983 C 0.0 **** 0.0
89 O74112 0.944689541281158 0.30922381740519 0.261308959362147 O 0.0 **** 0.0
90 C74118 0.964824780663547 0.298599149481483 0.281508289486084 C 0.0 **** 0.0
91 C74119 0.979366963202643 0.310799082371257 0.277401828518711 C 0.0 **** 0.0
92 C74120 0.990540841890075 0.303719089845329 0.263222151628416 C 0.0 **** 0.0
93 C74121 0.979796063481063 0.29999246172044 0.247548251579346 C 0.0 **** 0.0
94 C74127 0.94513121940048 0.291792511090827 0.18644555029942 C 0.0 **** 0.0
95 C74128 0.944958072753464 0.287796458717605 0.203804646041076 C 0.0 **** 0.0
96 C74132 0.950322970889503 0.301429106663828 0.153205072047284 C 0.0 **** 0.0
97 C74133 0.952890219188826 0.284328242403693 0.157876208631937 C 0.0 **** 0.0
98 C74134 0.950507063322456 0.279772833372742 0.174399135500163 C 0.0 **** 0.0
99 C74139 0.954617010336531 0.306224943309184 0.136721978169289 C 0.0 **** 0.0
100 C74140 0.955039574067702 0.323076810572217 0.132249658546361 C 0.0 **** 0.0
101 C74141 0.950071191679803 0.3348106194148 0.144089921149585 C 0.0 **** 0.0
102 O74146 0.958848779403062 0.272333340330461 0.146650389360322 O 0.0 **** 0.0
103 C74147 0.959013931623955 0.276180323234876 0.129647540511927 C 0.0 **** 0.0
104 C74148 0.958185718240535 0.292573040001526 0.124271164574721 C 0.0 **** 0.0
105 C74153 0.960436120660518 0.329051705855884 0.114847746907132 C 0.0 **** 0.0
106 C74154 0.958509338956325 0.314705336842899 0.101061556300283 C 0.0 **** 0.0
107 C74155 0.959206959623471 0.296528782224743 0.107562369654707 C 0.0 **** 0.0
108 C74160 0.972088579906112 0.316439733256803 0.087108943291024 C 0.0 **** 0.0
109 C74161 0.975642780813401 0.334945482120185 0.082546817637486 C 0.0 **** 0.0
110 C74162 0.983384485385723 0.344263003202944 0.0979915142776041 C 0.0 **** 0.0
111 C74163 0.978503988730237 0.336142510653811 0.115135246093943 C 0.0 **** 0.0
112 C74169 0.960711365863244 0.28383278635796 0.0960254922185427 C 0.0 **** 0.0
113 C74170 0.960446873283244 0.26729344690632 0.101183845380965 C 0.0 **** 0.0
114 C74171 0.960013325982962 0.263429975984223 0.117991139877023 C 0.0 **** 0.0
115 C74176 0.96689620323313 0.304633692286061 0.0727597611719153 C 0.0 **** 0.0
116 C74178 0.962007657593473 0.288489397475254 0.0776307009937312 C 0.0 **** 0.0
117 C74181 0.939172041459938 0.424375992339135 0.314620172908513 C 0.0 **** 0.0
118 C74183 0.943104766418281 0.417935121456634 0.296751221314448 C 0.0 **** 0.0
119 C74185 0.952640445297385 0.437232520011499 0.32007648727859 C 0.0 **** 0.0
120 O74187 0.926416474749315 0.400166348773092 0.189706526070996 O 0.0 **** 0.0
121 C74189 0.960451424393649 0.246859227477366 0.122975818819386 C 0.0 **** 0.0
122 C74190 0.961009916323105 0.23424378774795 0.111251470007393 C 0.0 **** 0.0
123 C74191 0.960843000156038 0.238004246532242 0.0943935354399166 C 0.0 **** 0.0
124 C74192 0.960540601256051 0.254591113548093 0.0894811185725835 C 0.0 **** 0.0
125 C74198 0.960030457177349 0.258775377147183 0.0712052698107959 C 0.0 **** 0.0
126 C74199 0.960382096252942 0.245875000168637 0.0597511441293301 C 0.0 **** 0.0
127 C74200 0.960806375314899 0.22818076016981 0.0657898020270514 C 0.0 **** 0.0
128 C74201 0.96101124741577 0.224956096058502 0.0828242276757536 C 0.0 **** 0.0
129 C74207 0.9610841654494 0.215343698552447 0.0541883729730325 C 0.0 **** 0.0
130 C74208 0.961250342204967 0.21861247283706 0.0371370312785398 C 0.0 **** 0.0
131 C74209 0.961159446991093 0.234807868931042 0.0309601762550312 C 0.0 **** 0.0
132 C74210 0.960554723684872 0.249287149601789 0.0427945041979331 C 0.0 **** 0.0
133 C74216 0.960765720575225 0.26600765208697 0.0367644613293128 C 0.0 **** 0.0
134 C74217 0.960744550312966 0.27926143561918 0.0484464483939987 C 0.0 **** 0.0
135 C74218 0.960104558051323 0.275632254871553 0.0657409497655457 C 0.0 **** 0.0
136 C74223 0.962380302577343 0.269432788455831 0.0194842256720528 C 0.0 **** 0.0
137 C74224 0.961871278437926 0.253967433902144 0.00802498331621029 C 0.0 **** 0.0
138 C74225 0.96149124993805 0.237750313451642 0.0139828521784104 C 0.0 **** 0.0
139 C74230 0.967567654379521 0.308182680023189 0.0557216359857901 C 0.0 **** 0.0
140 C74231 0.96377883464543 0.295913761880802 0.0430587545142132 C 0.0 **** 0.0
141 C74236 0.964534806328533 0.286083857712889 0.0140214870197069 C 0.0 **** 0.0
142 C74237 0.964692544045331 0.299386765105225 0.0255889570188432 C 0.0 **** 0.0
143 C74241 0.96711958959073 0.317556983106475 0.0196136066162472 C 0.0 **** 0.0
144 C74242 0.958005674829813 0.320636314364474 0.00283505076205108 C 0.0 **** 0.0
145 C74243 0.964717110622146 0.308200699790623 -0.0100053278482748 C 0.0 **** 0.0
146 C74244 0.967004627710238 0.290166360252611 -0.00436201299535379 C 0.0 **** 0.0
147 O74250 0.971381088389486 0.280018447695435 -0.0149999741511625 O 0.0 **** 0.0
148 H74252 0.8951256664482 0.339733945439755 0.450253078075557 H 0.0 **** 0.0
149 H74254 0.908120387628936 0.337944942073141 0.432327438325189 H 0.0 **** 0.0
150 H74256 0.891690544162095 0.368704795570755 0.443593301035893 H 0.0 **** 0.0
151 H74258 0.903142510511096 0.365779337830945 0.424864786706294 H 0.0 **** 0.0
152 H74260 0.865374084769451 0.359862841443302 0.429632420747423 H 0.0 **** 0.0
153 H74262 0.862177437621925 0.348864250492431 0.403011399489268 H 0.0 **** 0.0
154 H74264 0.89597882600039 0.331726202501533 0.406723852924954 H 0.0 **** 0.0
155 H74266 0.875496841361364 0.3230104312869 0.406258928429697 H 0.0 **** 0.0
156 H74268 0.895979501198598 0.364958648862155 0.395539596645006 H 0.0 **** 0.0
157 H74270 0.880748676396902 0.383482410006373 0.378002471598269 H 0.0 **** 0.0
158 H74272 0.851506491883301 0.37720646677053 0.401526987807031 H 0.0 **** 0.0
159 H74274 0.861171429397879 0.396650299696756 0.396708295543278 H 0.0 **** 0.0
160 H74276 0.867957849693919 0.389142439932314 0.426418966605108 H 0.0 **** 0.0
161 H74278 0.886476006022032 0.387572399714974 0.414287462013124 H 0.0 **** 0.0
162 H74280 0.851840855965233 0.356517657991552 0.353411647986646 H 0.0 **** 0.0
163 H74282 0.864410557247185 0.336501366644504 0.37266902051255 H 0.0 **** 0.0
164 H74284 0.898170337524528 0.354678669528531 0.368116516979078 H 0.0 **** 0.0
165 H74286 0.89490770492875 0.336353220033791 0.380061463276906 H 0.0 **** 0.0
166 H74288 0.886672274277144 0.373277986225874 0.353138454855076 H 0.0 **** 0.0
167 H74290 0.895343644285397 0.306933236538873 0.311766882278145 H 0.0 **** 0.0
168 H74292 0.907081220828462 0.313181271571767 0.32974332683549 H 0.0 **** 0.0
169 H74294 0.886376625812867 0.293152322612332 0.339845066679707 H 0.0 **** 0.0
170 H74296 0.869689063011583 0.302589252404495 0.328329500225288 H 0.0 **** 0.0
171 H74298 0.87308085278814 0.309233028585333 0.361780177781874 H 0.0 **** 0.0
172 H74300 0.892613275963566 0.392668436847557 0.332029406469255 H 0.0 **** 0.0
173 H74301 0.837638142303616 0.40804691765016 0.328052238416106 H 0.0 **** 0.0
174 H74303 0.841628004420212 0.418322092622553 0.347667633353134 H 0.0 **** 0.0
175 H74305 0.844559951845372 0.387887683848464 0.354076109988662 H 0.0 **** 0.0
176 H74307 0.844627712407867 0.440789061923843 0.322897851659171 H 0.0 **** 0.0
177 H74309 0.856372271330161 0.444026671451966 0.34162495354331 H 0.0 **** 0.0
178 H74311 0.871955040513698 0.462005075185318 0.325115383112381 H 0.0 **** 0.0
179 H74313 0.864878856995152 0.452762320606277 0.306045240154029 H 0.0 **** 0.0
180 H74315 0.910894565559902 0.407243422661023 0.323579577048712 H 0.0 **** 0.0
181 H74317 0.907703307294035 0.412588258101719 0.302195651477096 H 0.0 **** 0.0
182 H74319 0.920364401622671 0.436601589736827 0.329733720286835 H 0.0 **** 0.0
183 H74321 0.915620120313359 0.440658941375771 0.291533604584966 H 0.0 **** 0.0
184 H74323 0.926294105901968 0.455710370495522 0.304125273659331 H 0.0 **** 0.0
185 H74325 0.894141111245963 0.460789755884927 0.298797938168667 H 0.0 **** 0.0
186 H74327 0.901900161489472 0.463046434557581 0.319674664097822 H 0.0 **** 0.0
187 H74329 0.877197492445766 0.404124881504535 0.292527154382262 H 0.0 **** 0.0
188 H74331 0.896119916264491 0.392533866793887 0.22975310076543 H 0.0 **** 0.0
189 H74333 0.905146301939498 0.386032537935513 0.201667932574178 H 0.0 **** 0.0
190 H74335 0.918796822357427 0.315156856312666 0.271300768949651 H 0.0 **** 0.0
191 H74337 0.958828677304873 0.379399664570524 0.150989882188982 H 0.0 **** 0.0
192 H74339 0.95130264835025 0.395525836489329 0.172660436712017 H 0.0 **** 0.0
193 H74341 0.913449444778125 0.391360402479813 0.16862519125565 H 0.0 **** 0.0
194 H74343 0.925328113714615 0.414218193281144 0.151131847314382 H 0.0 **** 0.0
195 H74345 0.938303290717599 0.421945723889878 0.167622709776774 H 0.0 **** 0.0
196 H74347 0.963928301988878 0.415183806108014 0.149914137113773 H 0.0 **** 0.0
197 H74349 0.950993270544304 0.430832322284388 0.140674231678317 H 0.0 **** 0.0
198 H74351 0.940455778190433 0.412992376385905 0.119822975604512 H 0.0 **** 0.0
199 H74353 0.928049572001213 0.390183398935607 0.130962492754246 H 0.0 **** 0.0
200 H74355 0.958865451325468 0.36930867060465 0.121516070342276 H 0.0 **** 0.0
201 H74357 0.937292107707528 0.365678808249581 0.116715134653888 H 0.0 **** 0.0
202 H74359 0.938078977649183 0.39139230364669 0.0976407196059138 H 0.0 **** 0.0
203 H74361 0.952412782922978 0.375888186470392 0.0906204039515644 H 0.0 **** 0.0
204 H74363 0.963140507838787 0.407429182963577 0.0923177441573613 H 0.0 **** 0.0
205 H74365 0.976669687508574 0.391374953108487 0.0997627154955987 H 0.0 **** 0.0
206 H74367 0.974634533203067 0.401355720488872 0.126005172583819 H 0.0 **** 0.0
207 H74369 0.970542076703895 0.275991932321529 0.255959910136603 H 0.0 **** 0.0
208 H74371 0.944805771813833 0.284613058515656 0.269127272876925 H 0.0 **** 0.0
209 H74373 0.956418011103739 0.304368494749032 0.290925441997637 H 0.0 **** 0.0
210 H74375 0.969921077449257 0.286929575180993 0.287170019865168 H 0.0 **** 0.0
211 H74377 0.986824286035153 0.313412566192552 0.288878520640059 H 0.0 **** 0.0
212 H74379 0.974038325591474 0.323043127134462 0.273317361947239 H 0.0 **** 0.0
213 H74381 0.996707552792015 0.291981057130508 0.267545117528794 H 0.0 **** 0.0
214 H74383 1.00071952519645 0.312683836657005 0.260022594801558 H 0.0 **** 0.0
215 H74385 0.987498764171454 0.294330085059639 0.237403066260715 H 0.0 **** 0.0
216 H74387 0.97487400333345 0.312016129477762 0.242468598254455 H 0.0 **** 0.0
217 H74389 0.94978905365031 0.275478707774495 0.208024333467116 H 0.0 **** 0.0
218 H74391 0.953497028308656 0.266839892845774 0.178529255455776 H 0.0 **** 0.0
219 H74393 0.951112144484209 0.347837849989735 0.139704985826865 H 0.0 **** 0.0
220 H74395 0.951979592019105 0.339398589776334 0.110853240498282 H 0.0 **** 0.0
221 H74397 0.945931195118029 0.316527086500113 0.0952890953900947 H 0.0 **** 0.0
222 H74399 0.984172052830734 0.311453229429345 0.0921664130905529 H 0.0 **** 0.0
223 H74401 0.963767802384392 0.341093918442932 0.0786751870969943 H 0.0 **** 0.0
224 H74403 0.984433125201361 0.335854082724427 0.0717963111195694 H 0.0 **** 0.0
225 H74405 0.979480779365079 0.357625766887698 0.0978715803183214 H 0.0 **** 0.0
226 H74407 0.997283023796144 0.344342596712601 0.0968863278227299 H 0.0 **** 0.0
227 H74409 0.980146932531942 0.345464056002816 0.125374549199321 H 0.0 **** 0.0
228 H74411 0.987303281388335 0.325701045051021 0.117994101401295 H 0.0 **** 0.0
229 H74413 0.94030962521865 0.413474963667405 0.323312538291225 H 0.0 **** 0.0
230 H74415 0.955864512599885 0.41239126817502 0.29623034630563 H 0.0 **** 0.0
231 H74417 0.942666890458655 0.42829074854972 0.287464497907056 H 0.0 **** 0.0
232 H74419 0.934168724786678 0.40811291379653 0.292606375489305 H 0.0 **** 0.0
233 H74421 0.950415447666624 0.441782357015446 0.333044112728629 H 0.0 **** 0.0
234 H74423 0.952793905319479 0.448298682011906 0.311645155832217 H 0.0 **** 0.0
235 H74425 0.965353192768496 0.431562724141455 0.319791003939061 H 0.0 **** 0.0
236 H74427 0.924372873343107 0.411342338138257 0.185763026915296 H 0.0 **** 0.0
237 H74429 0.960302484286012 0.243365933075036 0.136322082638825 H 0.0 **** 0.0
238 H74431 0.961398079509936 0.221180553938756 0.115672086531077 H 0.0 **** 0.0
239 H74433 0.961359380589099 0.21191338899954 0.0872734610351424 H 0.0 **** 0.0
240 H74435 0.961229229987065 0.202157211226839 0.0582372160058029 H 0.0 **** 0.0
241 H74437 0.961514259851052 0.207834079863611 0.0285052041458515 H 0.0 **** 0.0
242 H74439 0.961780115652908 0.255609338313027 -0.00561018892603616 H 0.0 **** 0.0
243 H74441 0.961522981336689 0.227352733200376 0.00491261245634593 H 0.0 **** 0.0
244 H74443 0.971361754616847 0.320989427734153 0.0520955395732532 H 0.0 **** 0.0
245 H74445 0.962331175009762 0.32669949245681 0.0289106477437372 H 0.0 **** 0.0
246 H74447 0.980725740685474 0.320121623184251 0.0180032056030588 H 0.0 **** 0.0
247 H74449 0.960052816703856 0.333642382456677 -0.0016944182203928 H 0.0 **** 0.0
248 H74451 0.944266107422604 0.319100888469458 0.00459056032879971 H 0.0 **** 0.0
249 H74453 0.977523834973596 0.311623483016296 -0.0142877426107893 H 0.0 **** 0.0
250 H74455 0.957018965677061 0.306807677037752 -0.0214900876905389 H 0.0 **** 0.0
@<TRIPOS>BOND
1 3 2 1
2 4 3 1
3 5 4 1
4 6 5 1
5 1 2 1
6 1 6 1
7 8 7 1
8 9 8 1
9 10 9 1
10 4 7 1
11 3 10 1
12 12 11 1
13 13 12 1
14 14 13 1
15 8 11 1
16 7 14 1
17 16 15 1
18 17 16 Partial double
19 18 17 1
20 13 15 1
21 12 18 1
22 20 19 Partial double
23 21 20 Partial double
24 22 21 Partial double
25 17 19 Partial double
26 16 22 Partial double
27 24 23 1
28 25 24 1
29 15 25 Double
30 22 23 1
31 27 26 1
32 28 27 Partial double
33 29 28 Partial double
34 21 26 1
35 20 29 Partial double
36 31 30 1
37 32 31 1
38 18 30 1
39 19 32 1
40 34 33 Double
41 35 34 1
42 36 35 1
43 31 33 1
44 30 36 Double
45 38 37 1
46 39 38 1
47 40 39 Double
48 34 37 1
49 33 40 1
50 42 41 1
51 43 42 1
52 44 43 1
53 40 41 1
54 39 44 1
55 46 45 Partial double
56 32 46 1
57 29 45 Partial double
58 48 47 Partial double
59 49 48 1
60 45 49 Partial double
61 28 47 Partial double
62 51 50 Partial double
63 52 51 Partial double
64 53 52 Partial double
65 48 50 Partial double
66 47 53 Partial double
67 55 54 Partial double
68 56 55 Partial double
69 57 56 Partial double
70 52 54 Partial double
71 51 57 Partial double
72 59 58 Partial double
73 60 59 Partial double
74 61 60 Partial double
75 56 58 Partial double
76 55 61 Partial double
77 63 62 Partial double
78 27 63 Partial double
79 53 62 Partial double
80 65 64 Partial double
81 62 65 Partial double
82 54 64 Partial double
83 67 66 Partial double
84 64 67 Partial double
85 61 66 Partial double
86 69 68 Partial double
87 70 69 Partial double
88 66 70 Partial double
89 60 68 Partial double
90 72 71 1
91 73 72 1
92 74 73 1
93 59 71 1
94 58 74 1
95 76 75 1
96 77 76 1
97 78 77 1
98 73 75 1
99 72 78 1
100 80 79 1
101 81 80 1
102 82 81 1
103 78 79 1
104 77 82 1
105 84 83 Partial double
106 85 84 Partial double
107 67 85 Partial double
108 65 83 Partial double
109 87 86 1
110 88 87 1
111 89 88 1
112 84 86 1
113 83 89 1
114 91 90 1
115 92 91 1
116 93 92 1
117 88 90 1
118 87 93 1
119 95 94 Partial double
120 85 95 Partial double
121 70 94 Partial double
122 97 96 Partial double
123 98 97 Partial double
124 94 98 Partial double
125 69 96 Partial double
126 100 99 Partial double
127 101 100 Partial double
128 68 101 Partial double
129 96 99 Partial double
130 103 102 1
131 104 103 Partial double
132 97 102 1
133 99 104 1
134 106 105 1
135 107 106 1
136 100 105 1
137 104 107 Partial double
138 109 108 1
139 110 109 1
140 111 110 1
141 106 108 1
142 105 111 1
143 113 112 1
144 114 113 1
145 103 114 Partial double
146 107 112 Partial double
147 108 115 1
148 112 116 Partial double
149 115 116 Partial double
150 42 117 1
151 117 118 1
152 117 119 1
153 74 120 1
154 122 121 1
155 123 122 Partial double
156 124 123 1
157 114 121 Partial double
158 113 124 Partial double
159 126 125 Partial double
160 127 126 1
161 128 127 Partial double
162 124 125 Partial double
163 123 128 Partial double
164 130 129 Partial double
165 131 130 1
166 132 131 1
167 127 129 Partial double
168 126 132 Partial double
169 134 133 Partial double
170 135 134 Partial double
171 125 135 Partial double
172 132 133 Partial double
173 137 136 Partial double
174 138 137 Partial double
175 131 138 Partial double
176 133 136 Partial double
177 140 139 Partial double
178 134 140 Partial double
179 116 135 Partial double
180 115 139 Partial double
181 142 141 Partial double
182 140 142 Partial double
183 136 141 Partial double
184 144 143 1
185 145 144 1
186 146 145 1
187 142 143 1
188 141 146 1
189 146 147 Double
190 1 148 1
191 1 149 1
192 2 150 1
193 2 151 1
194 3 152 1
195 4 153 1
196 5 154 1
197 5 155 1
198 7 156 1
199 8 157 1
200 9 158 1
201 9 159 1
202 10 160 1
203 10 161 1
204 12 162 1
205 13 163 1
206 14 164 1
207 14 165 1
208 18 166 1
209 23 167 1
210 23 168 1
211 24 169 1
212 24 170 1
213 25 171 1
214 35 173 1
215 35 174 1
216 36 175 1
217 37 176 1
218 37 177 1
219 38 178 1
220 38 179 1
221 41 180 1
222 41 181 1
223 42 182 1
224 43 183 1
225 43 184 1
226 44 185 1
227 44 186 1
228 46 187 1
229 50 188 1
230 57 189 1
231 63 190 1
232 72 191 1
233 73 192 1
234 74 193 1
235 75 194 1
236 75 195 1
237 76 196 1
238 76 197 1
239 77 198 1
240 78 199 1
241 79 200 1
242 79 201 1
243 80 202 1
244 80 203 1
245 81 204 1
246 81 205 1
247 82 206 1
248 87 207 1
249 88 208 1
250 90 209 1
251 90 210 1
252 91 211 1
253 91 212 1
254 92 213 1
255 92 214 1
256 93 215 1
257 93 216 1
258 95 217 1
259 98 218 1
260 101 219 1
261 105 220 1
262 106 221 1
263 108 222 1
264 109 223 1
265 109 224 1
266 110 225 1
267 110 226 1
268 111 227 1
269 111 228 1
270 117 229 1
271 118 230 1
272 118 231 1
273 118 232 1
274 119 233 1
275 119 234 1
276 119 235 1
277 120 236 1
278 121 237 1
279 122 238 1
280 128 239 1
281 129 240 1
282 130 241 1
283 137 242 1
284 138 243 1
285 139 244 1
286 143 245 1
287 143 246 1
288 144 247 1
289 144 248 1
290 145 249 1
291 145 250 1
292 31 172 1
@<TRIPOS>MOLECULE
Sketch 4
250 292
SMALL
USER_CHARGES


@<TRIPOS>ATOM
1 C74458 0.349800172904994 0.400134162539217 0.434558877266316 C 0.0 **** 0.0
2 C74459 0.346662882012873 0.381378016509468 0.438368533427404 C 0.0 **** 0.0
3 C74460 0.345032893739545 0.378603862978273 0.457571276876647 C 0.0 **** 0.0
4 C74461 0.359929836487108 0.387063695675342 0.466982520506853 C 0.0 **** 0.0
5 C74462 0.361569697657624 0.405525292337567 0.461003032543042 C 0.0 **** 0.0
6 O74463 0.364370564755785 0.406118398154941 0.443245042053354 O 0.0 **** 0.0
7 C74470 0.377095125102044 0.377733489577841 0.464305699792733 C 0.0 **** 0.0
8 C74471 0.374916426726989 0.35442086306168 0.45742997591454 C 0.0 **** 0.0
9 C74472 0.356596891219779 0.347354094007115 0.458686410665218 C 0.0 **** 0.0
10 C74473 0.342464038823443 0.36013378255273 0.463192053852027 C 0.0 **** 0.0
11 O74479 0.389130473927432 0.339470944472653 0.465487370036189 O 0.0 **** 0.0
12 C74480 0.40376546628702 0.34242809706732 0.481655925632353 C 0.0 **** 0.0
13 C74481 0.407613654618809 0.364787646240031 0.490219237012799 C 0.0 **** 0.0
14 C74482 0.392477147880662 0.382781554224154 0.482879678156981 C 0.0 **** 0.0
15 C74488 0.426322056252946 0.36941117054543 0.491022851143246 C 0.0 **** 0.0
16 C74489 0.440086587373151 0.357649343753029 0.484298201932928 C 0.0 **** 0.0
17 C74490 0.437186267274632 0.34079752864277 0.480089776936427 C 0.0 **** 0.0
18 C74491 0.420179242905804 0.33185215762672 0.478875429444856 C 0.0 **** 0.0
19 C74497 0.451106173605155 0.330244025615326 0.477362201675485 C 0.0 **** 0.0
20 C74498 0.467283321697275 0.33698958313949 0.476545071471679 C 0.0 **** 0.0
21 C74499 0.469791933115175 0.354239177848882 0.47776798349637 C 0.0 **** 0.0
22 C74500 0.456330340327571 0.364355824871071 0.482691141882629 C 0.0 **** 0.0
23 C74506 0.459628350012002 0.382863236075265 0.485982544240304 C 0.0 **** 0.0
24 C74507 0.448993467861836 0.388882400903539 0.501105010429973 C 0.0 **** 0.0
25 C74508 0.430757648604078 0.383778406111871 0.499081048059311 C 0.0 **** 0.0
26 O74513 0.485511003301856 0.36160818969432 0.47473995678453 O 0.0 **** 0.0
27 C74514 0.499612012416966 0.351504635436904 0.472323873845214 C 0.0 **** 0.0
28 C74515 0.498996037203121 0.333966415853522 0.473131899618082 C 0.0 **** 0.0
29 C74516 0.482203936356961 0.325437254431403 0.475188145276831 C 0.0 **** 0.0
30 C74522 0.422224966253742 0.316602626219436 0.490154442935394 C 0.0 **** 0.0
31 C74523 0.431964964223093 0.303116818988731 0.480685557632279 C 0.0 **** 0.0
32 C74524 0.449083517922714 0.311211422885781 0.474994962948928 C 0.0 **** 0.0
33 C74529 0.433616088584105 0.285907772354241 0.490059360884901 C 0.0 **** 0.0
34 C74530 0.430451728831608 0.285622318725202 0.507048011082088 C 0.0 **** 0.0
35 C74531 0.423996989084772 0.300596274675576 0.517222986819182 C 0.0 **** 0.0
36 C74532 0.418915101385786 0.315736756185282 0.506745441429669 C 0.0 **** 0.0
37 C74538 0.431143038685124 0.269914541476192 0.517674885831328 C 0.0 **** 0.0
38 C74539 0.439654397718469 0.25486605742121 0.508823046082631 C 0.0 **** 0.0
39 C74540 0.440495038066432 0.256567322444117 0.489930888752997 C 0.0 **** 0.0
40 C74541 0.437601493588203 0.271355117913068 0.481498626597035 C 0.0 **** 0.0
41 C74547 0.439304855127339 0.271126797774837 0.462040732901625 C 0.0 **** 0.0
42 C74548 0.438275539112427 0.253574018616788 0.454189532209327 C 0.0 **** 0.0
43 C74549 0.450714572375221 0.241781960240931 0.463359738333932 C 0.0 **** 0.0
44 C74550 0.445683926775211 0.240031743528521 0.48187480717632 C 0.0 **** 0.0
45 C74556 0.480512289643889 0.308446311781791 0.476928051664314 C 0.0 **** 0.0
46 C74557 0.46508916211847 0.301067001454294 0.478175099670394 C 0.0 **** 0.0
47 C74561 0.514324958137456 0.324837587921706 0.474115882260375 C 0.0 **** 0.0
48 C74562 0.515268994300044 0.307701904912869 0.47903236498231 C 0.0 **** 0.0
49 S74563 0.497754959768488 0.294784054454186 0.477570842182949 S 0.0 **** 0.0
50 C74568 0.52970129298263 0.300885371551979 0.485891032529469 C 0.0 **** 0.0
51 C74569 0.545031811158227 0.310164249666493 0.484957031420852 C 0.0 **** 0.0
52 C74570 0.544928535251567 0.325715297822119 0.476161618792055 C 0.0 **** 0.0
53 C74571 0.529717225381206 0.333764553496998 0.472641428369643 C 0.0 **** 0.0
54 C74577 0.559754402458742 0.331183299963552 0.468145366709952 C 0.0 **** 0.0
55 C74578 0.574318541554207 0.321171612705739 0.468684885572801 C 0.0 **** 0.0
56 C74579 0.575658025268293 0.308164283980026 0.480787543230884 C 0.0 **** 0.0
57 C74580 0.560644224111853 0.302808514415388 0.488949458263601 C 0.0 **** 0.0
58 C74586 0.590623768268039 0.298890629344199 0.48168568537197 C 0.0 **** 0.0
59 C74587 0.601062705337526 0.298268339150793 0.467582469768105 C 0.0 **** 0.0
60 C74588 0.599813665002678 0.310716224028905 0.454773400309574 C 0.0 **** 0.0
61 C74589 0.586653515760278 0.322632671918037 0.45617275738575 C 0.0 **** 0.0
62 C74595 0.529934780665976 0.350430693344981 0.466667378583999 C 0.0 **** 0.0
63 C74596 0.514791058392503 0.359511074203391 0.468874843645288 C 0.0 **** 0.0
64 C74600 0.558891588531554 0.345093846136898 0.457445988789335 C 0.0 **** 0.0
65 C74601 0.544854052078525 0.356006506975763 0.457877386106613 C 0.0 **** 0.0
66 C74605 0.585168018535363 0.3358052733234 0.444546498367334 C 0.0 **** 0.0
67 C74606 0.571752713538262 0.347290593184589 0.445767893824056 C 0.0 **** 0.0
68 C74610 0.611845045202844 0.312463749644321 0.441359339525871 C 0.0 **** 0.0
69 C74611 0.610826184336875 0.326721758779095 0.430710144057185 C 0.0 **** 0.0
70 C74612 0.597445400525837 0.337930857202835 0.43211547921134 C 0.0 **** 0.0
71 O74617 0.613091079520854 0.285414708590862 0.467334272937729 O 0.0 **** 0.0
72 C74618 0.605446785618274 0.269183625757377 0.470932850010756 C 0.0 **** 0.0
73 C74619 0.595135942861936 0.269226749559895 0.487872727597435 C 0.0 **** 0.0
74 C74620 0.595680249710069 0.286794071926098 0.495667076574641 C 0.0 **** 0.0
75 C74626 0.60047404182684 0.255006044343732 0.50007551439486 C 0.0 **** 0.0
76 C74627 0.599565522079595 0.238290184547315 0.490434844107589 C 0.0 **** 0.0
77 C74628 0.612998721873606 0.237500435119941 0.476351546850134 C 0.0 **** 0.0
78 C74629 0.61921617029025 0.255272225863952 0.470404539307455 C 0.0 **** 0.0
79 C74635 0.628105033557957 0.254441767694726 0.452969619562444 C 0.0 **** 0.0
80 C74636 0.634654574318784 0.236516454463507 0.449648511408809 C 0.0 **** 0.0
81 C74637 0.6203812438994 0.223204803044595 0.449850917671278 C 0.0 **** 0.0
82 N74638 0.607269211226372 0.226667786347891 0.462659744449794 N 0.0 **** 0.0
83 C74644 0.545268323890073 0.371182588022588 0.448394131755207 C 0.0 **** 0.0
84 C74645 0.558848643076822 0.374276819536248 0.437709003755348 C 0.0 **** 0.0
85 C74646 0.571350535321789 0.361743526734813 0.435527830719787 C 0.0 **** 0.0
86 O74651 0.560453309170083 0.388999383010588 0.428282130157425 O 0.0 **** 0.0
87 C74652 0.55023862440414 0.40230264452856 0.434846799536547 C 0.0 **** 0.0
88 C74653 0.53259759223989 0.395775432147264 0.436953831011748 C 0.0 **** 0.0
89 O74654 0.532022536769187 0.382638590883647 0.44934971902978 O 0.0 **** 0.0
90 C74660 0.525013940108512 0.389789173124878 0.419883168710954 C 0.0 **** 0.0
91 C74661 0.532111025595935 0.399472385830213 0.404453348459314 C 0.0 **** 0.0
92 C74662 0.537049054058801 0.417591727547091 0.409274678921968 C 0.0 **** 0.0
93 C74663 0.551148042217323 0.41766037167773 0.422867118905953 C 0.0 **** 0.0
94 C74669 0.59685340478642 0.352241342763439 0.421325149629506 C 0.0 **** 0.0
95 C74670 0.583795157948829 0.364100904569541 0.423207625162148 C 0.0 **** 0.0
96 C74674 0.623830950373812 0.329963322852333 0.419038670138389 C 0.0 **** 0.0
97 C74675 0.623273767222427 0.344283685898851 0.408341183267725 C 0.0 **** 0.0
98 C74676 0.609748403641966 0.354974021176439 0.409355762596305 C 0.0 **** 0.0
99 C74681 0.637711697686937 0.319015200045199 0.417517442166241 C 0.0 **** 0.0
100 C74682 0.638270783844598 0.304298316280643 0.426849985134505 C 0.0 **** 0.0
101 C74683 0.625469995884402 0.301340736035606 0.438310809692111 C 0.0 **** 0.0
102 O74688 0.635542379284128 0.347715698736469 0.396470023078613 O 0.0 **** 0.0
103 C74689 0.650275154859873 0.338490334164068 0.396650897078749 C 0.0 **** 0.0
104 C74690 0.651799978253371 0.324007632467576 0.405930590677684 C 0.0 **** 0.0
105 C74695 0.652465873567162 0.291461880685053 0.425182516368112 C 0.0 **** 0.0
106 C74696 0.668696002905602 0.298446637468303 0.415446736890026 C 0.0 **** 0.0
107 C74697 0.666244454181611 0.314578421345825 0.405150262549978 C 0.0 **** 0.0
108 C74702 0.676553409494042 0.284733324577169 0.403872727856326 C 0.0 **** 0.0
109 C74703 0.677468231194328 0.267612108191726 0.413019965240575 C 0.0 **** 0.0
110 C74704 0.659503581082694 0.261233243871645 0.41759138191657 C 0.0 **** 0.0
111 C74705 0.645996404308803 0.275256612060033 0.416728400201698 C 0.0 **** 0.0
112 C74711 0.679144977770316 0.319664172960086 0.394836463669845 C 0.0 **** 0.0
113 C74712 0.67797725954838 0.334681903282064 0.386259483171088 C 0.0 **** 0.0
114 C74713 0.663520471185903 0.344030338735013 0.387077145415559 C 0.0 **** 0.0
115 C74718 0.693395341886485 0.291374021047656 0.39705180960054 C 0.0 **** 0.0
116 C74720 0.694413042343978 0.308371165534145 0.392832894217013 C 0.0 **** 0.0
117 C74723 0.440597747248503 0.254286893607202 0.434759806252577 C 0.0 **** 0.0
118 C74725 0.458586235491797 0.258687044779807 0.428966854321697 C 0.0 **** 0.0
119 C74727 0.435088026491663 0.237803535659282 0.426231650607601 C 0.0 **** 0.0
120 O74729 0.58526627983004 0.287758919354661 0.510331510394622 O 0.0 **** 0.0
121 C74731 0.66227360991635 0.358874524912644 0.378278951786667 C 0.0 **** 0.0
122 C74732 0.675428387103268 0.364356509120561 0.368663989020567 C 0.0 **** 0.0
123 C74733 0.689896372533035 0.355045676517358 0.367650343602174 C 0.0 **** 0.0
124 C74734 0.691191584781582 0.340311525387154 0.376656366085857 C 0.0 **** 0.0
125 C74740 0.707020434499765 0.330256499862174 0.375664092593912 C 0.0 **** 0.0
126 C74741 0.719482550101356 0.335745714272851 0.365047070611894 C 0.0 **** 0.0
127 C74742 0.717304608190192 0.35177256493062 0.355624740481654 C 0.0 **** 0.0
128 C74743 0.702687896336515 0.360834883813783 0.357373176243023 C 0.0 **** 0.0
129 C74749 0.729785648346706 0.357210882273865 0.344968419039784 C 0.0 **** 0.0
130 C74750 0.743991030182175 0.347678014225003 0.342249991042938 C 0.0 **** 0.0
131 C74751 0.746181628098379 0.332344440606549 0.349983780161673 C 0.0 **** 0.0
132 C74752 0.733683000910321 0.326208560504118 0.362563556003356 C 0.0 **** 0.0
133 C74758 0.735350981543681 0.310163105604451 0.370068455101497 C 0.0 **** 0.0
134 C74759 0.722661286608074 0.304438652485121 0.381006620253886 C 0.0 **** 0.0
135 C74760 0.708494718407923 0.314701837089698 0.38413678981931 C 0.0 **** 0.0
136 C74765 0.747363731805771 0.298841968142007 0.363622930195868 C 0.0 **** 0.0
137 C74766 0.760659608851137 0.306457804173336 0.35207006604173 C 0.0 **** 0.0
138 C74767 0.759614486211402 0.32245261838027 0.345749117252233 C 0.0 **** 0.0
139 C74772 0.707060234833773 0.281214512521133 0.393405736273886 C 0.0 **** 0.0
140 C74773 0.72185817392247 0.287134332091966 0.385103600826709 C 0.0 **** 0.0
141 C74778 0.745712337210067 0.281565933027215 0.366668000333559 C 0.0 **** 0.0
142 C74779 0.733790246080401 0.275737366398497 0.378209313044581 C 0.0 **** 0.0
143 C74783 0.732431186990407 0.256934518399262 0.382396847692139 C 0.0 **** 0.0
144 C74784 0.749632351811265 0.248218071948681 0.381145079022426 C 0.0 **** 0.0
145 C74785 0.756200051454335 0.250914322021303 0.3634257809944 C 0.0 **** 0.0
146 C74786 0.756305752087463 0.268869110408049 0.357271195948519 C 0.0 **** 0.0
147 O74792 0.764234394065387 0.271924583962316 0.344501300569135 O 0.0 **** 0.0
148 H74794 0.338555210013787 0.407763507154468 0.437829282196667 H 0.0 **** 0.0
149 H74796 0.352258733589578 0.402190318480359 0.421021117096102 H 0.0 **** 0.0
150 H74798 0.335264937548823 0.376930663865765 0.431710316096651 H 0.0 **** 0.0
151 H74800 0.357378046707313 0.374040637769325 0.433359293190422 H 0.0 **** 0.0
152 H74802 0.333493536272836 0.385480362352155 0.461498192814641 H 0.0 **** 0.0
153 H74804 0.356908606544135 0.38715624630159 0.4805852932382 H 0.0 **** 0.0
154 H74806 0.372517922700685 0.411750346974165 0.466910101691814 H 0.0 **** 0.0
155 H74808 0.350309785234533 0.413005138524996 0.464395816751902 H 0.0 **** 0.0
156 H74810 0.38103855232224 0.383601017859812 0.45237981500762 H 0.0 **** 0.0
157 H74812 0.376649533968485 0.35443462112886 0.443925651292041 H 0.0 **** 0.0
158 H74814 0.356490033770541 0.337219649468004 0.468210108751932 H 0.0 **** 0.0
159 H74816 0.353376677982027 0.341045034307107 0.44667494093 H 0.0 **** 0.0
160 H74818 0.340976537943166 0.360260655460077 0.477061202368245 H 0.0 **** 0.0
161 H74820 0.33035872093994 0.355326635723987 0.458196494539206 H 0.0 **** 0.0
162 H74822 0.39710508024628 0.335993305168518 0.491962201319819 H 0.0 **** 0.0
163 H74824 0.405268464216239 0.363792429852068 0.503992354508762 H 0.0 **** 0.0
164 H74826 0.383834457648223 0.385094623303737 0.493665358789211 H 0.0 **** 0.0
165 H74828 0.398427882697934 0.395360327750343 0.482654157417347 H 0.0 **** 0.0
166 H74830 0.419158151540655 0.327123195664019 0.465865123689563 H 0.0 **** 0.0
167 H74832 0.47308480203757 0.385249014901157 0.488543591601946 H 0.0 **** 0.0
168 H74834 0.456309745155769 0.389988026981372 0.474592210061873 H 0.0 **** 0.0
169 H74836 0.449968828959191 0.402714524851025 0.502579771617428 H 0.0 **** 0.0
170 H74838 0.454001476199873 0.383105147873839 0.512729099491828 H 0.0 **** 0.0
171 H74840 0.421447298324201 0.392116437122205 0.50487930186635 H 0.0 **** 0.0
172 H74842 0.424477842153616 0.300670926653009 0.46916822606569 H 0.0 **** 0.0
173 H74843 0.433758973205971 0.304395420855995 0.526453124614818 H 0.0 **** 0.0
174 H74845 0.412874258022144 0.296408740972148 0.524601925788942 H 0.0 **** 0.0
175 H74847 0.413194312536945 0.326392846710897 0.513356973633733 H 0.0 **** 0.0
176 H74849 0.437851566541821 0.272584833968411 0.529626629646614 H 0.0 **** 0.0
177 H74851 0.41809811656921 0.266417800923977 0.521177019508817 H 0.0 **** 0.0
178 H74853 0.432917082345495 0.243134814689649 0.512188219911707 H 0.0 **** 0.0
179 H74855 0.452644843897921 0.253435833028948 0.513625494589047 H 0.0 **** 0.0
180 H74857 0.429399583219851 0.279050397555526 0.456315753567613 H 0.0 **** 0.0
181 H74859 0.451453823269865 0.276912863051201 0.45853510797071 H 0.0 **** 0.0
182 H74861 0.425386089431495 0.248638031732299 0.4565136385979 H 0.0 **** 0.0
183 H74863 0.463593248819385 0.247031524691738 0.462422998614743 H 0.0 **** 0.0
184 H74865 0.451109331188913 0.22914655906498 0.45749404845592 H 0.0 **** 0.0
185 H74867 0.456085112281039 0.234316018040418 0.489233201269311 H 0.0 **** 0.0
186 H74869 0.434870081088531 0.231289512579291 0.482807235028745 H 0.0 **** 0.0
187 H74871 0.464197618029942 0.287566770136666 0.480495042028289 H 0.0 **** 0.0
188 H74873 0.529960362643228 0.287878198776805 0.490696531672892 H 0.0 **** 0.0
189 H74875 0.560476273719441 0.290718136050112 0.495780218793807 H 0.0 **** 0.0
190 H74877 0.513878944543196 0.373171020265191 0.466812655949426 H 0.0 **** 0.0
191 H74879 0.596511028850597 0.266592200920974 0.460551016346475 H 0.0 **** 0.0
192 H74881 0.581695054508579 0.266697499325766 0.485001543758298 H 0.0 **** 0.0
193 H74883 0.608865531806928 0.289513122930184 0.499540500686661 H 0.0 **** 0.0
194 H74885 0.613327796591097 0.257138087300089 0.505033576698024 H 0.0 **** 0.0
195 H74887 0.591937788828551 0.254797045345692 0.511107379870896 H 0.0 **** 0.0
196 H74889 0.586811142120216 0.237323254514764 0.484873723455438 H 0.0 **** 0.0
197 H74891 0.600849280093522 0.227272987482194 0.498842230174399 H 0.0 **** 0.0
198 H74893 0.624147250441739 0.231165480767649 0.481895149312801 H 0.0 **** 0.0
199 H74895 0.62872514406396 0.259261406078381 0.479817662392992 H 0.0 **** 0.0
200 H74897 0.619037491635594 0.257747429905491 0.442912123153217 H 0.0 **** 0.0
201 H74899 0.638443385023644 0.263737994081758 0.452368379095558 H 0.0 **** 0.0
202 H74901 0.643852168292942 0.233435902311373 0.459629816484847 H 0.0 **** 0.0
203 H74903 0.641527484908937 0.235560959803409 0.437596833939718 H 0.0 **** 0.0
204 H74905 0.625754512492031 0.210603496212258 0.452368824894323 H 0.0 **** 0.0
205 H74907 0.614383159678267 0.22246833563798 0.43729980675266 H 0.0 **** 0.0
206 H74909 0.596920127391169 0.231623988017267 0.457316130271774 H 0.0 **** 0.0
207 H74911 0.555289943776991 0.405768640676796 0.447377094435538 H 0.0 **** 0.0
208 H74913 0.524970979273267 0.406321023975828 0.441848049674787 H 0.0 **** 0.0
209 H74915 0.527608852552235 0.376188455733837 0.418452648512448 H 0.0 **** 0.0
210 H74917 0.511142808561885 0.390910918457423 0.420196341812581 H 0.0 **** 0.0
211 H74919 0.522886552203927 0.399325171878941 0.394017760938613 H 0.0 **** 0.0
212 H74921 0.543458056609372 0.392927244535381 0.399655602897016 H 0.0 **** 0.0
213 H74923 0.525739552621557 0.424073182288408 0.414246226841618 H 0.0 **** 0.0
214 H74925 0.541102307841659 0.424854989038777 0.398088083554924 H 0.0 **** 0.0
215 H74927 0.550776051501793 0.429686227252235 0.429881090861923 H 0.0 **** 0.0
216 H74929 0.563594974115484 0.417210726916207 0.416634822416304 H 0.0 **** 0.0
217 H74931 0.58353877265868 0.375337795865179 0.415052170362991 H 0.0 **** 0.0
218 H74933 0.609001332271499 0.365963660982026 0.400909174324674 H 0.0 **** 0.0
219 H74935 0.626979133436217 0.289650147980872 0.445489904214491 H 0.0 **** 0.0
220 H74937 0.656761742989269 0.288019214512926 0.438011950939509 H 0.0 **** 0.0
221 H74939 0.678076998101079 0.301433965041784 0.425355042446458 H 0.0 **** 0.0
222 H74941 0.668175721258467 0.282937724012516 0.392812527884596 H 0.0 **** 0.0
223 H74943 0.685098048340155 0.269104092127193 0.424579592483605 H 0.0 **** 0.0
224 H74945 0.683762696476492 0.257881176916804 0.405323382119296 H 0.0 **** 0.0
225 H74947 0.659691378874327 0.255886764934152 0.430435810942911 H 0.0 **** 0.0
226 H74949 0.655874649198298 0.250792428981802 0.409116663372958 H 0.0 **** 0.0
227 H74951 0.634195256664222 0.270729204125838 0.422558313772729 H 0.0 **** 0.0
228 H74953 0.642831187295457 0.278014305157687 0.403425102815466 H 0.0 **** 0.0
229 H74955 0.432094114405113 0.264314237598037 0.429973678371432 H 0.0 **** 0.0
230 H74957 0.459090290658221 0.259460360194133 0.415071950964021 H 0.0 **** 0.0
231 H74959 0.467674350609186 0.248931570630629 0.432950767713935 H 0.0 **** 0.0
232 H74961 0.462969033422349 0.270908235909234 0.4339463642077 H 0.0 **** 0.0
233 H74963 0.422075589384093 0.234369013849713 0.429758291548254 H 0.0 **** 0.0
234 H74965 0.44346083053092 0.227308587290887 0.429857842703487 H 0.0 **** 0.0
235 H74967 0.435521043671541 0.239010151163242 0.412365081046141 H 0.0 **** 0.0
236 H74969 0.585079712043413 0.299329304002332 0.513574573982031 H 0.0 **** 0.0
237 H74971 0.650873544265716 0.366632968338086 0.378789515047055 H 0.0 **** 0.0
238 H74973 0.674141042233072 0.376251441722398 0.361834324973943 H 0.0 **** 0.0
239 H74975 0.701118256921316 0.372566603748197 0.350277966957408 H 0.0 **** 0.0
240 H74977 0.728492014696465 0.369083485156752 0.338054765322033 H 0.0 **** 0.0
241 H74979 0.75330166581384 0.352359339703288 0.33320581089821 H 0.0 **** 0.0
242 H74981 0.771591746510095 0.298928111263178 0.348546443078449 H 0.0 **** 0.0
243 H74983 0.769341815470968 0.326788044451385 0.336982522963362 H 0.0 **** 0.0
244 H74985 0.705632485386462 0.267680612490777 0.395966733926145 H 0.0 **** 0.0
245 H74987 0.727564751352548 0.255019521099694 0.395257652374661 H 0.0 **** 0.0
246 H74989 0.72338594587961 0.250793337276835 0.373705403505911 H 0.0 **** 0.0
247 H74991 0.748747317092386 0.234618733027518 0.383940680921387 H 0.0 **** 0.0
248 H74993 0.758295575977984 0.253655272926786 0.390612603182718 H 0.0 **** 0.0
249 H74995 0.748275433849813 0.244266163042503 0.354098988102503 H 0.0 **** 0.0
250 H74997 0.76922998580419 0.246830646295198 0.360941636831365 H 0.0 **** 0.0
@<TRIPOS>BOND
1 3 2 1
2 4 3 1
3 5 4 1
4 6 5 1
5 1 2 1
6 1 6 1
7 8 7 1
8 9 8 1
9 10 9 1
10 4 7 1
11 3 10 1
12 12 11 1
13 13 12 1
14 14 13 1
15 8 11 1
16 7 14 1
17 16 15 1
18 17 16 Partial double
19 18 17 1
20 13 15 1
21 12 18 1
22 20 19 Partial double
23 21 20 Partial double
24 22 21 Partial double
25 17 19 Partial double
26 16 22 Partial double
27 24 23 1
28 25 24 1
29 15 25 Double
30 22 23 1
31 27 26 1
32 28 27 Partial double
33 29 28 Partial double
34 21 26 1
35 20 29 Partial double
36 31 30 1
37 32 31 1
38 18 30 1
39 19 32 1
40 34 33 Double
41 35 34 1
42 36 35 1
43 31 33 1
44 30 36 Double
45 38 37 1
46 39 38 1
47 40 39 Double
48 34 37 1
49 33 40 1
50 42 41 1
51 43 42 1
52 44 43 1
53 40 41 1
54 39 44 1
55 46 45 Partial double
56 32 46 1
57 29 45 Partial double
58 48 47 Partial double
59 49 48 1
60 45 49 Partial double
61 28 47 Partial double
62 51 50 Partial double
63 52 51 Partial double
64 53 52 Partial double
65 48 50 Partial double
66 47 53 Partial double
67 55 54 Partial double
68 56 55 Partial double
69 57 56 Partial double
70 52 54 Partial double
71 51 57 Partial double
72 59 58 Partial double
73 60 59 Partial double
74 61 60 Partial double
75 56 58 Partial double
76 55 61 Partial double
77 63 62 Partial double
78 27 63 Partial double
79 53 62 Partial double
80 65 64 Partial double
81 62 65 Partial double
82 54 64 Partial double
83 67 66 Partial double
84 64 67 Partial double
85 61 66 Partial double
86 69 68 Partial double
87 70 69 Partial double
88 66 70 Partial double
89 60 68 Partial double
90 72 71 1
91 73 72 1
92 74 73 1
93 59 71 1
94 58 74 1
95 76 75 1
96 77 76 1
97 78 77 1
98 73 75 1
99 72 78 1
100 80 79 1
101 81 80 1
102 82 81 1
103 78 79 1
104 77 82 1
105 84 83 Partial double
106 85 84 Partial double
107 67 85 Partial double
108 65 83 Partial double
109 87 86 1
110 88 87 1
111 89 88 1
112 84 86 1
113 83 89 1
114 91 90 1
115 92 91 1
116 93 92 1
117 88 90 1
118 87 93 1
119 95 94 Partial double
120 85 95 Partial double
121 70 94 Partial double
122 97 96 Partial double
123 98 97 Partial double
124 94 98 Partial double
125 69 96 Partial double
126 100 99 Partial double
127 101 100 Partial double
128 68 101 Partial double
129 96 99 Partial double
130 103 102 1
131 104 103 Partial double
132 97 102 1
133 99 104 1
134 106 105 1
135 107 106 1
136 100 105 1
137 104 107 Partial double
138 109 108 1
139 110 109 1
140 111 110 1
141 106 108 1
142 105 111 1
143 113 112 1
144 114 113 1
145 103 114 Partial double
146 107 112 Partial double
147 108 115 1
148 112 116 Partial double
149 115 116 Partial double
150 42 117 1
151 117 118 1
152 117 119 1
153 74 120 1
154 122 121 1
155 123 122 Partial double
156 124 123 1
157 114 121 Partial double
158 113 124 Partial double
159 126 125 Partial double
160 127 126 1
161 128 127 Partial double
162 124 125 Partial double
163 123 128 Partial double
164 130 129 Partial double
165 131 130 1
166 132 131 1
167 127 129 Partial double
168 126 132 Partial double
169 134 133 Partial double
170 135 134 Partial double
171 125 135 Partial double
172 132 133 Partial double
173 137 136 Partial double
174 138 137 Partial double
175 131 138 Partial double
176 133 136 Partial double
177 140 139 Partial double
178 134 140 Partial double
179 116 135 Partial double
180 115 139 Partial double
181 142 141 Partial double
182 140 142 Partial double
183 136 141 Partial double
184 144 143 1
185 145 144 1
186 146 145 1
187 142 143 1
188 141 146 1
189 146 147 Double
190 1 148 1
191 1 149 1
192 2 150 1
193 2 151 1
194 3 152 1
195 4 153 1
196 5 154 1
197 5 155 1
198 7 156 1
199 8 157 1
200 9 158 1
201 9 159 1
202 10 160 1
203 10 161 1
204 12 162 1
205 13 163 1
206 14 164 1
207 14 165 1
208 18 166 1
209 23 167 1
210 23 168 1
211 24 169 1
212 24 170 1
213 25 171 1
214 35 173 1
215 35 174 1
216 36 175 1
217 37 176 1
218 37 177 1
219 38 178 1
220 38 179 1
221 41 180 1
222 41 181 1
223 42 182 1
224 43 183 1
225 43 184 1
226 44 185 1
227 44 186 1
228 46 187 1
229 50 188 1
230 57 189 1
231 63 190 1
232 72 191 1
233 73 192 1
234 74 193 1
235 75 194 1
236 75 195 1
237 76 196 1
238 76 197 1
239 77 198 1
240 78 199 1
241 79 200 1
242 79 201 1
243 80 202 1
244 80 203 1
245 81 204 1
246 81 205 1
247 82 206 1
248 87 207 1
249 88 208 1
250 90 209 1
251 90 210 1
252 91 211 1
253 91 212 1
254 92 213 1
255 92 214 1
256 93 215 1
257 93 216 1
258 95 217 1
259 98 218 1
260 101 219 1
261 105 220 1
262 106 221 1
263 108 222 1
264 109 223 1
265 109 224 1
266 110 225 1
267 110 226 1
268 111 227 1
269 111 228 1
270 117 229 1
271 118 230 1
272 118 231 1
273 118 232 1
274 119 233 1
275 119 234 1
276 119 235 1
277 120 236 1
278 121 237 1
279 122 238 1
280 128 239 1
281 129 240 1
282 130 241 1
283 137 242 1
284 138 243 1
285 139 244 1
286 143 245 1
287 143 246 1
288 144 247 1
289 144 248 1
290 145 249 1
291 145 250 1
292 31 172 1
@<TRIPOS>MOLECULE
Sketch 4
250 292
SMALL
USER_CHARGES


@<TRIPOS>ATOM
1 C75000 0.742075955028567 1.09367710095895 0.0190168585881056 C 0.0 **** 0.0
2 C75001 0.745895349802071 1.07496819353632 0.0144954515754632 C 0.0 **** 0.0
3 C75002 0.733545709611019 1.06812460648114 0.0010516634848623 C 0.0 **** 0.0
4 C75003 0.714716492574055 1.07082673730184 0.00671569514095738 C 0.0 **** 0.0
5 C75004 0.713682245338896 1.08581098602201 0.0192818339284546 C 0.0 **** 0.0
6 O75005 0.725347815726453 1.09868122471395 0.0146625134491328 O 0.0 **** 0.0
7 C75012 0.70679017790011 1.05412371360274 0.0130962896106701 C 0.0 **** 0.0
8 C75013 0.706375669402481 1.04088165527898 -0.0013666935714725 C 0.0 **** 0.0
9 C75014 0.722410605900463 1.04127949436385 -0.0124291178604107 C 0.0 **** 0.0
10 C75015 0.737497188631323 1.04961636617724 -0.00363862083951316 C 0.0 **** 0.0
11 O75021 0.692840251578398 1.04402127313927 -0.0128993546199059 O 0.0 **** 0.0
12 C75022 0.676263798190319 1.04387923031383 -0.00559511919297057 C 0.0 **** 0.0
13 C75023 0.675114790321816 1.0578967213502 0.0078275018701555 C 0.0 **** 0.0
14 C75024 0.689036690734341 1.05574812361987 0.0211102812814957 C 0.0 **** 0.0
15 C75030 0.657563270703418 1.05874361481812 0.0155327436235283 C 0.0 **** 0.0
16 C75031 0.647620867970181 1.04252755444245 0.0172040506188361 C 0.0 **** 0.0
17 C75032 0.653517339013561 1.02767632978336 0.00992636411388105 C 0.0 **** 0.0
18 C75033 0.671092245635588 1.02673424389903 0.00179872415379424 C 0.0 **** 0.0
19 C75039 0.643515264522421 1.01324893234886 0.0108496829828568 C 0.0 **** 0.0
20 C75040 0.628482741027916 1.01347115098176 0.0198135421808737 C 0.0 **** 0.0
21 C75041 0.62270817347521 1.02831729025656 0.0271227725088095 C 0.0 **** 0.0
22 C75042 0.632312698290124 1.0429546829217 0.025806864449037 C 0.0 **** 0.0
23 C75048 0.626330760130993 1.05889212530705 0.0346354683318065 C 0.0 **** 0.0
24 C75049 0.632167904243256 1.07497482435528 0.0251765703237648 C 0.0 **** 0.0
25 C75050 0.650285103822891 1.07369862123672 0.019294173951435 C 0.0 **** 0.0
26 O75055 0.607416530495033 1.02900173408745 0.0356422146090425 O 0.0 **** 0.0
27 C75056 0.598825819205206 1.01424831681012 0.039154985251145 C 0.0 **** 0.0
28 C75057 0.603352151224648 0.998542046248533 0.0327786904927799 C 0.0 **** 0.0
29 C75058 0.618643905837453 0.997389847152794 0.0216518965103463 C 0.0 **** 0.0
30 C75064 0.67196384584716 1.0118101936044 -0.0100389721639525 C 0.0 **** 0.0
31 C75065 0.667763390362144 0.995790772523991 -0.000465149611884066 C 0.0 **** 0.0
32 C75066 0.648559092630084 0.997344560827904 0.00166062689949972 C 0.0 **** 0.0
33 C75071 0.672939656747175 0.97928724872574 -0.00943977918772813 C 0.0 **** 0.0
34 C75072 0.674314380359804 0.979760376643949 -0.0266352102204411 C 0.0 **** 0.0
35 C75073 0.673012158337272 0.995815497434581 -0.0371485334887605 C 0.0 **** 0.0
36 C75074 0.674097023087067 1.01192026959535 -0.0268622377859942 C 0.0 **** 0.0
37 C75080 0.679687977899322 0.964887554962825 -0.0370492059350451 C 0.0 **** 0.0
38 C75081 0.678909616695883 0.947932417863172 -0.0275959351343846 C 0.0 **** 0.0
39 C75082 0.679760267935106 0.949932001541881 -0.00871526193263216 C 0.0 **** 0.0
40 C75083 0.676510183381444 0.964831638789006 -0.000614125084544109 C 0.0 **** 0.0
41 C75089 0.677266346410323 0.964270648006434 0.0188125372398577 C 0.0 **** 0.0
42 C75090 0.691064855010617 0.952108770426109 0.0246045638305513 C 0.0 **** 0.0
43 C75091 0.68555912664496 0.934278881425339 0.0190732001043192 C 0.0 **** 0.0
44 C75092 0.683912186668963 0.933311429517683 -0.000226952656608994 C 0.0 **** 0.0
45 C75098 0.623810845664452 0.982639701163622 0.0145303582789431 C 0.0 **** 0.0
46 C75099 0.638530579620671 0.981539604576548 0.00575192909146385 C 0.0 **** 0.0
47 C75103 0.594604131597959 0.983876741821022 0.0383459039123852 C 0.0 **** 0.0
48 C75104 0.599039943926449 0.967370861915755 0.0332989626846764 C 0.0 **** 0.0
49 S75105 0.611228173254482 0.964581819945516 0.0154377847052528 S 0.0 **** 0.0
50 C75110 0.593835704552563 0.953268623050021 0.0419713024513343 C 0.0 **** 0.0
51 C75111 0.58258523498428 0.955001919978957 0.0557723032075662 C 0.0 **** 0.0
52 C75112 0.576423189861128 0.971284450595176 0.059885093546868 C 0.0 **** 0.0
53 C75113 0.582065132529945 0.985377123384194 0.0508195585573477 C 0.0 **** 0.0
54 C75119 0.56452569891528 0.972948774336333 0.0727970810356154 C 0.0 **** 0.0
55 C75120 0.558395659038653 0.958771439174035 0.0815043917417422 C 0.0 **** 0.0
56 C75121 0.562911011580486 0.942269030234355 0.0762220249259279 C 0.0 **** 0.0
57 C75122 0.576252721924159 0.940893448323625 0.0645341385861617 C 0.0 **** 0.0
58 C75128 0.553674263586952 0.928361588973548 0.0823464617534393 C 0.0 **** 0.0
59 C75129 0.543021485576042 0.930632208382438 0.0960943168890839 C 0.0 **** 0.0
60 C75130 0.540163478994665 0.946813740697247 0.103140487588274 C 0.0 **** 0.0
61 C75131 0.546827566144052 0.960828082361769 0.0946039342036125 C 0.0 **** 0.0
62 C75137 0.575779634673292 1.00140628819129 0.0549068107934887 C 0.0 **** 0.0
63 C75138 0.584958851435386 1.01566864721497 0.0494901531663377 C 0.0 **** 0.0
64 C75142 0.557422734683774 0.988809584150112 0.0758584058962467 C 0.0 **** 0.0
65 C75143 0.561530218150845 1.00253219153268 0.0655352837546296 C 0.0 **** 0.0
66 C75147 0.540916089966291 0.977022748431199 0.0984492599031899 C 0.0 **** 0.0
67 C75148 0.545167439637562 0.990668063845056 0.0881496299700547 C 0.0 **** 0.0
68 C75152 0.530433465977581 0.949501824227415 0.118174896653622 C 0.0 **** 0.0
69 C75153 0.525798507072777 0.96617306316093 0.122476526130987 C 0.0 **** 0.0
70 C75154 0.529963416666432 0.979511572370933 0.111981097607991 C 0.0 **** 0.0
71 O75159 0.534889550285797 0.91643572521053 0.102604016706703 O 0.0 **** 0.0
72 C75160 0.545632693784463 0.902117406222627 0.105832780847292 C 0.0 **** 0.0
73 C75161 0.559569504116852 0.899838248123161 0.0920560331704909 C 0.0 **** 0.0
74 C75162 0.554283955860011 0.910010154352843 0.0764420848079916 C 0.0 **** 0.0
75 C75168 0.563485060431621 0.881059869738169 0.0884986400194548 C 0.0 **** 0.0
76 C75169 0.563043085043037 0.870983110261204 0.104965446812001 C 0.0 **** 0.0
77 C75170 0.544713353978233 0.869715943133755 0.111291357329254 C 0.0 **** 0.0
78 C75171 0.534380420608884 0.886206231046294 0.107758651090367 C 0.0 **** 0.0
79 C75177 0.519919511950462 0.888600541644907 0.120692110158676 C 0.0 **** 0.0
80 C75178 0.513038456580801 0.871200642327333 0.125720078082321 C 0.0 **** 0.0
81 C75179 0.526752928011477 0.860131876207003 0.134359081937609 C 0.0 **** 0.0
82 N75180 0.544069353131941 0.863982037817503 0.128724352834267 N 0.0 **** 0.0
83 C75186 0.550889242591225 1.01685353806908 0.0649040559428762 C 0.0 **** 0.0
84 C75187 0.538158127894364 1.01860683534166 0.0767181787458404 C 0.0 **** 0.0
85 C75188 0.536244703300811 1.00604842689197 0.0893075834202083 C 0.0 **** 0.0
86 O75193 0.527978623518528 1.03279427599391 0.0765591914003118 O 0.0 **** 0.0
87 C75194 0.523498998357423 1.03600660936166 0.0592893575290808 C 0.0 **** 0.0
88 C75195 0.538674123560781 1.03795070168913 0.0476645465173575 C 0.0 **** 0.0
89 O75196 0.553590713560858 1.0292349586122 0.0528891334501994 O 0.0 **** 0.0
90 C75202 0.542924214163458 1.05658996488373 0.0443223173210622 C 0.0 **** 0.0
91 C75203 0.528604919132405 1.06569622569768 0.0348402287946947 C 0.0 **** 0.0
92 C75204 0.510995809258113 1.05970763215669 0.0408823588734809 C 0.0 **** 0.0
93 C75205 0.511829414406703 1.05159898974399 0.0584815339090758 C 0.0 **** 0.0
94 C75211 0.522680981623052 0.995663942303218 0.114873208195906 C 0.0 **** 0.0
95 C75212 0.525128806432581 1.00853273201396 0.102850325991982 C 0.0 **** 0.0
96 C75216 0.516045139140329 0.969215047023099 0.136933836888736 C 0.0 **** 0.0
97 C75217 0.510872570144992 0.98578989653394 0.141233468511554 C 0.0 **** 0.0
98 C75218 0.513554899401371 0.998645283088756 0.129945542956654 C 0.0 **** 0.0
99 C75223 0.509709373127265 0.955723392317402 0.146606009859776 C 0.0 **** 0.0
100 C75224 0.514082328003331 0.939279295805051 0.142709228070377 C 0.0 **** 0.0
101 C75225 0.524709328294534 0.936634469647288 0.129159892653017 C 0.0 **** 0.0
102 O75230 0.502810949684275 0.989195308166265 0.156308212376708 O 0.0 **** 0.0
103 C75231 0.49373072764496 0.976318366470765 0.163703855907392 C 0.0 **** 0.0
104 C75232 0.497098761126182 0.959759015824602 0.160084480334049 C 0.0 **** 0.0
105 C75237 0.50718869287656 0.924039454190118 0.152220132169979 C 0.0 **** 0.0
106 C75238 0.491193071794378 0.928420103771052 0.163693467177432 C 0.0 **** 0.0
107 C75239 0.488428518890098 0.94705922617133 0.167911868565756 C 0.0 **** 0.0
108 C75244 0.49104816239876 0.917921915551089 0.180213392370293 C 0.0 **** 0.0
109 C75245 0.495938704044002 0.899457008490682 0.17668066849856 C 0.0 **** 0.0
110 C75246 0.514359287634145 0.898244809472845 0.170022133223893 C 0.0 **** 0.0
111 C75247 0.520970775504691 0.91499605123065 0.162455672053622 C 0.0 **** 0.0
112 C75253 0.476525160326429 0.951041573854433 0.179756139762432 C 0.0 **** 0.0
113 C75254 0.472561602694922 0.967647292284649 0.182816810489466 C 0.0 **** 0.0
114 C75255 0.481260502060727 0.980269125330577 0.174946110020462 C 0.0 **** 0.0
115 C75260 0.473954759518883 0.920565129191232 0.188911893817559 C 0.0 **** 0.0
116 C75262 0.467560078109454 0.936914565644649 0.188913280390312 C 0.0 **** 0.0
117 C75265 0.695489807388327 0.954177718310693 0.0435031312608189 C 0.0 **** 0.0
118 C75267 0.6811182031474 0.949580301178681 0.0556033565693826 C 0.0 **** 0.0
119 C75269 0.711521544131695 0.944408374271908 0.0480643935761285 C 0.0 **** 0.0
120 O75271 0.565038371161588 0.906623344449494 0.0624207982440603 O 0.0 **** 0.0
121 C75273 0.477508593236168 0.996797547671896 0.178357819074513 C 0.0 **** 0.0
122 C75274 0.464996900136541 1.00070442073818 0.189493864012098 C 0.0 **** 0.0
123 C75275 0.455793245439058 0.988230089309284 0.196974735246361 C 0.0 **** 0.0
124 C75276 0.459742502642697 0.97171805207158 0.193654895582217 C 0.0 **** 0.0
125 C75282 0.449689999024184 0.958141750950756 0.201695719172013 C 0.0 **** 0.0
126 C75283 0.436775136001644 0.962601330194795 0.212235311048853 C 0.0 **** 0.0
127 C75284 0.433008721651214 0.980691515938104 0.21516362744364 C 0.0 **** 0.0
128 C75285 0.442735926027739 0.992814410487366 0.207550834222146 C 0.0 **** 0.0
129 C75291 0.419820338805348 0.985024154289168 0.225457507865469 C 0.0 **** 0.0
130 C75292 0.410186543539749 0.972886965857677 0.233242958101925 C 0.0 **** 0.0
131 C75293 0.413403873789129 0.955978734151288 0.231230338349451 C 0.0 **** 0.0
132 C75294 0.427380929204333 0.950414730289955 0.220111125942206 C 0.0 **** 0.0
133 C75300 0.431099165944688 0.933165384860137 0.218015902215698 C 0.0 **** 0.0
134 C75301 0.444505382743338 0.928577461199365 0.207467642126519 C 0.0 **** 0.0
135 C75302 0.453606806867543 0.941099580766706 0.198890935326667 C 0.0 **** 0.0
136 C75307 0.422190912676217 0.920782482782367 0.226972362178202 C 0.0 **** 0.0
137 C75308 0.407476634718218 0.927384176668744 0.23750841185268 C 0.0 **** 0.0
138 C75309 0.403793166274256 0.944167499369728 0.239282881454353 C 0.0 **** 0.0
139 C75314 0.465105440783678 0.90831980465016 0.197662591413841 C 0.0 **** 0.0
140 C75315 0.449822792772821 0.911672679397338 0.206616159074913 C 0.0 **** 0.0
141 C75320 0.427144097402138 0.903867029078015 0.225837504629229 C 0.0 **** 0.0
142 C75321 0.440645284765713 0.899158747131292 0.215484929952311 C 0.0 **** 0.0
143 C75325 0.446230629901411 0.880696788641923 0.214395119631086 C 0.0 **** 0.0
144 C75326 0.431083693859829 0.868696026522294 0.215180715460298 C 0.0 **** 0.0
145 C75327 0.421150325776277 0.872142653390192 0.231100650273128 C 0.0 **** 0.0
146 C75328 0.418189289926811 0.890341401257668 0.235794309230718 C 0.0 **** 0.0
147 O75334 0.409083551287628 0.892920753381521 0.247870206539609 O 0.0 **** 0.0
148 H75336 0.750443931637971 1.10219413154209 0.0119053262415901 H 0.0 **** 0.0
149 H75338 0.744464602624564 1.09605371933792 0.0325623814489385 H 0.0 **** 0.0
150 H75340 0.759082713733857 1.07351347826977 0.0102120032623144 H 0.0 **** 0.0
151 H75342 0.744720728403587 1.06693970905497 0.0258609241699308 H 0.0 **** 0.0
152 H75344 0.735418700607126 1.075840006776 -0.0104455538499288 H 0.0 **** 0.0
153 H75346 0.707578227657193 1.07460389574126 -0.00468968362328113 H 0.0 **** 0.0
154 H75348 0.715909511448923 1.08156428637918 0.0323956510807345 H 0.0 **** 0.0
155 H75350 0.70106542686664 1.09164272988638 0.0190340879833581 H 0.0 **** 0.0
156 H75352 0.715345250642496 1.04933285262815 0.0230417189041784 H 0.0 **** 0.0
157 H75354 0.705090247483095 1.02820402999529 0.00432740307347833 H 0.0 **** 0.0
158 H75356 0.71933485113265 1.04870540123575 -0.0238116959094846 H 0.0 **** 0.0
159 H75358 0.725742035534512 1.02850820957995 -0.016893300645294 H 0.0 **** 0.0
160 H75360 0.748855002727259 1.04911569155576 -0.0117037121318387 H 0.0 **** 0.0
161 H75362 0.740554911659798 1.04237899354752 0.00787045067629994 H 0.0 **** 0.0
162 H75364 0.667842848051113 1.04706421517195 -0.0162174773259295 H 0.0 **** 0.0
163 H75366 0.677391797397737 1.06998356936774 0.0012654835473259 H 0.0 **** 0.0
164 H75368 0.686544049227594 1.04414267715954 0.0284194191419312 H 0.0 **** 0.0
165 H75370 0.688682667557598 1.06611937608141 0.0304106597838506 H 0.0 **** 0.0
166 H75372 0.680106754881555 1.02377925790639 0.0120898254656428 H 0.0 **** 0.0
167 H75374 0.612466272231741 1.0590554560091 0.0358062842218993 H 0.0 **** 0.0
168 H75376 0.631369101254214 1.05908712485842 0.0476524105562604 H 0.0 **** 0.0
169 H75378 0.630563361554992 1.08603758415732 0.0335094707078597 H 0.0 **** 0.0
170 H75380 0.62399079729676 1.0771351438198 0.0140925337180927 H 0.0 **** 0.0
171 H75382 0.656813699786087 1.08565934674683 0.0173081629190206 H 0.0 **** 0.0
172 H75384 0.673874635714496 0.996662076665874 0.0119883997781637 H 0.0 **** 0.0
173 H75385 0.661160033073734 0.995659168656299 -0.0445048967922081 H 0.0 **** 0.0
174 H75387 0.683489494878765 0.99586034061789 -0.0464194727551456 H 0.0 **** 0.0
175 H75389 0.676185398691145 1.02370513815434 -0.0337003265392178 H 0.0 **** 0.0
176 H75391 0.671955375540412 0.964155812162777 -0.048651525212249 H 0.0 **** 0.0
177 H75393 0.692822182976054 0.967291568158775 -0.0410085359214725 H 0.0 **** 0.0
178 H75395 0.689383712872584 0.939814668181456 -0.0319678112643707 H 0.0 **** 0.0
179 H75397 0.667115477483412 0.941241531395124 -0.0308132379608919 H 0.0 **** 0.0
180 H75399 0.679858389384762 0.976749318958405 0.0242917218720565 H 0.0 **** 0.0
181 H75401 0.664905810915591 0.960291225883907 0.0238582206230373 H 0.0 **** 0.0
182 H75403 0.702777441865353 0.955309175988965 0.017624601380121 H 0.0 **** 0.0
183 H75405 0.673297863062394 0.931336370776149 0.0249643021064891 H 0.0 **** 0.0
184 H75407 0.694456284373765 0.924466040415937 0.023326268773397 H 0.0 **** 0.0
185 H75409 0.67436311447127 0.923816069470841 -0.00390013018735897 H 0.0 **** 0.0
186 H75411 0.696035055067544 0.928869496251536 -0.00552025639180532 H 0.0 **** 0.0
187 H75413 0.642864756222129 0.969583262205234 0.000553655454606907 H 0.0 **** 0.0
188 H75415 0.597843047696393 0.940587718988815 0.0380353859378472 H 0.0 **** 0.0
189 H75417 0.581516492216578 0.928623510571039 0.0609071328875889 H 0.0 **** 0.0
190 H75419 0.581727813264503 1.02842067667211 0.0539339045542455 H 0.0 **** 0.0
191 H75421 0.551807244402989 0.904306255932445 0.118092959801119 H 0.0 **** 0.0
192 H75423 0.571552876702852 0.905338843073256 0.0967401050390859 H 0.0 **** 0.0
193 H75425 0.541353572973693 0.905962036526808 0.0728550993218932 H 0.0 **** 0.0
194 H75427 0.554087910804061 0.875644656008251 0.0798021586947876 H 0.0 **** 0.0
195 H75429 0.5757983742322 0.879981295561394 0.0820998670425147 H 0.0 **** 0.0
196 H75431 0.571053591660013 0.877327371251362 0.114456279886022 H 0.0 **** 0.0
197 H75433 0.568256775306087 0.858166002606605 0.10334454513666 H 0.0 **** 0.0
198 H75435 0.538706287626987 0.859616834854926 0.10373226053958 H 0.0 **** 0.0
199 H75437 0.528453325618296 0.884481149415416 0.0952380664327833 H 0.0 **** 0.0
200 H75439 0.524837893386494 0.894891791396832 0.13209616593703 H 0.0 **** 0.0
201 H75441 0.509964123411058 0.896836840469033 0.115528793348581 H 0.0 **** 0.0
202 H75443 0.508644539116235 0.864840757571895 0.114098143588955 H 0.0 **** 0.0
203 H75445 0.50185936433705 0.872101136939047 0.133969273924459 H 0.0 **** 0.0
204 H75447 0.52424276517861 0.846658643306175 0.13180428445561 H 0.0 **** 0.0
205 H75449 0.526132406166682 0.861558479647848 0.148199394420094 H 0.0 **** 0.0
206 H75451 0.549430729171282 0.872630181738172 0.136262560529947 H 0.0 **** 0.0
207 H75453 0.516070977419632 1.02500149194367 0.0549316081390236 H 0.0 **** 0.0
208 H75455 0.535181156022844 1.03251822664178 0.0352842052208752 H 0.0 **** 0.0
209 H75457 0.545256782674315 1.06286932011494 0.0565318346167395 H 0.0 **** 0.0
210 H75459 0.554869973056012 1.05730094488568 0.037189820428047 H 0.0 **** 0.0
211 H75461 0.529817083403447 1.06335283261787 0.0211710394292516 H 0.0 **** 0.0
212 H75463 0.529932153533197 1.07945398148973 0.03648551528994 H 0.0 **** 0.0
213 H75465 0.505944597492215 1.0502987150703 0.0319166327476235 H 0.0 **** 0.0
214 H75467 0.502039419496576 1.07036629807591 0.040796330794862 H 0.0 **** 0.0
215 H75469 0.499148084251243 1.04798409827955 0.0629179889005434 H 0.0 **** 0.0
216 H75471 0.516645170230308 1.06094538758406 0.0676163108533932 H 0.0 **** 0.0
217 H75473 0.518737635084794 1.02073618857661 0.104376831676732 H 0.0 **** 0.0
218 H75475 0.508554566046834 1.01134131292505 0.132569507012441 H 0.0 **** 0.0
219 H75477 0.528245408191239 0.923438544145643 0.127192421089276 H 0.0 **** 0.0
220 H75479 0.502570902293192 0.914878428171713 0.142736773163756 H 0.0 **** 0.0
221 H75481 0.480086851816578 0.924468931743088 0.156189671212786 H 0.0 **** 0.0
222 H75483 0.500785743860883 0.923080282989528 0.18883631647998 H 0.0 **** 0.0
223 H75485 0.487130414121026 0.894225879513434 0.167233667577773 H 0.0 **** 0.0
224 H75487 0.494783773308479 0.891544650666779 0.18807287297905 H 0.0 **** 0.0
225 H75489 0.515152649745887 0.888180285195015 0.160437293912669 H 0.0 **** 0.0
226 H75491 0.522830698878629 0.894312750632106 0.180365474421987 H 0.0 **** 0.0
227 H75493 0.532274072527442 0.912464578608069 0.154706665007082 H 0.0 **** 0.0
228 H75495 0.525191984870178 0.923327262536663 0.172769210915594 H 0.0 **** 0.0
229 H75497 0.698380993640272 0.967720477502267 0.0455350862857296 H 0.0 **** 0.0
230 H75499 0.684954135498103 0.951647951564403 0.0688297718408333 H 0.0 **** 0.0
231 H75501 0.677547456068438 0.936222187238339 0.0542870616561656 H 0.0 **** 0.0
232 H75503 0.669853583103487 0.957393434969108 0.0533011426116086 H 0.0 **** 0.0
233 H75505 0.722382865070541 0.94877350063443 0.0405273936795098 H 0.0 **** 0.0
234 H75507 0.70997002041827 0.930791009828756 0.0458070322642654 H 0.0 **** 0.0
235 H75509 0.714724525645923 0.946127517025278 0.0614866758730114 H 0.0 **** 0.0
236 H75511 0.560894319654138 0.913460543538226 0.0534448223170567 H 0.0 **** 0.0
237 H75513 0.484418638240755 1.00714396282962 0.172395599959587 H 0.0 **** 0.0
238 H75515 0.462444047994853 1.01394009056153 0.192306284851322 H 0.0 **** 0.0
239 H75517 0.440054310160989 1.00619741896113 0.209785100526504 H 0.0 **** 0.0
240 H75519 0.416709376866218 0.99828866626407 0.227664520614853 H 0.0 **** 0.0
241 H75521 0.399822960289374 0.97713374929766 0.241262831604135 H 0.0 **** 0.0
242 H75523 0.399259220815151 0.918553696596522 0.244045333495326 H 0.0 **** 0.0
243 H75525 0.393136930063882 0.947772964991814 0.24727516997251 H 0.0 **** 0.0
244 H75527 0.47038030549805 0.895517971227318 0.197619707339221 H 0.0 **** 0.0
245 H75529 0.452991012794185 0.878098402856007 0.202538196033908 H 0.0 **** 0.0
246 H75531 0.455104421171836 0.877822902597872 0.224793447470088 H 0.0 **** 0.0
247 H75533 0.435146541275165 0.855374277464746 0.214901302446625 H 0.0 **** 0.0
248 H75535 0.423145949123108 0.870670718356864 0.203926236826015 H 0.0 **** 0.0
249 H75537 0.427519164942448 0.867148997905932 0.242436414259846 H 0.0 **** 0.0
250 H75539 0.408278866594873 0.86687653410143 0.231277767463369 H 0.0 **** 0.0
@<TRIPOS>BOND
1 3 2 1
2 4 3 1
3 5 4 1
4 6 5 1
5 1 2 1
6 1 6 1
7 8 7 1
8 9 8 1
9 10 9 1
10 4 7 1
11 3 10 1
12 12 11 1
13 13 12 1
14 14 13 1
15 8 11 1
16 7 14 1
17 16 15 1
18 17 16 Partial double
19 18 17 1
20 13 15 1
21 12 18 1
22 20 19 Partial double
23 21 20 Partial double
24 22 21 Partial double
25 17 19 Partial double
26 16 22 Partial double
27 24 23 1
28 25 24 1
29 15 25 Double
30 22 23 1
31 27 26 1
32 28 27 Partial double
33 29 28 Partial double
34 21 26 1
35 20 29 Partial double
36 31 30 1
37 32 31 1
38 18 30 1
39 19 32 1
40 34 33 Double
41 35 34 1
42 36 35 1
43 31 33 1
44 30 36 Double
45 38 37 1
46 39 38 1
47 40 39 Double
48 34 37 1
49 33 40 1
50 42 41 1
51 43 42 1
52 44 43 1
53 40 41 1
54 39 44 1
55 46 45 Partial double
56 32 46 1
57 29 45 Partial double
58 48 47 Partial double
59 49 48 1
60 45 49 Partial double
61 28 47 Partial double
62 51 50 Partial double
63 52 51 Partial double
64 53 52 Partial double
65 48 50 Partial double
66 47 53 Partial double
67 55 54 Partial double
68 56 55 Partial double
69 57 56 Partial double
70 52 54 Partial double
71 51 57 Partial double
72 59 58 Partial double
73 60 59 Partial double
74 61 60 Partial double
75 56 58 Partial double
76 55 61 Partial double
77 63 62 Partial double
78 27 63 Partial double
79 53 62 Partial double
80 65 64 Partial double
81 62 65 Partial double
82 54 64 Partial double
83 67 66 Partial double
84 64 67 Partial double
85 61 66 Partial double
86 69 68 Partial double
87 70 69 Partial double
88 66 70 Partial double
89 60 68 Partial double
90 72 71 1
91 73 72 1
92 74 73 1
93 59 71 1
94 58 74 1
95 76 75 1
96 77 76 1
97 78 77 1
98 73 75 1
99 72 78 1
100 80 79 1
101 81 80 1
102 82 81 1
103 78 79 1
104 77 82 1
105 84 83 Partial double
106 85 84 Partial double
107 67 85 Partial double
108 65 83 Partial double
109 87 86 1
110 88 87 1
111 89 88 1
112 84 86 1
113 83 89 1
114 91 90 1
115 92 91 1
116 93 92 1
117 88 90 1
118 87 93 1
119 95 94 Partial double
120 85 95 Partial double
121 70 94 Partial double
122 97 96 Partial double
123 98 97 Partial double
124 94 98 Partial double
125 69 96 Partial double
126 100 99 Partial double
127 101 100 Partial double
128 68 101 Partial double
129 96 99 Partial double
130 103 102 1
131 104 103 Partial double
132 97 102 1
133 99 104 1
134 106 105 1
135 107 106 1
136 100 105 1
137 104 107 Partial double
138 109 108 1
139 110 109 1
140 111 110 1
141 106 108 1
142 105 111 1
143 113 112 1
144 114 113 1
145 103 114 Partial double
146 107 112 Partial double
147 108 115 1
148 112 116 Partial double
149 115 116 Partial double
150 42 117 1
151 117 118 1
152 117 119 1
153 74 120 1
154 122 121 1
155 123 122 Partial double
156 124 123 1
157 114 121 Partial double
158 113 124 Partial double
159 126 125 Partial double
160 127 126 1
161 128 127 Partial double
162 124 125 Partial double
163 123 128 Partial double
164 130 129 Partial double
165 131 130 1
166 132 131 1
167 127 129 Partial double
168 126 132 Partial double
169 134 133 Partial double
170 135 134 Partial double
171 125 135 Partial double
172 132 133 Partial double
173 137 136 Partial double
174 138 137 Partial double
175 131 138 Partial double
176 133 136 Partial double
177 140 139 Partial double
178 134 140 Partial double
179 116 135 Partial double
180 115 139 Partial double
181 142 141 Partial double
182 140 142 Partial double
183 136 141 Partial double
184 144 143 1
185 145 144 1
186 146 145 1
187 142 143 1
188 141 146 1
189 146 147 Double
190 1 148 1
191 1 149 1
192 2 150 1
193 2 151 1
194 3 152 1
195 4 153 1
196 5 154 1
197 5 155 1
198 7 156 1
199 8 157 1
200 9 158 1
201 9 159 1
202 10 160 1
203 10 161 1
204 12 162 1
205 13 163 1
206 14 164 1
207 14 165 1
208 18 166 1
209 23 167 1
210 23 168 1
211 24 169 1
212 24 170 1
213 25 171 1
214 35 173 1
215 35 174 1
216 36 175 1
217 37 176 1
218 37 177 1
219 38 178 1
220 38 179 1
221 41 180 1
222 41 181 1
223 42 182 1
224 43 183 1
225 43 184 1
226 44 185 1
227 44 186 1
228 46 187 1
229 50 188 1
230 57 189 1
231 63 190 1
232 72 191 1
233 73 192 1
234 74 193 1
235 75 194 1
236 75 195 1
237 76 196 1
238 76 197 1
239 77 198 1
240 78 199 1
241 79 200 1
242 79 201 1
243 80 202 1
244 80 203 1
245 81 204 1
246 81 205 1
247 82 206 1
248 87 207 1
249 88 208 1
250 90 209 1
251 90 210 1
252 91 211 1
253 91 212 1
254 92 213 1
255 92 214 1
256 93 215 1
257 93 216 1
258 95 217 1
259 98 218 1
260 101 219 1
261 105 220 1
262 106 221 1
263 108 222 1
264 109 223 1
265 109 224 1
266 110 225 1
267 110 226 1
268 111 227 1
269 111 228 1
270 117 229 1
271 118 230 1
272 118 231 1
273 118 232 1
274 119 233 1
275 119 234 1
276 119 235 1
277 120 236 1
278 121 237 1
279 122 238 1
280 128 239 1
281 129 240 1
282 130 241 1
283 137 242 1
284 138 243 1
285 139 244 1
286 143 245 1
287 143 246 1
288 144 247 1
289 144 248 1
290 145 249 1
291 145 250 1
292 31 172 1
@<TRIPOS>MOLECULE
Sketch 4
250 292
SMALL
USER_CHARGES


@<TRIPOS>ATOM
1 C75542 0.367538492879149 -0.0859143036530167 0.26891148271357 C 0.0 **** 0.0
2 C75543 0.350694594437468 -0.0941956144795866 0.273486629756767 C 0.0 **** 0.0
3 C75544 0.344613501007414 -0.106254485897238 0.259445488045225 C 0.0 **** 0.0
4 C75545 0.345826951263837 -0.0975835608838952 0.241802010307785 C 0.0 **** 0.0
5 C75546 0.363195375712009 -0.0890182805195803 0.240152576897376 C 0.0 **** 0.0
6 O75547 0.36613453804034 -0.0771383200556582 0.253294840907116 O 0.0 **** 0.0
7 C75554 0.330359957322472 -0.0860273052458968 0.238351694273669 C 0.0 **** 0.0
8 C75555 0.313611102062671 -0.0963216957372388 0.239537521304137 C 0.0 **** 0.0
9 C75556 0.315767784766583 -0.113825373080433 0.247558204004396 C 0.0 **** 0.0
10 C75557 0.326773091668166 -0.113294316244116 0.263395841440496 C 0.0 **** 0.0
11 O75563 0.306256972682433 -0.0990745581383142 0.223234440212688 O 0.0 **** 0.0
12 C75564 0.299765123654498 -0.0838389374867733 0.215952704296479 C 0.0 **** 0.0
13 C75565 0.313699819362658 -0.0698548781641064 0.215022491300066 C 0.0 **** 0.0
14 C75566 0.331023205599995 -0.0770405776377043 0.221012921979117 C 0.0 **** 0.0
15 C75572 0.309891049025271 -0.0527426764956739 0.222840670617636 C 0.0 **** 0.0
16 C75573 0.293283322798779 -0.0496957820714811 0.231712188486981 C 0.0 **** 0.0
17 C75574 0.28034793918831 -0.0615291458719671 0.231203736323595 C 0.0 **** 0.0
18 C75575 0.282663524803221 -0.0795609520915432 0.224825543388031 C 0.0 **** 0.0
19 C75581 0.264455536717119 -0.057097679887431 0.237475804605054 C 0.0 **** 0.0
20 C75582 0.262478320306153 -0.0421066401694176 0.246341751150065 C 0.0 **** 0.0
21 C75583 0.275683012119778 -0.0306551674307185 0.247497624437205 C 0.0 **** 0.0
22 C75584 0.291021834105099 -0.0342623153018457 0.239793833900657 C 0.0 **** 0.0
23 C75590 0.305389966708892 -0.0216402725115308 0.241184653722322 C 0.0 **** 0.0
24 C75591 0.316270922430862 -0.0217901232685744 0.224989604474056 C 0.0 **** 0.0
25 C75592 0.320268943410637 -0.0396037304731731 0.219472887306968 C 0.0 **** 0.0
26 O75597 0.273962746749883 -0.0154362378953786 0.255961847652914 O 0.0 **** 0.0
27 C75598 0.258833219509761 -0.0113673868678276 0.263616993387381 C 0.0 **** 0.0
28 C75599 0.245018896492845 -0.0221165498929864 0.264342458624412 C 0.0 **** 0.0
29 C75600 0.246146722686149 -0.0388302711490637 0.255380136733546 C 0.0 **** 0.0
30 C75606 0.266636931793051 -0.0847792251080753 0.21608956632766 C 0.0 **** 0.0
31 C75607 0.252843752530577 -0.086416843313171 0.229344272667871 C 0.0 **** 0.0
32 C75608 0.248883702094826 -0.0678860845464307 0.234143724918159 C 0.0 **** 0.0
33 C75613 0.237257386391614 -0.0966097365086155 0.223164671581573 C 0.0 **** 0.0
34 C75614 0.234041362040914 -0.0964251806690824 0.206168956200508 C 0.0 **** 0.0
35 C75615 0.245649807187142 -0.0884985072683562 0.193049548383975 C 0.0 **** 0.0
36 C75616 0.263368014738761 -0.0853110542097752 0.199476661680264 C 0.0 **** 0.0
37 C75622 0.219882499995543 -0.106010028915822 0.197965590218838 C 0.0 **** 0.0
38 C75623 0.206573268348433 -0.112461210589584 0.210536791287207 C 0.0 **** 0.0
39 C75624 0.213082179864953 -0.113852510165884 0.228330198299254 C 0.0 **** 0.0
40 C75625 0.227487484382211 -0.106103191911709 0.233915275194008 C 0.0 **** 0.0
41 C75631 0.232098383293417 -0.108750118599882 0.252717834136284 C 0.0 **** 0.0
42 C75632 0.224876750403448 -0.125129936451851 0.259916312956252 C 0.0 **** 0.0
43 C75633 0.205566781796767 -0.124624537720002 0.257730675698741 C 0.0 **** 0.0
44 C75634 0.201100454177887 -0.124274297928593 0.238963815869651 C 0.0 **** 0.0
45 C75640 0.233578925964453 -0.0505421100707078 0.25567823277724 C 0.0 **** 0.0
46 C75641 0.234374327913441 -0.0649798818322762 0.246337584766033 C 0.0 **** 0.0
47 C75645 0.230082665581632 -0.0165980097835845 0.27256865218059 C 0.0 **** 0.0
48 C75646 0.215442277222467 -0.0267916501185966 0.273849461094166 C 0.0 **** 0.0
49 S75647 0.215860499290883 -0.0480012038782288 0.268461762181085 S 0.0 **** 0.0
50 C75652 0.200645001059484 -0.020778014180798 0.280433912026008 C 0.0 **** 0.0
51 C75653 0.199970642637236 -0.00430214691459412 0.287261004729885 C 0.0 **** 0.0
52 C75654 0.214562905372174 0.00605959236245547 0.286988914452199 C 0.0 **** 0.0
53 C75655 0.229381814356265 -0.000215378475026309 0.279744053268621 C 0.0 **** 0.0
54 C75661 0.21426066979495 0.0215937221863128 0.295487009571805 C 0.0 **** 0.0
55 C75662 0.199824711303598 0.0265452159269641 0.304662005437401 C 0.0 **** 0.0
56 C75663 0.186515038211817 0.0148589025033801 0.30739986994797 C 0.0 **** 0.0
57 C75664 0.185848281259568 0.000790207598437094 0.296697641587134 C 0.0 **** 0.0
58 C75670 0.175754637075941 0.0166467175756694 0.321506429396778 C 0.0 **** 0.0
59 C75671 0.175005433500524 0.0322156247930411 0.329410107474556 C 0.0 **** 0.0
60 C75672 0.186029698858 0.0455036211158226 0.324346469383573 C 0.0 **** 0.0
61 C75673 0.199738254956533 0.0415501805473772 0.313786032884363 C 0.0 **** 0.0
62 C75679 0.244055847427913 0.0096928013939862 0.280490859636605 C 0.0 **** 0.0
63 C75680 0.258002783009224 0.00434491659176069 0.27096128373484 C 0.0 **** 0.0
64 C75684 0.229301525430703 0.0307585569276891 0.297336404696315 C 0.0 **** 0.0
65 C75685 0.244559413980076 0.0238815377201002 0.291455126842616 C 0.0 **** 0.0
66 C75689 0.214802789780263 0.0507488181553097 0.315405581018201 C 0.0 **** 0.0
67 C75690 0.229562628746756 0.0450109077656537 0.30751813936542 C 0.0 **** 0.0
68 C75694 0.185757368475884 0.061225200763553 0.332905842840981 C 0.0 **** 0.0
69 C75695 0.201333491540662 0.0692355366082996 0.335740989466942 C 0.0 **** 0.0
70 C75696 0.215672217663448 0.0637985855144861 0.327276235082764 C 0.0 **** 0.0
71 O75701 0.163494698676784 0.0348234979808473 0.342450792263414 O 0.0 **** 0.0
72 C75702 0.164232537459523 0.0219864216790138 0.355280211179806 C 0.0 **** 0.0
73 C75703 0.166797556626139 0.00385729014898498 0.347938141885811 C 0.0 **** 0.0
74 C75704 0.164007060240467 0.00326932282363332 0.328791010991071 C 0.0 **** 0.0
75 C75710 0.156273601139543 -0.00963209440657535 0.357318704267166 C 0.0 **** 0.0
76 C75711 0.157506811103236 -0.00679436832060018 0.376368798684636 C 0.0 **** 0.0
77 C75712 0.14865818662556 0.00979659493780623 0.381402874097776 C 0.0 **** 0.0
78 C75713 0.148318339013457 0.022874260810549 0.366665104496039 C 0.0 **** 0.0
79 C75719 0.144483795665357 0.0409621000559595 0.372930508818495 C 0.0 **** 0.0
80 C75720 0.135781150306291 0.040398715186402 0.390205692606709 C 0.0 **** 0.0
81 C75721 0.14663212018424 0.0314188336327644 0.403690795175898 C 0.0 **** 0.0
82 N75722 0.155584199391451 0.0163735354966922 0.397103567530708 N 0.0 **** 0.0
83 C75728 0.260302121255347 0.0296107581882099 0.297994105975841 C 0.0 **** 0.0
84 C75729 0.260714856976798 0.0441662490941496 0.307558387182272 C 0.0 **** 0.0
85 C75730 0.24530305339323 0.0519634688071893 0.312133621218639 C 0.0 **** 0.0
86 O75735 0.275544379443586 0.0511449270184941 0.313754713077116 O 0.0 **** 0.0
87 C75736 0.290845321065122 0.0435349096977038 0.307978634673722 C 0.0 **** 0.0
88 C75737 0.289172033088966 0.0248322295174113 0.304896455637689 C 0.0 **** 0.0
89 O75738 0.274973079029443 0.0206858896986107 0.294593304918609 O 0.0 **** 0.0
90 C75744 0.28929048890214 0.0141438008763 0.321358999825343 C 0.0 **** 0.0
91 C75745 0.286161048827965 0.0246013229777871 0.337455645084789 C 0.0 **** 0.0
92 C75746 0.298475916906783 0.039748731219668 0.338911424032084 C 0.0 **** 0.0
93 C75747 0.30449317390248 0.0463493338113291 0.321478541287837 C 0.0 **** 0.0
94 C75753 0.231407748068611 0.0709981680249908 0.331825523285517 C 0.0 **** 0.0
95 C75754 0.246068119011064 0.0653386384827433 0.323684088997437 C 0.0 **** 0.0
96 C75758 0.202101218070074 0.0827196658786868 0.347110906667523 C 0.0 **** 0.0
97 C75759 0.217902898227996 0.0891304610033773 0.352396542637479 C 0.0 **** 0.0
98 C75760 0.232308868708075 0.0831121206752816 0.344910857968604 C 0.0 **** 0.0
99 C75765 0.18726278054038 0.0906228554808676 0.352908900695831 C 0.0 **** 0.0
100 C75766 0.171544639950455 0.0844371376947066 0.348227941673132 C 0.0 **** 0.0
101 C75767 0.171052725368027 0.0696505471583132 0.338846850110236 C 0.0 **** 0.0
102 O75772 0.219256789225314 0.101213247853891 0.364800525578148 O 0.0 **** 0.0
103 C75773 0.205262944120016 0.110894594592756 0.368405496223279 C 0.0 **** 0.0
104 C75774 0.18934943476245 0.106207684438409 0.363476045175362 C 0.0 **** 0.0
105 C75779 0.155169103190464 0.0937348875412368 0.352587186143232 C 0.0 **** 0.0
106 C75780 0.157825394451512 0.111675173627195 0.361708531591443 C 0.0 **** 0.0
107 C75781 0.175656945914176 0.115778914666936 0.36785995766451 C 0.0 **** 0.0
108 C75786 0.144759739133284 0.114661427503817 0.37597819471358 C 0.0 **** 0.0
109 C75787 0.12686745978923 0.109985453180434 0.369978512495941 C 0.0 **** 0.0
110 C75788 0.125613117793498 0.0910225503296902 0.365315747255561 C 0.0 **** 0.0
111 C75789 0.142880918946417 0.0824733969397602 0.362421637857704 C 0.0 **** 0.0
112 C75795 0.177938046154175 0.129725209866412 0.377841545011177 C 0.0 **** 0.0
113 C75796 0.193971332240907 0.134685414278882 0.382316869683338 C 0.0 **** 0.0
114 C75797 0.207604024318753 0.125312984762547 0.377556764422734 C 0.0 **** 0.0
115 C75802 0.146483390213126 0.132846923878826 0.382417268603363 C 0.0 **** 0.0
116 C75804 0.162658702146471 0.139566800129216 0.383701095283874 C 0.0 **** 0.0
117 C75807 0.230975871157307 -0.128595289586696 0.278192690906505 C 0.0 **** 0.0
118 C75809 0.22438547269632 -0.115930709620001 0.291316929121557 C 0.0 **** 0.0
119 C75811 0.2267685001292 -0.146629823938554 0.283951506778531 C 0.0 **** 0.0
120 O75813 0.167199935449833 -0.0134193639570854 0.322916285487344 O 0.0 **** 0.0
121 C75815 0.223563567497871 0.130162335607231 0.382166870671241 C 0.0 **** 0.0
122 C75816 0.225993950879793 0.144250453118977 0.391696170686124 C 0.0 **** 0.0
123 C75817 0.212454074859401 0.153659412301496 0.396676303917533 C 0.0 **** 0.0
124 C75818 0.196526250514264 0.14894113893046 0.391739313604245 C 0.0 **** 0.0
125 C75824 0.181880765959533 0.159347833509737 0.396978157512786 C 0.0 **** 0.0
126 C75825 0.184733683852206 0.172786045585401 0.4074501907869 C 0.0 **** 0.0
127 C75826 0.202204019873291 0.177160729977165 0.412473647818723 C 0.0 **** 0.0
128 C75827 0.215384192317922 0.167551048359275 0.40674548360472 C 0.0 **** 0.0
129 C75833 0.204928488128789 0.190587660437371 0.423025777939271 C 0.0 **** 0.0
130 C75834 0.191689650952598 0.199655512883044 0.429598291811948 C 0.0 **** 0.0
131 C75835 0.175272258261151 0.195691050702246 0.425802736880504 C 0.0 **** 0.0
132 C75836 0.171490538319222 0.181909779432153 0.413739434848409 C 0.0 **** 0.0
133 C75842 0.154744195136802 0.177698239410797 0.409700035458277 C 0.0 **** 0.0
134 C75843 0.151792831016677 0.16428454324176 0.398544013210868 C 0.0 **** 0.0
135 C75844 0.165396206166421 0.15478048498072 0.39234591344055 C 0.0 **** 0.0
136 C75849 0.141204197881083 0.185843063074368 0.417710175590696 C 0.0 **** 0.0
137 C75850 0.145983370485626 0.200007922696905 0.429721896691608 C 0.0 **** 0.0
138 C75851 0.16232190174644 0.204184618409437 0.433290374136147 C 0.0 **** 0.0
139 C75856 0.133124263506043 0.142568221935349 0.388071891185689 C 0.0 **** 0.0
140 C75857 0.135207280816896 0.158735526949425 0.395735011115687 C 0.0 **** 0.0
141 C75862 0.124699129022467 0.180873373010869 0.414228237662747 C 0.0 **** 0.0
142 C75863 0.121595322773731 0.16803403080232 0.402582096763565 C 0.0 **** 0.0
143 C75867 0.10352799066356 0.162978269421266 0.398420906943839 C 0.0 **** 0.0
144 C75868 0.0921019309714893 0.178605200074784 0.397617765202364 C 0.0 **** 0.0
145 C75869 0.0928071340406174 0.187526913904675 0.414512049553406 C 0.0 **** 0.0
146 C75870 0.109856831814972 0.189063747339114 0.422821207904398 C 0.0 **** 0.0
147 O75876 0.110425396216263 0.19618461444405 0.436393451717412 O 0.0 **** 0.0
148 H75878 0.377801423366642 -0.0953955807446794 0.26847130138116 H 0.0 **** 0.0
149 H75880 0.371152913113267 -0.0764624078879117 0.278441764461522 H 0.0 **** 0.0
150 H75882 0.351678938950486 -0.100936545944461 0.285639679260285 H 0.0 **** 0.0
151 H75884 0.341262977159158 -0.0840676677797159 0.275194730970188 H 0.0 **** 0.0
152 H75886 0.353543152235644 -0.117001647532162 0.259139695653454 H 0.0 **** 0.0
153 H75888 0.345461417183734 -0.107596154030074 0.232079425625772 H 0.0 **** 0.0
154 H75890 0.364327252652126 -0.0819659027002967 0.228275851110107 H 0.0 **** 0.0
155 H75892 0.373196255328678 -0.0987943511799654 0.23989774870582 H 0.0 **** 0.0
156 H75894 0.330233238446287 -0.076188452154065 0.248243332985706 H 0.0 **** 0.0
157 H75896 0.304948855012096 -0.0891272259183731 0.24775967998914 H 0.0 **** 0.0
158 H75898 0.321574245669342 -0.122231422853805 0.238138037395658 H 0.0 **** 0.0
159 H75900 0.303161353303199 -0.119109412378871 0.250260226153378 H 0.0 **** 0.0
160 H75902 0.327742431872991 -0.125910874105861 0.269218150592421 H 0.0 **** 0.0
161 H75904 0.320421962078715 -0.105197025651719 0.272805754095532 H 0.0 **** 0.0
162 H75906 0.2974825857292 -0.0875074041387671 0.202746905861695 H 0.0 **** 0.0
163 H75908 0.315415607177304 -0.0668401302418775 0.201483833614738 H 0.0 **** 0.0
164 H75910 0.340995554031191 -0.0673442523443534 0.220739446502604 H 0.0 **** 0.0
165 H75912 0.334843954215753 -0.0865296605297422 0.211570875673739 H 0.0 **** 0.0
166 H75914 0.282935608433815 -0.0875647361900209 0.236266397566307 H 0.0 **** 0.0
167 H75916 0.300603519778061 -0.0087697019211855 0.243398033419953 H 0.0 **** 0.0
168 H75918 0.313349290156048 -0.0248366227291841 0.252191677387245 H 0.0 **** 0.0
169 H75920 0.328061543390782 -0.0146560249304603 0.2271552122902 H 0.0 **** 0.0
170 H75922 0.309510620195006 -0.0152491433928087 0.214707256298049 H 0.0 **** 0.0
171 H75924 0.331606288212552 -0.0409897676305677 0.211765613253157 H 0.0 **** 0.0
172 H75926 0.258310484543056 -0.0927961986006043 0.240421956098544 H 0.0 **** 0.0
173 H75927 0.240072970441455 -0.0765907205206218 0.188403739269899 H 0.0 **** 0.0
174 H75929 0.246449213087177 -0.0971017042029088 0.182054069992564 H 0.0 **** 0.0
175 H75931 0.273089102107575 -0.0825189402755814 0.190116269606882 H 0.0 **** 0.0
176 H75933 0.213696762327307 -0.0980036152175862 0.188339026300553 H 0.0 **** 0.0
177 H75935 0.225411020063911 -0.116852390283126 0.191151721672122 H 0.0 **** 0.0
178 H75937 0.201904201306637 -0.124906209220853 0.206248604440338 H 0.0 **** 0.0
179 H75939 0.195584491542507 -0.103869644084298 0.210605543849306 H 0.0 **** 0.0
180 H75941 0.245892414734213 -0.109020762943143 0.254399498729032 H 0.0 **** 0.0
181 H75943 0.227394472416562 -0.0979835649445262 0.260167511927738 H 0.0 **** 0.0
182 H75945 0.229719762908785 -0.135712245845793 0.252137562895589 H 0.0 **** 0.0
183 H75947 0.200544163964794 -0.113254300952225 0.264040457044718 H 0.0 **** 0.0
184 H75949 0.199317635180593 -0.135557470323599 0.263697865099604 H 0.0 **** 0.0
185 H75951 0.18805746873678 -0.119640284800693 0.237114128618834 H 0.0 **** 0.0
186 H75953 0.201378287490105 -0.137333231098993 0.234044067754856 H 0.0 **** 0.0
187 H75955 0.224283380828873 -0.0743028004816192 0.246845022293523 H 0.0 **** 0.0
188 H75957 0.189520560975503 -0.0289926012485477 0.281590301651369 H 0.0 **** 0.0
189 H75959 0.175279044187466 -0.00813071604768463 0.297132299781978 H 0.0 **** 0.0
190 H75961 0.269329633183735 0.0122288785073074 0.269575929420216 H 0.0 **** 0.0
191 H75963 0.175216699079569 0.0250302766094895 0.363314239107599 H 0.0 **** 0.0
192 H75965 0.1801532917733 0.000185374583483268 0.349906184114905 H 0.0 **** 0.0
193 H75967 0.150748947936329 0.00604510466812367 0.325708372348154 H 0.0 **** 0.0
194 H75969 0.142969396343694 -0.00890622469493484 0.353296691367313 H 0.0 **** 0.0
195 H75971 0.160774773361618 -0.022379348903117 0.353905432540051 H 0.0 **** 0.0
196 H75973 0.171020508156796 -0.0061865207324635 0.379664754148189 H 0.0 **** 0.0
197 H75975 0.152186888075167 -0.0174569601381565 0.383604611688522 H 0.0 **** 0.0
198 H75977 0.135342381531974 0.00653358869833726 0.384117611501174 H 0.0 **** 0.0
199 H75979 0.137658012847521 0.0191016541227539 0.35846667284486 H 0.0 **** 0.0
200 H75981 0.156256331978616 0.0483397041106805 0.374050041885643 H 0.0 **** 0.0
201 H75983 0.136452790929234 0.0473436788460163 0.363579272691686 H 0.0 **** 0.0
202 H75985 0.123733945502265 0.0335144066446885 0.388796530208539 H 0.0 **** 0.0
203 H75987 0.132513363939118 0.053145276239282 0.39472384260154 H 0.0 **** 0.0
204 H75989 0.138543931563737 0.0274900580765036 0.414326907655969 H 0.0 **** 0.0
205 H75991 0.155982985239433 0.0403291622990704 0.408910127143046 H 0.0 **** 0.0
206 H75993 0.167972265237623 0.018631726293159 0.39586233437679 H 0.0 **** 0.0
207 H75995 0.294314291818126 0.0497182893879053 0.295970875682605 H 0.0 **** 0.0
208 H75997 0.300409078042208 0.0210820625386388 0.297523550189728 H 0.0 **** 0.0
209 H75999 0.279721667963669 0.00412185689730175 0.320121391843386 H 0.0 **** 0.0
210 H76001 0.301516948845065 0.0076160711676929 0.322837676208418 H 0.0 **** 0.0
211 H76003 0.287041167940298 0.0165052155998291 0.348763934194648 H 0.0 **** 0.0
212 H76005 0.273065879375559 0.0293755559336023 0.33721351699381 H 0.0 **** 0.0
213 H76007 0.309474556482252 0.0362309112910451 0.34664469963682 H 0.0 **** 0.0
214 H76009 0.292150623309287 0.0500638265756651 0.345832636225429 H 0.0 **** 0.0
215 H76011 0.316018596677427 0.0395995450896492 0.317578078061309 H 0.0 **** 0.0
216 H76013 0.308031847266366 0.0597656817199475 0.322513063799767 H 0.0 **** 0.0
217 H76015 0.25833807008974 0.0705046986518079 0.327652622902058 H 0.0 **** 0.0
218 H76017 0.244708333611561 0.0880492555872738 0.348766223347287 H 0.0 **** 0.0
219 H76019 0.158619133067442 0.0642590714711295 0.335836185655677 H 0.0 **** 0.0
220 H76021 0.148815085431724 0.0967087445913859 0.3405329553276 H 0.0 **** 0.0
221 H76023 0.15501895038279 0.121184470155814 0.351878939339244 H 0.0 **** 0.0
222 H76025 0.147863495179484 0.106203045500254 0.386659885681612 H 0.0 **** 0.0
223 H76027 0.123703513353177 0.117780956140157 0.358867881216077 H 0.0 **** 0.0
224 H76029 0.117279211520587 0.112707236536441 0.379685320188489 H 0.0 **** 0.0
225 H76031 0.117879073448566 0.0896130254041867 0.353835448485571 H 0.0 **** 0.0
226 H76033 0.118799655386917 0.0841449388364644 0.375337958280842 H 0.0 **** 0.0
227 H76035 0.140708561161791 0.0706861144760266 0.355418840121492 H 0.0 **** 0.0
228 H76037 0.148559450462288 0.0790197394677481 0.374654486052464 H 0.0 **** 0.0
229 H76039 0.244930336806962 -0.127594730121361 0.278068395872495 H 0.0 **** 0.0
230 H76041 0.227818784392803 -0.102816998663691 0.288207742397053 H 0.0 **** 0.0
231 H76043 0.229687273718912 -0.118750161079931 0.303876937881327 H 0.0 **** 0.0
232 H76045 0.210522297092695 -0.116580505580405 0.292370042894633 H 0.0 **** 0.0
233 H76047 0.231618314830008 -0.156144586581141 0.275020705635464 H 0.0 **** 0.0
234 H76049 0.213025897282542 -0.148497862955253 0.285087591623215 H 0.0 **** 0.0
235 H76051 0.232413354392265 -0.149304578379567 0.296397613425476 H 0.0 **** 0.0
236 H76053 0.17895400005868 -0.0152290273349889 0.324725648567876 H 0.0 **** 0.0
237 H76055 0.234651632076427 0.122804049405993 0.378587477255628 H 0.0 **** 0.0
238 H76057 0.238862708184899 0.147591517222995 0.39537534528809 H 0.0 **** 0.0
239 H76059 0.228256357341087 0.170722303877555 0.410509728932834 H 0.0 **** 0.0
240 H76061 0.217726756770956 0.194041909430428 0.426833357716375 H 0.0 **** 0.0
241 H76063 0.194556233552157 0.209945387745999 0.438328999592674 H 0.0 **** 0.0
242 H76065 0.136150456909742 0.207330290347785 0.435929041821889 H 0.0 **** 0.0
243 H76067 0.16463479899196 0.214224381216815 0.442382993948369 H 0.0 **** 0.0
244 H76069 0.120399911616511 0.137204615466865 0.387090015903913 H 0.0 **** 0.0
245 H76071 0.102932488739809 0.156372093519693 0.386223784619669 H 0.0 **** 0.0
246 H76073 0.0988116822181608 0.154186436375363 0.408160737348405 H 0.0 **** 0.0
247 H76075 0.078945371772038 0.175131866045858 0.394682738389448 H 0.0 **** 0.0
248 H76077 0.096445628421868 0.187017151907874 0.387381869814587 H 0.0 **** 0.0
249 H76079 0.0854575535250986 0.180911012400594 0.424318057148744 H 0.0 **** 0.0
250 H76081 0.0882316998806391 0.200657544896678 0.414491303191354 H 0.0 **** 0.0
@<TRIPOS>BOND
1 3 2 1
2 4 3 1
3 5 4 1
4 6 5 1
5 1 2 1
6 1 6 1
7 8 7 1
8 9 8 1
9 10 9 1
10 4 7 1
11 3 10 1
12 12 11 1
13 13 12 1
14 14 13 1
15 8 11 1
16 7 14 1
17 16 15 1
18 17 16 Partial double
19 18 17 1
20 13 15 1
21 12 18 1
22 20 19 Partial double
23 21 20 Partial double
24 22 21 Partial double
25 17 19 Partial double
26 16 22 Partial double
27 24 23 1
28 25 24 1
29 15 25 Double
30 22 23 1
31 27 26 1
32 28 27 Partial double
33 29 28 Partial double
34 21 26 1
35 20 29 Partial double
36 31 30 1
37 32 31 1
38 18 30 1
39 19 32 1
40 34 33 Double
41 35 34 1
42 36 35 1
43 31 33 1
44 30 36 Double
45 38 37 1
46 39 38 1
47 40 39 Double
48 34 37 1
49 33 40 1
50 42 41 1
51 43 42 1
52 44 43 1
53 40 41 1
54 39 44 1
55 46 45 Partial double
56 32 46 1
57 29 45 Partial double
58 48 47 Partial double
59 49 48 1
60 45 49 Partial double
61 28 47 Partial double
62 51 50 Partial double
63 52 51 Partial double
64 53 52 Partial double
65 48 50 Partial double
66 47 53 Partial double
67 55 54 Partial double
68 56 55 Partial double
69 57 56 Partial double
70 52 54 Partial double
71 51 57 Partial double
72 59 58 Partial double
73 60 59 Partial double
74 61 60 Partial double
75 56 58 Partial double
76 55 61 Partial double
77 63 62 Partial double
78 27 63 Partial double
79 53 62 Partial double
80 65 64 Partial double
81 62 65 Partial double
82 54 64 Partial double
83 67 66 Partial double
84 64 67 Partial double
85 61 66 Partial double
86 69 68 Partial double
87 70 69 Partial double
88 66 70 Partial double
89 60 68 Partial double
90 72 71 1
91 73 72 1
92 74 73 1
93 59 71 1
94 58 74 1
95 76 75 1
96 77 76 1
97 78 77 1
98 73 75 1
99 72 78 1
100 80 79 1
101 81 80 1
102 82 81 1
103 78 79 1
104 77 82 1
105 84 83 Partial double
106 85 84 Partial double
107 67 85 Partial double
108 65 83 Partial double
109 87 86 1
110 88 87 1
111 89 88 1
112 84 86 1
113 83 89 1
114 91 90 1
115 92 91 1
116 93 92 1
117 88 90 1
118 87 93 1
119 95 94 Partial double
120 85 95 Partial double
121 70 94 Partial double
122 97 96 Partial double
123 98 97 Partial double
124 94 98 Partial double
125 69 96 Partial double
126 100 99 Partial double
127 101 100 Partial double
128 68 101 Partial double
129 96 99 Partial double
130 103 102 1
131 104 103 Partial double
132 97 102 1
133 99 104 1
134 106 105 1
135 107 106 1
136 100 105 1
137 104 107 Partial double
138 109 108 1
139 110 109 1
140 111 110 1
141 106 108 1
142 105 111 1
143 113 112 1
144 114 113 1
145 103 114 Partial double
146 107 112 Partial double
147 108 115 1
148 112 116 Partial double
149 115 116 Partial double
150 42 117 1
151 117 118 1
152 117 119 1
153 74 120 1
154 122 121 1
155 123 122 Partial double
156 124 123 1
157 114 121 Partial double
158 113 124 Partial double
159 126 125 Partial double
160 127 126 1
161 128 127 Partial double
162 124 125 Partial double
163 123 128 Partial double
164 130 129 Partial double
165 131 130 1
166 132 131 1
167 127 129 Partial double
168 126 132 Partial double
169 134 133 Partial double
170 135 134 Partial double
171 125 135 Partial double
172 132 133 Partial double
173 137 136 Partial double
174 138 137 Partial double
175 131 138 Partial double
176 133 136 Partial double
177 140 139 Partial double
178 134 140 Partial double
179 116 135 Partial double
180 115 139 Partial double
181 142 141 Partial double
182 140 142 Partial double
183 136 141 Partial double
184 144 143 1
185 145 144 1
186 146 145 1
187 142 143 1
188 141 146 1
189 146 147 Double
190 1 148 1
191 1 149 1
192 2 150 1
193 2 151 1
194 3 152 1
195 4 153 1
196 5 154 1
197 5 155 1
198 7 156 1
199 8 157 1
200 9 158 1
201 9 159 1
202 10 160 1
203 10 161 1
204 12 162 1
205 13 163 1
206 14 164 1
207 14 165 1
208 18 166 1
209 23 167 1
210 23 168 1
211 24 169 1
212 24 170 1
213 25 171 1
214 35 173 1
215 35 174 1
216 36 175 1
217 37 176 1
218 37 177 1
219 38 178 1
220 38 179 1
221 41 180 1
222 41 181 1
223 42 182 1
224 43 183 1
225 43 184 1
226 44 185 1
227 44 186 1
228 46 187 1
229 50 188 1
230 57 189 1
231 63 190 1
232 72 191 1
233 73 192 1
234 74 193 1
235 75 194 1
236 75 195 1
237 76 196 1
238 76 197 1
239 77 198 1
240 78 199 1
241 79 200 1
242 79 201 1
243 80 202 1
244 80 203 1
245 81 204 1
246 81 205 1
247 82 206 1
248 87 207 1
249 88 208 1
250 90 209 1
251 90 210 1
252 91 211 1
253 91 212 1
254 92 213 1
255 92 214 1
256 93 215 1
257 93 216 1
258 95 217 1
259 98 218 1
260 101 219 1
261 105 220 1
262 106 221 1
263 108 222 1
264 109 223 1
265 109 224 1
266 110 225 1
267 110 226 1
268 111 227 1
269 111 228 1
270 117 229 1
271 118 230 1
272 118 231 1
273 118 232 1
274 119 233 1
275 119 234 1
276 119 235 1
277 120 236 1
278 121 237 1
279 122 238 1
280 128 239 1
281 129 240 1
282 130 241 1
283 137 242 1
284 138 243 1
285 139 244 1
286 143 245 1
287 143 246 1
288 144 247 1
289 144 248 1
290 145 249 1
291 145 250 1
292 31 172 1
@<TRIPOS>MOLECULE
Sketch 4
250 292
SMALL
USER_CHARGES


@<TRIPOS>ATOM
1 C76084 0.1467931763989 0.841684030552727 0.597053215612448 C 0.0 **** 0.0
2 C76085 0.142256309466625 0.860659191400994 0.594265042642345 C 0.0 **** 0.0
3 C76086 0.123092756142418 0.863671210197219 0.596410160744558 C 0.0 **** 0.0
4 C76087 0.113173466089798 0.851287929229447 0.58476939212911 C 0.0 **** 0.0
5 C76088 0.120776701050911 0.833130641219167 0.58639554147792 C 0.0 **** 0.0
6 O76089 0.132246759100527 0.831606529544841 0.600154175778533 O 0.0 **** 0.0
7 C76096 0.112416275145587 0.857038148716195 0.565984918375993 C 0.0 **** 0.0
8 C76097 0.109800541300417 0.876608051748729 0.563956516729069 C 0.0 **** 0.0
9 C76098 0.104359239578619 0.88486264752044 0.58056314990268 C 0.0 **** 0.0
10 C76099 0.117950309312549 0.882467622296986 0.594157918939433 C 0.0 **** 0.0
11 O76105 0.0981079913670055 0.881443119475721 0.551047642088053 O 0.0 **** 0.0
12 C76106 0.100502190646945 0.872169080212363 0.535671104440891 C 0.0 **** 0.0
13 C76107 0.0939277985733027 0.854042151593331 0.538392698793052 C 0.0 **** 0.0
14 C76108 0.0991586607416932 0.846608305440579 0.556073858803853 C 0.0 **** 0.0
15 C76114 0.0974882450453595 0.842415643162613 0.523498080999974 C 0.0 **** 0.0
16 C76115 0.112020908875965 0.846360519527582 0.511728849687891 C 0.0 **** 0.0
17 C76116 0.121672489130863 0.860844780881939 0.514022520372563 C 0.0 **** 0.0
18 C76117 0.118700235021495 0.872558847418603 0.529097234506656 C 0.0 **** 0.0
19 C76123 0.135282175201344 0.864013430953063 0.503274475420082 C 0.0 **** 0.0
20 C76124 0.139509629582201 0.852364562198459 0.49091134312496 C 0.0 **** 0.0
21 C76125 0.129722841863542 0.838017964480078 0.488543250026933 C 0.0 **** 0.0
22 C76126 0.115797463682719 0.835020078149014 0.498874500437307 C 0.0 **** 0.0
23 C76132 0.106256921970897 0.818491843470104 0.496477329905619 C 0.0 **** 0.0
24 C76133 0.0885819133188927 0.818087659503571 0.505066933339492 C 0.0 **** 0.0
25 C76134 0.0869874399807741 0.829389374987714 0.520272716157738 C 0.0 **** 0.0
26 O76139 0.1336813876671 0.826152546459448 0.47628258508856 O 0.0 **** 0.0
27 C76140 0.147198381075359 0.828837634909582 0.46557918174972 C 0.0 **** 0.0
28 C76141 0.158448856674808 0.84223386081976 0.467150155671557 C 0.0 **** 0.0
29 C76142 0.155445934645286 0.854924527604695 0.480918582220017 C 0.0 **** 0.0
30 C76148 0.125606026756965 0.889693310796737 0.524762433192008 C 0.0 **** 0.0
31 C76149 0.144467858943478 0.888222545340034 0.522266057004774 C 0.0 **** 0.0
32 C76150 0.145613311485338 0.880114570813843 0.504625014238246 C 0.0 **** 0.0
33 C76155 0.153722059995063 0.905356447943104 0.523681847328109 C 0.0 **** 0.0
34 C76156 0.145075271229803 0.919252559072678 0.518132039032874 C 0.0 **** 0.0
35 C76157 0.126396365471354 0.919020129983942 0.513597956177257 C 0.0 **** 0.0
36 C76158 0.117130534080026 0.903764331846449 0.520547272815775 C 0.0 **** 0.0
37 C76164 0.152099363605504 0.936849514785284 0.518655678128503 C 0.0 **** 0.0
38 C76165 0.171353042961922 0.937239984390534 0.520833562973665 C 0.0 **** 0.0
39 C76166 0.177889400845286 0.922025669775136 0.530198702301407 C 0.0 **** 0.0
40 C76167 0.169379838584646 0.907030503742402 0.530915615445372 C 0.0 **** 0.0
41 C76173 0.178191748033646 0.892565595630541 0.540573058217507 C 0.0 **** 0.0
42 C76174 0.189071450445823 0.89941648407767 0.555046191634469 C 0.0 **** 0.0
43 C76175 0.202938144623203 0.910311952527349 0.546802789315769 C 0.0 **** 0.0
44 C76176 0.195105631138506 0.925425796391552 0.53763683672034 C 0.0 **** 0.0
45 C76182 0.166532379522124 0.867517258510673 0.48469914243382 C 0.0 **** 0.0
46 C76183 0.16308832613146 0.879250648138363 0.496800170300222 C 0.0 **** 0.0
47 C76187 0.173020387048564 0.842651212335305 0.456735150224042 C 0.0 **** 0.0
48 C76188 0.186911008589035 0.853572811714346 0.459614617387799 C 0.0 **** 0.0
49 S76189 0.185813953639893 0.869764684101524 0.474288063871092 S 0.0 **** 0.0
50 C76194 0.202236649146411 0.851220504741343 0.451859594469891 C 0.0 **** 0.0
51 C76195 0.204053608679022 0.838739154203111 0.439206436022171 C 0.0 **** 0.0
52 C76196 0.189582717128198 0.829436453497206 0.434248728332671 C 0.0 **** 0.0
53 C76197 0.174769199073827 0.830549828070508 0.44371157845119 C 0.0 **** 0.0
54 C76203 0.190291811066459 0.81950681285228 0.41966792378087 C 0.0 **** 0.0
55 C76204 0.204529041801889 0.820050599104257 0.409226108102686 C 0.0 **** 0.0
56 C76205 0.219731336051836 0.827412620548317 0.415054953052853 C 0.0 **** 0.0
57 C76206 0.21932705616298 0.836334200890968 0.430461687987595 C 0.0 **** 0.0
58 C76212 0.234096690519987 0.826896253131937 0.404743848684895 C 0.0 **** 0.0
59 C76213 0.232321355417131 0.823431998744576 0.387721630528879 C 0.0 **** 0.0
60 C76214 0.217235086931473 0.815848429728297 0.381666544371225 C 0.0 **** 0.0
61 C76215 0.204041986998538 0.812973053321267 0.393177838464565 C 0.0 **** 0.0
62 C76221 0.161696272004052 0.819079951234023 0.44031504382273 C 0.0 **** 0.0
63 C76222 0.149181134061646 0.817273898735613 0.452748747828601 C 0.0 **** 0.0
64 C76226 0.176384530787317 0.809766146394471 0.414952706648122 C 0.0 **** 0.0
65 C76227 0.161602999944656 0.810239417361937 0.42465838179144 C 0.0 **** 0.0
66 C76231 0.190488460214692 0.802524255998538 0.388830476543008 C 0.0 **** 0.0
67 C76232 0.176760058623169 0.800883326576698 0.399872856077287 C 0.0 **** 0.0
68 C76236 0.215805254068913 0.809118118005824 0.365033653609399 C 0.0 **** 0.0
69 C76237 0.202879365849823 0.797433012488987 0.361428951857469 C 0.0 **** 0.0
70 C76238 0.190346389965849 0.794285670864101 0.373259918262213 C 0.0 **** 0.0
71 O76243 0.246152851815092 0.826048283138009 0.37718433984012 O 0.0 **** 0.0
72 C76244 0.255539531539241 0.841301197680971 0.380444829335594 C 0.0 **** 0.0
73 C76245 0.259696152390573 0.844132149053186 0.399669954052585 C 0.0 **** 0.0
74 C76246 0.251724092677918 0.83044775500427 0.410801456377074 C 0.0 **** 0.0
75 C76252 0.255655321213877 0.862162129934978 0.405701238973829 C 0.0 **** 0.0
76 C76253 0.264227866177981 0.874675742199094 0.393746953077428 C 0.0 **** 0.0
77 C76254 0.256297487073154 0.873878698615314 0.375949992129985 C 0.0 **** 0.0
78 C76255 0.246834530139478 0.856955698442596 0.372273514717453 C 0.0 **** 0.0
79 C76261 0.243026499387394 0.854865649135209 0.353127480649472 C 0.0 **** 0.0
80 C76262 0.243694544307426 0.872033740413179 0.344184751258019 C 0.0 **** 0.0
81 C76263 0.261128551978415 0.88061851514558 0.346107022497097 C 0.0 **** 0.0
82 N76264 0.268669212263281 0.878212626801024 0.363049927746138 N 0.0 **** 0.0
83 C76270 0.146407414958652 0.803451992623691 0.418097335799392 C 0.0 **** 0.0
84 C76271 0.146860535215619 0.793549306287915 0.403666607938068 C 0.0 **** 0.0
85 C76272 0.162403514049098 0.791644700956959 0.394940469339763 C 0.0 **** 0.0
86 O76277 0.132529562697761 0.78577700692084 0.397116918802175 O 0.0 **** 0.0
87 C76278 0.117353278254293 0.78860974614894 0.406579186347755 C 0.0 **** 0.0
88 C76279 0.117319842799792 0.805583477377417 0.415060197794872 C 0.0 **** 0.0
89 O76280 0.131303132717328 0.806517554752434 0.426356163715706 O 0.0 **** 0.0
90 C76286 0.100967659333863 0.808642530944682 0.42505270220185 C 0.0 **** 0.0
91 C76287 0.0981635402784354 0.79468627834964 0.438257704689528 C 0.0 **** 0.0
92 C76288 0.0982882521074057 0.777227968249308 0.429809230908076 C 0.0 **** 0.0
93 C76289 0.114612845770466 0.774623285678036 0.419745106482774 C 0.0 **** 0.0
94 C76295 0.176638053216757 0.783650834248644 0.368794391628223 C 0.0 **** 0.0
95 C76296 0.162827322337511 0.782263116751913 0.379932047711537 C 0.0 **** 0.0
96 C76300 0.20196155597644 0.790148061035485 0.345278845819623 C 0.0 **** 0.0
97 C76301 0.18901587571732 0.778536736803987 0.341234988074466 C 0.0 **** 0.0
98 C76302 0.176518918163441 0.775546423007528 0.352863061027298 C 0.0 **** 0.0
99 C76307 0.213025268924043 0.795203796227324 0.332294363308352 C 0.0 **** 0.0
100 C76308 0.225259480837901 0.807225399712519 0.335426480936548 C 0.0 **** 0.0
101 C76309 0.226376018879244 0.813722087906389 0.351487087724989 C 0.0 **** 0.0
102 O76314 0.188453657549045 0.770252297571048 0.325879350952367 O 0.0 **** 0.0
103 C76315 0.198114509336357 0.776216662176694 0.31262404459578 C 0.0 **** 0.0
104 C76316 0.210462186084306 0.788068440786912 0.315007521940634 C 0.0 **** 0.0
105 C76321 0.237071963726064 0.814334343115127 0.322105374637692 C 0.0 **** 0.0
106 C76322 0.233163787776966 0.807734898739071 0.303464620197683 C 0.0 **** 0.0
107 C76323 0.220100437212208 0.793614631520304 0.301771502773938 C 0.0 **** 0.0
108 C76328 0.249569340154143 0.803301515867762 0.293780160669972 C 0.0 **** 0.0
109 C76329 0.262746013855336 0.817558624320908 0.295655158286002 C 0.0 **** 0.0
110 C76330 0.266791829657619 0.821539311324522 0.314454369710656 C 0.0 **** 0.0
111 C76331 0.255675700757003 0.811535083260464 0.326806761682661 C 0.0 **** 0.0
112 C76337 0.217788131356329 0.786667542831807 0.286154558481269 C 0.0 **** 0.0
113 C76338 0.20499821900433 0.775246682429705 0.283572907279976 C 0.0 **** 0.0
114 C76339 0.195264690997464 0.769937047273204 0.296778416189617 C 0.0 **** 0.0
115 C76344 0.244947177429594 0.79942248795595 0.275402396469807 C 0.0 **** 0.0
116 C76346 0.229564582693046 0.791696729549706 0.271997006200508 C 0.0 **** 0.0
117 C76349 0.195917360597905 0.885609720566442 0.567086691664261 C 0.0 **** 0.0
118 C76351 0.20704492379985 0.892918862010779 0.581211048325257 C 0.0 **** 0.0
119 C76353 0.181752973353127 0.875437585670878 0.575635488695502 C 0.0 **** 0.0
120 O76355 0.260813727536579 0.815032083787869 0.409157766943925 O 0.0 **** 0.0
121 C76357 0.182820689431604 0.758209506325469 0.294122183940674 C 0.0 **** 0.0
122 C76358 0.179838466232616 0.752007399611333 0.278372006057893 C 0.0 **** 0.0
123 C76359 0.189376317553905 0.757389827956761 0.265071813614161 C 0.0 **** 0.0
124 C76360 0.201934404400017 0.769021686610696 0.267750009763804 C 0.0 **** 0.0
125 C76366 0.212312741217666 0.774858782638237 0.253250619334176 C 0.0 **** 0.0
126 C76367 0.209238369970541 0.768004454995756 0.237713967795773 C 0.0 **** 0.0
127 C76368 0.195498524038121 0.755471683448061 0.235666356761067 C 0.0 **** 0.0
128 C76369 0.186038613959926 0.750723406661865 0.24934934500641 C 0.0 **** 0.0
129 C76375 0.192613383154601 0.748514280100234 0.220125172613906 C 0.0 **** 0.0
130 C76376 0.202540665784251 0.752507344767674 0.206496371014378 C 0.0 **** 0.0
131 C76377 0.215779271253938 0.763574679855677 0.207890180301597 C 0.0 **** 0.0
132 C76378 0.219084193827777 0.772286529755746 0.224155520510462 C 0.0 **** 0.0
133 C76384 0.232968999602021 0.783255688993156 0.225999806504625 C 0.0 **** 0.0
134 C76385 0.236249033292319 0.790250367822001 0.241906950341174 C 0.0 **** 0.0
135 C76386 0.225635660092221 0.786347161969766 0.255592568173519 C 0.0 **** 0.0
136 C76391 0.245010007601881 0.784470157366306 0.213066662845018 C 0.0 **** 0.0
137 C76392 0.239980950523758 0.776516586930188 0.196308260379992 C 0.0 **** 0.0
138 C76393 0.226085663818604 0.766478435177351 0.194412739324603 C 0.0 **** 0.0
139 C76398 0.255819627909939 0.80219156342594 0.262064117737396 C 0.0 **** 0.0
140 C76399 0.252009149730321 0.797857437167292 0.245045550751165 C 0.0 **** 0.0
141 C76404 0.260882144749604 0.79140126740829 0.216408016727567 C 0.0 **** 0.0
142 C76405 0.264264491037765 0.798732836835412 0.232056480790053 C 0.0 **** 0.0
143 C76409 0.281573881862825 0.806472048693178 0.235828508130564 C 0.0 **** 0.0
144 C76410 0.289336508991664 0.814492645269517 0.220045948447632 C 0.0 **** 0.0
145 C76411 0.290252546790031 0.80140961652794 0.206193591743882 C 0.0 **** 0.0
146 C76412 0.27482261634288 0.790637521207177 0.203487325621794 C 0.0 **** 0.0
147 O76418 0.274935951605883 0.781319834546711 0.191293862378886 O 0.0 **** 0.0
148 H76420 0.154833394816249 0.840182842600165 0.608288666297159 H 0.0 **** 0.0
149 H76422 0.154117778079936 0.836645685970234 0.586293651339786 H 0.0 **** 0.0
150 H76424 0.149359155485442 0.868865265740105 0.603022742862438 H 0.0 **** 0.0
151 H76426 0.145949222468652 0.864795777054591 0.581469671705862 H 0.0 **** 0.0
152 H76428 0.120006673397337 0.859995814619941 0.609545467676794 H 0.0 **** 0.0
153 H76430 0.100028707095411 0.851188624433713 0.589532024898394 H 0.0 **** 0.0
154 H76432 0.12702374844721 0.829262295259963 0.574526112529299 H 0.0 **** 0.0
155 H76434 0.110757433131677 0.823788914186625 0.588703079256438 H 0.0 **** 0.0
156 H76436 0.124884441670883 0.853878166065653 0.560570965456663 H 0.0 **** 0.0
157 H76438 0.122235665109994 0.882265014438097 0.56096058087927 H 0.0 **** 0.0
158 H76440 0.0922732346222417 0.879403417960822 0.584802948689194 H 0.0 **** 0.0
159 H76442 0.102032196248326 0.898411244044581 0.578268536625118 H 0.0 **** 0.0
160 H76444 0.113620352793389 0.887716551991171 0.606307026050174 H 0.0 **** 0.0
161 H76446 0.129087807205197 0.890027372083969 0.59053884726651 H 0.0 **** 0.0
162 H76448 0.092147843780402 0.878384725625493 0.526445299461633 H 0.0 **** 0.0
163 H76450 0.0800280897652345 0.855207143933981 0.538906229405599 H 0.0 **** 0.0
164 H76452 0.103297258129461 0.833335020909593 0.55515281101791 H 0.0 **** 0.0
165 H76454 0.0875262778224599 0.846317360095618 0.563778786448206 H 0.0 **** 0.0
166 H76456 0.12691113660782 0.867608064683059 0.539227735295804 H 0.0 **** 0.0
167 H76458 0.1046847445269 0.815724703096314 0.482910102737984 H 0.0 **** 0.0
168 H76460 0.114029703574931 0.808108262551608 0.501612928922319 H 0.0 **** 0.0
169 H76462 0.0855355133409867 0.804958915310212 0.508731471392001 H 0.0 **** 0.0
170 H76464 0.0788277244901346 0.821819221772857 0.495868065501234 H 0.0 **** 0.0
171 H76466 0.076025047664661 0.826756782816379 0.528218806311192 H 0.0 **** 0.0
172 H76468 0.149446839290095 0.879257355938372 0.531617540401001 H 0.0 **** 0.0
173 H76469 0.124816835397628 0.919782885611268 0.499783633851827 H 0.0 **** 0.0
174 H76471 0.120477863904646 0.930452002181021 0.518963513401758 H 0.0 **** 0.0
175 H76473 0.10338264233929 0.904384866670021 0.521226623322374 H 0.0 **** 0.0
176 H76475 0.14862347598274 0.943724493476275 0.507025587715755 H 0.0 **** 0.0
177 H76477 0.146115123520854 0.943560088064944 0.529307552933541 H 0.0 **** 0.0
178 H76479 0.17498000917578 0.948987967762528 0.527444453459546 H 0.0 **** 0.0
179 H76481 0.177494572388703 0.937570269570124 0.50833830259956 H 0.0 **** 0.0
180 H76483 0.168746577357539 0.883852269746909 0.545768098607004 H 0.0 **** 0.0
181 H76485 0.186044686407784 0.885151863563532 0.531772545361793 H 0.0 **** 0.0
182 H76487 0.181125782743822 0.907820524105078 0.562920091204035 H 0.0 **** 0.0
183 H76489 0.209996948492207 0.902367018400529 0.537802662023173 H 0.0 **** 0.0
184 H76491 0.212255519402926 0.915037445532676 0.555993401712436 H 0.0 **** 0.0
185 H76493 0.2035924645662 0.930083924186716 0.527587521347359 H 0.0 **** 0.0
186 H76495 0.1935573090039 0.935887025981304 0.546733148914978 H 0.0 **** 0.0
187 H76497 0.172309692712161 0.888885946312952 0.500256627490315 H 0.0 **** 0.0
188 H76499 0.213147738539921 0.859175467513086 0.455030585099366 H 0.0 **** 0.0
189 H76501 0.230446349382681 0.843414369688256 0.434768277903487 H 0.0 **** 0.0
190 H76503 0.139683700936248 0.807181736869204 0.45214736767696 H 0.0 **** 0.0
191 H76505 0.267706011560065 0.839586411416272 0.37387494678675 H 0.0 **** 0.0
192 H76507 0.273491104684776 0.842678496949004 0.401391044878012 H 0.0 **** 0.0
193 H76509 0.252009985776472 0.834300816978855 0.42412973773198 H 0.0 **** 0.0
194 H76511 0.241913571907278 0.864299583842033 0.406037129183576 H 0.0 **** 0.0
195 H76513 0.2601377087995 0.8638432048159 0.41878426285655 H 0.0 **** 0.0
196 H76515 0.277746725398345 0.871322457493991 0.393074213064541 H 0.0 **** 0.0
197 H76517 0.263758639662292 0.887724433733396 0.398609283589421 H 0.0 **** 0.0
198 H76519 0.246588924853287 0.883917696722006 0.375567593568555 H 0.0 **** 0.0
199 H76521 0.23450769425209 0.858078194457141 0.378687509832648 H 0.0 **** 0.0
200 H76523 0.252400948977273 0.8464254907638 0.3472094536669 H 0.0 **** 0.0
201 H76525 0.230506952092166 0.849071054104258 0.351305364895702 H 0.0 **** 0.0
202 H76527 0.233819029991152 0.880184268777882 0.349746683109767 H 0.0 **** 0.0
203 H76529 0.240577321496605 0.870887147431952 0.330666208417102 H 0.0 **** 0.0
204 H76531 0.260013646525302 0.89429118568592 0.343645792281939 H 0.0 **** 0.0
205 H76533 0.269919489828038 0.875660057537428 0.336507531404001 H 0.0 **** 0.0
206 H76535 0.277627280240799 0.869264011958504 0.362727266861464 H 0.0 **** 0.0
207 H76537 0.106795556658464 0.788193663269977 0.397467717930188 H 0.0 **** 0.0
208 H76539 0.119049954102844 0.815537805585794 0.405486826088871 H 0.0 **** 0.0
209 H76541 0.101664794242684 0.821129955747149 0.43121844250515 H 0.0 **** 0.0
210 H76543 0.090083735855539 0.809027249906666 0.416378884514041 H 0.0 **** 0.0
211 H76545 0.0862394152087834 0.79673851534558 0.445169254621198 H 0.0 **** 0.0
212 H76547 0.108354548284593 0.795227264661694 0.447780826982654 H 0.0 **** 0.0
213 H76549 0.0874806330330995 0.776199170575119 0.421114660322237 H 0.0 **** 0.0
214 H76551 0.0967145949045896 0.767190286417138 0.439340612986495 H 0.0 **** 0.0
215 H76553 0.114688518646401 0.762242645690313 0.413375561878897 H 0.0 **** 0.0
216 H76555 0.125423674527534 0.774785631199488 0.428528266966727 H 0.0 **** 0.0
217 H76557 0.151696898814997 0.774972559513975 0.375986030198993 H 0.0 **** 0.0
218 H76559 0.166036677492903 0.767068504067312 0.34956605030965 H 0.0 **** 0.0
219 H76561 0.2361049422812 0.82331319910895 0.353121842223816 H 0.0 **** 0.0
220 H76563 0.23506360747604 0.828163941768162 0.321764169380834 H 0.0 **** 0.0
221 H76565 0.227565607811173 0.818700740477302 0.296862184407902 H 0.0 **** 0.0
222 H76567 0.25508698378336 0.791726696662457 0.299306135556526 H 0.0 **** 0.0
223 H76569 0.257904011303211 0.829028587397169 0.289410813674206 H 0.0 **** 0.0
224 H76571 0.274597502203555 0.814248739893447 0.28917988707842 H 0.0 **** 0.0
225 H76573 0.2647118925352 0.835094114518957 0.316885562391123 H 0.0 **** 0.0
226 H76575 0.280240181961095 0.819258758605863 0.317141983313942 H 0.0 **** 0.0
227 H76577 0.258476418549754 0.815642650624287 0.33982225756798 H 0.0 **** 0.0
228 H76579 0.258716465593388 0.797961595988451 0.326282693953771 H 0.0 **** 0.0
229 H76581 0.203682930401052 0.876730476179015 0.559637502451423 H 0.0 **** 0.0
230 H76583 0.211029746752104 0.88285981880271 0.589960266815067 H 0.0 **** 0.0
231 H76585 0.199963289757071 0.902331824815251 0.588607087726453 H 0.0 **** 0.0
232 H76587 0.218612086362176 0.899006572068867 0.576494457187205 H 0.0 **** 0.0
233 H76589 0.173766115992464 0.868429001181135 0.566695691708773 H 0.0 **** 0.0
234 H76591 0.173383626931699 0.883850217709567 0.582849455502536 H 0.0 **** 0.0
235 H76593 0.187071646354236 0.866081580097589 0.584483735592045 H 0.0 **** 0.0
236 H76595 0.270270327126574 0.81591842898789 0.416500243816707 H 0.0 **** 0.0
237 H76597 0.17505031931504 0.753460721115337 0.304470284468914 H 0.0 **** 0.0
238 H76599 0.169797087347014 0.742676365286388 0.276757434954239 H 0.0 **** 0.0
239 H76601 0.17593741802977 0.74141463639601 0.247817102264764 H 0.0 **** 0.0
240 H76603 0.182506728139452 0.739313357274087 0.218343152782054 H 0.0 **** 0.0
241 H76605 0.199810681801824 0.746231992051272 0.194504509531611 H 0.0 **** 0.0
242 H76607 0.247691726962294 0.778807724741976 0.185166462764459 H 0.0 **** 0.0
243 H76609 0.223660365407651 0.760737904563096 0.182111226981657 H 0.0 **** 0.0
244 H76611 0.268335650916067 0.80721658058671 0.265164399580188 H 0.0 **** 0.0
245 H76613 0.280687877223188 0.816394750019484 0.245516876201623 H 0.0 **** 0.0
246 H76615 0.290118550987189 0.796629728204751 0.240864967887281 H 0.0 **** 0.0
247 H76617 0.302038162226533 0.819554280227682 0.222681771174746 H 0.0 **** 0.0
248 H76619 0.281421539922294 0.825242151583302 0.216100171807535 H 0.0 **** 0.0
249 H76621 0.300181090297934 0.791938906879983 0.208623455494302 H 0.0 **** 0.0
250 H76623 0.292687413393543 0.806389463958648 0.19344304709597 H 0.0 **** 0.0
@<TRIPOS>BOND
1 3 2 1
2 4 3 1
3 5 4 1
4 6 5 1
5 1 2 1
6 1 6 1
7 8 7 1
8 9 8 1
9 10 9 1
10 4 7 1
11 3 10 1
12 12 11 1
13 13 12 1
14 14 13 1
15 8 11 1
16 7 14 1
17 16 15 1
18 17 16 Partial double
19 18 17 1
20 13 15 1
21 12 18 1
22 20 19 Partial double
23 21 20 Partial double
24 22 21 Partial double
25 17 19 Partial double
26 16 22 Partial double
27 24 23 1
28 25 24 1
29 15 25 Double
30 22 23 1
31 27 26 1
32 28 27 Partial double
33 29 28 Partial double
34 21 26 1
35 20 29 Partial double
36 31 30 1
37 32 31 1
38 18 30 1
39 19 32 1
40 34 33 Double
41 35 34 1
42 36 35 1
43 31 33 1
44 30 36 Double
45 38 37 1
46 39 38 1
47 40 39 Double
48 34 37 1
49 33 40 1
50 42 41 1
51 43 42 1
52 44 43 1
53 40 41 1
54 39 44 1
55 46 45 Partial double
56 32 46 1
57 29 45 Partial double
58 48 47 Partial double
59 49 48 1
60 45 49 Partial double
61 28 47 Partial double
62 51 50 Partial double
63 52 51 Partial double
64 53 52 Partial double
65 48 50 Partial double
66 47 53 Partial double
67 55 54 Partial double
68 56 55 Partial double
69 57 56 Partial double
70 52 54 Partial double
71 51 57 Partial double
72 59 58 Partial double
73 60 59 Partial double
74 61 60 Partial double
75 56 58 Partial double
76 55 61 Partial double
77 63 62 Partial double
78 27 63 Partial double
79 53 62 Partial double
80 65 64 Partial double
81 62 65 Partial double
82 54 64 Partial double
83 67 66 Partial double
84 64 67 Partial double
85 61 66 Partial double
86 69 68 Partial double
87 70 69 Partial double
88 66 70 Partial double
89 60 68 Partial double
90 72 71 1
91 73 72 1
92 74 73 1
93 59 71 1
94 58 74 1
95 76 75 1
96 77 76 1
97 78 77 1
98 73 75 1
99 72 78 1
100 80 79 1
101 81 80 1
102 82 81 1
103 78 79 1
104 77 82 1
105 84 83 Partial double
106 85 84 Partial double
107 67 85 Partial double
108 65 83 Partial double
109 87 86 1
110 88 87 1
111 89 88 1
112 84 86 1
113 83 89 1
114 91 90 1
115 92 91 1
116 93 92 1
117 88 90 1
118 87 93 1
119 95 94 Partial double
120 85 95 Partial double
121 70 94 Partial double
122 97 96 Partial double
123 98 97 Partial double
124 94 98 Partial double
125 69 96 Partial double
126 100 99 Partial double
127 101 100 Partial double
128 68 101 Partial double
129 96 99 Partial double
130 103 102 1
131 104 103 Partial double
132 97 102 1
133 99 104 1
134 106 105 1
135 107 106 1
136 100 105 1
137 104 107 Partial double
138 109 108 1
139 110 109 1
140 111 110 1
141 106 108 1
142 105 111 1
143 113 112 1
144 114 113 1
145 103 114 Partial double
146 107 112 Partial double
147 108 115 1
148 112 116 Partial double
149 115 116 Partial double
150 42 117 1
151 117 118 1
152 117 119 1
153 74 120 1
154 122 121 1
155 123 122 Partial double
156 124 123 1
157 114 121 Partial double
158 113 124 Partial double
159 126 125 Partial double
160 127 126 1
161 128 127 Partial double
162 124 125 Partial double
163 123 128 Partial double
164 130 129 Partial double
165 131 130 1
166 132 131 1
167 127 129 Partial double
168 126 132 Partial double
169 134 133 Partial double
170 135 134 Partial double
171 125 135 Partial double
172 132 133 Partial double
173 137 136 Partial double
174 138 137 Partial double
175 131 138 Partial double
176 133 136 Partial double
177 140 139 Partial double
178 134 140 Partial double
179 116 135 Partial double
180 115 139 Partial double
181 142 141 Partial double
182 140 142 Partial double
183 136 141 Partial double
184 144 143 1
185 145 144 1
186 146 145 1
187 142 143 1
188 141 146 1
189 146 147 Double
190 1 148 1
191 1 149 1
192 2 150 1
193 2 151 1
194 3 152 1
195 4 153 1
196 5 154 1
197 5 155 1
198 7 156 1
199 8 157 1
200 9 158 1
201 9 159 1
202 10 160 1
203 10 161 1
204 12 162 1
205 13 163 1
206 14 164 1
207 14 165 1
208 18 166 1
209 23 167 1
210 23 168 1
211 24 169 1
212 24 170 1
213 25 171 1
214 35 173 1
215 35 174 1
216 36 175 1
217 37 176 1
218 37 177 1
219 38 178 1
220 38 179 1
221 41 180 1
222 41 181 1
223 42 182 1
224 43 183 1
225 43 184 1
226 44 185 1
227 44 186 1
228 46 187 1
229 50 188 1
230 57 189 1
231 63 190 1
232 72 191 1
233 73 192 1
234 74 193 1
235 75 194 1
236 75 195 1
237 76 196 1
238 76 197 1
239 77 198 1
240 78 199 1
241 79 200 1
242 79 201 1
243 80 202 1
244 80 203 1
245 81 204 1
246 81 205 1
247 82 206 1
248 87 207 1
249 88 208 1
250 90 209 1
251 90 210 1
252 91 211 1
253 91 212 1
254 92 213 1
255 92 214 1
256 93 215 1
257 93 216 1
258 95 217 1
259 98 218 1
260 101 219 1
261 105 220 1
262 106 221 1
263 108 222 1
264 109 223 1
265 109 224 1
266 110 225 1
267 110 226 1
268 111 227 1
269 111 228 1
270 117 229 1
271 118 230 1
272 118 231 1
273 118 232 1
274 119 233 1
275 119 234 1
276 119 235 1
277 120 236 1
278 121 237 1
279 122 238 1
280 128 239 1
281 129 240 1
282 130 241 1
283 137 242 1
284 138 243 1
285 139 244 1
286 143 245 1
287 143 246 1
288 144 247 1
289 144 248 1
290 145 249 1
291 145 250 1
292 31 172 1
@<TRIPOS>MOLECULE
Sketch 4
250 292
SMALL
USER_CHARGES


@<TRIPOS>ATOM
1 C76626 0.386650201651196 0.377036013602225 0.187545692212313 C 0.0 **** 0.0
2 C76627 0.395965538712489 0.360335013243961 0.191937972140566 C 0.0 **** 0.0
3 C76628 0.40921225406498 0.362694565391917 0.206026224215076 C 0.0 **** 0.0
4 C76629 0.420942879974188 0.378221704005095 0.202381841004599 C 0.0 **** 0.0
5 C76630 0.413127844790428 0.389691027067648 0.188728837161913 C 0.0 **** 0.0
6 O76631 0.395677049378953 0.39185416991781 0.192292762157915 O 0.0 **** 0.0
7 C76638 0.439516072704033 0.372886847873012 0.199465277001691 C 0.0 **** 0.0
8 C76639 0.445995009681287 0.363964717613676 0.215538255433968 C 0.0 **** 0.0
9 C76640 0.434338557961135 0.349394962641947 0.221234952061874 C 0.0 **** 0.0
10 C76641 0.419471460831632 0.346478802515566 0.209050349495534 C 0.0 **** 0.0
11 O76647 0.445909854200436 0.375825743448553 0.229145825886159 O 0.0 **** 0.0
12 C76648 0.456981795223096 0.390080993370452 0.227229724604312 C 0.0 **** 0.0
13 C76649 0.452517753018674 0.399686258489531 0.210865714053279 C 0.0 **** 0.0
14 C76650 0.451451914008173 0.387740779105953 0.195691038499745 C 0.0 **** 0.0
15 C76656 0.464015440796474 0.414517994413856 0.207233925157575 C 0.0 **** 0.0
16 C76657 0.481272757352499 0.4148953348442 0.215284807779268 C 0.0 **** 0.0
17 C76658 0.486092407074543 0.402333455806021 0.226565954445165 C 0.0 **** 0.0
18 C76659 0.475902155481078 0.38592546632644 0.22810854741464 C 0.0 **** 0.0
19 C76665 0.50087691688518 0.404537155293108 0.235716383208395 C 0.0 **** 0.0
20 C76666 0.511811868886809 0.417638847033691 0.231737354283678 C 0.0 **** 0.0
21 C76667 0.507758016712839 0.429134383646044 0.219110119142343 C 0.0 **** 0.0
22 C76668 0.492070370969539 0.428129765676277 0.211277456216119 C 0.0 **** 0.0
23 C76674 0.48741369951721 0.440771966191802 0.197658752547558 C 0.0 **** 0.0
24 C76675 0.468156646181315 0.44399203719951 0.196726516372653 C 0.0 **** 0.0
25 C76676 0.458072227452099 0.427986801478899 0.198642536143929 C 0.0 **** 0.0
26 O76681 0.51885484816575 0.441794573630017 0.214237935066419 O 0.0 **** 0.0
27 C76682 0.534802138338155 0.442538818198593 0.221322888600444 C 0.0 **** 0.0
28 C76683 0.5401089973648 0.432172161705564 0.234455772484269 C 0.0 **** 0.0
29 C76684 0.528259670957723 0.418895012223459 0.240963025934319 C 0.0 **** 0.0
30 C76690 0.481764387129701 0.375299262910667 0.243050141290216 C 0.0 **** 0.0
31 C76691 0.50097166000591 0.374185518922652 0.244437683925486 C 0.0 **** 0.0
32 C76692 0.505100251067719 0.392440922781548 0.249761507301877 C 0.0 **** 0.0
33 C76697 0.508034551461966 0.360836022743134 0.256999114787544 C 0.0 **** 0.0
34 C76698 0.497055470880171 0.354097594065998 0.268493301234738 C 0.0 **** 0.0
35 C76699 0.478256628567317 0.35775104503128 0.269070756559887 C 0.0 **** 0.0
36 C76700 0.471645844323137 0.368290750764118 0.254704408373317 C 0.0 **** 0.0
37 C76706 0.501716578521837 0.340650065163931 0.281021566376044 C 0.0 **** 0.0
38 C76707 0.520818819230671 0.338120447503202 0.283089763930271 C 0.0 **** 0.0
39 C76708 0.530954998330806 0.345140404252269 0.268678024451313 C 0.0 **** 0.0
40 C76709 0.524593339154227 0.355654247376264 0.256521680623532 C 0.0 **** 0.0
41 C76715 0.536786303065265 0.361703264513535 0.242483244846978 C 0.0 **** 0.0
42 C76716 0.553581660379062 0.352238949716723 0.241556797115621 C 0.0 **** 0.0
43 C76717 0.560978911659324 0.350427065740082 0.259418240826967 C 0.0 **** 0.0
44 C76718 0.549201143520643 0.339680307482796 0.270160599339067 C 0.0 **** 0.0
45 C76724 0.532118418544385 0.408437785382412 0.254040941075361 C 0.0 **** 0.0
46 C76725 0.521548028206695 0.395823460443204 0.259003124537761 C 0.0 **** 0.0
47 C76729 0.556985752654074 0.433363330792306 0.240285611224854 C 0.0 **** 0.0
48 C76730 0.563767541824773 0.422714312185308 0.252930858638442 C 0.0 **** 0.0
49 S76731 0.55053257221105 0.41100806932113 0.265776150243555 S 0.0 **** 0.0
50 C76736 0.58080839339044 0.421511760063884 0.255814830671623 C 0.0 **** 0.0
51 C76737 0.592002717243303 0.432570506416006 0.247318972169913 C 0.0 **** 0.0
52 C76738 0.58521811923453 0.445195004326092 0.236632800101205 C 0.0 **** 0.0
53 C76739 0.568078722185629 0.445029465600029 0.232587768246 C 0.0 **** 0.0
54 C76745 0.595396221354979 0.458827780928967 0.231983316414955 C 0.0 **** 0.0
55 C76746 0.612646656934012 0.45897741470796 0.236138402882223 C 0.0 **** 0.0
56 C76747 0.62032776385215 0.445022357470458 0.24438773423156 C 0.0 **** 0.0
57 C76748 0.609447260894837 0.432400705897445 0.250578160833835 C 0.0 **** 0.0
58 C76754 0.63795651793703 0.444692554473361 0.246739696804633 C 0.0 **** 0.0
59 C76755 0.647276672752033 0.458931359344465 0.242514119228317 C 0.0 **** 0.0
60 C76756 0.639549023767312 0.473600222440587 0.235865699805269 C 0.0 **** 0.0
61 C76757 0.622013973950399 0.473591508299887 0.23356473407228 C 0.0 **** 0.0
62 C76763 0.561700347556927 0.457462717083084 0.221669113176066 C 0.0 **** 0.0
63 C76764 0.545613201366792 0.454559745645181 0.214840950711876 C 0.0 **** 0.0
64 C76768 0.587716646458149 0.473289226899371 0.225351731793276 C 0.0 **** 0.0
65 C76769 0.570733951662408 0.472988904677548 0.220245637874779 C 0.0 **** 0.0
66 C76773 0.613725533633548 0.488628118159148 0.229522196610513 C 0.0 **** 0.0
67 C76774 0.596454761395968 0.488414165034372 0.225881842633878 C 0.0 **** 0.0
68 C76778 0.648932934264359 0.48828783633778 0.231327371470379 C 0.0 **** 0.0
69 C76779 0.640259735941381 0.503620532040929 0.228759449772286 C 0.0 **** 0.0
70 C76780 0.62273310566454 0.503779919187863 0.228834012729019 C 0.0 **** 0.0
71 O76785 0.664585889712193 0.458795491305661 0.245741861760904 O 0.0 **** 0.0
72 C76786 0.673079698756912 0.444589812287988 0.238363286216672 C 0.0 **** 0.0
73 C76787 0.66294004556549 0.427890110072903 0.240821826024474 C 0.0 **** 0.0
74 C76788 0.649002212317408 0.430558500067195 0.254163176078968 C 0.0 **** 0.0
75 C76794 0.67460363873706 0.412468758146671 0.243675205467924 C 0.0 **** 0.0
76 C76795 0.69005729014017 0.414118629585989 0.232119030804086 C 0.0 **** 0.0
77 C76796 0.701603944710379 0.428324853561644 0.238671099909989 C 0.0 **** 0.0
78 C76797 0.691204393501096 0.443559039387619 0.245726586136115 C 0.0 **** 0.0
79 C76803 0.700932786415793 0.460436593944396 0.244218502684871 C 0.0 **** 0.0
80 C76804 0.719885600981376 0.457238396534772 0.246539748506766 C 0.0 **** 0.0
81 C76805 0.727032580561023 0.444715578709676 0.233178352196785 C 0.0 **** 0.0
82 N76806 0.714330140479976 0.43300421192024 0.226294626893869 N 0.0 **** 0.0
83 C76812 0.562001114320706 0.488398998874168 0.217239226386761 C 0.0 **** 0.0
84 C76813 0.570096987774481 0.503666595884353 0.22020847428824 C 0.0 **** 0.0
85 C76814 0.587599845822124 0.503656418975983 0.223674343599871 C 0.0 **** 0.0
86 O76819 0.561638599279602 0.519038825840964 0.219325681588736 O 0.0 **** 0.0
87 C76820 0.544242672909798 0.516411145898852 0.223529888809685 C 0.0 **** 0.0
88 C76821 0.536964569011018 0.504113585164784 0.211174244076122 C 0.0 **** 0.0
89 O76822 0.545075480406105 0.488070834743433 0.212557242846074 O 0.0 **** 0.0
90 C76828 0.53771373402148 0.510842280841356 0.192792656422044 C 0.0 **** 0.0
91 C76829 0.537761754132195 0.530331694992985 0.191587806302662 C 0.0 **** 0.0
92 C76830 0.527534747186895 0.538340455336257 0.206002416863588 C 0.0 **** 0.0
93 C76831 0.534143394363634 0.533025184078535 0.223694680504062 C 0.0 **** 0.0
94 C76837 0.614119304880142 0.519138512762319 0.225630741331313 C 0.0 **** 0.0
95 C76838 0.596405140432898 0.519013432338916 0.224355032735025 C 0.0 **** 0.0
96 C76842 0.649232207789419 0.517930753788826 0.223273413457127 C 0.0 **** 0.0
97 C76843 0.640657502203782 0.533116737600301 0.219345051964005 C 0.0 **** 0.0
98 C76844 0.623442221260641 0.533700402596971 0.221167430966687 C 0.0 **** 0.0
99 C76849 0.666683343981113 0.517099727984767 0.220048303739846 C 0.0 **** 0.0
100 C76850 0.675255292774325 0.501983144755189 0.221743668352108 C 0.0 **** 0.0
101 C76851 0.666321467315367 0.488119236200453 0.227234199347329 C 0.0 **** 0.0
102 O76856 0.648815976271138 0.547297003777017 0.213248818539879 O 0.0 **** 0.0
103 C76857 0.666105784172944 0.547009603715557 0.211110849815232 C 0.0 **** 0.0
104 C76858 0.675408156141384 0.532762795400741 0.214156616893539 C 0.0 **** 0.0
105 C76863 0.694022915779622 0.499888008578998 0.218192738077223 C 0.0 **** 0.0
106 C76864 0.70354212675357 0.517358079081384 0.215726351879676 C 0.0 **** 0.0
107 C76865 0.692544526180889 0.532821653899124 0.212191478791686 C 0.0 **** 0.0
108 C76870 0.717680144872581 0.516055305361879 0.20226880584668 C 0.0 **** 0.0
109 C76871 0.727660695748376 0.499511899837803 0.20420023899202 C 0.0 **** 0.0
110 C76872 0.716080249752995 0.484120062125262 0.200715094858687 C 0.0 **** 0.0
111 C76873 0.697124792487694 0.488133457828831 0.203092064382068 C 0.0 **** 0.0
112 C76879 0.700417245583134 0.54735903319476 0.20730352262331 C 0.0 **** 0.0
113 C76880 0.691231263828294 0.561845190116248 0.204830367889887 C 0.0 **** 0.0
114 C76881 0.674058001437207 0.56153565728348 0.206132315697863 C 0.0 **** 0.0
115 C76886 0.728209361359293 0.532175002742522 0.20337430727141 C 0.0 **** 0.0
116 C76888 0.719338309581698 0.547207547049529 0.205195572006259 C 0.0 **** 0.0
117 C76891 0.565901692891119 0.36027919091571 0.228614723475634 C 0.0 **** 0.0
118 C76893 0.57072716274427 0.37872752022749 0.232264189423672 C 0.0 **** 0.0
119 C76895 0.582146721344995 0.349844239971264 0.226687136978691 C 0.0 **** 0.0
120 O76897 0.640572007291403 0.415155329739616 0.257925994032191 O 0.0 **** 0.0
121 C76899 0.664963020651347 0.575817489480651 0.202558238056327 C 0.0 **** 0.0
122 C76900 0.672987529318133 0.590510034661695 0.198483691518468 C 0.0 **** 0.0
123 C76901 0.690226740517736 0.591244011953863 0.198356568109832 C 0.0 **** 0.0
124 C76902 0.699221917496206 0.576751143479268 0.201266816957618 C 0.0 **** 0.0
125 C76908 0.717930899079603 0.577413887307352 0.201087901228774 C 0.0 **** 0.0
126 C76909 0.725694643843762 0.592574920609355 0.198355608202907 C 0.0 **** 0.0
127 C76910 0.715314174998936 0.607896237893188 0.195666164416753 C 0.0 **** 0.0
128 C76911 0.698014982851908 0.606599786083468 0.195496754135809 C 0.0 **** 0.0
129 C76917 0.72326090971293 0.623124778036255 0.193522986272231 C 0.0 **** 0.0
130 C76918 0.740590440977244 0.624382028354109 0.19382092239789 C 0.0 **** 0.0
131 C76919 0.750722109347686 0.610489384470147 0.196068058169346 C 0.0 **** 0.0
132 C76920 0.742969866171806 0.593624788707148 0.198295099879148 C 0.0 **** 0.0
133 C76926 0.753086546858228 0.579164917158045 0.200355918197031 C 0.0 **** 0.0
134 C76927 0.745137254774635 0.563532331378791 0.202264304796989 C 0.0 **** 0.0
135 C76928 0.727512978596608 0.562713776948872 0.203383992828764 C 0.0 **** 0.0
136 C76933 0.770752974809259 0.580160508012841 0.20017921116092 C 0.0 **** 0.0
137 C76934 0.777816687231444 0.59803050412961 0.19868658661906 C 0.0 **** 0.0
138 C76935 0.767890160272521 0.612027515821408 0.196554332794733 C 0.0 **** 0.0
139 C76940 0.74555592027296 0.533047281605197 0.201726236212961 C 0.0 **** 0.0
140 C76941 0.754652635319489 0.548578373741217 0.20218620960354 C 0.0 **** 0.0
141 C76946 0.780358579488094 0.565371068306695 0.201392835389384 C 0.0 **** 0.0
142 C76947 0.772473514386899 0.549595015794401 0.202391892740777 C 0.0 **** 0.0
143 C76951 0.782792419137339 0.533315145538689 0.203374363464071 C 0.0 **** 0.0
144 C76952 0.798642137693441 0.535833403219941 0.214099055643777 C 0.0 **** 0.0
145 C76953 0.808721002050431 0.550218304770188 0.206733024610162 C 0.0 **** 0.0
146 C76954 0.799334818761288 0.565946682242765 0.20164079354454 C 0.0 **** 0.0
147 O76960 0.807928115298343 0.578009942459793 0.197661263851649 O 0.0 **** 0.0
148 H76962 0.37448380433976 0.377770638162063 0.194212340185306 H 0.0 **** 0.0
149 H76964 0.383920876616409 0.377446456559944 0.173894794370769 H 0.0 **** 0.0
150 H76966 0.386847386262201 0.350384727868397 0.195430876989385 H 0.0 **** 0.0
151 H76968 0.402603401389592 0.355589011550947 0.180609689504527 H 0.0 **** 0.0
152 H76970 0.40220519217325 0.365512137789271 0.217777376296787 H 0.0 **** 0.0
153 H76972 0.420703880881376 0.38587416351548 0.214063975983632 H 0.0 **** 0.0
154 H76974 0.41515409472383 0.384571226649925 0.175909954525605 H 0.0 **** 0.0
155 H76976 0.418798815760664 0.402377748069224 0.188986323103853 H 0.0 **** 0.0
156 H76978 0.439966662724649 0.364048189037657 0.188668183850883 H 0.0 **** 0.0
157 H76980 0.458919523185431 0.359182440813454 0.213416608801985 H 0.0 **** 0.0
158 H76982 0.429218940234519 0.352862001454318 0.233701302494656 H 0.0 **** 0.0
159 H76984 0.441260833372706 0.337456754694153 0.223092179175672 H 0.0 **** 0.0
160 H76986 0.411135010656792 0.33638916125262 0.213725269643945 H 0.0 **** 0.0
161 H76988 0.424435638926808 0.341989286370733 0.196837592103844 H 0.0 **** 0.0
162 H76990 0.453776243140409 0.398154986100866 0.238117684367584 H 0.0 **** 0.0
163 H76992 0.439797608949562 0.405060976734145 0.212789306441316 H 0.0 **** 0.0
164 H76994 0.464126261728365 0.382707306518293 0.192756802532548 H 0.0 **** 0.0
165 H76996 0.447371007411059 0.394607113491318 0.184268794765225 H 0.0 **** 0.0
166 H76998 0.479031652041795 0.378235536703127 0.216830400312499 H 0.0 **** 0.0
167 H77000 0.493913241779045 0.452830511813568 0.199862761386899 H 0.0 **** 0.0
168 H77002 0.491816340885719 0.43596715345542 0.185336133514225 H 0.0 **** 0.0
169 H77004 0.464969013266644 0.450270421465407 0.184675075612154 H 0.0 **** 0.0
170 H77006 0.464315596450094 0.45266552429175 0.206902452069586 H 0.0 **** 0.0
171 H77008 0.445198582586479 0.428444863464224 0.193744665218935 H 0.0 **** 0.0
172 H77010 0.5061711130545 0.371682421496528 0.231747861640049 H 0.0 **** 0.0
173 H77011 0.47494710611642 0.363785363204998 0.281201546128843 H 0.0 **** 0.0
174 H77013 0.471426096237841 0.345577681134644 0.268567398096975 H 0.0 **** 0.0
175 H77015 0.457953361417719 0.369697338140841 0.254182385388722 H 0.0 **** 0.0
176 H77017 0.496151103252338 0.343719236178005 0.293450116664968 H 0.0 **** 0.0
177 H77019 0.495947897213147 0.328668267805272 0.276815491566556 H 0.0 **** 0.0
178 H77021 0.523530265414395 0.324500989493181 0.28457904970733 H 0.0 **** 0.0
179 H77023 0.525030712928268 0.344298266504589 0.294855194012376 H 0.0 **** 0.0
180 H77025 0.530437728181546 0.360873930974485 0.230116143962825 H 0.0 **** 0.0
181 H77027 0.539501235845309 0.375132487456378 0.244588524058132 H 0.0 **** 0.0
182 H77029 0.550945348930444 0.339299517230396 0.236927716437366 H 0.0 **** 0.0
183 H77031 0.562555039273234 0.363061117744479 0.265076054909199 H 0.0 **** 0.0
184 H77033 0.573595494113012 0.344535513754812 0.259240861481496 H 0.0 **** 0.0
185 H77035 0.553119107526297 0.34007869177008 0.283551698856732 H 0.0 **** 0.0
186 H77037 0.550146673518053 0.326342666611171 0.266162026247763 H 0.0 **** 0.0
187 H77039 0.524519846958938 0.387980956530546 0.269924921205973 H 0.0 **** 0.0
188 H77041 0.585939306448582 0.412713591927571 0.265222184442467 H 0.0 **** 0.0
189 H77043 0.614072127751211 0.422248236676141 0.258752588567513 H 0.0 **** 0.0
190 H77045 0.540361264504488 0.462618271387311 0.204860060302367 H 0.0 **** 0.0
191 H77047 0.674198490049719 0.447075025199583 0.224686561961242 H 0.0 **** 0.0
192 H77049 0.656235095351614 0.425002317726367 0.228868165479052 H 0.0 **** 0.0
193 H77051 0.654648350770856 0.435336915320702 0.266025762013883 H 0.0 **** 0.0
194 H77053 0.678860075162294 0.411666825173178 0.256921872373149 H 0.0 **** 0.0
195 H77055 0.667510826970613 0.400749356855415 0.241092827416902 H 0.0 **** 0.0
196 H77057 0.685719581853428 0.417027644079583 0.219180976373739 H 0.0 **** 0.0
197 H77059 0.697316981008401 0.402279125124162 0.231154574285398 H 0.0 **** 0.0
198 H77061 0.708617334161743 0.422917344452404 0.249478063797731 H 0.0 **** 0.0
199 H77063 0.689425679905537 0.440970998175713 0.25929706842194 H 0.0 **** 0.0
200 H77065 0.698962710124623 0.465737957069088 0.231505961933059 H 0.0 **** 0.0
201 H77067 0.696121606411199 0.469800892354608 0.253340232278791 H 0.0 **** 0.0
202 H77069 0.721755283848414 0.451945009073227 0.259297442244621 H 0.0 **** 0.0
203 H77071 0.727182084522993 0.469090987074832 0.246286714965587 H 0.0 **** 0.0
204 H77073 0.737282433944464 0.437172005019073 0.238864700736319 H 0.0 **** 0.0
205 H77075 0.732915144401661 0.451636912880191 0.22262311955558 H 0.0 **** 0.0
206 H77077 0.708722272309519 0.437993843285942 0.216076110566689 H 0.0 **** 0.0
207 H77079 0.543752368713457 0.510794627553689 0.236299690896264 H 0.0 **** 0.0
208 H77081 0.523598187190172 0.502248464675521 0.214617105942009 H 0.0 **** 0.0
209 H77083 0.549217864339887 0.505851007835006 0.186813930826876 H 0.0 **** 0.0
210 H77085 0.527067191814744 0.50567983430496 0.185437009544171 H 0.0 **** 0.0
211 H77087 0.532864440204057 0.534408349385354 0.179190008349759 H 0.0 **** 0.0
212 H77089 0.550903111354172 0.534912263533293 0.192225172573215 H 0.0 **** 0.0
213 H77091 0.514288256574647 0.534156776070782 0.204698140433504 H 0.0 **** 0.0
214 H77093 0.527304702202458 0.552222476167755 0.204844555346297 H 0.0 **** 0.0
215 H77095 0.523270369253418 0.531834159562189 0.23233384182747 H 0.0 **** 0.0
216 H77097 0.542230326641085 0.542864712486256 0.229195398848888 H 0.0 **** 0.0
217 H77099 0.589668532658672 0.530884658872479 0.221820474056089 H 0.0 **** 0.0
218 H77101 0.616584161618628 0.545350258444248 0.217939096774591 H 0.0 **** 0.0
219 H77103 0.673474126455278 0.476330755538384 0.22756941664321 H 0.0 **** 0.0
220 H77105 0.699884106279947 0.493964519395582 0.229392670416867 H 0.0 **** 0.0
221 H77107 0.709793819981545 0.519774615703344 0.227916061753075 H 0.0 **** 0.0
222 H77109 0.711824222072066 0.515808084348673 0.189551748215783 H 0.0 **** 0.0
223 H77111 0.732769256579534 0.498808540044613 0.217142015901863 H 0.0 **** 0.0
224 H77113 0.738530505608705 0.498999143353059 0.195518500377065 H 0.0 **** 0.0
225 H77115 0.71968406764425 0.473567336778625 0.20903204635761 H 0.0 **** 0.0
226 H77117 0.718095200182662 0.479590974627821 0.187686334010944 H 0.0 **** 0.0
227 H77119 0.690090799383698 0.476188093937085 0.204414678095987 H 0.0 **** 0.0
228 H77121 0.692253993387998 0.494362028790876 0.191601238256486 H 0.0 **** 0.0
229 H77123 0.559328960435138 0.360089177039972 0.216302299077894 H 0.0 **** 0.0
230 H77125 0.579806821104352 0.38333800558129 0.222757866185516 H 0.0 **** 0.0
231 H77127 0.576765206808528 0.37997716291773 0.244738389504832 H 0.0 **** 0.0
232 H77129 0.559806698822764 0.387330925998926 0.231933917675746 H 0.0 **** 0.0
233 H77131 0.57944036062623 0.336402190201215 0.224333930282071 H 0.0 **** 0.0
234 H77133 0.589980285725738 0.350652831247445 0.238160003132994 H 0.0 **** 0.0
235 H77135 0.589893874892873 0.354518465696181 0.216115242630186 H 0.0 **** 0.0
236 H77137 0.648106484508098 0.409210639568923 0.265302753734985 H 0.0 **** 0.0
237 H77139 0.651180516851238 0.575827757512345 0.203115831001409 H 0.0 **** 0.0
238 H77141 0.665344812594999 0.601687760577304 0.1958929104135 H 0.0 **** 0.0
239 H77143 0.690366941496861 0.617917504756285 0.193447932667824 H 0.0 **** 0.0
240 H77145 0.715932438894544 0.634670020650494 0.191670616911046 H 0.0 **** 0.0
241 H77147 0.746200743105568 0.636892427798145 0.192216676977328 H 0.0 **** 0.0
242 H77149 0.791373118784163 0.600116836607083 0.199315410878874 H 0.0 **** 0.0
243 H77151 0.774018757386738 0.624331512810262 0.195345333838988 H 0.0 **** 0.0
244 H77153 0.752366977969944 0.521066828158933 0.200419131198661 H 0.0 **** 0.0
245 H77155 0.775532719029324 0.522949956573391 0.209091102603081 H 0.0 **** 0.0
246 H77157 0.786267203383683 0.529149040469093 0.190519615016012 H 0.0 **** 0.0
247 H77159 0.80643203565911 0.524308128329666 0.214512874006237 H 0.0 **** 0.0
248 H77161 0.794917955161045 0.538643253554668 0.227238457526398 H 0.0 **** 0.0
249 H77163 0.815271862541814 0.546597060333069 0.194987845445567 H 0.0 **** 0.0
250 H77165 0.818394300741071 0.555421068949306 0.215171070903427 H 0.0 **** 0.0
@<TRIPOS>BOND
1 3 2 1
2 4 3 1
3 5 4 1
4 6 5 1
5 1 2 1
6 1 6 1
7 8 7 1
8 9 8 1
9 10 9 1
10 4 7 1
11 3 10 1
12 12 11 1
13 13 12 1
14 14 13 1
15 8 11 1
16 7 14 1
17 16 15 1
18 17 16 Partial double
19 18 17 1
20 13 15 1
21 12 18 1
22 20 19 Partial double
23 21 20 Partial double
24 22 21 Partial double
25 17 19 Partial double
26 16 22 Partial double
27 24 23 1
28 25 24 1
29 15 25 Double
30 22 23 1
31 27 26 1
32 28 27 Partial double
33 29 28 Partial double
34 21 26 1
35 20 29 Partial double
36 31 30 1
37 32 31 1
38 18 30 1
39 19 32 1
40 34 33 Double
41 35 34 1
42 36 35 1
43 31 33 1
44 30 36 Double
45 38 37 1
46 39 38 1
47 40 39 Double
48 34 37 1
49 33 40 1
50 42 41 1
51 43 42 1
52 44 43 1
53 40 41 1
54 39 44 1
55 46 45 Partial double
56 32 46 1
57 29 45 Partial double
58 48 47 Partial double
59 49 48 1
60 45 49 Partial double
61 28 47 Partial double
62 51 50 Partial double
63 52 51 Partial double
64 53 52 Partial double
65 48 50 Partial double
66 47 53 Partial double
67 55 54 Partial double
68 56 55 Partial double
69 57 56 Partial double
70 52 54 Partial double
71 51 57 Partial double
72 59 58 Partial double
73 60 59 Partial double
74 61 60 Partial double
75 56 58 Partial double
76 55 61 Partial double
77 63 62 Partial double
78 27 63 Partial double
79 53 62 Partial double
80 65 64 Partial double
81 62 65 Partial double
82 54 64 Partial double
83 67 66 Partial double
84 64 67 Partial double
85 61 66 Partial double
86 69 68 Partial double
87 70 69 Partial double
88 66 70 Partial double
89 60 68 Partial double
90 72 71 1
91 73 72 1
92 74 73 1
93 59 71 1
94 58 74 1
95 76 75 1
96 77 76 1
97 78 77 1
98 73 75 1
99 72 78 1
100 80 79 1
101 81 80 1
102 82 81 1
103 78 79 1
104 77 82 1
105 84 83 Partial double
106 85 84 Partial double
107 67 85 Partial double
108 65 83 Partial double
109 87 86 1
110 88 87 1
111 89 88 1
112 84 86 1
113 83 89 1
114 91 90 1
115 92 91 1
116 93 92 1
117 88 90 1
118 87 93 1
119 95 94 Partial double
120 85 95 Partial double
121 70 94 Partial double
122 97 96 Partial double
123 98 97 Partial double
124 94 98 Partial double
125 69 96 Partial double
126 100 99 Partial double
127 101 100 Partial double
128 68 101 Partial double
129 96 99 Partial double
130 103 102 1
131 104 103 Partial double
132 97 102 1
133 99 104 1
134 106 105 1
135 107 106 1
136 100 105 1
137 104 107 Partial double
138 109 108 1
139 110 109 1
140 111 110 1
141 106 108 1
142 105 111 1
143 113 112 1
144 114 113 1
145 103 114 Partial double
146 107 112 Partial double
147 108 115 1
148 112 116 Partial double
149 115 116 Partial double
150 42 117 1
151 117 118 1
152 117 119 1
153 74 120 1
154 122 121 1
155 123 122 Partial double
156 124 123 1
157 114 121 Partial double
158 113 124 Partial double
159 126 125 Partial double
160 127 126 1
161 128 127 Partial double
162 124 125 Partial double
163 123 128 Partial double
164 130 129 Partial double
165 131 130 1
166 132 131 1
167 127 129 Partial double
168 126 132 Partial double
169 134 133 Partial double
170 135 134 Partial double
171 125 135 Partial double
172 132 133 Partial double
173 137 136 Partial double
174 138 137 Partial double
175 131 138 Partial double
176 133 136 Partial double
177 140 139 Partial double
178 134 140 Partial double
179 116 135 Partial double
180 115 139 Partial double
181 142 141 Partial double
182 140 142 Partial double
183 136 141 Partial double
184 144 143 1
185 145 144 1
186 146 145 1
187 142 143 1
188 141 146 1
189 146 147 Double
190 1 148 1
191 1 149 1
192 2 150 1
193 2 151 1
194 3 152 1
195 4 153 1
196 5 154 1
197 5 155 1
198 7 156 1
199 8 157 1
200 9 158 1
201 9 159 1
202 10 160 1
203 10 161 1
204 12 162 1
205 13 163 1
206 14 164 1
207 14 165 1
208 18 166 1
209 23 167 1
210 23 168 1
211 24 169 1
212 24 170 1
213 25 171 1
214 35 173 1
215 35 174 1
216 36 175 1
217 37 176 1
218 37 177 1
219 38 178 1
220 38 179 1
221 41 180 1
222 41 181 1
223 42 182 1
224 43 183 1
225 43 184 1
226 44 185 1
227 44 186 1
228 46 187 1
229 50 188 1
230 57 189 1
231 63 190 1
232 72 191 1
233 73 192 1
234 74 193 1
235 75 194 1
236 75 195 1
237 76 196 1
238 76 197 1
239 77 198 1
240 78 199 1
241 79 200 1
242 79 201 1
243 80 202 1
244 80 203 1
245 81 204 1
246 81 205 1
247 82 206 1
248 87 207 1
249 88 208 1
250 90 209 1
251 90 210 1
252 91 211 1
253 91 212 1
254 92 213 1
255 92 214 1
256 93 215 1
257 93 216 1
258 95 217 1
259 98 218 1
260 101 219 1
261 105 220 1
262 106 221 1
263 108 222 1
264 109 223 1
265 109 224 1
266 110 225 1
267 110 226 1
268 111 227 1
269 111 228 1
270 117 229 1
271 118 230 1
272 118 231 1
273 118 232 1
274 119 233 1
275 119 234 1
276 119 235 1
277 120 236 1
278 121 237 1
279 122 238 1
280 128 239 1
281 129 240 1
282 130 241 1
283 137 242 1
284 138 243 1
285 139 244 1
286 143 245 1
287 143 246 1
288 144 247 1
289 144 248 1
290 145 249 1
291 145 250 1
292 31 172 1
@<TRIPOS>MOLECULE
Sketch 4
250 292
SMALL
USER_CHARGES


@<TRIPOS>ATOM
1 C77168 0.426892724276949 0.331725543699472 -0.10220557428638 C 0.0 **** 0.0
2 C77169 0.420585828648292 0.318521841625547 -0.115229764194131 C 0.0 **** 0.0
3 C77170 0.40141355111919 0.320068773965931 -0.118293386350766 C 0.0 **** 0.0
4 C77171 0.391426849684859 0.318836055537903 -0.101225305114146 C 0.0 **** 0.0
5 C77172 0.402439947270874 0.326235261093087 -0.0866663719132011 C 0.0 **** 0.0
6 O77173 0.41361426036876 0.338979403442494 -0.0925221394136447 O 0.0 **** 0.0
7 C77180 0.384980148052542 0.300780269177491 -0.0968471200001862 C 0.0 **** 0.0
8 C77181 0.376231459049845 0.291482178741831 -0.112149879475618 C 0.0 **** 0.0
9 C77182 0.377408514474691 0.301528578299193 -0.128667026231502 C 0.0 **** 0.0
10 C77183 0.395365228347401 0.307616791534027 -0.132046495030771 C 0.0 **** 0.0
11 O77189 0.358811611493931 0.287297050174706 -0.11038777923029 O 0.0 **** 0.0
12 C77190 0.354550293316375 0.280192120864005 -0.0943674388521736 C 0.0 **** 0.0
13 C77191 0.356424283869093 0.294228815601585 -0.0811340641054008 C 0.0 **** 0.0
14 C77192 0.374860844419501 0.300496375130441 -0.0798177190632345 C 0.0 **** 0.0
15 C77198 0.349552576518629 0.288241558336989 -0.0642818087907587 C 0.0 **** 0.0
16 C77199 0.351981195700004 0.269807955573419 -0.0598644425352368 C 0.0 **** 0.0
17 C77200 0.358627948959726 0.258536408186397 -0.0716152689060091 C 0.0 **** 0.0
18 C77201 0.365094651897905 0.26496656037065 -0.0886990753174433 C 0.0 **** 0.0
19 C77207 0.360508589668955 0.241587655257017 -0.0672133867337094 C 0.0 **** 0.0
20 C77208 0.356819201101522 0.236463373023629 -0.0508538186308124 C 0.0 **** 0.0
21 C77209 0.350077253759229 0.247746524842784 -0.0392592953020282 C 0.0 **** 0.0
22 C77210 0.347525263873984 0.264492174835933 -0.043780463982686 C 0.0 **** 0.0
23 C77216 0.341336480840055 0.276790827543982 -0.0304170056911344 C 0.0 **** 0.0
24 C77217 0.332063260188555 0.292124747203633 -0.0382175369765065 C 0.0 **** 0.0
25 C77218 0.340520207357475 0.298484129107034 -0.0540776181231901 C 0.0 **** 0.0
26 O77223 0.345937322124501 0.242923981813367 -0.0229438812851365 O 0.0 **** 0.0
27 C77224 0.349691770064377 0.226821612479953 -0.0174196130330705 C 0.0 **** 0.0
28 C77225 0.357335490441792 0.214653206796307 -0.0274064901071501 C 0.0 **** 0.0
29 C77226 0.361704931396538 0.21902371629673 -0.0453667917849419 C 0.0 **** 0.0
30 C77232 0.3672050218917 0.250455780863964 -0.100724390409648 C 0.0 **** 0.0
31 C77233 0.378639489881146 0.237310956992811 -0.0928101868731364 C 0.0 **** 0.0
32 C77234 0.366839580587676 0.228706540672419 -0.0799384126228789 C 0.0 **** 0.0
33 C77239 0.386917567359883 0.225259387439549 -0.105837296661467 C 0.0 **** 0.0
34 C77240 0.378341157158743 0.222508232510731 -0.120577553485919 C 0.0 **** 0.0
35 C77241 0.362025148733886 0.23155826695629 -0.125183803417394 C 0.0 **** 0.0
36 C77242 0.359522220688212 0.247907370318484 -0.115593411400597 C 0.0 **** 0.0
37 C77248 0.385791349666479 0.212599682621314 -0.135019429636104 C 0.0 **** 0.0
38 C77249 0.399290375099734 0.199946017638457 -0.129196861511806 C 0.0 **** 0.0
39 C77250 0.408892739895368 0.206303049547835 -0.11403457104885 C 0.0 **** 0.0
40 C77251 0.402554321647342 0.218253522399017 -0.103274541404963 C 0.0 **** 0.0
41 C77257 0.413869842540866 0.22333712129969 -0.0882850034532261 C 0.0 **** 0.0
42 C77258 0.432591356512238 0.220897900869252 -0.0922191521004507 C 0.0 **** 0.0
43 C77259 0.435269455652443 0.202003048859866 -0.0959557894772822 C 0.0 **** 0.0
44 C77260 0.425589049299367 0.197206826168069 -0.112005723615155 C 0.0 **** 0.0
45 C77266 0.370095571661708 0.208323557836164 -0.0558594275779184 C 0.0 **** 0.0
46 C77267 0.373399312975054 0.212386323325406 -0.0722487917112172 C 0.0 **** 0.0
47 C77271 0.359491418715374 0.198193790590636 -0.0207881608571319 C 0.0 **** 0.0
48 C77272 0.366666819137913 0.184859880870952 -0.0302959885695864 C 0.0 **** 0.0
49 S77273 0.377811501385423 0.189014741421199 -0.0486702841161645 S 0.0 **** 0.0
50 C77278 0.365538189851197 0.168315963410934 -0.025297429585381 C 0.0 **** 0.0
51 C77279 0.359578350606993 0.164471982257905 -0.00884506040843215 C 0.0 **** 0.0
52 C77280 0.355181915595413 0.178088890096799 0.00193058753170592 C 0.0 **** 0.0
53 C77281 0.353424809457508 0.194401910642883 -0.0043822421397665 C 0.0 **** 0.0
54 C77287 0.356011943850241 0.175587074073243 0.0193782838714372 C 0.0 **** 0.0
55 C77288 0.362514774276612 0.160456284960979 0.0257908354608279 C 0.0 **** 0.0
56 C77289 0.363574558713995 0.145777649114462 0.015627490694438 C 0.0 **** 0.0
57 C77290 0.361733404080014 0.14822914962107 -0.00195669240467002 C 0.0 **** 0.0
58 C77296 0.368151154658519 0.130308852821318 0.0231428291150759 C 0.0 **** 0.0
59 C77297 0.376549117932798 0.130677573842372 0.0385480167262507 C 0.0 **** 0.0
60 C77298 0.377123998529543 0.145782271288416 0.0481928207593789 C 0.0 **** 0.0
61 C77299 0.368266569392734 0.159878669784792 0.0423167730971269 C 0.0 **** 0.0
62 C77305 0.347379528713653 0.207303495301412 0.00633205554077282 C 0.0 **** 0.0
63 C77306 0.345319931379521 0.223296460424292 -0.000995688659037804 C 0.0 **** 0.0
64 C77310 0.352026708781431 0.188860341935737 0.0303018392323313 C 0.0 **** 0.0
65 C77311 0.345462194644748 0.204048226581598 0.0240332486408279 C 0.0 **** 0.0
66 C77315 0.364126301539087 0.17302261186514 0.053351096982683 C 0.0 **** 0.0
67 C77316 0.3551923467031 0.186982004638655 0.0473880679999665 C 0.0 **** 0.0
68 C77320 0.38450434558171 0.146578810159577 0.0645035652044809 C 0.0 **** 0.0
69 C77321 0.378503034713269 0.15880230183019 0.0759835894149264 C 0.0 **** 0.0
70 C77322 0.3681362244782 0.17173118373125 0.0704188897034608 C 0.0 **** 0.0
71 O77327 0.383359579826154 0.115773690045278 0.0449393837548089 O 0.0 **** 0.0
72 C77328 0.392717069085825 0.106027075216344 0.0327199703032129 C 0.0 **** 0.0
73 C77329 0.383177784079218 0.103819636507592 0.0156275111638263 C 0.0 **** 0.0
74 C77330 0.366011524444711 0.11257095762458 0.0159524817031757 C 0.0 **** 0.0
75 C77336 0.382236244666612 0.0852121193072204 0.0097108700580242 C 0.0 **** 0.0
76 C77337 0.399865427601203 0.0773326385454801 0.0107899333215676 C 0.0 **** 0.0
77 C77338 0.405382615993432 0.0753832271921236 0.0293486082362781 C 0.0 **** 0.0
78 C77339 0.397397924958227 0.0890567482934161 0.0412040783073318 C 0.0 **** 0.0
79 C77345 0.407969794813397 0.0919655449329805 0.0573404127570728 C 0.0 **** 0.0
80 C77346 0.417047816144408 0.0756028534673573 0.0620473642844284 C 0.0 **** 0.0
81 C77347 0.429418550656168 0.069911320880961 0.0480354330986265 C 0.0 **** 0.0
82 N77348 0.423664628590268 0.0738178024034375 0.0307049422000444 N 0.0 **** 0.0
83 C77354 0.338418295561117 0.215935370523262 0.0354995617347478 C 0.0 **** 0.0
84 C77355 0.340011998687175 0.213298836505908 0.0527956819149844 C 0.0 **** 0.0
85 C77356 0.349138389631817 0.199171608907418 0.0587297551242382 C 0.0 **** 0.0
86 O77361 0.333570542884917 0.224420155270903 0.0647299432768346 O 0.0 **** 0.0
87 C77362 0.320705608686373 0.235091928737486 0.0579847718810565 C 0.0 **** 0.0
88 C77363 0.327017523414654 0.243024579150126 0.0420116809287668 C 0.0 **** 0.0
89 O77364 0.330215833325763 0.23028729520116 0.0295786334329839 O 0.0 **** 0.0
90 C77370 0.342765910855899 0.254301972583426 0.0450699115766954 C 0.0 **** 0.0
91 C77371 0.343844375050285 0.26123996559917 0.0633116991555341 C 0.0 **** 0.0
92 C77372 0.326165964355454 0.264529151704054 0.0705657483272469 C 0.0 **** 0.0
93 C77373 0.315606114193759 0.248097256777908 0.0715237685725869 C 0.0 **** 0.0
94 C77379 0.362113462626307 0.183842916909691 0.0821376912529912 C 0.0 **** 0.0
95 C77380 0.352278031323085 0.19737576714245 0.0760968101722409 C 0.0 **** 0.0
96 C77384 0.383551005669393 0.158132388650661 0.0929016403815688 C 0.0 **** 0.0
97 C77385 0.377188628497224 0.169822330411556 0.104861225754013 C 0.0 **** 0.0
98 C77386 0.366645518909795 0.18246913631497 0.0993810126290872 C 0.0 **** 0.0
99 C77391 0.395544740365633 0.146172323464018 0.098135615322094 C 0.0 **** 0.0
100 C77392 0.403216641658395 0.135510978837707 0.0865525667129435 C 0.0 **** 0.0
101 C77393 0.397713898857581 0.135961985076071 0.0700465426899368 C 0.0 **** 0.0
102 O77398 0.381912189755473 0.169442578315898 0.121675294247352 O 0.0 **** 0.0
103 C77399 0.39100628742833 0.155719011788869 0.127512746864321 C 0.0 **** 0.0
104 C77400 0.398931913485073 0.144868167437788 0.116604534895395 C 0.0 **** 0.0
105 C77405 0.416894369438177 0.122976145802995 0.0912611739567919 C 0.0 **** 0.0
106 C77406 0.417164519962993 0.119040938785779 0.110841913920462 C 0.0 **** 0.0
107 C77407 0.408664347439836 0.131931537327918 0.122434431302544 C 0.0 **** 0.0
108 C77412 0.435291761339635 0.115945162417692 0.117269307343413 C 0.0 **** 0.0
109 C77413 0.445957206199882 0.105617521247046 0.104815707717462 C 0.0 **** 0.0
110 C77414 0.447576175495515 0.114668505205061 0.0874724922970833 C 0.0 **** 0.0
111 C77415 0.434287570365439 0.128742054589562 0.0849718707282998 C 0.0 **** 0.0
112 C77421 0.410568450838911 0.129868707762118 0.139401158507193 C 0.0 **** 0.0
113 C77422 0.40141436716393 0.139624752006893 0.15041537744761 C 0.0 **** 0.0
114 C77423 0.391879931255524 0.152744361960789 0.144549995927567 C 0.0 **** 0.0
115 C77428 0.433604305154218 0.108315997026313 0.134875747543512 C 0.0 **** 0.0
116 C77430 0.421881108802873 0.115875113085637 0.145500964898957 C 0.0 **** 0.0
117 C77433 0.444108384210971 0.228684466375084 -0.0784619775659183 C 0.0 **** 0.0
118 C77435 0.441189611310213 0.221306397599473 -0.0608297502347114 C 0.0 **** 0.0
119 C77437 0.462933908205677 0.227508222119429 -0.0829420117257172 C 0.0 **** 0.0
120 O77439 0.359388615870852 0.11190050675801 -0.000676522954999834 O 0.0 **** 0.0
121 C77441 0.383060847769308 0.162564413506847 0.155762645959609 C 0.0 **** 0.0
122 C77442 0.383055169151028 0.158759276456765 0.172578849793599 C 0.0 **** 0.0
123 C77443 0.391997715706658 0.145193648794749 0.178450773971514 C 0.0 **** 0.0
124 C77444 0.401459669429297 0.135945819122754 0.167297990476898 C 0.0 **** 0.0
125 C77450 0.411024837519574 0.12107199578918 0.173512237855005 C 0.0 **** 0.0
126 C77451 0.409631267319682 0.11659904278955 0.190103626930116 C 0.0 **** 0.0
127 C77452 0.399076560738167 0.126949985094169 0.201540814056976 C 0.0 **** 0.0
128 C77453 0.390962854621765 0.141005056382419 0.195370410521697 C 0.0 **** 0.0
129 C77459 0.397456297961788 0.122087332300018 0.218064326272808 C 0.0 **** 0.0
130 C77460 0.405041738741924 0.107624248623001 0.22400322508747 C 0.0 **** 0.0
131 C77461 0.414717811063345 0.097520785442368 0.21377940644089 C 0.0 **** 0.0
132 C77462 0.417670310779583 0.102443867302112 0.196003504218252 C 0.0 **** 0.0
133 C77468 0.427755135226315 0.0924152820010281 0.185348617086349 C 0.0 **** 0.0
134 C77469 0.430035435420678 0.0975500850811297 0.168637588337596 C 0.0 **** 0.0
135 C77470 0.420964962917647 0.111446260116448 0.162503878013159 C 0.0 **** 0.0
136 C77475 0.434250376912639 0.0768682389234991 0.190746945748545 C 0.0 **** 0.0
137 C77476 0.430574387097317 0.072588286233926 0.20917408063963 C 0.0 **** 0.0
138 C77477 0.421471675203457 0.0828240159698461 0.21971690280653 C 0.0 **** 0.0
139 C77482 0.442970417370174 0.0950025981658275 0.141168220308058 C 0.0 **** 0.0
140 C77483 0.440403022069547 0.0882586151895913 0.157650085475428 C 0.0 **** 0.0
141 C77488 0.442695073509308 0.0664751134096402 0.179182060982184 C 0.0 **** 0.0
142 C77489 0.446496054789743 0.0723314410202541 0.162941839289646 C 0.0 **** 0.0
143 C77493 0.457222419737715 0.0616633806819025 0.150986851673902 C 0.0 **** 0.0
144 C77494 0.45176255988477 0.0431995373584643 0.151787706737851 C 0.0 **** 0.0
145 C77495 0.453769894675251 0.0372485852034377 0.169762546861363 C 0.0 **** 0.0
146 C77496 0.447645737840032 0.0486964429579529 0.183687298769013 C 0.0 **** 0.0
147 O77502 0.446870357446194 0.0425355487703777 0.1977016596613 O 0.0 **** 0.0
148 H77504 0.432771547942143 0.342439218652161 -0.108753929432267 H 0.0 **** 0.0
149 H77506 0.436616396848167 0.326164893660807 -0.0938962386387882 H 0.0 **** 0.0
150 H77508 0.427522004085893 0.319807124992824 -0.127260665954123 H 0.0 **** 0.0
151 H77510 0.423228824518838 0.305583805546949 -0.110715005978399 H 0.0 **** 0.0
152 H77512 0.399196045278267 0.333025317709835 -0.123054420732389 H 0.0 **** 0.0
153 H77514 0.380131194618787 0.326930195475214 -0.102719112736971 H 0.0 **** 0.0
154 H77516 0.409573127819519 0.316071411617406 -0.0802714390562268 H 0.0 **** 0.0
155 H77518 0.394550006895295 0.332255453659387 -0.0769380671395583 H 0.0 **** 0.0
156 H77520 0.396714482190818 0.29356633669915 -0.0944266131804515 H 0.0 **** 0.0
157 H77522 0.383376232259227 0.279621617751619 -0.114098193010864 H 0.0 **** 0.0
158 H77524 0.368688021854013 0.312383350962228 -0.127883679559993 H 0.0 **** 0.0
159 H77526 0.372750729234153 0.293472349451139 -0.139053056544804 H 0.0 **** 0.0
160 H77528 0.396429913078342 0.313557611882816 -0.14460191488874 H 0.0 **** 0.0
161 H77530 0.403712817153782 0.296441911280192 -0.132330112957478 H 0.0 **** 0.0
162 H77532 0.341170915908519 0.276550555253541 -0.0956518220650281 H 0.0 **** 0.0
163 H77534 0.348681652101145 0.304918974636107 -0.0855442486386657 H 0.0 **** 0.0
164 H77536 0.381876788933845 0.292460213685655 -0.0708538074407754 H 0.0 **** 0.0
165 H77538 0.374771516108821 0.313122931467533 -0.0739581941845047 H 0.0 **** 0.0
166 H77540 0.378161547527202 0.269541945866478 -0.0865977324537697 H 0.0 **** 0.0
167 H77542 0.332834470316822 0.270476371725737 -0.0213837088968242 H 0.0 **** 0.0
168 H77544 0.352297206717303 0.281292219440828 -0.0230442073923944 H 0.0 **** 0.0
169 H77546 0.331336345868007 0.302386219149222 -0.0287912472543846 H 0.0 **** 0.0
170 H77548 0.318927203203617 0.288588447221386 -0.0412698086814987 H 0.0 **** 0.0
171 H77550 0.33800494895794 0.311662643740502 -0.0572204388323948 H 0.0 **** 0.0
172 H77552 0.388599793745441 0.244103905954831 -0.0858797203454609 H 0.0 **** 0.0
173 H77553 0.351152996331462 0.223232202346008 -0.122801663510795 H 0.0 **** 0.0
174 H77555 0.362079316252541 0.234195210238993 -0.138868870041635 H 0.0 **** 0.0
175 H77557 0.350708722353947 0.257202353111844 -0.120676504457107 H 0.0 **** 0.0
176 H77559 0.37591291535498 0.205919722483536 -0.142197694206557 H 0.0 **** 0.0
177 H77561 0.391527215088402 0.221674727167222 -0.143922968518345 H 0.0 **** 0.0
178 H77563 0.408027203722735 0.197372491500291 -0.13978277263623 H 0.0 **** 0.0
179 H77565 0.3933194967191 0.187788730873602 -0.125890383744944 H 0.0 **** 0.0
180 H77567 0.411920860931284 0.236674719560015 -0.0849216506659192 H 0.0 **** 0.0
181 H77569 0.410302213219293 0.215803104495883 -0.0771264732673069 H 0.0 **** 0.0
182 H77571 0.435490887172554 0.227906641584355 -0.103986204754089 H 0.0 **** 0.0
183 H77573 0.430703441373356 0.194500443172016 -0.0851279641698433 H 0.0 **** 0.0
184 H77575 0.448714668221882 0.198762739029775 -0.0976160563761675 H 0.0 **** 0.0
185 H77577 0.423400425404955 0.183430131406911 -0.112524222308365 H 0.0 **** 0.0
186 H77579 0.433472018180039 0.200381348909473 -0.123091037691164 H 0.0 **** 0.0
187 H77581 0.380363778369683 0.203736208151894 -0.080380495808265 H 0.0 **** 0.0
188 H77583 0.370760378100457 0.158138727926533 -0.0331287589843188 H 0.0 **** 0.0
189 H77585 0.365171477773562 0.138056123002452 -0.0107254216198145 H 0.0 **** 0.0
190 H77587 0.34076292238073 0.234294676126237 0.00603433850504745 H 0.0 **** 0.0
191 H77589 0.404518539626919 0.112968271695825 0.0301886908347677 H 0.0 **** 0.0
192 H77591 0.39038266609463 0.110223314804042 0.00556155282131993 H 0.0 **** 0.0
193 H77593 0.357415591463514 0.105457019373005 0.0244350632466465 H 0.0 **** 0.0
194 H77595 0.373222871035654 0.0779215234041874 0.0174591888976475 H 0.0 **** 0.0
195 H77597 0.377445850100904 0.084779145993377 -0.00338898766539298 H 0.0 **** 0.0
196 H77599 0.408758906998382 0.0856817777843458 0.00402032197139231 H 0.0 **** 0.0
197 H77601 0.400467953556014 0.0649885821614835 0.0043424506409817 H 0.0 **** 0.0
198 H77603 0.400210225734135 0.0631465839980501 0.0336837012468694 H 0.0 **** 0.0
199 H77605 0.385102349722323 0.0837881606053832 0.0452414138355483 H 0.0 **** 0.0
200 H77607 0.417507113374452 0.101891380387135 0.0551197064954048 H 0.0 **** 0.0
201 H77609 0.399702813310935 0.096440797327712 0.0675699038085682 H 0.0 **** 0.0
202 H77611 0.407328620001925 0.0657686324918934 0.0639157300967422 H 0.0 **** 0.0
203 H77613 0.42393746737365 0.0766156460840928 0.0741062796837159 H 0.0 **** 0.0
204 H77615 0.431332414222983 0.0561767983042798 0.0489686132787863 H 0.0 **** 0.0
205 H77617 0.441858501349972 0.0758297954296193 0.050064015956781 H 0.0 **** 0.0
206 H77619 0.429092430393351 0.0844858840083972 0.0265113369813658 H 0.0 **** 0.0
207 H77621 0.309780379843627 0.227114880564517 0.0547712423448774 H 0.0 **** 0.0
208 H77623 0.316792908582497 0.251081437880198 0.0370396808829611 H 0.0 **** 0.0
209 H77625 0.354144497781955 0.246834118394917 0.0422962377463067 H 0.0 **** 0.0
210 H77627 0.342852798540082 0.264878756949797 0.0359971479488417 H 0.0 **** 0.0
211 H77629 0.351637999431989 0.272782890869339 0.0636324417683069 H 0.0 **** 0.0
212 H77631 0.350336857867156 0.251970413593387 0.0714678978043309 H 0.0 **** 0.0
213 H77633 0.319655380308159 0.273576764339687 0.0622241633712781 H 0.0 **** 0.0
214 H77635 0.326894114061272 0.270586396313159 0.0830986928325481 H 0.0 **** 0.0
215 H77637 0.302059549766718 0.251254381229608 0.0708222712533769 H 0.0 **** 0.0
216 H77639 0.317520829943497 0.241988150710953 0.0838872171993205 H 0.0 **** 0.0
217 H77641 0.347496295359741 0.206878270352219 0.0850203504019471 H 0.0 **** 0.0
218 H77643 0.362023503275442 0.192065980418899 0.108293990367707 H 0.0 **** 0.0
219 H77645 0.403771941066425 0.12727697919205 0.061115986163399 H 0.0 **** 0.0
220 H77647 0.414187765322797 0.110850304101071 0.0850071893986109 H 0.0 **** 0.0
221 H77649 0.410031266559685 0.107145029313023 0.112413374777357 H 0.0 **** 0.0
222 H77651 0.441630648277181 0.128324964049902 0.118569435947941 H 0.0 **** 0.0
223 H77653 0.440159278841932 0.0930720065736422 0.103087231981509 H 0.0 **** 0.0
224 H77655 0.458627563474886 0.103591641924473 0.110162552729225 H 0.0 **** 0.0
225 H77657 0.446290710696329 0.105311499293862 0.0772290840215953 H 0.0 **** 0.0
226 H77659 0.460336872439887 0.120058102085537 0.0860867404829978 H 0.0 **** 0.0
227 H77661 0.433895736854135 0.132487298660333 0.0715484909007255 H 0.0 **** 0.0
228 H77663 0.438020321043341 0.14009154580046 0.092117671146691 H 0.0 **** 0.0
229 H77665 0.440926737112491 0.242294525181452 -0.0778589212235475 H 0.0 **** 0.0
230 H77667 0.449528783383418 0.227383018006388 -0.0514908911492418 H 0.0 **** 0.0
231 H77669 0.443847829531667 0.207684825490207 -0.060806079749392 H 0.0 **** 0.0
232 H77671 0.428111896406344 0.223012800402447 -0.0564588975024636 H 0.0 **** 0.0
233 H77673 0.465562682695966 0.232748713652087 -0.0955646446032043 H 0.0 **** 0.0
234 H77675 0.46733503789767 0.214309461313336 -0.0827849998871803 H 0.0 **** 0.0
235 H77677 0.470634048287627 0.234597523171003 -0.0737679200775636 H 0.0 **** 0.0
236 H77679 0.350060323946637 0.119440627728736 -0.00130922938282221 H 0.0 **** 0.0
237 H77681 0.375501981389672 0.173287156576674 0.151509924302119 H 0.0 **** 0.0
238 H77683 0.375447808153416 0.16652221451721 0.18108252043318 H 0.0 **** 0.0
239 H77685 0.38321620376607 0.148669362921337 0.203845240867057 H 0.0 **** 0.0
240 H77687 0.389833469872779 0.129545486793437 0.226825748080558 H 0.0 **** 0.0
241 H77689 0.403024404799037 0.104222320250752 0.23721429669296 H 0.0 **** 0.0
242 H77691 0.435462189336404 0.0609604510640802 0.214570923657797 H 0.0 **** 0.0
243 H77693 0.419583015918541 0.0788406916507589 0.232778562807929 H 0.0 **** 0.0
244 H77695 0.451759964772672 0.0889733568630098 0.132356244048707 H 0.0 **** 0.0
245 H77697 0.456307021136456 0.0657770984574337 0.13779680030984 H 0.0 **** 0.0
246 H77699 0.470717726344779 0.0627459906728305 0.154456226326799 H 0.0 **** 0.0
247 H77701 0.459445161293778 0.0352136354038403 0.143368178877333 H 0.0 **** 0.0
248 H77703 0.438525192686511 0.0420316615019163 0.147567829039785 H 0.0 **** 0.0
249 H77705 0.467156147399059 0.0352172877042601 0.173018289596288 H 0.0 **** 0.0
250 H77707 0.44706610564853 0.0254382787820071 0.172666365524904 H 0.0 **** 0.0
@<TRIPOS>BOND
1 3 2 1
2 4 3 1
3 5 4 1
4 6 5 1
5 1 2 1
6 1 6 1
7 8 7 1
8 9 8 1
9 10 9 1
10 4 7 1
11 3 10 1
12 12 11 1
13 13 12 1
14 14 13 1
15 8 11 1
16 7 14 1
17 16 15 1
18 17 16 Partial double
19 18 17 1
20 13 15 1
21 12 18 1
22 20 19 Partial double
23 21 20 Partial double
24 22 21 Partial double
25 17 19 Partial double
26 16 22 Partial double
27 24 23 1
28 25 24 1
29 15 25 Double
30 22 23 1
31 27 26 1
32 28 27 Partial double
33 29 28 Partial double
34 21 26 1
35 20 29 Partial double
36 31 30 1
37 32 31 1
38 18 30 1
39 19 32 1
40 34 33 Double
41 35 34 1
42 36 35 1
43 31 33 1
44 30 36 Double
45 38 37 1
46 39 38 1
47 40 39 Double
48 34 37 1
49 33 40 1
50 42 41 1
51 43 42 1
52 44 43 1
53 40 41 1
54 39 44 1
55 46 45 Partial double
56 32 46 1
57 29 45 Partial double
58 48 47 Partial double
59 49 48 1
60 45 49 Partial double
61 28 47 Partial double
62 51 50 Partial double
63 52 51 Partial double
64 53 52 Partial double
65 48 50 Partial double
66 47 53 Partial double
67 55 54 Partial double
68 56 55 Partial double
69 57 56 Partial double
70 52 54 Partial double
71 51 57 Partial double
72 59 58 Partial double
73 60 59 Partial double
74 61 60 Partial double
75 56 58 Partial double
76 55 61 Partial double
77 63 62 Partial double
78 27 63 Partial double
79 53 62 Partial double
80 65 64 Partial double
81 62 65 Partial double
82 54 64 Partial double
83 67 66 Partial double
84 64 67 Partial double
85 61 66 Partial double
86 69 68 Partial double
87 70 69 Partial double
88 66 70 Partial double
89 60 68 Partial double
90 72 71 1
91 73 72 1
92 74 73 1
93 59 71 1
94 58 74 1
95 76 75 1
96 77 76 1
97 78 77 1
98 73 75 1
99 72 78 1
100 80 79 1
101 81 80 1
102 82 81 1
103 78 79 1
104 77 82 1
105 84 83 Partial double
106 85 84 Partial double
107 67 85 Partial double
108 65 83 Partial double
109 87 86 1
110 88 87 1
111 89 88 1
112 84 86 1
113 83 89 1
114 91 90 1
115 92 91 1
116 93 92 1
117 88 90 1
118 87 93 1
119 95 94 Partial double
120 85 95 Partial double
121 70 94 Partial double
122 97 96 Partial double
123 98 97 Partial double
124 94 98 Partial double
125 69 96 Partial double
126 100 99 Partial double
127 101 100 Partial double
128 68 101 Partial double
129 96 99 Partial double
130 103 102 1
131 104 103 Partial double
132 97 102 1
133 99 104 1
134 106 105 1
135 107 106 1
136 100 105 1
137 104 107 Partial double
138 109 108 1
139 110 109 1
140 111 110 1
141 106 108 1
142 105 111 1
143 113 112 1
144 114 113 1
145 103 114 Partial double
146 107 112 Partial double
147 108 115 1
148 112 116 Partial double
149 115 116 Partial double
150 42 117 1
151 117 118 1
152 117 119 1
153 74 120 1
154 122 121 1
155 123 122 Partial double
156 124 123 1
157 114 121 Partial double
158 113 124 Partial double
159 126 125 Partial double
160 127 126 1
161 128 127 Partial double
162 124 125 Partial double
163 123 128 Partial double
164 130 129 Partial double
165 131 130 1
166 132 131 1
167 127 129 Partial double
168 126 132 Partial double
169 134 133 Partial double
170 135 134 Partial double
171 125 135 Partial double
172 132 133 Partial double
173 137 136 Partial double
174 138 137 Partial double
175 131 138 Partial double
176 133 136 Partial double
177 140 139 Partial double
178 134 140 Partial double
179 116 135 Partial double
180 115 139 Partial double
181 142 141 Partial double
182 140 142 Partial double
183 136 141 Partial double
184 144 143 1
185 145 144 1
186 146 145 1
187 142 143 1
188 141 146 1
189 146 147 Double
190 1 148 1
191 1 149 1
192 2 150 1
193 2 151 1
194 3 152 1
195 4 153 1
196 5 154 1
197 5 155 1
198 7 156 1
199 8 157 1
200 9 158 1
201 9 159 1
202 10 160 1
203 10 161 1
204 12 162 1
205 13 163 1
206 14 164 1
207 14 165 1
208 18 166 1
209 23 167 1
210 23 168 1
211 24 169 1
212 24 170 1
213 25 171 1
214 35 173 1
215 35 174 1
216 36 175 1
217 37 176 1
218 37 177 1
219 38 178 1
220 38 179 1
221 41 180 1
222 41 181 1
223 42 182 1
224 43 183 1
225 43 184 1
226 44 185 1
227 44 186 1
228 46 187 1
229 50 188 1
230 57 189 1
231 63 190 1
232 72 191 1
233 73 192 1
234 74 193 1
235 75 194 1
236 75 195 1
237 76 196 1
238 76 197 1
239 77 198 1
240 78 199 1
241 79 200 1
242 79 201 1
243 80 202 1
244 80 203 1
245 81 204 1
246 81 205 1
247 82 206 1
248 87 207 1
249 88 208 1
250 90 209 1
251 90 210 1
252 91 211 1
253 91 212 1
254 92 213 1
255 92 214 1
256 93 215 1
257 93 216 1
258 95 217 1
259 98 218 1
260 101 219 1
261 105 220 1
262 106 221 1
263 108 222 1
264 109 223 1
265 109 224 1
266 110 225 1
267 110 226 1
268 111 227 1
269 111 228 1
270 117 229 1
271 118 230 1
272 118 231 1
273 118 232 1
274 119 233 1
275 119 234 1
276 119 235 1
277 120 236 1
278 121 237 1
279 122 238 1
280 128 239 1
281 129 240 1
282 130 241 1
283 137 242 1
284 138 243 1
285 139 244 1
286 143 245 1
287 143 246 1
288 144 247 1
289 144 248 1
290 145 249 1
291 145 250 1
292 31 172 1
@<TRIPOS>MOLECULE
Sketch 4
250 292
SMALL
USER_CHARGES


@<TRIPOS>ATOM
1 C77710 0.0549189321380043 0.474566394860603 0.462373179643317 C 0.0 **** 0.0
2 C77711 0.059146817894483 0.466503063426687 0.479769761786203 C 0.0 **** 0.0
3 C77712 0.0663448876582727 0.479897843628532 0.492080124059148 C 0.0 **** 0.0
4 C77713 0.0782290527671092 0.49195714373663 0.4823855024239 C 0.0 **** 0.0
5 C77714 0.068446482029997 0.500434049123613 0.467574593599019 C 0.0 **** 0.0
6 O77715 0.0528231148372468 0.492320947486532 0.463781141191376 O 0.0 **** 0.0
7 C77722 0.0943439119801193 0.482727798560691 0.476029194162244 C 0.0 **** 0.0
8 C77723 0.101275508789742 0.469260475384172 0.488714493785759 C 0.0 **** 0.0
9 C77724 0.0943952668491629 0.472325045672492 0.506535201856094 C 0.0 **** 0.0
10 C77725 0.074972199579197 0.4721653656032 0.50779963636582 C 0.0 **** 0.0
11 O77731 0.119268133624589 0.469813471031278 0.490332209963036 O 0.0 **** 0.0
12 C77732 0.128285015191088 0.470174319722801 0.474628969183107 C 0.0 **** 0.0
13 C77733 0.124091573758572 0.486633784652587 0.464253388952881 C 0.0 **** 0.0
14 C77734 0.108497032912151 0.495435928974089 0.472202241496747 C 0.0 **** 0.0
15 C77740 0.122871068442651 0.484310283223054 0.445158316566588 C 0.0 **** 0.0
16 C77741 0.132382580448526 0.469641511991555 0.437694591738407 C 0.0 **** 0.0
17 C77742 0.135244222748324 0.455385794295275 0.447421215819585 C 0.0 **** 0.0
18 C77743 0.126812464896079 0.453561358217287 0.46474796159068 C 0.0 **** 0.0
19 C77749 0.144820000243254 0.442409513519943 0.440592794275995 C 0.0 **** 0.0
20 C77750 0.150286125334609 0.44330277931802 0.42397272620497 C 0.0 **** 0.0
21 C77751 0.146564320902681 0.457206661843553 0.413924985565207 C 0.0 **** 0.0
22 C77752 0.137700410045452 0.470630269564159 0.420970284892444 C 0.0 **** 0.0
23 C77758 0.133776956974323 0.486233624797622 0.410632457401213 C 0.0 **** 0.0
24 C77759 0.11628372768672 0.493349980895915 0.415722676243459 C 0.0 **** 0.0
25 C77760 0.115189512564541 0.495419352610732 0.434734960347041 C 0.0 **** 0.0
26 O77765 0.151618583971931 0.458053378699548 0.397097114289383 O 0.0 **** 0.0
27 C77766 0.157868781993358 0.443693632183107 0.389277434025921 C 0.0 **** 0.0
28 C77767 0.162886765869647 0.429449457200412 0.398169559711024 C 0.0 **** 0.0
29 C77768 0.159963068107479 0.428754208906372 0.416911878581922 C 0.0 **** 0.0
30 C77774 0.133861870099605 0.438172586913029 0.473843658431153 C 0.0 **** 0.0
31 C77775 0.133901827423645 0.422559759992778 0.462696529137476 C 0.0 **** 0.0
32 C77776 0.148893152281688 0.427164170217909 0.451205744097812 C 0.0 **** 0.0
33 C77781 0.135782001460985 0.405633550086354 0.472504088667915 C 0.0 **** 0.0
34 C77782 0.144806453048367 0.406255831156015 0.487211235721117 C 0.0 **** 0.0
35 C77783 0.151203791790843 0.42253055612106 0.495030104427063 C 0.0 **** 0.0
36 C77784 0.142102205882801 0.438128740358109 0.488683876163423 C 0.0 **** 0.0
37 C77790 0.149196234401805 0.391197666513656 0.49789570729082 C 0.0 **** 0.0
38 C77791 0.139827975387576 0.374942331276111 0.492876229802931 C 0.0 **** 0.0
39 C77792 0.129880069622934 0.376364718181824 0.476787127312912 C 0.0 **** 0.0
40 C77793 0.128298394528896 0.390840374237388 0.467421614447422 C 0.0 **** 0.0
41 C77799 0.116937908878639 0.389514738976832 0.451610396191336 C 0.0 **** 0.0
42 C77800 0.102323136920179 0.377200858522343 0.454557707120103 C 0.0 **** 0.0
43 C77801 0.11036708861337 0.35976130269003 0.457320219079765 C 0.0 **** 0.0
44 C77802 0.120650807742335 0.359922278008137 0.473604798393609 C 0.0 **** 0.0
45 C77808 0.164586773201513 0.415325542717747 0.426591456240818 C 0.0 **** 0.0
46 C77809 0.159293099414505 0.413457694894753 0.442864986515039 C 0.0 **** 0.0
47 C77813 0.168381395111444 0.415014135746325 0.389111076938073 C 0.0 **** 0.0
48 C77814 0.172785997180399 0.399833526878356 0.397322687002456 C 0.0 **** 0.0
49 S77815 0.178398614194384 0.400391232575693 0.418351476195235 S 0.0 **** 0.0
50 C77820 0.172677858409177 0.384565632648028 0.389182975264362 C 0.0 **** 0.0
51 C77821 0.169913640300864 0.384237203629084 0.371536622984032 C 0.0 **** 0.0
52 C77822 0.16856295908282 0.399678019700119 0.362534672918014 C 0.0 **** 0.0
53 C77823 0.167518712116384 0.414903420050345 0.371356169803178 C 0.0 **** 0.0
54 C77829 0.169414100657358 0.399499905003728 0.344893534103121 C 0.0 **** 0.0
55 C77830 0.17102222801427 0.384095246050588 0.336255884514211 C 0.0 **** 0.0
56 C77831 0.16927414807524 0.36852095907244 0.344843100517569 C 0.0 **** 0.0
57 C77832 0.169712387394619 0.368947320590946 0.362611271847075 C 0.0 **** 0.0
58 C77838 0.168371457546918 0.353341857285234 0.335660279226349 C 0.0 **** 0.0
59 C77839 0.173414589631545 0.3534471816776 0.31882769613548 C 0.0 **** 0.0
60 C77840 0.180016962891002 0.368377235504801 0.311511644657814 C 0.0 **** 0.0
61 C77841 0.176719417609682 0.383823601824519 0.319583151193299 C 0.0 **** 0.0
62 C77847 0.165083228057114 0.430017622514075 0.362435283806616 C 0.0 **** 0.0
63 C77848 0.159225364185876 0.443956823037225 0.371898555366307 C 0.0 **** 0.0
64 C77852 0.171069702749154 0.414785237737984 0.336252787564613 C 0.0 **** 0.0
65 C77853 0.168994209947921 0.430275426369414 0.344820026456019 C 0.0 **** 0.0
66 C77857 0.180897174960954 0.399049516083367 0.311781076016628 C 0.0 **** 0.0
67 C77858 0.177132434561079 0.414399880801333 0.319774510149563 C 0.0 **** 0.0
68 C77862 0.191220671472551 0.368274189552559 0.297270091954786 C 0.0 **** 0.0
69 C77863 0.196343354365426 0.383767912445069 0.290193346058626 C 0.0 **** 0.0
70 C77864 0.190625504111876 0.398848138881373 0.297023415986265 C 0.0 **** 0.0
71 O77869 0.173436317920808 0.3383032172558 0.309738249885094 O 0.0 **** 0.0
72 C77870 0.160110338117547 0.326269590967376 0.312573747793857 C 0.0 **** 0.0
73 C77871 0.15150163500274 0.328318660533978 0.330085232965813 C 0.0 **** 0.0
74 C77872 0.163876168610211 0.336011642281301 0.342856287197808 C 0.0 **** 0.0
75 C77878 0.143562493590052 0.311666594981051 0.336645365422315 C 0.0 **** 0.0
76 C77879 0.137307329047127 0.300775495459053 0.322036923540591 C 0.0 **** 0.0
77 C77880 0.152646149103193 0.294218512206476 0.312154211048304 C 0.0 **** 0.0
78 C77881 0.166842892458188 0.307941501573025 0.310422294445991 C 0.0 **** 0.0
79 C77887 0.177552979653945 0.305098931284077 0.294367742269404 C 0.0 **** 0.0
80 C77888 0.179133389534603 0.286079917168787 0.291060931324368 C 0.0 **** 0.0
81 C77889 0.161717510445772 0.277643089148017 0.288110221951719 C 0.0 **** 0.0
82 N77890 0.147635561672093 0.286612130177104 0.296229640327653 N 0.0 **** 0.0
83 C77896 0.173080095143966 0.445693069065369 0.336590640030281 C 0.0 **** 0.0
84 C77897 0.180014112982686 0.445309053259627 0.320538232913593 C 0.0 **** 0.0
85 C77898 0.181919098726798 0.429695822290651 0.312150288115064 C 0.0 **** 0.0
86 O77903 0.185550342947076 0.459723858083416 0.312171524616382 O 0.0 **** 0.0
87 C77904 0.188118893237037 0.473699164411913 0.323267521810506 C 0.0 **** 0.0
88 C77905 0.172946468279255 0.47561165796606 0.334372606286367 C 0.0 **** 0.0
89 O77906 0.171046462176472 0.461032437668725 0.344887615491506 O 0.0 **** 0.0
90 C77912 0.156724100511005 0.479274535631941 0.323924068109176 C 0.0 **** 0.0
91 C77913 0.160238496399956 0.486890330066062 0.306282049869677 C 0.0 **** 0.0
92 C77914 0.175345937902312 0.498963070084128 0.307110786176901 C 0.0 **** 0.0
93 C77915 0.191622625003825 0.48961971431214 0.312664738269961 C 0.0 **** 0.0
94 C77921 0.196427046155716 0.414245149094621 0.289976138109578 C 0.0 **** 0.0
95 C77922 0.190845876896229 0.429562021054144 0.296876195594807 C 0.0 **** 0.0
96 C77926 0.208283585846022 0.383890272873843 0.277020337470245 C 0.0 **** 0.0
97 C77927 0.214406691806133 0.399302540487773 0.270349146311441 C 0.0 **** 0.0
98 C77928 0.20869435423787 0.41419187533065 0.277028593655625 C 0.0 **** 0.0
99 C77933 0.21495303349523 0.368773440396681 0.270479167879231 C 0.0 **** 0.0
100 C77934 0.210119993680196 0.353474353398526 0.277302689552279 C 0.0 **** 0.0
101 C77935 0.198864527840439 0.353602346563347 0.290610242940525 C 0.0 **** 0.0
102 O77940 0.226099716985317 0.400087787967445 0.25747687713463 O 0.0 **** 0.0
103 C77941 0.231595530348614 0.385374721106241 0.250001862893063 C 0.0 **** 0.0
104 C77942 0.22709762865757 0.369814433658564 0.255994238998 C 0.0 **** 0.0
105 C77947 0.216643793872666 0.336584609624226 0.270886562610538 C 0.0 **** 0.0
106 C77948 0.230559191265532 0.337914172194645 0.256284750621852 C 0.0 **** 0.0
107 C77949 0.233506403272101 0.35546508090554 0.24877168547767 C 0.0 **** 0.0
108 C77954 0.22730989846142 0.324839481976529 0.242052649234611 C 0.0 **** 0.0
109 C77955 0.223386891593175 0.307266903948511 0.249443703304054 C 0.0 **** 0.0
110 C77956 0.20734788810734 0.307819881592728 0.260690762597305 C 0.0 **** 0.0
111 C77957 0.201752961418451 0.326006233099947 0.264590763145337 C 0.0 **** 0.0
112 C77963 0.243199696054426 0.356758848750168 0.234499140250596 C 0.0 **** 0.0
113 C77964 0.247730005368668 0.372413185749007 0.228517868867811 C 0.0 **** 0.0
114 C77965 0.2421082091335 0.386664305957797 0.236388381691553 C 0.0 **** 0.0
115 C77970 0.241976364217606 0.325198968421006 0.22947752349198 C 0.0 **** 0.0
116 C77972 0.248983014916516 0.340828276148045 0.225639028067961 C 0.0 **** 0.0
117 C77975 0.0885204248850517 0.377707630395067 0.440719324044537 C 0.0 **** 0.0
118 C77977 0.0945173879624803 0.371874355355384 0.423265716124709 C 0.0 **** 0.0
119 C77979 0.0728304708647267 0.36757638795734 0.445953113538205 C 0.0 **** 0.0
120 O77981 0.156240920028036 0.336604482379989 0.359097938961015 O 0.0 **** 0.0
121 C77983 0.246922932875362 0.402244386266601 0.230618921792718 C 0.0 **** 0.0
122 C77984 0.257227443492378 0.403672568749992 0.216927465023503 C 0.0 **** 0.0
123 C77985 0.262668519406825 0.389522232822565 0.208726848082287 C 0.0 **** 0.0
124 C77986 0.25800004374765 0.373948386703601 0.214694954521725 C 0.0 **** 0.0
125 C77992 0.264284883627732 0.358597628753963 0.206004203895949 C 0.0 **** 0.0
126 C77993 0.27360974371879 0.360520781520283 0.191600698436385 C 0.0 **** 0.0
127 C77994 0.277901315267568 0.377685990954784 0.185562383870115 C 0.0 **** 0.0
128 C77995 0.272575742245858 0.391490775173861 0.194535005408919 C 0.0 **** 0.0
129 C78001 0.287182672376509 0.379498526592919 0.171084309940689 C 0.0 **** 0.0
130 C78002 0.292553589527649 0.365716191536128 0.162034276983779 C 0.0 **** 0.0
131 C78003 0.288894470996041 0.349570027625264 0.167115624146126 C 0.0 **** 0.0
132 C78004 0.279025090608052 0.346686656195386 0.182759114819959 C 0.0 **** 0.0
133 C78010 0.275168841226724 0.330240960824386 0.18821575579537 C 0.0 **** 0.0
134 C78011 0.26569580170176 0.328233555726188 0.203007103309204 C 0.0 **** 0.0
135 C78012 0.260137971752953 0.342460031437776 0.211994913584035 C 0.0 **** 0.0
136 C78017 0.280207472289519 0.316093562994636 0.178824277358736 C 0.0 **** 0.0
137 C78018 0.290564818893068 0.320046271718938 0.163050848718641 C 0.0 **** 0.0
138 C78019 0.294344955745493 0.336087235007537 0.157902396117495 C 0.0 **** 0.0
139 C78024 0.247697886248985 0.311220207779418 0.220719356331488 C 0.0 **** 0.0
140 C78025 0.260202905857508 0.312090504986204 0.207810980551625 C 0.0 **** 0.0
141 C78030 0.275851177496493 0.299899029805006 0.184368620968477 C 0.0 **** 0.0
142 C78031 0.266096011128805 0.297766359861164 0.198925711365574 C 0.0 **** 0.0
143 C78035 0.260783232663786 0.280154421314824 0.20482320503276 C 0.0 **** 0.0
144 C78036 0.274928210103986 0.267337742591788 0.201839570451975 C 0.0 **** 0.0
145 C78037 0.279546985986184 0.267470672948545 0.183341240900643 C 0.0 **** 0.0
146 C78038 0.281395935683793 0.284391334495402 0.174868995203885 C 0.0 **** 0.0
147 O78044 0.286824061743262 0.284294496834954 0.160518113158309 O 0.0 **** 0.0
148 H78046 0.0429448197121198 0.469634113420241 0.457328713101064 H 0.0 **** 0.0
149 H78048 0.0647439905849666 0.471505296408589 0.452954670420488 H 0.0 **** 0.0
150 H78050 0.0478717309366249 0.46065820235307 0.485519408228048 H 0.0 **** 0.0
151 H78052 0.0682655880077292 0.456104722135776 0.478119865113209 H 0.0 **** 0.0
152 H78054 0.0554814164563777 0.487517885602656 0.496429936421824 H 0.0 **** 0.0
153 H78056 0.0824361458349428 0.501805863385775 0.491370550977533 H 0.0 **** 0.0
154 H78058 0.0763310960306719 0.501180510354552 0.456090327414001 H 0.0 **** 0.0
155 H78060 0.0650292112715057 0.513491732458549 0.47084765786729 H 0.0 **** 0.0
156 H78062 0.0911774331378539 0.476352155153935 0.464022437062927 H 0.0 **** 0.0
157 H78064 0.0973338689139182 0.456509194741639 0.48463884172343 H 0.0 **** 0.0
158 H78066 0.0992074236634598 0.484795613144555 0.510541124041357 H 0.0 **** 0.0
159 H78068 0.10003091962187 0.46304600151507 0.515267961165742 H 0.0 **** 0.0
160 H78070 0.0711330888783857 0.479212978522794 0.519169596247761 H 0.0 **** 0.0
161 H78072 0.0703713819973465 0.45918698504201 0.50969534388952 H 0.0 **** 0.0
162 H78074 0.141556777457891 0.471561988313885 0.478596396427265 H 0.0 **** 0.0
163 H78076 0.134735163523924 0.495469762316301 0.466062126049164 H 0.0 **** 0.0
164 H78078 0.103883399644509 0.506233991781652 0.464768296222398 H 0.0 **** 0.0
165 H78080 0.112540223176352 0.500883214402824 0.484412978037993 H 0.0 **** 0.0
166 H78082 0.113227770849715 0.451085973832953 0.462518550976169 H 0.0 **** 0.0
167 H78084 0.143581117825791 0.495939832322014 0.412734262438682 H 0.0 **** 0.0
168 H78086 0.133918765949966 0.483342281482288 0.397058633641085 H 0.0 **** 0.0
169 H78088 0.10616198016965 0.484846312429062 0.411336758637458 H 0.0 **** 0.0
170 H78090 0.114191185682957 0.505651772740693 0.409477228508048 H 0.0 **** 0.0
171 H78092 0.108343857973765 0.506530265079344 0.439074483172297 H 0.0 **** 0.0
172 H78094 0.122167933046766 0.422588265640024 0.455250153122393 H 0.0 **** 0.0
173 H78095 0.164904334974336 0.423703916010162 0.492757854853281 H 0.0 **** 0.0
174 H78097 0.149391047753089 0.42182104196724 0.508882533021563 H 0.0 **** 0.0
175 H78099 0.143321993627186 0.449616097006107 0.496198111757418 H 0.0 **** 0.0
176 H78101 0.162973028280825 0.389152639184132 0.497119578530503 H 0.0 **** 0.0
177 H78103 0.146384827458275 0.394018844813325 0.511278977036801 H 0.0 **** 0.0
178 H78105 0.131076226942252 0.371368372218433 0.503144067099441 H 0.0 **** 0.0
179 H78107 0.148901059344648 0.36444209774758 0.491819618873145 H 0.0 **** 0.0
180 H78109 0.111780023696767 0.401833947244688 0.44786847598585 H 0.0 **** 0.0
181 H78111 0.12467656867746 0.385115498364762 0.440901328210097 H 0.0 **** 0.0
182 H78113 0.0958909274340134 0.380894352243528 0.466422786480103 H 0.0 **** 0.0
183 H78115 0.118461518631097 0.356918970521281 0.446413391331858 H 0.0 **** 0.0
184 H78117 0.100941286801623 0.349588220646968 0.457936814528155 H 0.0 **** 0.0
185 H78119 0.129630817312127 0.349288508566689 0.474072298490696 H 0.0 **** 0.0
186 H78121 0.111878794429242 0.357986573840693 0.484316882755223 H 0.0 **** 0.0
187 H78123 0.162978774238562 0.402694191772192 0.450558641854699 H 0.0 **** 0.0
188 H78125 0.175049897703792 0.372724839964345 0.395988573672619 H 0.0 **** 0.0
189 H78127 0.170595203420376 0.357363087579516 0.370130446582333 H 0.0 **** 0.0
190 H78129 0.155281435779875 0.455768065689921 0.365850686521324 H 0.0 **** 0.0
191 H78131 0.150609047408322 0.328499360390169 0.302642344385647 H 0.0 **** 0.0
192 H78133 0.14093548718548 0.337393727096934 0.328780098445426 H 0.0 **** 0.0
193 H78135 0.175510979850495 0.328262843331868 0.343599420134681 H 0.0 **** 0.0
194 H78137 0.152995715520378 0.304346590889531 0.343844978149534 H 0.0 **** 0.0
195 H78139 0.133207049509894 0.31452044968012 0.345474568811486 H 0.0 **** 0.0
196 H78141 0.129054893501916 0.308400639922354 0.313805267437308 H 0.0 **** 0.0
197 H78143 0.129580504958882 0.290055151604316 0.326470008644582 H 0.0 **** 0.0
198 H78145 0.158056804249793 0.283881623489769 0.319824398136109 H 0.0 **** 0.0
199 H78147 0.17529441248367 0.306101273806775 0.321357961778186 H 0.0 **** 0.0
200 H78149 0.171293390979845 0.311083676612925 0.283449008760054 H 0.0 **** 0.0
201 H78151 0.190067816100698 0.310974299885503 0.295744353982237 H 0.0 **** 0.0
202 H78153 0.185152640456394 0.280321494957726 0.302253027385826 H 0.0 **** 0.0
203 H78155 0.187569752853977 0.28321509573067 0.28037896835345 H 0.0 **** 0.0
204 H78157 0.16206054221061 0.26472373490611 0.293171454729101 H 0.0 **** 0.0
205 H78159 0.159100525725164 0.276296665155835 0.274508360029164 H 0.0 **** 0.0
206 H78161 0.143462956629584 0.295845384560066 0.288575199468867 H 0.0 **** 0.0
207 H78163 0.199153891993908 0.470712015548643 0.331237512108771 H 0.0 **** 0.0
208 H78165 0.175268293972565 0.486421566831908 0.342861795959213 H 0.0 **** 0.0
209 H78167 0.149552120532383 0.467436302801057 0.3226151369837 H 0.0 **** 0.0
210 H78169 0.14848701562619 0.488086936726105 0.330873942532132 H 0.0 **** 0.0
211 H78171 0.148866314411976 0.49340726185118 0.301537370988353 H 0.0 **** 0.0
212 H78173 0.162981925832864 0.476729015341931 0.297138727085331 H 0.0 **** 0.0
213 H78175 0.172387292133782 0.508951905861102 0.316391899113402 H 0.0 **** 0.0
214 H78177 0.177387364524168 0.505499947529082 0.294983086144479 H 0.0 **** 0.0
215 H78179 0.199752205625168 0.498574415163039 0.319447897506771 H 0.0 **** 0.0
216 H78181 0.198861122798229 0.485508806902824 0.301534147348197 H 0.0 **** 0.0
217 H78183 0.195485185586924 0.44144133460675 0.291371237292594 H 0.0 **** 0.0
218 H78185 0.213533296090646 0.426264934367287 0.272123313133446 H 0.0 **** 0.0
219 H78187 0.196281833046486 0.34122484775186 0.296157707196381 H 0.0 **** 0.0
220 H78189 0.222572928208763 0.329809920759624 0.281564879437069 H 0.0 **** 0.0
221 H78191 0.242636094362586 0.334320688786926 0.262323806194695 H 0.0 **** 0.0
222 H78193 0.216012832387572 0.328875275361421 0.234906429436599 H 0.0 **** 0.0
223 H78195 0.234329209842574 0.30298134563151 0.256923467055327 H 0.0 **** 0.0
224 H78197 0.221429406912904 0.297841946546397 0.23940254178417 H 0.0 **** 0.0
225 H78199 0.209775042691431 0.301193187873898 0.272691181286211 H 0.0 **** 0.0
226 H78201 0.196923866629189 0.300968427680615 0.254502360628964 H 0.0 **** 0.0
227 H78203 0.191156397803158 0.325994484415108 0.273535553116169 H 0.0 **** 0.0
228 H78205 0.196775824195473 0.332023313200171 0.253115195698796 H 0.0 **** 0.0
229 H78207 0.0845098841625565 0.391053714923222 0.439481435381464 H 0.0 **** 0.0
230 H78209 0.0842985198475222 0.373110555117677 0.413890796392075 H 0.0 **** 0.0
231 H78211 0.0985140950469311 0.358555381070782 0.423465778264418 H 0.0 **** 0.0
232 H78213 0.105207661357856 0.379497353249408 0.418751226253417 H 0.0 **** 0.0
233 H78215 0.0681480144286793 0.371503934077539 0.458460119311026 H 0.0 **** 0.0
234 H78217 0.0756024572770841 0.353959320458454 0.44651046814895 H 0.0 **** 0.0
235 H78219 0.0624756808834606 0.369385845190682 0.436824796143017 H 0.0 **** 0.0
236 H78221 0.156006808689728 0.325201438584035 0.362958506712517 H 0.0 **** 0.0
237 H78223 0.242588907740858 0.413814686743776 0.236744306188206 H 0.0 **** 0.0
238 H78225 0.26080782658002 0.416276984197905 0.212635761848651 H 0.0 **** 0.0
239 H78227 0.275891704660895 0.404169903080473 0.190195547007795 H 0.0 **** 0.0
240 H78229 0.29047552143376 0.392048649069377 0.166427422292916 H 0.0 **** 0.0
241 H78231 0.299926601785828 0.367954609926914 0.150595413855799 H 0.0 **** 0.0
242 H78233 0.295368992840253 0.309831893188025 0.155270607470913 H 0.0 **** 0.0
243 H78235 0.301770501941033 0.337794444808092 0.146402369647468 H 0.0 **** 0.0
244 H78237 0.242096604991315 0.298972696755032 0.223920751742903 H 0.0 **** 0.0
245 H78239 0.257784795866022 0.280008492471933 0.218396242907458 H 0.0 **** 0.0
246 H78241 0.249209634487829 0.276143294216182 0.19811040759313 H 0.0 **** 0.0
247 H78243 0.271089334892915 0.254532295955297 0.205677377509992 H 0.0 **** 0.0
248 H78245 0.285868853297994 0.270754963315789 0.209722934385635 H 0.0 **** 0.0
249 H78247 0.269782482464278 0.261303991064296 0.17557934615812 H 0.0 **** 0.0
250 H78249 0.291562364522534 0.261255095554064 0.180144970168624 H 0.0 **** 0.0
@<TRIPOS>BOND
1 3 2 1
2 4 3 1
3 5 4 1
4 6 5 1
5 1 2 1
6 1 6 1
7 8 7 1
8 9 8 1
9 10 9 1
10 4 7 1
11 3 10 1
12 12 11 1
13 13 12 1
14 14 13 1
15 8 11 1
16 7 14 1
17 16 15 1
18 17 16 Partial double
19 18 17 1
20 13 15 1
21 12 18 1
22 20 19 Partial double
23 21 20 Partial double
24 22 21 Partial double
25 17 19 Partial double
26 16 22 Partial double
27 24 23 1
28 25 24 1
29 15 25 Double
30 22 23 1
31 27 26 1
32 28 27 Partial double
33 29 28 Partial double
34 21 26 1
35 20 29 Partial double
36 31 30 1
37 32 31 1
38 18 30 1
39 19 32 1
40 34 33 Double
41 35 34 1
42 36 35 1
43 31 33 1
44 30 36 Double
45 38 37 1
46 39 38 1
47 40 39 Double
48 34 37 1
49 33 40 1
50 42 41 1
51 43 42 1
52 44 43 1
53 40 41 1
54 39 44 1
55 46 45 Partial double
56 32 46 1
57 29 45 Partial double
58 48 47 Partial double
59 49 48 1
60 45 49 Partial double
61 28 47 Partial double
62 51 50 Partial double
63 52 51 Partial double
64 53 52 Partial double
65 48 50 Partial double
66 47 53 Partial double
67 55 54 Partial double
68 56 55 Partial double
69 57 56 Partial double
70 52 54 Partial double
71 51 57 Partial double
72 59 58 Partial double
73 60 59 Partial double
74 61 60 Partial double
75 56 58 Partial double
76 55 61 Partial double
77 63 62 Partial double
78 27 63 Partial double
79 53 62 Partial double
80 65 64 Partial double
81 62 65 Partial double
82 54 64 Partial double
83 67 66 Partial double
84 64 67 Partial double
85 61 66 Partial double
86 69 68 Partial double
87 70 69 Partial double
88 66 70 Partial double
89 60 68 Partial double
90 72 71 1
91 73 72 1
92 74 73 1
93 59 71 1
94 58 74 1
95 76 75 1
96 77 76 1
97 78 77 1
98 73 75 1
99 72 78 1
100 80 79 1
101 81 80 1
102 82 81 1
103 78 79 1
104 77 82 1
105 84 83 Partial double
106 85 84 Partial double
107 67 85 Partial double
108 65 83 Partial double
109 87 86 1
110 88 87 1
111 89 88 1
112 84 86 1
113 83 89 1
114 91 90 1
115 92 91 1
116 93 92 1
117 88 90 1
118 87 93 1
119 95 94 Partial double
120 85 95 Partial double
121 70 94 Partial double
122 97 96 Partial double
123 98 97 Partial double
124 94 98 Partial double
125 69 96 Partial double
126 100 99 Partial double
127 101 100 Partial double
128 68 101 Partial double
129 96 99 Partial double
130 103 102 1
131 104 103 Partial double
132 97 102 1
133 99 104 1
134 106 105 1
135 107 106 1
136 100 105 1
137 104 107 Partial double
138 109 108 1
139 110 109 1
140 111 110 1
141 106 108 1
142 105 111 1
143 113 112 1
144 114 113 1
145 103 114 Partial double
146 107 112 Partial double
147 108 115 1
148 112 116 Partial double
149 115 116 Partial double
150 42 117 1
151 117 118 1
152 117 119 1
153 74 120 1
154 122 121 1
155 123 122 Partial double
156 124 123 1
157 114 121 Partial double
158 113 124 Partial double
159 126 125 Partial double
160 127 126 1
161 128 127 Partial double
162 124 125 Partial double
163 123 128 Partial double
164 130 129 Partial double
165 131 130 1
166 132 131 1
167 127 129 Partial double
168 126 132 Partial double
169 134 133 Partial double
170 135 134 Partial double
171 125 135 Partial double
172 132 133 Partial double
173 137 136 Partial double
174 138 137 Partial double
175 131 138 Partial double
176 133 136 Partial double
177 140 139 Partial double
178 134 140 Partial double
179 116 135 Partial double
180 115 139 Partial double
181 142 141 Partial double
182 140 142 Partial double
183 136 141 Partial double
184 144 143 1
185 145 144 1
186 146 145 1
187 142 143 1
188 141 146 1
189 146 147 Double
190 1 148 1
191 1 149 1
192 2 150 1
193 2 151 1
194 3 152 1
195 4 153 1
196 5 154 1
197 5 155 1
198 7 156 1
199 8 157 1
200 9 158 1
201 9 159 1
202 10 160 1
203 10 161 1
204 12 162 1
205 13 163 1
206 14 164 1
207 14 165 1
208 18 166 1
209 23 167 1
210 23 168 1
211 24 169 1
212 24 170 1
213 25 171 1
214 35 173 1
215 35 174 1
216 36 175 1
217 37 176 1
218 37 177 1
219 38 178 1
220 38 179 1
221 41 180 1
222 41 181 1
223 42 182 1
224 43 183 1
225 43 184 1
226 44 185 1
227 44 186 1
228 46 187 1
229 50 188 1
230 57 189 1
231 63 190 1
232 72 191 1
233 73 192 1
234 74 193 1
235 75 194 1
236 75 195 1
237 76 196 1
238 76 197 1
239 77 198 1
240 78 199 1
241 79 200 1
242 79 201 1
243 80 202 1
244 80 203 1
245 81 204 1
246 81 205 1
247 82 206 1
248 87 207 1
249 88 208 1
250 90 209 1
251 90 210 1
252 91 211 1
253 91 212 1
254 92 213 1
255 92 214 1
256 93 215 1
257 93 216 1
258 95 217 1
259 98 218 1
260 101 219 1
261 105 220 1
262 106 221 1
263 108 222 1
264 109 223 1
265 109 224 1
266 110 225 1
267 110 226 1
268 111 227 1
269 111 228 1
270 117 229 1
271 118 230 1
272 118 231 1
273 118 232 1
274 119 233 1
275 119 234 1
276 119 235 1
277 120 236 1
278 121 237 1
279 122 238 1
280 128 239 1
281 129 240 1
282 130 241 1
283 137 242 1
284 138 243 1
285 139 244 1
286 143 245 1
287 143 246 1
288 144 247 1
289 144 248 1
290 145 249 1
291 145 250 1
292 31 172 1
@<TRIPOS>MOLECULE
Sketch 4
250 292
SMALL
USER_CHARGES


@<TRIPOS>ATOM
1 C78252 0.178496078847246 0.916604396107764 0.431903602859964 C 0.0 **** 0.0
2 C78253 0.183243095857136 0.89812357523301 0.428605949964229 C 0.0 **** 0.0
3 C78254 0.201457046598147 0.896799474056821 0.42181945714303 C 0.0 **** 0.0
4 C78255 0.203811928045874 0.909129597069494 0.406756701036777 C 0.0 **** 0.0
5 C78256 0.197969963602323 0.926820883869951 0.412352866704271 C 0.0 **** 0.0
6 O78257 0.180638050028429 0.926585934783017 0.417095153999854 O 0.0 **** 0.0
7 C78264 0.194656876638609 0.903038782702246 0.390426258824346 C 0.0 **** 0.0
8 C78265 0.197224104920312 0.883607481347989 0.387108100703425 C 0.0 **** 0.0
9 C78266 0.210671545824465 0.876075216706572 0.398721970420722 C 0.0 **** 0.0
10 C78267 0.206493115186917 0.878388063514992 0.417479033368824 C 0.0 **** 0.0
11 O78273 0.201890777330246 0.87905485255685 0.370276502795331 O 0.0 **** 0.0
12 C78274 0.192249430588888 0.887705414983364 0.357652708188436 C 0.0 **** 0.0
13 C78275 0.198290309209605 0.906195455310625 0.357248456847089 C 0.0 **** 0.0
14 C78276 0.199238904238239 0.914555931063067 0.375189144351408 C 0.0 **** 0.0
15 C78282 0.188567836488464 0.91667611601329 0.344473796851518 C 0.0 **** 0.0
16 C78283 0.170267283969488 0.912387741644953 0.341257313915427 C 0.0 **** 0.0
17 C78284 0.163399381055926 0.897444274191722 0.347408244946999 C 0.0 **** 0.0
18 C78285 0.173068819172906 0.886226012990445 0.359900597501083 C 0.0 **** 0.0
19 C78291 0.146856133796962 0.893340759377311 0.343140204970945 C 0.0 **** 0.0
20 C78292 0.136855722793108 0.905058125827697 0.334755092167487 C 0.0 **** 0.0
21 C78293 0.143565034573729 0.920287860124614 0.32923092979627 C 0.0 **** 0.0
22 C78294 0.160587387758775 0.923691319586455 0.331914401200645 C 0.0 **** 0.0
23 C78300 0.167994811681696 0.940326907191071 0.325843032096219 C 0.0 **** 0.0
24 C78301 0.187015521611878 0.938483788608706 0.32164943571559 C 0.0 **** 0.0
25 C78302 0.196295516921743 0.928721858985389 0.335193613332422 C 0.0 **** 0.0
26 O78307 0.133689229689628 0.932328737534925 0.321118895879366 O 0.0 **** 0.0
27 C78308 0.116905553061041 0.928926817892325 0.317623668687784 C 0.0 **** 0.0
28 C78309 0.108570080020132 0.914502242304744 0.323097237160061 C 0.0 **** 0.0
29 C78310 0.118412445485622 0.901477919251117 0.332660906447973 C 0.0 **** 0.0
30 C78316 0.165990126404736 0.868503068040594 0.359929420641556 C 0.0 **** 0.0
31 C78317 0.147289305693562 0.868978904927994 0.363946365483375 C 0.0 **** 0.0
32 C78318 0.139659674141521 0.876177670603967 0.347515575624209 C 0.0 **** 0.0
33 C78323 0.139217575476773 0.851751190374328 0.368153437460835 C 0.0 **** 0.0
34 C78324 0.147197787944188 0.837550327964338 0.362503533433535 C 0.0 **** 0.0
35 C78325 0.164789306031984 0.837360517859958 0.354803806527477 C 0.0 **** 0.0
36 C78326 0.173953977220469 0.854144368767818 0.355648824980669 C 0.0 **** 0.0
37 C78332 0.14018733147788 0.820179591083299 0.365482452796429 C 0.0 **** 0.0
38 C78333 0.120942118046476 0.820356024435003 0.368134170388013 C 0.0 **** 0.0
39 C78334 0.115160510092494 0.836106304134166 0.377074025307288 C 0.0 **** 0.0
40 C78335 0.124406434778576 0.850689844596734 0.377053209923675 C 0.0 **** 0.0
41 C78341 0.117130822895752 0.865984407690576 0.386619022639632 C 0.0 **** 0.0
42 C78342 0.104132414876813 0.860883016951655 0.399863213013743 C 0.0 **** 0.0
43 C78343 0.0901663531495631 0.850972062548086 0.390709363563071 C 0.0 **** 0.0
44 C78344 0.0972962255988317 0.834458569222636 0.383671196119774 C 0.0 **** 0.0
45 C78350 0.11123409264089 0.887223197501675 0.338921191009772 C 0.0 **** 0.0
46 C78351 0.120614748722384 0.874691036184027 0.345846869192946 C 0.0 **** 0.0
47 C78355 0.0915450313776215 0.91164892226215 0.318231424770889 C 0.0 **** 0.0
48 C78356 0.0823694186105394 0.8970521827604 0.322974336252701 C 0.0 **** 0.0
49 S78357 0.0894878657480277 0.884340395543494 0.339120405547351 S 0.0 **** 0.0
50 C78362 0.0673693791316723 0.892676025945401 0.315584382409165 C 0.0 **** 0.0
51 C78363 0.0602523158799759 0.903361734351971 0.303234728532904 C 0.0 **** 0.0
52 C78364 0.0686117210719812 0.918542637279839 0.298822280213059 C 0.0 **** 0.0
53 C78365 0.083632053200023 0.922944855381516 0.307004833884658 C 0.0 **** 0.0
54 C78371 0.0616691662885016 0.928767712215753 0.286215136307594 C 0.0 **** 0.0
55 C78372 0.0462747616935167 0.924611933866089 0.278431772511894 C 0.0 **** 0.0
56 C78373 0.0367352562087236 0.910810512799954 0.284557236754601 C 0.0 **** 0.0
57 C78374 0.0445916024803153 0.899624444647711 0.295873136463919 C 0.0 **** 0.0
58 C78380 0.0201670501267003 0.908252468638422 0.278940137615387 C 0.0 **** 0.0
59 C78381 0.0148913060287313 0.916689236051802 0.26450913123824 C 0.0 **** 0.0
60 C78382 0.0242565285269899 0.930402535785729 0.257695133589918 C 0.0 **** 0.0
61 C78383 0.0397671608298925 0.934515400271939 0.265405236052643 C 0.0 **** 0.0
62 C78389 0.0914636514273276 0.938335001519136 0.303033023122025 C 0.0 **** 0.0
63 C78390 0.108334007120038 0.940755575699513 0.308220371946483 C 0.0 **** 0.0
64 C78394 0.0694677919258734 0.944115244948927 0.282483000870854 C 0.0 **** 0.0
65 C78395 0.0828228146238732 0.949937992630454 0.292548327854079 C 0.0 **** 0.0
66 C78399 0.0482980650828653 0.949371889902604 0.261057479573976 C 0.0 **** 0.0
67 C78400 0.0624724800525306 0.95451801277428 0.270348484213515 C 0.0 **** 0.0
68 C78404 0.0173049967658515 0.94169026859767 0.245256815697436 C 0.0 **** 0.0
69 C78405 0.026468138207182 0.956317845315326 0.240829981603363 C 0.0 **** 0.0
70 C78406 0.0415873607729467 0.960171118225752 0.248876075787051 C 0.0 **** 0.0
71 O78411 -2.56864755457848e-05 0.911272327713249 0.256949619865409 O 0.0 **** 0.0
72 C78412 -0.0144194676152907 0.909548436212479 0.267750458729173 C 0.0 **** 0.0
73 C78413 -0.00963700197123523 0.9042451387853 0.286005916135752 C 0.0 **** 0.0
74 C78414 0.0076721429492905 0.895595780419108 0.286577057391861 C 0.0 **** 0.0
75 C78420 -0.023923756230088 0.894282383283582 0.294905142203838 C 0.0 **** 0.0
76 C78421 -0.0411342221866373 0.901062795856864 0.289219073621441 C 0.0 **** 0.0
77 C78422 -0.0441248093284741 0.896449476723032 0.270541080104114 C 0.0 **** 0.0
78 C78423 -0.0274525043477553 0.897161520810547 0.259930462481371 C 0.0 **** 0.0
79 C78429 -0.0308622043401848 0.899520757917277 0.240778583405364 C 0.0 **** 0.0
80 C78430 -0.0479536080769751 0.891514121432875 0.236365971699593 C 0.0 **** 0.0
81 C78431 -0.06285081054867 0.899378999884617 0.246457884015496 C 0.0 **** 0.0
82 N78432 -0.0579413564320188 0.905998461330755 0.263149624235134 N 0.0 **** 0.0
83 C78438 0.0865920013272944 0.967444839067509 0.29341284892635 C 0.0 **** 0.0
84 C78439 0.0792960574412486 0.978206106380227 0.281753112259391 C 0.0 **** 0.0
85 C78440 0.0684115951157368 0.971261095417673 0.269356424516275 C 0.0 **** 0.0
86 O78445 0.0820436046380766 0.995535692909645 0.281656398838451 O 0.0 **** 0.0
87 C78446 0.0935540789800293 1.00148997668492 0.294251739373152 C 0.0 **** 0.0
88 C78447 0.0934310559692976 0.990609313425857 0.309830546279853 C 0.0 **** 0.0
89 O78448 0.0973258329643619 0.973461205996363 0.305847140308831 O 0.0 **** 0.0
90 C78454 0.0768267326209569 0.991963595249407 0.320038090741732 C 0.0 **** 0.0
91 C78455 0.0702816637315958 1.01029269123854 0.32174291150729 C 0.0 **** 0.0
92 C78456 0.0836166016243433 1.02337402790694 0.316568857184674 C 0.0 **** 0.0
93 C78457 0.0895613561319188 1.02024473729142 0.298255657107825 C 0.0 **** 0.0
94 C78463 0.0488261544896973 0.97646330816754 0.246453353456026 C 0.0 **** 0.0
95 C78464 0.0620466845633385 0.981925713398937 0.256888367309241 C 0.0 **** 0.0
96 C78468 0.0188905118571167 0.968608570562167 0.230502703607398 C 0.0 **** 0.0
97 C78469 0.0274952755372778 0.983655792596985 0.226195131026951 C 0.0 **** 0.0
98 C78470 0.0420588373012926 0.987740050852629 0.234473841345483 C 0.0 **** 0.0
99 C78475 0.00154524700619149 0.967881482280709 0.226458748802781 C 0.0 **** 0.0
100 C78476 -0.00795123015281529 0.954169861844897 0.231448923283392 C 0.0 **** 0.0
101 C78477 0.000493300186188801 0.940996225698331 0.239187440018001 C 0.0 **** 0.0
102 O78482 0.0210301473982357 0.994670751818521 0.214428866977629 O 0.0 **** 0.0
103 C78483 0.00381891464166075 0.996492916208285 0.21445144252151 C 0.0 **** 0.0
104 C78484 -0.00640256597985426 0.983348572648086 0.21897655452228 C 0.0 **** 0.0
105 C78489 -0.0269935308322469 0.952940289559649 0.228417871850213 C 0.0 **** 0.0
106 C78490 -0.0353855895699311 0.969830903299974 0.220871109500315 C 0.0 **** 0.0
107 C78491 -0.0235496285348146 0.984747734524971 0.217751727829933 C 0.0 **** 0.0
108 C78496 -0.0512528572962218 0.975527669454153 0.230840277613966 C 0.0 **** 0.0
109 C78497 -0.0637967417992366 0.960896361960714 0.233589625593758 C 0.0 **** 0.0
110 C78498 -0.0551622115776703 0.945074510471078 0.241081569174921 C 0.0 **** 0.0
111 C78499 -0.0363401344894279 0.947925540092599 0.244681675002563 C 0.0 **** 0.0
112 C78505 -0.0303744269796649 0.999980435856629 0.213267626830727 C 0.0 **** 0.0
113 C78506 -0.0200472229686048 1.01318722133972 0.208779388185835 C 0.0 **** 0.0
114 C78507 -0.00294438933037405 1.01146922199565 0.209333545877074 C 0.0 **** 0.0
115 C78512 -0.0595648981199993 0.990425427748664 0.221777284471815 C 0.0 **** 0.0
116 C78514 -0.0493086959560996 1.00200682694516 0.213530661343793 C 0.0 **** 0.0
117 C78517 0.0980736807701437 0.876122538969188 0.410492046881462 C 0.0 **** 0.0
118 C78519 0.0899258342469199 0.890407993062686 0.400235207951162 C 0.0 **** 0.0
119 C78521 0.0862187176968572 0.870831525054963 0.4248910369917 C 0.0 **** 0.0
120 O78523 0.0112436391219039 0.89092191677392 0.303614279310576 O 0.0 **** 0.0
121 C78525 0.00739363280611936 1.02460410351069 0.204908045638668 C 0.0 **** 0.0
122 C78526 0.000669971430083252 1.03962811451723 0.199962522138128 C 0.0 **** 0.0
123 C78527 -0.0164424198178378 1.04154651849022 0.199330362817218 C 0.0 **** 0.0
124 C78528 -0.0267003931675887 1.02825957767902 0.203590165265441 C 0.0 **** 0.0
125 C78534 -0.0452583665920513 1.03027201662525 0.202589483848114 C 0.0 **** 0.0
126 C78535 -0.0515576411006373 1.04567037699475 0.197968864098088 C 0.0 **** 0.0
127 C78536 -0.0398385159037493 1.05960839510816 0.193718897868348 C 0.0 **** 0.0
128 C78537 -0.0227596368730508 1.05701657259075 0.19444603470308 C 0.0 **** 0.0
129 C78543 -0.0462799869917369 1.07497419474495 0.189161216072099 C 0.0 **** 0.0
130 C78544 -0.0633887998654911 1.07766039340639 0.188575428140045 C 0.0 **** 0.0
131 C78545 -0.0747735042993491 1.06526199491697 0.192685505288847 C 0.0 **** 0.0
132 C78546 -0.0686224859296827 1.04827935426706 0.19749786671019 C 0.0 **** 0.0
133 C78552 -0.0799998247181073 1.03546687778393 0.202129955654278 C 0.0 **** 0.0
134 C78553 -0.0735930219930402 1.01980907943577 0.207178428253368 C 0.0 **** 0.0
135 C78554 -0.0561073260242606 1.01702358673733 0.207123571006134 C 0.0 **** 0.0
136 C78559 -0.0973099448049425 1.0388137008684 0.203406537021702 C 0.0 **** 0.0
137 C78560 -0.102859175722822 1.05602961789578 0.197075706487165 C 0.0 **** 0.0
138 C78561 -0.0917315585685364 1.06829655209092 0.192283878903655 C 0.0 **** 0.0
139 C78566 -0.0767313498187781 0.993537710593183 0.222245180108919 C 0.0 **** 0.0
140 C78567 -0.0843989461948646 1.00785427400569 0.214584861265667 C 0.0 **** 0.0
141 C78572 -0.108060706955518 1.02691080749698 0.210656965217039 C 0.0 **** 0.0
142 C78573 -0.101897692243217 1.01119203246697 0.215672947508069 C 0.0 **** 0.0
143 C78577 -0.113729163849284 0.998059068143464 0.22335238910722 C 0.0 **** 0.0
144 C78578 -0.131008276904643 0.998700567322278 0.214698603985113 C 0.0 **** 0.0
145 C78579 -0.138232082357979 1.0162983294475 0.216337129208515 C 0.0 **** 0.0
146 C78580 -0.126382847628891 1.03086080446723 0.213594039294069 C 0.0 **** 0.0
147 O78586 -0.132266856240164 1.04500285657702 0.214731748210499 O 0.0 **** 0.0
148 H78588 0.186025048628269 0.921722918092285 0.442503733430287 H 0.0 **** 0.0
149 H78590 0.165122301275605 0.917812711537006 0.435520488920821 H 0.0 **** 0.0
150 H78592 0.181707509320124 0.890602649553785 0.440234624317206 H 0.0 **** 0.0
151 H78594 0.174416078107257 0.892829085748175 0.419209924288882 H 0.0 **** 0.0
152 H78596 0.209840075933484 0.901263869472159 0.432070682725834 H 0.0 **** 0.0
153 H78598 0.21746825282837 0.909818502157242 0.403878293009965 H 0.0 **** 0.0
154 H78600 0.199064030866184 0.936134276610023 0.402088085933169 H 0.0 **** 0.0
155 H78602 0.205960401652336 0.931494200640093 0.42282455621083 H 0.0 **** 0.0
156 H78604 0.181028247530984 0.905000144480536 0.392715413793898 H 0.0 **** 0.0
157 H78606 0.185230957227928 0.877170433326098 0.390304452671163 H 0.0 **** 0.0
158 H78608 0.222856374909903 0.882100251581035 0.395684640001481 H 0.0 **** 0.0
159 H78610 0.212006823301374 0.862532785235228 0.395700663269108 H 0.0 **** 0.0
160 H78612 0.217339174542804 0.874383560250452 0.425223776472311 H 0.0 **** 0.0
161 H78614 0.196050108492886 0.869745665477005 0.420730999541004 H 0.0 **** 0.0
162 H78616 0.195943711906973 0.881706968581961 0.34564156036789 H 0.0 **** 0.0
163 H78618 0.211451755792704 0.905585630747553 0.352677000124322 H 0.0 **** 0.0
164 H78620 0.191390753026088 0.926054174060775 0.375868698734795 H 0.0 **** 0.0
165 H78622 0.212364591042884 0.918966471200221 0.376810980388868 H 0.0 **** 0.0
166 H78624 0.169987343219636 0.891355390690945 0.372529744984946 H 0.0 **** 0.0
167 H78626 0.161218447302573 0.944981321207877 0.314614456526571 H 0.0 **** 0.0
168 H78628 0.166354456402779 0.950035847014181 0.335725834897495 H 0.0 **** 0.0
169 H78630 0.1927491486742 0.951110261174252 0.320081876278871 H 0.0 **** 0.0
170 H78632 0.188539399886046 0.931886094216736 0.309467962496088 H 0.0 **** 0.0
171 H78634 0.209731506757772 0.931498637338935 0.336493823363338 H 0.0 **** 0.0
172 H78636 0.145180442480221 0.877935658744113 0.374403106815963 H 0.0 **** 0.0
173 H78637 0.164005941475836 0.833120908090411 0.341524121398635 H 0.0 **** 0.0
174 H78639 0.17244506227004 0.827827446124749 0.361604759350367 H 0.0 **** 0.0
175 H78641 0.187299019772732 0.854160800100467 0.352191601669437 H 0.0 **** 0.0
176 H78643 0.143472463010856 0.811809913711905 0.354840967610168 H 0.0 **** 0.0
177 H78645 0.14643326738088 0.814981228754691 0.376755901444329 H 0.0 **** 0.0
178 H78647 0.117120326506036 0.808977985886021 0.375239356686953 H 0.0 **** 0.0
179 H78649 0.114439870490127 0.819747038302966 0.355825409620163 H 0.0 **** 0.0
180 H78651 0.127449113183918 0.872935102784511 0.392880638578486 H 0.0 **** 0.0
181 H78653 0.111327896746113 0.874780801908757 0.377552465372636 H 0.0 **** 0.0
182 H78655 0.110289678842828 0.852132798269635 0.408889827673785 H 0.0 **** 0.0
183 H78657 0.0852968249208684 0.858787466157396 0.380280230423888 H 0.0 **** 0.0
184 H78659 0.0793515667986632 0.848197946509753 0.399006441290192 H 0.0 **** 0.0
185 H78661 0.0891284672743167 0.829671024516477 0.373412452333905 H 0.0 **** 0.0
186 H78663 0.0970328052746361 0.824774288615184 0.393643184002573 H 0.0 **** 0.0
187 H78665 0.114507784384129 0.863117068970504 0.350068166256612 H 0.0 **** 0.0
188 H78667 0.0605274816666643 0.881209003965419 0.319350365295113 H 0.0 **** 0.0
189 H78669 0.0385981099639608 0.887704187905895 0.299622934159863 H 0.0 **** 0.0
190 H78671 0.115525947983161 0.95190610754988 0.304142539323072 H 0.0 **** 0.0
191 H78673 -0.0203969477351597 0.922073356383722 0.268551864984759 H 0.0 **** 0.0
192 H78675 -0.0081289287877528 0.915915439610743 0.293556972810715 H 0.0 **** 0.0
193 H78677 0.00765620755791515 0.883761333774184 0.279274338557147 H 0.0 **** 0.0
194 H78679 -0.0231395268328712 0.880689033614106 0.2918938843174 H 0.0 **** 0.0
195 H78681 -0.0223958795915309 0.895266645686054 0.30873124802819 H 0.0 **** 0.0
196 H78683 -0.0413424580563621 0.914905093586744 0.290892424695384 H 0.0 **** 0.0
197 H78685 -0.051540422189132 0.896030239337976 0.29701602934248 H 0.0 **** 0.0
198 H78687 -0.0483917731501601 0.883161391469305 0.270608037713313 H 0.0 **** 0.0
199 H78689 -0.0215248634405606 0.884634607833139 0.261209306933213 H 0.0 **** 0.0
200 H78691 -0.0312028672446201 0.912973782273862 0.237306848973865 H 0.0 **** 0.0
201 H78693 -0.0205991290214923 0.893774011669789 0.233338439567141 H 0.0 **** 0.0
202 H78695 -0.0470699665231898 0.87789722332011 0.239310949989997 H 0.0 **** 0.0
203 H78697 -0.050685208404972 0.892260448268254 0.222741955976074 H 0.0 **** 0.0
204 H78699 -0.0727827582395551 0.889781123245487 0.248364436365438 H 0.0 **** 0.0
205 H78701 -0.0688615241713767 0.909569662634055 0.239116875739724 H 0.0 **** 0.0
206 H78703 -0.0546930904249281 0.918206521312741 0.26227391527677 H 0.0 **** 0.0
207 H78705 0.106207562892824 1.0005029895387 0.288624383607188 H 0.0 **** 0.0
208 H78707 0.103772563778147 0.995247706289701 0.317950721419777 H 0.0 **** 0.0
209 H78709 0.0670776967030612 0.984126843044498 0.313958888056553 H 0.0 **** 0.0
210 H78711 0.0787682642719107 0.986168097542402 0.332535467181872 H 0.0 **** 0.0
211 H78713 0.0656334564737443 1.01251449300116 0.334646215511965 H 0.0 **** 0.0
212 H78715 0.0592776732390301 1.01202846861971 0.313404508003355 H 0.0 **** 0.0
213 H78717 0.0945218688210844 1.02274662720368 0.325224475395165 H 0.0 **** 0.0
214 H78719 0.0784611070774345 1.03627592959016 0.317653996634254 H 0.0 **** 0.0
215 H78721 0.100276410971143 1.02868127584105 0.295504978204705 H 0.0 **** 0.0
216 H78723 0.0793516934764475 1.02413786134754 0.289632173213405 H 0.0 **** 0.0
217 H78725 0.0666015545448947 0.994987806151392 0.255881812043582 H 0.0 **** 0.0
218 H78727 0.0480759723505203 1.00008192106199 0.232350283587265 H 0.0 **** 0.0
219 H78729 -0.00765975144833851 0.930168453863955 0.241513105488653 H 0.0 **** 0.0
220 H78731 -0.0291906933767103 0.942854961650704 0.219004678539756 H 0.0 **** 0.0
221 H78733 -0.0401085686617756 0.966168047060468 0.208294705876218 H 0.0 **** 0.0
222 H78735 -0.0471541748054115 0.980019956434933 0.243394548039803 H 0.0 **** 0.0
223 H78737 -0.0698566338352973 0.957625429407475 0.221480986056952 H 0.0 **** 0.0
224 H78739 -0.0739494214669743 0.964902713338686 0.242226331903062 H 0.0 **** 0.0
225 H78741 -0.0563008084165802 0.9344590134076 0.232130977305319 H 0.0 **** 0.0
226 H78743 -0.061771959676288 0.941160811307811 0.252691282764586 H 0.0 **** 0.0
227 H78745 -0.0311829858208911 0.936401505846398 0.250342889303237 H 0.0 **** 0.0
228 H78747 -0.034757772853224 0.957968984148918 0.254157368698504 H 0.0 **** 0.0
229 H78749 0.109533963713988 0.881424270457659 0.416479005817747 H 0.0 **** 0.0
230 H78751 0.0869228906210677 0.901139297686062 0.40856689262075 H 0.0 **** 0.0
231 H78753 0.0780856812134068 0.886207414642719 0.394277059465983 H 0.0 **** 0.0
232 H78755 0.0983022390310896 0.895274127534277 0.39025863842899 H 0.0 **** 0.0
233 H78757 0.0918050869310075 0.860727523220457 0.43266018789022 H 0.0 **** 0.0
234 H78759 0.0740270704827327 0.866275111444547 0.419984178080157 H 0.0 **** 0.0
235 H78761 0.0835916636859076 0.881617254024046 0.433283054315078 H 0.0 **** 0.0
236 H78763 0.0121314153933126 0.901156433723086 0.309939765556053 H 0.0 **** 0.0
237 H78765 0.021118882587295 1.02345044374274 0.205340460040082 H 0.0 **** 0.0
238 H78767 0.0091994307504189 1.04992625039777 0.196555050627676 H 0.0 **** 0.0
239 H78769 -0.0140723700215548 1.06725479357789 0.191242507443745 H 0.0 **** 0.0
240 H78771 -0.0379152756109326 1.08545061229203 0.185937655963029 H 0.0 **** 0.0
241 H78773 -0.0676744786391217 1.09017442152691 0.184833354422014 H 0.0 **** 0.0
242 H78775 -0.116265806086945 1.05889618689951 0.196134579652015 H 0.0 **** 0.0
243 H78777 -0.0968468999419214 1.08037644882495 0.188199489273775 H 0.0 **** 0.0
244 H78779 -0.0846653648620151 0.984616458356382 0.229228829580581 H 0.0 **** 0.0
245 H78781 -0.108737778331804 0.985175563014404 0.221914145279505 H 0.0 **** 0.0
246 H78783 -0.115173277842831 1.00029417302 0.23704908472217 H 0.0 **** 0.0
247 H78785 -0.13972770449428 0.98952728456847 0.220443357223609 H 0.0 **** 0.0
248 H78787 -0.129566321810692 0.995173976127401 0.201283371730548 H 0.0 **** 0.0
249 H78789 -0.143093483955994 1.01886795293736 0.22912271441409 H 0.0 **** 0.0
250 H78791 -0.148580942191501 1.0192988131097 0.20757943733452 H 0.0 **** 0.0
@<TRIPOS>BOND
1 3 2 1
2 4 3 1
3 5 4 1
4 6 5 1
5 1 2 1
6 1 6 1
7 8 7 1
8 9 8 1
9 10 9 1
10 4 7 1
11 3 10 1
12 12 11 1
13 13 12 1
14 14 13 1
15 8 11 1
16 7 14 1
17 16 15 1
18 17 16 Partial double
19 18 17 1
20 13 15 1
21 12 18 1
22 20 19 Partial double
23 21 20 Partial double
24 22 21 Partial double
25 17 19 Partial double
26 16 22 Partial double
27 24 23 1
28 25 24 1
29 15 25 Double
30 22 23 1
31 27 26 1
32 28 27 Partial double
33 29 28 Partial double
34 21 26 1
35 20 29 Partial double
36 31 30 1
37 32 31 1
38 18 30 1
39 19 32 1
40 34 33 Double
41 35 34 1
42 36 35 1
43 31 33 1
44 30 36 Double
45 38 37 1
46 39 38 1
47 40 39 Double
48 34 37 1
49 33 40 1
50 42 41 1
51 43 42 1
52 44 43 1
53 40 41 1
54 39 44 1
55 46 45 Partial double
56 32 46 1
57 29 45 Partial double
58 48 47 Partial double
59 49 48 1
60 45 49 Partial double
61 28 47 Partial double
62 51 50 Partial double
63 52 51 Partial double
64 53 52 Partial double
65 48 50 Partial double
66 47 53 Partial double
67 55 54 Partial double
68 56 55 Partial double
69 57 56 Partial double
70 52 54 Partial double
71 51 57 Partial double
72 59 58 Partial double
73 60 59 Partial double
74 61 60 Partial double
75 56 58 Partial double
76 55 61 Partial double
77 63 62 Partial double
78 27 63 Partial double
79 53 62 Partial double
80 65 64 Partial double
81 62 65 Partial double
82 54 64 Partial double
83 67 66 Partial double
84 64 67 Partial double
85 61 66 Partial double
86 69 68 Partial double
87 70 69 Partial double
88 66 70 Partial double
89 60 68 Partial double
90 72 71 1
91 73 72 1
92 74 73 1
93 59 71 1
94 58 74 1
95 76 75 1
96 77 76 1
97 78 77 1
98 73 75 1
99 72 78 1
100 80 79 1
101 81 80 1
102 82 81 1
103 78 79 1
104 77 82 1
105 84 83 Partial double
106 85 84 Partial double
107 67 85 Partial double
108 65 83 Partial double
109 87 86 1
110 88 87 1
111 89 88 1
112 84 86 1
113 83 89 1
114 91 90 1
115 92 91 1
116 93 92 1
117 88 90 1
118 87 93 1
119 95 94 Partial double
120 85 95 Partial double
121 70 94 Partial double
122 97 96 Partial double
123 98 97 Partial double
124 94 98 Partial double
125 69 96 Partial double
126 100 99 Partial double
127 101 100 Partial double
128 68 101 Partial double
129 96 99 Partial double
130 103 102 1
131 104 103 Partial double
132 97 102 1
133 99 104 1
134 106 105 1
135 107 106 1
136 100 105 1
137 104 107 Partial double
138 109 108 1
139 110 109 1
140 111 110 1
141 106 108 1
142 105 111 1
143 113 112 1
144 114 113 1
145 103 114 Partial double
146 107 112 Partial double
147 108 115 1
148 112 116 Partial double
149 115 116 Partial double
150 42 117 1
151 117 118 1
152 117 119 1
153 74 120 1
154 122 121 1
155 123 122 Partial double
156 124 123 1
157 114 121 Partial double
158 113 124 Partial double
159 126 125 Partial double
160 127 126 1
161 128 127 Partial double
162 124 125 Partial double
163 123 128 Partial double
164 130 129 Partial double
165 131 130 1
166 132 131 1
167 127 129 Partial double
168 126 132 Partial double
169 134 133 Partial double
170 135 134 Partial double
171 125 135 Partial double
172 132 133 Partial double
173 137 136 Partial double
174 138 137 Partial double
175 131 138 Partial double
176 133 136 Partial double
177 140 139 Partial double
178 134 140 Partial double
179 116 135 Partial double
180 115 139 Partial double
181 142 141 Partial double
182 140 142 Partial double
183 136 141 Partial double
184 144 143 1
185 145 144 1
186 146 145 1
187 142 143 1
188 141 146 1
189 146 147 Double
190 1 148 1
191 1 149 1
192 2 150 1
193 2 151 1
194 3 152 1
195 4 153 1
196 5 154 1
197 5 155 1
198 7 156 1
199 8 157 1
200 9 158 1
201 9 159 1
202 10 160 1
203 10 161 1
204 12 162 1
205 13 163 1
206 14 164 1
207 14 165 1
208 18 166 1
209 23 167 1
210 23 168 1
211 24 169 1
212 24 170 1
213 25 171 1
214 35 173 1
215 35 174 1
216 36 175 1
217 37 176 1
218 37 177 1
219 38 178 1
220 38 179 1
221 41 180 1
222 41 181 1
223 42 182 1
224 43 183 1
225 43 184 1
226 44 185 1
227 44 186 1
228 46 187 1
229 50 188 1
230 57 189 1
231 63 190 1
232 72 191 1
233 73 192 1
234 74 193 1
235 75 194 1
236 75 195 1
237 76 196 1
238 76 197 1
239 77 198 1
240 78 199 1
241 79 200 1
242 79 201 1
243 80 202 1
244 80 203 1
245 81 204 1
246 81 205 1
247 82 206 1
248 87 207 1
249 88 208 1
250 90 209 1
251 90 210 1
252 91 211 1
253 91 212 1
254 92 213 1
255 92 214 1
256 93 215 1
257 93 216 1
258 95 217 1
259 98 218 1
260 101 219 1
261 105 220 1
262 106 221 1
263 108 222 1
264 109 223 1
265 109 224 1
266 110 225 1
267 110 226 1
268 111 227 1
269 111 228 1
270 117 229 1
271 118 230 1
272 118 231 1
273 118 232 1
274 119 233 1
275 119 234 1
276 119 235 1
277 120 236 1
278 121 237 1
279 122 238 1
280 128 239 1
281 129 240 1
282 130 241 1
283 137 242 1
284 138 243 1
285 139 244 1
286 143 245 1
287 143 246 1
288 144 247 1
289 144 248 1
290 145 249 1
291 145 250 1
292 31 172 1
@<TRIPOS>MOLECULE
Sketch 4
250 292
SMALL
USER_CHARGES


@<TRIPOS>ATOM
1 C78794 0.909407022922415 0.432750659450096 0.608223189798071 C 0.0 **** 0.0
2 C78795 0.908362474710126 0.42504880271619 0.590257817339008 C 0.0 **** 0.0
3 C78796 0.925038835263079 0.416021875805922 0.585622856671634 C 0.0 **** 0.0
4 C78797 0.94028438885011 0.4272484755134 0.59088456915436 C 0.0 **** 0.0
5 C78798 0.938760858856585 0.43134676777464 0.610140291038086 C 0.0 **** 0.0
6 O78799 0.923207306096556 0.425803905141395 0.61732562146063 O 0.0 **** 0.0
7 C78806 0.941379174665119 0.443557292399215 0.579826011503216 C 0.0 **** 0.0
8 C78807 0.938968395589464 0.439645486269163 0.56045598487925 C 0.0 **** 0.0
9 C78808 0.938343034878421 0.420715570857546 0.556711854945696 C 0.0 **** 0.0
10 C78809 0.92527929152433 0.410705504574699 0.566854263969365 C 0.0 **** 0.0
11 O78815 0.951652865544482 0.445584021701321 0.549170172348323 O 0.0 **** 0.0
12 C78816 0.958066816082415 0.4619399737458 0.553036039396035 C 0.0 **** 0.0
13 C78817 0.968096533152048 0.460555595578033 0.569554618508349 C 0.0 **** 0.0
14 C78818 0.956916236495832 0.454862680755049 0.584561224696725 C 0.0 **** 0.0
15 C78824 0.977342105384324 0.477023430905602 0.572719698900835 C 0.0 **** 0.0
16 C78825 0.96829978944928 0.493176038085363 0.568001284446124 C 0.0 **** 0.0
17 C78826 0.953461622699704 0.492721538742989 0.55859099856791 C 0.0 **** 0.0
18 C78827 0.944858602685673 0.475955174282647 0.554313666890945 C 0.0 **** 0.0
19 C78833 0.945953643608114 0.507847003291667 0.553697830032992 C 0.0 **** 0.0
20 C78834 0.952052868331329 0.522992769043585 0.560111186743746 C 0.0 **** 0.0
21 C78835 0.966678499993738 0.523355287010742 0.569810648782754 C 0.0 **** 0.0
22 C78836 0.975264696607988 0.508414077728681 0.573196087061624 C 0.0 **** 0.0
23 C78842 0.991337527140156 0.508863353694809 0.583687263098124 C 0.0 **** 0.0
24 C78843 1.00317818869008 0.493925030800393 0.579245096559639 C 0.0 **** 0.0
25 C78844 0.993584033936989 0.477468449037393 0.577883467801182 C 0.0 **** 0.0
26 O78849 0.973083455297813 0.538319797678621 0.57628997885232 O 0.0 **** 0.0
27 C78850 0.964119112587569 0.55317801241567 0.574412061236381 C 0.0 **** 0.0
28 C78851 0.949139022898203 0.554464666541456 0.565350179181213 C 0.0 **** 0.0
29 C78852 0.942199824895302 0.538871655325713 0.557013274078046 C 0.0 **** 0.0
30 C78858 0.933546523723448 0.47810266785595 0.539202237085986 C 0.0 **** 0.0
31 C78859 0.920553653632945 0.491737870418647 0.542570075501362 C 0.0 **** 0.0
32 C78860 0.931292653255835 0.507966351577044 0.541341258639415 C 0.0 **** 0.0
33 C78865 0.905171769978451 0.491218946507666 0.530378501622571 C 0.0 **** 0.0
34 C78866 0.907575611972505 0.483834843427839 0.514924115273956 C 0.0 **** 0.0
35 C78867 0.923750247764218 0.475037640779614 0.509491785236559 C 0.0 **** 0.0
36 C78868 0.935247140093263 0.470670246807318 0.5240681352307 C 0.0 **** 0.0
37 C78874 0.8939393823284 0.481628531525974 0.501931994643823 C 0.0 **** 0.0
38 C78875 0.877942100975794 0.49201043686368 0.505566007676737 C 0.0 **** 0.0
39 C78876 0.876565409457361 0.497791987526731 0.523609370410074 C 0.0 **** 0.0
40 C78877 0.889596273914286 0.497302592477736 0.534951332977157 C 0.0 **** 0.0
41 C78883 0.886013662656169 0.503978286350637 0.552958953702626 C 0.0 **** 0.0
42 C78884 0.867292802934174 0.504168754061324 0.557560518793607 C 0.0 **** 0.0
43 C78885 0.857687911429226 0.514018555113014 0.543839838238894 C 0.0 **** 0.0
44 C78886 0.859123604412777 0.504833081737251 0.526967331978258 C 0.0 **** 0.0
45 C78892 0.927684826097049 0.538776013578817 0.547801247765596 C 0.0 **** 0.0
46 C78893 0.921735653795092 0.524515078817596 0.540264192821995 C 0.0 **** 0.0
47 C78897 0.941476837394669 0.570546529887442 0.563380113583794 C 0.0 **** 0.0
48 C78898 0.927139125289553 0.573366592479102 0.553056361825513 C 0.0 **** 0.0
49 S78899 0.915272241164158 0.556745668293826 0.545305535068863 S 0.0 **** 0.0
50 C78904 0.922018440674706 0.589263543185316 0.548527755358629 C 0.0 **** 0.0
51 C78905 0.930241603793735 0.603538338734221 0.555370154172494 C 0.0 **** 0.0
52 C78906 0.943163734661839 0.601132407186104 0.567515399138044 C 0.0 **** 0.0
53 C78907 0.948960189654529 0.584852211631078 0.571019245105401 C 0.0 **** 0.0
54 C78913 0.94934945042205 0.615120310860032 0.576337809071225 C 0.0 **** 0.0
55 C78914 0.942509758315377 0.631185158491305 0.573383817769712 C 0.0 **** 0.0
56 C78915 0.93156553318221 0.634223896547666 0.559542333720315 C 0.0 **** 0.0
57 C78916 0.925206645866757 0.61998087513157 0.551027030498266 C 0.0 **** 0.0
58 C78922 0.926625218895668 0.650856115798811 0.555687848283305 C 0.0 **** 0.0
59 C78923 0.927975034580254 0.663046561602578 0.568193995204352 C 0.0 **** 0.0
60 C78924 0.936588503452358 0.659385852793823 0.583442691458411 C 0.0 **** 0.0
61 C78925 0.945741956121962 0.644277889605863 0.584621735851093 C 0.0 **** 0.0
62 C78931 0.962473579380429 0.582879956454762 0.582305446687262 C 0.0 **** 0.0
63 C78932 0.970743102272054 0.567174924093344 0.582332357031299 C 0.0 **** 0.0
64 C78936 0.961134345648066 0.612791567778177 0.589283361405461 C 0.0 **** 0.0
65 C78937 0.966865548083754 0.59647283049199 0.59319123206115 C 0.0 **** 0.0
66 C78941 0.957426276588012 0.641963346594675 0.597635982200938 C 0.0 **** 0.0
67 C78942 0.965358135558898 0.626276973222159 0.599636991107159 C 0.0 **** 0.0
68 C78946 0.936561226945326 0.670562943716423 0.597467800874993 C 0.0 **** 0.0
69 C78947 0.949288503585455 0.668780493725342 0.609763011647415 C 0.0 **** 0.0
70 C78948 0.959743635968284 0.654692928672888 0.609620979486832 C 0.0 **** 0.0
71 O78953 0.921267900475852 0.679073408297806 0.565251206168735 O 0.0 **** 0.0
72 C78954 0.904377067196707 0.678846212182053 0.558483164968428 C 0.0 **** 0.0
73 C78955 0.90184282462254 0.665643898835448 0.543939153314704 C 0.0 **** 0.0
74 C78956 0.918702176125287 0.657309362831083 0.539374656015351 C 0.0 **** 0.0
75 C78962 0.893141925476691 0.673097353174937 0.528096438322078 C 0.0 **** 0.0
76 C78963 0.877238715885739 0.683455448001682 0.532194421454652 C 0.0 **** 0.0
77 C78964 0.880519807523799 0.696623048087024 0.546227000423997 C 0.0 **** 0.0
78 C78965 0.898991313375381 0.696713413203972 0.552494632250951 C 0.0 **** 0.0
79 C78971 0.901706354724979 0.71108464531923 0.565592375775836 C 0.0 **** 0.0
80 C78972 0.884776829543209 0.717280489830385 0.573060686603891 C 0.0 **** 0.0
81 C78973 0.872548324146975 0.702628549409834 0.576141657419876 C 0.0 **** 0.0
82 N78974 0.868411688751922 0.694109159365659 0.560023760642452 N 0.0 **** 0.0
83 C78980 0.975317527377597 0.593324924886947 0.608700132295707 C 0.0 **** 0.0
84 C78981 0.980578029610446 0.606834961599998 0.618489918701502 C 0.0 **** 0.0
85 C78982 0.975771457947215 0.623396148532852 0.613745452247952 C 0.0 **** 0.0
86 O78987 0.989641913584341 0.604792714235007 0.633393315808562 O 0.0 **** 0.0
87 C78988 0.996470260647329 0.588183627796271 0.635317603711012 C 0.0 **** 0.0
88 C78989 0.983147673652596 0.575349940811446 0.631148624187994 C 0.0 **** 0.0
89 O78990 0.978190798220095 0.576803035104963 0.613863840888007 O 0.0 **** 0.0
90 C78996 0.967741646161656 0.576468537478689 0.64320172651206 C 0.0 **** 0.0
91 C78997 0.972614388896795 0.581455318502238 0.661473176173459 C 0.0 **** 0.0
92 C78998 0.991016782771092 0.576770860011108 0.665398675767333 C 0.0 **** 0.0
93 C78999 1.00331368335938 0.586242714759035 0.653491838230164 C 0.0 **** 0.0
94 C79005 0.971217937024283 0.652364837191135 0.623164787854013 C 0.0 **** 0.0
95 C79006 0.979442811385223 0.636704638034661 0.624813403610314 C 0.0 **** 0.0
96 C79010 0.9501363354215 0.680421692250891 0.623073491774008 C 0.0 **** 0.0
97 C79011 0.962433483016404 0.678765215413492 0.635947564048648 C 0.0 **** 0.0
98 C79012 0.972805583681754 0.664879579835611 0.635811696095122 C 0.0 **** 0.0
99 C79017 0.937977276148295 0.69325549430449 0.624621296674064 C 0.0 **** 0.0
100 C79018 0.924330562412785 0.694022653685876 0.613699690121118 C 0.0 **** 0.0
101 C79019 0.92376305754434 0.682654363335225 0.600532191684321 C 0.0 **** 0.0
102 O79024 0.963651760304421 0.689965078702585 0.649283744881786 O 0.0 **** 0.0
103 C79025 0.953907591265537 0.70442697781927 0.64904357268512 C 0.0 **** 0.0
104 C79026 0.940652377243899 0.706185797637135 0.638078232001211 C 0.0 **** 0.0
105 C79031 0.910382958319462 0.707092728778051 0.615328953772716 C 0.0 **** 0.0
106 C79032 0.916115053465589 0.722995074814676 0.626026867547642 C 0.0 **** 0.0
107 C79033 0.930782338725805 0.720293804390569 0.638296261086089 C 0.0 **** 0.0
108 C79038 0.901177883399938 0.730727643995425 0.635952973757525 C 0.0 **** 0.0
109 C79039 0.884827768113032 0.730538076832014 0.625559596932228 C 0.0 **** 0.0
110 C79040 0.879195738197665 0.712044320683966 0.622346268752576 C 0.0 **** 0.0
111 C79041 0.894076498429879 0.699290579740578 0.622378859175446 C 0.0 **** 0.0
112 C79047 0.93425859438009 0.732812665425862 0.649613029204269 C 0.0 **** 0.0
113 C79048 0.948185510000269 0.731651809998863 0.659872921392519 C 0.0 **** 0.0
114 C79049 0.957804381536375 0.717355377472709 0.659855203538353 C 0.0 **** 0.0
115 C79054 0.907071085329714 0.74788108185084 0.642498233659874 C 0.0 **** 0.0
116 C79056 0.923019935879223 0.74816419972206 0.64984495317101 C 0.0 **** 0.0
117 C79059 0.864168876031948 0.510621994995571 0.575781879329768 C 0.0 **** 0.0
118 C79061 0.869469789691691 0.529061258460053 0.578627204402593 C 0.0 **** 0.0
119 C79063 0.845703748942262 0.508286118484074 0.581253788285931 C 0.0 **** 0.0
120 O79065 0.917022585406366 0.64483692771627 0.526567937741933 O 0.0 **** 0.0
121 C79067 0.971447003517467 0.716215892030696 0.670442031554785 C 0.0 **** 0.0
122 C79068 0.975802764521092 0.729422034908359 0.680604950670568 C 0.0 **** 0.0
123 C79069 0.966600791756694 0.744010286729881 0.680255472047654 C 0.0 **** 0.0
124 C79070 0.952701642925621 0.744923298070554 0.669975013912054 C 0.0 **** 0.0
125 C79076 0.942791620682734 0.760797424761901 0.669371682659901 C 0.0 **** 0.0
126 C79077 0.947727470360126 0.774029833852515 0.679275075272846 C 0.0 **** 0.0
127 C79078 0.963037398475622 0.772415121192939 0.689869273397517 C 0.0 **** 0.0
128 C79079 0.971770634515326 0.757442079289847 0.690114178327726 C 0.0 **** 0.0
129 C79085 0.96830214426235 0.786058884600547 0.699087282626356 C 0.0 **** 0.0
130 C79086 0.959451532604207 0.800983482755099 0.699000880089668 C 0.0 **** 0.0
131 C79087 0.944702206332277 0.80277696758281 0.690082064152445 C 0.0 **** 0.0
132 C79088 0.938632847011093 0.788741443942661 0.679326449075974 C 0.0 **** 0.0
133 C79094 0.923877886929769 0.790444750763887 0.669601341989633 C 0.0 **** 0.0
134 C79095 0.918891847675593 0.77699828443951 0.659300539282722 C 0.0 **** 0.0
135 C79096 0.928464466399546 0.762147329357996 0.659071692372536 C 0.0 **** 0.0
136 C79101 0.913993973207592 0.805075639210075 0.670442969563161 C 0.0 **** 0.0
137 C79102 0.920782608818627 0.818831485858635 0.682061582929157 C 0.0 **** 0.0
138 C79103 0.935495774599923 0.817318917605168 0.69101700014102 C 0.0 **** 0.0
139 C79108 0.897746811475665 0.762613847483338 0.642564495019917 C 0.0 **** 0.0
140 C79109 0.903751896381466 0.777848906325454 0.650101863881164 C 0.0 **** 0.0
141 C79114 0.899436159090516 0.806338052767336 0.660539875406693 C 0.0 **** 0.0
142 C79115 0.894630955285219 0.793159574710875 0.649837932829909 C 0.0 **** 0.0
143 C79119 0.878961213404809 0.794683348213596 0.638715136297575 C 0.0 **** 0.0
144 C79120 0.877356436352249 0.812722934333868 0.631894660861587 C 0.0 **** 0.0
145 C79121 0.876334089037308 0.824654400639937 0.64677652868395 C 0.0 **** 0.0
146 C79122 0.888429374463967 0.821765836298762 0.661160122454387 C 0.0 **** 0.0
147 O79128 0.888002599713055 0.831734963116517 0.672814287769842 O 0.0 **** 0.0
148 H79130 0.898000930256732 0.429792821992478 0.615561817382396 H 0.0 **** 0.0
149 H79132 0.910334111233377 0.446655070136208 0.607639028749963 H 0.0 **** 0.0
150 H79134 0.89788996954249 0.415922171476382 0.589170641343767 H 0.0 **** 0.0
151 H79136 0.905641511214637 0.434967660471767 0.580852984783674 H 0.0 **** 0.0
152 H79138 0.925590461083209 0.404450755041294 0.59345966178184 H 0.0 **** 0.0
153 H79140 0.952006631185103 0.419974254712462 0.588638551630198 H 0.0 **** 0.0
154 H79142 0.940564277114029 0.444959071281415 0.612616230036434 H 0.0 **** 0.0
155 H79144 0.948623647230788 0.424721236656825 0.617333571567263 H 0.0 **** 0.0
156 H79146 0.930198214563856 0.451064983198719 0.58352237323977 H 0.0 **** 0.0
157 H79148 0.92673837241631 0.445222096161627 0.556642903889927 H 0.0 **** 0.0
158 H79150 0.951110833594557 0.415705883702845 0.559287996014484 H 0.0 **** 0.0
159 H79152 0.936263356162462 0.419191516379005 0.543007744208941 H 0.0 **** 0.0
160 H79154 0.927968314810835 0.397090595783137 0.565807145846507 H 0.0 **** 0.0
161 H79156 0.912658543688005 0.4125139424055 0.561227001718542 H 0.0 **** 0.0
162 H79158 0.966671334532505 0.464821483405019 0.542491822016241 H 0.0 **** 0.0
163 H79160 0.9775372244292 0.450514647817616 0.567577946488452 H 0.0 **** 0.0
164 H79162 0.952112202448019 0.46596992681527 0.591452892160102 H 0.0 **** 0.0
165 H79164 0.965019768015357 0.448158948787903 0.593660695744369 H 0.0 **** 0.0
166 H79166 0.936353316585554 0.472834505457041 0.564979706176206 H 0.0 **** 0.0
167 H79168 0.998146054660248 0.520848956030465 0.581764038190623 H 0.0 **** 0.0
168 H79170 0.988073349412079 0.508315199581327 0.597225136503452 H 0.0 **** 0.0
169 H79172 1.0132496310872 0.492840422507604 0.588840638607997 H 0.0 **** 0.0
170 H79174 1.00952459273478 0.496423907065613 0.567089892097273 H 0.0 **** 0.0
171 H79176 1.00083436992386 0.466001536363766 0.580300598275319 H 0.0 **** 0.0
172 H79178 0.916119168592112 0.490191743383883 0.555673402476642 H 0.0 **** 0.0
173 H79179 0.930556319122013 0.483018073067618 0.500309957008322 H 0.0 **** 0.0
174 H79181 0.920357785055668 0.463168652647812 0.502917219018284 H 0.0 **** 0.0
175 H79183 0.945300173413693 0.461517468651254 0.521776945946034 H 0.0 **** 0.0
176 H79185 0.898887054220444 0.485007115683469 0.489316651042848 H 0.0 **** 0.0
177 H79187 0.890628018873102 0.468082406099048 0.501408152759764 H 0.0 **** 0.0
178 H79189 0.866699804119213 0.484446993750087 0.50217853688957 H 0.0 **** 0.0
179 H79191 0.87775147454292 0.503302264447487 0.497372289220401 H 0.0 **** 0.0
180 H79193 0.892726966963128 0.496281012955791 0.5623973611784 H 0.0 **** 0.0
181 H79195 0.891145293831022 0.516869395440242 0.55396882259075 H 0.0 **** 0.0
182 H79197 0.862672823792894 0.49096054404918 0.557223590268548 H 0.0 **** 0.0
183 H79199 0.863082042477613 0.52682808915364 0.542760368725571 H 0.0 **** 0.0
184 H79201 0.844222762567778 0.515620750945138 0.547024342393161 H 0.0 **** 0.0
185 H79203 0.855493455274613 0.513338650019656 0.516504155492257 H 0.0 **** 0.0
186 H79205 0.850088142273704 0.49418897252287 0.526766992067259 H 0.0 **** 0.0
187 H79207 0.910149047091266 0.524809007807186 0.532838161790489 H 0.0 **** 0.0
188 H79209 0.911335516669321 0.591175811989057 0.539884990256637 H 0.0 **** 0.0
189 H79211 0.915309897171788 0.621226515898401 0.541415157016109 H 0.0 **** 0.0
190 H79213 0.982537494147919 0.56522680930134 0.58938012314028 H 0.0 **** 0.0
191 H79215 0.896047002597802 0.675242807129656 0.569046433505181 H 0.0 **** 0.0
192 H79217 0.893478549917672 0.655425151604001 0.548331748100636 H 0.0 **** 0.0
193 H79219 0.927232840284966 0.667282899910204 0.534464249342375 H 0.0 **** 0.0
194 H79221 0.902151405038254 0.681178327752365 0.521183487339688 H 0.0 **** 0.0
195 H79223 0.889703901363769 0.662734354444835 0.51944879051467 H 0.0 **** 0.0
196 H79225 0.867110843115413 0.674716814542641 0.536041260641755 H 0.0 **** 0.0
197 H79227 0.872675333090798 0.689576624703724 0.520543642550619 H 0.0 **** 0.0
198 H79229 0.877880678204882 0.709271404087198 0.540928870092726 H 0.0 **** 0.0
199 H79231 0.907104625684842 0.699709472442175 0.54154356425197 H 0.0 **** 0.0
200 H79233 0.910176924135316 0.706894614869991 0.575779600933472 H 0.0 **** 0.0
201 H79235 0.908202923109047 0.721797402067564 0.559516118869219 H 0.0 **** 0.0
202 H79237 0.878802757861237 0.726307559176081 0.56426043537639 H 0.0 **** 0.0
203 H79239 0.886912144405962 0.72419341621427 0.584928587550083 H 0.0 **** 0.0
204 H79241 0.860787241923253 0.707232359368242 0.582046660633157 H 0.0 **** 0.0
205 H79243 0.878441476526152 0.693791851213279 0.585199497679403 H 0.0 **** 0.0
206 H79245 0.865905526421467 0.681808149071598 0.561822102238096 H 0.0 **** 0.0
207 H79247 1.00683033477011 0.586832478815191 0.62609809097253 H 0.0 **** 0.0
208 H79249 0.98884620731114 0.562716079936999 0.632599778986296 H 0.0 **** 0.0
209 H79251 0.958729436752546 0.585753015724731 0.638072960989358 H 0.0 **** 0.0
210 H79253 0.960969560654372 0.56430381312908 0.643168581247007 H 0.0 **** 0.0
211 H79255 0.963860057156263 0.575604250749336 0.670597128713025 H 0.0 **** 0.0
212 H79257 0.971207958814131 0.595246462877747 0.663025396392661 H 0.0 **** 0.0
213 H79259 0.992599761269378 0.563000420779413 0.663828682429015 H 0.0 **** 0.0
214 H79261 0.994175105629883 0.579567914825154 0.678684738390579 H 0.0 **** 0.0
215 H79263 1.01580088666427 0.58008545552546 0.653829157266871 H 0.0 **** 0.0
216 H79265 1.00531391727081 0.599109951513189 0.658415489000917 H 0.0 **** 0.0
217 H79267 0.987328233040024 0.634387781415005 0.636002708635433 H 0.0 **** 0.0
218 H79269 0.981692852949675 0.6628519143879 0.646306337465558 H 0.0 **** 0.0
219 H79271 0.912744225190942 0.683343812897888 0.592160486590748 H 0.0 **** 0.0
220 H79273 0.90741328976355 0.711975694419292 0.60262695089301 H 0.0 **** 0.0
221 H79275 0.920393377976089 0.732430228518548 0.616675374305126 H 0.0 **** 0.0
222 H79277 0.898729329878329 0.722731569084714 0.647189157514404 H 0.0 **** 0.0
223 H79279 0.887135254858925 0.736991319863967 0.61345602256677 H 0.0 **** 0.0
224 H79281 0.874558662428671 0.737427782829156 0.631958104648409 H 0.0 **** 0.0
225 H79283 0.872337556633867 0.71128597120052 0.610268310639452 H 0.0 **** 0.0
226 H79285 0.870021983917094 0.7082084964153 0.632112083348414 H 0.0 **** 0.0
227 H79287 0.890466364830832 0.687898574593636 0.61520776355871 H 0.0 **** 0.0
228 H79289 0.896492954442242 0.695052955322469 0.635442581247503 H 0.0 **** 0.0
229 H79291 0.871923796738971 0.502694994158898 0.584305778155607 H 0.0 **** 0.0
230 H79293 0.867172027853417 0.532823130558279 0.591820105248743 H 0.0 **** 0.0
231 H79295 0.862197421742788 0.537684625531205 0.570483017402193 H 0.0 **** 0.0
232 H79297 0.882982488651585 0.531147643642053 0.576077376367737 H 0.0 **** 0.0
233 H79299 0.841350132842539 0.49524882179464 0.579137862881733 H 0.0 **** 0.0
234 H79301 0.837240334435947 0.51679090034333 0.574218232434055 H 0.0 **** 0.0
235 H79303 0.844147945741152 0.511068537486039 0.594803570404318 H 0.0 **** 0.0
236 H79305 0.915470031705862 0.650903429642007 0.51631751561894 H 0.0 **** 0.0
237 H79307 0.979367512986058 0.704955111689361 0.670697067710279 H 0.0 **** 0.0
238 H79309 0.986949935692045 0.728181026966239 0.68864573239406 H 0.0 **** 0.0
239 H79311 0.983068798065635 0.756237812052932 0.697979538178223 H 0.0 **** 0.0
240 H79313 0.979643067315388 0.785297399065803 0.706868185899555 H 0.0 **** 0.0
241 H79315 0.964423975791722 0.811369607279509 0.706603785261182 H 0.0 **** 0.0
242 H79317 0.913888407384722 0.830624640861851 0.683291705619561 H 0.0 **** 0.0
243 H79319 0.939593619306827 0.827899977646709 0.698855514367135 H 0.0 **** 0.0
244 H79321 0.885294069210354 0.762333708877258 0.636500503639827 H 0.0 **** 0.0
245 H79323 0.879557617374868 0.785965274717805 0.627910692221415 H 0.0 **** 0.0
246 H79325 0.867546756371966 0.791300758458743 0.646012179114192 H 0.0 **** 0.0
247 H79327 0.866038017372945 0.814144013734027 0.62390967960933 H 0.0 **** 0.0
248 H79329 0.888376415672821 0.815676494614731 0.623877880638136 H 0.0 **** 0.0
249 H79331 0.863982336295066 0.823853852051707 0.653117100096817 H 0.0 **** 0.0
250 H79333 0.878303709167989 0.838096061572088 0.643878046180077 H 0.0 **** 0.0
@<TRIPOS>BOND
1 3 2 1
2 4 3 1
3 5 4 1
4 6 5 1
5 1 2 1
6 1 6 1
7 8 7 1
8 9 8 1
9 10 9 1
10 4 7 1
11 3 10 1
12 12 11 1
13 13 12 1
14 14 13 1
15 8 11 1
16 7 14 1
17 16 15 1
18 17 16 Partial double
19 18 17 1
20 13 15 1
21 12 18 1
22 20 19 Partial double
23 21 20 Partial double
24 22 21 Partial double
25 17 19 Partial double
26 16 22 Partial double
27 24 23 1
28 25 24 1
29 15 25 Double
30 22 23 1
31 27 26 1
32 28 27 Partial double
33 29 28 Partial double
34 21 26 1
35 20 29 Partial double
36 31 30 1
37 32 31 1
38 18 30 1
39 19 32 1
40 34 33 Double
41 35 34 1
42 36 35 1
43 31 33 1
44 30 36 Double
45 38 37 1
46 39 38 1
47 40 39 Double
48 34 37 1
49 33 40 1
50 42 41 1
51 43 42 1
52 44 43 1
53 40 41 1
54 39 44 1
55 46 45 Partial double
56 32 46 1
57 29 45 Partial double
58 48 47 Partial double
59 49 48 1
60 45 49 Partial double
61 28 47 Partial double
62 51 50 Partial double
63 52 51 Partial double
64 53 52 Partial double
65 48 50 Partial double
66 47 53 Partial double
67 55 54 Partial double
68 56 55 Partial double
69 57 56 Partial double
70 52 54 Partial double
71 51 57 Partial double
72 59 58 Partial double
73 60 59 Partial double
74 61 60 Partial double
75 56 58 Partial double
76 55 61 Partial double
77 63 62 Partial double
78 27 63 Partial double
79 53 62 Partial double
80 65 64 Partial double
81 62 65 Partial double
82 54 64 Partial double
83 67 66 Partial double
84 64 67 Partial double
85 61 66 Partial double
86 69 68 Partial double
87 70 69 Partial double
88 66 70 Partial double
89 60 68 Partial double
90 72 71 1
91 73 72 1
92 74 73 1
93 59 71 1
94 58 74 1
95 76 75 1
96 77 76 1
97 78 77 1
98 73 75 1
99 72 78 1
100 80 79 1
101 81 80 1
102 82 81 1
103 78 79 1
104 77 82 1
105 84 83 Partial double
106 85 84 Partial double
107 67 85 Partial double
108 65 83 Partial double
109 87 86 1
110 88 87 1
111 89 88 1
112 84 86 1
113 83 89 1
114 91 90 1
115 92 91 1
116 93 92 1
117 88 90 1
118 87 93 1
119 95 94 Partial double
120 85 95 Partial double
121 70 94 Partial double
122 97 96 Partial double
123 98 97 Partial double
124 94 98 Partial double
125 69 96 Partial double
126 100 99 Partial double
127 101 100 Partial double
128 68 101 Partial double
129 96 99 Partial double
130 103 102 1
131 104 103 Partial double
132 97 102 1
133 99 104 1
134 106 105 1
135 107 106 1
136 100 105 1
137 104 107 Partial double
138 109 108 1
139 110 109 1
140 111 110 1
141 106 108 1
142 105 111 1
143 113 112 1
144 114 113 1
145 103 114 Partial double
146 107 112 Partial double
147 108 115 1
148 112 116 Partial double
149 115 116 Partial double
150 42 117 1
151 117 118 1
152 117 119 1
153 74 120 1
154 122 121 1
155 123 122 Partial double
156 124 123 1
157 114 121 Partial double
158 113 124 Partial double
159 126 125 Partial double
160 127 126 1
161 128 127 Partial double
162 124 125 Partial double
163 123 128 Partial double
164 130 129 Partial double
165 131 130 1
166 132 131 1
167 127 129 Partial double
168 126 132 Partial double
169 134 133 Partial double
170 135 134 Partial double
171 125 135 Partial double
172 132 133 Partial double
173 137 136 Partial double
174 138 137 Partial double
175 131 138 Partial double
176 133 136 Partial double
177 140 139 Partial double
178 134 140 Partial double
179 116 135 Partial double
180 115 139 Partial double
181 142 141 Partial double
182 140 142 Partial double
183 136 141 Partial double
184 144 143 1
185 145 144 1
186 146 145 1
187 142 143 1
188 141 146 1
189 146 147 Double
190 1 148 1
191 1 149 1
192 2 150 1
193 2 151 1
194 3 152 1
195 4 153 1
196 5 154 1
197 5 155 1
198 7 156 1
199 8 157 1
200 9 158 1
201 9 159 1
202 10 160 1
203 10 161 1
204 12 162 1
205 13 163 1
206 14 164 1
207 14 165 1
208 18 166 1
209 23 167 1
210 23 168 1
211 24 169 1
212 24 170 1
213 25 171 1
214 35 173 1
215 35 174 1
216 36 175 1
217 37 176 1
218 37 177 1
219 38 178 1
220 38 179 1
221 41 180 1
222 41 181 1
223 42 182 1
224 43 183 1
225 43 184 1
226 44 185 1
227 44 186 1
228 46 187 1
229 50 188 1
230 57 189 1
231 63 190 1
232 72 191 1
233 73 192 1
234 74 193 1
235 75 194 1
236 75 195 1
237 76 196 1
238 76 197 1
239 77 198 1
240 78 199 1
241 79 200 1
242 79 201 1
243 80 202 1
244 80 203 1
245 81 204 1
246 81 205 1
247 82 206 1
248 87 207 1
249 88 208 1
250 90 209 1
251 90 210 1
252 91 211 1
253 91 212 1
254 92 213 1
255 92 214 1
256 93 215 1
257 93 216 1
258 95 217 1
259 98 218 1
260 101 219 1
261 105 220 1
262 106 221 1
263 108 222 1
264 109 223 1
265 109 224 1
266 110 225 1
267 110 226 1
268 111 227 1
269 111 228 1
270 117 229 1
271 118 230 1
272 118 231 1
273 118 232 1
274 119 233 1
275 119 234 1
276 119 235 1
277 120 236 1
278 121 237 1
279 122 238 1
280 128 239 1
281 129 240 1
282 130 241 1
283 137 242 1
284 138 243 1
285 139 244 1
286 143 245 1
287 143 246 1
288 144 247 1
289 144 248 1
290 145 249 1
291 145 250 1
292 31 172 1
@<TRIPOS>MOLECULE
Sketch 4
250 292
SMALL
USER_CHARGES


@<TRIPOS>ATOM
1 C79336 0.263050950580324 0.213711924550305 0.883535866385667 C 0.0 **** 0.0
2 C79337 0.26404840710942 0.19427693800206 0.882688610816059 C 0.0 **** 0.0
3 C79338 0.281761254403741 0.18757504144383 0.887210392145912 C 0.0 **** 0.0
4 C79339 0.295892312692695 0.198073718344877 0.87819519239645 C 0.0 **** 0.0
5 C79340 0.287937676395903 0.211779318509745 0.866847492296199 C 0.0 **** 0.0
6 O79341 0.276994295230933 0.222572573122179 0.876176136427125 O 0.0 **** 0.0
7 C79348 0.309901233219005 0.188171947888866 0.868521749636652 C 0.0 **** 0.0
8 C79349 0.314424442998518 0.170064275187053 0.875082892079339 C 0.0 **** 0.0
9 C79350 0.301623891619488 0.162796860213712 0.887721949563964 C 0.0 **** 0.0
10 C79351 0.283448631028746 0.168458177695363 0.88445438684926 C 0.0 **** 0.0
11 O79357 0.330331246398128 0.169456730919371 0.883596739603318 O 0.0 **** 0.0
12 C79358 0.344749998431238 0.173312969471284 0.873363058672511 C 0.0 **** 0.0
13 C79359 0.342354043558804 0.190067326023632 0.862962037220693 C 0.0 **** 0.0
14 C79360 0.325953781970933 0.199281397097255 0.868278682051221 C 0.0 **** 0.0
15 C79366 0.345442627628286 0.188538592881461 0.844135459258145 C 0.0 **** 0.0
16 C79367 0.360494332510302 0.177859337454624 0.83989213824778 C 0.0 **** 0.0
17 C79368 0.364272816153915 0.16402266633093 0.849932111176562 C 0.0 **** 0.0
18 C79369 0.351232442496386 0.158152945809885 0.862998630993372 C 0.0 **** 0.0
19 C79375 0.379131470126892 0.155232357906919 0.846864307905975 C 0.0 **** 0.0
20 C79376 0.389430794683073 0.160053213117228 0.833498831161311 C 0.0 **** 0.0
21 C79377 0.384828481264096 0.173156128419831 0.822717528925208 C 0.0 **** 0.0
22 C79378 0.370104628687003 0.182141593861816 0.825892083094887 C 0.0 **** 0.0
23 C79384 0.364602189678942 0.196621054210268 0.814612421355972 C 0.0 **** 0.0
24 C79385 0.345011561035036 0.197690285167514 0.814122990813852 C 0.0 **** 0.0
25 C79386 0.337915460334468 0.19781806125489 0.831958637941597 C 0.0 **** 0.0
26 O79391 0.394591574888107 0.177422018833314 0.808800823597337 O 0.0 **** 0.0
27 C79392 0.411003805192898 0.171532563436625 0.80792031456153 C 0.0 **** 0.0
28 C79393 0.416990248017791 0.158214633522782 0.817594085256727 C 0.0 **** 0.0
29 C79394 0.405297199398857 0.150328479096426 0.830271793018641 C 0.0 **** 0.0
30 C79400 0.358328046597412 0.143643263587997 0.873399917232075 C 0.0 **** 0.0
31 C79401 0.367613248527853 0.1306834247632 0.862592976653036 C 0.0 **** 0.0
32 C79402 0.383913016950826 0.140386700592056 0.857867990884461 C 0.0 **** 0.0
33 C79407 0.370768243462981 0.113385435965336 0.87132218426355 C 0.0 **** 0.0
34 C79408 0.370658228858975 0.11310406903169 0.888585067343762 C 0.0 **** 0.0
35 C79409 0.36659393263242 0.1282252706906 0.899668853873052 C 0.0 **** 0.0
36 C79410 0.358163368864803 0.142567207778074 0.890335879178452 C 0.0 **** 0.0
37 C79416 0.373364880076655 0.0976042451175724 0.8991054948319 C 0.0 **** 0.0
38 C79417 0.377896272761239 0.0816817959277246 0.888933603563062 C 0.0 **** 0.0
39 C79418 0.376737909946716 0.0838598289640364 0.870153479100518 C 0.0 **** 0.0
40 C79419 0.373166062147027 0.098807194936635 0.862248717264355 C 0.0 **** 0.0
41 C79425 0.371971898983452 0.098437335140368 0.842771038748464 C 0.0 **** 0.0
42 C79426 0.3685498104533 0.0808392994907669 0.835671309777414 C 0.0 **** 0.0
43 C79427 0.382279650072347 0.0688705955060267 0.84241306941304 C 0.0 **** 0.0
44 C79428 0.380235724895125 0.0671793999185091 0.861483587968504 C 0.0 **** 0.0
45 C79434 0.408912973162928 0.135814738059593 0.838675791793837 C 0.0 **** 0.0
46 C79435 0.398929699157725 0.130091010576217 0.851516527610615 C 0.0 **** 0.0
47 C79439 0.433926717440529 0.152797579904883 0.815593631959741 C 0.0 **** 0.0
48 C79440 0.440189367981051 0.137950834228492 0.823352877849063 C 0.0 **** 0.0
49 S79441 0.426387376253204 0.123705901703195 0.832796832174339 S 0.0 **** 0.0
50 C79446 0.456928793199658 0.133617199556893 0.822598127408966 C 0.0 **** 0.0
51 C79447 0.468322589575318 0.143578382077445 0.813086387382087 C 0.0 **** 0.0
52 C79448 0.462220874395598 0.1579190020754 0.804290482018342 C 0.0 **** 0.0
53 C79449 0.445222977898981 0.162472113124144 0.805708785151063 C 0.0 **** 0.0
54 C79455 0.473036373799977 0.166281952218214 0.793112154976851 C 0.0 **** 0.0
55 C79456 0.489731474054708 0.160755921643607 0.790604863253755 C 0.0 **** 0.0
56 C79457 0.496277007905518 0.146816751798527 0.79981535041232 C 0.0 **** 0.0
57 C79458 0.485174435473199 0.138460093601873 0.810864149368023 C 0.0 **** 0.0
58 C79464 0.512588200136686 0.140744944199866 0.796259730709218 C 0.0 **** 0.0
59 C79465 0.521052362061238 0.147034250578958 0.78227869024186 C 0.0 **** 0.0
60 C79466 0.515991444884159 0.162281285068505 0.774724793287202 C 0.0 **** 0.0
61 C79467 0.499796395902902 0.168478779816975 0.778388642223264 C 0.0 **** 0.0
62 C79473 0.439174443237458 0.176440170189249 0.796534035065452 C 0.0 **** 0.0
63 C79474 0.421689142195443 0.179543116873173 0.796831274223056 C 0.0 **** 0.0
64 C79478 0.466963056613447 0.180201227626016 0.784114460248187 C 0.0 **** 0.0
65 C79479 0.450794175214225 0.186626208147007 0.787367863933641 C 0.0 **** 0.0
66 C79483 0.493461721546054 0.182011752843753 0.769030957636604 C 0.0 **** 0.0
67 C79484 0.477257734756415 0.188117427184705 0.772388958921103 C 0.0 **** 0.0
68 C79488 0.527006905996076 0.171678548032016 0.76403754811961 C 0.0 **** 0.0
69 C79489 0.520061197041796 0.184671895670891 0.754139143875586 C 0.0 **** 0.0
70 C79490 0.503454950710441 0.189743159403184 0.756704658075413 C 0.0 **** 0.0
71 O79495 0.535361207285492 0.138474551950919 0.776590114886913 O 0.0 **** 0.0
72 C79496 0.531713925375393 0.120703548077404 0.77473343416249 C 0.0 **** 0.0
73 C79497 0.52479825770168 0.112849276572178 0.791546651764135 C 0.0 **** 0.0
74 C79498 0.522753024739977 0.126802320708648 0.804745456883863 C 0.0 **** 0.0
75 C79504 0.535162171674236 0.0975474292109732 0.797586655519306 C 0.0 **** 0.0
76 C79505 0.537029905143718 0.0850664651528533 0.782974487125668 C 0.0 **** 0.0
77 C79506 0.54847434998155 0.0923981563225978 0.76908061065459 C 0.0 **** 0.0
78 C79507 0.547855004367104 0.112158242027326 0.767776000771518 C 0.0 **** 0.0
79 C79513 0.552042403370463 0.118250931400405 0.749657983485967 C 0.0 **** 0.0
80 C79514 0.565641444956489 0.106625232294294 0.742213932135604 C 0.0 **** 0.0
81 C79515 0.559347129158755 0.0880543100016757 0.740857082623628 C 0.0 **** 0.0
82 N79516 0.545925388431717 0.083867095735671 0.753024111800516 N 0.0 **** 0.0
83 C79522 0.446412681968447 0.203123651987814 0.781871335885505 C 0.0 **** 0.0
84 C79523 0.456804503509827 0.211330375826157 0.770400312362726 C 0.0 **** 0.0
85 C79524 0.471593349403378 0.203087498198152 0.764690429702177 C 0.0 **** 0.0
86 O79529 0.453098182940023 0.227217624739719 0.763967350050565 O 0.0 **** 0.0
87 C79530 0.441890269829113 0.236284053623758 0.774833405203951 C 0.0 **** 0.0
88 C79531 0.426776891592703 0.225547745928032 0.778613832976947 C 0.0 **** 0.0
89 O79532 0.431697333520328 0.210739036313331 0.787691604118454 O 0.0 **** 0.0
90 C79538 0.416721958266577 0.221043343692193 0.762439036775446 C 0.0 **** 0.0
91 C79539 0.418374268664875 0.234478007986381 0.748340362850146 C 0.0 **** 0.0
92 C79540 0.42084389651042 0.252207850930942 0.755794274881283 C 0.0 **** 0.0
93 C79541 0.43719341159468 0.253236561318459 0.766496373804511 C 0.0 **** 0.0
94 C79547 0.497324968422754 0.204099747674685 0.747871098936319 C 0.0 **** 0.0
95 C79548 0.481361416174839 0.210671435439703 0.752043070396818 C 0.0 **** 0.0
96 C79552 0.530646052358506 0.19395651191321 0.743427874326286 C 0.0 **** 0.0
97 C79553 0.524053734933174 0.207229749670678 0.733443879909972 C 0.0 **** 0.0
98 C79554 0.507667870253523 0.212280909418497 0.735845426021241 C 0.0 **** 0.0
99 C79559 0.548334944169949 0.191804257764469 0.743872554214408 C 0.0 **** 0.0
100 C79560 0.555544131122594 0.179893898417057 0.754456467942478 C 0.0 **** 0.0
101 C79561 0.544863229272131 0.170060567462342 0.764117475000365 C 0.0 **** 0.0
102 O79566 0.53382410509022 0.21540337026525 0.721573696745395 O 0.0 **** 0.0
103 C79567 0.550966919186852 0.21606775476174 0.724411473761877 C 0.0 **** 0.0
104 C79568 0.558875572033861 0.204265340801395 0.734276111668218 C 0.0 **** 0.0
105 C79573 0.574601733320374 0.177641348129052 0.756337324195599 C 0.0 **** 0.0
106 C79574 0.5853849222899 0.192609763520941 0.748150993110423 C 0.0 **** 0.0
107 C79575 0.576008787358388 0.204631402545631 0.736340304257969 C 0.0 **** 0.0
108 C79580 0.601782308546292 0.186258162856201 0.739549208632746 C 0.0 **** 0.0
109 C79581 0.610675269397758 0.173033061414297 0.750666449686629 C 0.0 **** 0.0
110 C79582 0.599351326727902 0.157287819963449 0.753599831508363 C 0.0 **** 0.0
111 C79583 0.580494743768302 0.160415120020575 0.749696199344549 C 0.0 **** 0.0
112 C79589 0.585270384550898 0.216567343799577 0.72799870584681 C 0.0 **** 0.0
113 C79590 0.577208372570892 0.229104350049608 0.719089257530084 C 0.0 **** 0.0
114 C79591 0.560093092984411 0.228792563950698 0.717168237556619 C 0.0 **** 0.0
115 C79596 0.61265417464064 0.201706284545687 0.735181854302987 C 0.0 **** 0.0
116 C79598 0.604311443782125 0.215992726870536 0.729268370250214 C 0.0 **** 0.0
117 C79601 0.366446657125032 0.080862702915398 0.816223240699807 C 0.0 **** 0.0
118 C79603 0.381572391613521 0.0882067708092008 0.80660354430668 C 0.0 **** 0.0
119 C79605 0.362229055556897 0.0632335514788083 0.809272287707809 C 0.0 **** 0.0
120 O79607 0.515747340156504 0.12051907340583 0.820052762638824 O 0.0 **** 0.0
121 C79609 0.552135584625484 0.241194403795476 0.708080699349209 C 0.0 **** 0.0
122 C79610 0.561172352663833 0.254191058823438 0.701328900609654 C 0.0 **** 0.0
123 C79611 0.578282927212432 0.254787285922142 0.703390367948502 C 0.0 **** 0.0
124 C79612 0.586212185680548 0.242095271450385 0.712118440411804 C 0.0 **** 0.0
125 C79618 0.604835512646327 0.242521524694804 0.714032542226901 C 0.0 **** 0.0
126 C79619 0.613547821502537 0.255405302323989 0.706565487219113 C 0.0 **** 0.0
127 C79620 0.604242403458545 0.269078778833422 0.697900759046848 C 0.0 **** 0.0
128 C79621 0.587001765751211 0.268240362240992 0.696570495268114 C 0.0 **** 0.0
129 C79627 0.61307002975865 0.28242330782275 0.691371002271706 C 0.0 **** 0.0
130 C79628 0.630404042847539 0.282894278767168 0.691780273903887 C 0.0 **** 0.0
131 C79629 0.639614732833297 0.270107224730294 0.698930364895884 C 0.0 **** 0.0
132 C79630 0.630810306766161 0.255798836572216 0.707175963174244 C 0.0 **** 0.0
133 C79636 0.639947670994547 0.242888912389941 0.715194693189787 C 0.0 **** 0.0
134 C79637 0.631092395241927 0.229829775500526 0.723157621297019 C 0.0 **** 0.0
135 C79638 0.613398884427739 0.229625067909469 0.722648227098365 C 0.0 **** 0.0
136 C79643 0.657619788004104 0.242708368758107 0.7147328056585 C 0.0 **** 0.0
137 C79644 0.665847194457327 0.257809755770703 0.706123569131785 C 0.0 **** 0.0
138 C79645 0.656836031966384 0.270580948433272 0.698786266160701 C 0.0 **** 0.0
139 C79650 0.630115146424956 0.202094063455051 0.735811911358288 C 0.0 **** 0.0
140 C79651 0.639878078346493 0.216245963421635 0.730430804982516 C 0.0 **** 0.0
141 C79656 0.666375315344471 0.229453167241496 0.722310910084331 C 0.0 **** 0.0
142 C79657 0.657736324341278 0.216644344008505 0.730815436915256 C 0.0 **** 0.0
143 C79661 0.667612617852528 0.202650836768558 0.739654378937739 C 0.0 **** 0.0
144 C79662 0.683470483615966 0.210032658473264 0.748024651831499 C 0.0 **** 0.0
145 C79663 0.694298521863452 0.218138971149984 0.734532419950023 C 0.0 **** 0.0
146 C79664 0.685323156112138 0.22860137089444 0.721456023639766 C 0.0 **** 0.0
147 O79670 0.693822735495734 0.235038264637883 0.710426354972303 O 0.0 **** 0.0
148 H79672 0.262555693179772 0.217711372305728 0.896851819106163 H 0.0 **** 0.0
149 H79674 0.251384351256748 0.218270244267644 0.877471388932637 H 0.0 **** 0.0
150 H79676 0.254401271125999 0.188787226689457 0.891122558893426 H 0.0 **** 0.0
151 H79678 0.260838730428978 0.190054552740877 0.86978537742478 H 0.0 **** 0.0
152 H79680 0.283467304261387 0.189720943156617 0.900918320378481 H 0.0 **** 0.0
153 H79682 0.302222083541097 0.205088920037696 0.888457649414108 H 0.0 **** 0.0
154 H79684 0.281257776788979 0.205930872786072 0.856056979537971 H 0.0 **** 0.0
155 H79686 0.297684438892295 0.220058449829476 0.861422665659466 H 0.0 **** 0.0
156 H79688 0.30540317757241 0.186610464399627 0.855398803428795 H 0.0 **** 0.0
157 H79690 0.314774331696566 0.161699685147711 0.863914742864294 H 0.0 **** 0.0
158 H79692 0.30544365750595 0.167147027796402 0.900395194622945 H 0.0 **** 0.0
159 H79694 0.302639271322923 0.148894869531042 0.887960039866262 H 0.0 **** 0.0
160 H79696 0.274695422341127 0.161787596149096 0.893013286271558 H 0.0 **** 0.0
161 H79698 0.279730720616935 0.165141374469942 0.871437869043423 H 0.0 **** 0.0
162 H79700 0.354496254781558 0.17644078474569 0.882820180668535 H 0.0 **** 0.0
163 H79702 0.352526384823417 0.198612584789434 0.867168579199822 H 0.0 **** 0.0
164 H79704 0.323967398166598 0.211057274361825 0.861137201595096 H 0.0 **** 0.0
165 H79706 0.328272819231623 0.203305682826014 0.88146204847164 H 0.0 **** 0.0
166 H79708 0.340344757368138 0.152987380018822 0.855907678038216 H 0.0 **** 0.0
167 H79710 0.369808346762263 0.20864729459434 0.819413311585812 H 0.0 **** 0.0
168 H79712 0.369552528828466 0.195020301676026 0.801712146692011 H 0.0 **** 0.0
169 H79714 0.339782508834685 0.186899640257498 0.807044262607058 H 0.0 **** 0.0
170 H79716 0.341111754393814 0.209240165087349 0.807326785858117 H 0.0 **** 0.0
171 H79718 0.327470091298468 0.206478018836803 0.834236956369052 H 0.0 **** 0.0
172 H79720 0.359966702397993 0.12860495413869 0.851135101164145 H 0.0 **** 0.0
173 H79721 0.378231149869378 0.132783169261923 0.905869859454513 H 0.0 **** 0.0
174 H79723 0.357967079647162 0.124056771168003 0.909873837183851 H 0.0 **** 0.0
175 H79725 0.352129102314399 0.152261310375931 0.898058640247576 H 0.0 **** 0.0
176 H79727 0.383456054929662 0.100267278836289 0.908361091181408 H 0.0 **** 0.0
177 H79729 0.361760520942101 0.0952049713783832 0.906483268263408 H 0.0 **** 0.0
178 H79731 0.369517057392137 0.071210523797969 0.892820611241388 H 0.0 **** 0.0
179 H79733 0.390886516577308 0.077728692188777 0.892025088884349 H 0.0 **** 0.0
180 H79735 0.36194938978796 0.106999406965981 0.838342793798235 H 0.0 **** 0.0
181 H79737 0.383924586852693 0.10325023012894 0.837517856370001 H 0.0 **** 0.0
182 H79739 0.35631448730813 0.076379662918766 0.840810304612836 H 0.0 **** 0.0
183 H79741 0.39486377194242 0.0739929903169652 0.839288667965307 H 0.0 **** 0.0
184 H79743 0.381588432575948 0.0562464578936629 0.836592676297048 H 0.0 **** 0.0
185 H79745 0.391565478742817 0.06126688247848 0.867102674129204 H 0.0 **** 0.0
186 H79747 0.369534641441125 0.0586259719382905 0.864176355454908 H 0.0 **** 0.0
187 H79749 0.401878504434868 0.118315093825769 0.858001298305754 H 0.0 **** 0.0
188 H79751 0.461589198371118 0.121995455636432 0.828532733783405 H 0.0 **** 0.0
189 H79753 0.488821794446363 0.126657203573703 0.817105638087625 H 0.0 **** 0.0
190 H79755 0.415811898260046 0.189176084459707 0.788790396296036 H 0.0 **** 0.0
191 H79757 0.521734867811415 0.119546255769562 0.765068430066506 H 0.0 **** 0.0
192 H79759 0.512014948817547 0.107820532817693 0.789245693399195 H 0.0 **** 0.0
193 H79761 0.535508236592395 0.131796458838845 0.807721598041471 H 0.0 **** 0.0
194 H79763 0.547693813534329 0.101529210612645 0.802109348098281 H 0.0 **** 0.0
195 H79765 0.52881643641336 0.0914851440621357 0.808375579008328 H 0.0 **** 0.0
196 H79767 0.524360255598198 0.0823180798665159 0.777871147955853 H 0.0 **** 0.0
197 H79769 0.542245476561439 0.0728917387129403 0.787300451307869 H 0.0 **** 0.0
198 H79771 0.561525482653366 0.0892700143600348 0.772937632929346 H 0.0 **** 0.0
199 H79773 0.557974091757684 0.116834759433788 0.776182611674427 H 0.0 **** 0.0
200 H79775 0.540604443684227 0.11755228341605 0.741705548505558 H 0.0 **** 0.0
201 H79777 0.555932809856372 0.131582636688533 0.749671554044613 H 0.0 **** 0.0
202 H79779 0.576715741374606 0.107135027830508 0.750700943791173 H 0.0 **** 0.0
203 H79781 0.57026951789325 0.110992617669101 0.72983758725222 H 0.0 **** 0.0
204 H79783 0.5700157287478 0.0793314614805673 0.742985175834678 H 0.0 **** 0.0
205 H79785 0.554769672998257 0.0853283119401291 0.728000946547318 H 0.0 **** 0.0
206 H79787 0.534611232168063 0.0870924937433237 0.748277697430559 H 0.0 **** 0.0
207 H79789 0.448562799298738 0.238560211856337 0.786838928843728 H 0.0 **** 0.0
208 H79791 0.41846436118342 0.232880389277062 0.787063634685112 H 0.0 **** 0.0
209 H79793 0.421292235628611 0.208775173147706 0.757728533072821 H 0.0 **** 0.0
210 H79795 0.403308600598899 0.21912654345246 0.765673439156286 H 0.0 **** 0.0
211 H79797 0.407280837694448 0.234042279704625 0.739942330127529 H 0.0 **** 0.0
212 H79799 0.429390148944772 0.231458594546184 0.74033044478244 H 0.0 **** 0.0
213 H79801 0.409838831906627 0.255209309967127 0.763817135173537 H 0.0 **** 0.0
214 H79803 0.421151019182902 0.261872596675273 0.745762204462596 H 0.0 **** 0.0
215 H79805 0.435947868353504 0.263450550003818 0.775880279308211 H 0.0 **** 0.0
216 H79807 0.447870348522585 0.256795496210629 0.758297191982638 H 0.0 **** 0.0
217 H79809 0.476948077327064 0.222298072018397 0.745860378169482 H 0.0 **** 0.0
218 H79811 0.502694797986398 0.223194061963047 0.728821255201912 H 0.0 **** 0.0
219 H79813 0.550976142326053 0.161066724416617 0.772717157861346 H 0.0 **** 0.0
220 H79815 0.577543308937551 0.177929524795355 0.769990875559311 H 0.0 **** 0.0
221 H79817 0.589414599590665 0.200406824183927 0.759001691260025 H 0.0 **** 0.0
222 H79819 0.598399039643078 0.179983329744977 0.727500819421574 H 0.0 **** 0.0
223 H79821 0.613778141289107 0.178920195007371 0.762913225523738 H 0.0 **** 0.0
224 H79823 0.62270675864671 0.168939697100031 0.745024398605496 H 0.0 **** 0.0
225 H79825 0.600593936702474 0.153137714574787 0.766841682201431 H 0.0 **** 0.0
226 H79827 0.603870773756063 0.146645667158832 0.745832674600073 H 0.0 **** 0.0
227 H79829 0.573027511809028 0.150139363634767 0.755342699447757 H 0.0 **** 0.0
228 H79831 0.578325764816509 0.159846100193113 0.735930590233454 H 0.0 **** 0.0
229 H79833 0.355494488389959 0.0890955948261806 0.81345270745412 H 0.0 **** 0.0
230 H79835 0.379365982568325 0.0874933251072361 0.792872206780575 H 0.0 **** 0.0
231 H79837 0.393230713454047 0.0811857518044156 0.809449156736032 H 0.0 **** 0.0
232 H79839 0.383813790923479 0.101581868058547 0.809699383368177 H 0.0 **** 0.0
233 H79841 0.351552238525655 0.0574125220219268 0.816047546127107 H 0.0 **** 0.0
234 H79843 0.373086091069713 0.0546152695881 0.810391826138489 H 0.0 **** 0.0
235 H79845 0.358811045238188 0.0638869096640323 0.795790196172102 H 0.0 **** 0.0
236 H79847 0.515133414620564 0.130036082085152 0.827373770235865 H 0.0 **** 0.0
237 H79849 0.538465332813194 0.241111376515946 0.706237884974695 H 0.0 **** 0.0
238 H79851 0.554478178010627 0.263997980596859 0.694302121048301 H 0.0 **** 0.0
239 H79853 0.580194715772146 0.27826974831729 0.68994150232898 H 0.0 **** 0.0
240 H79855 0.606360050346487 0.292915463427231 0.6855171323676 H 0.0 **** 0.0
241 H79857 0.636747875566488 0.293742172769685 0.686109351245331 H 0.0 **** 0.0
242 H79859 0.679537415572292 0.258830673405046 0.705853873254395 H 0.0 **** 0.0
243 H79861 0.663673382113929 0.281015546062366 0.692901401906629 H 0.0 **** 0.0
244 H79863 0.636600409082373 0.190801639893925 0.740507962477124 H 0.0 **** 0.0
245 H79865 0.659943254881229 0.196442496416916 0.749430164607719 H 0.0 **** 0.0
246 H79867 0.671299735075692 0.192752494097521 0.730528792086547 H 0.0 **** 0.0
247 H79869 0.690827361175793 0.200192033352511 0.754562265339387 H 0.0 **** 0.0
248 H79871 0.679705435278783 0.219398509918131 0.757641327704673 H 0.0 **** 0.0
249 H79873 0.700736928020603 0.208653628896578 0.726648365908729 H 0.0 **** 0.0
250 H79875 0.704228525017251 0.226703739587964 0.739165472755572 H 0.0 **** 0.0
@<TRIPOS>BOND
1 3 2 1
2 4 3 1
3 5 4 1
4 6 5 1
5 1 2 1
6 1 6 1
7 8 7 1
8 9 8 1
9 10 9 1
10 4 7 1
11 3 10 1
12 12 11 1
13 13 12 1
14 14 13 1
15 8 11 1
16 7 14 1
17 16 15 1
18 17 16 Partial double
19 18 17 1
20 13 15 1
21 12 18 1
22 20 19 Partial double
23 21 20 Partial double
24 22 21 Partial double
25 17 19 Partial double
26 16 22 Partial double
27 24 23 1
28 25 24 1
29 15 25 Double
30 22 23 1
31 27 26 1
32 28 27 Partial double
33 29 28 Partial double
34 21 26 1
35 20 29 Partial double
36 31 30 1
37 32 31 1
38 18 30 1
39 19 32 1
40 34 33 Double
41 35 34 1
42 36 35 1
43 31 33 1
44 30 36 Double
45 38 37 1
46 39 38 1
47 40 39 Double
48 34 37 1
49 33 40 1
50 42 41 1
51 43 42 1
52 44 43 1
53 40 41 1
54 39 44 1
55 46 45 Partial double
56 32 46 1
57 29 45 Partial double
58 48 47 Partial double
59 49 48 1
60 45 49 Partial double
61 28 47 Partial double
62 51 50 Partial double
63 52 51 Partial double
64 53 52 Partial double
65 48 50 Partial double
66 47 53 Partial double
67 55 54 Partial double
68 56 55 Partial double
69 57 56 Partial double
70 52 54 Partial double
71 51 57 Partial double
72 59 58 Partial double
73 60 59 Partial double
74 61 60 Partial double
75 56 58 Partial double
76 55 61 Partial double
77 63 62 Partial double
78 27 63 Partial double
79 53 62 Partial double
80 65 64 Partial double
81 62 65 Partial double
82 54 64 Partial double
83 67 66 Partial double
84 64 67 Partial double
85 61 66 Partial double
86 69 68 Partial double
87 70 69 Partial double
88 66 70 Partial double
89 60 68 Partial double
90 72 71 1
91 73 72 1
92 74 73 1
93 59 71 1
94 58 74 1
95 76 75 1
96 77 76 1
97 78 77 1
98 73 75 1
99 72 78 1
100 80 79 1
101 81 80 1
102 82 81 1
103 78 79 1
104 77 82 1
105 84 83 Partial double
106 85 84 Partial double
107 67 85 Partial double
108 65 83 Partial double
109 87 86 1
110 88 87 1
111 89 88 1
112 84 86 1
113 83 89 1
114 91 90 1
115 92 91 1
116 93 92 1
117 88 90 1
118 87 93 1
119 95 94 Partial double
120 85 95 Partial double
121 70 94 Partial double
122 97 96 Partial double
123 98 97 Partial double
124 94 98 Partial double
125 69 96 Partial double
126 100 99 Partial double
127 101 100 Partial double
128 68 101 Partial double
129 96 99 Partial double
130 103 102 1
131 104 103 Partial double
132 97 102 1
133 99 104 1
134 106 105 1
135 107 106 1
136 100 105 1
137 104 107 Partial double
138 109 108 1
139 110 109 1
140 111 110 1
141 106 108 1
142 105 111 1
143 113 112 1
144 114 113 1
145 103 114 Partial double
146 107 112 Partial double
147 108 115 1
148 112 116 Partial double
149 115 116 Partial double
150 42 117 1
151 117 118 1
152 117 119 1
153 74 120 1
154 122 121 1
155 123 122 Partial double
156 124 123 1
157 114 121 Partial double
158 113 124 Partial double
159 126 125 Partial double
160 127 126 1
161 128 127 Partial double
162 124 125 Partial double
163 123 128 Partial double
164 130 129 Partial double
165 131 130 1
166 132 131 1
167 127 129 Partial double
168 126 132 Partial double
169 134 133 Partial double
170 135 134 Partial double
171 125 135 Partial double
172 132 133 Partial double
173 137 136 Partial double
174 138 137 Partial double
175 131 138 Partial double
176 133 136 Partial double
177 140 139 Partial double
178 134 140 Partial double
179 116 135 Partial double
180 115 139 Partial double
181 142 141 Partial double
182 140 142 Partial double
183 136 141 Partial double
184 144 143 1
185 145 144 1
186 146 145 1
187 142 143 1
188 141 146 1
189 146 147 Double
190 1 148 1
191 1 149 1
192 2 150 1
193 2 151 1
194 3 152 1
195 4 153 1
196 5 154 1
197 5 155 1
198 7 156 1
199 8 157 1
200 9 158 1
201 9 159 1
202 10 160 1
203 10 161 1
204 12 162 1
205 13 163 1
206 14 164 1
207 14 165 1
208 18 166 1
209 23 167 1
210 23 168 1
211 24 169 1
212 24 170 1
213 25 171 1
214 35 173 1
215 35 174 1
216 36 175 1
217 37 176 1
218 37 177 1
219 38 178 1
220 38 179 1
221 41 180 1
222 41 181 1
223 42 182 1
224 43 183 1
225 43 184 1
226 44 185 1
227 44 186 1
228 46 187 1
229 50 188 1
230 57 189 1
231 63 190 1
232 72 191 1
233 73 192 1
234 74 193 1
235 75 194 1
236 75 195 1
237 76 196 1
238 76 197 1
239 77 198 1
240 78 199 1
241 79 200 1
242 79 201 1
243 80 202 1
244 80 203 1
245 81 204 1
246 81 205 1
247 82 206 1
248 87 207 1
249 88 208 1
250 90 209 1
251 90 210 1
252 91 211 1
253 91 212 1
254 92 213 1
255 92 214 1
256 93 215 1
257 93 216 1
258 95 217 1
259 98 218 1
260 101 219 1
261 105 220 1
262 106 221 1
263 108 222 1
264 109 223 1
265 109 224 1
266 110 225 1
267 110 226 1
268 111 227 1
269 111 228 1
270 117 229 1
271 118 230 1
272 118 231 1
273 118 232 1
274 119 233 1
275 119 234 1
276 119 235 1
277 120 236 1
278 121 237 1
279 122 238 1
280 128 239 1
281 129 240 1
282 130 241 1
283 137 242 1
284 138 243 1
285 139 244 1
286 143 245 1
287 143 246 1
288 144 247 1
289 144 248 1
290 145 249 1
291 145 250 1
292 31 172 1
@<TRIPOS>MOLECULE
Sketch 4
250 292
SMALL
USER_CHARGES


@<TRIPOS>ATOM
1 C79878 0.592450406551981 0.697736137002282 0.537553669335688 C 0.0 **** 0.0
2 C79879 0.598868518259104 0.714134958120114 0.528846514977076 C 0.0 **** 0.0
3 C79880 0.616140746105167 0.719936168156783 0.535821639688264 C 0.0 **** 0.0
4 C79881 0.615817718207442 0.72115202593335 0.555561907544617 C 0.0 **** 0.0
5 C79882 0.602137715699161 0.709159811472421 0.56282791183518 C 0.0 **** 0.0
6 O79883 0.600904228717308 0.694161449702828 0.553016325974824 O 0.0 **** 0.0
7 C79890 0.614493449598066 0.739702156224488 0.561615067523305 C 0.0 **** 0.0
8 C79891 0.630175627605614 0.749914957804111 0.555794071889124 C 0.0 **** 0.0
9 C79892 0.635488508897194 0.746018475018188 0.537449202814168 C 0.0 **** 0.0
10 C79893 0.622176958150284 0.736357776191979 0.527196362741849 C 0.0 **** 0.0
11 O79899 0.64473442616047 0.74557997111602 0.565506608688148 O 0.0 **** 0.0
12 C79900 0.643158620544712 0.748354981328781 0.583287743544159 C 0.0 **** 0.0
13 C79901 0.628618164365834 0.737551127542075 0.59008917388259 C 0.0 **** 0.0
14 C79902 0.612152187085797 0.7417952763873 0.580909751623532 C 0.0 **** 0.0
15 C79908 0.627886262498086 0.738608276030498 0.609148331082814 C 0.0 **** 0.0
16 C79909 0.633965712592281 0.754712738810146 0.617459734971848 C 0.0 **** 0.0
17 C79910 0.640835369497034 0.767824188892639 0.607914062517481 C 0.0 **** 0.0
18 C79911 0.641870593618601 0.766972907214079 0.588689591720825 C 0.0 **** 0.0
19 C79917 0.646927679305533 0.782076654280272 0.616195055493626 C 0.0 **** 0.0
20 C79918 0.647452896770759 0.782346118373389 0.633731539153735 C 0.0 **** 0.0
21 C79919 0.640083640571421 0.769526947989082 0.643166849371891 C 0.0 **** 0.0
22 C79920 0.632808191670347 0.755856920313451 0.634940740347869 C 0.0 **** 0.0
23 C79926 0.623615816555166 0.742500331001103 0.645187632091673 C 0.0 **** 0.0
24 C79927 0.625686751575188 0.724653082456568 0.637483441602015 C 0.0 **** 0.0
25 C79928 0.624310774205076 0.724780462065981 0.61848782866076 C 0.0 **** 0.0
26 O79933 0.63975718466438 0.769925084939595 0.660706234259969 O 0.0 **** 0.0
27 C79934 0.647652042609852 0.782888546977297 0.669292360072603 C 0.0 **** 0.0
28 C79935 0.656253706698199 0.79594561118156 0.661344378186503 C 0.0 **** 0.0
29 C79936 0.656910341924275 0.796289880452197 0.642378696397352 C 0.0 **** 0.0
30 C79942 0.656660222110667 0.777672817813986 0.582872366925888 C 0.0 **** 0.0
31 C79943 0.654281757700972 0.79628625067143 0.587137580319473 C 0.0 **** 0.0
32 C79944 0.653252084492873 0.797514009757463 0.606744686153871 C 0.0 **** 0.0
33 C79949 0.667294616020881 0.808653136056508 0.578889770933885 C 0.0 **** 0.0
34 C79950 0.681335930677919 0.801811859726526 0.571512096344909 C 0.0 **** 0.0
35 C79951 0.684956345483477 0.783069119095225 0.570051097422868 C 0.0 **** 0.0
36 C79952 0.670698370158559 0.771746265387965 0.575459111824251 C 0.0 **** 0.0
37 C79958 0.694639272662467 0.811780497301925 0.56238285556421 C 0.0 **** 0.0
38 C79959 0.69342232289957 0.830940783034755 0.565114358395561 C 0.0 **** 0.0
39 C79960 0.676811609772516 0.836539468840075 0.572363065188739 C 0.0 **** 0.0
40 C79961 0.664783435849277 0.825820785648425 0.578677521046423 C 0.0 **** 0.0
41 C79967 0.648513323510501 0.833862930843251 0.585884923083279 C 0.0 **** 0.0
42 C79968 0.645400071795464 0.851894631128018 0.579788840448599 C 0.0 **** 0.0
43 C79969 0.661398748955495 0.862455085963941 0.582975160635055 C 0.0 **** 0.0
44 C79970 0.675925332952761 0.855621951717874 0.572383893378866 C 0.0 **** 0.0
45 C79976 0.666223172281368 0.807723602334965 0.633519469241162 C 0.0 **** 0.0
46 C79977 0.666004870606548 0.808231341157281 0.616321608642661 C 0.0 **** 0.0
47 C79981 0.663249526442246 0.809118128053863 0.671264696732472 C 0.0 **** 0.0
48 C79982 0.672018784081779 0.822928395677253 0.664184784622037 C 0.0 **** 0.0
49 S79983 0.67981708111539 0.821642239573734 0.643803059433824 S 0.0 **** 0.0
50 C79988 0.675073414770152 0.837376585668446 0.673219040461539 C 0.0 **** 0.0
51 C79989 0.67088962698678 0.838032277386184 0.690591540296392 C 0.0 **** 0.0
52 C79990 0.664376060886168 0.823452566925809 0.698648112334397 C 0.0 **** 0.0
53 C79991 0.660604623941362 0.809246272071111 0.688883335456032 C 0.0 **** 0.0
54 C79997 0.66367004028089 0.822869235493048 0.716316178001457 C 0.0 **** 0.0
55 C79998 0.668715200929739 0.836858597128393 0.726040571651052 C 0.0 **** 0.0
56 C79999 0.674071303804285 0.852011590846689 0.718094769780126 C 0.0 **** 0.0
57 C80000 0.675019010413898 0.852189488403054 0.700358390271747 C 0.0 **** 0.0
58 C80006 0.680610361063461 0.86547567867867 0.727659541560841 C 0.0 **** 0.0
59 C80007 0.6845645290171 0.862516736658213 0.74444759305329 C 0.0 **** 0.0
60 C80008 0.67809440848105 0.848238346870068 0.752972860452122 C 0.0 **** 0.0
61 C80009 0.670425002508742 0.835334042573986 0.743491621074733 C 0.0 **** 0.0
62 C80015 0.654735382155038 0.794599492139922 0.696876276906164 C 0.0 **** 0.0
63 C80016 0.646948248097876 0.782291339753235 0.686673290851258 C 0.0 **** 0.0
64 C80020 0.660241241873211 0.807423624129892 0.724214654458038 C 0.0 **** 0.0
65 C80021 0.657311059292155 0.792863620835633 0.714509563822189 C 0.0 **** 0.0
66 C80025 0.666355115671322 0.820055590261604 0.751353586009748 C 0.0 **** 0.0
67 C80026 0.661718159285483 0.80606526353908 0.741587069565079 C 0.0 **** 0.0
68 C80030 0.678675957096896 0.846895776851812 0.770977900315551 C 0.0 **** 0.0
69 C80031 0.673853988214873 0.831620607340897 0.778646105568433 C 0.0 **** 0.0
70 C80032 0.668453698078091 0.818230212430168 0.768785297081017 C 0.0 **** 0.0
71 O80037 0.695029709246313 0.873831813529418 0.752898760284275 O 0.0 **** 0.0
72 C80038 0.690569972276431 0.89123264388303 0.751701532328249 C 0.0 **** 0.0
73 C80039 0.681820123985142 0.895583681818089 0.734757670296408 C 0.0 **** 0.0
74 C80040 0.685732406909928 0.882809374188282 0.720701318280211 C 0.0 **** 0.0
75 C80046 0.684839437034197 0.91418529599396 0.729749080825098 C 0.0 **** 0.0
76 C80047 0.685325995086315 0.92521440580993 0.745624847163304 C 0.0 **** 0.0
77 C80048 0.701489558281502 0.921577271931832 0.755677883505074 C 0.0 **** 0.0
78 C80049 0.706285880276497 0.902435204783581 0.755046305366709 C 0.0 **** 0.0
79 C80055 0.716764543168895 0.89709633328936 0.770641569668072 C 0.0 **** 0.0
80 C80056 0.727822950436936 0.912107640906201 0.77597327128999 C 0.0 **** 0.0
81 C80057 0.717201800579285 0.927838340128803 0.78100177757148 C 0.0 **** 0.0
82 N80058 0.700626358047445 0.928515107554773 0.772661260441004 N 0.0 **** 0.0
83 C80064 0.6585994031747 0.776531206635757 0.721821047463188 C 0.0 **** 0.0
84 C80065 0.660020173256535 0.775085656442418 0.739177035300454 C 0.0 **** 0.0
85 C80066 0.660503708555875 0.789970507363348 0.749079837668097 C 0.0 **** 0.0
86 O80071 0.660955444963278 0.759558558052631 0.74728827687105 O 0.0 **** 0.0
87 C80072 0.667663824048582 0.746989967672401 0.736192324209926 C 0.0 **** 0.0
88 C80073 0.657439100329744 0.746570576737502 0.720227805388958 C 0.0 **** 0.0
89 O80074 0.65840939104514 0.762335983819945 0.711485670055869 O 0.0 **** 0.0
90 C80080 0.638771449431081 0.741550168770808 0.72341447362323 C 0.0 **** 0.0
91 C80081 0.636242649420403 0.730745744952998 0.739472183864759 C 0.0 **** 0.0
92 C80082 0.651581232878603 0.719388880145209 0.742867023903562 C 0.0 **** 0.0
93 C80083 0.668033683320454 0.729763952361699 0.745242694082351 C 0.0 **** 0.0
94 C80089 0.665389448756735 0.802466497644048 0.776720683907213 C 0.0 **** 0.0
95 C80090 0.661568034911193 0.788374611990478 0.766645379887957 C 0.0 **** 0.0
96 C80094 0.674544478630739 0.830064722172736 0.796323903217591 C 0.0 **** 0.0
97 C80095 0.670220938233319 0.814716505584916 0.804349924417121 C 0.0 **** 0.0
98 C80096 0.666159696830736 0.801103132339002 0.794508033192942 C 0.0 **** 0.0
99 C80101 0.679966391578198 0.843544268212984 0.806527929987625 C 0.0 **** 0.0
100 C80102 0.684184381291705 0.858812924242204 0.79928404007818 C 0.0 **** 0.0
101 C80103 0.683157812338542 0.860171428627653 0.782003213906608 C 0.0 **** 0.0
102 O80108 0.669820022021362 0.812935052098781 0.821698677868546 O 0.0 **** 0.0
103 C80109 0.676975136588615 0.825335315041035 0.831634735516557 C 0.0 **** 0.0
104 C80110 0.681634399036401 0.840634966493346 0.82508169629668 C 0.0 **** 0.0
105 C80115 0.690622975079086 0.873978089264104 0.809108788517303 C 0.0 **** 0.0
106 C80116 0.69507899053364 0.869675864419239 0.828216958335268 C 0.0 **** 0.0
107 C80117 0.688489496469665 0.852876337901766 0.835132037399916 C 0.0 **** 0.0
108 C80122 0.690309125032921 0.884389812821082 0.840158859048515 C 0.0 **** 0.0
109 C80123 0.695788938600753 0.90148777898052 0.832645979087441 C 0.0 **** 0.0
110 C80124 0.687073832557166 0.904979222495335 0.815405058251213 C 0.0 **** 0.0
111 C80125 0.678612786397037 0.889165931677003 0.807871210670882 C 0.0 **** 0.0
112 C80131 0.690200314494486 0.849894855173439 0.852017189823227 C 0.0 **** 0.0
113 C80132 0.68646539970785 0.834228888984297 0.858484656148415 C 0.0 **** 0.0
114 C80133 0.679627760340832 0.822045144651198 0.848389023463949 C 0.0 **** 0.0
115 C80138 0.697777279564826 0.880455638423294 0.857531528980334 C 0.0 **** 0.0
116 C80140 0.697083586828289 0.863809383182005 0.863061349390949 C 0.0 **** 0.0
117 C80143 0.629134464522347 0.859702865554562 0.587326689797334 C 0.0 **** 0.0
118 C80145 0.629739268916301 0.862578506984084 0.606488559658055 C 0.0 **** 0.0
119 C80147 0.624445800182729 0.876327907043307 0.578522533587317 C 0.0 **** 0.0
120 O80149 0.676027482620685 0.887544709188847 0.70632506303833 O 0.0 **** 0.0
121 C80151 0.675657624711563 0.806556513106685 0.85503539037371 C 0.0 **** 0.0
122 C80152 0.679209633725547 0.802960571755252 0.871500758861624 C 0.0 **** 0.0
123 C80153 0.686720902843244 0.814828055942692 0.881530572277095 C 0.0 **** 0.0
124 C80154 0.689968956434596 0.830538602433625 0.874998870502517 C 0.0 **** 0.0
125 C80160 0.698245789507758 0.84341016786717 0.885792436621682 C 0.0 **** 0.0
126 C80161 0.702872003250877 0.839023676720479 0.901822206037896 C 0.0 **** 0.0
127 C80162 0.699333820709038 0.821762891266312 0.90807921029373 C 0.0 **** 0.0
128 C80163 0.6910981650187 0.810452833159668 0.897842000039405 C 0.0 **** 0.0
129 C80169 0.704609211548414 0.817334467129619 0.923947624654628 C 0.0 **** 0.0
130 C80170 0.713195447295356 0.828556221554052 0.934033800335934 C 0.0 **** 0.0
131 C80171 0.716568884481248 0.844743223173989 0.928850192875582 C 0.0 **** 0.0
132 C80172 0.71099574340181 0.850443820295621 0.911952041163658 C 0.0 **** 0.0
133 C80178 0.714102876110134 0.867043962124517 0.906463518542731 C 0.0 **** 0.0
134 C80179 0.708920931675456 0.87172375158076 0.890262703372222 C 0.0 **** 0.0
135 C80180 0.701623835183159 0.859645902161905 0.879591087755905 C 0.0 **** 0.0
136 C80185 0.722093608112457 0.878821911005412 0.916944030909493 C 0.0 **** 0.0
137 C80186 0.728114199383535 0.871870097616928 0.933849032776548 C 0.0 **** 0.0
138 C80187 0.725190527333759 0.855647577717844 0.939026962505146 C 0.0 **** 0.0
139 C80192 0.704348877705276 0.89243258465946 0.868389658654202 C 0.0 **** 0.0
140 C80193 0.710811951565108 0.88846376022644 0.884696240367648 C 0.0 **** 0.0
141 C80198 0.724163909004591 0.895455542606453 0.911408895623833 C 0.0 **** 0.0
142 C80199 0.718738449554585 0.900378800719301 0.895361767866727 C 0.0 **** 0.0
143 C80203 0.720984975064251 0.918653569545595 0.889589608061744 C 0.0 **** 0.0
144 C80204 0.738124234379671 0.925489495553481 0.895371976430873 C 0.0 **** 0.0
145 C80205 0.738963014060643 0.924372536839938 0.914397658679713 C 0.0 **** 0.0
146 C80206 0.732340424358002 0.9084996833722 0.922502997169585 C 0.0 **** 0.0
147 O80212 0.733683628492301 0.907456043159446 0.937755667854765 O 0.0 **** 0.0
148 H80214 0.594730853234695 0.686711587570043 0.529433039092964 H 0.0 **** 0.0
149 H80216 0.578656458096003 0.698398113044449 0.539607972206096 H 0.0 **** 0.0
150 H80218 0.59958399406711 0.71243214595597 0.515028346116898 H 0.0 **** 0.0
151 H80220 0.589723684947542 0.724473830467506 0.530884814567936 H 0.0 **** 0.0
152 H80222 0.625267617803881 0.709890340965187 0.532601664337798 H 0.0 **** 0.0
153 H80224 0.628145257023132 0.716329907927112 0.559959723802805 H 0.0 **** 0.0
154 H80226 0.589761953654625 0.715573363565778 0.563636588940158 H 0.0 **** 0.0
155 H80228 0.605451841688001 0.705169734873394 0.575725890967372 H 0.0 **** 0.0
156 H80230 0.603328118571268 0.74511011403974 0.555275987601925 H 0.0 **** 0.0
157 H80232 0.627398170192647 0.76351696176129 0.557167833641023 H 0.0 **** 0.0
158 H80234 0.646999430430744 0.738270595566796 0.538217750472735 H 0.0 **** 0.0
159 H80236 0.639152832063806 0.757537245876729 0.530524437509121 H 0.0 **** 0.0
160 H80238 0.627176519623817 0.733375595496272 0.514564250553951 H 0.0 **** 0.0
161 H80240 0.611335710315315 0.744825142401699 0.525153861065198 H 0.0 **** 0.0
162 H80242 0.654995540909682 0.743249738247646 0.588472081733853 H 0.0 **** 0.0
163 H80244 0.631777035544209 0.724332789253688 0.58697665318015 H 0.0 **** 0.0
164 H80246 0.60850608597034 0.754979008515436 0.583599435629999 H 0.0 **** 0.0
165 H80248 0.601590357584323 0.733982556828643 0.585546999360321 H 0.0 **** 0.0
166 H80250 0.630257331506209 0.772520259546203 0.583225052078664 H 0.0 **** 0.0
167 H80252 0.628109937638339 0.742296701512248 0.658347873322121 H 0.0 **** 0.0
168 H80254 0.61004988745444 0.745731129930763 0.645710415408325 H 0.0 **** 0.0
169 H80256 0.61614296377926 0.71601994522624 0.642887304402866 H 0.0 **** 0.0
170 H80258 0.638120136816377 0.719484435454371 0.641028427330031 H 0.0 **** 0.0
171 H80260 0.621349905607115 0.712615536843149 0.612710102833898 H 0.0 **** 0.0
172 H80262 0.641740094148105 0.799686317990894 0.58203539898295 H 0.0 **** 0.0
173 H80263 0.696453920021796 0.779951529997537 0.577332998781269 H 0.0 **** 0.0
174 H80265 0.687655828639742 0.780185212845486 0.556660764007407 H 0.0 **** 0.0
175 H80267 0.67228810545295 0.758315647008208 0.572819083931067 H 0.0 **** 0.0
176 H80269 0.707292602263927 0.807350221560373 0.566298993935245 H 0.0 **** 0.0
177 H80271 0.693542196550572 0.808945208944707 0.548775385298721 H 0.0 **** 0.0
178 H80273 0.695734630284268 0.837503995230927 0.553009047791761 H 0.0 **** 0.0
179 H80275 0.703545658582262 0.835021296989608 0.573813646405182 H 0.0 **** 0.0
180 H80277 0.637481814171874 0.82601435929279 0.582633347879554 H 0.0 **** 0.0
181 H80279 0.649408192146442 0.833820453424734 0.599775021090918 H 0.0 **** 0.0
182 H80281 0.643420488868317 0.851410256690288 0.565957983122058 H 0.0 **** 0.0
183 H80283 0.664676377271515 0.861879749585143 0.596511029783543 H 0.0 **** 0.0
184 H80285 0.659476611826474 0.875909074698446 0.579928373839025 H 0.0 **** 0.0
185 H80287 0.688060203037974 0.860833339961187 0.576939827032158 H 0.0 **** 0.0
186 H80289 0.674455888222003 0.859949495192238 0.559195103475936 H 0.0 **** 0.0
187 H80291 0.674335415724176 0.816654511166397 0.60933962858372 H 0.0 **** 0.0
188 H80293 0.681418393540601 0.848265122581074 0.667505428196625 H 0.0 **** 0.0
189 H80295 0.680687880767993 0.862911646969077 0.693649392832161 H 0.0 **** 0.0
190 H80297 0.640461324015841 0.771360948590693 0.692244380577574 H 0.0 **** 0.0
191 H80299 0.681427102144337 0.893880710226948 0.761897292600037 H 0.0 **** 0.0
192 H80301 0.667996357856626 0.894499410823709 0.736736243549016 H 0.0 **** 0.0
193 H80303 0.699353630931378 0.882727541642071 0.71748705025784 H 0.0 **** 0.0
194 H80305 0.696813392364354 0.915680058190726 0.722853581372416 H 0.0 **** 0.0
195 H80307 0.674847944022803 0.918249749613995 0.721035822368228 H 0.0 **** 0.0
196 H80309 0.674146596308064 0.922496741073132 0.753483325459935 H 0.0 **** 0.0
197 H80311 0.684749811638331 0.938766733103639 0.742639009341357 H 0.0 **** 0.0
198 H80313 0.711724821536692 0.928547359332036 0.749308608446997 H 0.0 **** 0.0
199 H80315 0.714541815261953 0.900672650005975 0.743932185422986 H 0.0 **** 0.0
200 H80317 0.708334104059983 0.893704155064977 0.781176528887041 H 0.0 **** 0.0
201 H80319 0.724371123798553 0.885802250077276 0.767746595748211 H 0.0 **** 0.0
202 H80321 0.736006880397179 0.915332974596481 0.765125460305746 H 0.0 **** 0.0
203 H80323 0.736457074323502 0.908932386313239 0.78637094477153 H 0.0 **** 0.0
204 H80325 0.724189008254507 0.93943872813346 0.777674804090312 H 0.0 **** 0.0
205 H80327 0.715435192154141 0.928343709663298 0.794802193112204 H 0.0 **** 0.0
206 H80329 0.692048782941984 0.922046795151133 0.779368200678474 H 0.0 **** 0.0
207 H80331 0.680702574424369 0.750765823926612 0.732997263689554 H 0.0 **** 0.0
208 H80333 0.663186462062163 0.736978005380516 0.711900214359553 H 0.0 **** 0.0
209 H80335 0.631218997709347 0.753199204868278 0.724420419490719 H 0.0 **** 0.0
210 H80337 0.633786272167999 0.73475866700246 0.712308969030141 H 0.0 **** 0.0
211 H80339 0.624622764800353 0.7231446263166 0.738390127008785 H 0.0 **** 0.0
212 H80341 0.634354162178793 0.739176392873259 0.750410001826365 H 0.0 **** 0.0
213 H80343 0.653087241434868 0.710733097028706 0.732035850080799 H 0.0 **** 0.0
214 H80345 0.649345941172713 0.711355109384601 0.754009601834316 H 0.0 **** 0.0
215 H80347 0.678919254682496 0.722154118822356 0.741054878136717 H 0.0 **** 0.0
216 H80349 0.670137330514485 0.732305861860413 0.758761165335619 H 0.0 **** 0.0
217 H80351 0.660110707296999 0.775917417030046 0.772554768539199 H 0.0 **** 0.0
218 H80353 0.663191874816543 0.789045910910851 0.800616121157506 H 0.0 **** 0.0
219 H80355 0.686204585593809 0.872754538905742 0.777375237026067 H 0.0 **** 0.0
220 H80357 0.702703090163198 0.877880125763954 0.803284455539775 H 0.0 **** 0.0
221 H80359 0.709015410746623 0.868603424952142 0.828517657123476 H 0.0 **** 0.0
222 H80361 0.676413000492579 0.884761785570127 0.841515175022019 H 0.0 **** 0.0
223 H80363 0.709621041672249 0.90137746296944 0.830953538457544 H 0.0 **** 0.0
224 H80365 0.692917278375058 0.911957999075024 0.841338259716234 H 0.0 **** 0.0
225 H80367 0.696535673240381 0.909718189545588 0.806369019817991 H 0.0 **** 0.0
226 H80369 0.677646700717648 0.915119998868438 0.816691970953322 H 0.0 **** 0.0
227 H80371 0.67488563449026 0.89176918549168 0.794699920770469 H 0.0 **** 0.0
228 H80373 0.666854317165242 0.886357781694856 0.814782210428885 H 0.0 **** 0.0
229 H80375 0.618754467652334 0.850680641113078 0.584822143888779 H 0.0 **** 0.0
230 H80377 0.617583661974694 0.867693254336213 0.610976707307749 H 0.0 **** 0.0
231 H80379 0.639662671938273 0.871703902984158 0.609906916061562 H 0.0 **** 0.0
232 H80381 0.632088118307055 0.850818339700621 0.613524177429475 H 0.0 **** 0.0
233 H80383 0.623064162396004 0.874654017590876 0.564788408816659 H 0.0 **** 0.0
234 H80385 0.634110172183116 0.886083826220389 0.580640841132382 H 0.0 **** 0.0
235 H80387 0.612396182030983 0.881288093793776 0.583387678633666 H 0.0 **** 0.0
236 H80389 0.68059265005275 0.898086383892108 0.702781349204535 H 0.0 **** 0.0
237 H80391 0.669959377498395 0.796674064750537 0.847269573535082 H 0.0 **** 0.0
238 H80393 0.676262676544525 0.790362742730603 0.876305100572975 H 0.0 **** 0.0
239 H80395 0.688423062190869 0.797734723575469 0.902531475040565 H 0.0 **** 0.0
240 H80397 0.702190966650313 0.804680777843751 0.928894793090417 H 0.0 **** 0.0
241 H80399 0.717221381641185 0.824250632524033 0.946511519620821 H 0.0 **** 0.0
242 H80401 0.735130971161875 0.879947225251479 0.942434706726979 H 0.0 **** 0.0
243 H80403 0.729774058712722 0.851728192327981 0.951427675043625 H 0.0 **** 0.0
244 H80405 0.704675770938872 0.905488050857744 0.863840997704332 H 0.0 **** 0.0
245 H80407 0.720377925644193 0.919971372086783 0.875799368864024 H 0.0 **** 0.0
246 H80409 0.710724118771535 0.926596294104017 0.89477202093407 H 0.0 **** 0.0
247 H80411 0.739923219514147 0.938691786962659 0.891315616028837 H 0.0 **** 0.0
248 H80413 0.748320967432262 0.918008085003987 0.889496424453473 H 0.0 **** 0.0
249 H80415 0.731372296397701 0.934246776768211 0.920583207196766 H 0.0 **** 0.0
250 H80417 0.751708965627969 0.925405335161744 0.919807280901946 H 0.0 **** 0.0
@<TRIPOS>BOND
1 3 2 1
2 4 3 1
3 5 4 1
4 6 5 1
5 1 2 1
6 1 6 1
7 8 7 1
8 9 8 1
9 10 9 1
10 4 7 1
11 3 10 1
12 12 11 1
13 13 12 1
14 14 13 1
15 8 11 1
16 7 14 1
17 16 15 1
18 17 16 Partial double
19 18 17 1
20 13 15 1
21 12 18 1
22 20 19 Partial double
23 21 20 Partial double
24 22 21 Partial double
25 17 19 Partial double
26 16 22 Partial double
27 24 23 1
28 25 24 1
29 15 25 Double
30 22 23 1
31 27 26 1
32 28 27 Partial double
33 29 28 Partial double
34 21 26 1
35 20 29 Partial double
36 31 30 1
37 32 31 1
38 18 30 1
39 19 32 1
40 34 33 Double
41 35 34 1
42 36 35 1
43 31 33 1
44 30 36 Double
45 38 37 1
46 39 38 1
47 40 39 Double
48 34 37 1
49 33 40 1
50 42 41 1
51 43 42 1
52 44 43 1
53 40 41 1
54 39 44 1
55 46 45 Partial double
56 32 46 1
57 29 45 Partial double
58 48 47 Partial double
59 49 48 1
60 45 49 Partial double
61 28 47 Partial double
62 51 50 Partial double
63 52 51 Partial double
64 53 52 Partial double
65 48 50 Partial double
66 47 53 Partial double
67 55 54 Partial double
68 56 55 Partial double
69 57 56 Partial double
70 52 54 Partial double
71 51 57 Partial double
72 59 58 Partial double
73 60 59 Partial double
74 61 60 Partial double
75 56 58 Partial double
76 55 61 Partial double
77 63 62 Partial double
78 27 63 Partial double
79 53 62 Partial double
80 65 64 Partial double
81 62 65 Partial double
82 54 64 Partial double
83 67 66 Partial double
84 64 67 Partial double
85 61 66 Partial double
86 69 68 Partial double
87 70 69 Partial double
88 66 70 Partial double
89 60 68 Partial double
90 72 71 1
91 73 72 1
92 74 73 1
93 59 71 1
94 58 74 1
95 76 75 1
96 77 76 1
97 78 77 1
98 73 75 1
99 72 78 1
100 80 79 1
101 81 80 1
102 82 81 1
103 78 79 1
104 77 82 1
105 84 83 Partial double
106 85 84 Partial double
107 67 85 Partial double
108 65 83 Partial double
109 87 86 1
110 88 87 1
111 89 88 1
112 84 86 1
113 83 89 1
114 91 90 1
115 92 91 1
116 93 92 1
117 88 90 1
118 87 93 1
119 95 94 Partial double
120 85 95 Partial double
121 70 94 Partial double
122 97 96 Partial double
123 98 97 Partial double
124 94 98 Partial double
125 69 96 Partial double
126 100 99 Partial double
127 101 100 Partial double
128 68 101 Partial double
129 96 99 Partial double
130 103 102 1
131 104 103 Partial double
132 97 102 1
133 99 104 1
134 106 105 1
135 107 106 1
136 100 105 1
137 104 107 Partial double
138 109 108 1
139 110 109 1
140 111 110 1
141 106 108 1
142 105 111 1
143 113 112 1
144 114 113 1
145 103 114 Partial double
146 107 112 Partial double
147 108 115 1
148 112 116 Partial double
149 115 116 Partial double
150 42 117 1
151 117 118 1
152 117 119 1
153 74 120 1
154 122 121 1
155 123 122 Partial double
156 124 123 1
157 114 121 Partial double
158 113 124 Partial double
159 126 125 Partial double
160 127 126 1
161 128 127 Partial double
162 124 125 Partial double
163 123 128 Partial double
164 130 129 Partial double
165 131 130 1
166 132 131 1
167 127 129 Partial double
168 126 132 Partial double
169 134 133 Partial double
170 135 134 Partial double
171 125 135 Partial double
172 132 133 Partial double
173 137 136 Partial double
174 138 137 Partial double
175 131 138 Partial double
176 133 136 Partial double
177 140 139 Partial double
178 134 140 Partial double
179 116 135 Partial double
180 115 139 Partial double
181 142 141 Partial double
182 140 142 Partial double
183 136 141 Partial double
184 144 143 1
185 145 144 1
186 146 145 1
187 142 143 1
188 141 146 1
189 146 147 Double
190 1 148 1
191 1 149 1
192 2 150 1
193 2 151 1
194 3 152 1
195 4 153 1
196 5 154 1
197 5 155 1
198 7 156 1
199 8 157 1
200 9 158 1
201 9 159 1
202 10 160 1
203 10 161 1
204 12 162 1
205 13 163 1
206 14 164 1
207 14 165 1
208 18 166 1
209 23 167 1
210 23 168 1
211 24 169 1
212 24 170 1
213 25 171 1
214 35 173 1
215 35 174 1
216 36 175 1
217 37 176 1
218 37 177 1
219 38 178 1
220 38 179 1
221 41 180 1
222 41 181 1
223 42 182 1
224 43 183 1
225 43 184 1
226 44 185 1
227 44 186 1
228 46 187 1
229 50 188 1
230 57 189 1
231 63 190 1
232 72 191 1
233 73 192 1
234 74 193 1
235 75 194 1
236 75 195 1
237 76 196 1
238 76 197 1
239 77 198 1
240 78 199 1
241 79 200 1
242 79 201 1
243 80 202 1
244 80 203 1
245 81 204 1
246 81 205 1
247 82 206 1
248 87 207 1
249 88 208 1
250 90 209 1
251 90 210 1
252 91 211 1
253 91 212 1
254 92 213 1
255 92 214 1
256 93 215 1
257 93 216 1
258 95 217 1
259 98 218 1
260 101 219 1
261 105 220 1
262 106 221 1
263 108 222 1
264 109 223 1
265 109 224 1
266 110 225 1
267 110 226 1
268 111 227 1
269 111 228 1
270 117 229 1
271 118 230 1
272 118 231 1
273 118 232 1
274 119 233 1
275 119 234 1
276 119 235 1
277 120 236 1
278 121 237 1
279 122 238 1
280 128 239 1
281 129 240 1
282 130 241 1
283 137 242 1
284 138 243 1
285 139 244 1
286 143 245 1
287 143 246 1
288 144 247 1
289 144 248 1
290 145 249 1
291 145 250 1
292 31 172 1
@<TRIPOS>MOLECULE
Sketch 4
250 292
SMALL
USER_CHARGES


@<TRIPOS>ATOM
1 C80420 0.319677642721097 0.638593503070845 1.07763563026846 C 0.0 **** 0.0
2 C80421 0.300216785527596 0.639118626777466 1.07462065120477 C 0.0 **** 0.0
3 C80422 0.291604153620075 0.623310239120186 1.08211594708399 C 0.0 **** 0.0
4 C80423 0.299910070154807 0.606987505268435 1.07481263897635 C 0.0 **** 0.0
5 C80424 0.319440813721855 0.609560453441661 1.07372134727205 C 0.0 **** 0.0
6 O80425 0.325182774647027 0.622860130882869 1.08434604172034 O 0.0 **** 0.0
7 C80432 0.292716232636566 0.600639496865897 1.0576269777812 C 0.0 **** 0.0
8 C80433 0.273467336029984 0.604725329225673 1.05515309629793 C 0.0 **** 0.0
9 C80434 0.264817768498912 0.608036239255046 1.07207557645094 C 0.0 **** 0.0
10 C80435 0.272065879613999 0.623760902692294 1.08072708872257 C 0.0 **** 0.0
11 O80441 0.263586544173031 0.59239123856821 1.04637281048222 O 0.0 **** 0.0
12 C80442 0.272536567431175 0.583378294700583 1.03353499943626 C 0.0 **** 0.0
13 C80443 0.285527688109123 0.571917001563538 1.04238008031562 C 0.0 **** 0.0
14 C80444 0.29730517935261 0.58174668435999 1.05489842772193 C 0.0 **** 0.0
15 C80450 0.294728438118642 0.56135059241541 1.02939790600297 C 0.0 **** 0.0
16 C80451 0.300467213787397 0.570269303746998 1.01365284631664 C 0.0 **** 0.0
17 C80452 0.294234514453792 0.586114726621689 1.00966090245261 C 0.0 **** 0.0
18 C80453 0.280648993646594 0.594798906872857 1.02002443856872 C 0.0 **** 0.0
19 C80459 0.299854109976315 0.594287055682763 0.995092318250654 C 0.0 **** 0.0
20 C80460 0.310378130378823 0.585746142389368 0.984027453059737 C 0.0 **** 0.0
21 C80461 0.315938086568452 0.569509523167436 0.987740753004961 C 0.0 **** 0.0
22 C80462 0.311450293558706 0.561918833650898 1.00288838268866 C 0.0 **** 0.0
23 C80468 0.318444563359057 0.544677789417288 1.00742969412836 C 0.0 **** 0.0
24 C80469 0.305120214108527 0.534190950343523 1.01714041538985 C 0.0 **** 0.0
25 C80470 0.296753805589804 0.544496564568165 1.03088076029985 C 0.0 **** 0.0
26 O80475 0.3257850116367 0.56040939347229 0.976571726604175 O 0.0 **** 0.0
27 C80476 0.332517036878323 0.568484477437445 0.962746353004293 C 0.0 **** 0.0
28 C80477 0.3277801367211 0.584492237032374 0.957392542215569 C 0.0 **** 0.0
29 C80478 0.314811102654298 0.593861295942329 0.967516798979583 C 0.0 **** 0.0
30 C80484 0.269291167317976 0.601801719728045 1.00650461565883 C 0.0 **** 0.0
31 C80485 0.277415790182873 0.617703446471368 0.99976004802638 C 0.0 **** 0.0
32 C80486 0.294015860693185 0.612112209663451 0.990710587718814 C 0.0 **** 0.0
33 C80491 0.264785034394958 0.628418686867738 0.989401244279111 C 0.0 **** 0.0
34 C80492 0.253587247906837 0.619676894951759 0.97959112175418 C 0.0 **** 0.0
35 C80493 0.251405226666449 0.600597398045804 0.980745263877146 C 0.0 **** 0.0
36 C80494 0.25751399469109 0.593505847621973 0.99750970703658 C 0.0 **** 0.0
37 C80500 0.240296319556972 0.627870699663449 0.968887704773299 C 0.0 **** 0.0
38 C80501 0.242634915775685 0.647033728092662 0.966831946105466 C 0.0 **** 0.0
39 C80502 0.253105302452579 0.654753881692108 0.980727022058503 C 0.0 **** 0.0
40 C80503 0.263778342127004 0.645641232841876 0.990784993063593 C 0.0 **** 0.0
41 C80509 0.274076493127218 0.655650992023116 1.00393753096319 C 0.0 **** 0.0
42 C80510 0.265225256414506 0.671810878165569 1.00953598891269 C 0.0 **** 0.0
43 C80511 0.261907705430039 0.682904624562212 0.993939098655365 C 0.0 **** 0.0
44 C80512 0.250482785953288 0.673646000418775 0.981432474236752 C 0.0 **** 0.0
45 C80518 0.307431298532166 0.608449058820691 0.96223365064933 C 0.0 **** 0.0
46 C80519 0.29662632403667 0.617292040185809 0.972357367628492 C 0.0 **** 0.0
47 C80523 0.335185435992685 0.591324937531773 0.942619747990521 C 0.0 **** 0.0
48 C80524 0.329434048408194 0.606407397989143 0.934902259541588 C 0.0 **** 0.0
49 S80525 0.311020089584547 0.616175081679055 0.941867138262031 S 0.0 **** 0.0
50 C80530 0.337138345942048 0.613058780156614 0.920859609756039 C 0.0 **** 0.0
51 C80531 0.35068700611563 0.604396171448357 0.913070010110369 C 0.0 **** 0.0
52 C80532 0.356723848356703 0.589325797860159 0.920595768290917 C 0.0 **** 0.0
53 C80533 0.348894755822177 0.58282111370679 0.934998775441306 C 0.0 **** 0.0
54 C80539 0.369848811162037 0.580529181875882 0.912832386518201 C 0.0 **** 0.0
55 C80540 0.375864544076025 0.585342381043537 0.896883773449022 C 0.0 **** 0.0
56 C80541 0.36967086266003 0.599968249836677 0.888790159677519 C 0.0 **** 0.0
57 C80542 0.357248511218744 0.609488033569734 0.897316116858646 C 0.0 **** 0.0
58 C80548 0.375555651048834 0.60448312506358 0.872595570212586 C 0.0 **** 0.0
59 C80549 0.385913517599324 0.593360846917985 0.863886166084158 C 0.0 **** 0.0
60 C80550 0.392627210235205 0.578875878531608 0.872062439692332 C 0.0 **** 0.0
61 C80551 0.388265424115651 0.575838429334096 0.888947519951133 C 0.0 **** 0.0
62 C80557 0.354534070307405 0.567281119008055 0.941565184811377 C 0.0 **** 0.0
63 C80558 0.344681702927179 0.559682947145166 0.954094616548893 C 0.0 **** 0.0
64 C80562 0.377042366164534 0.566646132749703 0.921003788037568 C 0.0 **** 0.0
65 C80563 0.370192496153737 0.560484656158097 0.936076718319878 C 0.0 **** 0.0
66 C80567 0.396951476160203 0.563636105290054 0.898228897070986 C 0.0 **** 0.0
67 C80568 0.391433700314296 0.559358562924322 0.914401585755015 C 0.0 **** 0.0
68 C80572 0.404928434904873 0.568254076396135 0.864199760229139 C 0.0 **** 0.0
69 C80573 0.415250677296001 0.558122007455818 0.874588902328496 C 0.0 **** 0.0
70 C80574 0.411155960983145 0.555795247684517 0.89146198135053 C 0.0 **** 0.0
71 O80579 0.390746237974947 0.596477416184503 0.847290463570918 O 0.0 **** 0.0
72 C80580 0.380781655611213 0.608054467007301 0.83775674803222 C 0.0 **** 0.0
73 C80581 0.37902201282251 0.624346986844459 0.847795205061954 C 0.0 **** 0.0
74 C80582 0.369898974226747 0.620970244949491 0.864431284772664 C 0.0 **** 0.0
75 C80588 0.370607923202868 0.638519775980578 0.837280074746435 C 0.0 **** 0.0
76 C80589 0.360773112297779 0.631638388714989 0.821940265370183 C 0.0 **** 0.0
77 C80590 0.351299365186429 0.615257320756918 0.826227747817333 C 0.0 **** 0.0
78 C80591 0.36346487951596 0.60074830915505 0.832350978228758 C 0.0 **** 0.0
79 C80597 0.364989401884278 0.586229134645268 0.819450581048241 C 0.0 **** 0.0
80 C80598 0.347369336303485 0.579912855961562 0.813721948023593 C 0.0 **** 0.0
81 C80599 0.333411361885485 0.593563364921587 0.815168058044191 C 0.0 **** 0.0
82 N80600 0.340027184507897 0.610446831165357 0.812454252980889 N 0.0 **** 0.0
83 C80606 0.379488510310321 0.54892995859925 0.946241164558095 C 0.0 **** 0.0
84 C80607 0.394637602060162 0.542636665962986 0.940301191778216 C 0.0 **** 0.0
85 C80608 0.400508076838546 0.547730590565768 0.92424535415213 C 0.0 **** 0.0
86 O80613 0.404560087515686 0.531504867329298 0.949318885320941 O 0.0 **** 0.0
87 C80614 0.396449092012128 0.523297642924257 0.963143718852682 C 0.0 **** 0.0
88 C80615 0.38382202660431 0.534111224180958 0.972539700861568 C 0.0 **** 0.0
89 O80616 0.373444862648759 0.54440873526686 0.961996507032415 O 0.0 **** 0.0
90 C80622 0.391833790109272 0.545097521047296 0.986510598603201 C 0.0 **** 0.0
91 C80623 0.410132760809891 0.549865561010023 0.982527738633612 C 0.0 **** 0.0
92 C80624 0.42124121270374 0.533937743319734 0.980005168218295 C 0.0 **** 0.0
93 C80625 0.410716547421362 0.5181290936727 0.97515120825623 C 0.0 **** 0.0
94 C80631 0.42076405547431 0.544385928996441 0.9014140809208 C 0.0 **** 0.0
95 C80632 0.415502464348662 0.540743656177982 0.917964273101403 C 0.0 **** 0.0
96 C80636 0.428271442979404 0.548544212227269 0.867445193743893 C 0.0 **** 0.0
97 C80637 0.438769365308426 0.538259618634097 0.877644035863313 C 0.0 **** 0.0
98 C80638 0.434902184594547 0.5361523651962 0.89436376960913 C 0.0 **** 0.0
99 C80643 0.429893864033103 0.547205760289362 0.849795440823566 C 0.0 **** 0.0
100 C80644 0.419146305976885 0.556057538622466 0.839235943231249 C 0.0 **** 0.0
101 C80645 0.407059650628477 0.566286393118038 0.846518539692654 C 0.0 **** 0.0
102 O80650 0.45265283918921 0.5300990775288 0.871075967436942 O 0.0 **** 0.0
103 C80651 0.451844529961322 0.525494611819255 0.854357978637496 C 0.0 **** 0.0
104 C80652 0.441900365028433 0.534189412163394 0.843195199750208 C 0.0 **** 0.0
105 C80657 0.4198695171782 0.554700635038803 0.820068821720393 C 0.0 **** 0.0
106 C80658 0.430330028864594 0.538729304253963 0.81360009335036 C 0.0 **** 0.0
107 C80659 0.441895299227818 0.530146623438108 0.826449961411368 C 0.0 **** 0.0
108 C80664 0.440589297371252 0.542677392012746 0.797410568614447 C 0.0 **** 0.0
109 C80665 0.430061546021023 0.553262884669693 0.784961240529264 C 0.0 **** 0.0
110 C80666 0.425348721880345 0.570678875703885 0.79270192367452 C 0.0 **** 0.0
111 C80667 0.426613401520037 0.571090974191843 0.812187979907553 C 0.0 **** 0.0
112 C80673 0.452324975798078 0.517606909323916 0.820853675040636 C 0.0 **** 0.0
113 C80674 0.461336000247624 0.508065677520753 0.832213224303426 C 0.0 **** 0.0
114 C80675 0.461209457245662 0.512064498625962 0.848959175089508 C 0.0 **** 0.0
115 C80680 0.447318633336555 0.525885424203649 0.79046539379577 C 0.0 **** 0.0
116 C80682 0.453203295105107 0.514159183329279 0.802146234834094 C 0.0 **** 0.0
117 C80685 0.27500034029144 0.680667559054591 1.02393438200081 C 0.0 **** 0.0
118 C80687 0.291783328252593 0.688502145129361 1.01831173856103 C 0.0 **** 0.0
119 C80689 0.264188176653351 0.693969142185275 1.03292389817011 C 0.0 **** 0.0
120 O80691 0.37394237659336 0.634734825769518 0.875339239557096 O 0.0 **** 0.0
121 C80693 0.470333685369684 0.502629048716227 0.860238372082118 C 0.0 **** 0.0
122 C80694 0.47915491047615 0.488859637264077 0.854893687697176 C 0.0 **** 0.0
123 C80695 0.479185687819686 0.484579488344229 0.838182209307179 C 0.0 **** 0.0
124 C80696 0.470400352870043 0.494365314108776 0.826912310957395 C 0.0 **** 0.0
125 C80702 0.470455208710744 0.489780774287503 0.808760793489874 C 0.0 **** 0.0
126 C80703 0.479694484916535 0.476087274830419 0.803771343100038 C 0.0 **** 0.0
127 C80704 0.488845002203917 0.465932621418419 0.816520730250987 C 0.0 **** 0.0
128 C80705 0.488125174290376 0.470478032535248 0.833218899135062 C 0.0 **** 0.0
129 C80711 0.498014043890829 0.452213811474557 0.811355562446098 C 0.0 **** 0.0
130 C80712 0.498874182707232 0.447735979135567 0.794613442179523 C 0.0 **** 0.0
131 C80713 0.490930757400398 0.456965014000401 0.782301510694186 C 0.0 **** 0.0
132 C80714 0.48063469487644 0.471844101386857 0.78704130618642 C 0.0 **** 0.0
133 C80720 0.472510442183128 0.481612711356042 0.774650027381285 C 0.0 **** 0.0
134 C80721 0.463022945499635 0.495641440064385 0.779694280686761 C 0.0 **** 0.0
135 C80722 0.46173384834625 0.499623301071753 0.79688261822698 C 0.0 **** 0.0
136 C80727 0.474710913983786 0.478068777253845 0.757469209589776 C 0.0 **** 0.0
137 C80728 0.484793609708274 0.46216695967301 0.753524136555371 C 0.0 **** 0.0
138 C80729 0.492384552543755 0.452547031704519 0.765702641354763 C 0.0 **** 0.0
139 C80734 0.448902637892261 0.522017517622981 0.773523951191787 C 0.0 **** 0.0
140 C80735 0.456225305988382 0.506676303254104 0.767568675602303 C 0.0 **** 0.0
141 C80740 0.467773527206134 0.48886228742683 0.745402629314747 C 0.0 **** 0.0
142 C80741 0.458075260528003 0.502775513307942 0.75025444797245 C 0.0 **** 0.0
143 C80745 0.450179486761021 0.514155189884274 0.736866804041535 C 0.0 **** 0.0
144 C80746 0.443590974530615 0.503226733793826 0.722351703537245 C 0.0 **** 0.0
145 C80747 0.458305957294225 0.493715049219429 0.714738970090524 C 0.0 **** 0.0
146 C80748 0.470613262516656 0.485844267971196 0.726880032666883 C 0.0 **** 0.0
147 O80754 0.482525111078426 0.478172614126628 0.72097248134622 O 0.0 **** 0.0
148 H80756 0.323416471623233 0.648145830643285 1.08701038283443 H 0.0 **** 0.0
149 H80758 0.326619757125183 0.641570513244637 1.06591070596113 H 0.0 **** 0.0
150 H80760 0.294627576791763 0.650640758584474 1.08014266427591 H 0.0 **** 0.0
151 H80762 0.297287265496565 0.63969364316338 1.06099146631472 H 0.0 **** 0.0
152 H80764 0.294788661779614 0.623346715542046 1.09573903532531 H 0.0 **** 0.0
153 H80766 0.297137216896772 0.597035802930048 1.08422201875686 H 0.0 **** 0.0
154 H80768 0.323386205322193 0.611916724565818 1.06053527727318 H 0.0 **** 0.0
155 H80770 0.326244617261388 0.598178625469215 1.0777620953892 H 0.0 **** 0.0
156 H80772 0.299593407330885 0.60774435531767 1.04778520559152 H 0.0 **** 0.0
157 H80774 0.272651876064251 0.616656326853373 1.04791107699515 H 0.0 **** 0.0
158 H80776 0.266149506785225 0.596798165288116 1.0802131724752 H 0.0 **** 0.0
159 H80778 0.251207091073782 0.609632196607599 1.06969128620896 H 0.0 **** 0.0
160 H80780 0.266455362154457 0.625336743591769 1.0933672958211 H 0.0 **** 0.0
161 H80782 0.268079479194038 0.634937436557551 1.07340196430892 H 0.0 **** 0.0
162 H80784 0.262909781765563 0.575157274197931 1.02775301399049 H 0.0 **** 0.0
163 H80786 0.277980518124536 0.563196552112223 1.05021159375499 H 0.0 **** 0.0
164 H80788 0.310721785554605 0.580873175279553 1.05124197872257 H 0.0 **** 0.0
165 H80790 0.296358504409889 0.575175521128061 1.06713924692828 H 0.0 **** 0.0
166 H80792 0.286520556008784 0.605563537948662 1.02656442504741 H 0.0 **** 0.0
167 H80794 0.322408522674744 0.537688753717053 0.996079304476639 H 0.0 **** 0.0
168 H80796 0.329855334661648 0.546153647774434 1.01533499009686 H 0.0 **** 0.0
169 H80798 0.311186683010767 0.522888319571391 1.02258297472231 H 0.0 **** 0.0
170 H80800 0.295406014151746 0.529599838104959 1.0082850244437 H 0.0 **** 0.0
171 H80802 0.291840879852241 0.53742432612975 1.04158475852632 H 0.0 **** 0.0
172 H80804 0.28129138843908 0.625038213792113 1.01089325167036 H 0.0 **** 0.0
173 H80805 0.258099919001481 0.594373460982423 0.970230318245977 H 0.0 **** 0.0
174 H80807 0.237882244512402 0.597542196440237 0.979242371742775 H 0.0 **** 0.0
175 H80809 0.25354587147041 0.580770081935638 1.00092263981013 H 0.0 **** 0.0
176 H80811 0.239885087836393 0.621762582804711 0.956342142081792 H 0.0 **** 0.0
177 H80813 0.227980614414532 0.62547814797642 0.974900256728764 H 0.0 **** 0.0
178 H80815 0.230055408761583 0.653092670112175 0.966381912959319 H 0.0 **** 0.0
179 H80817 0.24882247360983 0.649777309680135 0.954643643548379 H 0.0 **** 0.0
180 H80819 0.276223817725345 0.648077238790037 1.01538381525761 H 0.0 **** 0.0
181 H80821 0.28662679128282 0.658534995505435 0.998691148691086 H 0.0 **** 0.0
182 H80823 0.252798872273847 0.668126192518847 1.01482817834909 H 0.0 **** 0.0
183 H80825 0.274041667388296 0.68603999568795 0.987884558460311 H 0.0 **** 0.0
184 H80827 0.255998338743368 0.695027476898938 0.997401631542216 H 0.0 **** 0.0
185 H80829 0.251934215158943 0.678912408533323 0.968597017083468 H 0.0 **** 0.0
186 H80831 0.237199834677993 0.675697385957619 0.985217114458199 H 0.0 **** 0.0
187 H80833 0.290250764284578 0.628588158350149 0.967766293370868 H 0.0 **** 0.0
188 H80835 0.332256373032933 0.624609892360184 0.914922825154126 H 0.0 **** 0.0
189 H80837 0.351523438689135 0.620719171081647 0.891470050023199 H 0.0 **** 0.0
190 H80839 0.347170268521236 0.546865908657938 0.958730136268221 H 0.0 **** 0.0
191 H80841 0.388063865841351 0.610850101446795 0.826173362667341 H 0.0 **** 0.0
192 H80843 0.391915270388393 0.628346607250662 0.851352459519002 H 0.0 **** 0.0
193 H80845 0.356067568208219 0.620528623397133 0.862463460831186 H 0.0 **** 0.0
194 H80847 0.361801801654439 0.645521929415025 0.845408873745932 H 0.0 **** 0.0
195 H80849 0.380101016552211 0.647751993700873 0.832979570829056 H 0.0 **** 0.0
196 H80851 0.369526129680208 0.629201940635408 0.811358499592566 H 0.0 **** 0.0
197 H80853 0.351747765551469 0.64123280499164 0.817347428783811 H 0.0 **** 0.0
198 H80855 0.342900954539696 0.61840500324532 0.836941694470394 H 0.0 **** 0.0
199 H80857 0.357701103853814 0.595028542065315 0.843703882517904 H 0.0 **** 0.0
200 H80859 0.371942314452228 0.590893981849821 0.808300837735035 H 0.0 **** 0.0
201 H80861 0.372497944990069 0.575726322008825 0.824679728501149 H 0.0 **** 0.0
202 H80863 0.343517688571787 0.568887647105758 0.821280100535482 H 0.0 **** 0.0
203 H80865 0.348257223502236 0.575313897904909 0.800595228306231 H 0.0 **** 0.0
204 H80867 0.327840180401048 0.593217826050057 0.827929753430009 H 0.0 **** 0.0
205 H80869 0.322903148651367 0.591051420853392 0.806390616343468 H 0.0 **** 0.0
206 H80871 0.346096162977745 0.61098533763874 0.80132843639234 H 0.0 **** 0.0
207 H80873 0.38987633531928 0.512133463444948 0.958017191454071 H 0.0 **** 0.0
208 H80875 0.375106186503219 0.52528586697125 0.978926706045964 H 0.0 **** 0.0
209 H80877 0.383965099941265 0.556466135279019 0.988136371649775 H 0.0 **** 0.0
210 H80879 0.39169420469794 0.538445523923454 0.998758640643891 H 0.0 **** 0.0
211 H80881 0.415287294253423 0.557841917984019 0.992702590238034 H 0.0 **** 0.0
212 H80883 0.410241883948378 0.557572995616775 0.970927675623449 H 0.0 **** 0.0
213 H80885 0.428570738483672 0.531525170136412 0.991534753677234 H 0.0 **** 0.0
214 H80887 0.430650423371504 0.536491131486443 0.970056251162797 H 0.0 **** 0.0
215 H80889 0.405333127583703 0.512237926589675 0.986521421694073 H 0.0 **** 0.0
216 H80891 0.418845897449437 0.508526040191144 0.969186466798949 H 0.0 **** 0.0
217 H80893 0.422739693529521 0.531663392304701 0.925583747230382 H 0.0 **** 0.0
218 H80895 0.442477652783667 0.527549321614975 0.902185380941555 H 0.0 **** 0.0
219 H80897 0.398514020247491 0.572579823027144 0.837627927464438 H 0.0 **** 0.0
220 H80899 0.40684505264247 0.552916115473472 0.815352041199282 H 0.0 **** 0.0
221 H80901 0.420690273357444 0.529209705191107 0.810160140310859 H 0.0 **** 0.0
222 H80903 0.45170002107669 0.550420419550922 0.800956889612884 H 0.0 **** 0.0
223 H80905 0.418469474302376 0.546196258608373 0.781825249226654 H 0.0 **** 0.0
224 H80907 0.436849782219626 0.555377854775411 0.772994527135147 H 0.0 **** 0.0
225 H80909 0.412407741583866 0.574121889448295 0.788857712987027 H 0.0 **** 0.0
226 H80911 0.433649878917976 0.580548882769545 0.787425246873749 H 0.0 **** 0.0
227 H80913 0.419802717107554 0.582247814713426 0.817039229075155 H 0.0 **** 0.0
228 H80915 0.439942477932234 0.572718938891473 0.815966094318162 H 0.0 **** 0.0
229 H80917 0.277971559536741 0.670887909274154 1.03349178079849 H 0.0 **** 0.0
230 H80919 0.298476045822843 0.693716092275029 1.02931326443415 H 0.0 **** 0.0
231 H80921 0.289735998513959 0.698868249721252 1.00926112301096 H 0.0 **** 0.0
232 H80923 0.300236133731188 0.679222939366323 1.01232209471397 H 0.0 **** 0.0
233 H80925 0.252415442367846 0.688355197701085 1.03774071022061 H 0.0 **** 0.0
234 H80927 0.260783647323191 0.704370207135364 1.02436669847253 H 0.0 **** 0.0
235 H80929 0.270974997071192 0.699434679373748 1.04378564588628 H 0.0 **** 0.0
236 H80931 0.374153546730831 0.63020841362803 0.886493037082704 H 0.0 **** 0.0
237 H80933 0.470555747795056 0.505687400878736 0.873684249941373 H 0.0 **** 0.0
238 H80935 0.486075876545467 0.481432082383279 0.864234925054841 H 0.0 **** 0.0
239 H80937 0.494778632176208 0.462944333403301 0.842671312453112 H 0.0 **** 0.0
240 H80939 0.504918545735132 0.444560019453853 0.820522713406832 H 0.0 **** 0.0
241 H80941 0.506275100489124 0.436597108840645 0.791240305000594 H 0.0 **** 0.0
242 H80943 0.48603697955486 0.458012016917452 0.740485302984024 H 0.0 **** 0.0
243 H80945 0.499574055335924 0.441406653106144 0.761893055135058 H 0.0 **** 0.0
244 H80947 0.444441626233697 0.531470263886056 0.764445887118602 H 0.0 **** 0.0
245 H80949 0.439525392489084 0.521497706584682 0.741904216596793 H 0.0 **** 0.0
246 H80951 0.459537965517888 0.523372173965832 0.732119788413373 H 0.0 **** 0.0
247 H80953 0.437193041412853 0.510877516294767 0.712676807487006 H 0.0 **** 0.0
248 H80955 0.43409576034733 0.494360590616256 0.727354667976852 H 0.0 **** 0.0
249 H80957 0.466658777316113 0.501883138718374 0.707192935501139 H 0.0 **** 0.0
250 H80959 0.454839288068248 0.483079492177641 0.706520077436921 H 0.0 **** 0.0
@<TRIPOS>BOND
1 3 2 1
2 4 3 1
3 5 4 1
4 6 5 1
5 1 2 1
6 1 6 1
7 8 7 1
8 9 8 1
9 10 9 1
10 4 7 1
11 3 10 1
12 12 11 1
13 13 12 1
14 14 13 1
15 8 11 1
16 7 14 1
17 16 15 1
18 17 16 Partial double
19 18 17 1
20 13 15 1
21 12 18 1
22 20 19 Partial double
23 21 20 Partial double
24 22 21 Partial double
25 17 19 Partial double
26 16 22 Partial double
27 24 23 1
28 25 24 1
29 15 25 Double
30 22 23 1
31 27 26 1
32 28 27 Partial double
33 29 28 Partial double
34 21 26 1
35 20 29 Partial double
36 31 30 1
37 32 31 1
38 18 30 1
39 19 32 1
40 34 33 Double
41 35 34 1
42 36 35 1
43 31 33 1
44 30 36 Double
45 38 37 1
46 39 38 1
47 40 39 Double
48 34 37 1
49 33 40 1
50 42 41 1
51 43 42 1
52 44 43 1
53 40 41 1
54 39 44 1
55 46 45 Partial double
56 32 46 1
57 29 45 Partial double
58 48 47 Partial double
59 49 48 1
60 45 49 Partial double
61 28 47 Partial double
62 51 50 Partial double
63 52 51 Partial double
64 53 52 Partial double
65 48 50 Partial double
66 47 53 Partial double
67 55 54 Partial double
68 56 55 Partial double
69 57 56 Partial double
70 52 54 Partial double
71 51 57 Partial double
72 59 58 Partial double
73 60 59 Partial double
74 61 60 Partial double
75 56 58 Partial double
76 55 61 Partial double
77 63 62 Partial double
78 27 63 Partial double
79 53 62 Partial double
80 65 64 Partial double
81 62 65 Partial double
82 54 64 Partial double
83 67 66 Partial double
84 64 67 Partial double
85 61 66 Partial double
86 69 68 Partial double
87 70 69 Partial double
88 66 70 Partial double
89 60 68 Partial double
90 72 71 1
91 73 72 1
92 74 73 1
93 59 71 1
94 58 74 1
95 76 75 1
96 77 76 1
97 78 77 1
98 73 75 1
99 72 78 1
100 80 79 1
101 81 80 1
102 82 81 1
103 78 79 1
104 77 82 1
105 84 83 Partial double
106 85 84 Partial double
107 67 85 Partial double
108 65 83 Partial double
109 87 86 1
110 88 87 1
111 89 88 1
112 84 86 1
113 83 89 1
114 91 90 1
115 92 91 1
116 93 92 1
117 88 90 1
118 87 93 1
119 95 94 Partial double
120 85 95 Partial double
121 70 94 Partial double
122 97 96 Partial double
123 98 97 Partial double
124 94 98 Partial double
125 69 96 Partial double
126 100 99 Partial double
127 101 100 Partial double
128 68 101 Partial double
129 96 99 Partial double
130 103 102 1
131 104 103 Partial double
132 97 102 1
133 99 104 1
134 106 105 1
135 107 106 1
136 100 105 1
137 104 107 Partial double
138 109 108 1
139 110 109 1
140 111 110 1
141 106 108 1
142 105 111 1
143 113 112 1
144 114 113 1
145 103 114 Partial double
146 107 112 Partial double
147 108 115 1
148 112 116 Partial double
149 115 116 Partial double
150 42 117 1
151 117 118 1
152 117 119 1
153 74 120 1
154 122 121 1
155 123 122 Partial double
156 124 123 1
157 114 121 Partial double
158 113 124 Partial double
159 126 125 Partial double
160 127 126 1
161 128 127 Partial double
162 124 125 Partial double
163 123 128 Partial double
164 130 129 Partial double
165 131 130 1
166 132 131 1
167 127 129 Partial double
168 126 132 Partial double
169 134 133 Partial double
170 135 134 Partial double
171 125 135 Partial double
172 132 133 Partial double
173 137 136 Partial double
174 138 137 Partial double
175 131 138 Partial double
176 133 136 Partial double
177 140 139 Partial double
178 134 140 Partial double
179 116 135 Partial double
180 115 139 Partial double
181 142 141 Partial double
182 140 142 Partial double
183 136 141 Partial double
184 144 143 1
185 145 144 1
186 146 145 1
187 142 143 1
188 141 146 1
189 146 147 Double
190 1 148 1
191 1 149 1
192 2 150 1
193 2 151 1
194 3 152 1
195 4 153 1
196 5 154 1
197 5 155 1
198 7 156 1
199 8 157 1
200 9 158 1
201 9 159 1
202 10 160 1
203 10 161 1
204 12 162 1
205 13 163 1
206 14 164 1
207 14 165 1
208 18 166 1
209 23 167 1
210 23 168 1
211 24 169 1
212 24 170 1
213 25 171 1
214 35 173 1
215 35 174 1
216 36 175 1
217 37 176 1
218 37 177 1
219 38 178 1
220 38 179 1
221 41 180 1
222 41 181 1
223 42 182 1
224 43 183 1
225 43 184 1
226 44 185 1
227 44 186 1
228 46 187 1
229 50 188 1
230 57 189 1
231 63 190 1
232 72 191 1
233 73 192 1
234 74 193 1
235 75 194 1
236 75 195 1
237 76 196 1
238 76 197 1
239 77 198 1
240 78 199 1
241 79 200 1
242 79 201 1
243 80 202 1
244 80 203 1
245 81 204 1
246 81 205 1
247 82 206 1
248 87 207 1
249 88 208 1
250 90 209 1
251 90 210 1
252 91 211 1
253 91 212 1
254 92 213 1
255 92 214 1
256 93 215 1
257 93 216 1
258 95 217 1
259 98 218 1
260 101 219 1
261 105 220 1
262 106 221 1
263 108 222 1
264 109 223 1
265 109 224 1
266 110 225 1
267 110 226 1
268 111 227 1
269 111 228 1
270 117 229 1
271 118 230 1
272 118 231 1
273 118 232 1
274 119 233 1
275 119 234 1
276 119 235 1
277 120 236 1
278 121 237 1
279 122 238 1
280 128 239 1
281 129 240 1
282 130 241 1
283 137 242 1
284 138 243 1
285 139 244 1
286 143 245 1
287 143 246 1
288 144 247 1
289 144 248 1
290 145 249 1
291 145 250 1
292 31 172 1
@<TRIPOS>MOLECULE
Sketch 4
250 292
SMALL
USER_CHARGES


@<TRIPOS>ATOM
1 C80962 0.525817554376636 0.240939504849359 0.224165763156167 C 0.0 **** 0.0
2 C80963 0.541959805517842 0.249656651913026 0.217142087714681 C 0.0 **** 0.0
3 C80964 0.547758849620547 0.241581688754331 0.200382319736313 C 0.0 **** 0.0
4 C80965 0.550233683889022 0.222077951529927 0.202705484413798 C 0.0 **** 0.0
5 C80966 0.538745727490484 0.215532059998447 0.217162177329414 C 0.0 **** 0.0
6 O80967 0.523198902800623 0.224489694999408 0.217376620294196 O 0.0 **** 0.0
7 C80974 0.569163229414039 0.217711164205186 0.204736503514641 C 0.0 **** 0.0
8 C80975 0.57889523904528 0.22216014984874 0.188270976302821 C 0.0 **** 0.0
9 C80976 0.572407122877803 0.238683572775534 0.180199292143324 C 0.0 **** 0.0
10 C80977 0.563546343332629 0.250292862127696 0.192918164222179 C 0.0 **** 0.0
11 O80983 0.576716829965831 0.209627430978177 0.175455179083215 O 0.0 **** 0.0
12 C80984 0.581486124536215 0.192816059266111 0.180199286328907 C 0.0 **** 0.0
13 C80985 0.570473573389549 0.187132315653328 0.195125920960308 C 0.0 **** 0.0
14 C80986 0.572611313202144 0.199269753135043 0.209998284197053 C 0.0 **** 0.0
15 C80992 0.573971867738693 0.168969201818314 0.199974222408386 C 0.0 **** 0.0
16 C80993 0.591433915919543 0.162137279111571 0.196786697848879 C 0.0 **** 0.0
17 C80994 0.603755347190618 0.17238158649336 0.189523201507708 C 0.0 **** 0.0
18 C80995 0.600300908114584 0.19062194876052 0.184354472881485 C 0.0 **** 0.0
19 C81001 0.619814692924233 0.165756024108593 0.187017960341356 C 0.0 **** 0.0
20 C81002 0.622866852654395 0.148901919624348 0.19026921458886 C 0.0 **** 0.0
21 C81003 0.610859398123099 0.138932395329597 0.19814431013935 C 0.0 **** 0.0
22 C81004 0.594986187598963 0.14560761705871 0.20152811367629 C 0.0 **** 0.0
23 C81010 0.582436882947152 0.134232305013924 0.210493530865343 C 0.0 **** 0.0
24 C81011 0.563836821924319 0.140481294345607 0.20966862033938 C 0.0 **** 0.0
25 C81012 0.561623865724195 0.159001933299018 0.206103471455227 C 0.0 **** 0.0
26 O81017 0.614314868622801 0.122428529317946 0.202857634804731 O 0.0 **** 0.0
27 C81018 0.630069604701559 0.115735476143667 0.199525292873546 C 0.0 **** 0.0
28 C81019 0.642218862578513 0.123726855275312 0.189797008741718 C 0.0 **** 0.0
29 C81020 0.638903312755503 0.141346343393141 0.183857953327837 C 0.0 **** 0.0
30 C81026 0.612554640825528 0.195178784642962 0.170456927376765 C 0.0 **** 0.0
31 C81027 0.630406581932711 0.194889473496668 0.177261603884326 C 0.0 **** 0.0
32 C81028 0.634567074401443 0.176119103878017 0.180818160533635 C 0.0 **** 0.0
33 C81033 0.643664857999296 0.204063624033031 0.166220372327782 C 0.0 **** 0.0
34 C81034 0.639969062111012 0.205917202288165 0.149452143350277 C 0.0 **** 0.0
35 C81035 0.623188914652446 0.201015561083533 0.141428158342409 C 0.0 **** 0.0
36 C81036 0.609238374574658 0.197622689178839 0.154051498334089 C 0.0 **** 0.0
37 C81042 0.651183664970952 0.214871883931793 0.137111345135411 C 0.0 **** 0.0
38 C81043 0.669026680169831 0.218523605940165 0.14386891022841 C 0.0 **** 0.0
39 C81044 0.670452327604286 0.217360930090664 0.162773156527311 C 0.0 **** 0.0
40 C81045 0.658243714135856 0.210576626163608 0.172950752163508 C 0.0 **** 0.0
41 C81051 0.661605961611852 0.210740363006387 0.192192296892647 C 0.0 **** 0.0
42 C81052 0.67432003035527 0.224281615364246 0.197427167738521 C 0.0 **** 0.0
43 C81053 0.690705419675728 0.221351385645237 0.187394835907941 C 0.0 **** 0.0
44 C81054 0.687344071817522 0.224155655989467 0.168614798521575 C 0.0 **** 0.0
45 C81060 0.648874598311603 0.149702158302708 0.172620634524029 C 0.0 **** 0.0
46 C81061 0.646170664959365 0.166366566709382 0.16898915234474 C 0.0 **** 0.0
47 C81065 0.65765919131322 0.11542249528937 0.186432627706149 C 0.0 **** 0.0
48 C81066 0.669839653300256 0.122124570900687 0.175192036415706 C 0.0 **** 0.0
49 S81067 0.664486796156953 0.138611888926101 0.161770119993031 S 0.0 **** 0.0
50 C81072 0.685569146955291 0.115106385558911 0.173572995037312 C 0.0 **** 0.0
51 C81073 0.689785480485637 0.100568315007106 0.18301449670078 C 0.0 **** 0.0
52 C81074 0.67763531332931 0.093318884944701 0.193965908420325 C 0.0 **** 0.0
53 C81075 0.661407617055542 0.100110971829602 0.194729459228978 C 0.0 **** 0.0
54 C81081 0.682181890902045 0.0794391660652214 0.203860103075833 C 0.0 **** 0.0
55 C81082 0.698561867564244 0.0727429301576158 0.203211456444058 C 0.0 **** 0.0
56 C81083 0.709915350693349 0.0782390029967423 0.190580205857148 C 0.0 **** 0.0
57 C81084 0.705617552945522 0.0927803560844629 0.181281486289463 C 0.0 **** 0.0
58 C81090 0.725478955803184 0.0701005364297471 0.188879169346733 C 0.0 **** 0.0
59 C81091 0.731730524701177 0.0608517783803473 0.202408738920073 C 0.0 **** 0.0
60 C81092 0.720625143494635 0.054841150380749 0.215147383778015 C 0.0 **** 0.0
61 C81093 0.703690141080542 0.0603578351937075 0.214615955309007 C 0.0 **** 0.0
62 C81099 0.64893029187571 0.091803263510429 0.204250429072825 C 0.0 **** 0.0
63 C81100 0.633437321165068 0.100210504488537 0.206446314492123 C 0.0 **** 0.0
64 C81104 0.66997878400177 0.0716107797128847 0.213838128285446 C 0.0 **** 0.0
65 C81105 0.652972270562708 0.0762745060417999 0.212397763851851 C 0.0 **** 0.0
66 C81109 0.691635482173943 0.053564056190478 0.225587560940137 C 0.0 **** 0.0
67 C81110 0.674713439456823 0.0586422242316131 0.224555902028116 C 0.0 **** 0.0
68 C81114 0.725439241869649 0.0427223436136605 0.227715186136955 C 0.0 **** 0.0
69 C81115 0.713204907234434 0.0370164720670834 0.239365563638673 C 0.0 **** 0.0
70 C81116 0.696414485268815 0.0416298753568647 0.23758828097855 C 0.0 **** 0.0
71 O81121 0.748950045576485 0.0569538405105775 0.202061149517429 O 0.0 **** 0.0
72 C81122 0.759980525023994 0.0707831060656323 0.197210788045276 C 0.0 **** 0.0
73 C81123 0.752868339480757 0.0814582737489939 0.182063749571179 C 0.0 **** 0.0
74 C81124 0.737910854079617 0.0720425118215913 0.174463548498505 C 0.0 **** 0.0
75 C81130 0.766392203809195 0.0862932242535438 0.168861517806251 C 0.0 **** 0.0
76 C81131 0.782187947072995 0.0924748571968822 0.178005067131314 C 0.0 **** 0.0
77 C81132 0.790753379731444 0.0777208001910301 0.187266658781541 C 0.0 **** 0.0
78 C81133 0.777987635984825 0.0638823979377354 0.193420967843127 C 0.0 **** 0.0
79 C81139 0.78554923459457 0.0533485542759245 0.208050506945222 C 0.0 **** 0.0
80 C81140 0.804865594067277 0.0527662671504507 0.206277640355733 C 0.0 **** 0.0
81 C81141 0.812808140574988 0.0705981181343154 0.207620014247888 C 0.0 **** 0.0
82 N81142 0.80199997967087 0.0839404153694248 0.200395519408922 N 0.0 **** 0.0
83 C81148 0.640250026558685 0.0660728635006594 0.219676831987643 C 0.0 **** 0.0
84 C81149 0.6447138463367 0.0538233066417367 0.231367657237415 C 0.0 **** 0.0
85 C81150 0.662119371089418 0.0505316582487862 0.234154213210043 C 0.0 **** 0.0
86 O81155 0.632744691797608 0.0447559302656248 0.240486326334264 O 0.0 **** 0.0
87 C81156 0.61583313170999 0.0459897441323289 0.234074903269272 C 0.0 **** 0.0
88 C81157 0.61187175086481 0.0635745905194622 0.228231548310374 C 0.0 **** 0.0
89 O81158 0.623474612610465 0.069001280166911 0.215603073981318 O 0.0 **** 0.0
90 C81164 0.610554013699777 0.0762524929775926 0.2429870925413 C 0.0 **** 0.0
91 C81165 0.597837352932126 0.0705513147046718 0.256751794125363 C 0.0 **** 0.0
92 C81166 0.589843487555088 0.0533115716155558 0.252749153092376 C 0.0 **** 0.0
93 C81167 0.603274929982609 0.0400907881099392 0.247870062943438 C 0.0 **** 0.0
94 C81173 0.684056874880692 0.0341256289901369 0.248203445909893 C 0.0 **** 0.0
95 C81174 0.666944100800182 0.0384104327336541 0.246073392885015 C 0.0 **** 0.0
96 C81178 0.717883501637722 0.0259685693578059 0.252459901434548 C 0.0 **** 0.0
97 C81179 0.705875438782308 0.0200658078587635 0.264307317604959 C 0.0 **** 0.0
98 C81180 0.689122430194129 0.0233709831723755 0.261535562599907 C 0.0 **** 0.0
99 C81185 0.734334377839028 0.0193647463522083 0.253386016262675 C 0.0 **** 0.0
100 C81186 0.746229842577886 0.0239626620445535 0.241498617417702 C 0.0 **** 0.0
101 C81187 0.741615714244116 0.0353218091695853 0.229117982505859 C 0.0 **** 0.0
102 O81192 0.710434965468798 0.0107873484577224 0.278361753026472 O 0.0 **** 0.0
103 C81193 0.725881668189258 0.00274660580321225 0.278423030723043 C 0.0 **** 0.0
104 C81194 0.73807828651057 0.00653381665524403 0.266777832283761 C 0.0 **** 0.0
105 C81199 0.764066480993885 0.0168984626917925 0.24133260638695 C 0.0 **** 0.0
106 C81200 0.766725391590852 0.00103079548022649 0.253385782008032 C 0.0 **** 0.0
107 C81201 0.753247075139086 -0.00171893470103135 0.266942662008828 C 0.0 **** 0.0
108 C81206 0.784369261887229 0.00140818168916431 0.261829144978692 C 0.0 **** 0.0
109 C81207 0.798265569281431 0.00643066537166244 0.24927708635503 C 0.0 **** 0.0
110 C81208 0.794859625597461 0.0242398247898639 0.241803380269464 C 0.0 **** 0.0
111 C81209 0.776918135249632 0.0306788089043673 0.245669230713708 C 0.0 **** 0.0
112 C81215 0.756502776616887 -0.0132227989129823 0.279399253889641 C 0.0 **** 0.0
113 C81216 0.744146447105537 -0.0173186696708576 0.290861273221829 C 0.0 **** 0.0
114 C81217 0.72892528063312 -0.00925750329203271 0.290465432015289 C 0.0 **** 0.0
115 C81222 0.787224231657957 -0.0154055602594385 0.270818447256909 C 0.0 **** 0.0
116 C81224 0.773576610969236 -0.0217308132746135 0.279849642922897 C 0.0 **** 0.0
117 C81227 0.676629815731801 0.225384414765907 0.216827554067621 C 0.0 **** 0.0
118 C81229 0.684870014190457 0.209715342848323 0.224656511386201 C 0.0 **** 0.0
119 C81231 0.686632034662012 0.241131545962933 0.222111043778719 C 0.0 **** 0.0
120 O81233 0.731298269882684 0.0804262257601939 0.159977522812841 O 0.0 **** 0.0
121 C81235 0.716761254090959 -0.0132649282792831 0.302090633263442 C 0.0 **** 0.0
122 C81236 0.719689744491983 -0.0253585030058195 0.313982214873044 C 0.0 **** 0.0
123 C81237 0.734655337505297 -0.0339183697361232 0.31413892123607 C 0.0 **** 0.0
124 C81238 0.746842356831917 -0.0297290038425518 0.302584410927311 C 0.0 **** 0.0
125 C81244 0.762927120827315 -0.0392934695680899 0.302439746064596 C 0.0 **** 0.0
126 C81245 0.765040406743814 -0.0521200912734909 0.313785676659172 C 0.0 **** 0.0
127 C81246 0.751456468281487 -0.0560273997394078 0.326002096556252 C 0.0 **** 0.0
128 C81247 0.736858781963555 -0.0466902352753774 0.32581477869144 C 0.0 **** 0.0
129 C81253 0.753646375838473 -0.0691093488237159 0.337115091098553 C 0.0 **** 0.0
130 C81254 0.768117988472881 -0.0787096839320629 0.337014262015965 C 0.0 **** 0.0
131 C81255 0.781029592432607 -0.075583580386623 0.325894390363558 C 0.0 **** 0.0
132 C81256 0.779564405708378 -0.061489919378843 0.313703154131212 C 0.0 **** 0.0
133 C81262 0.792744128583168 -0.0578682238601188 0.302383305452702 C 0.0 **** 0.0
134 C81263 0.790935397345382 -0.044326620050705 0.291226869233787 C 0.0 **** 0.0
135 C81264 0.775714911406745 -0.0353246561462907 0.290862653589701 C 0.0 **** 0.0
136 C81269 0.807759404342664 -0.0671480094964781 0.30264967864272 C 0.0 **** 0.0
137 C81270 0.807887980097522 -0.0822117363544917 0.314542968822056 C 0.0 **** 0.0
138 C81271 0.795075275464888 -0.0855703134365013 0.325629631932031 C 0.0 **** 0.0
139 C81276 0.802377318336998 -0.0240592535342624 0.27155945826555 C 0.0 **** 0.0
140 C81277 0.804536926183915 -0.0392203812975289 0.281027778920961 C 0.0 **** 0.0
141 C81282 0.821296170024522 -0.0621730724628121 0.29254290067721 C 0.0 **** 0.0
142 C81283 0.819723754957905 -0.0486372218623802 0.281370179062029 C 0.0 **** 0.0
143 C81287 0.834650808538161 -0.0434302807978314 0.270323952752004 C 0.0 **** 0.0
144 C81288 0.844744598791149 -0.058855879388744 0.264300802681855 C 0.0 **** 0.0
145 C81289 0.849939418374204 -0.0698906542185841 0.279032620931413 C 0.0 **** 0.0
146 C81290 0.837988560855189 -0.0711123711692306 0.293762721910145 C 0.0 **** 0.0
147 O81296 0.842935871547737 -0.0785020734705852 0.306272147796388 O 0.0 **** 0.0
148 H81298 0.514447022956687 0.248156463349554 0.220784480964252 H 0.0 **** 0.0
149 H81300 0.526209385749409 0.240406106141938 0.23810652450433 H 0.0 **** 0.0
150 H81302 0.539949185305831 0.263357895140312 0.215630722818745 H 0.0 **** 0.0
151 H81304 0.552421667727066 0.248413981197781 0.226302569411035 H 0.0 **** 0.0
152 H81306 0.537381365113621 0.243280044021347 0.191203774494294 H 0.0 **** 0.0
153 H81308 0.545875147777539 0.215969796929064 0.190918157225655 H 0.0 **** 0.0
154 H81310 0.5451573448587 0.216472179731514 0.229531157700377 H 0.0 **** 0.0
155 H81312 0.535581723006853 0.202122201807649 0.215312521437009 H 0.0 **** 0.0
156 H81314 0.574032173169808 0.225932291514423 0.21493420889374 H 0.0 **** 0.0
157 H81316 0.592432805898752 0.223537851034099 0.191392187951305 H 0.0 **** 0.0
158 H81318 0.56317382557425 0.235101110215927 0.170393148349316 H 0.0 **** 0.0
159 H81320 0.582649117191384 0.245424664544416 0.173577776301287 H 0.0 **** 0.0
160 H81322 0.559934945790576 0.262359728090875 0.186954786806553 H 0.0 **** 0.0
161 H81324 0.572523619242994 0.253483921031687 0.203105217572945 H 0.0 **** 0.0
162 H81326 0.578283635856474 0.185134401286323 0.169034270820079 H 0.0 **** 0.0
163 H81328 0.557203402066512 0.187836202008813 0.19091532796283 H 0.0 **** 0.0
164 H81330 0.585607096187706 0.19838976570228 0.214966794687179 H 0.0 **** 0.0
165 H81332 0.564419007123658 0.19554178973229 0.220609218841626 H 0.0 **** 0.0
166 H81334 0.603324514979534 0.198937303886804 0.195178665386133 H 0.0 **** 0.0
167 H81336 0.582969300200718 0.121383150554211 0.205127565813672 H 0.0 **** 0.0
168 H81338 0.58632041463975 0.132915058615738 0.223790642463454 H 0.0 **** 0.0
169 H81340 0.55745123388611 0.137312683982705 0.221619819253279 H 0.0 **** 0.0
170 H81342 0.557113706512414 0.133383314331506 0.199781009255406 H 0.0 **** 0.0
171 H81344 0.548786590439147 0.163657992071597 0.207992873431318 H 0.0 **** 0.0
172 H81346 0.629814424979058 0.201451248243283 0.189533257439198 H 0.0 **** 0.0
173 H81347 0.62501089606894 0.189885415168345 0.133229086459309 H 0.0 **** 0.0
174 H81349 0.619072873734982 0.211481964441331 0.133102637919052 H 0.0 **** 0.0
175 H81351 0.596347890088753 0.196857108330945 0.149375678912429 H 0.0 **** 0.0
176 H81353 0.652125447362743 0.207339077672792 0.125391306216067 H 0.0 **** 0.0
177 H81355 0.644982448005726 0.226893990981585 0.133715371224847 H 0.0 **** 0.0
178 H81357 0.67296482579268 0.231241577493009 0.139665609059448 H 0.0 **** 0.0
179 H81359 0.67805113767237 0.209537929616887 0.138214966880367 H 0.0 **** 0.0
180 H81361 0.649782503480994 0.213021345233237 0.199141207908681 H 0.0 **** 0.0
181 H81363 0.666093032301819 0.198191729286416 0.196174137353605 H 0.0 **** 0.0
182 H81365 0.669152505188177 0.236666393399068 0.193453006544969 H 0.0 **** 0.0
183 H81367 0.69513036916155 0.208309124161824 0.189582738730613 H 0.0 **** 0.0
184 H81369 0.701001763209802 0.229766097996316 0.191528399988106 H 0.0 **** 0.0
185 H81371 0.697496937000603 0.218366234275978 0.160999122780162 H 0.0 **** 0.0
186 H81373 0.687604799852026 0.237856576108482 0.165949689904667 H 0.0 **** 0.0
187 H81375 0.652460659888561 0.173006282230418 0.158732192193751 H 0.0 **** 0.0
188 H81377 0.694908767525818 0.120119053815912 0.164685716456566 H 0.0 **** 0.0
189 H81379 0.714656032242378 0.0988434544717395 0.17270426499532 H 0.0 **** 0.0
190 H81381 0.62340697503527 0.0954142865238737 0.214655656150749 H 0.0 **** 0.0
191 H81383 0.760960216901535 0.0791346983727465 0.208311740461139 H 0.0 **** 0.0
192 H81385 0.747969860383436 0.0936086902841848 0.186965770377445 H 0.0 **** 0.0
193 H81387 0.742285667129279 0.0593750190661368 0.170384870146071 H 0.0 **** 0.0
194 H81389 0.769587987671915 0.0754022242796407 0.160755422039778 H 0.0 **** 0.0
195 H81391 0.761306657632199 0.0961219411813018 0.160383292725557 H 0.0 **** 0.0
196 H81393 0.778433717660757 0.102298056468584 0.18715340932551 H 0.0 **** 0.0
197 H81395 0.791298136359388 0.0984326543796499 0.16930632285916 H 0.0 **** 0.0
198 H81397 0.798972034360776 0.0715067305812013 0.177823793569391 H 0.0 **** 0.0
199 H81399 0.776232660388129 0.0552291263906751 0.182598326611981 H 0.0 **** 0.0
200 H81401 0.782464987003431 0.0594499160077284 0.220181095356875 H 0.0 **** 0.0
201 H81403 0.779994374749388 0.0405889473047912 0.208293944025536 H 0.0 **** 0.0
202 H81405 0.807886316923477 0.0472470065335026 0.193821119347265 H 0.0 **** 0.0
203 H81407 0.810872083412139 0.0444697561252606 0.215684208686626 H 0.0 **** 0.0
204 H81409 0.825129022802355 0.0708527311439678 0.201096974439283 H 0.0 **** 0.0
205 H81411 0.815455316817445 0.0736570712911941 0.220952834159235 H 0.0 **** 0.0
206 H81413 0.795261046711187 0.0896892282348237 0.209441574816574 H 0.0 **** 0.0
207 H81415 0.615090086558639 0.0376024161723576 0.222967924633047 H 0.0 **** 0.0
208 H81417 0.599380433861427 0.063187704284218 0.222057786763461 H 0.0 **** 0.0
209 H81419 0.623192420902765 0.0779815630161266 0.248580765665303 H 0.0 **** 0.0
210 H81421 0.606924304784476 0.0886891672232468 0.237873972972514 H 0.0 **** 0.0
211 H81423 0.58778182573209 0.0800621933910372 0.258279654209651 H 0.0 **** 0.0
212 H81425 0.604315661761701 0.0697594555810287 0.269062517458673 H 0.0 **** 0.0
213 H81427 0.580735699530162 0.0547738138034245 0.242298079495531 H 0.0 **** 0.0
214 H81429 0.582463127831478 0.048738090584002 0.263670240161728 H 0.0 **** 0.0
215 H81431 0.596809807593896 0.028247188861557 0.244524633738982 H 0.0 **** 0.0
216 H81433 0.610819956710717 0.037268170933011 0.259169672990742 H 0.0 **** 0.0
217 H81435 0.65739179003096 0.0323428115246692 0.254077369839946 H 0.0 **** 0.0
218 H81437 0.679551490593871 0.0182377301207933 0.270192015793603 H 0.0 **** 0.0
219 H81439 0.75172251401226 0.0382396389418835 0.22017714668355 H 0.0 **** 0.0
220 H81441 0.76685573537011 0.0125277000253239 0.228362984115279 H 0.0 **** 0.0
221 H81443 0.766306028331728 -0.0102015137802075 0.245100609363722 H 0.0 **** 0.0
222 H81445 0.784143218354203 0.0112272922401941 0.271735795050667 H 0.0 **** 0.0
223 H81447 0.798550984701366 -0.00303751162405214 0.239093251753397 H 0.0 **** 0.0
224 H81449 0.810801801022867 0.00629153489082283 0.255312833431688 H 0.0 **** 0.0
225 H81451 0.796348862270333 0.0237832886534638 0.227991534980166 H 0.0 **** 0.0
226 H81453 0.804341957326972 0.0333345497770292 0.246336851105224 H 0.0 **** 0.0
227 H81455 0.774470587056012 0.04240700224044 0.238652082574438 H 0.0 **** 0.0
228 H81457 0.775634061630333 0.0340020319792842 0.259123013036064 H 0.0 **** 0.0
229 H81459 0.663851701313187 0.226621340177636 0.222376802580664 H 0.0 **** 0.0
230 H81461 0.685678184877762 0.21095049494918 0.238502013859744 H 0.0 **** 0.0
231 H81463 0.697794949193107 0.207992499588737 0.219806425008642 H 0.0 **** 0.0
232 H81465 0.67769821639314 0.198122824884401 0.221928096352649 H 0.0 **** 0.0
233 H81467 0.681114852030658 0.25276816326787 0.216841538894352 H 0.0 **** 0.0
234 H81469 0.699828007496417 0.240315217016135 0.217808450914154 H 0.0 **** 0.0
235 H81471 0.686820537267813 0.242446467316121 0.2359708749976 H 0.0 **** 0.0
236 H81473 0.720916418590314 0.0748872856861162 0.157431852996908 H 0.0 **** 0.0
237 H81475 0.704481149015246 -0.00700788622074952 0.302032664376315 H 0.0 **** 0.0
238 H81477 0.709727736146144 -0.0282619942290401 0.323044672756168 H 0.0 **** 0.0
239 H81479 0.726733770558532 -0.0496854992715383 0.334713436656966 H 0.0 **** 0.0
240 H81481 0.743740896687131 -0.0723213035138435 0.34616073686135 H 0.0 **** 0.0
241 H81483 0.769054589799488 -0.0891096797376464 0.346017514721429 H 0.0 **** 0.0
242 H81485 0.818570687727749 -0.0908727980381742 0.314363675294227 H 0.0 **** 0.0
243 H81487 0.796304582745444 -0.0963907511783576 0.33404646405892 H 0.0 **** 0.0
244 H81489 0.813003459545333 -0.0188542240519316 0.264365448367259 H 0.0 **** 0.0
245 H81491 0.830443107934209 -0.036502694946147 0.259047650527513 H 0.0 **** 0.0
246 H81493 0.842913396527337 -0.0347264284852497 0.277403973754631 H 0.0 **** 0.0
247 H81495 0.855979324652885 -0.0549711153159689 0.257042036926369 H 0.0 **** 0.0
248 H81497 0.836821833262138 -0.0662233989226709 0.255610904121616 H 0.0 **** 0.0
249 H81499 0.86154114436342 -0.0658170521273766 0.28541204671116 H 0.0 **** 0.0
250 H81501 0.852295995727435 -0.0831395741010424 0.275648925862327 H 0.0 **** 0.0
@<TRIPOS>BOND
1 3 2 1
2 4 3 1
3 5 4 1
4 6 5 1
5 1 2 1
6 1 6 1
7 8 7 1
8 9 8 1
9 10 9 1
10 4 7 1
11 3 10 1
12 12 11 1
13 13 12 1
14 14 13 1
15 8 11 1
16 7 14 1
17 16 15 1
18 17 16 Partial double
19 18 17 1
20 13 15 1
21 12 18 1
22 20 19 Partial double
23 21 20 Partial double
24 22 21 Partial double
25 17 19 Partial double
26 16 22 Partial double
27 24 23 1
28 25 24 1
29 15 25 Double
30 22 23 1
31 27 26 1
32 28 27 Partial double
33 29 28 Partial double
34 21 26 1
35 20 29 Partial double
36 31 30 1
37 32 31 1
38 18 30 1
39 19 32 1
40 34 33 Double
41 35 34 1
42 36 35 1
43 31 33 1
44 30 36 Double
45 38 37 1
46 39 38 1
47 40 39 Double
48 34 37 1
49 33 40 1
50 42 41 1
51 43 42 1
52 44 43 1
53 40 41 1
54 39 44 1
55 46 45 Partial double
56 32 46 1
57 29 45 Partial double
58 48 47 Partial double
59 49 48 1
60 45 49 Partial double
61 28 47 Partial double
62 51 50 Partial double
63 52 51 Partial double
64 53 52 Partial double
65 48 50 Partial double
66 47 53 Partial double
67 55 54 Partial double
68 56 55 Partial double
69 57 56 Partial double
70 52 54 Partial double
71 51 57 Partial double
72 59 58 Partial double
73 60 59 Partial double
74 61 60 Partial double
75 56 58 Partial double
76 55 61 Partial double
77 63 62 Partial double
78 27 63 Partial double
79 53 62 Partial double
80 65 64 Partial double
81 62 65 Partial double
82 54 64 Partial double
83 67 66 Partial double
84 64 67 Partial double
85 61 66 Partial double
86 69 68 Partial double
87 70 69 Partial double
88 66 70 Partial double
89 60 68 Partial double
90 72 71 1
91 73 72 1
92 74 73 1
93 59 71 1
94 58 74 1
95 76 75 1
96 77 76 1
97 78 77 1
98 73 75 1
99 72 78 1
100 80 79 1
101 81 80 1
102 82 81 1
103 78 79 1
104 77 82 1
105 84 83 Partial double
106 85 84 Partial double
107 67 85 Partial double
108 65 83 Partial double
109 87 86 1
110 88 87 1
111 89 88 1
112 84 86 1
113 83 89 1
114 91 90 1
115 92 91 1
116 93 92 1
117 88 90 1
118 87 93 1
119 95 94 Partial double
120 85 95 Partial double
121 70 94 Partial double
122 97 96 Partial double
123 98 97 Partial double
124 94 98 Partial double
125 69 96 Partial double
126 100 99 Partial double
127 101 100 Partial double
128 68 101 Partial double
129 96 99 Partial double
130 103 102 1
131 104 103 Partial double
132 97 102 1
133 99 104 1
134 106 105 1
135 107 106 1
136 100 105 1
137 104 107 Partial double
138 109 108 1
139 110 109 1
140 111 110 1
141 106 108 1
142 105 111 1
143 113 112 1
144 114 113 1
145 103 114 Partial double
146 107 112 Partial double
147 108 115 1
148 112 116 Partial double
149 115 116 Partial double
150 42 117 1
151 117 118 1
152 117 119 1
153 74 120 1
154 122 121 1
155 123 122 Partial double
156 124 123 1
157 114 121 Partial double
158 113 124 Partial double
159 126 125 Partial double
160 127 126 1
161 128 127 Partial double
162 124 125 Partial double
163 123 128 Partial double
164 130 129 Partial double
165 131 130 1
166 132 131 1
167 127 129 Partial double
168 126 132 Partial double
169 134 133 Partial double
170 135 134 Partial double
171 125 135 Partial double
172 132 133 Partial double
173 137 136 Partial double
174 138 137 Partial double
175 131 138 Partial double
176 133 136 Partial double
177 140 139 Partial double
178 134 140 Partial double
179 116 135 Partial double
180 115 139 Partial double
181 142 141 Partial double
182 140 142 Partial double
183 136 141 Partial double
184 144 143 1
185 145 144 1
186 146 145 1
187 142 143 1
188 141 146 1
189 146 147 Double
190 1 148 1
191 1 149 1
192 2 150 1
193 2 151 1
194 3 152 1
195 4 153 1
196 5 154 1
197 5 155 1
198 7 156 1
199 8 157 1
200 9 158 1
201 9 159 1
202 10 160 1
203 10 161 1
204 12 162 1
205 13 163 1
206 14 164 1
207 14 165 1
208 18 166 1
209 23 167 1
210 23 168 1
211 24 169 1
212 24 170 1
213 25 171 1
214 35 173 1
215 35 174 1
216 36 175 1
217 37 176 1
218 37 177 1
219 38 178 1
220 38 179 1
221 41 180 1
222 41 181 1
223 42 182 1
224 43 183 1
225 43 184 1
226 44 185 1
227 44 186 1
228 46 187 1
229 50 188 1
230 57 189 1
231 63 190 1
232 72 191 1
233 73 192 1
234 74 193 1
235 75 194 1
236 75 195 1
237 76 196 1
238 76 197 1
239 77 198 1
240 78 199 1
241 79 200 1
242 79 201 1
243 80 202 1
244 80 203 1
245 81 204 1
246 81 205 1
247 82 206 1
248 87 207 1
249 88 208 1
250 90 209 1
251 90 210 1
252 91 211 1
253 91 212 1
254 92 213 1
255 92 214 1
256 93 215 1
257 93 216 1
258 95 217 1
259 98 218 1
260 101 219 1
261 105 220 1
262 106 221 1
263 108 222 1
264 109 223 1
265 109 224 1
266 110 225 1
267 110 226 1
268 111 227 1
269 111 228 1
270 117 229 1
271 118 230 1
272 118 231 1
273 118 232 1
274 119 233 1
275 119 234 1
276 119 235 1
277 120 236 1
278 121 237 1
279 122 238 1
280 128 239 1
281 129 240 1
282 130 241 1
283 137 242 1
284 138 243 1
285 139 244 1
286 143 245 1
287 143 246 1
288 144 247 1
289 144 248 1
290 145 249 1
291 145 250 1
292 31 172 1
@<TRIPOS>MOLECULE
Sketch 4
250 292
SMALL
USER_CHARGES


@<TRIPOS>ATOM
1 C81504 0.600248070902278 -0.0198371902191644 0.229171326565225 C 0.0 **** 0.0
2 C81505 0.598506079283455 -0.0292884465993824 0.246259188234963 C 0.0 **** 0.0
3 C81506 0.595046651353176 -0.0171690910135597 0.261149077894355 C 0.0 **** 0.0
4 C81507 0.608267098814739 -0.00238370348083052 0.261836865231446 C 0.0 **** 0.0
5 C81508 0.616445980587166 -0.000439596379637325 0.244124899152113 C 0.0 **** 0.0
6 O81509 0.604129449795124 -0.00239736255249809 0.231188455265744 O 0.0 **** 0.0
7 C81516 0.621495904926936 -0.00443822785687774 0.276146700989406 C 0.0 **** 0.0
8 C81517 0.613467365461409 -0.00737557268689234 0.293967881393933 C 0.0 **** 0.0
9 C81518 0.5956409832681 -0.0150516803031856 0.292936323009488 C 0.0 **** 0.0
10 C81519 0.593477008626902 -0.0269118691199891 0.277910052116065 C 0.0 **** 0.0
11 O81525 0.611514221754743 0.00735754499828768 0.304277794405823 O 0.0 **** 0.0
12 C81526 0.626046879145023 0.0180135366833956 0.305887484396308 C 0.0 **** 0.0
13 C81527 0.630650253463361 0.0244884216502157 0.288201257891856 C 0.0 **** 0.0
14 C81528 0.635104513893437 0.00968312752108378 0.27647937143746 C 0.0 **** 0.0
15 C81534 0.64480097452705 0.0372333558540655 0.289576767440736 C 0.0 **** 0.0
16 C81535 0.659617907197915 0.0318116412290872 0.300119295654774 C 0.0 **** 0.0
17 C81536 0.657998858853524 0.0182728433381235 0.311086849759383 C 0.0 **** 0.0
18 C81537 0.641325937242225 0.00947508522806401 0.314540576445475 C 0.0 **** 0.0
19 C81543 0.671907720682908 0.0128449074505124 0.320350872756708 C 0.0 **** 0.0
20 C81544 0.687096736063043 0.0213308123032877 0.318588466224275 C 0.0 **** 0.0
21 C81545 0.688729037421855 0.0349112992360505 0.30757369708848 C 0.0 **** 0.0
22 C81546 0.674708183395697 0.040596898644995 0.298655653348325 C 0.0 **** 0.0
23 C81552 0.676271660143139 0.0559547317145319 0.28726970077324 C 0.0 **** 0.0
24 C81553 0.659002947649386 0.0648759862164397 0.284415959158413 C 0.0 **** 0.0
25 C81554 0.644573384392634 0.0525635466870659 0.282174226307151 C 0.0 **** 0.0
26 O81559 0.704080855140676 0.0430084437292554 0.305239674201289 O 0.0 **** 0.0
27 C81560 0.718526044752337 0.0355694502555348 0.31163105253425 C 0.0 **** 0.0
28 C81561 0.71828575710482 0.0234250728295515 0.324209505263112 C 0.0 **** 0.0
29 C81562 0.701630852038656 0.0159817697710987 0.329286971248614 C 0.0 **** 0.0
30 C81568 0.641489941500166 0.00869642192874832 0.333554025817063 C 0.0 **** 0.0
31 C81569 0.652410958625429 -0.00601251816971049 0.339135389254641 C 0.0 **** 0.0
32 C81570 0.67059263570852 -0.00215728403564922 0.332441818603037 C 0.0 **** 0.0
33 C81575 0.65061745035911 -0.0101682355473187 0.358279748801849 C 0.0 **** 0.0
34 C81576 0.646230683598187 0.00287804214042915 0.368715475744794 C 0.0 **** 0.0
35 C81577 0.642248393506217 0.0206040511072627 0.362635833818012 C 0.0 **** 0.0
36 C81578 0.637593012287806 0.0213755054925613 0.344129569534068 C 0.0 **** 0.0
37 C81584 0.645053666147537 0.00133235715838863 0.387628895842747 C 0.0 **** 0.0
38 C81585 0.642529878892169 -0.0169671502886884 0.393524628230757 C 0.0 **** 0.0
39 C81586 0.648593050627146 -0.029872799670505 0.380979257794366 C 0.0 **** 0.0
40 C81587 0.65243430562341 -0.0262516833674061 0.36452104874492 C 0.0 **** 0.0
41 C81593 0.657896287143797 -0.0413855934699913 0.353555090627555 C 0.0 **** 0.0
42 C81594 0.64824347095105 -0.0574430360500134 0.358187704366472 C 0.0 **** 0.0
43 C81595 0.652170637725576 -0.0618826929414267 0.376707312721711 C 0.0 **** 0.0
44 C81596 0.647620185537074 -0.0473495461831227 0.388662839850285 C 0.0 **** 0.0
45 C81602 0.69988015905218 0.00460426116272407 0.342023253991506 C 0.0 **** 0.0
46 C81603 0.685192513726963 -0.00393909500558973 0.344790096155737 C 0.0 **** 0.0
47 C81607 0.733719819005669 0.0165526803046237 0.330105874129261 C 0.0 **** 0.0
48 C81608 0.734041369713246 0.00379128333004097 0.342549007255561 C 0.0 **** 0.0
49 S81609 0.716762838316597 0.00101540105160536 0.355530250546435 S 0.0 **** 0.0
50 C81614 0.747650172127096 -0.00662086476025924 0.344721096377203 C 0.0 **** 0.0
51 C81615 0.762460070528255 -0.00351811039859631 0.33526884582494 C 0.0 **** 0.0
52 C81616 0.763217903107329 0.0105896697956281 0.324209795201165 C 0.0 **** 0.0
53 C81617 0.748940021175653 0.0206996503154992 0.321880040191244 C 0.0 **** 0.0
54 C81623 0.778177934390978 0.013821870016757 0.315476530794949 C 0.0 **** 0.0
55 C81624 0.792547542153333 0.0037545249307618 0.318205497995033 C 0.0 **** 0.0
56 C81625 0.79252565281636 -0.00891399926015848 0.330865218051278 C 0.0 **** 0.0
57 C81626 0.776861952344391 -0.0135348239419949 0.337699723175162 C 0.0 **** 0.0
58 C81632 0.807846327786184 -0.0159335273570254 0.336377638125381 C 0.0 **** 0.0
59 C81633 0.822074462596454 -0.0137140288190005 0.326458386623118 C 0.0 **** 0.0
60 C81634 0.821804343883406 -0.00305202475648019 0.312083281527844 C 0.0 **** 0.0
61 C81635 0.807300733301917 0.00668181131660905 0.309116038197148 C 0.0 **** 0.0
62 C81641 0.749328590476583 0.0338063095022927 0.309918199724217 C 0.0 **** 0.0
63 C81642 0.733669685410575 0.0406412645093647 0.304862431260494 C 0.0 **** 0.0
64 C81646 0.779023112650433 0.0276682323341353 0.304592716985092 C 0.0 **** 0.0
65 C81647 0.765062331321139 0.0384261788436559 0.302511626014962 C 0.0 **** 0.0
66 C81651 0.807831521923428 0.0200618653634032 0.297631443880606 C 0.0 **** 0.0
67 C81652 0.793969442134142 0.0309104167081278 0.296082659055201 C 0.0 **** 0.0
68 C81656 0.836099597915895 -0.000997536478858682 0.30125898206508 C 0.0 **** 0.0
69 C81657 0.836289536203838 0.0124707346092327 0.289616142712761 C 0.0 **** 0.0
70 C81658 0.822361343248344 0.0229283677970853 0.28806243049928 C 0.0 **** 0.0
71 O81663 0.836827464909576 -0.0218780455888805 0.331468614360995 O 0.0 **** 0.0
72 C81664 0.835020622692183 -0.0395520035774497 0.335437824738633 C 0.0 **** 0.0
73 C81665 0.818071759469761 -0.0435969048223721 0.344746889436923 C 0.0 **** 0.0
74 C81666 0.811057614339262 -0.0270309919259971 0.351796322239318 C 0.0 **** 0.0
75 C81672 0.819918820632138 -0.0577489789356757 0.358091031005621 C 0.0 **** 0.0
76 C81673 0.832098478665634 -0.0712247087916439 0.351540354382134 C 0.0 **** 0.0
77 C81674 0.850204138723923 -0.0642564147922229 0.350767642559634 C 0.0 **** 0.0
78 C81675 0.850626372590277 -0.0451417005159733 0.345859854538315 C 0.0 **** 0.0
79 C81681 0.867593220457359 -0.0401065847274579 0.337550979163106 C 0.0 **** 0.0
80 C81682 0.881728047745947 -0.0513251884663932 0.344596315740004 C 0.0 **** 0.0
81 C81683 0.878780857950195 -0.0702169319204168 0.340321614107804 C 0.0 **** 0.0
82 N81684 0.860784706448539 -0.0750874671467107 0.340375970281537 N 0.0 **** 0.0
83 C81690 0.766739461649469 0.0536690505341779 0.293223960495781 C 0.0 **** 0.0
84 C81691 0.781591214700032 0.0569644579158949 0.284606362827681 C 0.0 **** 0.0
85 C81692 0.795038279877423 0.0453004999990586 0.285721574591277 C 0.0 **** 0.0
86 O81697 0.78379146322742 0.0711811109482881 0.274536284407332 O 0.0 **** 0.0
87 C81698 0.771999684675237 0.0843460526773437 0.278211444166153 C 0.0 **** 0.0
88 C81699 0.754506066314892 0.0771672915528171 0.279352679245809 C 0.0 **** 0.0
89 O81700 0.753519800559555 0.0651943262925803 0.292780233696008 O 0.0 **** 0.0
90 C81706 0.748368403899674 0.0693470355870614 0.262462624376047 C 0.0 **** 0.0
91 C81707 0.756441733599805 0.0776510137668502 0.246750193754765 C 0.0 **** 0.0
92 C81708 0.760537298252249 0.0962999869691636 0.250068087728361 C 0.0 **** 0.0
93 C81709 0.773507379152281 0.09825272249532 0.264619254796224 C 0.0 **** 0.0
94 C81715 0.823295413289756 0.0369685369249487 0.276959895879837 C 0.0 **** 0.0
95 C81716 0.80966679860591 0.0482929068036734 0.276239784317633 C 0.0 **** 0.0
96 C81720 0.851010799927504 0.0158284979612114 0.280271299306255 C 0.0 **** 0.0
97 C81721 0.851790469049191 0.029532705871435 0.268797541158164 C 0.0 **** 0.0
98 C81722 0.837915652705129 0.0397301995059214 0.267086694811914 C 0.0 **** 0.0
99 C81727 0.865636147673067 0.00604468168884173 0.282558081079988 C 0.0 **** 0.0
100 C81728 0.865374761525978 -0.00778039610243886 0.293190241973519 C 0.0 **** 0.0
101 C81729 0.850632222427665 -0.0112722152752733 0.301732703981324 C 0.0 **** 0.0
102 O81734 0.865953743290266 0.0328954826474676 0.259149950470639 O 0.0 **** 0.0
103 C81735 0.88106740549249 0.0253663756658479 0.263522393350969 C 0.0 **** 0.0
104 C81736 0.881484116030511 0.0116071013971169 0.273972616247423 C 0.0 **** 0.0
105 C81741 0.880528983342383 -0.019101838061729 0.296294519052477 C 0.0 **** 0.0
106 C81742 0.897709597052847 -0.0112785547445461 0.289652955150185 C 0.0 **** 0.0
107 C81743 0.896348524110427 0.00361603271229699 0.277472479516658 C 0.0 **** 0.0
108 C81748 0.909336023167878 -0.0249366146022714 0.281917014459156 C 0.0 **** 0.0
109 C81749 0.909437910767915 -0.0410535709317585 0.292754832317865 C 0.0 **** 0.0
110 C81750 0.891659903492804 -0.0491894228205157 0.293321487284741 C 0.0 **** 0.0
111 C81751 0.877391882480336 -0.0366687593508197 0.288869592267351 C 0.0 **** 0.0
112 C81757 0.910888883254864 0.00931232039992143 0.270223413199845 C 0.0 **** 0.0
113 C81758 0.910790816154742 0.0238600018979796 0.260823769324343 C 0.0 **** 0.0
114 C81759 0.895889639758583 0.0317849538259902 0.257298375943014 C 0.0 **** 0.0
115 C81764 0.926615407591325 -0.0167901826085218 0.279471369345969 C 0.0 **** 0.0
116 C81766 0.926970060522976 -0.000313297412998674 0.27345839104468 C 0.0 **** 0.0
117 C81769 0.651528439491733 -0.0721304708779267 0.345697634835854 C 0.0 **** 0.0
118 C81771 0.669606562965896 -0.0791325963695397 0.346295514542463 C 0.0 **** 0.0
119 C81773 0.638885036900615 -0.0866226892558611 0.348133005593018 C 0.0 **** 0.0
120 O81775 0.796901962917338 -0.0299407029190034 0.362514134576423 O 0.0 **** 0.0
121 C81777 0.895956601634343 0.0461357778359794 0.247646324661432 C 0.0 **** 0.0
122 C81778 0.910808870168328 0.0528182082757226 0.242002090093207 C 0.0 **** 0.0
123 C81779 0.925815223012392 0.0451917326107917 0.245835094263196 C 0.0 **** 0.0
124 C81780 0.925649944206201 0.0305916319179822 0.255111628853844 C 0.0 **** 0.0
125 C81786 0.941889831040113 0.0222437297194738 0.259349755222522 C 0.0 **** 0.0
126 C81787 0.956581747163636 0.0291917202455438 0.253576750204671 C 0.0 **** 0.0
127 C81788 0.955993708227553 0.0451499063276477 0.243875959575972 C 0.0 **** 0.0
128 C81789 0.940680457971869 0.0524578158178649 0.240298737605618 C 0.0 **** 0.0
129 C81795 0.970825627919977 0.0522749976091226 0.23854926136958 C 0.0 **** 0.0
130 C81796 0.986094439592461 0.0445493125530524 0.241489703510102 C 0.0 **** 0.0
131 C81797 0.987179785753778 0.0294191725064081 0.24986298938233 C 0.0 **** 0.0
132 C81798 0.971733320920286 0.0214173152422024 0.256658916524842 C 0.0 **** 0.0
133 C81804 0.972606900412401 0.00605054649086335 0.265530172485479 C 0.0 **** 0.0
134 C81805 0.957603396057482 -0.000922496992251871 0.271662035571858 C 0.0 **** 0.0
135 C81806 0.942184818398798 0.00721478452527793 0.268678652738517 C 0.0 **** 0.0
136 C81811 0.98791217793053 -0.00266313074430445 0.267485305716694 C 0.0 **** 0.0
137 C81812 1.00320185172328 0.0062370735165136 0.259872387812735 C 0.0 **** 0.0
138 C81813 1.00233995164676 0.021481917157343 0.251778052506936 C 0.0 **** 0.0
139 C81818 0.941818396879586 -0.0248494565338424 0.282132575791726 C 0.0 **** 0.0
140 C81819 0.95770922729409 -0.016996707344742 0.279072220500996 C 0.0 **** 0.0
141 C81824 0.988170442405183 -0.0182922315852681 0.275792234215494 C 0.0 **** 0.0
142 C81825 0.973197762034786 -0.0253279820205877 0.281921861467291 C 0.0 **** 0.0
143 C81829 0.97259173868331 -0.0424377079468188 0.290873773847587 C 0.0 **** 0.0
144 C81830 0.989032735502938 -0.0461920172769283 0.300069183796404 C 0.0 **** 0.0
145 C81831 1.00324437259881 -0.044717470559109 0.287461804744045 C 0.0 **** 0.0
146 C81832 1.00428270639871 -0.028037031362671 0.278341069719407 C 0.0 **** 0.0
147 O81838 1.0181529912768 -0.0235420341632855 0.273619416837373 O 0.0 **** 0.0
148 H81840 0.588278838121616 -0.0202476949508163 0.222140952132535 H 0.0 **** 0.0
149 H81842 0.609847858840524 -0.0260099589227447 0.221134065076911 H 0.0 **** 0.0
150 H81844 0.588495599431296 -0.0389692613979821 0.245532257117813 H 0.0 **** 0.0
151 H81846 0.610279038512537 -0.0362491890837509 0.24907090115477 H 0.0 **** 0.0
152 H81848 0.582677666668107 -0.0111839250633632 0.25866575902877 H 0.0 **** 0.0
153 H81850 0.601053483142139 0.00922296884391732 0.264610432587731 H 0.0 **** 0.0
154 H81852 0.626841610850314 -0.00962889634219532 0.242536299773953 H 0.0 **** 0.0
155 H81854 0.622050035136466 0.0121161894475762 0.242306256967758 H 0.0 **** 0.0
156 H81856 0.628017599038186 -0.0163658615787258 0.272934890585013 H 0.0 **** 0.0
157 H81858 0.621737596050384 -0.0165394289941481 0.30048948282067 H 0.0 **** 0.0
158 H81860 0.586594873151511 -0.004504686858376 0.291800647218988 H 0.0 **** 0.0
159 H81862 0.592551356986728 -0.0216084433468155 0.304823018062263 H 0.0 **** 0.0
160 H81864 0.581170839689309 -0.0334409346856755 0.278426723940936 H 0.0 **** 0.0
161 H81866 0.603252923553451 -0.0368408272052121 0.278617278757499 H 0.0 **** 0.0
162 H81868 0.62148727594281 0.0287685464223631 0.313441557819981 H 0.0 **** 0.0
163 H81870 0.619360672536713 0.0308927113525143 0.283228572089672 H 0.0 **** 0.0
164 H81872 0.647051015416744 0.00404343655092655 0.280850935176798 H 0.0 **** 0.0
165 H81874 0.637847286526704 0.014302465671873 0.26365970483738 H 0.0 **** 0.0
166 H81876 0.642106136538271 -0.00350918975200087 0.309546272273225 H 0.0 **** 0.0
167 H81878 0.685245449143709 0.0650593608399625 0.292770273814523 H 0.0 **** 0.0
168 H81880 0.68170375793439 0.0523565799631291 0.275008113991426 H 0.0 **** 0.0
169 H81882 0.659867133516797 0.0732701045795524 0.273294913010817 H 0.0 **** 0.0
170 H81884 0.656118309934773 0.0730397266611164 0.295309408992736 H 0.0 **** 0.0
171 H81886 0.63390702187819 0.0571057647177925 0.274733613822897 H 0.0 **** 0.0
172 H81888 0.647537039673682 -0.0170095799114856 0.332090860709809 H 0.0 **** 0.0
173 H81889 0.653040467421478 0.0290399956597132 0.365246927604339 H 0.0 **** 0.0
174 H81891 0.631440312074707 0.025380050489439 0.370032707804234 H 0.0 **** 0.0
175 H81893 0.63207667662566 0.0331084409253916 0.33947719558004 H 0.0 **** 0.0
176 H81895 0.65672973644228 0.00656674460850215 0.393172811362353 H 0.0 **** 0.0
177 H81897 0.634536471151051 0.00911325861053021 0.392507110381101 H 0.0 **** 0.0
178 H81899 0.628946350482859 -0.01920974528883 0.395791600125606 H 0.0 **** 0.0
179 H81901 0.648976306448198 -0.0188353822300398 0.405760272386919 H 0.0 **** 0.0
180 H81903 0.656050264711562 -0.0388242478011946 0.340057391721464 H 0.0 **** 0.0
181 H81905 0.67158023974602 -0.0434086946684253 0.355269435056611 H 0.0 **** 0.0
182 H81907 0.63461331961208 -0.0545237186394452 0.357263169763959 H 0.0 **** 0.0
183 H81909 0.665703986307179 -0.0649003923030195 0.377759675484156 H 0.0 **** 0.0
184 H81911 0.645355070622267 -0.0733348828644744 0.380785921242629 H 0.0 **** 0.0
185 H81913 0.655526805778411 -0.04778555418369 0.400158722872822 H 0.0 **** 0.0
186 H81915 0.634439533764386 -0.0491675516162974 0.392923186477795 H 0.0 **** 0.0
187 H81917 0.683848120184244 -0.0126441461750914 0.355350610735895 H 0.0 **** 0.0
188 H81919 0.747516096270287 -0.0169584640357795 0.353953091892736 H 0.0 **** 0.0
189 H81921 0.775489470131037 -0.0243658161874128 0.346200910512942 H 0.0 **** 0.0
190 H81923 0.732435158977338 0.0496116977505992 0.294399895516345 H 0.0 **** 0.0
191 H81925 0.835283619384212 -0.0464869551777822 0.323368103453577 H 0.0 **** 0.0
192 H81927 0.808795337055625 -0.0483836027070397 0.335459816378532 H 0.0 **** 0.0
193 H81929 0.821106704255216 -0.0211866949071653 0.35960734194981 H 0.0 **** 0.0
194 H81931 0.824739105251515 -0.052595381433968 0.37009991629542 H 0.0 **** 0.0
195 H81933 0.807380958156912 -0.0631562942156845 0.360899801467433 H 0.0 **** 0.0
196 H81935 0.828114302545115 -0.0749839720252337 0.338767071098607 H 0.0 **** 0.0
197 H81937 0.831798285005153 -0.0828530029378888 0.359164799969532 H 0.0 **** 0.0
198 H81939 0.855403810684553 -0.0651129125432818 0.363669327054662 H 0.0 **** 0.0
199 H81941 0.849666155287895 -0.0380414530895852 0.357853492122116 H 0.0 **** 0.0
200 H81943 0.866834295536333 -0.0421496369581636 0.323802446300725 H 0.0 **** 0.0
201 H81945 0.870217752910874 -0.0265744543505552 0.339544605066054 H 0.0 **** 0.0
202 H81947 0.88201336334586 -0.0496910752084557 0.358457792531765 H 0.0 **** 0.0
203 H81949 0.894292512548278 -0.0474732824359543 0.340009361539648 H 0.0 **** 0.0
204 H81951 0.885556064994615 -0.0782940641211465 0.349431799399095 H 0.0 **** 0.0
205 H81953 0.884158180065676 -0.0732016207279896 0.327829602782719 H 0.0 **** 0.0
206 H81955 0.856008133863716 -0.0758716131987798 0.328608658628658 H 0.0 **** 0.0
207 H81957 0.77539252836587 0.0895405807874801 0.290700579869919 H 0.0 **** 0.0
208 H81959 0.745937273300857 0.087662881230372 0.282657485407091 H 0.0 **** 0.0
209 H81961 0.751238360207604 0.0557349278701253 0.262577024315233 H 0.0 **** 0.0
210 H81963 0.734476516755711 0.0702280204655136 0.26169245889387 H 0.0 **** 0.0
211 H81965 0.748067002628689 0.0761851798012486 0.235719032471292 H 0.0 **** 0.0
212 H81967 0.768302964474714 0.0710497511831742 0.243597008717177 H 0.0 **** 0.0
213 H81969 0.748718528627075 0.102890264339739 0.253461797518933 H 0.0 **** 0.0
214 H81971 0.765296681182734 0.102531098577034 0.238545848207982 H 0.0 **** 0.0
215 H81973 0.772369585705485 0.111004780766382 0.270106285616036 H 0.0 **** 0.0
216 H81975 0.786408426350859 0.0974392445691547 0.259442496808533 H 0.0 **** 0.0
217 H81977 0.810467561402926 0.0594003239370945 0.267943692225803 H 0.0 **** 0.0
218 H81979 0.838281856959954 0.0505287893490103 0.25834124265541 H 0.0 **** 0.0
219 H81981 0.851118061198831 -0.0226395297876606 0.309543240636653 H 0.0 **** 0.0
220 H81983 0.882098578312344 -0.0206189477262729 0.310083228695607 H 0.0 **** 0.0
221 H81985 0.904106225744543 -0.00632952140613537 0.301055685003823 H 0.0 **** 0.0
222 H81987 0.90443374373574 -0.0284513716291508 0.269290626056053 H 0.0 **** 0.0
223 H81989 0.91351985842059 -0.0377348935977706 0.305659839885137 H 0.0 **** 0.0
224 H81991 0.918484761914725 -0.0504691772520681 0.28793611039098 H 0.0 **** 0.0
225 H81993 0.889374118460089 -0.0544905551885659 0.305986064596413 H 0.0 **** 0.0
226 H81995 0.891157738328165 -0.0599867177689666 0.284527999941236 H 0.0 **** 0.0
227 H81997 0.865287635629424 -0.0416659703571335 0.293539042113445 H 0.0 **** 0.0
228 H81999 0.87623306991864 -0.0355973096362548 0.275017689782757 H 0.0 **** 0.0
229 H82001 0.649353564541706 -0.0670844771458811 0.332841982597564 H 0.0 **** 0.0
230 H82003 0.671577534371251 -0.0885103659221277 0.33619062761781 H 0.0 **** 0.0
231 H82005 0.672088100821247 -0.0855019315028594 0.358420665464809 H 0.0 **** 0.0
232 H82007 0.679202400077682 -0.0691914253258163 0.344752277799707 H 0.0 **** 0.0
233 H82009 0.62573880899344 -0.082099399318501 0.347405919425693 H 0.0 **** 0.0
234 H82011 0.640596441457574 -0.0927862896500144 0.360487857506625 H 0.0 **** 0.0
235 H82013 0.640529046325854 -0.0963506125296033 0.338308073133829 H 0.0 **** 0.0
236 H82015 0.79356701038109 -0.0190890415075397 0.366459018924309 H 0.0 **** 0.0
237 H82017 0.884212724921199 0.0526098025998542 0.24441010086035 H 0.0 **** 0.0
238 H82019 0.910381405497364 0.0643438052214244 0.234442135476784 H 0.0 **** 0.0
239 H82021 0.940309772813172 0.0641093957974347 0.232920634194428 H 0.0 **** 0.0
240 H82023 0.970753993228922 0.0641282351801634 0.23149668796766 H 0.0 **** 0.0
241 H82025 0.997463071746133 0.0506232973040202 0.236576823722655 H 0.0 **** 0.0
242 H82027 1.01559972659698 0.000470087701078214 0.260707284568445 H 0.0 **** 0.0
243 H82029 1.01393781073186 0.0269680287673973 0.246728834952913 H 0.0 **** 0.0
244 H82031 0.941370334364305 -0.0378794162618042 0.286774403870712 H 0.0 **** 0.0
245 H82033 0.962364125219697 -0.0427066218319806 0.300311209658456 H 0.0 **** 0.0
246 H82035 0.969853713917168 -0.0525587734432489 0.281670688727789 H 0.0 **** 0.0
247 H82037 0.98889464588359 -0.0588047136929111 0.305929906812438 H 0.0 **** 0.0
248 H82039 0.990480396483042 -0.0369627705057604 0.310350953330323 H 0.0 **** 0.0
249 H82041 1.00171888897365 -0.054435870500898 0.277648580032598 H 0.0 **** 0.0
250 H82043 1.01608151475277 -0.0459757114808369 0.292560115112663 H 0.0 **** 0.0
@<TRIPOS>BOND
1 3 2 1
2 4 3 1
3 5 4 1
4 6 5 1
5 1 2 1
6 1 6 1
7 8 7 1
8 9 8 1
9 10 9 1
10 4 7 1
11 3 10 1
12 12 11 1
13 13 12 1
14 14 13 1
15 8 11 1
16 7 14 1
17 16 15 1
18 17 16 Partial double
19 18 17 1
20 13 15 1
21 12 18 1
22 20 19 Partial double
23 21 20 Partial double
24 22 21 Partial double
25 17 19 Partial double
26 16 22 Partial double
27 24 23 1
28 25 24 1
29 15 25 Double
30 22 23 1
31 27 26 1
32 28 27 Partial double
33 29 28 Partial double
34 21 26 1
35 20 29 Partial double
36 31 30 1
37 32 31 1
38 18 30 1
39 19 32 1
40 34 33 Double
41 35 34 1
42 36 35 1
43 31 33 1
44 30 36 Double
45 38 37 1
46 39 38 1
47 40 39 Double
48 34 37 1
49 33 40 1
50 42 41 1
51 43 42 1
52 44 43 1
53 40 41 1
54 39 44 1
55 46 45 Partial double
56 32 46 1
57 29 45 Partial double
58 48 47 Partial double
59 49 48 1
60 45 49 Partial double
61 28 47 Partial double
62 51 50 Partial double
63 52 51 Partial double
64 53 52 Partial double
65 48 50 Partial double
66 47 53 Partial double
67 55 54 Partial double
68 56 55 Partial double
69 57 56 Partial double
70 52 54 Partial double
71 51 57 Partial double
72 59 58 Partial double
73 60 59 Partial double
74 61 60 Partial double
75 56 58 Partial double
76 55 61 Partial double
77 63 62 Partial double
78 27 63 Partial double
79 53 62 Partial double
80 65 64 Partial double
81 62 65 Partial double
82 54 64 Partial double
83 67 66 Partial double
84 64 67 Partial double
85 61 66 Partial double
86 69 68 Partial double
87 70 69 Partial double
88 66 70 Partial double
89 60 68 Partial double
90 72 71 1
91 73 72 1
92 74 73 1
93 59 71 1
94 58 74 1
95 76 75 1
96 77 76 1
97 78 77 1
98 73 75 1
99 72 78 1
100 80 79 1
101 81 80 1
102 82 81 1
103 78 79 1
104 77 82 1
105 84 83 Partial double
106 85 84 Partial double
107 67 85 Partial double
108 65 83 Partial double
109 87 86 1
110 88 87 1
111 89 88 1
112 84 86 1
113 83 89 1
114 91 90 1
115 92 91 1
116 93 92 1
117 88 90 1
118 87 93 1
119 95 94 Partial double
120 85 95 Partial double
121 70 94 Partial double
122 97 96 Partial double
123 98 97 Partial double
124 94 98 Partial double
125 69 96 Partial double
126 100 99 Partial double
127 101 100 Partial double
128 68 101 Partial double
129 96 99 Partial double
130 103 102 1
131 104 103 Partial double
132 97 102 1
133 99 104 1
134 106 105 1
135 107 106 1
136 100 105 1
137 104 107 Partial double
138 109 108 1
139 110 109 1
140 111 110 1
141 106 108 1
142 105 111 1
143 113 112 1
144 114 113 1
145 103 114 Partial double
146 107 112 Partial double
147 108 115 1
148 112 116 Partial double
149 115 116 Partial double
150 42 117 1
151 117 118 1
152 117 119 1
153 74 120 1
154 122 121 1
155 123 122 Partial double
156 124 123 1
157 114 121 Partial double
158 113 124 Partial double
159 126 125 Partial double
160 127 126 1
161 128 127 Partial double
162 124 125 Partial double
163 123 128 Partial double
164 130 129 Partial double
165 131 130 1
166 132 131 1
167 127 129 Partial double
168 126 132 Partial double
169 134 133 Partial double
170 135 134 Partial double
171 125 135 Partial double
172 132 133 Partial double
173 137 136 Partial double
174 138 137 Partial double
175 131 138 Partial double
176 133 136 Partial double
177 140 139 Partial double
178 134 140 Partial double
179 116 135 Partial double
180 115 139 Partial double
181 142 141 Partial double
182 140 142 Partial double
183 136 141 Partial double
184 144 143 1
185 145 144 1
186 146 145 1
187 142 143 1
188 141 146 1
189 146 147 Double
190 1 148 1
191 1 149 1
192 2 150 1
193 2 151 1
194 3 152 1
195 4 153 1
196 5 154 1
197 5 155 1
198 7 156 1
199 8 157 1
200 9 158 1
201 9 159 1
202 10 160 1
203 10 161 1
204 12 162 1
205 13 163 1
206 14 164 1
207 14 165 1
208 18 166 1
209 23 167 1
210 23 168 1
211 24 169 1
212 24 170 1
213 25 171 1
214 35 173 1
215 35 174 1
216 36 175 1
217 37 176 1
218 37 177 1
219 38 178 1
220 38 179 1
221 41 180 1
222 41 181 1
223 42 182 1
224 43 183 1
225 43 184 1
226 44 185 1
227 44 186 1
228 46 187 1
229 50 188 1
230 57 189 1
231 63 190 1
232 72 191 1
233 73 192 1
234 74 193 1
235 75 194 1
236 75 195 1
237 76 196 1
238 76 197 1
239 77 198 1
240 78 199 1
241 79 200 1
242 79 201 1
243 80 202 1
244 80 203 1
245 81 204 1
246 81 205 1
247 82 206 1
248 87 207 1
249 88 208 1
250 90 209 1
251 90 210 1
252 91 211 1
253 91 212 1
254 92 213 1
255 92 214 1
256 93 215 1
257 93 216 1
258 95 217 1
259 98 218 1
260 101 219 1
261 105 220 1
262 106 221 1
263 108 222 1
264 109 223 1
265 109 224 1
266 110 225 1
267 110 226 1
268 111 227 1
269 111 228 1
270 117 229 1
271 118 230 1
272 118 231 1
273 118 232 1
274 119 233 1
275 119 234 1
276 119 235 1
277 120 236 1
278 121 237 1
279 122 238 1
280 128 239 1
281 129 240 1
282 130 241 1
283 137 242 1
284 138 243 1
285 139 244 1
286 143 245 1
287 143 246 1
288 144 247 1
289 144 248 1
290 145 249 1
291 145 250 1
292 31 172 1
@<TRIPOS>MOLECULE
Sketch 4
250 292
SMALL
USER_CHARGES


@<TRIPOS>ATOM
1 C82046 0.0481319716488649 0.424875676403221 0.837396755107793 C 0.0 **** 0.0
2 C82047 0.0530625851944437 0.40701372686794 0.843952109000667 C 0.0 **** 0.0
3 C82048 0.0567510988974376 0.407370546057891 0.863182930344768 C 0.0 **** 0.0
4 C82049 0.0671126468703448 0.423425489732338 0.867414692573633 C 0.0 **** 0.0
5 C82050 0.0571153273225313 0.439351135944155 0.861557689183975 C 0.0 **** 0.0
6 O82051 0.0430931267916677 0.435563881501114 0.850904275838252 O 0.0 **** 0.0
7 C82058 0.0851065018089689 0.422398294972416 0.85958248258199 C 0.0 **** 0.0
8 C82059 0.0938410413534803 0.404881976590291 0.862642708702838 C 0.0 **** 0.0
9 C82060 0.0837213098852182 0.393952585823892 0.874997813657268 C 0.0 **** 0.0
10 C82061 0.0652943373966782 0.390993687096309 0.869644954276067 C 0.0 **** 0.0
11 O82067 0.110195825293355 0.406386868656934 0.870135879684132 O 0.0 **** 0.0
12 C82068 0.121955456448906 0.416721089897729 0.861059415215567 C 0.0 **** 0.0
13 C82069 0.114494170342416 0.434906934641636 0.857467926098576 C 0.0 **** 0.0
14 C82070 0.0969652947752894 0.4365207051443 0.865846250879272 C 0.0 **** 0.0
15 C82076 0.114734845246977 0.440195375433991 0.838973867582926 C 0.0 **** 0.0
16 C82077 0.130586127010636 0.435352232643046 0.829884741238406 C 0.0 **** 0.0
17 C82078 0.138825887733204 0.420620745340329 0.834419825569248 C 0.0 **** 0.0
18 C82079 0.129653245316035 0.407763398841727 0.845598302221891 C 0.0 **** 0.0
19 C82085 0.154515614457711 0.417386390626265 0.827428531722127 C 0.0 **** 0.0
20 C82086 0.160908604836651 0.427834846554882 0.814894241645358 C 0.0 **** 0.0
21 C82087 0.151752936551515 0.441769705412975 0.80935553709711 C 0.0 **** 0.0
22 C82088 0.136407816854727 0.445624128183949 0.816953179010295 C 0.0 **** 0.0
23 C82094 0.126051691050485 0.460740998050626 0.811387869702567 C 0.0 **** 0.0
24 C82095 0.106930803733545 0.456879112093652 0.81353910187302 C 0.0 **** 0.0
25 C82096 0.103349647770347 0.450251092127659 0.83119636246032 C 0.0 **** 0.0
26 O82101 0.157618264591501 0.452104374729949 0.796550249719176 O 0.0 **** 0.0
27 C82102 0.172196881137523 0.447790517900616 0.787989993804265 C 0.0 **** 0.0
28 C82103 0.182782904958123 0.434588452993968 0.792566556572168 C 0.0 **** 0.0
29 C82104 0.177610181347424 0.423552702071259 0.807103351079084 C 0.0 **** 0.0
30 C82110 0.140894215990085 0.392475932943104 0.849343749149428 C 0.0 **** 0.0
31 C82111 0.151906894934073 0.387136059318205 0.834417956395808 C 0.0 **** 0.0
32 C82112 0.16417602892705 0.402172176596347 0.833199092682416 C 0.0 **** 0.0
33 C82117 0.161507189428288 0.37019351353976 0.836147279264936 C 0.0 **** 0.0
34 C82118 0.163290127718925 0.363580192071024 0.851951052697953 C 0.0 **** 0.0
35 C82119 0.154971297650252 0.370849388062982 0.867578428414558 C 0.0 **** 0.0
36 C82120 0.142340807490912 0.384801535326617 0.864389882990414 C 0.0 **** 0.0
37 C82126 0.172372331923252 0.347270897661218 0.855459637405477 C 0.0 **** 0.0
38 C82127 0.184420884527504 0.342183491830101 0.841126696085753 C 0.0 **** 0.0
39 C82128 0.178516911192125 0.348417454179579 0.824144867623587 C 0.0 **** 0.0
40 C82129 0.167872444981162 0.361896623314087 0.822337745823834 C 0.0 **** 0.0
41 C82135 0.163691324166777 0.367439567429527 0.804170344889924 C 0.0 **** 0.0
42 C82136 0.165204875991136 0.353015278924707 0.791493808739515 C 0.0 **** 0.0
43 C82137 0.183501870345636 0.34643601467549 0.792355388514079 C 0.0 **** 0.0
44 C82138 0.187007927346 0.338989244529992 0.809856754926938 C 0.0 **** 0.0
45 C82144 0.186969987279061 0.41023138566678 0.812584983676553 C 0.0 **** 0.0
46 C82145 0.181275136762549 0.399563722994236 0.824830351116699 C 0.0 **** 0.0
47 C82149 0.197045113589509 0.430811522750938 0.782345441740954 C 0.0 **** 0.0
48 C82150 0.207830557183634 0.416911677497198 0.785546274190149 C 0.0 **** 0.0
49 S82151 0.207263315066728 0.406643039539193 0.804846282130884 S 0.0 **** 0.0
50 C82156 0.219399225303256 0.411307435922421 0.773952780674777 C 0.0 **** 0.0
51 C82157 0.221219310836448 0.419780339114743 0.758324296247455 C 0.0 **** 0.0
52 C82158 0.210778521051714 0.433893684159102 0.75490753820609 C 0.0 **** 0.0
53 C82159 0.199812019406199 0.440013086323176 0.767321640166921 C 0.0 **** 0.0
54 C82165 0.21054853275239 0.440493887059417 0.738557929744155 C 0.0 **** 0.0
55 C82166 0.219407206684026 0.432617307623412 0.725387719552546 C 0.0 **** 0.0
56 C82167 0.23025464690559 0.418728417578131 0.728658554615358 C 0.0 **** 0.0
57 C82168 0.231930183170429 0.413568048905594 0.745566378076338 C 0.0 **** 0.0
58 C82174 0.236210461822834 0.409054610408265 0.714993492860411 C 0.0 **** 0.0
59 C82175 0.229731671932939 0.412352927485011 0.698990279637049 C 0.0 **** 0.0
60 C82176 0.222575892515091 0.428162337517367 0.695241840363452 C 0.0 **** 0.0
61 C82177 0.216994811986952 0.438049387449963 0.708845670793118 C 0.0 **** 0.0
62 C82183 0.189939151762061 0.454278205241936 0.763678985293867 C 0.0 **** 0.0
63 C82184 0.175890902266632 0.457449820464298 0.774081776284328 C 0.0 **** 0.0
64 C82188 0.201242378118225 0.455100819813636 0.73529313883506 C 0.0 **** 0.0
65 C82189 0.192718900943909 0.463262755121326 0.74843715394473 C 0.0 **** 0.0
66 C82193 0.208235880416609 0.453023333019442 0.70573939945148 C 0.0 **** 0.0
67 C82194 0.200676423598365 0.461671678516102 0.719117248849326 C 0.0 **** 0.0
68 C82198 0.222409760676868 0.435164305611202 0.678612149274785 C 0.0 **** 0.0
69 C82199 0.214283898886157 0.450747162966559 0.675915062485647 C 0.0 **** 0.0
70 C82200 0.206990335807378 0.459321216039882 0.689336038332319 C 0.0 **** 0.0
71 O82205 0.23192593501039 0.400095003791183 0.68653267114895 O 0.0 **** 0.0
72 C82206 0.226618741446637 0.383987543724185 0.693238715046448 C 0.0 **** 0.0
73 C82207 0.237425163401252 0.378715793368622 0.708908632553967 C 0.0 **** 0.0
74 C82208 0.247978883813664 0.393811172626353 0.7147781907065 C 0.0 **** 0.0
75 C82214 0.247615931046233 0.362417050356007 0.705850726939222 C 0.0 **** 0.0
76 C82215 0.235187562591773 0.348430376890963 0.700848728308227 C 0.0 **** 0.0
77 C82216 0.226311640429076 0.352104687758663 0.683841407723056 C 0.0 **** 0.0
78 C82217 0.226633617656371 0.371135960226783 0.678567801533341 C 0.0 **** 0.0
79 C82223 0.212650513753742 0.375463567126748 0.665522363899383 C 0.0 **** 0.0
80 C82224 0.207980353139163 0.359626221031781 0.655407521042374 C 0.0 **** 0.0
81 C82225 0.201070817082695 0.345404518930582 0.666947671379537 C 0.0 **** 0.0
82 N82226 0.209587879204337 0.344493947231414 0.683558480292891 N 0.0 **** 0.0
83 C82232 0.186160669150559 0.479725515583333 0.746133768030962 C 0.0 **** 0.0
84 C82233 0.18572887171553 0.48660368609388 0.730026300540704 C 0.0 **** 0.0
85 C82234 0.192547448361828 0.477231592946818 0.716405466805463 C 0.0 **** 0.0
86 O82239 0.178604769683565 0.502249801367296 0.726634384326648 O 0.0 **** 0.0
87 C82240 0.176837793229163 0.512370816925497 0.741468376673302 C 0.0 **** 0.0
88 C82241 0.169152879082751 0.502207349176584 0.755516782085752 C 0.0 **** 0.0
89 O82242 0.179861704359553 0.488444951398779 0.759988038088925 O 0.0 **** 0.0
90 C82248 0.151086928980356 0.495883378112 0.751405907929163 C 0.0 **** 0.0
91 C82249 0.141358843782641 0.507744366167435 0.739384896581532 C 0.0 **** 0.0
92 C82250 0.147275018666695 0.526080698019979 0.741458607035825 C 0.0 **** 0.0
93 C82251 0.166234424841938 0.528080493398552 0.737084596903682 C 0.0 **** 0.0
94 C82257 0.199125315073564 0.475163525565158 0.686406895561506 C 0.0 **** 0.0
95 C82258 0.191775535395104 0.483892852589407 0.700026425805339 C 0.0 **** 0.0
96 C82262 0.215090177722569 0.458365104096286 0.659929437914102 C 0.0 **** 0.0
97 C82263 0.207086044445902 0.474075804487182 0.656912476609239 C 0.0 **** 0.0
98 C82264 0.199241214600341 0.482220739970789 0.67002266303506 C 0.0 **** 0.0
99 C82269 0.224683149132355 0.451119418599376 0.646818630713797 C 0.0 **** 0.0
100 C82270 0.233204767878366 0.436084268876103 0.649399825062191 C 0.0 **** 0.0
101 C82271 0.231899113869266 0.428511777430031 0.665029679706831 C 0.0 **** 0.0
102 O82276 0.20677741711524 0.48153392084311 0.641175215032506 O 0.0 **** 0.0
103 C82277 0.217484158302881 0.475569339863073 0.628815118545763 C 0.0 **** 0.0
104 C82278 0.226086294105374 0.460666079016934 0.630561904779395 C 0.0 **** 0.0
105 C82283 0.24420942531745 0.427664814341597 0.636060645629868 C 0.0 **** 0.0
106 C82284 0.247175893410808 0.439008247736203 0.619615758601599 C 0.0 **** 0.0
107 C82285 0.23627769185363 0.454854302546622 0.61788240920763 C 0.0 **** 0.0
108 C82290 0.246433092050201 0.428389435512237 0.603172986210883 C 0.0 **** 0.0
109 C82291 0.256698635579486 0.411990253911769 0.605265657282055 C 0.0 **** 0.0
110 C82292 0.249314732754163 0.400677546957848 0.619478566841783 C 0.0 **** 0.0
111 C82293 0.237150799971471 0.410224571592995 0.631329189200892 C 0.0 **** 0.0
112 C82299 0.237216645775735 0.463709014669667 0.603095634538739 C 0.0 **** 0.0
113 C82300 0.229361360923235 0.479125691089514 0.601705549510327 C 0.0 **** 0.0
114 C82301 0.219430083712459 0.485002876182733 0.61449388492509 C 0.0 **** 0.0
115 C82306 0.252130195078557 0.439558963462586 0.588416368244566 C 0.0 **** 0.0
116 C82308 0.247281372164992 0.456429350190181 0.588611584694968 C 0.0 **** 0.0
117 C82311 0.158849150608567 0.358103820669302 0.773677319015186 C 0.0 **** 0.0
118 C82313 0.167237786745711 0.374038368821629 0.766523856253544 C 0.0 **** 0.0
119 C82315 0.160271331627971 0.343564592632071 0.760956857861425 C 0.0 **** 0.0
120 O82317 0.256637826626491 0.391043358648296 0.730212849072533 O 0.0 **** 0.0
121 C82319 0.211464774515615 0.500295983253126 0.612957426403318 C 0.0 **** 0.0
122 C82320 0.213806381265716 0.509966510780984 0.598916086272354 C 0.0 **** 0.0
123 C82321 0.224025753449653 0.504402339265032 0.586197591877823 C 0.0 **** 0.0
124 C82322 0.231552181251571 0.488862790806037 0.587599189416128 C 0.0 **** 0.0
125 C82328 0.242529448113749 0.482743169532857 0.573732121567549 C 0.0 **** 0.0
126 C82329 0.244868787349901 0.492928576002347 0.559996121934221 C 0.0 **** 0.0
127 C82330 0.23669549222793 0.509726765604017 0.559347027727104 C 0.0 **** 0.0
128 C82331 0.226479057452229 0.514761465047534 0.572394497467354 C 0.0 **** 0.0
129 C82337 0.239560980458781 0.519996980951532 0.545716938854298 C 0.0 **** 0.0
130 C82338 0.249532593193108 0.514826446558974 0.532489625907114 C 0.0 **** 0.0
131 C82339 0.256658324147084 0.49904153188577 0.532146552793798 C 0.0 **** 0.0
132 C82340 0.254617339195517 0.487579901722711 0.54677586208885 C 0.0 **** 0.0
133 C82346 0.261760536229766 0.471344543243082 0.5466764498724 C 0.0 **** 0.0
134 C82347 0.259510795340754 0.460890568702455 0.560736688680793 C 0.0 **** 0.0
135 C82348 0.250139368098808 0.466757697981544 0.574561953671871 C 0.0 **** 0.0
136 C82353 0.269744914796853 0.465140848794086 0.532190562559712 C 0.0 **** 0.0
137 C82354 0.271746302376763 0.477640132420436 0.517796100703717 C 0.0 **** 0.0
138 C82355 0.265324792604705 0.493638940605736 0.518278491713419 C 0.0 **** 0.0
139 C82360 0.260730261843637 0.433668236723469 0.57440722823884 C 0.0 **** 0.0
140 C82361 0.26498667471177 0.443999655744733 0.560312292964122 C 0.0 **** 0.0
141 C82366 0.275002727661031 0.448383054693024 0.5316555432267 C 0.0 **** 0.0
142 C82367 0.273092247270585 0.437842543823306 0.54564140560537 C 0.0 **** 0.0
143 C82371 0.279031418981776 0.419576773331165 0.544304795733532 C 0.0 **** 0.0
144 C82372 0.296373272747222 0.419151968386127 0.535662155211129 C 0.0 **** 0.0
145 C82373 0.294460628078326 0.426303566856365 0.518040502404588 C 0.0 **** 0.0
146 C82374 0.282761744936983 0.441148910248889 0.515944808289184 C 0.0 **** 0.0
147 O82380 0.279578587984549 0.445752667993646 0.501657463532655 O 0.0 **** 0.0
148 H82382 0.0373144556712464 0.424221475092673 0.828689018437175 H 0.0 **** 0.0
149 H82384 0.0586303201224615 0.430605296693565 0.830206429892608 H 0.0 **** 0.0
150 H82386 0.0430179021270125 0.397702220973814 0.841351981259048 H 0.0 **** 0.0
151 H82388 0.0642538980466003 0.402334900763461 0.837083650872216 H 0.0 **** 0.0
152 H82390 0.044387314538314 0.408657884629651 0.869576993816985 H 0.0 **** 0.0
153 H82392 0.068716771071294 0.424021520857154 0.881283784922737 H 0.0 **** 0.0
154 H82394 0.0654085104170934 0.448650649980368 0.855310376768372 H 0.0 **** 0.0
155 H82396 0.0516174999913834 0.445731295563158 0.872603102029918 H 0.0 **** 0.0
156 H82398 0.0836065813162242 0.424178316513122 0.84581936632908 H 0.0 **** 0.0
157 H82400 0.0947784714157606 0.398046481419863 0.850508913703883 H 0.0 **** 0.0
158 H82402 0.0840101330755189 0.400420688933695 0.887358437412256 H 0.0 **** 0.0
159 H82404 0.0904308112781359 0.381887180116126 0.876906357673461 H 0.0 **** 0.0
160 H82406 0.0581781939101836 0.385829176337075 0.880445665581268 H 0.0 **** 0.0
161 H82408 0.0647823507210703 0.381240348440115 0.859723640647602 H 0.0 **** 0.0
162 H82410 0.132143497776506 0.418718997757334 0.870325521271035 H 0.0 **** 0.0
163 H82412 0.122781720759307 0.444198474043543 0.86384388907267 H 0.0 **** 0.0
164 H82414 0.0915187044051672 0.449205136866102 0.864121803625549 H 0.0 **** 0.0
165 H82416 0.098700688711508 0.435013285152494 0.87961938558655 H 0.0 **** 0.0
166 H82418 0.118957457236814 0.402881470602108 0.838081822019913 H 0.0 **** 0.0
167 H82420 0.129498881663027 0.471933788115491 0.818963628860987 H 0.0 **** 0.0
168 H82422 0.128727745598406 0.463960380479298 0.798122644300063 H 0.0 **** 0.0
169 H82424 0.102858033700863 0.447456307515915 0.804121814061753 H 0.0 **** 0.0
170 H82426 0.0994789225357577 0.46843149931828 0.811124980277209 H 0.0 **** 0.0
171 H82428 0.0916909773167911 0.454653640219075 0.837002317738844 H 0.0 **** 0.0
172 H82430 0.143838214612971 0.386725551252919 0.823092945144234 H 0.0 **** 0.0
173 H82431 0.164978895265293 0.375857802530871 0.875804351978721 H 0.0 **** 0.0
174 H82433 0.148605814858965 0.360514497511581 0.87451875217787 H 0.0 **** 0.0
175 H82435 0.134807749000157 0.388827302066726 0.875207885417679 H 0.0 **** 0.0
176 H82437 0.179543816921297 0.348242630701627 0.867353626856068 H 0.0 **** 0.0
177 H82439 0.162920510287353 0.337235492591717 0.857433081198771 H 0.0 **** 0.0
178 H82441 0.185933192777483 0.328330387640431 0.841021677232567 H 0.0 **** 0.0
179 H82443 0.197088947341908 0.347492366725483 0.843545757699834 H 0.0 **** 0.0
180 H82445 0.150820320725304 0.372596517753599 0.803549938288884 H 0.0 **** 0.0
181 H82447 0.172298281410419 0.377738414225554 0.80048738093553 H 0.0 **** 0.0
182 H82449 0.156877030341522 0.342577582984057 0.795686285473155 H 0.0 **** 0.0
183 H82451 0.19226847716669 0.356966860107865 0.789781150137434 H 0.0 **** 0.0
184 H82453 0.186106264997763 0.336701214470101 0.782737191068268 H 0.0 **** 0.0
185 H82455 0.200752470045389 0.338474748206498 0.812252587618894 H 0.0 **** 0.0
186 H82457 0.182424257599637 0.325802339334939 0.810170113829012 H 0.0 **** 0.0
187 H82459 0.189130127866056 0.389193160942946 0.829376650167516 H 0.0 **** 0.0
188 H82461 0.227282529462981 0.400205936092621 0.776532682258463 H 0.0 **** 0.0
189 H82463 0.239274804218189 0.402266974889403 0.74873892207453 H 0.0 **** 0.0
190 H82465 0.166565362568239 0.467199801161337 0.770902584846701 H 0.0 **** 0.0
191 H82467 0.213451183987645 0.385419269799674 0.697585494268571 H 0.0 **** 0.0
192 H82469 0.228822018111224 0.375647477665679 0.719462588712878 H 0.0 **** 0.0
193 H82471 0.257713865495715 0.396353642196437 0.705010757959056 H 0.0 **** 0.0
194 H82473 0.257214831758752 0.364296840421502 0.695926716641631 H 0.0 **** 0.0
195 H82475 0.25441851042494 0.358790352661401 0.717466313796685 H 0.0 **** 0.0
196 H82477 0.225651679767281 0.347524055212607 0.710991938009178 H 0.0 **** 0.0
197 H82479 0.24135944949303 0.33594114092876 0.700368846267045 H 0.0 **** 0.0
198 H82481 0.233678417387725 0.345387860860635 0.674054507602234 H 0.0 **** 0.0
199 H82483 0.238999070197368 0.373018833821299 0.672374714450368 H 0.0 **** 0.0
200 H82485 0.201225206397683 0.379954431102399 0.672160347428513 H 0.0 **** 0.0
201 H82487 0.216714962169766 0.385870505051741 0.657229125460141 H 0.0 **** 0.0
202 H82489 0.219455236150012 0.355135846900426 0.648854518777757 H 0.0 **** 0.0
203 H82491 0.198662351785816 0.362363106001677 0.645430799998929 H 0.0 **** 0.0
204 H82493 0.202376463758143 0.333052152391603 0.660622946729813 H 0.0 **** 0.0
205 H82495 0.187420164187848 0.347239527387396 0.669027375664259 H 0.0 **** 0.0
206 H82497 0.202395574505631 0.349547974065156 0.692697027930188 H 0.0 **** 0.0
207 H82499 0.189654418526159 0.516226630209621 0.745386124573785 H 0.0 **** 0.0
208 H82501 0.168388647434998 0.510564803290948 0.766653614239026 H 0.0 **** 0.0
209 H82503 0.151982585610535 0.483199149703963 0.745754951261216 H 0.0 **** 0.0
210 H82505 0.14394782669878 0.494236199891073 0.763265570166075 H 0.0 **** 0.0
211 H82507 0.127659157574525 0.506568374732258 0.741625460085126 H 0.0 **** 0.0
212 H82509 0.14351789086649 0.503843997901415 0.726168690193492 H 0.0 **** 0.0
213 H82511 0.145047965033457 0.529950622886665 0.754669898144223 H 0.0 **** 0.0
214 H82513 0.139739172425816 0.534656578172142 0.73350746122925 H 0.0 **** 0.0
215 H82515 0.171213732593172 0.5395334949051 0.743194580087921 H 0.0 **** 0.0
216 H82517 0.167551115772736 0.530098376443124 0.723375337157189 H 0.0 **** 0.0
217 H82519 0.18572243441947 0.49618795611852 0.697785564628662 H 0.0 **** 0.0
218 H82521 0.193133040676458 0.494518389202022 0.667875865635869 H 0.0 **** 0.0
219 H82523 0.239565332130433 0.417102039655233 0.66676577895914 H 0.0 **** 0.0
220 H82525 0.256858866414813 0.4255989707199 0.641629282332152 H 0.0 **** 0.0
221 H82527 0.260321500973623 0.44364266712323 0.620753467785683 H 0.0 **** 0.0
222 H82529 0.233140795043839 0.424759920637501 0.600748573785104 H 0.0 **** 0.0
223 H82531 0.26987245764944 0.415389896726022 0.608293064524765 H 0.0 **** 0.0
224 H82533 0.257084061708421 0.404570404745218 0.593505979320157 H 0.0 **** 0.0
225 H82535 0.259715048334943 0.395277299990069 0.627018322138007 H 0.0 **** 0.0
226 H82537 0.242624887793594 0.38981695050118 0.613871855821102 H 0.0 **** 0.0
227 H82539 0.234816553138231 0.402431553637739 0.642633542405003 H 0.0 **** 0.0
228 H82541 0.224785833839322 0.411858842397943 0.625090003905265 H 0.0 **** 0.0
229 H82543 0.14522422317886 0.360921204391742 0.774955824445916 H 0.0 **** 0.0
230 H82545 0.162709626746217 0.37658544883369 0.753604572118309 H 0.0 **** 0.0
231 H82547 0.181039047160611 0.372568540284747 0.765998619557854 H 0.0 **** 0.0
232 H82549 0.16447522344052 0.385335903178718 0.77415653050747 H 0.0 **** 0.0
233 H82551 0.154244826750722 0.332008602758499 0.765785713258785 H 0.0 **** 0.0
234 H82553 0.173557083304052 0.340539149442805 0.75822888079794 H 0.0 **** 0.0
235 H82555 0.15414212110768 0.346838285037555 0.748891528791924 H 0.0 **** 0.0
236 H82557 0.264668711484654 0.382402335429637 0.727879183619638 H 0.0 **** 0.0
237 H82559 0.203345746193461 0.50521364263104 0.622960814579675 H 0.0 **** 0.0
238 H82561 0.207522656128074 0.522225054299099 0.598167010612766 H 0.0 **** 0.0
239 H82563 0.220366220952975 0.527141839109619 0.571889132984929 H 0.0 **** 0.0
240 H82565 0.233894136299112 0.532564021642295 0.545076126566515 H 0.0 **** 0.0
241 H82567 0.251267021160674 0.523480769824912 0.52187310151471 H 0.0 **** 0.0
242 H82569 0.278583925423394 0.473870802126677 0.50650714044514 H 0.0 **** 0.0
243 H82571 0.266973402503395 0.501695310571743 0.507255555777146 H 0.0 **** 0.0
244 H82573 0.264055070721154 0.420248647444729 0.574246314104733 H 0.0 **** 0.0
245 H82575 0.280004523379228 0.413361149304375 0.556631320340055 H 0.0 **** 0.0
246 H82577 0.269870961111151 0.412086509678225 0.536876567524793 H 0.0 **** 0.0
247 H82579 0.30144099002159 0.4062006488264 0.535002748755156 H 0.0 **** 0.0
248 H82581 0.305458991415053 0.42670786661844 0.543079441467782 H 0.0 **** 0.0
249 H82583 0.288781180004292 0.417266369924622 0.509140332240616 H 0.0 **** 0.0
250 H82585 0.306287466181451 0.430741471542196 0.512277592719948 H 0.0 **** 0.0
@<TRIPOS>BOND
1 3 2 1
2 4 3 1
3 5 4 1
4 6 5 1
5 1 2 1
6 1 6 1
7 8 7 1
8 9 8 1
9 10 9 1
10 4 7 1
11 3 10 1
12 12 11 1
13 13 12 1
14 14 13 1
15 8 11 1
16 7 14 1
17 16 15 1
18 17 16 Partial double
19 18 17 1
20 13 15 1
21 12 18 1
22 20 19 Partial double
23 21 20 Partial double
24 22 21 Partial double
25 17 19 Partial double
26 16 22 Partial double
27 24 23 1
28 25 24 1
29 15 25 Double
30 22 23 1
31 27 26 1
32 28 27 Partial double
33 29 28 Partial double
34 21 26 1
35 20 29 Partial double
36 31 30 1
37 32 31 1
38 18 30 1
39 19 32 1
40 34 33 Double
41 35 34 1
42 36 35 1
43 31 33 1
44 30 36 Double
45 38 37 1
46 39 38 1
47 40 39 Double
48 34 37 1
49 33 40 1
50 42 41 1
51 43 42 1
52 44 43 1
53 40 41 1
54 39 44 1
55 46 45 Partial double
56 32 46 1
57 29 45 Partial double
58 48 47 Partial double
59 49 48 1
60 45 49 Partial double
61 28 47 Partial double
62 51 50 Partial double
63 52 51 Partial double
64 53 52 Partial double
65 48 50 Partial double
66 47 53 Partial double
67 55 54 Partial double
68 56 55 Partial double
69 57 56 Partial double
70 52 54 Partial double
71 51 57 Partial double
72 59 58 Partial double
73 60 59 Partial double
74 61 60 Partial double
75 56 58 Partial double
76 55 61 Partial double
77 63 62 Partial double
78 27 63 Partial double
79 53 62 Partial double
80 65 64 Partial double
81 62 65 Partial double
82 54 64 Partial double
83 67 66 Partial double
84 64 67 Partial double
85 61 66 Partial double
86 69 68 Partial double
87 70 69 Partial double
88 66 70 Partial double
89 60 68 Partial double
90 72 71 1
91 73 72 1
92 74 73 1
93 59 71 1
94 58 74 1
95 76 75 1
96 77 76 1
97 78 77 1
98 73 75 1
99 72 78 1
100 80 79 1
101 81 80 1
102 82 81 1
103 78 79 1
104 77 82 1
105 84 83 Partial double
106 85 84 Partial double
107 67 85 Partial double
108 65 83 Partial double
109 87 86 1
110 88 87 1
111 89 88 1
112 84 86 1
113 83 89 1
114 91 90 1
115 92 91 1
116 93 92 1
117 88 90 1
118 87 93 1
119 95 94 Partial double
120 85 95 Partial double
121 70 94 Partial double
122 97 96 Partial double
123 98 97 Partial double
124 94 98 Partial double
125 69 96 Partial double
126 100 99 Partial double
127 101 100 Partial double
128 68 101 Partial double
129 96 99 Partial double
130 103 102 1
131 104 103 Partial double
132 97 102 1
133 99 104 1
134 106 105 1
135 107 106 1
136 100 105 1
137 104 107 Partial double
138 109 108 1
139 110 109 1
140 111 110 1
141 106 108 1
142 105 111 1
143 113 112 1
144 114 113 1
145 103 114 Partial double
146 107 112 Partial double
147 108 115 1
148 112 116 Partial double
149 115 116 Partial double
150 42 117 1
151 117 118 1
152 117 119 1
153 74 120 1
154 122 121 1
155 123 122 Partial double
156 124 123 1
157 114 121 Partial double
158 113 124 Partial double
159 126 125 Partial double
160 127 126 1
161 128 127 Partial double
162 124 125 Partial double
163 123 128 Partial double
164 130 129 Partial double
165 131 130 1
166 132 131 1
167 127 129 Partial double
168 126 132 Partial double
169 134 133 Partial double
170 135 134 Partial double
171 125 135 Partial double
172 132 133 Partial double
173 137 136 Partial double
174 138 137 Partial double
175 131 138 Partial double
176 133 136 Partial double
177 140 139 Partial double
178 134 140 Partial double
179 116 135 Partial double
180 115 139 Partial double
181 142 141 Partial double
182 140 142 Partial double
183 136 141 Partial double
184 144 143 1
185 145 144 1
186 146 145 1
187 142 143 1
188 141 146 1
189 146 147 Double
190 1 148 1
191 1 149 1
192 2 150 1
193 2 151 1
194 3 152 1
195 4 153 1
196 5 154 1
197 5 155 1
198 7 156 1
199 8 157 1
200 9 158 1
201 9 159 1
202 10 160 1
203 10 161 1
204 12 162 1
205 13 163 1
206 14 164 1
207 14 165 1
208 18 166 1
209 23 167 1
210 23 168 1
211 24 169 1
212 24 170 1
213 25 171 1
214 35 173 1
215 35 174 1
216 36 175 1
217 37 176 1
218 37 177 1
219 38 178 1
220 38 179 1
221 41 180 1
222 41 181 1
223 42 182 1
224 43 183 1
225 43 184 1
226 44 185 1
227 44 186 1
228 46 187 1
229 50 188 1
230 57 189 1
231 63 190 1
232 72 191 1
233 73 192 1
234 74 193 1
235 75 194 1
236 75 195 1
237 76 196 1
238 76 197 1
239 77 198 1
240 78 199 1
241 79 200 1
242 79 201 1
243 80 202 1
244 80 203 1
245 81 204 1
246 81 205 1
247 82 206 1
248 87 207 1
249 88 208 1
250 90 209 1
251 90 210 1
252 91 211 1
253 91 212 1
254 92 213 1
255 92 214 1
256 93 215 1
257 93 216 1
258 95 217 1
259 98 218 1
260 101 219 1
261 105 220 1
262 106 221 1
263 108 222 1
264 109 223 1
265 109 224 1
266 110 225 1
267 110 226 1
268 111 227 1
269 111 228 1
270 117 229 1
271 118 230 1
272 118 231 1
273 118 232 1
274 119 233 1
275 119 234 1
276 119 235 1
277 120 236 1
278 121 237 1
279 122 238 1
280 128 239 1
281 129 240 1
282 130 241 1
283 137 242 1
284 138 243 1
285 139 244 1
286 143 245 1
287 143 246 1
288 144 247 1
289 144 248 1
290 145 249 1
291 145 250 1
292 31 172 1
@<TRIPOS>MOLECULE
Sketch 4
250 292
SMALL
USER_CHARGES


@<TRIPOS>ATOM
1 C82588 0.380899827981528 0.574882821613341 0.0280095754044437 C 0.0 **** 0.0
2 C82589 0.390457985791733 0.574985739843003 0.0451186729750516 C 0.0 **** 0.0
3 C82590 0.40145526694541 0.559053240307228 0.0471430819191183 C 0.0 **** 0.0
4 C82591 0.390650933080534 0.542551455415503 0.0448806200065529 C 0.0 **** 0.0
5 C82592 0.374801542749371 0.546587114113227 0.0340706771092357 C 0.0 **** 0.0
6 O82593 0.378699363937803 0.558400905397214 0.0211388921078103 O 0.0 **** 0.0
7 C82600 0.386066373727069 0.532234528918681 0.0610373982478916 C 0.0 **** 0.0
8 C82601 0.399655145606912 0.53310196850263 0.0753969827194089 C 0.0 **** 0.0
9 C82602 0.415954174596943 0.54176435710048 0.0698607449392884 C 0.0 **** 0.0
10 C82603 0.412450989239079 0.559519156061725 0.0632271176465912 C 0.0 **** 0.0
11 O82609 0.404415241406419 0.517150834412387 0.082264945342989 O 0.0 **** 0.0
12 C82610 0.390245950093016 0.506734356798814 0.086434073148731 C 0.0 **** 0.0
13 C82611 0.382850790446423 0.499792001718748 0.069894472299929 C 0.0 **** 0.0
14 C82612 0.381588586118608 0.513790443704043 0.0558619329797756 C 0.0 **** 0.0
15 C82618 0.367014174604076 0.489174657568373 0.0727252458486127 C 0.0 **** 0.0
16 C82619 0.357248936533272 0.491133566058497 0.0890590711007383 C 0.0 **** 0.0
17 C82620 0.362670519993765 0.50250444674585 0.101263925046379 C 0.0 **** 0.0
18 C82621 0.376533448312776 0.515239355766499 0.0970862418116094 C 0.0 **** 0.0
19 C82627 0.354812660822493 0.502716189983283 0.116954851048741 C 0.0 **** 0.0
20 C82628 0.3410050781511 0.492381060127613 0.119915591535764 C 0.0 **** 0.0
21 C82629 0.334794402934601 0.481923769505514 0.107253322626873 C 0.0 **** 0.0
22 C82630 0.343097490969096 0.481099423925438 0.0917766021278009 C 0.0 **** 0.0
23 C82636 0.336198368525917 0.469730626472015 0.0779603575128391 C 0.0 **** 0.0
24 C82637 0.350310335157513 0.46302228459373 0.0661592266844908 C 0.0 **** 0.0
25 C82638 0.363676540293091 0.476062861982897 0.0623331544205738 C 0.0 **** 0.0
26 O82643 0.320585484723863 0.471929749101746 0.109709042084277 O 0.0 **** 0.0
27 C82644 0.312415613621134 0.471977718008692 0.125134836313104 C 0.0 **** 0.0
28 C82645 0.317788862190337 0.481399047770966 0.138938152336124 C 0.0 **** 0.0
29 C82646 0.333093154175538 0.492526631272585 0.13708209293859 C 0.0 **** 0.0
30 C82652 0.382589311940686 0.523966670543159 0.112884637492676 C 0.0 **** 0.0
31 C82653 0.367868675560927 0.530880201379996 0.123070943626604 C 0.0 **** 0.0
32 C82654 0.361335182598298 0.514214621741613 0.130747030871589 C 0.0 **** 0.0
33 C82659 0.373158915946593 0.545850445020053 0.134684644133258 C 0.0 **** 0.0
34 C82660 0.3897719422646 0.546443466334735 0.139546943294632 C 0.0 **** 0.0
35 C82661 0.402770345552133 0.53308476626111 0.135064728946717 C 0.0 **** 0.0
36 C82662 0.398515866423945 0.52435283341941 0.118712988203774 C 0.0 **** 0.0
37 C82668 0.397305049789722 0.560462952396934 0.149938692216904 C 0.0 **** 0.0
38 C82669 0.386643306740863 0.576606617558226 0.149353582089156 C 0.0 **** 0.0
39 C82670 0.368290705558221 0.573317277305857 0.145816039019286 C 0.0 **** 0.0
40 C82671 0.362230325745458 0.558687932362589 0.138841047547125 C 0.0 **** 0.0
41 C82677 0.343016173740039 0.557954413320979 0.135178979199899 C 0.0 **** 0.0
42 C82678 0.33520245035763 0.575312852930385 0.131724324014664 C 0.0 **** 0.0
43 C82679 0.33944745735638 0.586918044219066 0.146639457715356 C 0.0 **** 0.0
44 C82680 0.358350298751358 0.589378879810732 0.148364538584278 C 0.0 **** 0.0
45 C82686 0.339301971980252 0.502237690488312 0.14987245260524 C 0.0 **** 0.0
46 C82687 0.352079597337402 0.513613363630593 0.147512798967285 C 0.0 **** 0.0
47 C82691 0.307740981147904 0.481552238882089 0.153761796271673 C 0.0 **** 0.0
48 C82692 0.311877825096066 0.491152942645342 0.168222809819984 C 0.0 **** 0.0
49 S82693 0.331967420746319 0.499331232240184 0.17044913133117 S 0.0 **** 0.0
50 C82698 0.300671681491451 0.493615440077586 0.181190361575509 C 0.0 **** 0.0
51 C82699 0.284761453591972 0.485510051349746 0.180761905049332 C 0.0 **** 0.0
52 C82700 0.281255186089023 0.473842868213408 0.167662879660445 C 0.0 **** 0.0
53 C82701 0.2925028229695 0.472291393996659 0.154185159413451 C 0.0 **** 0.0
54 C82707 0.267843441619494 0.462477703322138 0.169626939921881 C 0.0 **** 0.0
55 C82708 0.25662295391838 0.464048093988536 0.183255867617852 C 0.0 **** 0.0
56 C82709 0.257908105845942 0.478030162113714 0.194208376359736 C 0.0 **** 0.0
57 C82710 0.272854062235189 0.487707319531848 0.193712481042135 C 0.0 **** 0.0
58 C82716 0.245192961084934 0.481058298129409 0.206117116504006 C 0.0 **** 0.0
59 C82717 0.234222106638972 0.4680528796039 0.210269503840179 C 0.0 **** 0.0
60 C82718 0.234354769148873 0.452591390372216 0.201208352969886 C 0.0 **** 0.0
61 C82719 0.245309663277048 0.451140490850645 0.187266496093522 C 0.0 **** 0.0
62 C82725 0.289197343378561 0.460261470612504 0.141625017263093 C 0.0 **** 0.0
63 C82726 0.298316825929472 0.461815111796706 0.126483155932902 C 0.0 **** 0.0
64 C82730 0.267289300942813 0.44809941780224 0.159450819639204 C 0.0 **** 0.0
65 C82731 0.278431884692484 0.44644955580947 0.145729005204657 C 0.0 **** 0.0
66 C82735 0.246179892543797 0.436068568926034 0.178151654923254 C 0.0 **** 0.0
67 C82736 0.257334139823231 0.434624808580845 0.164492004980856 C 0.0 **** 0.0
68 C82740 0.224055010235413 0.438419740293507 0.205854768003853 C 0.0 **** 0.0
69 C82741 0.226323159482464 0.422953479445955 0.197339079070599 C 0.0 **** 0.0
70 C82742 0.237043718192052 0.421987438103035 0.183539911364642 C 0.0 **** 0.0
71 O82747 0.223842312105336 0.470319452997686 0.224256337387584 O 0.0 **** 0.0
72 C82748 0.214660336688614 0.485886696645588 0.225026847434746 C 0.0 **** 0.0
73 C82749 0.224628757561496 0.501004011707949 0.21743978739859 C 0.0 **** 0.0
74 C82750 0.243566225779729 0.497391848066722 0.216175903359176 C 0.0 **** 0.0
75 C82756 0.220631776439356 0.517968487840516 0.226304101487445 C 0.0 **** 0.0
76 C82757 0.201807164261391 0.518726524087889 0.230568132029656 C 0.0 **** 0.0
77 C82758 0.197469738619852 0.505612133901913 0.244298892634032 C 0.0 **** 0.0
78 C82759 0.209095994805037 0.489672633950951 0.243415593296025 C 0.0 **** 0.0
79 C82765 0.201233852481186 0.474304795429473 0.252638642467521 C 0.0 **** 0.0
80 C82766 0.188942261006234 0.480676345899874 0.266178063597153 C 0.0 **** 0.0
81 C82767 0.174126925873348 0.4906977486066 0.258269483222243 C 0.0 **** 0.0
82 N82768 0.179515531652718 0.5017068384945 0.244143230867367 N 0.0 **** 0.0
83 C82774 0.280964835226386 0.43044656369778 0.138019478661435 C 0.0 **** 0.0
84 C82775 0.272324075669589 0.41655913825495 0.144107410523584 C 0.0 **** 0.0
85 C82776 0.259996800016077 0.418853422729382 0.156770642223042 C 0.0 **** 0.0
86 O82781 0.274693545395465 0.400309639793887 0.137990672497024 O 0.0 **** 0.0
87 C82782 0.287323668008158 0.398551112633325 0.125253787036627 C 0.0 **** 0.0
88 C82783 0.289250732864106 0.41426990496466 0.114797198172446 C 0.0 **** 0.0
89 O82784 0.292587152632514 0.428671867744547 0.125087987926442 O 0.0 **** 0.0
90 C82790 0.274207494353514 0.417343323558045 0.102555439566822 C 0.0 **** 0.0
91 C82791 0.259115048351528 0.405490596719655 0.10581509353456 C 0.0 **** 0.0
92 C82792 0.264313883008032 0.386639259424008 0.106479804285199 C 0.0 **** 0.0
93 C82793 0.282267901377568 0.383817400646235 0.113741790998445 C 0.0 **** 0.0
94 C82799 0.239325374813105 0.40614287096105 0.17548190394849 C 0.0 **** 0.0
95 C82800 0.250736472255736 0.404770767308813 0.16202265066618 C 0.0 **** 0.0
96 C82804 0.217723701016494 0.408416719643322 0.202914110985604 C 0.0 **** 0.0
97 C82805 0.220474774998048 0.392540739443808 0.195172136599964 C 0.0 **** 0.0
98 C82806 0.230970074545802 0.391615249676998 0.181495799701643 C 0.0 **** 0.0
99 C82811 0.205849888574054 0.409256572762241 0.216085387193691 C 0.0 **** 0.0
100 C82812 0.202196639562986 0.424616190050666 0.22345969692206 C 0.0 **** 0.0
101 C82813 0.211338349538723 0.438554652775547 0.218387097685008 C 0.0 **** 0.0
102 O82818 0.212977484038391 0.377843139189908 0.200694981137189 O 0.0 **** 0.0
103 C82819 0.200945093447538 0.378590226168797 0.213205051631988 C 0.0 **** 0.0
104 C82820 0.196978147663709 0.393356234741082 0.221226741814306 C 0.0 **** 0.0
105 C82825 0.188942056314773 0.426786394176508 0.237192901213739 C 0.0 **** 0.0
106 C82826 0.181028746829921 0.409442738060149 0.243875701319355 C 0.0 **** 0.0
107 C82827 0.185152308709208 0.393551044339156 0.233813243046746 C 0.0 **** 0.0
108 C82832 0.161843519901687 0.410868752694164 0.24719185172148 C 0.0 **** 0.0
109 C82833 0.157959347624136 0.427245578716198 0.256946219522255 C 0.0 **** 0.0
110 C82834 0.163860833675848 0.443158749117826 0.2470686208488 C 0.0 **** 0.0
111 C82835 0.174823821906528 0.438840069202476 0.231607794610872 C 0.0 **** 0.0
112 C82841 0.176906505516092 0.378952752938643 0.237964074478028 C 0.0 **** 0.0
113 C82842 0.181200836495944 0.364060440044439 0.230193296769424 C 0.0 **** 0.0
114 C82843 0.193095450144464 0.363922004888324 0.217753671695312 C 0.0 **** 0.0
115 C82848 0.155894508094781 0.394720313653035 0.256051877391356 C 0.0 **** 0.0
116 C82850 0.16320347490386 0.379504060338896 0.251224619837244 C 0.0 **** 0.0
117 C82853 0.315910826996129 0.574667154213282 0.128299397490648 C 0.0 **** 0.0
118 C82855 0.305292393216725 0.571562710444484 0.144205813771925 C 0.0 **** 0.0
119 C82857 0.309566382320259 0.590887407240125 0.119758232521088 C 0.0 **** 0.0
120 O82859 0.251224223690391 0.511403937845218 0.207882075729508 O 0.0 **** 0.0
121 C82861 0.197181437097208 0.349092879809386 0.20986815885167 C 0.0 **** 0.0
122 C82862 0.189513571101548 0.334380214451191 0.214378077767134 C 0.0 **** 0.0
123 C82863 0.177792407369494 0.334297861039994 0.227009984093379 C 0.0 **** 0.0
124 C82864 0.173734177519438 0.349197876238202 0.234878804880366 C 0.0 **** 0.0
125 C82870 0.16131817434636 0.349062252568382 0.248898737008817 C 0.0 **** 0.0
126 C82871 0.15389126109568 0.334058888164393 0.253136628579603 C 0.0 **** 0.0
127 C82872 0.1588314357741 0.318372692918303 0.244198233412885 C 0.0 **** 0.0
128 C82873 0.170594352412349 0.319083726638171 0.23151723909412 C 0.0 **** 0.0
129 C82879 0.151348159187636 0.303400048851005 0.248559724149685 C 0.0 **** 0.0
130 C82880 0.138798075284968 0.302807719747906 0.260520803484643 C 0.0 **** 0.0
131 C82881 0.133493667749165 0.317048606417361 0.268832723342517 C 0.0 **** 0.0
132 C82882 0.141676932651758 0.333526564677351 0.265352778390489 C 0.0 **** 0.0
133 C82888 0.136272328265956 0.348330270921795 0.273554282311763 C 0.0 **** 0.0
134 C82889 0.143848349247023 0.363709094705302 0.269239368605048 C 0.0 **** 0.0
135 C82890 0.156668258620896 0.364118763643383 0.257029867349402 C 0.0 **** 0.0
136 C82895 0.122366085996653 0.348016971648153 0.284513138916611 C 0.0 **** 0.0
137 C82896 0.114742305917075 0.330617326360751 0.28768157262293 C 0.0 **** 0.0
138 C82897 0.120430625399537 0.316225214490807 0.280025330685312 C 0.0 **** 0.0
139 C82902 0.142877451721856 0.394204194904814 0.267647644212612 C 0.0 **** 0.0
140 C82903 0.136640471505509 0.378931794229445 0.274819218363449 C 0.0 **** 0.0
141 C82908 0.115738360491042 0.363137816084617 0.290717971397171 C 0.0 **** 0.0
142 C82909 0.122642139056944 0.378596023972463 0.285925032208645 C 0.0 **** 0.0
143 C82913 0.115067067635794 0.39548462129366 0.291623841324791 C 0.0 **** 0.0
144 C82914 0.103167896840073 0.394159426287296 0.30680603886485 C 0.0 **** 0.0
145 C82915 0.0911217167909527 0.379490964121316 0.30407584405944 C 0.0 **** 0.0
146 C82916 0.100926752822484 0.363137064002312 0.302579900377995 C 0.0 **** 0.0
147 O82922 0.0972392636313595 0.351356479967074 0.311657664186524 O 0.0 **** 0.0
148 H82924 0.388213973936855 0.581830639422873 0.0184496225601191 H 0.0 **** 0.0
149 H82926 0.368561598708498 0.581281704178972 0.0291795806335275 H 0.0 **** 0.0
150 H82928 0.398281319548753 0.586478688229641 0.0462143888498135 H 0.0 **** 0.0
151 H82930 0.38144422293449 0.57546195892881 0.0557611185598163 H 0.0 **** 0.0
152 H82932 0.410246211903141 0.559092946286962 0.0362631345203565 H 0.0 **** 0.0
153 H82934 0.398810938881092 0.534242462096551 0.037151517252137 H 0.0 **** 0.0
154 H82936 0.364395053787677 0.551318232189305 0.0420725291990462 H 0.0 **** 0.0
155 H82938 0.370028675142275 0.535236192634806 0.0276690282949002 H 0.0 **** 0.0
156 H82940 0.374460263124057 0.537961995749508 0.0661959946475146 H 0.0 **** 0.0
157 H82942 0.39436669110215 0.541058438229519 0.0855999522920089 H 0.0 **** 0.0
158 H82944 0.422031182423041 0.533918676175284 0.0601522370781646 H 0.0 **** 0.0
159 H82946 0.424598357939837 0.542020156208441 0.0807603101209308 H 0.0 **** 0.0
160 H82948 0.424272727517195 0.566417152249349 0.0606107464984415 H 0.0 **** 0.0
161 H82950 0.405933028700397 0.566664866665453 0.0732794473485167 H 0.0 **** 0.0
162 H82952 0.395715322097475 0.496187643931728 0.0937029496437408 H 0.0 **** 0.0
163 H82954 0.39242702704652 0.49083479956956 0.0651011004449362 H 0.0 **** 0.0
164 H82956 0.369354054583674 0.513608237615995 0.0493216065594696 H 0.0 **** 0.0
165 H82958 0.391007843742062 0.509995311511659 0.0463416465762089 H 0.0 **** 0.0
166 H82960 0.370506700683693 0.525209341796056 0.0893491006913277 H 0.0 **** 0.0
167 H82962 0.329320006346545 0.458913053615541 0.0833659778408599 H 0.0 **** 0.0
168 H82964 0.326907786548864 0.476864125769399 0.070444078438588 H 0.0 **** 0.0
169 H82966 0.344662556086825 0.458331206292632 0.0543053731072171 H 0.0 **** 0.0
170 H82968 0.356507236544071 0.452069403958866 0.0721515756381498 H 0.0 **** 0.0
171 H82970 0.371621215909554 0.473345981795207 0.051410634543477 H 0.0 **** 0.0
172 H82972 0.358484501583404 0.53570935198603 0.113952498561218 H 0.0 **** 0.0
173 H82973 0.403960322546431 0.523746310916178 0.145303439702149 H 0.0 **** 0.0
174 H82975 0.415271045546069 0.539164361446289 0.133637266727987 H 0.0 **** 0.0
175 H82977 0.408851947137576 0.518335820878803 0.111872293605308 H 0.0 **** 0.0
176 H82979 0.398740162798873 0.556202608338706 0.163110942914665 H 0.0 **** 0.0
177 H82981 0.410162138184985 0.563485104788782 0.145387017945844 H 0.0 **** 0.0
178 H82983 0.391501003286855 0.585041783245037 0.139356527596963 H 0.0 **** 0.0
179 H82985 0.388056605255122 0.583493236626771 0.16139785009238 H 0.0 **** 0.0
180 H82987 0.340194175303469 0.549384460039558 0.124624943110154 H 0.0 **** 0.0
181 H82989 0.336826353000167 0.552298366622238 0.146314579606851 H 0.0 **** 0.0
182 H82991 0.341295376916557 0.580576005233462 0.120295686141199 H 0.0 **** 0.0
183 H82993 0.334714664511693 0.58087715700874 0.158187442894037 H 0.0 **** 0.0
184 H82995 0.333153267082021 0.599300874415296 0.145643918412302 H 0.0 **** 0.0
185 H82997 0.361176205390781 0.59482438803054 0.160852049180134 H 0.0 **** 0.0
186 H82999 0.362731138468496 0.598661842424068 0.138910658244883 H 0.0 **** 0.0
187 H83001 0.356776215811475 0.521542227189197 0.157737232472145 H 0.0 **** 0.0
188 H83003 0.303932764132906 0.501345548045415 0.192217269421854 H 0.0 **** 0.0
189 H83005 0.275838629453767 0.496917084865752 0.203678318334928 H 0.0 **** 0.0
190 H83007 0.295237525124066 0.454148544147832 0.115339698512549 H 0.0 **** 0.0
191 H83009 0.203075971183528 0.484048233225509 0.217480953080549 H 0.0 **** 0.0
192 H83011 0.220416389390318 0.502667601800249 0.204223617979032 H 0.0 **** 0.0
193 H83013 0.249471054582941 0.496131615369552 0.228728704457484 H 0.0 **** 0.0
194 H83015 0.228135235893343 0.519357537771597 0.237982574865716 H 0.0 **** 0.0
195 H83017 0.22435053660678 0.528529993726578 0.21799406161234 H 0.0 **** 0.0
196 H83019 0.19460163867008 0.516000758694 0.218947340046221 H 0.0 **** 0.0
197 H83021 0.1978711515401 0.531442629511469 0.234705472577178 H 0.0 **** 0.0
198 H83023 0.199988967834735 0.511791936865992 0.256572417827727 H 0.0 **** 0.0
199 H83025 0.220798490454662 0.492982150809735 0.250289905462761 H 0.0 **** 0.0
200 H83027 0.194142236884107 0.466475685097841 0.243608142140035 H 0.0 **** 0.0
201 H83029 0.211184062128717 0.46619603102725 0.258045292408084 H 0.0 **** 0.0
202 H83031 0.196068085388712 0.489042758655801 0.27475286705462 H 0.0 **** 0.0
203 H83033 0.183901527608047 0.470382882426841 0.274073757024473 H 0.0 **** 0.0
204 H83035 0.167910392700568 0.498601317838363 0.267917302622886 H 0.0 **** 0.0
205 H83037 0.164348507464151 0.481905525724063 0.25366961195264 H 0.0 **** 0.0
206 H83039 0.176264306048956 0.496753771514869 0.232962914288694 H 0.0 **** 0.0
207 H83041 0.299398599096873 0.39604260583119 0.131711230983847 H 0.0 **** 0.0
208 H83043 0.30059298049707 0.412420156642098 0.107006582615868 H 0.0 **** 0.0
209 H83045 0.27019879411947 0.430620174488172 0.10364009144605 H 0.0 **** 0.0
210 H83047 0.278276580221195 0.415684749037581 0.0893349755026859 H 0.0 **** 0.0
211 H83049 0.249239854179348 0.407453993074036 0.0962535968370197 H 0.0 **** 0.0
212 H83051 0.253133621830834 0.409003527350606 0.117903226984546 H 0.0 **** 0.0
213 H83053 0.263502543542669 0.381038786705338 0.0937743058457042 H 0.0 **** 0.0
214 H83055 0.25513273031913 0.379782325041292 0.114386929926412 H 0.0 **** 0.0
215 H83057 0.291392765362318 0.382774289103623 0.103283985435406 H 0.0 **** 0.0
216 H83059 0.282761987331931 0.371728721995658 0.120645437064017 H 0.0 **** 0.0
217 H83061 0.252768963620635 0.392356956614765 0.156130346220062 H 0.0 **** 0.0
218 H83063 0.233292596439665 0.379353914217733 0.175376415200363 H 0.0 **** 0.0
219 H83065 0.207808058899673 0.450094575481173 0.225036199216138 H 0.0 **** 0.0
220 H83067 0.195211434515992 0.432708128805808 0.24817906886361 H 0.0 **** 0.0
221 H83069 0.186621919986542 0.407372475828746 0.256402044369601 H 0.0 **** 0.0
222 H83071 0.155238168022293 0.411518755256061 0.234948480812565 H 0.0 **** 0.0
223 H83073 0.164498667525121 0.42670915793324 0.269241209791306 H 0.0 **** 0.0
224 H83075 0.144406158830111 0.428409151478578 0.259784207766122 H 0.0 **** 0.0
225 H83077 0.17130159996684 0.451236474856683 0.255615998849724 H 0.0 **** 0.0
226 H83079 0.153014963516318 0.450891310345801 0.243190816888336 H 0.0 **** 0.0
227 H83081 0.179796367351338 0.450582057454511 0.226004722168381 H 0.0 **** 0.0
228 H83083 0.167158593200024 0.432804649817844 0.221650479253535 H 0.0 **** 0.0
229 H83085 0.313472099899715 0.564045618897432 0.119585946840579 H 0.0 **** 0.0
230 H83087 0.292138689257601 0.568542836399684 0.140874703346324 H 0.0 **** 0.0
231 H83089 0.305081996097568 0.582865987905167 0.152315802007269 H 0.0 **** 0.0
232 H83091 0.310287276304045 0.561083113424219 0.151779341527845 H 0.0 **** 0.0
233 H83093 0.317103039425942 0.594201090543502 0.108551636803585 H 0.0 **** 0.0
234 H83095 0.3102206936718 0.601681530182011 0.128517876982153 H 0.0 **** 0.0
235 H83097 0.296313148496403 0.589555229539368 0.115720067225597 H 0.0 **** 0.0
236 H83099 0.252633552080775 0.508068882695867 0.196397607919381 H 0.0 **** 0.0
237 H83101 0.206656055909211 0.348655036051 0.199873783137881 H 0.0 **** 0.0
238 H83103 0.193184219152554 0.322816155130294 0.207804361539773 H 0.0 **** 0.0
239 H83105 0.17428513290716 0.30752426656766 0.224922774913437 H 0.0 **** 0.0
240 H83107 0.154879243259914 0.291652881685562 0.242245649478575 H 0.0 **** 0.0
241 H83109 0.132828494728357 0.290609050381389 0.263051492196622 H 0.0 **** 0.0
242 H83111 0.104043186000528 0.329286866578262 0.296192404406115 H 0.0 **** 0.0
243 H83113 0.114068799942555 0.304289328829982 0.282804973509644 H 0.0 **** 0.0
244 H83115 0.136949110954514 0.406226291658959 0.271132313842371 H 0.0 **** 0.0
245 H83117 0.125232417471284 0.404476322929027 0.294799005174852 H 0.0 **** 0.0
246 H83119 0.108027072322258 0.401026151619242 0.280901518748312 H 0.0 **** 0.0
247 H83121 0.0961267750219989 0.40603894485359 0.30861109789598 H 0.0 **** 0.0
248 H83123 0.110606154734661 0.392172188081297 0.318426712920158 H 0.0 **** 0.0
249 H83125 0.0832777791773517 0.381939557398623 0.292817834459811 H 0.0 **** 0.0
250 H83127 0.0828068060496516 0.376767364540555 0.314825102227145 H 0.0 **** 0.0
@<TRIPOS>BOND
1 3 2 1
2 4 3 1
3 5 4 1
4 6 5 1
5 1 2 1
6 1 6 1
7 8 7 1
8 9 8 1
9 10 9 1
10 4 7 1
11 3 10 1
12 12 11 1
13 13 12 1
14 14 13 1
15 8 11 1
16 7 14 1
17 16 15 1
18 17 16 Partial double
19 18 17 1
20 13 15 1
21 12 18 1
22 20 19 Partial double
23 21 20 Partial double
24 22 21 Partial double
25 17 19 Partial double
26 16 22 Partial double
27 24 23 1
28 25 24 1
29 15 25 Double
30 22 23 1
31 27 26 1
32 28 27 Partial double
33 29 28 Partial double
34 21 26 1
35 20 29 Partial double
36 31 30 1
37 32 31 1
38 18 30 1
39 19 32 1
40 34 33 Double
41 35 34 1
42 36 35 1
43 31 33 1
44 30 36 Double
45 38 37 1
46 39 38 1
47 40 39 Double
48 34 37 1
49 33 40 1
50 42 41 1
51 43 42 1
52 44 43 1
53 40 41 1
54 39 44 1
55 46 45 Partial double
56 32 46 1
57 29 45 Partial double
58 48 47 Partial double
59 49 48 1
60 45 49 Partial double
61 28 47 Partial double
62 51 50 Partial double
63 52 51 Partial double
64 53 52 Partial double
65 48 50 Partial double
66 47 53 Partial double
67 55 54 Partial double
68 56 55 Partial double
69 57 56 Partial double
70 52 54 Partial double
71 51 57 Partial double
72 59 58 Partial double
73 60 59 Partial double
74 61 60 Partial double
75 56 58 Partial double
76 55 61 Partial double
77 63 62 Partial double
78 27 63 Partial double
79 53 62 Partial double
80 65 64 Partial double
81 62 65 Partial double
82 54 64 Partial double
83 67 66 Partial double
84 64 67 Partial double
85 61 66 Partial double
86 69 68 Partial double
87 70 69 Partial double
88 66 70 Partial double
89 60 68 Partial double
90 72 71 1
91 73 72 1
92 74 73 1
93 59 71 1
94 58 74 1
95 76 75 1
96 77 76 1
97 78 77 1
98 73 75 1
99 72 78 1
100 80 79 1
101 81 80 1
102 82 81 1
103 78 79 1
104 77 82 1
105 84 83 Partial double
106 85 84 Partial double
107 67 85 Partial double
108 65 83 Partial double
109 87 86 1
110 88 87 1
111 89 88 1
112 84 86 1
113 83 89 1
114 91 90 1
115 92 91 1
116 93 92 1
117 88 90 1
118 87 93 1
119 95 94 Partial double
120 85 95 Partial double
121 70 94 Partial double
122 97 96 Partial double
123 98 97 Partial double
124 94 98 Partial double
125 69 96 Partial double
126 100 99 Partial double
127 101 100 Partial double
128 68 101 Partial double
129 96 99 Partial double
130 103 102 1
131 104 103 Partial double
132 97 102 1
133 99 104 1
134 106 105 1
135 107 106 1
136 100 105 1
137 104 107 Partial double
138 109 108 1
139 110 109 1
140 111 110 1
141 106 108 1
142 105 111 1
143 113 112 1
144 114 113 1
145 103 114 Partial double
146 107 112 Partial double
147 108 115 1
148 112 116 Partial double
149 115 116 Partial double
150 42 117 1
151 117 118 1
152 117 119 1
153 74 120 1
154 122 121 1
155 123 122 Partial double
156 124 123 1
157 114 121 Partial double
158 113 124 Partial double
159 126 125 Partial double
160 127 126 1
161 128 127 Partial double
162 124 125 Partial double
163 123 128 Partial double
164 130 129 Partial double
165 131 130 1
166 132 131 1
167 127 129 Partial double
168 126 132 Partial double
169 134 133 Partial double
170 135 134 Partial double
171 125 135 Partial double
172 132 133 Partial double
173 137 136 Partial double
174 138 137 Partial double
175 131 138 Partial double
176 133 136 Partial double
177 140 139 Partial double
178 134 140 Partial double
179 116 135 Partial double
180 115 139 Partial double
181 142 141 Partial double
182 140 142 Partial double
183 136 141 Partial double
184 144 143 1
185 145 144 1
186 146 145 1
187 142 143 1
188 141 146 1
189 146 147 Double
190 1 148 1
191 1 149 1
192 2 150 1
193 2 151 1
194 3 152 1
195 4 153 1
196 5 154 1
197 5 155 1
198 7 156 1
199 8 157 1
200 9 158 1
201 9 159 1
202 10 160 1
203 10 161 1
204 12 162 1
205 13 163 1
206 14 164 1
207 14 165 1
208 18 166 1
209 23 167 1
210 23 168 1
211 24 169 1
212 24 170 1
213 25 171 1
214 35 173 1
215 35 174 1
216 36 175 1
217 37 176 1
218 37 177 1
219 38 178 1
220 38 179 1
221 41 180 1
222 41 181 1
223 42 182 1
224 43 183 1
225 43 184 1
226 44 185 1
227 44 186 1
228 46 187 1
229 50 188 1
230 57 189 1
231 63 190 1
232 72 191 1
233 73 192 1
234 74 193 1
235 75 194 1
236 75 195 1
237 76 196 1
238 76 197 1
239 77 198 1
240 78 199 1
241 79 200 1
242 79 201 1
243 80 202 1
244 80 203 1
245 81 204 1
246 81 205 1
247 82 206 1
248 87 207 1
249 88 208 1
250 90 209 1
251 90 210 1
252 91 211 1
253 91 212 1
254 92 213 1
255 92 214 1
256 93 215 1
257 93 216 1
258 95 217 1
259 98 218 1
260 101 219 1
261 105 220 1
262 106 221 1
263 108 222 1
264 109 223 1
265 109 224 1
266 110 225 1
267 110 226 1
268 111 227 1
269 111 228 1
270 117 229 1
271 118 230 1
272 118 231 1
273 118 232 1
274 119 233 1
275 119 234 1
276 119 235 1
277 120 236 1
278 121 237 1
279 122 238 1
280 128 239 1
281 129 240 1
282 130 241 1
283 137 242 1
284 138 243 1
285 139 244 1
286 143 245 1
287 143 246 1
288 144 247 1
289 144 248 1
290 145 249 1
291 145 250 1
292 31 172 1
@<TRIPOS>MOLECULE
Sketch 4
250 292
SMALL
USER_CHARGES


@<TRIPOS>ATOM
1 C83130 0.644982181218253 0.798558998450915 0.370466436117607 C 0.0 **** 0.0
2 C83131 0.645215848987042 0.817359461335386 0.376254455022113 C 0.0 **** 0.0
3 C83132 0.642872182471597 0.819234541923727 0.395538814976054 C 0.0 **** 0.0
4 C83133 0.627146079409169 0.808990842113741 0.401821362550651 C 0.0 **** 0.0
5 C83134 0.62408526893315 0.793480827680306 0.390220991845743 C 0.0 **** 0.0
6 O83135 0.639544031010079 0.787357882739787 0.383421234184833 O 0.0 **** 0.0
7 C83142 0.61163412599373 0.820666746451996 0.404168475887907 C 0.0 **** 0.0
8 C83143 0.615206922200314 0.833922405315441 0.4182353061545 C 0.0 **** 0.0
9 C83144 0.633659208438144 0.840191967353871 0.418105330188206 C 0.0 **** 0.0
10 C83145 0.642304225850824 0.83799722942606 0.400928740462528 C 0.0 **** 0.0
11 O83151 0.612880045186207 0.827110464079122 0.434783567088249 O 0.0 **** 0.0
12 C83152 0.596403103924205 0.820378284037568 0.438062895967187 C 0.0 **** 0.0
13 C83153 0.593334855488745 0.805479153837836 0.425983771358329 C 0.0 **** 0.0
14 C83154 0.59477508579525 0.811390259804374 0.407611334036013 C 0.0 **** 0.0
15 C83160 0.576696911653839 0.796808920391241 0.429778521430343 C 0.0 **** 0.0
16 C83161 0.562319623019567 0.807649674090999 0.436044224032629 C 0.0 **** 0.0
17 C83162 0.565100486018798 0.824579082416267 0.439983091487137 C 0.0 **** 0.0
18 C83163 0.582001962058636 0.833366883420689 0.436955652978691 C 0.0 **** 0.0
19 C83169 0.551796976793601 0.833805800809337 0.446614440373717 C 0.0 **** 0.0
20 C83170 0.536611817578259 0.825935659126651 0.450024223023199 C 0.0 **** 0.0
21 C83171 0.533272332102222 0.809593969634087 0.444706548700777 C 0.0 **** 0.0
22 C83172 0.546385031400881 0.80027651882346 0.43766671006304 C 0.0 **** 0.0
23 C83178 0.543197956907587 0.782372149179287 0.431640481317508 C 0.0 **** 0.0
24 C83179 0.558942840920795 0.7710393087262 0.434287438347891 C 0.0 **** 0.0
25 C83180 0.575093314379992 0.77984204052987 0.429190793627747 C 0.0 **** 0.0
26 O83185 0.51722116648793 0.802564318726234 0.446360205350338 O 0.0 **** 0.0
27 C83186 0.504195657641285 0.812346136157096 0.452865291903864 C 0.0 **** 0.0
28 C83187 0.506999878382436 0.82749156544057 0.461182622191114 C 0.0 **** 0.0
29 C83188 0.524230756388344 0.835187323670296 0.460695072495098 C 0.0 **** 0.0
30 C83194 0.583607553356928 0.848663571366345 0.448408303481036 C 0.0 **** 0.0
31 C83195 0.569481779102768 0.861242990593425 0.445112164773711 C 0.0 **** 0.0
32 C83196 0.552833658078129 0.852455232638854 0.45033263187489 C 0.0 **** 0.0
33 C83201 0.57169820826103 0.879104686249356 0.452927760337512 C 0.0 **** 0.0
34 C83202 0.583816148934905 0.881056740147121 0.46506641419973 C 0.0 **** 0.0
35 C83203 0.596222217791687 0.867440893180066 0.470388225473628 C 0.0 **** 0.0
36 C83204 0.595637047491958 0.851450190014987 0.459978050248811 C 0.0 **** 0.0
37 C83210 0.587991952805859 0.897629181256182 0.473304596514245 C 0.0 **** 0.0
38 C83211 0.574463682753498 0.911277257666639 0.470574955892795 C 0.0 **** 0.0
39 C83212 0.56369691456911 0.908099490100831 0.455223355525641 C 0.0 **** 0.0
40 C83213 0.562428150378957 0.89270500769932 0.447453334389594 C 0.0 **** 0.0
41 C83219 0.55024876368682 0.891640708909098 0.432257543093693 C 0.0 **** 0.0
42 C83220 0.548953311275421 0.908508611185918 0.422912582152436 C 0.0 **** 0.0
43 C83221 0.542303763199239 0.921948979259073 0.435310229521294 C 0.0 **** 0.0
44 C83222 0.554289092167565 0.923991817145275 0.450338269493598 C 0.0 **** 0.0
45 C83228 0.528688216798081 0.849307526552392 0.469459746974546 C 0.0 **** 0.0
46 C83229 0.543424990025372 0.857667471041439 0.466247324453457 C 0.0 **** 0.0
47 C83233 0.493276675346922 0.836436325966707 0.468267302312884 C 0.0 **** 0.0
48 C83234 0.495757234668144 0.851432739984936 0.477642003411731 C 0.0 **** 0.0
49 S83235 0.515562553111641 0.85613770744743 0.485628135963084 S 0.0 **** 0.0
50 C83240 0.482959443998134 0.862728879826592 0.480238947036768 C 0.0 **** 0.0
51 C83241 0.466685091239773 0.858850981820774 0.474017782126072 C 0.0 **** 0.0
52 C83242 0.463392231422909 0.84288416724021 0.466524218851605 C 0.0 **** 0.0
53 C83243 0.476672933868091 0.831510040761981 0.464273975008031 C 0.0 **** 0.0
54 C83249 0.44691870929749 0.838829369494427 0.461643431800066 C 0.0 **** 0.0
55 C83250 0.433624604901938 0.850134727168344 0.464926851465842 C 0.0 **** 0.0
56 C83251 0.436686173058172 0.865774005074366 0.47305621988407 C 0.0 **** 0.0
57 C83252 0.453467897345218 0.870382914561441 0.476104638000928 C 0.0 **** 0.0
58 C83258 0.423574283091489 0.875070475791447 0.480720392353634 C 0.0 **** 0.0
59 C83259 0.407551294181113 0.8682690720146 0.480552658376086 C 0.0 **** 0.0
60 C83260 0.403836114149607 0.854980325667203 0.469150146625592 C 0.0 **** 0.0
61 C83261 0.416993927245177 0.845264441931202 0.462302896686229 C 0.0 **** 0.0
62 C83267 0.473598273504568 0.815809767499978 0.456596769916541 C 0.0 **** 0.0
63 C83268 0.487865512560781 0.806632235051247 0.450885583490502 C 0.0 **** 0.0
64 C83272 0.443477321367348 0.822746444699935 0.455205397859036 C 0.0 **** 0.0
65 C83273 0.456508782681345 0.81069841936985 0.454053079072552 C 0.0 **** 0.0
66 C83277 0.413498974482947 0.829360384058304 0.455476988325402 C 0.0 **** 0.0
67 C83278 0.426826436522095 0.8181788838184 0.452018777394322 C 0.0 **** 0.0
68 C83282 0.386768827164744 0.850480863287675 0.465745914554704 C 0.0 **** 0.0
69 C83283 0.383467039494711 0.834182892896429 0.459591995812661 C 0.0 **** 0.0
70 C83284 0.396723759271561 0.823805942206749 0.454696709363296 C 0.0 **** 0.0
71 O83289 0.39467562770357 0.874643652671314 0.490657709965508 O 0.0 **** 0.0
72 C83290 0.399169897004524 0.885946539351641 0.503903021126554 C 0.0 **** 0.0
73 C83291 0.410926539303332 0.899434187867972 0.496879784531206 C 0.0 **** 0.0
74 C83292 0.427157377414472 0.891246865850275 0.490475751214026 C 0.0 **** 0.0
75 C83298 0.413675050385445 0.913772656235301 0.5098700998277 C 0.0 **** 0.0
76 C83299 0.41045725890556 0.907934171829813 0.528203106965878 C 0.0 **** 0.0
77 C83300 0.415764568356888 0.889561551274063 0.531609438733681 C 0.0 **** 0.0
78 C83301 0.406759732072709 0.876735409670212 0.519374779291957 C 0.0 **** 0.0
79 C83307 0.393850723544012 0.865412694611173 0.52853257749846 C 0.0 **** 0.0
80 C83308 0.401967380156231 0.856816127225543 0.544106571631443 C 0.0 **** 0.0
81 C83309 0.416271486962249 0.867470503729223 0.552313561194184 C 0.0 **** 0.0
82 N83310 0.41403340544844 0.885496243205784 0.54955120171547 N 0.0 **** 0.0
83 C83316 0.452553822041689 0.793437228293536 0.451355168314741 C 0.0 **** 0.0
84 C83317 0.43607355339932 0.788803077128394 0.44779446054515 C 0.0 **** 0.0
85 C83318 0.423234271166845 0.801248485137848 0.447927534511926 C 0.0 **** 0.0
86 O83323 0.43144969903456 0.772188853145035 0.444471925277097 O 0.0 **** 0.0
87 C83324 0.443144398810244 0.76036744072894 0.451495240841209 C 0.0 **** 0.0
88 C83325 0.460871892004958 0.76492011213649 0.446581247960871 C 0.0 **** 0.0
89 O83326 0.465260232228163 0.78139810691062 0.452400491666505 O 0.0 **** 0.0
90 C83332 0.463729874673589 0.763049145164889 0.427433970647053 C 0.0 **** 0.0
91 C83333 0.45942695567354 0.74513758354561 0.421446369238884 C 0.0 **** 0.0
92 C83334 0.441312492329874 0.740496922624026 0.426611930217168 C 0.0 **** 0.0
93 C83335 0.438720093079609 0.742397116061989 0.445747164328774 C 0.0 **** 0.0
94 C83341 0.393006048151973 0.806892825441508 0.450230347569257 C 0.0 **** 0.0
95 C83342 0.406416244610867 0.795920705125404 0.446368653563872 C 0.0 **** 0.0
96 C83346 0.366851734145344 0.828045381046718 0.460360845865782 C 0.0 **** 0.0
97 C83347 0.363036230536414 0.811434794523692 0.455096440129829 C 0.0 **** 0.0
98 C83348 0.376089149251994 0.801085462367168 0.450289529981154 C 0.0 **** 0.0
99 C83353 0.353881526873974 0.837682957185021 0.467844524402934 C 0.0 **** 0.0
100 C83354 0.356865308066617 0.85411953143972 0.472925683591511 C 0.0 **** 0.0
101 C83355 0.372823889000556 0.860572651960755 0.470248068598914 C 0.0 **** 0.0
102 O83360 0.346578246186633 0.805571147997896 0.454618486796535 O 0.0 **** 0.0
103 C83361 0.33468825703843 0.81338823754114 0.464781243003759 C 0.0 **** 0.0
104 C83362 0.337316050562616 0.829286495460772 0.47103408640579 C 0.0 **** 0.0
105 C83367 0.344211711425044 0.864972281604358 0.482477367671508 C 0.0 **** 0.0
106 C83368 0.328422125052306 0.854393171246691 0.48901306671913 C 0.0 **** 0.0
107 C83369 0.325502532741799 0.837083128832857 0.480927354720697 C 0.0 **** 0.0
108 C83374 0.312112303872642 0.865125883685629 0.489073865855734 C 0.0 **** 0.0
109 C83375 0.315801108057666 0.882826208098411 0.496126197716876 C 0.0 **** 0.0
110 C83376 0.328028200607092 0.892580397840279 0.484294080251914 C 0.0 **** 0.0
111 C83377 0.338691895676658 0.880858375479823 0.472868876688056 C 0.0 **** 0.0
112 C83383 0.310719326488535 0.828921686770947 0.484376165889349 C 0.0 **** 0.0
113 C83384 0.308242403103364 0.812712250286316 0.478686922379728 C 0.0 **** 0.0
114 C83385 0.320033769099552 0.805085652760115 0.468669395466911 C 0.0 **** 0.0
115 C83390 0.298435260540518 0.855059778707905 0.498197764877908 C 0.0 **** 0.0
116 C83392 0.297671762729057 0.837779460299553 0.495097676230167 C 0.0 **** 0.0
117 C83395 0.538749397470416 0.907292885143397 0.406260710298608 C 0.0 **** 0.0
118 C83397 0.520020878549674 0.902993748521985 0.408768570778552 C 0.0 **** 0.0
119 C83399 0.540329806118702 0.923411154781108 0.395590351885114 C 0.0 **** 0.0
120 O83401 0.435479449033135 0.903110118672844 0.47973641535721 O 0.0 **** 0.0
121 C83403 0.317130616105981 0.78914111806447 0.462634856167656 C 0.0 **** 0.0
122 C83404 0.302858127697817 0.780571680918879 0.466985805971724 C 0.0 **** 0.0
123 C83405 0.291222428433796 0.787879920941226 0.477400563210193 C 0.0 **** 0.0
124 C83406 0.294000797643946 0.80397936289301 0.483130312636855 C 0.0 **** 0.0
125 C83412 0.281486948333822 0.811847730375996 0.494610921886356 C 0.0 **** 0.0
126 C83413 0.267356248902693 0.802895559313168 0.498867786190131 C 0.0 **** 0.0
127 C83414 0.264961909429308 0.785621481073732 0.492134470757769 C 0.0 **** 0.0
128 C83415 0.276998137106323 0.778762194084961 0.481723622431102 C 0.0 **** 0.0
129 C83421 0.250753896701473 0.776762358238491 0.49649717323472 C 0.0 **** 0.0
130 C83422 0.238815668606616 0.783541539595434 0.507111867767747 C 0.0 **** 0.0
131 C83423 0.240539771893901 0.799468300729884 0.513704098362594 C 0.0 **** 0.0
132 C83424 0.255471651664967 0.809813995600243 0.509345569826825 C 0.0 **** 0.0
133 C83430 0.257362183714983 0.826232590611279 0.515816279294936 C 0.0 **** 0.0
134 C83431 0.27154529922332 0.835571871013373 0.511062742811835 C 0.0 **** 0.0
135 C83432 0.283850500714285 0.828310247988577 0.500644351884432 C 0.0 **** 0.0
136 C83437 0.245438033165903 0.833236246704631 0.526851248937662 C 0.0 **** 0.0
137 C83438 0.230355487577974 0.821890362756016 0.530636617690295 C 0.0 **** 0.0
138 C83439 0.228513105613154 0.805983259314848 0.524151097681404 C 0.0 **** 0.0
139 C83444 0.286177753759131 0.862147041206159 0.508379585123081 C 0.0 **** 0.0
140 C83445 0.273045857735201 0.852506400307502 0.515984092776168 C 0.0 **** 0.0
141 C83450 0.248006851545496 0.849451630380763 0.533424830519123 C 0.0 **** 0.0
142 C83451 0.261574114220987 0.859257798506681 0.52787251996416 C 0.0 **** 0.0
143 C83455 0.264219772335641 0.877459897416661 0.5337438627679 C 0.0 **** 0.0
144 C83456 0.257180428129028 0.880719080922912 0.551373442473309 C 0.0 **** 0.0
145 C83457 0.239036741369592 0.874845532615929 0.551917612181588 C 0.0 **** 0.0
146 C83458 0.236409515288598 0.856704559769845 0.546615157124738 C 0.0 **** 0.0
147 O83464 0.2254583071604 0.848803271371345 0.553867585947349 O 0.0 **** 0.0
148 H83466 0.657715000909174 0.794349168033939 0.366887276997218 H 0.0 **** 0.0
149 H83468 0.637035064470605 0.797063012976282 0.359083686375019 H 0.0 **** 0.0
150 H83470 0.656997053762536 0.823680732387444 0.372290020765346 H 0.0 **** 0.0
151 H83472 0.634919615838804 0.824403130506685 0.369994714584288 H 0.0 **** 0.0
152 H83474 0.654065738560997 0.813428467899235 0.401562740632423 H 0.0 **** 0.0
153 H83476 0.630426351236757 0.804093065840987 0.414456004080425 H 0.0 **** 0.0
154 H83478 0.615103824297873 0.796548702729124 0.379979382445679 H 0.0 **** 0.0
155 H83480 0.618470498506174 0.783005747097949 0.397429283825103 H 0.0 **** 0.0
156 H83482 0.610137858884581 0.827584587291119 0.392117046861409 H 0.0 **** 0.0
157 H83484 0.606689506964333 0.844802062149928 0.416256634137216 H 0.0 **** 0.0
158 H83486 0.640596925558434 0.832701838490217 0.427569189789531 H 0.0 **** 0.0
159 H83488 0.634484881727877 0.853432746293172 0.422383274778993 H 0.0 **** 0.0
160 H83490 0.655212196514299 0.843252673404728 0.401184097179818 H 0.0 **** 0.0
161 H83492 0.635240114826685 0.845416849120202 0.391461066415279 H 0.0 **** 0.0
162 H83494 0.597237977542812 0.815562924285108 0.45109781651102 H 0.0 **** 0.0
163 H83496 0.603488618925113 0.796226181680698 0.428278821630854 H 0.0 **** 0.0
164 H83498 0.584342046975918 0.820192144267356 0.404788263697582 H 0.0 **** 0.0
165 H83500 0.593026516101644 0.800732513569885 0.398812643681031 H 0.0 **** 0.0
166 H83502 0.58179702127867 0.838456608280313 0.423936468751126 H 0.0 **** 0.0
167 H83504 0.532345809527367 0.776764027602855 0.438303117392403 H 0.0 **** 0.0
168 H83506 0.539833671027138 0.782568040927652 0.418096082235006 H 0.0 **** 0.0
169 H83508 0.557485611382571 0.759204004385592 0.427033964824445 H 0.0 **** 0.0
170 H83510 0.559865368579971 0.767384113154814 0.447689768731589 H 0.0 **** 0.0
171 H83512 0.585579574177628 0.771581654038616 0.425777603174901 H 0.0 **** 0.0
172 H83514 0.569260019910123 0.862845799457334 0.431260135494542 H 0.0 **** 0.0
173 H83515 0.594185110373834 0.864494815131773 0.483847362482465 H 0.0 **** 0.0
174 H83517 0.60911138096668 0.87275655801415 0.46933518928015 H 0.0 **** 0.0
175 H83519 0.60566902052375 0.842236036903781 0.461975218794694 H 0.0 **** 0.0
176 H83521 0.590051119144486 0.895733181835271 0.486979601042815 H 0.0 **** 0.0
177 H83523 0.600137993915961 0.902075723479245 0.468065257660224 H 0.0 **** 0.0
178 H83525 0.580712789830879 0.923725438682526 0.469542685206974 H 0.0 **** 0.0
179 H83527 0.566075182131101 0.911963018941065 0.481689955394216 H 0.0 **** 0.0
180 H83529 0.554414116088865 0.881892939505001 0.423264288330081 H 0.0 **** 0.0
181 H83531 0.537702766203068 0.887619794917279 0.436746381064589 H 0.0 **** 0.0
182 H83533 0.56193024758078 0.912251370271548 0.419234345030229 H 0.0 **** 0.0
183 H83535 0.529666849654794 0.918173102120541 0.439734373671138 H 0.0 **** 0.0
184 H83537 0.540686826248953 0.934340698846036 0.429147106150147 H 0.0 **** 0.0
185 H83539 0.547411820214637 0.928862149610902 0.461468407211009 H 0.0 **** 0.0
186 H83541 0.563861932659375 0.93363326460095 0.447088970040513 H 0.0 **** 0.0
187 H83543 0.548022480918918 0.868184067521688 0.473818667736258 H 0.0 **** 0.0
188 H83545 0.485076646680857 0.874701628763089 0.486891621487345 H 0.0 **** 0.0
189 H83547 0.456616249653291 0.882151957220141 0.482655777893918 H 0.0 **** 0.0
190 H83549 0.486619016891607 0.794923710491691 0.443580225741379 H 0.0 **** 0.0
191 H83551 0.387329184282906 0.892159066197261 0.507937536925166 H 0.0 **** 0.0
192 H83553 0.404782687002743 0.904734245606345 0.485550683583134 H 0.0 **** 0.0
193 H83555 0.435518010356826 0.88802903567632 0.5011473591706 H 0.0 **** 0.0
194 H83557 0.426425773778076 0.919133726851344 0.508639725339043 H 0.0 **** 0.0
195 H83559 0.405093114160774 0.924384556879606 0.507125587692684 H 0.0 **** 0.0
196 H83561 0.396803148952925 0.908970475388619 0.530761114607325 H 0.0 **** 0.0
197 H83563 0.416837722683612 0.916479279901608 0.537188386556047 H 0.0 **** 0.0
198 H83565 0.429455110331918 0.888876625582904 0.528973756751044 H 0.0 **** 0.0
199 H83567 0.416528498170367 0.868023965373744 0.514527870220022 H 0.0 **** 0.0
200 H83569 0.383201346835087 0.873337200806833 0.532815836752118 H 0.0 **** 0.0
201 H83571 0.388497071015274 0.855933096158967 0.519829357088923 H 0.0 **** 0.0
202 H83573 0.407208031345923 0.844397157114094 0.54061525515958 H 0.0 **** 0.0
203 H83575 0.392012863432665 0.854089608542462 0.553464630942746 H 0.0 **** 0.0
204 H83577 0.428567884412871 0.863848999729164 0.546825124821396 H 0.0 **** 0.0
205 H83579 0.417290869093715 0.864718758275751 0.565932519622117 H 0.0 **** 0.0
206 H83581 0.402613854050349 0.889108960928066 0.553911389925327 H 0.0 **** 0.0
207 H83583 0.441975772928624 0.761221822783398 0.465314223759053 H 0.0 **** 0.0
208 H83585 0.469494277136269 0.756020896107194 0.452994940370651 H 0.0 **** 0.0
209 H83587 0.455731976059673 0.772281602498959 0.420712879210761 H 0.0 **** 0.0
210 H83589 0.476929290379473 0.766341072885992 0.42440543531193 H 0.0 **** 0.0
211 H83591 0.46836275654783 0.736093095038674 0.427136332247933 H 0.0 **** 0.0
212 H83593 0.460993020941526 0.74403532520325 0.407641154633031 H 0.0 **** 0.0
213 H83595 0.438071440439561 0.727632298292838 0.42235725968866 H 0.0 **** 0.0
214 H83597 0.432561535376364 0.749184682544821 0.420151817564581 H 0.0 **** 0.0
215 H83599 0.446703328587749 0.733187798639039 0.452512962811593 H 0.0 **** 0.0
216 H83601 0.425503734705621 0.739601535506865 0.449180442375353 H 0.0 **** 0.0
217 H83603 0.403585669779253 0.782631939058531 0.443470331642641 H 0.0 **** 0.0
218 H83605 0.373633882067079 0.788016527145964 0.446363992964397 H 0.0 **** 0.0
219 H83607 0.374478762276862 0.873890170709179 0.473686028963719 H 0.0 **** 0.0
220 H83609 0.350667491978964 0.869477343826878 0.4940392198054 H 0.0 **** 0.0
221 H83611 0.331200713046161 0.851764976708005 0.502409267245034 H 0.0 **** 0.0
222 H83613 0.307572500923872 0.867072797301931 0.47607940655846 H 0.0 **** 0.0
223 H83615 0.321436685412215 0.881494035096319 0.508791151709187 H 0.0 **** 0.0
224 H83617 0.304163043199891 0.89030662000614 0.4975772434047 H 0.0 **** 0.0
225 H83619 0.33650355722389 0.900605805259578 0.491895736400346 H 0.0 **** 0.0
226 H83621 0.320692750662367 0.90127416811378 0.476264988253596 H 0.0 **** 0.0
227 H83623 0.349658174090989 0.887871107911695 0.467946909690234 H 0.0 **** 0.0
228 H83625 0.331176538504502 0.877089353207632 0.461814701417497 H 0.0 **** 0.0
229 H83627 0.544408853105585 0.896921673206953 0.398770583901186 H 0.0 **** 0.0
230 H83629 0.513603166943646 0.9017138515451 0.396478221401615 H 0.0 **** 0.0
231 H83631 0.513449355543495 0.912957581937587 0.415925275243874 H 0.0 **** 0.0
232 H83633 0.518332543444031 0.891013370282238 0.415599370832889 H 0.0 **** 0.0
233 H83635 0.553640512178901 0.926803100260139 0.393349205393101 H 0.0 **** 0.0
234 H83637 0.534166351036324 0.934207791682234 0.401839125409133 H 0.0 **** 0.0
235 H83639 0.534268221346422 0.921742810828107 0.383167173319134 H 0.0 **** 0.0
236 H83641 0.438917409516032 0.897005625989749 0.469959527547137 H 0.0 **** 0.0
237 H83643 0.326120728055364 0.782887507996317 0.454285696090159 H 0.0 **** 0.0
238 H83645 0.301043359207197 0.767840121056709 0.461999838789028 H 0.0 **** 0.0
239 H83647 0.275276321040184 0.765980782968216 0.476791384950253 H 0.0 **** 0.0
240 H83649 0.248688662414203 0.764009607576349 0.491657713655038 H 0.0 **** 0.0
241 H83651 0.227788118832404 0.775851808546583 0.510210898185377 H 0.0 **** 0.0
242 H83653 0.220272722739673 0.826463470878191 0.53869451506474 H 0.0 **** 0.0
243 H83655 0.217269914422295 0.798716859669029 0.527411300793828 H 0.0 **** 0.0
244 H83657 0.287073064925405 0.875720895462056 0.510899184013923 H 0.0 **** 0.0
245 H83659 0.27775385581248 0.880655816161972 0.533985162021893 H 0.0 **** 0.0
246 H83661 0.258166024806458 0.886128930594619 0.524649157020727 H 0.0 **** 0.0
247 H83663 0.257989423878835 0.894206858004867 0.554727330394432 H 0.0 **** 0.0
248 H83665 0.264863567736329 0.873801666479483 0.560707924931427 H 0.0 **** 0.0
249 H83667 0.231119871542755 0.882822069700749 0.54369727718278 H 0.0 **** 0.0
250 H83669 0.233325075079073 0.874816130371413 0.564557143380961 H 0.0 **** 0.0
@<TRIPOS>BOND
1 3 2 1
2 4 3 1
3 5 4 1
4 6 5 1
5 1 2 1
6 1 6 1
7 8 7 1
8 9 8 1
9 10 9 1
10 4 7 1
11 3 10 1
12 12 11 1
13 13 12 1
14 14 13 1
15 8 11 1
16 7 14 1
17 16 15 1
18 17 16 Partial double
19 18 17 1
20 13 15 1
21 12 18 1
22 20 19 Partial double
23 21 20 Partial double
24 22 21 Partial double
25 17 19 Partial double
26 16 22 Partial double
27 24 23 1
28 25 24 1
29 15 25 Double
30 22 23 1
31 27 26 1
32 28 27 Partial double
33 29 28 Partial double
34 21 26 1
35 20 29 Partial double
36 31 30 1
37 32 31 1
38 18 30 1
39 19 32 1
40 34 33 Double
41 35 34 1
42 36 35 1
43 31 33 1
44 30 36 Double
45 38 37 1
46 39 38 1
47 40 39 Double
48 34 37 1
49 33 40 1
50 42 41 1
51 43 42 1
52 44 43 1
53 40 41 1
54 39 44 1
55 46 45 Partial double
56 32 46 1
57 29 45 Partial double
58 48 47 Partial double
59 49 48 1
60 45 49 Partial double
61 28 47 Partial double
62 51 50 Partial double
63 52 51 Partial double
64 53 52 Partial double
65 48 50 Partial double
66 47 53 Partial double
67 55 54 Partial double
68 56 55 Partial double
69 57 56 Partial double
70 52 54 Partial double
71 51 57 Partial double
72 59 58 Partial double
73 60 59 Partial double
74 61 60 Partial double
75 56 58 Partial double
76 55 61 Partial double
77 63 62 Partial double
78 27 63 Partial double
79 53 62 Partial double
80 65 64 Partial double
81 62 65 Partial double
82 54 64 Partial double
83 67 66 Partial double
84 64 67 Partial double
85 61 66 Partial double
86 69 68 Partial double
87 70 69 Partial double
88 66 70 Partial double
89 60 68 Partial double
90 72 71 1
91 73 72 1
92 74 73 1
93 59 71 1
94 58 74 1
95 76 75 1
96 77 76 1
97 78 77 1
98 73 75 1
99 72 78 1
100 80 79 1
101 81 80 1
102 82 81 1
103 78 79 1
104 77 82 1
105 84 83 Partial double
106 85 84 Partial double
107 67 85 Partial double
108 65 83 Partial double
109 87 86 1
110 88 87 1
111 89 88 1
112 84 86 1
113 83 89 1
114 91 90 1
115 92 91 1
116 93 92 1
117 88 90 1
118 87 93 1
119 95 94 Partial double
120 85 95 Partial double
121 70 94 Partial double
122 97 96 Partial double
123 98 97 Partial double
124 94 98 Partial double
125 69 96 Partial double
126 100 99 Partial double
127 101 100 Partial double
128 68 101 Partial double
129 96 99 Partial double
130 103 102 1
131 104 103 Partial double
132 97 102 1
133 99 104 1
134 106 105 1
135 107 106 1
136 100 105 1
137 104 107 Partial double
138 109 108 1
139 110 109 1
140 111 110 1
141 106 108 1
142 105 111 1
143 113 112 1
144 114 113 1
145 103 114 Partial double
146 107 112 Partial double
147 108 115 1
148 112 116 Partial double
149 115 116 Partial double
150 42 117 1
151 117 118 1
152 117 119 1
153 74 120 1
154 122 121 1
155 123 122 Partial double
156 124 123 1
157 114 121 Partial double
158 113 124 Partial double
159 126 125 Partial double
160 127 126 1
161 128 127 Partial double
162 124 125 Partial double
163 123 128 Partial double
164 130 129 Partial double
165 131 130 1
166 132 131 1
167 127 129 Partial double
168 126 132 Partial double
169 134 133 Partial double
170 135 134 Partial double
171 125 135 Partial double
172 132 133 Partial double
173 137 136 Partial double
174 138 137 Partial double
175 131 138 Partial double
176 133 136 Partial double
177 140 139 Partial double
178 134 140 Partial double
179 116 135 Partial double
180 115 139 Partial double
181 142 141 Partial double
182 140 142 Partial double
183 136 141 Partial double
184 144 143 1
185 145 144 1
186 146 145 1
187 142 143 1
188 141 146 1
189 146 147 Double
190 1 148 1
191 1 149 1
192 2 150 1
193 2 151 1
194 3 152 1
195 4 153 1
196 5 154 1
197 5 155 1
198 7 156 1
199 8 157 1
200 9 158 1
201 9 159 1
202 10 160 1
203 10 161 1
204 12 162 1
205 13 163 1
206 14 164 1
207 14 165 1
208 18 166 1
209 23 167 1
210 23 168 1
211 24 169 1
212 24 170 1
213 25 171 1
214 35 173 1
215 35 174 1
216 36 175 1
217 37 176 1
218 37 177 1
219 38 178 1
220 38 179 1
221 41 180 1
222 41 181 1
223 42 182 1
224 43 183 1
225 43 184 1
226 44 185 1
227 44 186 1
228 46 187 1
229 50 188 1
230 57 189 1
231 63 190 1
232 72 191 1
233 73 192 1
234 74 193 1
235 75 194 1
236 75 195 1
237 76 196 1
238 76 197 1
239 77 198 1
240 78 199 1
241 79 200 1
242 79 201 1
243 80 202 1
244 80 203 1
245 81 204 1
246 81 205 1
247 82 206 1
248 87 207 1
249 88 208 1
250 90 209 1
251 90 210 1
252 91 211 1
253 91 212 1
254 92 213 1
255 92 214 1
256 93 215 1
257 93 216 1
258 95 217 1
259 98 218 1
260 101 219 1
261 105 220 1
262 106 221 1
263 108 222 1
264 109 223 1
265 109 224 1
266 110 225 1
267 110 226 1
268 111 227 1
269 111 228 1
270 117 229 1
271 118 230 1
272 118 231 1
273 118 232 1
274 119 233 1
275 119 234 1
276 119 235 1
277 120 236 1
278 121 237 1
279 122 238 1
280 128 239 1
281 129 240 1
282 130 241 1
283 137 242 1
284 138 243 1
285 139 244 1
286 143 245 1
287 143 246 1
288 144 247 1
289 144 248 1
290 145 249 1
291 145 250 1
292 31 172 1
