@<TRIPOS>MOLECULE
6ZJU
8477 7925
SMALL
USER_CHARGES


@<TRIPOS>ATOM
1 N -0.207 49.298 40.675 N.4 0.0 **** 0.803
2 CA 0.861 48.532 40.028 C.3 0.0 **** 0.2315
3 C 0.481 47.07 39.92 C.2 0.0 **** 0.2608
4 O 0.507 46.344 40.909 O.2 0.0 **** -0.2705
5 CB 2.165 48.665 40.795 C.3 0.0 **** 0.2083
6 OG 2.413 50.02 41.094 O.3 0.0 **** -0.1816
7 N 0.14 46.64 38.705 N.am 0.0 **** -0.177
8 CA -0.559 45.383 38.498 C.3 0.0 **** 0.1713
9 C 0.237 44.349 37.725 C.2 0.0 **** 0.2428
10 O -0.235 43.216 37.582 O.2 0.0 **** -0.2727
11 CB -1.878 45.628 37.754 C.3 0.0 **** 0.0378
12 CG -3.006 46.367 38.469 C.3 0.0 **** -0.0149
13 CD1 -2.6 47.779 38.912 C.3 0.0 **** 0.0072
14 CD2 -4.248 46.432 37.557 C.3 0.0 **** 0.0072
15 N 1.403 44.693 37.196 N.am 0.0 **** -0.1786
16 CA 2.133 43.714 36.41 C.3 0.0 **** 0.1714
17 C 2.685 42.625 37.33 C.2 0.0 **** 0.2428
18 O 2.972 42.87 38.5 O.2 0.0 **** -0.2727
19 CB 3.255 44.392 35.621 C.3 0.0 **** 0.0434
20 CG 4.469 44.831 36.439 C.3 0.0 **** 0.0873
21 CD 4.388 46.232 36.995 C.2 0.0 **** 0.1859
22 OE1 3.283 46.814 37.125 O.co2 0.0 **** -0.6397
23 OE2 5.496 46.752 37.278 O.co2 0.0 **** -0.6397
24 N 2.796 41.409 36.793 N.am 0.0 **** -0.1786
25 CA 3.348 40.266 37.506 C.3 0.0 **** 0.1712
26 C 4.871 40.252 37.44 C.2 0.0 **** 0.2425
27 O 5.479 40.742 36.484 O.2 0.0 **** -0.2727
28 CB 2.831 38.958 36.91 C.3 0.0 **** 0.0378
29 CG 1.307 38.744 36.933 C.3 0.0 **** -0.0149
30 CD1 0.95 37.415 36.269 C.3 0.0 **** 0.0072
31 CD2 0.747 38.794 38.347 C.3 0.0 **** 0.0072
32 N 5.48 39.686 38.481 N.am 0.0 **** -0.1817
33 CA 6.882 39.323 38.468 C.3 0.0 **** 0.2156
34 C 7.859 40.455 38.666 C.2 0.0 **** 0.2396
35 O 9.033 40.289 38.351 O.2 0.0 **** -0.273
36 N 7.432 41.587 39.228 N.am 0.0 **** -0.1792
37 CA 8.309 42.757 39.26 C.3 0.0 **** 0.1678
38 C 9.486 42.57 40.205 C.2 0.0 **** 0.2424
39 O 10.552 43.156 39.986 O.2 0.0 **** -0.2727
40 CB 7.523 43.999 39.677 C.3 0.0 **** 0.0414
41 N 9.307 41.787 41.269 N.am 0.0 **** -0.179
42 CA 10.382 41.601 42.235 C.3 0.0 **** 0.1678
43 C 11.492 40.746 41.656 C.2 0.0 **** 0.2425
44 O 12.667 41.092 41.781 O.2 0.0 **** -0.2727
45 CB 9.85 40.962 43.515 C.3 0.0 **** 0.0414
46 N 11.138 39.603 41.058 N.am 0.0 **** -0.1782
47 CA 12.116 38.801 40.329 C.3 0.0 **** 0.1789
48 C 12.868 39.657 39.31 C.2 0.0 **** 0.2432
49 O 14.095 39.574 39.185 O.2 0.0 **** -0.2727
50 CB 11.428 37.635 39.605 C.3 0.0 **** 0.1195
51 CG 11.256 36.379 40.467 C.2 0.0 **** 0.1884
52 OD1 11.284 36.458 41.723 O.co2 0.0 **** -0.6396
53 OD2 11.076 35.298 39.841 O.co2 0.0 **** -0.6396
54 N 12.147 40.472 38.547 N.am 0.0 **** -0.1784
55 CA 12.823 41.212 37.486 C.3 0.0 **** 0.1738
56 C 13.717 42.277 38.09 C.2 0.0 **** 0.243
57 O 14.842 42.49 37.639 O.2 0.0 **** -0.2727
58 CB 11.808 41.793 36.492 C.3 0.0 **** 0.0176
59 CG1 11.316 40.65 35.596 C.3 0.0 **** 0.0024
60 CG2 12.433 42.91 35.627 C.3 0.0 **** 0.0102
61 CD1 10.166 41.003 34.73 C.3 0.0 **** 0.0041
62 N 13.262 42.903 39.173 N.am 0.0 **** -0.1786
63 CA 14.096 43.894 39.83 C.3 0.0 **** 0.1714
64 C 15.415 43.282 40.289 C.2 0.0 **** 0.2428
65 O 16.466 43.914 40.189 O.2 0.0 **** -0.2727
66 CB 13.327 44.483 41.0 C.3 0.0 **** 0.0447
67 CG 13.883 45.753 41.555 C.3 0.0 **** 0.1022
68 CD 13.065 46.225 42.744 C.2 0.0 **** 0.217
69 OE1 11.835 46.085 42.76 O.2 0.0 **** -0.2753
70 NE2 13.742 46.75 43.766 N.am 0.0 **** -0.0515
71 N 15.381 42.045 40.778 N.am 0.0 **** -0.1782
72 CA 16.619 41.383 41.17 C.3 0.0 **** 0.1789
73 C 17.496 41.133 39.956 C.2 0.0 **** 0.2432
74 O 18.705 41.369 39.999 O.2 0.0 **** -0.2727
75 CB 16.34 40.056 41.9 C.3 0.0 **** 0.1195
76 CG 17.61 39.197 42.066 C.2 0.0 **** 0.1884
77 OD1 18.411 39.496 42.988 O.co2 0.0 **** -0.6396
78 OD2 17.818 38.225 41.291 O.co2 0.0 **** -0.6396
79 N 16.902 40.646 38.863 N.am 0.0 **** -0.1786
80 CA 17.689 40.363 37.664 C.3 0.0 **** 0.1712
81 C 18.336 41.618 37.102 C.2 0.0 **** 0.2428
82 O 19.407 41.536 36.488 O.2 0.0 **** -0.2727
83 CB 16.804 39.715 36.599 C.3 0.0 **** 0.0378
84 CG 16.302 38.305 36.916 C.3 0.0 **** -0.0149
85 CD1 15.49 37.796 35.711 C.3 0.0 **** 0.0072
86 CD2 17.468 37.384 37.228 C.3 0.0 **** 0.0072
87 N 17.737 42.773 37.341 N.am 0.0 **** -0.1786
88 CA 18.248 44.044 36.843 C.3 0.0 **** 0.1714
89 C 19.21 44.696 37.818 C.2 0.0 **** 0.2428
90 O 19.711 45.792 37.542 O.2 0.0 **** -0.2727
91 CB 17.078 44.982 36.509 C.3 0.0 **** 0.0434
92 CG 16.152 44.352 35.417 C.3 0.0 **** 0.0873
93 CD 15.117 45.317 34.784 C.2 0.0 **** 0.1859
94 OE1 14.827 46.367 35.388 O.co2 0.0 **** -0.6397
95 OE2 14.621 45.002 33.652 O.co2 0.0 **** -0.6397
96 N 19.534 44.011 38.92 N.am 0.0 **** -0.1765
97 CA 20.416 44.567 39.938 C.3 0.0 **** 0.1967
98 C 21.838 44.725 39.417 C.2 0.0 **** 0.2452
99 O 22.359 43.859 38.712 O.2 0.0 **** -0.2726
100 CB 20.419 43.658 41.185 C.3 0.0 **** 0.1907
101 OG 21.593 43.88 41.971 O.3 0.0 **** -0.1835
102 N 22.522 45.791 39.81 N.am 0.0 **** -0.1782
103 CA 23.938 46.043 39.469 C.3 0.0 **** 0.1753
104 C 24.862 45.377 40.475 C.2 0.0 **** 0.2431
105 O 26.05 45.412 40.267 O.2 0.0 **** -0.2727
106 CB 24.288 47.515 39.618 C.3 0.0 **** 0.0702
107 CG 23.548 48.404 38.68 C.ar 0.0 **** -0.0454
108 CD1 23.874 48.412 37.347 C.ar 0.0 **** 0.0036
109 CD2 22.533 49.218 39.128 C.ar 0.0 **** 0.0036
110 CE1 23.2 49.234 36.471 C.ar 0.0 **** 0.0003
111 CE2 21.857 50.032 38.247 C.ar 0.0 **** 0.0003
112 CZ 22.178 50.02 36.919 C.ar 0.0 **** 0.0
113 N 24.325 44.86 41.566 N.am 0.0 **** -0.1786
114 CA 25.17 44.33 42.612 C.3 0.0 **** 0.1714
115 C 25.69 42.952 42.234 C.2 0.0 **** 0.2428
116 O 25.126 42.244 41.388 O.2 0.0 **** -0.2727
117 CB 24.406 44.247 43.92 C.3 0.0 **** 0.0434
118 CG 23.944 45.585 44.427 C.3 0.0 **** 0.0873
119 CD 23.233 45.456 45.751 C.2 0.0 **** 0.1859
120 OE1 22.369 44.554 45.878 O.co2 0.0 **** -0.6397
121 OE2 23.559 46.234 46.677 O.co2 0.0 **** -0.6397
122 N 26.797 42.581 42.859 N.am 0.0 **** -0.179
123 CA 27.26 41.217 42.693 C.3 0.0 **** 0.1678
124 C 26.268 40.293 43.409 C.2 0.0 **** 0.2422
125 O 25.239 40.725 43.909 O.2 0.0 **** -0.2727
126 CB 28.689 41.099 43.191 C.3 0.0 **** 0.0414
127 N 26.51 39.004 43.43 N.am 0.0 **** -0.1817
128 CA 25.524 38.196 44.145 C.3 0.0 **** 0.2156
129 C 25.343 38.637 45.592 C.2 0.0 **** 0.2396
130 O 26.149 39.417 46.099 O.2 0.0 **** -0.273
131 N 24.311 38.161 46.273 N.am 0.0 **** -0.1789
132 CA 24.206 38.376 47.708 C.3 0.0 **** 0.171
133 C 24.354 37.06 48.47 C.2 0.0 **** 0.2425
134 O 24.05 35.985 47.95 O.2 0.0 **** -0.2727
135 CB 22.878 39.043 48.055 C.3 0.0 **** 0.0367
136 CG 21.649 38.209 47.763 C.3 0.0 **** 0.0239
137 CD 20.344 38.878 48.335 C.3 0.0 **** 0.1157
138 NE 19.109 38.188 47.948 N.pl3 0.0 **** 0.138
139 CZ 18.504 38.324 46.764 C.cat 0.0 **** 0.1634
140 NH1 19.007 39.119 45.825 N.pl3 0.0 **** 0.2799
141 NH2 17.385 37.656 46.513 N.pl3 0.0 **** 0.2799
142 N 24.828 37.161 49.719 N.am 0.0 **** -0.1817
143 CA 24.787 36.066 50.677 C.3 0.0 **** 0.2156
144 C 25.94 35.1 50.624 C.2 0.0 **** 0.2396
145 O 25.941 34.118 51.376 O.2 0.0 **** -0.273
146 N 26.922 35.339 49.76 N.am 0.0 **** -0.1792
147 CA 27.994 34.377 49.558 C.3 0.0 **** 0.1678
148 C 29.137 34.604 50.534 C.2 0.0 **** 0.2425
149 O 29.359 35.712 51.031 O.2 0.0 **** -0.2727
150 CB 28.518 34.453 48.117 C.3 0.0 **** 0.0414
151 N 29.859 33.522 50.809 N.am 0.0 **** -0.1786
152 CA 31.074 33.593 51.589 C.3 0.0 **** 0.1714
153 C 32.166 34.336 50.812 C.2 0.0 **** 0.2454
154 O 32.069 34.529 49.593 O.2 0.0 **** -0.2724
155 CB 31.55 32.188 51.951 C.3 0.0 **** 0.0378
156 CG 30.665 31.429 52.94 C.3 0.0 **** -0.0149
157 CD1 30.965 29.922 52.91 C.3 0.0 **** 0.0072
158 CD2 30.891 31.92 54.345 C.3 0.0 **** 0.0072
159 N 33.213 34.763 51.503 N.am 0.0 **** -0.3289
160 CA 34.318 35.447 50.829 C.3 0.0 **** 0.1741
161 C 34.952 34.573 49.759 C.2 0.0 **** 0.243
162 O 35.136 33.348 49.919 O.2 0.0 **** -0.2727
163 CB 35.298 35.744 51.97 C.3 0.0 **** 0.037
164 CG 34.438 35.735 53.228 C.3 0.0 **** 0.0242
165 CD 33.388 34.714 52.967 C.3 0.0 **** 0.1203
166 N 35.257 35.23 48.649 N.am 0.0 **** -0.1789
167 CA 36.002 34.622 47.567 C.3 0.0 **** 0.1678
168 C 37.333 34.096 48.088 C.2 0.0 **** 0.2425
169 O 37.978 34.741 48.917 O.2 0.0 **** -0.2727
170 CB 36.238 35.656 46.472 C.3 0.0 **** 0.0414
171 N 37.739 32.932 47.589 N.am 0.0 **** -0.1787
172 CA 38.939 32.243 48.073 C.3 0.0 **** 0.171
173 C 39.465 31.348 46.968 C.2 0.0 **** 0.2427
174 O 38.88 31.263 45.878 O.2 0.0 **** -0.2727
175 CB 38.624 31.429 49.337 C.3 0.0 **** 0.0367
176 CG 37.597 30.299 49.092 C.3 0.0 **** 0.0239
177 CD 37.753 29.207 50.15 C.3 0.0 **** 0.1157
178 NE 36.79 28.124 49.981 N.pl3 0.0 **** 0.138
179 CZ 36.874 26.942 50.593 C.cat 0.0 **** 0.1634
180 NH1 37.897 26.669 51.414 N.pl3 0.0 **** 0.2799
181 NH2 35.924 26.034 50.395 N.pl3 0.0 **** 0.2799
182 N 40.587 30.679 47.238 N.am 0.0 **** -0.179
183 CA 41.139 29.742 46.28 C.3 0.0 **** 0.1678
184 C 40.315 28.468 46.217 C.2 0.0 **** 0.2425
185 O 39.652 28.083 47.174 O.2 0.0 **** -0.2727
186 CB 42.58 29.375 46.635 C.3 0.0 **** 0.0414
187 N 40.339 27.838 45.052 N.am 0.0 **** -0.1783
188 CA 39.951 26.439 44.925 C.3 0.0 **** 0.1753
189 C 41.083 25.574 45.479 C.2 0.0 **** 0.2431
190 O 42.213 25.604 44.964 O.2 0.0 **** -0.2727
191 CB 39.663 26.125 43.465 C.3 0.0 **** 0.0702
192 CG 39.272 24.71 43.18 C.ar 0.0 **** -0.0452
193 CD1 37.986 24.27 43.437 C.ar 0.0 **** 0.0063
194 CD2 40.165 23.833 42.583 C.ar 0.0 **** 0.0063
195 CE1 37.596 22.967 43.152 C.ar 0.0 **** 0.0332
196 CE2 39.797 22.528 42.277 C.ar 0.0 **** 0.0332
197 CZ 38.504 22.104 42.559 C.ar 0.0 **** 0.0713
198 OH 38.124 20.813 42.262 O.3 0.0 **** -0.1427
199 N 40.796 24.851 46.562 N.am 0.0 **** -0.1786
200 CA 41.791 24.08 47.298 C.3 0.0 **** 0.1712
201 C 41.372 22.619 47.434 C.2 0.0 **** 0.2428
202 O 40.212 22.307 47.738 O.2 0.0 **** -0.2727
203 CB 42.011 24.687 48.696 C.3 0.0 **** 0.0378
204 CG 42.408 26.172 48.723 C.3 0.0 **** -0.0149
205 CD1 42.235 26.729 50.132 C.3 0.0 **** 0.0072
206 CD2 43.847 26.35 48.25 C.3 0.0 **** 0.0072
207 N 42.335 21.731 47.205 N.am 0.0 **** -0.1786
208 CA 42.217 20.322 47.544 C.3 0.0 **** 0.1714
209 C 42.386 20.163 49.051 C.2 0.0 **** 0.2428
210 O 43.475 20.403 49.586 O.2 0.0 **** -0.2727
211 CB 43.284 19.507 46.818 C.3 0.0 **** 0.0447
212 CG 43.345 19.737 45.33 C.3 0.0 **** 0.1022
213 CD 42.085 19.264 44.629 C.2 0.0 **** 0.217
214 OE1 41.328 18.45 45.181 O.2 0.0 **** -0.2753
215 NE2 41.845 19.772 43.415 N.am 0.0 **** -0.0515
216 N 41.337 19.727 49.725 N.am 0.0 **** -0.1765
217 CA 41.35 19.567 51.174 C.3 0.0 **** 0.1967
218 C 40.994 18.141 51.546 C.2 0.0 **** 0.2452
219 O 40.376 17.419 50.759 O.2 0.0 **** -0.2726
220 CB 40.345 20.524 51.796 C.3 0.0 **** 0.1907
221 OG 40.157 20.276 53.143 O.3 0.0 **** -0.1835
222 N 41.375 17.744 52.775 N.am 0.0 **** -0.1781
223 CA 40.918 16.492 53.348 C.3 0.0 **** 0.1789
224 C 39.583 16.645 54.063 C.2 0.0 **** 0.2432
225 O 39.11 15.7 54.687 O.2 0.0 **** -0.2727
226 CB 41.98 15.913 54.301 C.3 0.0 **** 0.1195
227 CG 42.249 16.788 55.514 C.2 0.0 **** 0.1884
228 OD1 41.594 17.835 55.687 O.co2 0.0 **** -0.6396
229 OD2 43.109 16.385 56.334 O.co2 0.0 **** -0.6396
230 N 38.958 17.811 53.975 N.am 0.0 **** -0.1789
231 CA 37.647 17.967 54.582 C.3 0.0 **** 0.1681
232 C 36.622 17.141 53.806 C.2 0.0 **** 0.2451
233 O 36.679 17.086 52.568 O.2 0.0 **** -0.2725
234 CB 37.224 19.439 54.585 C.3 0.0 **** 0.0414
235 N 35.648 16.541 54.488 N.am 0.0 **** -0.3289
236 CA 34.603 15.785 53.789 C.3 0.0 **** 0.1741
237 C 33.906 16.614 52.723 C.2 0.0 **** 0.243
238 O 33.673 17.821 52.877 O.2 0.0 **** -0.2727
239 CB 33.637 15.406 54.908 C.3 0.0 **** 0.037
240 CG 34.493 15.352 56.146 C.3 0.0 **** 0.0242
241 CD 35.554 16.398 55.948 C.3 0.0 **** 0.1203
242 N 33.556 15.954 51.632 N.am 0.0 **** -0.1787
243 CA 32.85 16.646 50.569 C.3 0.0 **** 0.171
244 C 31.947 15.653 49.863 C.2 0.0 **** 0.2427
245 O 32.201 14.443 49.865 O.2 0.0 **** -0.2727
246 CB 33.809 17.316 49.592 C.3 0.0 **** 0.0367
247 CG 34.818 16.417 48.959 C.3 0.0 **** 0.0239
248 CD 35.881 17.246 48.193 C.3 0.0 **** 0.1157
249 NE 35.361 17.933 47.011 N.pl3 0.0 **** 0.138
250 CZ 35.055 17.317 45.869 C.cat 0.0 **** 0.1634
251 NH1 35.193 15.991 45.756 N.pl3 0.0 **** 0.2799
252 NH2 34.601 18.021 44.833 N.pl3 0.0 **** 0.2799
253 N 30.859 16.178 49.311 N.am 0.0 **** -0.1786
254 CA 29.875 15.372 48.607 C.3 0.0 **** 0.1712
255 C 29.484 16.117 47.341 C.2 0.0 **** 0.2428
256 O 28.939 17.226 47.421 O.2 0.0 **** -0.2727
257 CB 28.646 15.123 49.473 C.3 0.0 **** 0.0378
258 CG 27.424 14.523 48.759 C.3 0.0 **** -0.0149
259 CD1 27.69 13.053 48.463 C.3 0.0 **** 0.0072
260 CD2 26.141 14.701 49.59 C.3 0.0 **** 0.0072
261 N 29.782 15.53 46.181 N.am 0.0 **** -0.1765
262 CA 29.333 16.116 44.925 C.3 0.0 **** 0.1967
263 C 27.836 15.885 44.779 C.2 0.0 **** 0.2451
264 O 27.356 14.769 44.967 O.2 0.0 **** -0.2726
265 CB 30.079 15.505 43.747 C.3 0.0 **** 0.1907
266 OG 29.576 16.036 42.507 O.3 0.0 **** -0.1835
267 N 27.095 16.942 44.471 N.am 0.0 **** -0.1786
268 CA 25.672 16.821 44.168 C.3 0.0 **** 0.1712
269 C 25.409 16.692 42.665 C.2 0.0 **** 0.2428
270 O 24.242 16.658 42.242 O.2 0.0 **** -0.2727
271 CB 24.917 18.017 44.76 C.3 0.0 **** 0.0378
272 CG 25.054 18.213 46.284 C.3 0.0 **** -0.0149
273 CD1 24.17 19.371 46.766 C.3 0.0 **** 0.0072
274 CD2 24.734 16.952 47.072 C.3 0.0 **** 0.0072
275 N 26.46 16.611 41.856 N.am 0.0 **** -0.1781
276 CA 26.29 16.371 40.426 C.3 0.0 **** 0.1802
277 C 25.48 15.102 40.228 C.2 0.0 **** 0.2431
278 O 25.562 14.177 41.02 O.2 0.0 **** -0.2727
279 CB 27.644 16.206 39.75 C.3 0.0 **** 0.1344
280 CG 28.491 17.45 39.807 C.2 0.0 **** 0.2196
281 OD1 28.075 18.499 40.306 O.2 0.0 **** -0.2752
282 ND2 29.706 17.336 39.287 N.am 0.0 **** -0.0514
283 N 24.712 15.046 39.158 N.am 0.0 **** -0.1817
284 CA 23.882 13.883 38.912 C.3 0.0 **** 0.2156
285 C 22.563 14.306 38.308 C.2 0.0 **** 0.2396
286 O 22.451 15.368 37.721 O.2 0.0 **** -0.273
287 N 21.544 13.475 38.46 N.am 0.0 **** -0.1789
288 CA 20.254 13.761 37.847 C.3 0.0 **** 0.1714
289 C 19.448 14.669 38.765 C.2 0.0 **** 0.2428
290 O 19.079 14.268 39.871 O.2 0.0 **** -0.2727
291 CB 19.482 12.47 37.565 C.3 0.0 **** 0.0434
292 CG 18.157 12.689 36.854 C.3 0.0 **** 0.0873
293 CD 17.284 11.432 36.824 C.2 0.0 **** 0.1859
294 OE1 17.478 10.601 35.91 O.co2 0.0 **** -0.6397
295 OE2 16.415 11.272 37.71 O.co2 0.0 **** -0.6397
296 N 19.179 15.881 38.303 N.am 0.0 **** -0.1783
297 CA 18.293 16.802 38.992 C.3 0.0 **** 0.1754
298 C 16.932 16.823 38.301 C.2 0.0 **** 0.2431
299 O 16.726 16.209 37.254 O.2 0.0 **** -0.2727
300 CB 18.885 18.217 39.02 C.3 0.0 **** 0.0724
301 CG 20.17 18.367 39.808 C.2 0.0 **** -0.0201
302 CD1 21.156 17.433 39.964 C.2 0.0 **** 0.0869
303 CD2 20.606 19.532 40.533 C.2 0.0 **** 0.0027
304 NE1 22.173 17.945 40.727 N.pl3 0.0 **** -0.195
305 CE2 21.859 19.225 41.098 C.2 0.0 **** 0.0456
306 CE3 20.052 20.792 40.766 C.2 0.0 **** 0.0104
307 CZ2 22.571 20.129 41.864 C.2 0.0 **** 0.0265
308 CZ3 20.759 21.691 41.538 C.2 0.0 **** 0.0008
309 CH2 22.012 21.355 42.076 C.2 0.0 **** 0.0022
310 N 16.004 17.57 38.887 N.am 0.0 **** -0.1786
311 CA 14.703 17.836 38.296 C.3 0.0 **** 0.1714
312 C 14.685 19.279 37.804 C.2 0.0 **** 0.2428
313 O 15.242 20.17 38.452 O.2 0.0 **** -0.2727
314 CB 13.574 17.6 39.303 C.3 0.0 **** 0.0447
315 CG 13.472 16.133 39.757 C.3 0.0 **** 0.1022
316 CD 13.184 15.183 38.608 C.2 0.0 **** 0.217
317 OE1 12.215 15.362 37.865 O.2 0.0 **** -0.2753
318 NE2 14.04 14.178 38.44 N.am 0.0 **** -0.0515
319 N 14.048 19.499 36.666 N.am 0.0 **** -0.1783
320 CA 14.185 20.752 35.92 C.3 0.0 **** 0.1753
321 C 12.853 21.163 35.315 C.2 0.0 **** 0.2431
322 O 12.139 20.336 34.749 O.2 0.0 **** -0.2727
323 CB 15.218 20.596 34.813 C.3 0.0 **** 0.0702
324 CG 15.332 21.778 33.895 C.ar 0.0 **** -0.0454
325 CD1 16.107 22.868 34.234 C.ar 0.0 **** 0.0036
326 CD2 14.689 21.776 32.667 C.ar 0.0 **** 0.0036
327 CE1 16.228 23.941 33.362 C.ar 0.0 **** 0.0003
328 CE2 14.814 22.855 31.808 C.ar 0.0 **** 0.0003
329 CZ 15.581 23.927 32.159 C.ar 0.0 **** 0.0
330 N 12.545 22.454 35.42 N.am 0.0 **** -0.1786
331 CA 11.36 23.047 34.82 C.3 0.0 **** 0.171
332 C 11.748 24.368 34.182 C.2 0.0 **** 0.2427
333 O 12.469 25.168 34.785 O.2 0.0 **** -0.2727
334 CB 10.258 23.288 35.856 C.3 0.0 **** 0.0367
335 CG 9.152 24.233 35.372 C.3 0.0 **** 0.0239
336 CD 8.075 24.459 36.428 C.3 0.0 **** 0.1157
337 NE 8.523 25.317 37.528 N.pl3 0.0 **** 0.138
338 CZ 7.8 25.564 38.614 C.cat 0.0 **** 0.1634
339 NH1 6.598 25.023 38.746 N.pl3 0.0 **** 0.2799
340 NH2 8.268 26.352 39.567 N.pl3 0.0 **** 0.2799
341 N 11.269 24.601 32.969 N.am 0.0 **** -0.1786
342 CA 11.628 25.79 32.206 C.3 0.0 **** 0.1712
343 C 10.398 26.663 32.031 C.2 0.0 **** 0.2428
344 O 9.34 26.167 31.635 O.2 0.0 **** -0.2727
345 CB 12.196 25.396 30.846 C.3 0.0 **** 0.0378
346 CG 12.64 26.52 29.925 C.3 0.0 **** -0.0149
347 CD1 13.744 27.316 30.573 C.3 0.0 **** 0.0072
348 CD2 13.093 25.94 28.599 C.3 0.0 **** 0.0072
349 N 10.536 27.958 32.334 N.am 0.0 **** -0.1765
350 CA 9.511 28.949 32.056 C.3 0.0 **** 0.1969
351 C 10.067 29.987 31.079 C.2 0.0 **** 0.2477
352 O 11.286 30.202 31.019 O.2 0.0 **** -0.2723
353 CB 9.03 29.639 33.342 C.3 0.0 **** 0.1907
354 OG 8.485 28.712 34.286 O.3 0.0 **** -0.1835
355 N 9.214 30.626 30.273 N.am 0.0 **** -0.3288
356 CA 9.724 31.538 29.235 C.3 0.0 **** 0.1741
357 C 10.116 32.912 29.739 C.2 0.0 **** 0.2428
358 O 10.753 33.656 28.992 O.2 0.0 **** -0.2727
359 CB 8.545 31.633 28.247 C.3 0.0 **** 0.037
360 CG 7.367 31.438 29.061 C.3 0.0 **** 0.0242
361 CD 7.755 30.449 30.169 C.3 0.0 **** 0.1203
362 N 9.751 33.273 30.967 N.am 0.0 **** -0.1817
363 CA 10.149 34.546 31.542 C.3 0.0 **** 0.2156
364 C 9.797 34.601 33.013 C.2 0.0 **** 0.2396
365 O 9.041 33.771 33.518 O.2 0.0 **** -0.273
366 N 10.337 35.623 33.695 N.am 0.0 **** -0.1768
367 CA 10.119 35.748 35.139 C.3 0.0 **** 0.1967
368 C 8.64 35.889 35.473 C.2 0.0 **** 0.2451
369 O 8.167 35.345 36.481 O.2 0.0 **** -0.2726
370 CB 10.872 36.954 35.699 C.3 0.0 **** 0.1907
371 OG 12.259 36.764 35.61 O.3 0.0 **** -0.1835
372 N 7.894 36.636 34.657 N.am 0.0 **** -0.1786
373 CA 6.52 36.963 35.039 C.3 0.0 **** 0.171
374 C 5.599 35.757 35.034 C.2 0.0 **** 0.2428
375 O 4.507 35.825 35.607 O.2 0.0 **** -0.2727
376 CB 5.942 38.033 34.114 C.3 0.0 **** 0.0367
377 CG 6.794 39.291 34.049 C.3 0.0 **** 0.0239
378 CD 6.112 40.413 33.294 C.3 0.0 **** 0.1157
379 NE 7.057 41.454 32.9 N.pl3 0.0 **** 0.138
380 CZ 7.382 42.508 33.645 C.cat 0.0 **** 0.1634
381 NH1 6.872 42.668 34.867 N.pl3 0.0 **** 0.2799
382 NH2 8.264 43.383 33.188 N.pl3 0.0 **** 0.2799
383 N 6.005 34.665 34.399 N.am 0.0 **** -0.1784
384 CA 5.212 33.449 34.333 C.3 0.0 **** 0.1735
385 C 5.904 32.273 34.989 C.2 0.0 **** 0.243
386 O 5.347 31.171 34.998 O.2 0.0 **** -0.2727
387 CB 4.851 33.097 32.879 C.3 0.0 **** 0.0147
388 CG1 4.011 34.215 32.255 C.3 0.0 **** 0.0099
389 CG2 6.109 32.872 32.066 C.3 0.0 **** 0.0099
390 N 7.106 32.463 35.521 N.am 0.0 **** -0.1789
391 CA 7.767 31.422 36.287 C.3 0.0 **** 0.1681
392 C 6.984 31.196 37.579 C.2 0.0 **** 0.2451
393 O 6.77 32.152 38.336 O.2 0.0 **** -0.2725
394 CB 9.206 31.82 36.592 C.3 0.0 **** 0.0414
395 N 6.544 29.976 37.875 N.am 0.0 **** -0.3289
396 CA 5.617 29.786 38.989 C.3 0.0 **** 0.1741
397 C 6.219 30.11 40.35 C.2 0.0 **** 0.243
398 O 7.406 29.887 40.619 O.2 0.0 **** -0.2727
399 CB 5.255 28.305 38.887 C.3 0.0 **** 0.037
400 CG 5.41 28.009 37.442 C.3 0.0 **** 0.0242
401 CD 6.618 28.767 37.043 C.3 0.0 **** 0.1203
402 N 5.359 30.638 41.214 N.am 0.0 **** -0.1782
403 CA 5.643 30.836 42.632 C.3 0.0 **** 0.1789
404 C 4.889 29.8 43.464 C.2 0.0 **** 0.2432
405 O 4.162 30.128 44.399 O.2 0.0 **** -0.2727
406 CB 5.265 32.254 43.036 C.3 0.0 **** 0.1195
407 CG 5.607 32.566 44.486 C.2 0.0 **** 0.1884
408 OD1 6.318 31.76 45.133 O.co2 0.0 **** -0.6396
409 OD2 5.151 33.623 44.983 O.co2 0.0 **** -0.6396
410 N 5.057 28.523 43.113 N.am 0.0 **** -0.1782
411 CA 4.175 27.456 43.56 C.3 0.0 **** 0.1789
412 C 4.802 26.573 44.649 C.2 0.0 **** 0.243
413 O 4.413 25.411 44.807 O.2 0.0 **** -0.2727
414 CB 3.753 26.612 42.358 C.3 0.0 **** 0.1195
415 CG 4.926 25.992 41.645 C.2 0.0 **** 0.1884
416 OD1 6.073 26.393 41.91 O.co2 0.0 **** -0.6396
417 OD2 4.704 25.088 40.82 O.co2 0.0 **** -0.6396
418 N 5.749 27.11 45.42 N.am 0.0 **** -0.1817
419 CA 6.374 26.361 46.502 C.3 0.0 **** 0.2156
420 C 7.267 25.226 46.051 C.2 0.0 **** 0.2396
421 O 7.595 24.341 46.851 O.2 0.0 **** -0.273
422 N 7.688 25.232 44.786 N.am 0.0 **** -0.1786
423 CA 8.478 24.126 44.266 C.3 0.0 **** 0.1754
424 C 9.794 23.937 45.011 C.2 0.0 **** 0.2431
425 O 10.363 22.84 44.962 O.2 0.0 **** -0.2727
426 CB 8.767 24.358 42.786 C.3 0.0 **** 0.0724
427 CG 9.57 25.599 42.55 C.2 0.0 **** -0.0201
428 CD1 9.107 26.884 42.496 C.2 0.0 **** 0.0869
429 CD2 10.985 25.669 42.35 C.2 0.0 **** 0.0027
430 NE1 10.153 27.753 42.264 N.pl3 0.0 **** -0.195
431 CE2 11.314 27.029 42.164 C.2 0.0 **** 0.0456
432 CE3 12.001 24.713 42.297 C.2 0.0 **** 0.0104
433 CZ2 12.617 27.45 41.944 C.2 0.0 **** 0.0265
434 CZ3 13.291 25.131 42.08 C.2 0.0 **** 0.0008
435 CH2 13.592 26.483 41.909 C.2 0.0 **** 0.0022
436 N 10.306 24.976 45.681 N.am 0.0 **** -0.1786
437 CA 11.587 24.84 46.369 C.3 0.0 **** 0.1714
438 C 11.531 23.817 47.488 C.2 0.0 **** 0.2428
439 O 12.578 23.282 47.878 O.2 0.0 **** -0.2727
440 CB 12.032 26.186 46.923 C.3 0.0 **** 0.0447
441 CG 12.344 27.23 45.837 C.3 0.0 **** 0.1022
442 CD 11.139 28.082 45.538 C.2 0.0 **** 0.217
443 OE1 10.003 27.633 45.695 O.2 0.0 **** -0.2753
444 NE2 11.372 29.337 45.156 N.am 0.0 **** -0.0515
445 N 10.341 23.543 48.015 N.am 0.0 **** -0.1786
446 CA 10.178 22.511 49.031 C.3 0.0 **** 0.1712
447 C 10.205 21.104 48.446 C.2 0.0 **** 0.2425
448 O 10.336 20.138 49.204 O.2 0.0 **** -0.2727
449 CB 8.875 22.738 49.804 C.3 0.0 **** 0.0378
450 CG 8.922 23.96 50.736 C.3 0.0 **** -0.0149
451 CD1 8.955 25.303 49.992 C.3 0.0 **** 0.0072
452 CD2 7.737 23.941 51.69 C.3 0.0 **** 0.0072
453 N 10.092 20.964 47.126 N.am 0.0 **** -0.1817
454 CA 10.305 19.686 46.474 C.3 0.0 **** 0.2156
455 C 9.148 18.722 46.538 C.2 0.0 **** 0.2396
456 O 9.33 17.54 46.228 O.2 0.0 **** -0.273
457 N 7.993 19.196 46.99 N.am 0.0 **** -0.1789
458 CA 6.839 18.278 47.139 C.3 0.0 **** 0.1714
459 C 5.776 18.649 46.112 C.2 0.0 **** 0.2428
460 O 5.524 19.849 45.95 O.2 0.0 **** -0.2727
461 CB 6.334 18.284 48.579 C.3 0.0 **** 0.0434
462 CG 6.18 19.666 49.157 C.3 0.0 **** 0.0873
463 CD 5.467 19.709 50.495 C.2 0.0 **** 0.1859
464 OE1 4.956 18.661 50.919 O.co2 0.0 **** -0.6397
465 OE2 5.407 20.786 51.091 O.co2 0.0 **** -0.6397
466 N 5.158 17.644 45.498 N.am 0.0 **** -0.179
467 CA 4.095 17.903 44.506 C.3 0.0 **** 0.1678
468 C 4.614 18.808 43.393 C.2 0.0 **** 0.2425
469 O 4.015 19.87 43.191 O.2 0.0 **** -0.2727
470 CB 2.901 18.521 45.188 C.3 0.0 **** 0.0414
471 N 5.676 18.383 42.711 N.am 0.0 **** -0.1787
472 CA 6.271 19.194 41.626 C.3 0.0 **** 0.1712
473 C 5.491 18.967 40.336 C.2 0.0 **** 0.2428
474 O 5.519 17.857 39.823 O.2 0.0 **** -0.2727
475 CB 7.696 18.702 41.392 C.3 0.0 **** 0.0378
476 CG 8.67 18.823 42.554 C.3 0.0 **** -0.0149
477 CD1 9.99 18.18 42.182 C.3 0.0 **** 0.0072
478 CD2 8.884 20.271 42.938 C.3 0.0 **** 0.0072
479 N 4.907 20.02 39.784 N.am 0.0 **** -0.1781
480 CA 4.2 19.839 38.499 C.3 0.0 **** 0.1802
481 C 5.07 20.463 37.426 C.2 0.0 **** 0.2431
482 O 5.445 21.61 37.618 O.2 0.0 **** -0.2727
483 CB 2.853 20.553 38.435 C.3 0.0 **** 0.1344
484 CG 2.654 21.551 39.548 C.2 0.0 **** 0.2196
485 OD1 2.757 21.197 40.716 O.2 0.0 **** -0.2752
486 ND2 2.333 22.784 39.197 N.am 0.0 **** -0.0514
487 N 5.325 19.725 36.351 N.am 0.0 **** -0.1817
488 CA 6.095 20.265 35.225 C.3 0.0 **** 0.2156
489 C 7.592 20.056 35.314 C.2 0.0 **** 0.2396
490 O 8.276 20.722 34.557 O.2 0.0 **** -0.273
491 N 8.083 19.192 36.198 N.am 0.0 **** -0.1786
492 CA 9.516 18.974 36.282 C.3 0.0 **** 0.1753
493 C 9.891 17.677 35.582 C.2 0.0 **** 0.2431
494 O 9.128 16.711 35.564 O.2 0.0 **** -0.2727
495 CB 9.97 18.921 37.735 C.3 0.0 **** 0.0702
496 CG 10.074 20.264 38.374 C.ar 0.0 **** -0.0454
497 CD1 8.937 20.943 38.776 C.ar 0.0 **** 0.0036
498 CD2 11.305 20.85 38.578 C.ar 0.0 **** 0.0036
499 CE1 9.027 22.187 39.377 C.ar 0.0 **** 0.0003
500 CE2 11.413 22.093 39.176 C.ar 0.0 **** 0.0003
501 CZ 10.272 22.765 39.577 C.ar 0.0 **** 0.0
502 N 11.079 17.669 34.998 N.am 0.0 **** -0.1786
503 CA 11.609 16.465 34.385 C.3 0.0 **** 0.1714
504 C 13.091 16.381 34.715 C.2 0.0 **** 0.2428
505 O 13.706 17.361 35.141 O.2 0.0 **** -0.2727
506 CB 11.386 16.475 32.876 C.3 0.0 **** 0.0434
507 CG 12.074 17.651 32.203 C.3 0.0 **** 0.0873
508 CD 11.664 17.815 30.748 C.2 0.0 **** 0.1859
509 OE1 12.08 16.969 29.922 O.co2 0.0 **** -0.6397
510 OE2 10.915 18.777 30.444 O.co2 0.0 **** -0.6397
511 N 13.666 15.202 34.515 N.am 0.0 **** -0.1765
512 CA 15.052 15.006 34.909 C.3 0.0 **** 0.1967
513 C 16.007 15.719 33.952 C.2 0.0 **** 0.2451
514 O 15.743 15.857 32.756 O.2 0.0 **** -0.2726
515 CB 15.384 13.519 34.963 C.3 0.0 **** 0.1907
516 OG 15.272 12.949 33.681 O.3 0.0 **** -0.1835
517 N 17.136 16.176 34.496 N.am 0.0 **** -0.1786
518 CA 18.133 16.869 33.721 C.3 0.0 **** 0.1714
519 C 19.461 16.635 34.416 C.2 0.0 **** 0.2454
520 O 19.539 16.82 35.647 O.2 0.0 **** -0.2724
521 CB 17.866 18.376 33.62 C.3 0.0 **** 0.0378
522 CG 18.92 19.26 32.935 C.3 0.0 **** -0.0149
523 CD1 18.752 19.281 31.398 C.3 0.0 **** 0.0072
524 CD2 18.873 20.688 33.459 C.3 0.0 **** 0.0072
525 N 20.51 16.255 33.688 N.am 0.0 **** -0.3289
526 CA 21.827 16.159 34.315 C.3 0.0 **** 0.1741
527 C 22.318 17.53 34.73 C.2 0.0 **** 0.243
528 O 22.078 18.525 34.046 O.2 0.0 **** -0.2727
529 CB 22.7 15.561 33.212 C.3 0.0 **** 0.037
530 CG 22.057 16.034 31.964 C.3 0.0 **** 0.0242
531 CD 20.581 15.951 32.257 C.3 0.0 **** 0.1203
532 N 22.985 17.571 35.88 N.am 0.0 **** -0.1784
533 CA 23.695 18.757 36.343 C.3 0.0 **** 0.1737
534 C 25.086 18.254 36.716 C.2 0.0 **** 0.2456
535 O 25.202 17.263 37.451 O.2 0.0 **** -0.2724
536 CB 22.957 19.424 37.512 C.3 0.0 **** 0.0147
537 CG1 23.799 20.48 38.195 C.3 0.0 **** 0.0099
538 CG2 21.682 20.032 37.008 C.3 0.0 **** 0.0099
539 N 26.167 18.878 36.231 N.am 0.0 **** -0.3289
540 CA 26.162 20.097 35.437 C.3 0.0 **** 0.1741
541 C 25.673 19.905 33.998 C.2 0.0 **** 0.243
542 O 25.839 18.833 33.396 O.2 0.0 **** -0.2727
543 CB 27.621 20.528 35.455 C.3 0.0 **** 0.037
544 CG 28.384 19.282 35.629 C.3 0.0 **** 0.0242
545 CD 27.528 18.4 36.495 C.3 0.0 **** 0.1203
546 N 25.078 20.974 33.465 N.am 0.0 **** -0.1765
547 CA 24.57 20.993 32.103 C.3 0.0 **** 0.1967
548 C 24.468 22.421 31.605 C.2 0.0 **** 0.2452
549 O 24.302 23.364 32.39 O.2 0.0 **** -0.2726
550 CB 23.202 20.342 32.014 C.3 0.0 **** 0.1907
551 OG 22.271 20.977 32.886 O.3 0.0 **** -0.1835
552 N 24.474 22.538 30.282 N.am 0.0 **** -0.1765
553 CA 24.067 23.735 29.507 C.3 0.0 **** 0.1967
554 C 22.683 23.291 29.058 C.2 0.0 **** 0.2452
555 O 22.629 22.455 28.206 O.2 0.0 **** -0.2726
556 CB 24.97 24.055 28.359 C.3 0.0 **** 0.1907
557 OG 26.235 24.46 28.813 O.3 0.0 **** -0.1835
558 N 21.605 23.848 29.574 N.am 0.0 **** -0.1782
559 CA 20.351 23.118 29.399 C.3 0.0 **** 0.1756
560 C 19.835 23.146 27.956 C.2 0.0 **** 0.2457
561 O 19.107 22.225 27.571 O.2 0.0 **** -0.2724
562 CB 19.283 23.593 30.409 C.3 0.0 **** 0.0725
563 CG 18.582 24.939 30.19 C.2 0.0 **** -0.0201
564 CD1 17.847 25.334 29.101 C.2 0.0 **** 0.0869
565 CD2 18.505 26.023 31.135 C.2 0.0 **** 0.0027
566 NE1 17.351 26.615 29.3 N.pl3 0.0 **** -0.195
567 CE2 17.738 27.046 30.543 C.2 0.0 **** 0.0456
568 CE3 19.022 26.224 32.428 C.2 0.0 **** 0.0104
569 CZ2 17.466 28.246 31.2 C.2 0.0 **** 0.0265
570 CZ3 18.767 27.418 33.067 C.2 0.0 **** 0.0008
571 CH2 17.992 28.418 32.454 C.2 0.0 **** 0.0022
572 N 20.175 24.124 27.109 N.am 0.0 **** -0.3289
573 CA 19.734 24.024 25.706 C.3 0.0 **** 0.1741
574 C 20.4 22.89 24.927 C.2 0.0 **** 0.243
575 O 19.935 22.581 23.819 O.2 0.0 **** -0.2727
576 CB 20.084 25.404 25.108 C.3 0.0 **** 0.037
577 CG 20.159 26.327 26.273 C.3 0.0 **** 0.0242
578 CD 20.737 25.45 27.39 C.3 0.0 **** 0.1203
579 N 21.454 22.265 25.455 N.am 0.0 **** -0.1786
580 CA 22.036 21.082 24.832 C.3 0.0 **** 0.1718
581 C 21.218 19.824 25.083 C.2 0.0 **** 0.2428
582 O 21.583 18.753 24.587 O.2 0.0 **** -0.2727
583 CB 23.462 20.879 25.34 C.3 0.0 **** 0.0457
584 CG 24.339 22.138 25.153 C.3 0.0 **** 0.0716
585 SD 24.482 22.704 23.444 S.3 0.0 **** -0.1653
586 CE 25.396 21.316 22.776 C.3 0.0 **** 0.0847
587 N 20.124 19.921 25.825 N.am 0.0 **** -0.1783
588 CA 19.351 18.749 26.214 C.3 0.0 **** 0.1768
589 C 17.882 18.929 25.862 C.2 0.0 **** 0.2429
590 O 17.009 18.392 26.552 O.2 0.0 **** -0.2727
591 CB 19.502 18.46 27.704 C.3 0.0 **** 0.0902
592 CG 20.92 18.271 28.135 C.2 0.0 **** 0.037
593 ND1 21.472 17.031 28.356 N.pl3 0.0 **** -0.1813
594 CD2 21.912 19.169 28.349 C.2 0.0 **** 0.1339
595 CE1 22.735 17.173 28.712 C.2 0.0 **** 0.1962
596 NE2 23.028 18.46 28.711 N.2 0.0 **** -0.2451
597 N 17.598 19.712 24.82 N.am 0.0 **** -0.1817
598 CA 16.257 19.861 24.3 C.3 0.0 **** 0.2156
599 C 15.437 20.979 24.91 C.2 0.0 **** 0.2396
600 O 14.256 21.123 24.56 O.2 0.0 **** -0.273
601 N 16.009 21.774 25.81 N.am 0.0 **** -0.1785
602 CA 15.27 22.818 26.51 C.3 0.0 **** 0.1768
603 C 15.642 24.156 25.891 C.2 0.0 **** 0.2429
604 O 16.711 24.715 26.164 O.2 0.0 **** -0.2727
605 CB 15.564 22.75 28.002 C.3 0.0 **** 0.0902
606 CG 15.23 21.425 28.603 C.2 0.0 **** 0.037
607 ND1 16.187 20.473 28.894 N.pl3 0.0 **** -0.1813
608 CD2 14.037 20.878 28.931 C.2 0.0 **** 0.1339
609 CE1 15.596 19.404 29.39 C.2 0.0 **** 0.1962
610 NE2 14.293 19.623 29.424 N.2 0.0 **** -0.2451
611 N 14.76 24.664 25.041 N.am 0.0 **** -0.1817
612 CA 15.124 25.824 24.247 C.3 0.0 **** 0.2156
613 C 16.176 25.433 23.222 C.2 0.0 **** 0.2396
614 O 16.288 24.275 22.811 O.2 0.0 **** -0.273
615 N 17.0 26.402 22.845 N.am 0.0 **** -0.1792
616 CA 17.968 26.159 21.791 C.3 0.0 **** 0.1681
617 C 19.221 26.979 22.037 C.2 0.0 **** 0.2451
618 O 19.139 28.082 22.587 O.2 0.0 **** -0.2725
619 CB 17.389 26.517 20.417 C.3 0.0 **** 0.0414
620 N 20.384 26.482 21.626 N.am 0.0 **** -0.3289
621 CA 21.576 27.337 21.59 C.3 0.0 **** 0.1741
622 C 21.351 28.515 20.659 C.2 0.0 **** 0.243
623 O 20.586 28.436 19.698 O.2 0.0 **** -0.2727
624 CB 22.675 26.41 21.05 C.3 0.0 **** 0.037
625 CG 22.133 25.007 21.189 C.3 0.0 **** 0.0242
626 CD 20.643 25.139 21.093 C.3 0.0 **** 0.1203
627 N 22.03 29.615 20.952 N.am 0.0 **** -0.1789
628 CA 21.951 30.801 20.112 C.3 0.0 **** 0.1678
629 C 23.33 31.417 20.026 C.2 0.0 **** 0.2425
630 O 23.992 31.6 21.052 O.2 0.0 **** -0.2727
631 CB 20.95 31.806 20.677 C.3 0.0 **** 0.0414
632 N 23.781 31.726 18.815 N.am 0.0 **** -0.1783
633 CA 25.125 32.262 18.631 C.3 0.0 **** 0.1753
634 C 25.087 33.691 18.12 C.2 0.0 **** 0.2432
635 O 24.576 33.952 17.023 O.2 0.0 **** -0.2727
636 CB 25.949 31.429 17.66 C.3 0.0 **** 0.0702
637 CG 27.217 32.138 17.244 C.ar 0.0 **** -0.0452
638 CD1 28.149 32.531 18.191 C.ar 0.0 **** 0.0063
639 CD2 27.477 32.421 15.908 C.ar 0.0 **** 0.0063
640 CE1 29.315 33.183 17.827 C.ar 0.0 **** 0.0332
641 CE2 28.653 33.078 15.525 C.ar 0.0 **** 0.0332
642 CZ 29.56 33.454 16.498 C.ar 0.0 **** 0.0713
643 OH 30.718 34.103 16.121 O.3 0.0 **** -0.1427
644 N 25.679 34.604 18.886 N.am 0.0 **** -0.1763
645 CA 26.05 35.9 18.353 C.3 0.0 **** 0.1996
646 C 27.507 36.155 18.672 C.2 0.0 **** 0.2454
647 O 28.057 35.636 19.656 O.2 0.0 **** -0.2726
648 CB 25.225 37.081 18.915 C.3 0.0 **** 0.1429
649 OG1 25.601 37.325 20.277 O.3 0.0 **** -0.1801
650 CG2 23.746 36.804 18.83 C.3 0.0 **** 0.0409
651 N 28.122 36.962 17.821 N.am 0.0 **** -0.178
652 CA 29.514 37.353 17.991 C.3 0.0 **** 0.1802
653 C 29.602 38.615 18.86 C.2 0.0 **** 0.2433
654 O 29.899 38.533 20.059 O.2 0.0 **** -0.2727
655 CB 30.144 37.55 16.595 C.3 0.0 **** 0.1344
656 CG 31.587 38.072 16.66 C.2 0.0 **** 0.2196
657 OD1 32.158 38.211 17.737 O.2 0.0 **** -0.2752
658 ND2 32.16 38.402 15.493 N.am 0.0 **** -0.0514
659 N 29.372 39.782 18.259 N.am 0.0 **** -0.1784
660 CA 29.323 41.067 18.968 C.3 0.0 **** 0.1735
661 C 27.891 41.432 19.392 C.2 0.0 **** 0.243
662 O 27.654 41.883 20.525 O.2 0.0 **** -0.2727
663 CB 29.91 42.157 18.05 C.3 0.0 **** 0.0147
664 CG1 30.032 43.491 18.802 C.3 0.0 **** 0.0099
665 CG2 31.264 41.715 17.456 C.3 0.0 **** 0.0099
666 N 26.94 41.236 18.484 N.am 0.0 **** -0.1786
667 CA 25.555 41.656 18.685 C.3 0.0 **** 0.1714
668 C 25.016 41.129 20.002 C.2 0.0 **** 0.2428
669 O 25.087 39.939 20.269 O.2 0.0 **** -0.2727
670 CB 24.643 41.099 17.587 C.3 0.0 **** 0.0447
671 CG 25.058 41.199 16.215 C.3 0.0 **** 0.1022
672 CD 23.977 40.612 15.309 C.2 0.0 **** 0.217
673 OE1 22.911 41.207 15.139 O.2 0.0 **** -0.2753
674 NE2 24.229 39.419 14.775 N.am 0.0 **** -0.0515
675 N 24.399 41.988 20.78 N.am 0.0 **** -0.1783
676 CA 23.585 41.473 21.855 C.3 0.0 **** 0.1755
677 C 22.289 40.894 21.279 C.2 0.0 **** 0.2457
678 O 21.72 41.447 20.333 O.2 0.0 **** -0.2724
679 CB 23.236 42.563 22.868 C.3 0.0 **** 0.0702
680 CG 24.329 42.919 23.792 C.ar 0.0 **** -0.0454
681 CD1 24.7 42.049 24.826 C.ar 0.0 **** 0.0036
682 CD2 24.995 44.139 23.661 C.ar 0.0 **** 0.0036
683 CE1 25.683 42.383 25.69 C.ar 0.0 **** 0.0003
684 CE2 26.011 44.473 24.556 C.ar 0.0 **** 0.0003
685 CZ 26.348 43.602 25.567 C.ar 0.0 **** 0.0
686 N 21.772 39.806 21.847 N.am 0.0 **** -0.3289
687 CA 20.497 39.253 21.369 C.3 0.0 **** 0.1741
688 C 19.26 39.861 22.01 C.2 0.0 **** 0.243
689 O 18.159 39.339 21.803 O.2 0.0 **** -0.2727
690 CB 20.624 37.77 21.743 C.3 0.0 **** 0.037
691 CG 21.505 37.765 22.994 C.3 0.0 **** 0.0242
692 CD 22.478 38.902 22.775 C.3 0.0 **** 0.1203
693 N 19.42 40.971 22.725 N.am 0.0 **** -0.1783
694 CA 18.333 41.678 23.372 C.3 0.0 **** 0.1753
695 C 18.616 43.157 23.178 C.2 0.0 **** 0.2431
696 O 19.747 43.567 22.878 O.2 0.0 **** -0.2727
697 CB 18.202 41.285 24.877 C.3 0.0 **** 0.0702
698 CG 19.513 41.193 25.573 C.ar 0.0 **** -0.0454
699 CD1 20.205 42.344 25.894 C.ar 0.0 **** 0.0036
700 CD2 20.098 39.955 25.835 C.ar 0.0 **** 0.0036
701 CE1 21.477 42.277 26.482 C.ar 0.0 **** 0.0003
702 CE2 21.368 39.873 26.447 C.ar 0.0 **** 0.0003
703 CZ 22.051 41.022 26.758 C.ar 0.0 **** 0.0
704 N 17.562 43.949 23.301 N.am 0.0 **** -0.1789
705 CA 17.693 45.389 23.226 C.3 0.0 **** 0.1678
706 C 18.718 45.872 24.243 C.2 0.0 **** 0.2425
707 O 18.817 45.338 25.361 O.2 0.0 **** -0.2727
708 CB 16.333 46.025 23.497 C.3 0.0 **** 0.0414
709 N 19.511 46.859 23.811 N.am 0.0 **** -0.1784
710 CA 20.625 47.433 24.621 C.3 0.0 **** 0.1735
711 C 20.072 48.499 25.569 C.2 0.0 **** 0.243
712 O 20.31 49.698 25.321 O.2 0.0 **** -0.2727
713 CB 21.725 48.015 23.712 C.3 0.0 **** 0.0147
714 CG1 22.802 48.728 24.515 C.3 0.0 **** 0.0099
715 CG2 22.339 46.95 22.817 C.3 0.0 **** 0.0099
716 N 19.393 48.061 26.632 N.am 0.0 **** -0.1786
717 CA 18.844 48.989 27.654 C.3 0.0 **** 0.1716
718 C 19.274 48.47 29.028 C.2 0.0 **** 0.2454
719 O 18.396 48.044 29.805 O.2 0.0 **** -0.2724
720 CB 17.32 49.058 27.544 C.3 0.0 **** 0.0434
721 CG 16.639 47.716 27.744 C.3 0.0 **** 0.0873
722 CD 15.123 47.757 27.655 C.2 0.0 **** 0.1859
723 OE1 14.572 48.864 27.488 O.co2 0.0 **** -0.6397
724 OE2 14.497 46.683 27.751 O.co2 0.0 **** -0.6397
725 N 20.583 48.508 29.364 N.am 0.0 **** -0.3289
726 CA 21.067 48.029 30.659 C.3 0.0 **** 0.1743
727 C 20.566 48.964 31.767 C.2 0.0 **** 0.2456
728 O 20.507 50.158 31.535 O.2 0.0 **** -0.2724
729 CB 22.595 48.117 30.535 C.3 0.0 **** 0.037
730 CG 22.817 49.191 29.493 C.3 0.0 **** 0.0242
731 CD 21.664 49.03 28.525 C.3 0.0 **** 0.1203
732 N 20.204 48.451 32.962 N.am 0.0 **** -0.3289
733 CA 20.343 47.03 33.336 C.3 0.0 **** 0.1741
734 C 19.163 46.132 32.965 C.2 0.0 **** 0.243
735 O 19.112 45.083 33.461 O.2 0.0 **** -0.2727
736 CB 20.405 47.069 34.854 C.3 0.0 **** 0.037
737 CG 19.479 48.173 35.2 C.3 0.0 **** 0.0242
738 CD 19.649 49.18 34.088 C.3 0.0 **** 0.1203
739 N 18.228 46.608 32.147 N.am 0.0 **** -0.1783
740 CA 16.961 45.927 31.813 C.3 0.0 **** 0.1769
741 C 17.146 44.66 31.006 C.2 0.0 **** 0.2432
742 O 17.981 44.612 30.147 O.2 0.0 **** -0.2727
743 CB 16.023 46.915 31.132 C.3 0.0 **** 0.0902
744 CG 15.844 48.146 31.937 C.2 0.0 **** 0.037
745 ND1 15.24 48.128 33.148 N.pl3 0.0 **** -0.1813
746 CD2 16.232 49.408 31.736 C.2 0.0 **** 0.1339
747 CE1 15.242 49.326 33.651 C.2 0.0 **** 0.1962
748 NE2 15.842 50.122 32.815 N.2 0.0 **** -0.2451
749 N 16.288 43.707 31.277 N.am 0.0 **** -0.1784
750 CA 16.282 42.405 30.621 C.3 0.0 **** 0.1737
751 C 15.029 42.254 29.76 C.2 0.0 **** 0.2456
752 O 13.98 42.85 30.057 O.2 0.0 **** -0.2724
753 CB 16.385 41.255 31.645 C.3 0.0 **** 0.0147
754 CG1 17.626 41.43 32.535 C.3 0.0 **** 0.0099
755 CG2 15.121 41.161 32.514 C.3 0.0 **** 0.0099
756 N 15.097 41.473 28.691 N.am 0.0 **** -0.3289
757 CA 13.926 41.263 27.83 C.3 0.0 **** 0.1741
758 C 12.881 40.409 28.515 C.2 0.0 **** 0.243
759 O 13.146 39.725 29.502 O.2 0.0 **** -0.2727
760 CB 14.504 40.537 26.629 C.3 0.0 **** 0.037
761 CG 15.682 39.775 27.214 C.3 0.0 **** 0.0242
762 CD 16.25 40.657 28.283 C.3 0.0 **** 0.1203
763 N 11.673 40.444 27.949 N.am 0.0 **** -0.1786
764 CA 10.574 39.642 28.469 C.3 0.0 **** 0.1714
765 C 10.767 38.159 28.185 C.2 0.0 **** 0.2428
766 O 10.373 37.314 28.996 O.2 0.0 **** -0.2727
767 CB 9.256 40.108 27.86 C.3 0.0 **** 0.0434
768 CG 8.873 41.508 28.231 C.3 0.0 **** 0.0873
769 CD 8.59 41.682 29.721 C.2 0.0 **** 0.1859
770 OE1 8.0 40.763 30.36 O.co2 0.0 **** -0.6397
771 OE2 8.941 42.769 30.245 O.co2 0.0 **** -0.6397
772 N 11.285 37.829 27.008 N.am 0.0 **** -0.179
773 CA 11.63 36.457 26.654 C.3 0.0 **** 0.1678
774 C 12.947 36.13 27.332 C.2 0.0 **** 0.2425
775 O 14.02 36.471 26.834 O.2 0.0 **** -0.2727
776 CB 11.728 36.296 25.145 C.3 0.0 **** 0.0414
777 N 12.865 35.465 28.48 N.am 0.0 **** -0.1781
778 CA 14.04 35.221 29.318 C.3 0.0 **** 0.1804
779 C 13.893 33.861 29.982 C.2 0.0 **** 0.2459
780 O 13.256 33.741 31.026 O.2 0.0 **** -0.2724
781 CB 14.216 36.309 30.376 C.3 0.0 **** 0.1344
782 CG 15.512 36.177 31.13 C.2 0.0 **** 0.2196
783 OD1 16.408 35.392 30.751 O.2 0.0 **** -0.2752
784 ND2 15.632 36.941 32.195 N.am 0.0 **** -0.0514
785 N 14.466 32.82 29.393 N.am 0.0 **** -0.3289
786 CA 14.277 31.467 29.91 C.3 0.0 **** 0.1741
787 C 14.649 31.34 31.385 C.2 0.0 **** 0.243
788 O 15.748 31.707 31.801 O.2 0.0 **** -0.2727
789 CB 15.198 30.639 29.016 C.3 0.0 **** 0.037
790 CG 15.155 31.38 27.681 C.3 0.0 **** 0.0242
791 CD 15.103 32.832 28.054 C.3 0.0 **** 0.1203
792 N 13.714 30.818 32.178 N.am 0.0 **** -0.1784
793 CA 13.876 30.67 33.621 C.3 0.0 **** 0.1738
794 C 13.89 29.173 33.915 C.2 0.0 **** 0.2428
795 O 12.871 28.489 33.734 O.2 0.0 **** -0.2727
796 CB 12.76 31.366 34.415 C.3 0.0 **** 0.0176
797 CG1 12.625 32.849 34.03 C.3 0.0 **** 0.0024
798 CG2 13.013 31.226 35.908 C.3 0.0 **** 0.0102
799 CD1 13.857 33.7 34.28 C.3 0.0 **** 0.0041
800 N 15.042 28.67 34.388 N.am 0.0 **** -0.1817
801 CA 15.193 27.254 34.678 C.3 0.0 **** 0.2156
802 C 15.206 26.933 36.163 C.2 0.0 **** 0.2396
803 O 16.141 27.313 36.87 O.2 0.0 **** -0.273
804 N 14.179 26.236 36.648 N.am 0.0 **** -0.1784
805 CA 14.099 25.848 38.051 C.3 0.0 **** 0.1789
806 C 14.727 24.47 38.231 C.2 0.0 **** 0.2432
807 O 14.347 23.517 37.541 O.2 0.0 **** -0.2727
808 CB 12.647 25.843 38.525 C.3 0.0 **** 0.1195
809 CG 11.998 27.218 38.438 C.2 0.0 **** 0.1884
810 OD1 12.707 28.232 38.558 O.co2 0.0 **** -0.6396
811 OD2 10.768 27.287 38.261 O.co2 0.0 **** -0.6396
812 N 15.695 24.376 39.147 N.am 0.0 **** -0.1782
813 CA 16.48 23.166 39.346 C.3 0.0 **** 0.1769
814 C 16.315 22.688 40.782 C.2 0.0 **** 0.2432
815 O 16.411 23.486 41.718 O.2 0.0 **** -0.2727
816 CB 17.971 23.414 39.095 C.3 0.0 **** 0.0902
817 CG 18.331 23.793 37.688 C.2 0.0 **** 0.037
818 ND1 18.009 25.014 37.138 N.pl3 0.0 **** -0.1813
819 CD2 19.059 23.138 36.747 C.2 0.0 **** 0.1339
820 CE1 18.483 25.078 35.908 C.2 0.0 **** 0.1962
821 NE2 19.135 23.957 35.651 N.2 0.0 **** -0.2451
822 N 16.116 21.382 40.96 N.am 0.0 **** -0.1786
823 CA 15.901 20.823 42.281 C.3 0.0 **** 0.1712
824 C 16.577 19.458 42.391 C.2 0.0 **** 0.2428
825 O 16.502 18.644 41.464 O.2 0.0 **** -0.2727
826 CB 14.389 20.731 42.555 C.3 0.0 **** 0.0378
827 CG 14.049 20.549 44.022 C.3 0.0 **** -0.0149
828 CD1 12.87 21.419 44.408 C.3 0.0 **** 0.0072
829 CD2 13.756 19.1 44.26 C.3 0.0 **** 0.0072
830 N 17.257 19.214 43.525 N.am 0.0 **** -0.1784
831 CA 17.806 17.897 43.833 C.3 0.0 **** 0.1735
832 C 17.652 17.616 45.323 C.2 0.0 **** 0.243
833 O 17.754 18.514 46.166 O.2 0.0 **** -0.2727
834 CB 19.276 17.749 43.414 C.3 0.0 **** 0.0147
835 CG1 20.171 18.785 44.125 C.3 0.0 **** 0.0099
836 CG2 19.758 16.311 43.643 C.3 0.0 **** 0.0099
837 N 17.397 16.346 45.636 N.am 0.0 **** -0.1784
838 CA 17.269 15.867 47.006 C.3 0.0 **** 0.1735
839 C 18.494 15.021 47.308 C.2 0.0 **** 0.243
840 O 18.868 14.162 46.503 O.2 0.0 **** -0.2727
841 CB 15.978 15.053 47.198 C.3 0.0 **** 0.0147
842 CG1 15.921 14.478 48.596 C.3 0.0 **** 0.0099
843 CG2 14.754 15.932 46.96 C.3 0.0 **** 0.0099
844 N 19.116 15.261 48.463 N.am 0.0 **** -0.1783
845 CA 20.35 14.587 48.82 C.3 0.0 **** 0.1753
846 C 20.391 14.355 50.321 C.2 0.0 **** 0.2431
847 O 19.634 14.956 51.092 O.2 0.0 **** -0.2727
848 CB 21.576 15.392 48.377 C.3 0.0 **** 0.0702
849 CG 21.758 16.688 49.11 C.ar 0.0 **** -0.0454
850 CD1 21.063 17.826 48.72 C.ar 0.0 **** 0.0036
851 CD2 22.649 16.779 50.165 C.ar 0.0 **** 0.0036
852 CE1 21.239 19.024 49.379 C.ar 0.0 **** 0.0003
853 CE2 22.84 17.977 50.824 C.ar 0.0 **** 0.0003
854 CZ 22.127 19.105 50.422 C.ar 0.0 **** 0.0
855 N 21.291 13.464 50.719 N.am 0.0 **** -0.1786
856 CA 21.478 13.076 52.11 C.3 0.0 **** 0.1714
857 C 22.788 13.643 52.634 C.2 0.0 **** 0.2428
858 O 23.818 13.566 51.961 O.2 0.0 **** -0.2727
859 CB 21.492 11.556 52.244 C.3 0.0 **** 0.0434
860 CG 20.151 10.907 51.998 C.3 0.0 **** 0.0873
861 CD 19.321 10.795 53.257 C.2 0.0 **** 0.1859
862 OE1 19.844 10.287 54.271 O.co2 0.0 **** -0.6397
863 OE2 18.15 11.228 53.235 O.co2 0.0 **** -0.6397
864 N 22.755 14.191 53.844 N.am 0.0 **** -0.179
865 CA 23.942 14.767 54.471 C.3 0.0 **** 0.1678
866 C 24.241 14.0 55.758 C.2 0.0 **** 0.2422
867 O 23.44 14.014 56.705 O.2 0.0 **** -0.2727
868 CB 23.753 16.262 54.748 C.3 0.0 **** 0.0414
869 N 25.395 13.326 55.786 N.am 0.0 **** -0.1817
870 CA 25.805 12.581 56.945 C.3 0.0 **** 0.2159
871 C 26.35 13.477 58.049 C.2 0.0 **** 0.2422
872 O 26.504 14.697 57.888 O.2 0.0 **** -0.2728
873 N 26.679 12.862 59.185 N.am 0.0 **** -0.3291
874 CA 27.085 13.652 60.359 C.3 0.0 **** 0.1741
875 C 28.391 14.398 60.165 C.2 0.0 **** 0.243
876 O 28.635 15.385 60.874 O.2 0.0 **** -0.2727
877 CB 27.2 12.593 61.469 C.3 0.0 **** 0.037
878 CG 27.467 11.318 60.741 C.3 0.0 **** 0.0242
879 CD 26.737 11.416 59.43 C.3 0.0 **** 0.1203
880 N 29.221 13.982 59.204 N.am 0.0 **** -0.1786
881 CA 30.485 14.651 58.962 C.3 0.0 **** 0.1714
882 C 30.306 16.056 58.382 C.2 0.0 **** 0.2428
883 O 31.295 16.796 58.293 O.2 0.0 **** -0.2727
884 CB 31.349 13.79 58.03 C.3 0.0 **** 0.0434
885 CG 30.797 13.617 56.623 C.3 0.0 **** 0.0873
886 CD 29.806 12.477 56.507 C.2 0.0 **** 0.1859
887 OE1 29.309 12.029 57.552 O.co2 0.0 **** -0.6397
888 OE2 29.514 12.048 55.365 O.co2 0.0 **** -0.6397
889 N 29.081 16.458 58.032 N.am 0.0 **** -0.1783
890 CA 28.824 17.8 57.515 C.3 0.0 **** 0.1753
891 C 28.249 18.73 58.574 C.2 0.0 **** 0.2431
892 O 27.715 19.8 58.235 O.2 0.0 **** -0.2727
893 CB 27.901 17.737 56.297 C.3 0.0 **** 0.0702
894 CG 28.522 17.044 55.137 C.ar 0.0 **** -0.0454
895 CD1 29.526 17.664 54.399 C.ar 0.0 **** 0.0036
896 CD2 28.134 15.763 54.79 C.ar 0.0 **** 0.0036
897 CE1 30.126 17.012 53.341 C.ar 0.0 **** 0.0003
898 CE2 28.728 15.119 53.718 C.ar 0.0 **** 0.0003
899 CZ 29.723 15.749 52.995 C.ar 0.0 **** 0.0
900 N 28.378 18.354 59.848 N.am 0.0 **** -0.1783
901 CA 27.856 19.135 60.953 C.3 0.0 **** 0.1755
902 C 28.926 19.305 62.018 C.2 0.0 **** 0.2457
903 O 29.762 18.422 62.206 O.2 0.0 **** -0.2724
904 CB 26.614 18.455 61.543 C.3 0.0 **** 0.0702
905 CG 25.547 18.253 60.526 C.ar 0.0 **** -0.0454
906 CD1 25.547 17.122 59.727 C.ar 0.0 **** 0.0036
907 CD2 24.597 19.238 60.298 C.ar 0.0 **** 0.0036
908 CE1 24.582 16.954 58.747 C.ar 0.0 **** 0.0003
909 CE2 23.633 19.08 59.314 C.ar 0.0 **** 0.0003
910 CZ 23.625 17.943 58.543 C.ar 0.0 **** 0.0
911 N 28.942 20.448 62.713 N.am 0.0 **** -0.3289
912 CA 27.985 21.566 62.616 C.3 0.0 **** 0.1741
913 C 28.069 22.444 61.354 C.2 0.0 **** 0.243
914 O 27.052 23.032 61.01 O.2 0.0 **** -0.2727
915 CB 28.323 22.418 63.841 C.3 0.0 **** 0.037
916 CG 29.78 22.081 64.155 C.3 0.0 **** 0.0242
917 CD 29.899 20.623 63.825 C.3 0.0 **** 0.1203
918 N 29.218 22.532 60.684 N.am 0.0 **** -0.1783
919 CA 29.439 23.55 59.657 C.3 0.0 **** 0.1769
920 C 29.7 22.913 58.309 C.2 0.0 **** 0.2431
921 O 30.515 21.989 58.202 O.2 0.0 **** -0.2727
922 CB 30.613 24.464 60.031 C.3 0.0 **** 0.0902
923 CG 30.381 25.231 61.29 C.2 0.0 **** 0.037
924 ND1 29.403 26.196 61.397 N.pl3 0.0 **** -0.1813
925 CD2 30.975 25.155 62.504 C.2 0.0 **** 0.1339
926 CE1 29.414 26.689 62.621 C.2 0.0 **** 0.1962
927 NE2 30.359 26.078 63.31 N.2 0.0 **** -0.2451
928 N 29.01 23.422 57.293 N.am 0.0 **** -0.1789
929 CA 29.254 23.047 55.905 C.3 0.0 **** 0.1678
930 C 28.916 24.228 55.015 C.2 0.0 **** 0.2425
931 O 28.288 25.2 55.447 O.2 0.0 **** -0.2727
932 CB 28.431 21.817 55.509 C.3 0.0 **** 0.0414
933 N 29.327 24.127 53.742 N.am 0.0 **** -0.1787
934 CA 28.939 25.102 52.736 C.3 0.0 **** 0.1712
935 C 28.518 24.365 51.475 C.2 0.0 **** 0.2428
936 O 28.792 23.168 51.304 O.2 0.0 **** -0.2727
937 CB 30.072 26.099 52.442 C.3 0.0 **** 0.0378
938 CG 31.395 25.569 51.849 C.3 0.0 **** -0.0149
939 CD1 31.263 25.235 50.369 C.3 0.0 **** 0.0072
940 CD2 32.536 26.616 52.05 C.3 0.0 **** 0.0072
941 N 27.831 25.094 50.597 N.am 0.0 **** -0.1786
942 CA 27.523 24.634 49.252 C.3 0.0 **** 0.1712
943 C 28.297 25.478 48.253 C.2 0.0 **** 0.2428
944 O 28.311 26.71 48.348 O.2 0.0 **** -0.2727
945 CB 26.021 24.71 48.972 C.3 0.0 **** 0.0378
946 CG 25.215 23.495 49.436 C.3 0.0 **** -0.0149
947 CD1 23.707 23.73 49.293 C.3 0.0 **** 0.0072
948 CD2 25.614 22.243 48.673 C.3 0.0 **** 0.0072
949 N 28.94 24.809 47.298 N.am 0.0 **** -0.1787
950 CA 29.805 25.441 46.312 C.3 0.0 **** 0.171
951 C 29.236 25.259 44.909 C.2 0.0 **** 0.2428
952 O 28.895 24.14 44.518 O.2 0.0 **** -0.2727
953 CB 31.205 24.842 46.356 C.3 0.0 **** 0.0367
954 CG 32.149 25.42 45.317 C.3 0.0 **** 0.0239
955 CD 33.505 24.769 45.381 C.3 0.0 **** 0.1157
956 NE 34.337 25.424 44.377 N.pl3 0.0 **** 0.138
957 CZ 35.154 26.453 44.61 C.cat 0.0 **** 0.1634
958 NH1 35.332 26.928 45.85 N.pl3 0.0 **** 0.2799
959 NH2 35.825 26.997 43.59 N.pl3 0.0 **** 0.2799
960 N 29.166 26.354 44.156 N.am 0.0 **** -0.1783
961 CA 28.723 26.355 42.766 C.3 0.0 **** 0.1753
962 C 29.854 26.905 41.915 C.2 0.0 **** 0.2431
963 O 30.22 28.08 42.052 O.2 0.0 **** -0.2727
964 CB 27.468 27.216 42.562 C.3 0.0 **** 0.0702
965 CG 26.281 26.732 43.346 C.ar 0.0 **** -0.0454
966 CD1 26.117 27.101 44.672 C.ar 0.0 **** 0.0036
967 CD2 25.343 25.893 42.766 C.ar 0.0 **** 0.0036
968 CE1 25.045 26.62 45.414 C.ar 0.0 **** 0.0003
969 CE2 24.252 25.437 43.496 C.ar 0.0 **** 0.0003
970 CZ 24.109 25.794 44.82 C.ar 0.0 **** 0.0
971 N 30.388 26.09 41.022 N.am 0.0 **** -0.1782
972 CA 31.519 26.568 40.229 C.3 0.0 **** 0.1789
973 C 31.121 27.243 38.935 C.2 0.0 **** 0.243
974 O 32.004 27.783 38.253 O.2 0.0 **** -0.2727
975 CB 32.488 25.426 39.973 C.3 0.0 **** 0.1195
976 CG 33.459 25.255 41.138 C.2 0.0 **** 0.1884
977 OD1 34.276 26.181 41.338 O.co2 0.0 **** -0.6396
978 OD2 33.358 24.246 41.871 O.co2 0.0 **** -0.6396
979 N 29.835 27.273 38.6 N.am 0.0 **** -0.1817
980 CA 29.387 28.102 37.493 C.3 0.0 **** 0.2156
981 C 27.898 28.03 37.232 C.2 0.0 **** 0.2396
982 O 27.343 26.928 37.123 O.2 0.0 **** -0.273
983 N 27.253 29.197 37.111 N.am 0.0 **** -0.1787
984 CA 25.84 29.319 36.752 C.3 0.0 **** 0.1737
985 C 25.685 30.477 35.785 C.2 0.0 **** 0.243
986 O 26.022 31.616 36.124 O.2 0.0 **** -0.2727
987 CB 24.943 29.559 37.987 C.3 0.0 **** 0.0176
988 CG1 25.156 28.453 39.027 C.3 0.0 **** 0.0024
989 CG2 23.478 29.63 37.558 C.3 0.0 **** 0.0102
990 CD1 24.362 28.694 40.36 C.3 0.0 **** 0.0041
991 N 25.136 30.206 34.598 N.am 0.0 **** -0.1786
992 CA 24.947 31.223 33.558 C.3 0.0 **** 0.1714
993 C 23.457 31.551 33.473 C.2 0.0 **** 0.2428
994 O 22.676 30.667 33.125 O.2 0.0 **** -0.2727
995 CB 25.434 30.714 32.202 C.3 0.0 **** 0.0434
996 CG 25.184 31.722 31.074 C.3 0.0 **** 0.0873
997 CD 25.914 31.417 29.786 C.2 0.0 **** 0.1859
998 OE1 27.037 30.891 29.845 O.co2 0.0 **** -0.6397
999 OE2 25.373 31.765 28.703 O.co2 0.0 **** -0.6397
1000 N 23.045 32.803 33.755 N.am 0.0 **** -0.1765
1001 CA 23.871 33.92 34.236 C.3 0.0 **** 0.1967
1002 C 23.504 34.374 35.653 C.2 0.0 **** 0.2451
1003 O 24.317 35.022 36.313 O.2 0.0 **** -0.2726
1004 CB 23.754 35.126 33.304 C.3 0.0 **** 0.1907
1005 OG 22.51 35.787 33.44 O.3 0.0 **** -0.1835
1006 N 22.297 34.059 36.115 N.am 0.0 **** -0.1789
1007 CA 21.839 34.529 37.427 C.3 0.0 **** 0.1678
1008 C 21.12 33.42 38.183 C.2 0.0 **** 0.2422
1009 O 20.075 32.945 37.742 O.2 0.0 **** -0.2727
1010 CB 20.914 35.739 37.248 C.3 0.0 **** 0.0414
1011 N 21.639 33.041 39.345 N.am 0.0 **** -0.1817
1012 CA 21.061 31.979 40.145 C.3 0.0 **** 0.2156
1013 C 20.548 32.552 41.453 C.2 0.0 **** 0.2396
1014 O 21.127 33.498 41.989 O.2 0.0 **** -0.273
1015 N 19.422 32.013 41.914 N.am 0.0 **** -0.1766
1016 CA 18.935 32.17 43.272 C.3 0.0 **** 0.1996
1017 C 18.882 30.783 43.892 C.2 0.0 **** 0.2454
1018 O 18.302 29.867 43.297 O.2 0.0 **** -0.2726
1019 CB 17.553 32.813 43.289 C.3 0.0 **** 0.1429
1020 OG1 17.584 33.999 42.492 O.3 0.0 **** -0.1801
1021 CG2 17.159 33.172 44.71 C.3 0.0 **** 0.0409
1022 N 19.462 30.635 45.09 N.am 0.0 **** -0.1783
1023 CA 19.651 29.335 45.729 C.3 0.0 **** 0.1735
1024 C 18.855 29.282 47.026 C.2 0.0 **** 0.243
1025 O 18.968 30.18 47.87 O.2 0.0 **** -0.2727
1026 CB 21.139 29.059 46.006 C.3 0.0 **** 0.0147
1027 CG1 21.355 27.655 46.558 C.3 0.0 **** 0.0099
1028 CG2 21.973 29.244 44.721 C.3 0.0 **** 0.0099
1029 N 18.063 28.221 47.178 N.am 0.0 **** -0.1783
1030 CA 17.379 27.892 48.417 C.3 0.0 **** 0.1754
1031 C 17.826 26.52 48.904 C.2 0.0 **** 0.2431
1032 O 18.004 25.593 48.111 O.2 0.0 **** -0.2727
1033 CB 15.87 27.846 48.249 C.3 0.0 **** 0.0724
1034 CG 15.237 29.12 47.818 C.2 0.0 **** -0.0201
1035 CD1 14.691 30.074 48.626 C.2 0.0 **** 0.0869
1036 CD2 15.055 29.582 46.468 C.2 0.0 **** 0.0027
1037 NE1 14.181 31.098 47.865 N.pl3 0.0 **** -0.195
1038 CE2 14.398 30.827 46.541 C.2 0.0 **** 0.0456
1039 CE3 15.39 29.068 45.211 C.2 0.0 **** 0.0104
1040 CZ2 14.056 31.558 45.409 C.2 0.0 **** 0.0265
1041 CZ3 15.05 29.805 44.077 C.2 0.0 **** 0.0008
1042 CH2 14.393 31.034 44.188 C.2 0.0 **** 0.0022
1043 N 17.949 26.376 50.215 N.am 0.0 **** -0.1786
1044 CA 18.161 25.081 50.848 C.3 0.0 **** 0.1712
1045 C 17.043 24.856 51.851 C.2 0.0 **** 0.2428
1046 O 16.822 25.688 52.74 O.2 0.0 **** -0.2727
1047 CB 19.523 25.024 51.523 C.3 0.0 **** 0.0378
1048 CG 19.865 23.69 52.195 C.3 0.0 **** -0.0149
1049 CD1 19.917 22.553 51.173 C.3 0.0 **** 0.0072
1050 CD2 21.185 23.799 52.983 C.3 0.0 **** 0.0072
1051 N 16.336 23.739 51.702 N.am 0.0 **** -0.1781
1052 CA 15.165 23.434 52.523 C.3 0.0 **** 0.1802
1053 C 14.228 24.633 52.632 C.2 0.0 **** 0.2431
1054 O 13.674 24.92 53.703 O.2 0.0 **** -0.2727
1055 CB 15.584 22.945 53.911 C.3 0.0 **** 0.1344
1056 CG 16.517 21.746 53.838 C.2 0.0 **** 0.2196
1057 OD1 16.322 20.865 53.012 O.2 0.0 **** -0.2752
1058 ND2 17.546 21.72 54.683 N.am 0.0 **** -0.0514
1059 N 14.03 25.324 51.514 N.am 0.0 **** -0.1817
1060 CA 13.155 26.475 51.47 C.3 0.0 **** 0.2156
1061 C 13.765 27.76 51.971 C.2 0.0 **** 0.2396
1062 O 13.136 28.815 51.852 O.2 0.0 **** -0.273
1063 N 14.97 27.715 52.501 N.am 0.0 **** -0.1787
1064 CA 15.629 28.899 53.025 C.3 0.0 **** 0.1735
1065 C 16.507 29.476 51.927 C.2 0.0 **** 0.243
1066 O 17.301 28.755 51.324 O.2 0.0 **** -0.2727
1067 CB 16.459 28.549 54.269 C.3 0.0 **** 0.0147
1068 CG1 17.171 29.787 54.799 C.3 0.0 **** 0.0099
1069 CG2 15.557 27.936 55.326 C.3 0.0 **** 0.0099
1070 N 16.372 30.767 51.667 N.am 0.0 **** -0.1786
1071 CA 17.158 31.391 50.61 C.3 0.0 **** 0.1714
1072 C 18.581 31.595 51.119 C.2 0.0 **** 0.2428
1073 O 18.783 32.172 52.192 O.2 0.0 **** -0.2727
1074 CB 16.535 32.711 50.175 C.3 0.0 **** 0.0434
1075 CG 17.233 33.32 48.948 C.3 0.0 **** 0.0873
1076 CD 16.847 34.749 48.715 C.2 0.0 **** 0.1859
1077 OE1 15.733 35.009 48.201 O.co2 0.0 **** -0.6397
1078 OE2 17.674 35.609 49.077 O.co2 0.0 **** -0.6397
1079 N 19.558 31.073 50.38 N.am 0.0 **** -0.1786
1080 CA 20.961 31.299 50.696 C.3 0.0 **** 0.1712
1081 C 21.494 32.586 50.06 C.2 0.0 **** 0.2425
1082 O 22.219 33.345 50.709 O.2 0.0 **** -0.2727
1083 CB 21.789 30.092 50.249 C.3 0.0 **** 0.0378
1084 CG 21.311 28.723 50.779 C.3 0.0 **** -0.0149
1085 CD1 22.194 27.56 50.261 C.3 0.0 **** 0.0072
1086 CD2 21.266 28.708 52.287 C.3 0.0 **** 0.0072
1087 N 21.13 32.871 48.819 N.am 0.0 **** -0.1817
1088 CA 21.655 34.047 48.153 C.3 0.0 **** 0.2156
1089 C 21.559 33.88 46.652 C.2 0.0 **** 0.2396
1090 O 20.808 33.038 46.157 O.2 0.0 **** -0.273
1091 N 22.324 34.713 45.949 N.am 0.0 **** -0.1766
1092 CA 22.309 34.756 44.494 C.3 0.0 **** 0.1996
1093 C 23.732 34.757 43.967 C.2 0.0 **** 0.2455
1094 O 24.689 35.044 44.694 O.2 0.0 **** -0.2726
1095 CB 21.596 35.995 43.984 C.3 0.0 **** 0.1429
1096 OG1 22.283 37.154 44.465 O.3 0.0 **** -0.1801
1097 CG2 20.152 36.004 44.48 C.3 0.0 **** 0.0409
1098 N 23.865 34.428 42.686 N.am 0.0 **** -0.1762
1099 CA 25.157 34.363 42.029 C.3 0.0 **** 0.1996
1100 C 25.158 35.27 40.811 C.2 0.0 **** 0.2454
1101 O 24.175 35.32 40.073 O.2 0.0 **** -0.2726
1102 CB 25.491 32.925 41.601 C.3 0.0 **** 0.1429
1103 OG1 24.535 32.445 40.63 O.3 0.0 **** -0.1801
1104 CG2 25.475 32.038 42.801 C.3 0.0 **** 0.0409
1105 N 26.281 35.969 40.609 N.am 0.0 **** -0.1786
1106 CA 26.545 36.775 39.432 C.3 0.0 **** 0.171
1107 C 27.999 36.526 39.082 C.2 0.0 **** 0.2425
1108 O 28.843 36.394 39.984 O.2 0.0 **** -0.2727
1109 CB 26.316 38.295 39.643 C.3 0.0 **** 0.0367
1110 CG 24.895 38.69 39.979 C.3 0.0 **** 0.0239
1111 CD 23.955 38.442 38.798 C.3 0.0 **** 0.1157
1112 NE 22.598 38.925 39.074 N.pl3 0.0 **** 0.138
1113 CZ 21.648 38.246 39.711 C.cat 0.0 **** 0.1634
1114 NH1 21.861 37.023 40.191 N.pl3 0.0 **** 0.2799
1115 NH2 20.462 38.806 39.863 N.pl3 0.0 **** 0.2799
1116 N 28.288 36.49 37.772 N.am 0.0 **** -0.1817
1117 CA 29.587 36.084 37.271 C.3 0.0 **** 0.2156
1118 C 29.496 34.629 36.866 C.2 0.0 **** 0.2396
1119 O 29.749 33.723 37.681 O.2 0.0 **** -0.273
1120 N 29.158 34.396 35.588 N.am 0.0 **** -0.1768
1121 CA 28.679 33.077 35.2 C.3 0.0 **** 0.1967
1122 C 29.76 32.02 35.276 C.2 0.0 **** 0.2451
1123 O 29.46 30.858 35.561 O.2 0.0 **** -0.2726
1124 CB 28.087 33.145 33.801 C.3 0.0 **** 0.1907
1125 OG 26.944 33.983 33.808 O.3 0.0 **** -0.1835
1126 N 31.008 32.396 35.076 N.am 0.0 **** -0.1786
1127 CA 32.132 31.436 35.063 C.3 0.0 **** 0.171
1128 C 32.923 31.526 36.368 C.2 0.0 **** 0.2427
1129 O 34.021 31.053 36.382 O.2 0.0 **** -0.2727
1130 CB 32.977 31.669 33.813 C.3 0.0 **** 0.0367
1131 CG 32.43 30.993 32.568 C.3 0.0 **** 0.0239
1132 CD 31.064 31.449 32.084 C.3 0.0 **** 0.1157
1133 NE 31.062 32.839 31.694 N.pl3 0.0 **** 0.138
1134 CZ 30.306 33.368 30.757 C.cat 0.0 **** 0.1634
1135 NH1 30.41 34.649 30.485 N.pl3 0.0 **** 0.2799
1136 NH2 29.46 32.631 30.083 N.pl3 0.0 **** 0.2799
1137 N 32.343 32.095 37.417 N.am 0.0 **** -0.1786
1138 CA 32.994 32.308 38.701 C.3 0.0 **** 0.1712
1139 C 32.334 31.442 39.76 C.2 0.0 **** 0.2427
1140 O 31.161 31.072 39.648 O.2 0.0 **** -0.2727
1141 CB 32.933 33.781 39.107 C.3 0.0 **** 0.0378
1142 CG 33.355 34.78 37.996 C.3 0.0 **** -0.0149
1143 CD1 33.276 36.19 38.529 C.3 0.0 **** 0.0072
1144 CD2 34.783 34.504 37.449 C.3 0.0 **** 0.0072
1145 N 33.105 31.112 40.787 N.am 0.0 **** -0.179
1146 CA 32.614 30.272 41.874 C.3 0.0 **** 0.1678
1147 C 31.916 31.108 42.94 C.2 0.0 **** 0.2425
1148 O 32.303 32.253 43.217 O.2 0.0 **** -0.2727
1149 CB 33.758 29.475 42.499 C.3 0.0 **** 0.0414
1150 N 30.863 30.517 43.526 N.am 0.0 **** -0.1783
1151 CA 30.188 31.041 44.707 C.3 0.0 **** 0.1769
1152 C 30.031 29.941 45.743 C.2 0.0 **** 0.2432
1153 O 29.783 28.782 45.392 O.2 0.0 **** -0.2727
1154 CB 28.825 31.591 44.344 C.3 0.0 **** 0.0902
1155 CG 28.897 32.696 43.358 C.2 0.0 **** 0.037
1156 ND1 29.129 32.477 42.021 N.pl3 0.0 **** -0.1813
1157 CD2 28.802 34.035 43.518 C.2 0.0 **** 0.1339
1158 CE1 29.178 33.639 41.392 C.2 0.0 **** 0.1962
1159 NE2 28.979 34.6 42.277 N.2 0.0 **** -0.2451
1160 N 30.171 30.311 47.017 N.am 0.0 **** -0.1786
1161 CA 29.932 29.388 48.116 C.3 0.0 **** 0.1714
1162 C 28.988 30.024 49.124 C.2 0.0 **** 0.2428
1163 O 29.101 31.222 49.408 O.2 0.0 **** -0.2727
1164 CB 31.245 29.006 48.815 C.3 0.0 **** 0.0434
1165 CG 32.206 28.221 47.929 C.3 0.0 **** 0.0873
1166 CD 33.527 27.937 48.621 C.2 0.0 **** 0.1859
1167 OE1 34.033 28.823 49.339 O.co2 0.0 **** -0.6397
1168 OE2 34.053 26.82 48.449 O.co2 0.0 **** -0.6397
1169 N 28.092 29.203 49.696 N.am 0.0 **** -0.1783
1170 CA 27.099 29.648 50.669 C.3 0.0 **** 0.1753
1171 C 27.175 28.774 51.911 C.2 0.0 **** 0.2431
1172 O 27.139 27.542 51.814 O.2 0.0 **** -0.2727
1173 CB 25.681 29.601 50.098 C.3 0.0 **** 0.0702
1174 CG 25.512 30.435 48.864 C.ar 0.0 **** -0.0454
1175 CD1 25.17 31.767 48.968 C.ar 0.0 **** 0.0036
1176 CD2 25.751 29.899 47.606 C.ar 0.0 **** 0.0036
1177 CE1 25.044 32.56 47.848 C.ar 0.0 **** 0.0003
1178 CE2 25.618 30.688 46.448 C.ar 0.0 **** 0.0003
1179 CZ 25.257 32.022 46.577 C.ar 0.0 **** 0.0
1180 N 27.269 29.428 53.067 N.am 0.0 **** -0.1782
1181 CA 27.258 28.745 54.356 C.3 0.0 **** 0.1789
1182 C 25.879 28.144 54.586 C.2 0.0 **** 0.2432
1183 O 24.861 28.83 54.453 O.2 0.0 **** -0.2727
1184 CB 27.616 29.748 55.447 C.3 0.0 **** 0.1195
1185 CG 27.772 29.121 56.83 C.2 0.0 **** 0.1884
1186 OD1 27.781 27.878 56.983 O.co2 0.0 **** -0.6396
1187 OD2 27.881 29.927 57.774 O.co2 0.0 **** -0.6396
1188 N 25.837 26.851 54.885 N.am 0.0 **** -0.1784
1189 CA 24.571 26.173 55.144 C.3 0.0 **** 0.1735
1190 C 24.434 25.76 56.592 C.2 0.0 **** 0.2431
1191 O 23.448 25.103 56.951 O.2 0.0 **** -0.2727
1192 CB 24.386 24.957 54.214 C.3 0.0 **** 0.0147
1193 CG1 24.292 25.435 52.744 C.3 0.0 **** 0.0099
1194 CG2 25.521 23.971 54.376 C.3 0.0 **** 0.0099
1195 N 25.384 26.141 57.439 N.am 0.0 **** -0.1765
1196 CA 25.316 25.832 58.858 C.3 0.0 **** 0.1967
1197 C 23.976 26.262 59.419 C.2 0.0 **** 0.2449
1198 O 23.529 27.389 59.192 O.2 0.0 **** -0.2726
1199 CB 26.443 26.558 59.584 C.3 0.0 **** 0.1907
1200 OG 27.703 26.218 59.055 O.3 0.0 **** -0.1835
1201 N 23.332 25.36 60.149 N.am 0.0 **** -0.1816
1202 CA 22.04 25.659 60.723 C.3 0.0 **** 0.2156
1203 C 20.893 25.667 59.744 C.2 0.0 **** 0.2396
1204 O 19.763 25.943 60.152 O.2 0.0 **** -0.273
1205 N 21.142 25.387 58.467 N.am 0.0 **** -0.1787
1206 CA 20.089 25.222 57.47 C.3 0.0 **** 0.1737
1207 C 20.071 23.803 56.928 C.2 0.0 **** 0.243
1208 O 19.015 23.174 56.833 O.2 0.0 **** -0.2727
1209 CB 20.244 26.235 56.312 C.3 0.0 **** 0.0176
1210 CG1 20.201 27.662 56.85 C.3 0.0 **** 0.0024
1211 CG2 19.137 26.018 55.228 C.3 0.0 **** 0.0102
1212 CD1 20.611 28.696 55.796 C.3 0.0 **** 0.0041
1213 N 21.236 23.292 56.544 N.am 0.0 **** -0.1786
1214 CA 21.397 21.869 56.295 C.3 0.0 **** 0.1712
1215 C 20.92 21.064 57.496 C.2 0.0 **** 0.2428
1216 O 21.265 21.375 58.639 O.2 0.0 **** -0.2727
1217 CB 22.868 21.574 56.009 C.3 0.0 **** 0.0378
1218 CG 23.263 20.183 55.537 C.3 0.0 **** -0.0149
1219 CD1 22.816 19.943 54.091 C.3 0.0 **** 0.0072
1220 CD2 24.769 20.036 55.665 C.3 0.0 **** 0.0072
1221 N 20.126 20.03 57.228 N.am 0.0 **** -0.1786
1222 CA 19.643 19.104 58.248 C.3 0.0 **** 0.1714
1223 C 20.315 17.757 58.058 C.2 0.0 **** 0.2428
1224 O 20.572 17.33 56.925 O.2 0.0 **** -0.2727
1225 CB 18.13 18.92 58.171 C.3 0.0 **** 0.0434
1226 CG 17.322 20.16 58.484 C.3 0.0 **** 0.0873
1227 CD 15.842 19.977 58.136 C.2 0.0 **** 0.1859
1228 OE1 15.368 18.819 58.176 O.co2 0.0 **** -0.6397
1229 OE2 15.154 20.975 57.811 O.co2 0.0 **** -0.6397
1230 N 20.621 17.093 59.166 N.am 0.0 **** -0.1786
1231 CA 21.143 15.74 59.074 C.3 0.0 **** 0.1714
1232 C 20.116 14.864 58.37 C.2 0.0 **** 0.2425
1233 O 18.926 14.907 58.687 O.2 0.0 **** -0.2727
1234 CB 21.472 15.196 60.468 C.3 0.0 **** 0.0447
1235 CG 22.62 14.185 60.441 C.3 0.0 **** 0.1022
1236 CD 23.423 14.146 61.738 C.2 0.0 **** 0.217
1237 OE1 23.576 15.155 62.434 O.2 0.0 **** -0.2753
1238 NE2 23.928 12.973 62.07 N.am 0.0 **** -0.0515
1239 N 20.565 14.102 57.385 N.am 0.0 **** -0.1817
1240 CA 19.664 13.292 56.579 C.3 0.0 **** 0.2156
1241 C 19.272 14.012 55.289 C.2 0.0 **** 0.2396
1242 O 20.123 14.557 54.589 O.2 0.0 **** -0.273
1243 N 17.978 14.02 54.99 N.am 0.0 **** -0.1789
1244 CA 17.524 14.484 53.691 C.3 0.0 **** 0.1714
1245 C 17.471 16.007 53.639 C.2 0.0 **** 0.2428
1246 O 17.065 16.669 54.605 O.2 0.0 **** -0.2727
1247 CB 16.151 13.895 53.395 C.3 0.0 **** 0.0434
1248 CG 15.67 14.118 51.984 C.3 0.0 **** 0.0873
1249 CD 14.279 13.544 51.773 C.2 0.0 **** 0.1859
1250 OE1 14.174 12.318 51.542 O.co2 0.0 **** -0.6397
1251 OE2 13.295 14.314 51.873 O.co2 0.0 **** -0.6397
1252 N 17.903 16.558 52.498 N.am 0.0 **** -0.1781
1253 CA 17.858 17.983 52.229 C.3 0.0 **** 0.1802
1254 C 17.376 18.192 50.804 C.2 0.0 **** 0.2434
1255 O 17.556 17.33 49.94 O.2 0.0 **** -0.2727
1256 CB 19.236 18.643 52.403 C.3 0.0 **** 0.1344
1257 CG 19.697 18.64 53.849 C.2 0.0 **** 0.2196
1258 OD1 19.486 19.609 54.584 O.2 0.0 **** -0.2752
1259 ND2 20.323 17.543 54.268 N.am 0.0 **** -0.0514
1260 N 16.795 19.361 50.554 N.am 0.0 **** -0.1763
1261 CA 16.317 19.726 49.22 C.3 0.0 **** 0.1996
1262 C 16.984 21.007 48.754 C.2 0.0 **** 0.2454
1263 O 16.787 22.064 49.359 O.2 0.0 **** -0.2726
1264 CB 14.804 19.902 49.226 C.3 0.0 **** 0.1429
1265 OG1 14.223 18.673 49.622 O.3 0.0 **** -0.1801
1266 CG2 14.274 20.291 47.844 C.3 0.0 **** 0.0409
1267 N 17.735 20.921 47.656 N.am 0.0 **** -0.1786
1268 CA 18.404 22.071 47.076 C.3 0.0 **** 0.1712
1269 C 17.622 22.538 45.853 C.2 0.0 **** 0.2427
1270 O 17.291 21.73 44.98 O.2 0.0 **** -0.2727
1271 CB 19.847 21.722 46.693 C.3 0.0 **** 0.0378
1272 CG 20.638 22.792 45.948 C.3 0.0 **** -0.0149
1273 CD1 20.669 24.063 46.744 C.3 0.0 **** 0.0072
1274 CD2 22.068 22.301 45.642 C.3 0.0 **** 0.0072
1275 N 17.339 23.842 45.797 N.am 0.0 **** -0.179
1276 CA 16.562 24.464 44.734 C.3 0.0 **** 0.1678
1277 C 17.334 25.652 44.181 C.2 0.0 **** 0.2425
1278 O 17.815 26.488 44.951 O.2 0.0 **** -0.2727
1279 CB 15.2 24.933 45.256 C.3 0.0 **** 0.0414
1280 N 17.452 25.729 42.851 N.am 0.0 **** -0.1784
1281 CA 18.165 26.816 42.196 C.3 0.0 **** 0.1735
1282 C 17.318 27.304 41.03 C.2 0.0 **** 0.243
1283 O 17.022 26.537 40.104 O.2 0.0 **** -0.2727
1284 CB 19.558 26.392 41.7 C.3 0.0 **** 0.0147
1285 CG1 20.307 27.582 41.139 C.3 0.0 **** 0.0099
1286 CG2 20.403 25.774 42.822 C.3 0.0 **** 0.0099
1287 N 16.943 28.578 41.061 N.am 0.0 **** -0.1786
1288 CA 16.29 29.223 39.928 C.3 0.0 **** 0.171
1289 C 17.351 29.963 39.129 C.2 0.0 **** 0.2428
1290 O 18.094 30.786 39.685 O.2 0.0 **** -0.2727
1291 CB 15.202 30.197 40.369 C.3 0.0 **** 0.0367
1292 CG 14.641 31.06 39.233 C.3 0.0 **** 0.0239
1293 CD 13.249 31.651 39.554 C.3 0.0 **** 0.1157
1294 NE 12.184 30.658 39.425 N.pl3 0.0 **** 0.138
1295 CZ 10.898 30.871 39.714 C.cat 0.0 **** 0.1634
1296 NH1 10.496 32.057 40.151 N.pl3 0.0 **** 0.2799
1297 NH2 10.01 29.887 39.585 N.pl3 0.0 **** 0.2799
1298 N 17.425 29.67 37.836 N.am 0.0 **** -0.1784
1299 CA 18.465 30.214 36.98 C.3 0.0 **** 0.1735
1300 C 17.804 31.015 35.865 C.2 0.0 **** 0.243
1301 O 16.993 30.479 35.105 O.2 0.0 **** -0.2727
1302 CB 19.357 29.101 36.408 C.3 0.0 **** 0.0147
1303 CG1 20.424 29.684 35.507 C.3 0.0 **** 0.0099
1304 CG2 20.039 28.319 37.529 C.3 0.0 **** 0.0099
1305 N 18.161 32.291 35.751 N.am 0.0 **** -0.1789
1306 CA 17.71 33.114 34.637 C.3 0.0 **** 0.1678
1307 C 18.801 33.136 33.577 C.2 0.0 **** 0.2425
1308 O 19.969 33.388 33.892 O.2 0.0 **** -0.2727
1309 CB 17.388 34.54 35.097 C.3 0.0 **** 0.0414
1310 N 18.425 32.882 32.321 N.am 0.0 **** -0.1787
1311 CA 19.402 32.994 31.251 C.3 0.0 **** 0.1714
1312 C 19.997 34.397 31.216 C.2 0.0 **** 0.2428
1313 O 21.221 34.575 31.25 O.2 0.0 **** -0.2727
1314 CB 18.776 32.658 29.892 C.3 0.0 **** 0.0447
1315 CG 19.756 32.996 28.769 C.3 0.0 **** 0.1022
1316 CD 19.389 32.462 27.406 C.2 0.0 **** 0.217
1317 OE1 18.261 32.065 27.14 O.2 0.0 **** -0.2753
1318 NE2 20.377 32.437 26.531 N.am 0.0 **** -0.0515
1319 N 19.137 35.411 31.112 N.am 0.0 **** -0.1783
1320 CA 19.575 36.79 30.983 C.3 0.0 **** 0.1753
1321 C 19.361 37.543 32.289 C.2 0.0 **** 0.2432
1322 O 18.422 37.282 33.054 O.2 0.0 **** -0.2727
1323 CB 18.838 37.528 29.872 C.3 0.0 **** 0.0702
1324 CG 18.982 36.903 28.503 C.ar 0.0 **** -0.0454
1325 CD1 20.231 36.755 27.898 C.ar 0.0 **** 0.0036
1326 CD2 17.858 36.479 27.806 C.ar 0.0 **** 0.0036
1327 CE1 20.348 36.188 26.628 C.ar 0.0 **** 0.0003
1328 CE2 17.98 35.924 26.517 C.ar 0.0 **** 0.0003
1329 CZ 19.219 35.771 25.939 C.ar 0.0 **** 0.0
1330 N 20.26 38.488 32.524 N.am 0.0 **** -0.1765
1331 CA 20.226 39.351 33.692 C.3 0.0 **** 0.1967
1332 C 21.02 40.586 33.313 C.2 0.0 **** 0.2451
1333 O 21.522 40.689 32.197 O.2 0.0 **** -0.2726
1334 CB 20.805 38.652 34.915 C.3 0.0 **** 0.1907
1335 OG 22.168 38.346 34.707 O.3 0.0 **** -0.1835
1336 N 21.139 41.525 34.247 N.am 0.0 **** -0.1789
1337 CA 22.03 42.656 34.0 C.3 0.0 **** 0.1678
1338 C 23.441 42.185 33.678 C.2 0.0 **** 0.2425
1339 O 24.158 42.832 32.904 O.2 0.0 **** -0.2727
1340 CB 22.053 43.572 35.215 C.3 0.0 **** 0.0414
1341 N 23.861 41.068 34.268 N.am 0.0 **** -0.179
1342 CA 25.204 40.558 34.019 C.3 0.0 **** 0.1678
1343 C 25.438 40.186 32.552 C.2 0.0 **** 0.2425
1344 O 26.594 40.164 32.118 O.2 0.0 **** -0.2727
1345 CB 25.473 39.328 34.889 C.3 0.0 **** 0.0414
1346 N 24.384 39.851 31.806 N.am 0.0 **** -0.1765
1347 CA 24.542 39.572 30.371 C.3 0.0 **** 0.1967
1348 C 25.237 40.716 29.638 C.2 0.0 **** 0.2452
1349 O 25.969 40.485 28.665 O.2 0.0 **** -0.2726
1350 CB 23.168 39.309 29.752 C.3 0.0 **** 0.1907
1351 OG 22.526 38.212 30.371 O.3 0.0 **** -0.1835
1352 N 25.009 41.954 30.057 N.am 0.0 **** -0.1782
1353 CA 25.634 43.138 29.439 C.3 0.0 **** 0.1753
1354 C 27.152 43.089 29.582 C.2 0.0 **** 0.2431
1355 O 27.808 43.76 28.839 O.2 0.0 **** -0.2727
1356 CB 25.086 44.418 30.052 C.3 0.0 **** 0.0702
1357 CG 23.676 44.719 29.644 C.ar 0.0 **** -0.0452
1358 CD1 23.404 45.288 28.425 C.ar 0.0 **** 0.0063
1359 CD2 22.618 44.443 30.476 C.ar 0.0 **** 0.0063
1360 CE1 22.119 45.596 28.052 C.ar 0.0 **** 0.0332
1361 CE2 21.316 44.718 30.108 C.ar 0.0 **** 0.0332
1362 CZ 21.063 45.306 28.885 C.ar 0.0 **** 0.0713
1363 OH 19.801 45.609 28.502 O.3 0.0 **** -0.1427
1364 N 27.67 42.335 30.546 N.am 0.0 **** -0.1784
1365 CA 29.112 42.259 30.749 C.3 0.0 **** 0.1735
1366 C 29.635 40.872 30.444 C.2 0.0 **** 0.243
1367 O 30.779 40.566 30.775 O.2 0.0 **** -0.2727
1368 CB 29.511 42.722 32.167 C.3 0.0 **** 0.0147
1369 CG1 29.084 44.169 32.376 C.3 0.0 **** 0.0099
1370 CG2 28.916 41.822 33.265 C.3 0.0 **** 0.0099
1371 N 28.832 40.03 29.791 N.am 0.0 **** -0.1786
1372 CA 29.224 38.695 29.358 C.3 0.0 **** 0.1714
1373 C 28.895 38.509 27.866 C.2 0.0 **** 0.2428
1374 O 28.184 37.586 27.474 O.2 0.0 **** -0.2727
1375 CB 28.527 37.643 30.207 C.3 0.0 **** 0.0434
1376 CG 28.907 37.794 31.683 C.3 0.0 **** 0.0873
1377 CD 28.297 36.754 32.61 C.2 0.0 **** 0.1859
1378 OE1 27.473 35.933 32.141 O.co2 0.0 **** -0.6397
1379 OE2 28.688 36.752 33.817 O.co2 0.0 **** -0.6397
1380 N 29.36 39.433 27.035 N.am 0.0 **** -0.1782
1381 CA 29.067 39.442 25.591 C.3 0.0 **** 0.1789
1382 C 30.182 38.79 24.777 C.2 0.0 **** 0.2432
1383 O 30.524 39.261 23.67 O.2 0.0 **** -0.2727
1384 CB 28.828 40.866 25.09 C.3 0.0 **** 0.1195
1385 CG 28.248 40.908 23.644 C.2 0.0 **** 0.1884
1386 OD1 27.524 39.956 23.244 O.co2 0.0 **** -0.6396
1387 OD2 28.553 41.885 22.906 O.co2 0.0 **** -0.6396
1388 N 30.776 37.72 25.296 N.am 0.0 **** -0.1786
1389 CA 31.787 36.973 24.549 C.3 0.0 **** 0.1714
1390 C 31.219 36.434 23.232 C.2 0.0 **** 0.2428
1391 O 30.03 36.09 23.108 O.2 0.0 **** -0.2727
1392 CB 32.313 35.805 25.393 C.3 0.0 **** 0.0447
1393 CG 33.149 36.193 26.636 C.3 0.0 **** 0.1022
1394 CD 32.358 36.474 27.906 C.2 0.0 **** 0.217
1395 OE1 31.128 36.603 27.889 O.2 0.0 **** -0.2753
1396 NE2 33.098 36.668 29.016 N.am 0.0 **** -0.0515
1397 N 32.096 36.351 22.237 N.am 0.0 **** -0.1782
1398 CA 31.787 35.757 20.936 C.3 0.0 **** 0.1789
1399 C 31.763 34.228 21.092 C.2 0.0 **** 0.2432
1400 O 32.791 33.565 21.017 O.2 0.0 **** -0.2727
1401 CB 32.832 36.22 19.932 C.3 0.0 **** 0.1195
1402 CG 32.767 35.464 18.615 C.2 0.0 **** 0.1884
1403 OD1 31.702 34.878 18.339 O.co2 0.0 **** -0.6396
1404 OD2 33.778 35.472 17.872 O.co2 0.0 **** -0.6396
1405 N 30.57 33.657 21.307 N.am 0.0 **** -0.1786
1406 CA 30.38 32.244 21.668 C.3 0.0 **** 0.1718
1407 C 28.88 31.984 21.784 C.2 0.0 **** 0.2428
1408 O 28.093 32.917 21.618 O.2 0.0 **** -0.2727
1409 CB 31.091 31.891 22.982 C.3 0.0 **** 0.0457
1410 CG 30.517 32.556 24.22 C.3 0.0 **** 0.0716
1411 SD 31.54 32.162 25.677 S.3 0.0 **** -0.1653
1412 CE 30.537 32.858 26.989 C.3 0.0 **** 0.0847
1413 N 28.468 30.739 22.045 N.am 0.0 **** -0.1783
1414 CA 27.065 30.429 22.229 C.3 0.0 **** 0.1754
1415 C 26.555 30.995 23.548 C.2 0.0 **** 0.2431
1416 O 27.225 30.893 24.578 O.2 0.0 **** -0.2727
1417 CB 26.835 28.913 22.228 C.3 0.0 **** 0.0724
1418 CG 27.166 28.231 20.925 C.2 0.0 **** -0.0201
1419 CD1 28.338 27.578 20.602 C.2 0.0 **** 0.0869
1420 CD2 26.317 28.128 19.773 C.2 0.0 **** 0.0027
1421 NE1 28.257 27.086 19.329 N.pl3 0.0 **** -0.195
1422 CE2 27.033 27.414 18.796 C.2 0.0 **** 0.0456
1423 CE3 25.013 28.563 19.482 C.2 0.0 **** 0.0104
1424 CZ2 26.501 27.13 17.549 C.2 0.0 **** 0.0265
1425 CZ3 24.495 28.305 18.239 C.2 0.0 **** 0.0008
1426 CH2 25.232 27.583 17.283 C.2 0.0 **** 0.0022
1427 N 25.348 31.563 23.515 N.am 0.0 **** -0.1783
1428 CA 24.587 31.821 24.734 C.3 0.0 **** 0.1754
1429 C 23.997 30.5 25.24 C.2 0.0 **** 0.2431
1430 O 23.182 29.876 24.555 O.2 0.0 **** -0.2727
1431 CB 23.482 32.857 24.482 C.3 0.0 **** 0.0724
1432 CG 23.979 34.219 23.998 C.2 0.0 **** -0.0201
1433 CD1 24.122 34.618 22.696 C.2 0.0 **** 0.0869
1434 CD2 24.37 35.35 24.805 C.2 0.0 **** 0.0027
1435 NE1 24.601 35.904 22.644 N.pl3 0.0 **** -0.195
1436 CE2 24.758 36.377 23.925 C.2 0.0 **** 0.0456
1437 CE3 24.433 35.587 26.186 C.2 0.0 **** 0.0104
1438 CZ2 25.201 37.627 24.376 C.2 0.0 **** 0.0265
1439 CZ3 24.892 36.844 26.631 C.2 0.0 **** 0.0008
1440 CH2 25.265 37.83 25.729 C.2 0.0 **** 0.0022
1441 N 24.408 30.07 26.434 N.am 0.0 **** -0.1786
1442 CA 24.008 28.777 26.986 C.3 0.0 **** 0.1714
1443 C 23.75 28.903 28.48 C.2 0.0 **** 0.2454
1444 O 24.697 28.847 29.272 O.2 0.0 **** -0.2724
1445 CB 25.085 27.719 26.745 C.3 0.0 **** 0.0378
1446 CG 25.34 27.358 25.28 C.3 0.0 **** -0.0149
1447 CD1 26.613 26.522 25.201 C.3 0.0 **** 0.0072
1448 CD2 24.153 26.6 24.713 C.3 0.0 **** 0.0072
1449 N 22.501 29.084 28.902 N.am 0.0 **** -0.3289
1450 CA 22.203 29.103 30.334 C.3 0.0 **** 0.1741
1451 C 22.374 27.718 30.957 C.2 0.0 **** 0.2428
1452 O 22.304 26.68 30.284 O.2 0.0 **** -0.2727
1453 CB 20.735 29.545 30.383 C.3 0.0 **** 0.037
1454 CG 20.165 29.067 29.035 C.3 0.0 **** 0.0242
1455 CD 21.302 29.284 28.071 C.3 0.0 **** 0.1203
1456 N 22.622 27.71 32.255 N.am 0.0 **** -0.1817
1457 CA 22.612 26.453 32.984 C.3 0.0 **** 0.2156
1458 C 23.497 26.493 34.215 C.2 0.0 **** 0.2396
1459 O 24.3 27.415 34.426 O.2 0.0 **** -0.273
1460 N 23.307 25.47 35.051 N.am 0.0 **** -0.1787
1461 CA 24.248 25.122 36.122 C.3 0.0 **** 0.1737
1462 C 25.259 24.191 35.457 C.2 0.0 **** 0.243
1463 O 25.076 22.977 35.409 O.2 0.0 **** -0.2727
1464 CB 23.546 24.465 37.312 C.3 0.0 **** 0.0176
1465 CG1 22.343 25.308 37.774 C.3 0.0 **** 0.0024
1466 CG2 24.579 24.221 38.465 C.3 0.0 **** 0.0102
1467 CD1 21.62 24.765 39.071 C.3 0.0 **** 0.0041
1468 N 26.31 24.779 34.88 N.am 0.0 **** -0.1783
1469 CA 27.176 24.091 33.927 C.3 0.0 **** 0.1753
1470 C 28.507 23.656 34.527 C.2 0.0 **** 0.2431
1471 O 29.343 23.101 33.805 O.2 0.0 **** -0.2727
1472 CB 27.41 24.987 32.682 C.3 0.0 **** 0.0702
1473 CG 28.244 26.203 32.968 C.ar 0.0 **** -0.0454
1474 CD1 27.665 27.35 33.515 C.ar 0.0 **** 0.0036
1475 CD2 29.61 26.19 32.738 C.ar 0.0 **** 0.0036
1476 CE1 28.428 28.447 33.825 C.ar 0.0 **** 0.0003
1477 CE2 30.385 27.315 33.031 C.ar 0.0 **** 0.0003
1478 CZ 29.78 28.427 33.594 C.ar 0.0 **** 0.0
1479 N 28.723 23.866 35.833 N.am 0.0 **** -0.1786
1480 CA 29.866 23.303 36.542 C.3 0.0 **** 0.171
1481 C 29.403 22.758 37.889 C.2 0.0 **** 0.2428
1482 O 28.258 22.943 38.305 O.2 0.0 **** -0.2727
1483 CB 30.982 24.331 36.762 C.3 0.0 **** 0.0367
1484 CG 31.637 24.825 35.442 C.3 0.0 **** 0.0239
1485 CD 32.739 25.768 35.768 C.3 0.0 **** 0.1157
1486 NE 33.4 26.318 34.588 N.pl3 0.0 **** 0.138
1487 CZ 33.963 27.52 34.578 C.cat 0.0 **** 0.1634
1488 NH1 33.957 28.25 35.694 N.pl3 0.0 **** 0.2799
1489 NH2 34.545 27.981 33.476 N.pl3 0.0 **** 0.2799
1490 N 30.354 22.126 38.568 N.am 0.0 **** -0.1782
1491 CA 30.11 21.302 39.737 C.3 0.0 **** 0.1789
1492 C 29.272 22.002 40.798 C.2 0.0 **** 0.2432
1493 O 29.386 23.207 41.031 O.2 0.0 **** -0.2727
1494 CB 31.431 20.914 40.377 C.3 0.0 **** 0.1195
1495 CG 32.255 20.017 39.523 C.2 0.0 **** 0.1884
1496 OD1 31.759 18.988 39.055 O.co2 0.0 **** -0.6396
1497 OD2 33.439 20.341 39.352 O.co2 0.0 **** -0.6396
1498 N 28.485 21.191 41.497 N.am 0.0 **** -0.1784
1499 CA 27.815 21.574 42.73 C.3 0.0 **** 0.1735
1500 C 28.346 20.652 43.807 C.2 0.0 **** 0.2431
1501 O 28.277 19.422 43.665 O.2 0.0 **** -0.2727
1502 CB 26.278 21.466 42.611 C.3 0.0 **** 0.0147
1503 CG1 25.59 21.975 43.874 C.3 0.0 **** 0.0099
1504 CG2 25.761 22.269 41.406 C.3 0.0 **** 0.0099
1505 N 28.859 21.236 44.888 N.am 0.0 **** -0.1763
1506 CA 29.542 20.462 45.912 C.3 0.0 **** 0.1996
1507 C 29.126 20.896 47.309 C.2 0.0 **** 0.2454
1508 O 29.017 22.092 47.593 O.2 0.0 **** -0.2726
1509 CB 31.051 20.616 45.781 C.3 0.0 **** 0.1429
1510 OG1 31.418 20.354 44.437 O.3 0.0 **** -0.1801
1511 CG2 31.772 19.637 46.688 C.3 0.0 **** 0.0409
1512 N 28.908 19.904 48.174 N.am 0.0 **** -0.1786
1513 CA 28.754 20.101 49.613 C.3 0.0 **** 0.1712
1514 C 30.091 19.81 50.284 C.2 0.0 **** 0.2428
1515 O 30.672 18.733 50.08 O.2 0.0 **** -0.2727
1516 CB 27.681 19.177 50.18 C.3 0.0 **** 0.0378
1517 CG 27.41 19.264 51.693 C.3 0.0 **** -0.0149
1518 CD1 26.752 20.593 52.045 C.3 0.0 **** 0.0072
1519 CD2 26.551 18.087 52.183 C.3 0.0 **** 0.0072
1520 N 30.592 20.778 51.048 N.am 0.0 **** -0.1786
1521 CA 31.878 20.642 51.721 C.3 0.0 **** 0.1714
1522 C 31.707 20.91 53.205 C.2 0.0 **** 0.2428
1523 O 31.216 21.974 53.606 O.2 0.0 **** -0.2727
1524 CB 32.919 21.607 51.153 C.3 0.0 **** 0.0447
1525 CG 34.347 21.248 51.526 C.3 0.0 **** 0.1022
1526 CD 35.367 22.292 51.104 C.2 0.0 **** 0.217
1527 OE1 35.069 23.478 51.042 O.2 0.0 **** -0.2753
1528 NE2 36.578 21.851 50.823 N.am 0.0 **** -0.0515
1529 N 32.146 19.964 54.002 N.am 0.0 **** -0.179
1530 CA 32.236 20.176 55.43 C.3 0.0 **** 0.1678
1531 C 33.311 21.213 55.712 C.2 0.0 **** 0.2425
1532 O 34.331 21.273 55.018 O.2 0.0 **** -0.2727
1533 CB 32.577 18.865 56.124 C.3 0.0 **** 0.0414
1534 N 33.086 22.023 56.757 N.am 0.0 **** -0.1787
1535 CA 34.049 23.029 57.21 C.3 0.0 **** 0.1712
1536 C 34.41 22.722 58.66 C.2 0.0 **** 0.2453
1537 O 33.878 23.349 59.593 O.2 0.0 **** -0.2724
1538 CB 33.496 24.448 57.047 C.3 0.0 **** 0.0367
1539 CG 32.956 24.76 55.65 C.3 0.0 **** 0.0239
1540 CD 33.95 24.454 54.507 C.3 0.0 **** 0.1157
1541 NE 35.235 25.159 54.64 N.pl3 0.0 **** 0.138
1542 CZ 36.441 24.58 54.625 C.cat 0.0 **** 0.1634
1543 NH1 36.582 23.261 54.486 N.pl3 0.0 **** 0.2799
1544 NH2 37.524 25.33 54.752 N.pl3 0.0 **** 0.2799
1545 N 35.301 21.748 58.885 N.am 0.0 **** -0.3289
1546 CA 35.697 21.402 60.255 C.3 0.0 **** 0.1741
1547 C 36.294 22.577 61.01 C.2 0.0 **** 0.243
1548 O 36.956 23.44 60.439 O.2 0.0 **** -0.2727
1549 CB 36.747 20.293 60.06 C.3 0.0 **** 0.037
1550 CG 36.562 19.806 58.63 C.3 0.0 **** 0.0242
1551 CD 35.999 20.934 57.865 C.3 0.0 **** 0.1203
1552 N 36.123 22.538 62.339 N.am 0.0 **** -0.1789
1553 CA 36.727 23.533 63.211 C.3 0.0 **** 0.1678
1554 C 38.242 23.472 63.087 C.2 0.0 **** 0.2425
1555 O 38.82 22.423 62.817 O.2 0.0 **** -0.2727
1556 CB 36.294 23.289 64.677 C.3 0.0 **** 0.0414
1557 N 38.891 24.615 63.259 N.am 0.0 **** -0.179
1558 CA 40.351 24.67 63.218 C.3 0.0 **** 0.1678
1559 C 40.863 24.269 61.846 C.2 0.0 **** 0.2422
1560 O 41.89 23.599 61.715 O.2 0.0 **** -0.2727
1561 CB 40.974 23.781 64.292 C.3 0.0 **** 0.0414
1562 N 40.111 24.653 60.826 N.am 0.0 **** -0.1817
1563 CA 40.426 24.346 59.453 C.3 0.0 **** 0.2156
1564 C 41.154 25.478 58.775 C.2 0.0 **** 0.2396
1565 O 41.702 26.381 59.418 O.2 0.0 **** -0.273
1566 N 41.152 25.426 57.445 N.am 0.0 **** -0.1787
1567 CA 41.834 26.385 56.596 C.3 0.0 **** 0.1737
1568 C 40.852 26.806 55.522 C.2 0.0 **** 0.243
1569 O 40.421 25.969 54.724 O.2 0.0 **** -0.2727
1570 CB 43.088 25.78 55.94 C.3 0.0 **** 0.0176
1571 CG1 44.067 25.274 56.998 C.3 0.0 **** 0.0024
1572 CG2 43.75 26.792 55.03 C.3 0.0 **** 0.0102
1573 CD1 45.175 24.401 56.424 C.3 0.0 **** 0.0041
1574 N 40.513 28.091 55.475 N.am 0.0 **** -0.1782
1575 CA 39.655 28.559 54.383 C.3 0.0 **** 0.1789
1576 C 40.438 28.955 53.142 C.2 0.0 **** 0.2432
1577 O 40.056 28.596 52.028 O.2 0.0 **** -0.2727
1578 CB 38.789 29.729 54.852 C.3 0.0 **** 0.1195
1579 CG 37.758 29.296 55.88 C.2 0.0 **** 0.1884
1580 OD1 37.337 28.116 55.864 O.co2 0.0 **** -0.6396
1581 OD2 37.405 30.117 56.74 O.co2 0.0 **** -0.6396
1582 N 41.542 29.667 53.287 N.am 0.0 **** -0.1782
1583 CA 42.243 30.128 52.103 C.3 0.0 **** 0.1789
1584 C 43.735 29.943 52.288 C.2 0.0 **** 0.2432
1585 O 44.246 29.905 53.42 O.2 0.0 **** -0.2727
1586 CB 41.921 31.579 51.8 C.3 0.0 **** 0.1195
1587 CG 42.129 31.927 50.33 C.2 0.0 **** 0.1884
1588 OD1 42.322 31.033 49.482 O.co2 0.0 **** -0.6396
1589 OD2 42.08 33.116 50.012 O.co2 0.0 **** -0.6396
1590 N 44.418 29.809 51.157 N.am 0.0 **** -0.1784
1591 CA 45.866 29.663 51.098 C.3 0.0 **** 0.1735
1592 C 46.358 30.516 49.949 C.2 0.0 **** 0.243
1593 O 45.729 30.568 48.88 O.2 0.0 **** -0.2727
1594 CB 46.291 28.198 50.885 C.3 0.0 **** 0.0147
1595 CG1 47.802 28.109 50.709 C.3 0.0 **** 0.0099
1596 CG2 45.865 27.337 52.087 C.3 0.0 **** 0.0099
1597 N 47.498 31.167 50.15 N.am 0.0 **** -0.1783
1598 CA 48.137 31.945 49.088 C.3 0.0 **** 0.1753
1599 C 49.604 31.546 49.028 C.2 0.0 **** 0.2431
1600 O 50.383 31.91 49.922 O.2 0.0 **** -0.2727
1601 CB 47.964 33.448 49.346 C.3 0.0 **** 0.0702
1602 CG 48.215 34.321 48.151 C.ar 0.0 **** -0.0454
1603 CD1 48.801 33.813 47.021 C.ar 0.0 **** 0.0036
1604 CD2 47.848 35.651 48.166 C.ar 0.0 **** 0.0036
1605 CE1 49.008 34.621 45.907 C.ar 0.0 **** 0.0003
1606 CE2 48.068 36.466 47.078 C.ar 0.0 **** 0.0003
1607 CZ 48.649 35.974 45.958 C.ar 0.0 **** 0.0
1608 N 49.96 30.774 47.993 N.am 0.0 **** -0.1784
1609 CA 51.325 30.328 47.747 C.3 0.0 **** 0.1735
1610 C 52.103 31.439 47.054 C.2 0.0 **** 0.243
1611 O 51.683 31.952 45.998 O.2 0.0 **** -0.2727
1612 CB 51.334 29.057 46.87 C.3 0.0 **** 0.0147
1613 CG1 52.758 28.652 46.533 C.3 0.0 **** 0.0099
1614 CG2 50.606 27.905 47.542 C.3 0.0 **** 0.0099
1615 N 53.261 31.776 47.614 N.am 0.0 **** -0.1782
1616 CA 54.26 32.616 46.962 C.3 0.0 **** 0.1769
1617 C 55.527 31.786 46.796 C.2 0.0 **** 0.2431
1618 O 56.14 31.37 47.779 O.2 0.0 **** -0.2727
1619 CB 54.544 33.867 47.777 C.3 0.0 **** 0.0902
1620 CG 53.299 34.562 48.234 C.2 0.0 **** 0.037
1621 ND1 52.634 35.475 47.454 N.pl3 0.0 **** -0.1813
1622 CD2 52.566 34.426 49.357 C.2 0.0 **** 0.1339
1623 CE1 51.561 35.908 48.093 C.2 0.0 **** 0.1962
1624 NE2 51.496 35.281 49.252 N.2 0.0 **** -0.2451
1625 N 55.914 31.527 45.553 N.am 0.0 **** -0.1789
1626 CA 57.049 30.644 45.286 C.3 0.0 **** 0.1678
1627 C 57.858 31.271 44.16 C.2 0.0 **** 0.2422
1628 O 57.578 31.045 42.983 O.2 0.0 **** -0.2727
1629 CB 56.577 29.252 44.944 C.3 0.0 **** 0.0414
1630 N 58.809 32.11 44.526 N.am 0.0 **** -0.1817
1631 CA 59.639 32.785 43.553 C.3 0.0 **** 0.2156
1632 C 60.933 32.002 43.282 C.2 0.0 **** 0.2396
1633 O 61.239 31.036 43.963 O.2 0.0 **** -0.273
1634 N 61.65 32.424 42.242 N.am 0.0 **** -0.1786
1635 CA 62.899 31.798 41.855 C.3 0.0 **** 0.1753
1636 C 63.944 32.883 41.662 C.2 0.0 **** 0.2431
1637 O 63.732 33.819 40.881 O.2 0.0 **** -0.2727
1638 CB 62.719 30.972 40.557 C.3 0.0 **** 0.0702
1639 CG 63.965 30.272 40.109 C.ar 0.0 **** -0.0452
1640 CD1 64.542 29.258 40.893 C.ar 0.0 **** 0.0063
1641 CD2 64.589 30.63 38.921 C.ar 0.0 **** 0.0063
1642 CE1 65.695 28.619 40.495 C.ar 0.0 **** 0.0332
1643 CE2 65.753 29.997 38.52 C.ar 0.0 **** 0.0332
1644 CZ 66.286 28.985 39.292 C.ar 0.0 **** 0.0713
1645 OH 67.436 28.362 38.89 O.3 0.0 **** -0.1427
1646 N 65.089 32.728 42.318 N.am 0.0 **** -0.1782
1647 CA 66.223 33.628 42.146 C.3 0.0 **** 0.1789
1648 C 67.138 32.97 41.128 C.2 0.0 **** 0.2432
1649 O 67.805 31.985 41.428 O.2 0.0 **** -0.2727
1650 CB 66.918 33.853 43.482 C.3 0.0 **** 0.1195
1651 CG 68.106 34.801 43.38 C.2 0.0 **** 0.1884
1652 OD1 68.806 34.788 42.33 O.co2 0.0 **** -0.6396
1653 OD2 68.342 35.537 44.364 O.co2 0.0 **** -0.6396
1654 N 67.126 33.458 39.888 N.am 0.0 **** -0.1782
1655 CA 67.863 32.743 38.858 C.3 0.0 **** 0.1769
1656 C 69.378 32.955 38.961 C.2 0.0 **** 0.2432
1657 O 70.128 32.242 38.287 O.2 0.0 **** -0.2727
1658 CB 67.355 33.16 37.465 C.3 0.0 **** 0.0902
1659 CG 67.49 34.622 37.216 C.2 0.0 **** 0.037
1660 ND1 66.609 35.544 37.733 N.pl3 0.0 **** -0.1813
1661 CD2 68.45 35.329 36.575 C.2 0.0 **** 0.1339
1662 CE1 67.007 36.76 37.404 C.2 0.0 **** 0.1962
1663 NE2 68.122 36.656 36.696 N.2 0.0 **** -0.2451
1664 N 69.841 33.912 39.763 N.am 0.0 **** -0.1784
1665 CA 71.277 34.069 39.986 C.3 0.0 **** 0.1738
1666 C 71.79 32.975 40.918 C.2 0.0 **** 0.2431
1667 O 72.771 32.287 40.624 O.2 0.0 **** -0.2727
1668 CB 71.575 35.464 40.574 C.3 0.0 **** 0.0176
1669 CG1 71.002 36.563 39.68 C.3 0.0 **** 0.0024
1670 CG2 73.08 35.647 40.805 C.3 0.0 **** 0.0102
1671 CD1 71.491 36.525 38.279 C.3 0.0 **** 0.0041
1672 N 71.124 32.794 42.047 N.am 0.0 **** -0.1763
1673 CA 71.585 31.862 43.066 C.3 0.0 **** 0.1996
1674 C 70.99 30.479 42.932 C.2 0.0 **** 0.2452
1675 O 71.53 29.527 43.517 O.2 0.0 **** -0.2726
1676 CB 71.237 32.39 44.458 C.3 0.0 **** 0.1429
1677 OG1 69.812 32.511 44.607 O.3 0.0 **** -0.1801
1678 CG2 71.876 33.75 44.652 C.3 0.0 **** 0.0409
1679 N 69.873 30.35 42.218 N.am 0.0 **** -0.1816
1680 CA 69.173 29.076 42.176 C.3 0.0 **** 0.2156
1681 C 68.272 28.803 43.36 C.2 0.0 **** 0.2396
1682 O 67.73 27.699 43.459 O.2 0.0 **** -0.273
1683 N 68.073 29.773 44.24 N.am 0.0 **** -0.1789
1684 CA 67.225 29.585 45.413 C.3 0.0 **** 0.1714
1685 C 65.751 29.724 45.063 C.2 0.0 **** 0.2425
1686 O 65.372 30.443 44.129 O.2 0.0 **** -0.2727
1687 CB 67.55 30.614 46.479 C.3 0.0 **** 0.0434
1688 CG 68.921 30.517 47.116 C.3 0.0 **** 0.0873
1689 CD 69.215 31.766 47.925 C.2 0.0 **** 0.1859
1690 OE1 69.452 32.821 47.315 O.co2 0.0 **** -0.6397
1691 OE2 69.156 31.715 49.168 O.co2 0.0 **** -0.6397
1692 N 64.915 29.06 45.854 N.am 0.0 **** -0.1817
1693 CA 63.489 29.32 45.865 C.3 0.0 **** 0.2156
1694 C 63.187 30.297 46.986 C.2 0.0 **** 0.2396
1695 O 63.858 30.295 48.021 O.2 0.0 **** -0.273
1696 N 62.191 31.153 46.765 N.am 0.0 **** -0.1787
1697 CA 61.691 32.061 47.788 C.3 0.0 **** 0.1737
1698 C 60.253 31.665 48.057 C.2 0.0 **** 0.243
1699 O 59.377 31.865 47.196 O.2 0.0 **** -0.2727
1700 CB 61.792 33.526 47.357 C.3 0.0 **** 0.0176
1701 CG1 63.243 33.85 46.98 C.3 0.0 **** 0.0024
1702 CG2 61.331 34.432 48.507 C.3 0.0 **** 0.0102
1703 CD1 63.379 34.694 45.776 C.3 0.0 **** 0.0041
1704 N 60.008 31.108 49.241 N.am 0.0 **** -0.1786
1705 CA 58.742 30.471 49.56 C.3 0.0 **** 0.1712
1706 C 58.067 31.129 50.752 C.2 0.0 **** 0.2428
1707 O 58.684 31.32 51.816 O.2 0.0 **** -0.2727
1708 CB 58.931 28.998 49.859 C.3 0.0 **** 0.0378
1709 CG 57.655 28.222 50.176 C.3 0.0 **** -0.0149
1710 CD1 56.787 28.14 48.935 C.3 0.0 **** 0.0072
1711 CD2 58.037 26.845 50.723 C.3 0.0 **** 0.0072
1712 N 56.788 31.439 50.582 N.am 0.0 **** -0.1787
1713 CA 55.935 31.815 51.705 C.3 0.0 **** 0.1709
1714 C 54.54 31.309 51.412 C.2 0.0 **** 0.2428
1715 O 53.984 31.61 50.361 O.2 0.0 **** -0.2727
1716 CB 55.927 33.314 51.901 C.3 0.0 **** 0.035
1717 CG 54.838 33.776 52.842 C.3 0.0 **** 0.0062
1718 CD 55.123 35.156 53.379 C.3 0.0 **** 0.0387
1719 CE 54.642 36.223 52.503 C.3 0.0 **** 0.1659
1720 NZ 54.504 37.463 53.333 N.4 0.0 **** 0.7918
1721 N 53.968 30.538 52.309 N.am 0.0 **** -0.1784
1722 CA 52.619 30.031 52.102 C.3 0.0 **** 0.1735
1723 C 51.741 30.673 53.166 C.2 0.0 **** 0.243
1724 O 51.915 30.404 54.364 O.2 0.0 **** -0.2727
1725 CB 52.582 28.494 52.146 C.3 0.0 **** 0.0147
1726 CG1 51.131 27.996 52.029 C.3 0.0 **** 0.0099
1727 CG2 53.401 27.926 51.004 C.3 0.0 **** 0.0099
1728 N 50.83 31.561 52.745 N.am 0.0 **** -0.1786
1729 CA 49.87 32.148 53.665 C.3 0.0 **** 0.1714
1730 C 48.666 31.219 53.817 C.2 0.0 **** 0.2428
1731 O 48.267 30.521 52.87 O.2 0.0 **** -0.2727
1732 CB 49.411 33.522 53.177 C.3 0.0 **** 0.0434
1733 CG 50.532 34.517 52.952 C.3 0.0 **** 0.0873
1734 CD 50.018 35.851 52.462 C.2 0.0 **** 0.1859
1735 OE1 49.791 36.033 51.26 O.co2 0.0 **** -0.6397
1736 OE2 49.809 36.719 53.309 O.co2 0.0 **** -0.6397
1737 N 48.113 31.185 55.028 N.am 0.0 **** -0.179
1738 CA 46.938 30.39 55.331 C.3 0.0 **** 0.1678
1739 C 46.029 31.194 56.238 C.2 0.0 **** 0.2425
1740 O 46.491 31.854 57.181 O.2 0.0 **** -0.2727
1741 CB 47.303 29.077 56.015 C.3 0.0 **** 0.0414
1742 N 44.734 31.112 55.993 N.am 0.0 **** -0.1765
1743 CA 43.809 31.892 56.796 C.3 0.0 **** 0.1967
1744 C 42.518 31.129 57.002 C.2 0.0 **** 0.2451
1745 O 42.219 30.155 56.317 O.2 0.0 **** -0.2726
1746 CB 43.518 33.232 56.146 C.3 0.0 **** 0.1907
1747 OG 42.805 33.054 54.936 O.3 0.0 **** -0.1835
1748 N 41.75 31.616 57.969 N.am 0.0 **** -0.1786
1749 CA 40.472 31.05 58.342 C.3 0.0 **** 0.171
1750 C 39.619 32.241 58.734 C.2 0.0 **** 0.2425
1751 O 40.073 33.09 59.504 O.2 0.0 **** -0.2727
1752 CB 40.649 30.048 59.499 C.3 0.0 **** 0.0367
1753 CG 39.399 29.328 59.932 C.3 0.0 **** 0.0239
1754 CD 39.69 28.276 61.079 C.3 0.0 **** 0.1157
1755 NE 40.534 28.793 62.154 N.pl3 0.0 **** 0.138
1756 CZ 41.735 28.327 62.505 C.cat 0.0 **** 0.1634
1757 NH1 42.297 27.29 61.89 N.pl3 0.0 **** 0.2799
1758 NH2 42.374 28.893 63.528 N.pl3 0.0 **** 0.2799
1759 N 38.427 32.334 58.167 N.am 0.0 **** -0.1817
1760 CA 37.571 33.481 58.391 C.3 0.0 **** 0.2156
1761 C 38.252 34.798 58.068 C.2 0.0 **** 0.2394
1762 O 37.991 35.814 58.714 O.2 0.0 **** -0.273
1763 N 39.124 34.796 57.072 N.am 0.0 **** -0.1819
1764 CA 39.833 35.988 56.685 C.3 0.0 **** 0.2156
1765 C 40.978 36.39 57.589 C.2 0.0 **** 0.2396
1766 O 41.573 37.448 57.36 O.2 0.0 **** -0.273
1767 N 41.33 35.58 58.587 N.am 0.0 **** -0.1789
1768 CA 42.438 35.893 59.481 C.3 0.0 **** 0.1714
1769 C 43.548 34.87 59.314 C.2 0.0 **** 0.2428
1770 O 43.291 33.664 59.224 O.2 0.0 **** -0.2727
1771 CB 41.991 35.908 60.954 C.3 0.0 **** 0.0447
1772 CG 40.972 36.99 61.267 C.3 0.0 **** 0.1022
1773 CD 41.473 38.402 60.955 C.2 0.0 **** 0.217
1774 OE1 41.164 38.975 59.901 O.2 0.0 **** -0.2753
1775 NE2 42.244 38.971 61.876 N.am 0.0 **** -0.0515
1776 N 44.782 35.361 59.3 N.am 0.0 **** -0.179
1777 CA 45.941 34.474 59.28 C.3 0.0 **** 0.1678
1778 C 45.892 33.525 60.461 C.2 0.0 **** 0.2425
1779 O 45.556 33.93 61.577 O.2 0.0 **** -0.2727
1780 CB 47.231 35.281 59.352 C.3 0.0 **** 0.0414
1781 N 46.282 32.267 60.23 N.am 0.0 **** -0.1784
1782 CA 46.238 31.248 61.27 C.3 0.0 **** 0.1738
1783 C 47.578 30.535 61.358 C.2 0.0 **** 0.243
1784 O 48.397 30.572 60.436 O.2 0.0 **** -0.2727
1785 CB 45.131 30.215 61.021 C.3 0.0 **** 0.0176
1786 CG1 45.339 29.572 59.632 C.3 0.0 **** 0.0024
1787 CG2 43.775 30.877 61.125 C.3 0.0 **** 0.0102
1788 CD1 44.671 28.25 59.462 C.3 0.0 **** 0.0041
1789 N 47.769 29.86 62.487 N.am 0.0 **** -0.1782
1790 CA 48.872 28.926 62.672 C.3 0.0 **** 0.1789
1791 C 48.631 27.707 61.804 C.2 0.0 **** 0.2432
1792 O 47.583 27.062 61.913 O.2 0.0 **** -0.2727
1793 CB 48.957 28.464 64.13 C.3 0.0 **** 0.1195
1794 CG 49.233 29.584 65.112 C.2 0.0 **** 0.1884
1795 OD1 49.898 30.571 64.74 O.co2 0.0 **** -0.6396
1796 OD2 48.804 29.445 66.292 O.co2 0.0 **** -0.6396
1797 N 49.599 27.383 60.95 N.am 0.0 **** -0.1789
1798 CA 49.559 26.144 60.191 C.3 0.0 **** 0.1678
1799 C 50.988 25.742 59.882 C.2 0.0 **** 0.2425
1800 O 51.89 26.579 59.85 O.2 0.0 **** -0.2727
1801 CB 48.749 26.299 58.885 C.3 0.0 **** 0.0414
1802 N 51.192 24.466 59.605 N.am 0.0 **** -0.1784
1803 CA 52.513 23.953 59.262 C.3 0.0 **** 0.1735
1804 C 52.54 23.66 57.772 C.2 0.0 **** 0.243
1805 O 51.607 23.045 57.247 O.2 0.0 **** -0.2727
1806 CB 52.861 22.691 60.08 C.3 0.0 **** 0.0147
1807 CG1 51.841 21.601 59.822 C.3 0.0 **** 0.0099
1808 CG2 54.284 22.19 59.728 C.3 0.0 **** 0.0099
1809 N 53.592 24.118 57.094 N.am 0.0 **** -0.1784
1810 CA 53.823 23.815 55.681 C.3 0.0 **** 0.1735
1811 C 54.914 22.768 55.615 C.2 0.0 **** 0.243
1812 O 55.962 22.924 56.252 O.2 0.0 **** -0.2727
1813 CB 54.247 25.069 54.911 C.3 0.0 **** 0.0147
1814 CG1 54.42 24.768 53.427 C.3 0.0 **** 0.0099
1815 CG2 53.22 26.183 55.123 C.3 0.0 **** 0.0099
1816 N 54.676 21.693 54.873 N.am 0.0 **** -0.1786
1817 CA 55.681 20.652 54.708 C.3 0.0 **** 0.171
1818 C 55.929 20.448 53.219 C.2 0.0 **** 0.2428
1819 O 54.978 20.338 52.442 O.2 0.0 **** -0.2727
1820 CB 55.235 19.361 55.37 C.3 0.0 **** 0.0367
1821 CG 55.093 19.514 56.877 C.3 0.0 **** 0.0239
1822 CD 54.894 18.202 57.488 C.3 0.0 **** 0.1157
1823 NE 54.782 18.252 58.954 N.pl3 0.0 **** 0.138
1824 CZ 53.637 18.338 59.617 C.cat 0.0 **** 0.1634
1825 NH1 52.472 18.402 58.978 N.pl3 0.0 **** 0.2799
1826 NH2 53.654 18.37 60.937 N.pl3 0.0 **** 0.2799
1827 N 57.197 20.42 52.825 N.am 0.0 **** -0.1784
1828 CA 57.53 20.144 51.429 C.3 0.0 **** 0.1737
1829 C 58.55 19.019 51.437 C.2 0.0 **** 0.2456
1830 O 59.764 19.278 51.458 O.2 0.0 **** -0.2724
1831 CB 58.082 21.369 50.705 C.3 0.0 **** 0.0147
1832 CG1 58.156 21.064 49.247 C.3 0.0 **** 0.0099
1833 CG2 57.187 22.581 50.901 C.3 0.0 **** 0.0099
1834 N 58.117 17.767 51.457 N.am 0.0 **** -0.3289
1835 CA 59.083 16.682 51.714 C.3 0.0 **** 0.1741
1836 C 60.287 16.662 50.786 C.2 0.0 **** 0.243
1837 O 61.402 16.383 51.248 O.2 0.0 **** -0.2727
1838 CB 58.227 15.422 51.548 C.3 0.0 **** 0.037
1839 CG 56.847 15.869 52.02 C.3 0.0 **** 0.0242
1840 CD 56.719 17.293 51.48 C.3 0.0 **** 0.1203
1841 N 60.101 16.916 49.498 N.am 0.0 **** -0.1786
1842 CA 61.201 16.721 48.565 C.3 0.0 **** 0.1714
1843 C 62.302 17.741 48.813 C.2 0.0 **** 0.2428
1844 O 63.471 17.46 48.539 O.2 0.0 **** -0.2727
1845 CB 60.686 16.802 47.115 C.3 0.0 **** 0.0434
1846 CG 61.765 16.688 46.029 C.3 0.0 **** 0.0873
1847 CD 61.184 16.686 44.604 C.2 0.0 **** 0.1859
1848 OE1 59.938 16.653 44.442 O.co2 0.0 **** -0.6397
1849 OE2 61.976 16.739 43.635 O.co2 0.0 **** -0.6397
1850 N 61.961 18.903 49.368 N.am 0.0 **** -0.1786
1851 CA 62.949 19.933 49.671 C.3 0.0 **** 0.1712
1852 C 63.362 19.949 51.149 C.2 0.0 **** 0.2427
1853 O 64.081 20.864 51.577 O.2 0.0 **** -0.2727
1854 CB 62.409 21.294 49.248 C.3 0.0 **** 0.0378
1855 CG 62.24 21.424 47.723 C.3 0.0 **** -0.0149
1856 CD1 61.454 22.669 47.381 C.3 0.0 **** 0.0072
1857 CD2 63.604 21.453 47.013 C.3 0.0 **** 0.0072
1858 N 62.909 18.968 51.925 N.am 0.0 **** -0.179
1859 CA 63.286 18.807 53.331 C.3 0.0 **** 0.1678
1860 C 62.883 20.023 54.164 C.2 0.0 **** 0.2425
1861 O 63.621 20.454 55.055 O.2 0.0 **** -0.2727
1862 CB 64.791 18.511 53.472 C.3 0.0 **** 0.0414
1863 N 61.687 20.553 53.89 N.am 0.0 **** -0.1787
1864 CA 61.19 21.797 54.477 C.3 0.0 **** 0.1712
1865 C 60.041 21.516 55.438 C.2 0.0 **** 0.2428
1866 O 59.073 20.833 55.087 O.2 0.0 **** -0.2727
1867 CB 60.679 22.768 53.399 C.3 0.0 **** 0.0378
1868 CG 61.606 23.142 52.249 C.3 0.0 **** -0.0149
1869 CD1 60.977 24.247 51.383 C.3 0.0 **** 0.0072
1870 CD2 62.97 23.549 52.724 C.3 0.0 **** 0.0072
1871 N 60.133 22.081 56.638 N.am 0.0 **** -0.1786
1872 CA 58.995 22.171 57.543 C.3 0.0 **** 0.1714
1873 C 59.013 23.581 58.09 C.2 0.0 **** 0.2428
1874 O 59.936 23.953 58.836 O.2 0.0 **** -0.2727
1875 CB 59.081 21.13 58.659 C.3 0.0 **** 0.0434
1876 CG 57.871 21.197 59.621 C.3 0.0 **** 0.0873
1877 CD 57.706 19.98 60.477 C.2 0.0 **** 0.1859
1878 OE1 57.662 18.848 59.939 O.co2 0.0 **** -0.6397
1879 OE2 57.649 20.157 61.712 O.co2 0.0 **** -0.6397
1880 N 58.003 24.365 57.742 N.am 0.0 **** -0.1786
1881 CA 57.986 25.763 58.124 C.3 0.0 **** 0.1712
1882 C 56.57 26.182 58.501 C.2 0.0 **** 0.2427
1883 O 55.578 25.504 58.207 O.2 0.0 **** -0.2727
1884 CB 58.522 26.677 57.012 C.3 0.0 **** 0.0378
1885 CG 57.665 26.858 55.766 C.3 0.0 **** -0.0149
1886 CD1 57.983 28.157 55.038 C.3 0.0 **** 0.0072
1887 CD2 57.873 25.668 54.829 C.3 0.0 **** 0.0072
1888 N 56.506 27.33 59.157 N.am 0.0 **** -0.179
1889 CA 55.241 27.912 59.554 C.3 0.0 **** 0.1678
1890 C 54.58 28.605 58.368 C.2 0.0 **** 0.2425
1891 O 55.247 29.266 57.571 O.2 0.0 **** -0.2727
1892 CB 55.458 28.919 60.675 C.3 0.0 **** 0.0414
1893 N 53.26 28.489 58.277 N.am 0.0 **** -0.179
1894 CA 52.546 29.319 57.321 C.3 0.0 **** 0.1678
1895 C 52.743 30.774 57.71 C.2 0.0 **** 0.2422
1896 O 52.794 31.118 58.893 O.2 0.0 **** -0.2727
1897 CB 51.062 28.951 57.282 C.3 0.0 **** 0.0414
1898 N 52.918 31.619 56.721 N.am 0.0 **** -0.1817
1899 CA 53.091 33.03 56.963 C.3 0.0 **** 0.2156
1900 C 54.515 33.538 57.011 C.2 0.0 **** 0.2396
1901 O 54.706 34.753 57.105 O.2 0.0 **** -0.273
1902 N 55.522 32.676 56.924 N.am 0.0 **** -0.1766
1903 CA 56.898 33.15 56.99 C.3 0.0 **** 0.1996
1904 C 57.609 32.857 55.681 C.2 0.0 **** 0.2454
1905 O 57.448 31.782 55.087 O.2 0.0 **** -0.2726
1906 CB 57.669 32.54 58.184 C.3 0.0 **** 0.1429
1907 OG1 57.955 31.16 57.949 O.3 0.0 **** -0.1801
1908 CG2 56.841 32.627 59.409 C.3 0.0 **** 0.0409
1909 N 58.359 33.847 55.223 N.am 0.0 **** -0.1786
1910 CA 59.121 33.726 53.993 C.3 0.0 **** 0.1714
1911 C 60.472 33.095 54.283 C.2 0.0 **** 0.2428
1912 O 61.174 33.501 55.222 O.2 0.0 **** -0.2727
1913 CB 59.317 35.088 53.355 C.3 0.0 **** 0.0434
1914 CG 59.993 34.968 51.997 C.3 0.0 **** 0.0873
1915 CD 60.104 36.284 51.277 C.2 0.0 **** 0.1859
1916 OE1 59.124 36.703 50.622 O.co2 0.0 **** -0.6397
1917 OE2 61.181 36.907 51.363 O.co2 0.0 **** -0.6397
1918 N 60.84 32.106 53.47 N.am 0.0 **** -0.1784
1919 CA 62.117 31.427 53.606 C.3 0.0 **** 0.1735
1920 C 62.798 31.359 52.244 C.2 0.0 **** 0.243
1921 O 62.183 31.549 51.19 O.2 0.0 **** -0.2727
1922 CB 61.962 30.003 54.19 C.3 0.0 **** 0.0147
1923 CG1 61.299 30.063 55.567 C.3 0.0 **** 0.0099
1924 CG2 61.164 29.113 53.238 C.3 0.0 **** 0.0099
1925 N 64.098 31.105 52.299 N.am 0.0 **** -0.1786
1926 CA 64.927 30.921 51.122 C.3 0.0 **** 0.171
1927 C 65.34 29.456 51.049 C.2 0.0 **** 0.2428
1928 O 66.114 28.975 51.88 O.2 0.0 **** -0.2727
1929 CB 66.149 31.829 51.166 C.3 0.0 **** 0.0367
1930 CG 65.794 33.292 51.31 C.3 0.0 **** 0.0239
1931 CD 67.0 34.191 51.052 C.3 0.0 **** 0.1157
1932 NE 67.4 34.187 49.636 N.pl3 0.0 **** 0.138
1933 CZ 66.759 34.843 48.675 C.cat 0.0 **** 0.1634
1934 NH1 65.676 35.545 48.965 N.pl3 0.0 **** 0.2799
1935 NH2 67.193 34.792 47.417 N.pl3 0.0 **** 0.2799
1936 N 64.855 28.766 50.025 N.am 0.0 **** -0.1784
1937 CA 65.174 27.373 49.803 C.3 0.0 **** 0.1737
1938 C 66.488 27.335 49.029 C.2 0.0 **** 0.2456
1939 O 66.599 27.967 47.961 O.2 0.0 **** -0.2724
1940 CB 64.051 26.654 49.041 C.3 0.0 **** 0.0147
1941 CG1 64.37 25.149 48.948 C.3 0.0 **** 0.0099
1942 CG2 62.672 26.893 49.725 C.3 0.0 **** 0.0099
1943 N 67.495 26.598 49.494 N.am 0.0 **** -0.3289
1944 CA 68.839 26.763 48.917 C.3 0.0 **** 0.1741
1945 C 68.935 26.442 47.447 C.2 0.0 **** 0.243
1946 O 69.675 27.114 46.715 O.2 0.0 **** -0.2727
1947 CB 69.686 25.798 49.76 C.3 0.0 **** 0.037
1948 CG 68.995 25.71 51.018 C.3 0.0 **** 0.0242
1949 CD 67.541 25.852 50.762 C.3 0.0 **** 0.1203
1950 N 68.251 25.403 46.993 N.am 0.0 **** -0.1789
1951 CA 68.266 25.082 45.576 C.3 0.0 **** 0.1678
1952 C 66.898 24.524 45.236 C.2 0.0 **** 0.2425
1953 O 66.381 23.651 45.942 O.2 0.0 **** -0.2727
1954 CB 69.384 24.08 45.227 C.3 0.0 **** 0.0414
1955 N 66.295 25.061 44.2 N.am 0.0 **** -0.1784
1956 CA 65.077 24.489 43.667 C.3 0.0 **** 0.1735
1957 C 65.271 24.363 42.165 C.2 0.0 **** 0.243
1958 O 66.083 25.067 41.558 O.2 0.0 **** -0.2727
1959 CB 63.81 25.325 43.978 C.3 0.0 **** 0.0147
1960 CG1 63.598 25.475 45.491 C.3 0.0 **** 0.0099
1961 CG2 63.882 26.681 43.316 C.3 0.0 **** 0.0099
1962 N 64.531 23.44 41.583 N.am 0.0 **** -0.1786
1963 CA 64.436 23.337 40.131 C.3 0.0 **** 0.1716
1964 C 63.249 24.164 39.661 C.2 0.0 **** 0.2454
1965 O 62.117 23.889 40.087 O.2 0.0 **** -0.2724
1966 CB 64.279 21.882 39.723 C.3 0.0 **** 0.0434
1967 CG 65.53 21.051 40.017 C.3 0.0 **** 0.0873
1968 CD 65.364 19.568 39.674 C.2 0.0 **** 0.1859
1969 OE1 64.553 19.215 38.807 O.co2 0.0 **** -0.6397
1970 OE2 66.044 18.745 40.28 O.co2 0.0 **** -0.6397
1971 N 63.452 25.177 38.817 N.am 0.0 **** -0.3289
1972 CA 62.379 26.119 38.518 C.3 0.0 **** 0.1741
1973 C 61.334 25.55 37.574 C.2 0.0 **** 0.243
1974 O 61.622 24.726 36.697 O.2 0.0 **** -0.2727
1975 CB 63.123 27.288 37.861 C.3 0.0 **** 0.037
1976 CG 64.304 26.64 37.192 C.3 0.0 **** 0.0242
1977 CD 64.719 25.569 38.17 C.3 0.0 **** 0.1203
1978 N 60.119 26.055 37.738 N.am 0.0 **** -0.1783
1979 CA 58.992 25.728 36.875 C.3 0.0 **** 0.1754
1980 C 59.003 26.597 35.625 C.2 0.0 **** 0.2432
1981 O 59.145 27.826 35.714 O.2 0.0 **** -0.2727
1982 CB 57.675 25.933 37.642 C.3 0.0 **** 0.0724
1983 CG 56.437 25.471 36.879 C.2 0.0 **** -0.0201
1984 CD1 55.777 24.285 37.035 C.2 0.0 **** 0.0869
1985 CD2 55.752 26.173 35.83 C.2 0.0 **** 0.0027
1986 NE1 54.74 24.192 36.134 N.pl3 0.0 **** -0.195
1987 CE2 54.695 25.341 35.392 C.2 0.0 **** 0.0456
1988 CE3 55.923 27.411 35.23 C.2 0.0 **** 0.0104
1989 CZ2 53.83 25.704 34.373 C.2 0.0 **** 0.0265
1990 CZ3 55.066 27.775 34.218 C.2 0.0 **** 0.0008
1991 CH2 54.022 26.918 33.798 C.2 0.0 **** 0.0022
1992 N 58.818 25.959 34.462 N.am 0.0 **** -0.1765
1993 CA 58.485 26.628 33.203 C.3 0.0 **** 0.1967
1994 C 57.528 25.741 32.42 C.2 0.0 **** 0.2451
1995 O 57.385 24.555 32.71 O.2 0.0 **** -0.2726
1996 CB 59.738 26.889 32.354 C.3 0.0 **** 0.1907
1997 OG 60.331 25.629 32.007 O.3 0.0 **** -0.1835
1998 N 56.938 26.287 31.347 N.am 0.0 **** -0.1789
1999 CA 56.132 25.436 30.484 C.3 0.0 **** 0.1678
2000 C 56.972 24.315 29.885 C.2 0.0 **** 0.2425
2001 O 56.459 23.21 29.642 O.2 0.0 **** -0.2727
2002 CB 55.48 26.266 29.382 C.3 0.0 **** 0.0414
2003 N 58.265 24.577 29.632 N.am 0.0 **** -0.1787
2004 CA 59.128 23.548 29.053 C.3 0.0 **** 0.1714
2005 C 59.45 22.474 30.074 C.2 0.0 **** 0.2428
2006 O 59.51 21.28 29.738 O.2 0.0 **** -0.2727
2007 CB 60.428 24.17 28.511 C.3 0.0 **** 0.0434
2008 CG 60.206 25.046 27.313 C.3 0.0 **** 0.0873
2009 CD 61.404 25.922 26.947 C.2 0.0 **** 0.1859
2010 OE1 62.509 25.668 27.478 O.co2 0.0 **** -0.6397
2011 OE2 61.203 26.878 26.129 O.co2 0.0 **** -0.6397
2012 N 59.701 22.878 31.313 N.am 0.0 **** -0.1784
2013 CA 60.109 21.954 32.36 C.3 0.0 **** 0.1737
2014 C 59.237 22.265 33.576 C.2 0.0 **** 0.2456
2015 O 59.642 23.053 34.452 O.2 0.0 **** -0.2724
2016 CB 61.607 22.07 32.675 C.3 0.0 **** 0.0147
2017 CG1 61.99 20.989 33.675 C.3 0.0 **** 0.0099
2018 CG2 62.442 21.967 31.392 C.3 0.0 **** 0.0099
2019 N 58.013 21.698 33.644 N.am 0.0 **** -0.3289
2020 CA 57.019 22.091 34.661 C.3 0.0 **** 0.1741
2021 C 57.238 21.388 35.998 C.2 0.0 **** 0.243
2022 O 56.389 20.633 36.503 O.2 0.0 **** -0.2727
2023 CB 55.695 21.717 33.979 C.3 0.0 **** 0.037
2024 CG 56.027 20.548 33.129 C.3 0.0 **** 0.0242
2025 CD 57.431 20.812 32.612 C.3 0.0 **** 0.1203
2026 N 58.419 21.601 36.565 N.am 0.0 **** -0.1787
2027 CA 58.747 21.021 37.871 C.3 0.0 **** 0.1709
2028 C 57.782 21.498 38.943 C.2 0.0 **** 0.2427
2029 O 57.623 22.7 39.173 O.2 0.0 **** -0.2727
2030 CB 60.177 21.384 38.268 C.3 0.0 **** 0.035
2031 CG 60.594 20.865 39.667 C.3 0.0 **** 0.0062
2032 CD 60.655 19.334 39.745 C.3 0.0 **** 0.0387
2033 CE 61.228 18.887 41.059 C.3 0.0 **** 0.1659
2034 NZ 61.249 17.409 41.138 N.4 0.0 **** 0.7918
2035 N 57.197 20.547 39.653 N.am 0.0 **** -0.1786
2036 CA 56.274 20.821 40.744 C.3 0.0 **** 0.1712
2037 C 56.694 20.037 41.97 C.2 0.0 **** 0.2428
2038 O 57.017 18.852 41.881 O.2 0.0 **** -0.2727
2039 CB 54.847 20.424 40.376 C.3 0.0 **** 0.0378
2040 CG 54.198 21.227 39.263 C.3 0.0 **** -0.0149
2041 CD1 52.91 20.563 38.84 C.3 0.0 **** 0.0072
2042 CD2 53.922 22.674 39.725 C.3 0.0 **** 0.0072
2043 N 56.657 20.69 43.121 N.am 0.0 **** -0.1783
2044 CA 56.934 20.037 44.395 C.3 0.0 **** 0.1753
2045 C 55.644 19.833 45.169 C.2 0.0 **** 0.2431
2046 O 54.903 20.786 45.393 O.2 0.0 **** -0.2727
2047 CB 57.895 20.879 45.222 C.3 0.0 **** 0.0702
2048 CG 59.251 21.07 44.588 C.ar 0.0 **** -0.0452
2049 CD1 60.275 20.178 44.845 C.ar 0.0 **** 0.0063
2050 CD2 59.498 22.136 43.728 C.ar 0.0 **** 0.0063
2051 CE1 61.516 20.345 44.286 C.ar 0.0 **** 0.0332
2052 CE2 60.773 22.32 43.172 C.ar 0.0 **** 0.0332
2053 CZ 61.764 21.406 43.458 C.ar 0.0 **** 0.0713
2054 OH 63.042 21.51 42.943 O.3 0.0 **** -0.1427
2055 N 55.396 18.606 45.611 N.am 0.0 **** -0.1786
2056 CA 54.205 18.346 46.406 C.3 0.0 **** 0.1714
2057 C 54.385 18.946 47.79 C.2 0.0 **** 0.2428
2058 O 55.476 18.889 48.381 O.2 0.0 **** -0.2727
2059 CB 53.92 16.841 46.541 C.3 0.0 **** 0.0434
2060 CG 53.738 16.113 45.209 C.3 0.0 **** 0.0873
2061 CD 52.53 16.591 44.396 C.2 0.0 **** 0.1859
2062 OE1 51.432 16.71 44.977 O.co2 0.0 **** -0.6397
2063 OE2 52.677 16.844 43.167 O.co2 0.0 **** -0.6397
2064 N 53.307 19.524 48.29 N.am 0.0 **** -0.179
2065 CA 53.341 20.184 49.6 C.3 0.0 **** 0.1678
2066 C 51.974 20.089 50.261 C.2 0.0 **** 0.2425
2067 O 51.034 19.704 49.617 O.2 0.0 **** -0.2727
2068 CB 53.777 21.61 49.461 C.3 0.0 **** 0.0414
2069 N 51.954 20.352 51.556 N.am 0.0 **** -0.179
2070 CA 50.697 20.358 52.315 C.3 0.0 **** 0.1678
2071 C 50.798 21.463 53.35 C.2 0.0 **** 0.2425
2072 O 51.864 21.674 53.861 O.2 0.0 **** -0.2727
2073 CB 50.492 19.027 52.972 C.3 0.0 **** 0.0414
2074 N 49.698 22.142 53.608 N.am 0.0 **** -0.1784
2075 CA 49.67 23.159 54.686 C.3 0.0 **** 0.1735
2076 C 48.587 22.648 55.631 C.2 0.0 **** 0.2431
2077 O 47.484 22.433 55.192 O.2 0.0 **** -0.2727
2078 CB 49.462 24.586 54.154 C.3 0.0 **** 0.0147
2079 CG1 48.405 24.648 53.087 C.3 0.0 **** 0.0099
2080 CG2 49.236 25.593 55.265 C.3 0.0 **** 0.0099
2081 N 48.949 22.455 56.892 N.am 0.0 **** -0.1765
2082 CA 48.029 21.757 57.811 C.3 0.0 **** 0.1967
2083 C 47.739 22.544 59.08 C.2 0.0 **** 0.2451
2084 O 48.641 23.112 59.636 O.2 0.0 **** -0.2726
2085 CB 48.639 20.435 58.185 C.3 0.0 **** 0.1907
2086 OG 48.89 19.645 57.049 O.3 0.0 **** -0.1835
2087 N 46.472 22.594 59.436 N.am 0.0 **** -0.1789
2088 CA 46.047 23.055 60.745 C.3 0.0 **** 0.1678
2089 C 45.477 21.856 61.499 C.2 0.0 **** 0.2425
2090 O 45.417 20.741 60.973 O.2 0.0 **** -0.2727
2091 CB 45.037 24.202 60.604 C.3 0.0 **** 0.0414
2092 N 45.069 22.076 62.749 N.am 0.0 **** -0.179
2093 CA 44.576 20.959 63.546 C.3 0.0 **** 0.1678
2094 C 43.426 20.236 62.854 C.2 0.0 **** 0.2422
2095 O 43.317 19.01 62.949 O.2 0.0 **** -0.2727
2096 CB 44.133 21.432 64.945 C.3 0.0 **** 0.0414
2097 N 42.544 20.965 62.177 N.am 0.0 **** -0.1817
2098 CA 41.311 20.35 61.722 C.3 0.0 **** 0.2156
2099 C 41.188 20.139 60.223 C.2 0.0 **** 0.2396
2100 O 40.166 19.624 59.755 O.2 0.0 **** -0.273
2101 N 42.205 20.531 59.453 N.am 0.0 **** -0.1789
2102 CA 42.115 20.433 58.004 C.3 0.0 **** 0.1714
2103 C 43.509 20.545 57.407 C.2 0.0 **** 0.2428
2104 O 44.347 21.295 57.92 O.2 0.0 **** -0.2727
2105 CB 41.211 21.539 57.444 C.3 0.0 **** 0.0434
2106 CG 40.833 21.403 55.94 C.3 0.0 **** 0.0873
2107 CD 39.794 22.442 55.501 C.2 0.0 **** 0.1859
2108 OE1 39.392 23.284 56.336 O.co2 0.0 **** -0.6397
2109 OE2 39.346 22.403 54.328 O.co2 0.0 **** -0.6397
2110 N 43.745 19.81 56.309 N.am 0.0 **** -0.1765
2111 CA 45.005 19.817 55.581 C.3 0.0 **** 0.1967
2112 C 44.722 20.048 54.1 C.2 0.0 **** 0.2452
2113 O 43.784 19.468 53.544 O.2 0.0 **** -0.2726
2114 CB 45.74 18.494 55.8 C.3 0.0 **** 0.1907
2115 OG 47.001 18.539 55.172 O.3 0.0 **** -0.1835
2116 N 45.524 20.914 53.478 N.am 0.0 **** -0.1783
2117 CA 45.373 21.288 52.075 C.3 0.0 **** 0.1735
2118 C 46.583 20.781 51.314 C.2 0.0 **** 0.243
2119 O 47.728 20.988 51.739 O.2 0.0 **** -0.2727
2120 CB 45.232 22.813 51.939 C.3 0.0 **** 0.0147
2121 CG1 45.444 23.283 50.493 C.3 0.0 **** 0.0099
2122 CG2 43.88 23.294 52.477 C.3 0.0 **** 0.0099
2123 N 46.344 20.163 50.168 N.am 0.0 **** -0.1789
2124 CA 47.415 19.623 49.344 C.3 0.0 **** 0.1678
2125 C 47.706 20.588 48.192 C.2 0.0 **** 0.2425
2126 O 46.776 21.069 47.54 O.2 0.0 **** -0.2727
2127 CB 47.026 18.238 48.817 C.3 0.0 **** 0.0414
2128 N 48.989 20.881 47.959 N.am 0.0 **** -0.1787
2129 CA 49.395 21.884 46.981 C.3 0.0 **** 0.1712
2130 C 50.468 21.319 46.077 C.2 0.0 **** 0.2428
2131 O 51.227 20.439 46.474 O.2 0.0 **** -0.2727
2132 CB 49.972 23.126 47.652 C.3 0.0 **** 0.0378
2133 CG 49.09 23.836 48.668 C.3 0.0 **** -0.0149
2134 CD1 49.944 24.764 49.538 C.3 0.0 **** 0.0072
2135 CD2 48.036 24.602 47.931 C.3 0.0 **** 0.0072
2136 N 50.537 21.853 44.854 N.am 0.0 **** -0.1786
2137 CA 51.678 21.628 43.976 C.3 0.0 **** 0.1714
2138 C 52.361 22.962 43.743 C.2 0.0 **** 0.2428
2139 O 51.733 23.906 43.262 O.2 0.0 **** -0.2727
2140 CB 51.244 20.99 42.657 C.3 0.0 **** 0.0447
2141 CG 50.645 19.6 42.836 C.3 0.0 **** 0.1022
2142 CD 50.301 18.961 41.492 C.2 0.0 **** 0.217
2143 OE1 49.552 19.522 40.705 O.2 0.0 **** -0.2753
2144 NE2 50.883 17.791 41.217 N.am 0.0 **** -0.0515
2145 N 53.628 23.057 44.106 N.am 0.0 **** -0.1784
2146 CA 54.317 24.339 44.116 C.3 0.0 **** 0.1738
2147 C 55.307 24.343 42.959 C.2 0.0 **** 0.2428
2148 O 56.175 23.47 42.881 O.2 0.0 **** -0.2727
2149 CB 55.032 24.583 45.45 C.3 0.0 **** 0.0176
2150 CG1 54.008 24.681 46.572 C.3 0.0 **** 0.0024
2151 CG2 55.858 25.846 45.402 C.3 0.0 **** 0.0102
2152 CD1 54.574 24.79 47.978 C.3 0.0 **** 0.0041
2153 N 55.179 25.329 42.07 N.am 0.0 **** -0.1817
2154 CA 56.181 25.559 41.057 C.3 0.0 **** 0.2156
2155 C 56.877 26.863 41.343 C.2 0.0 **** 0.2396
2156 O 56.22 27.897 41.494 O.2 0.0 **** -0.273
2157 N 58.193 26.836 41.466 N.am 0.0 **** -0.1786
2158 CA 58.944 28.043 41.774 C.3 0.0 **** 0.1753
2159 C 59.255 28.749 40.465 C.2 0.0 **** 0.2431
2160 O 59.926 28.176 39.614 O.2 0.0 **** -0.2727
2161 CB 60.238 27.698 42.498 C.3 0.0 **** 0.0702
2162 CG 60.044 27.192 43.878 C.ar 0.0 **** -0.0454
2163 CD1 59.829 25.844 44.113 C.ar 0.0 **** 0.0036
2164 CD2 60.084 28.055 44.947 C.ar 0.0 **** 0.0036
2165 CE1 59.663 25.374 45.407 C.ar 0.0 **** 0.0003
2166 CE2 59.913 27.577 46.253 C.ar 0.0 **** 0.0003
2167 CZ 59.692 26.251 46.458 C.ar 0.0 **** 0.0
2168 N 58.798 29.989 40.327 N.am 0.0 **** -0.1786
2169 CA 59.093 30.77 39.14 C.3 0.0 **** 0.171
2170 C 58.789 32.219 39.46 C.2 0.0 **** 0.2428
2171 O 57.838 32.514 40.19 O.2 0.0 **** -0.2727
2172 CB 58.284 30.271 37.944 C.3 0.0 **** 0.0367
2173 CG 56.755 30.272 38.109 C.3 0.0 **** 0.0239
2174 CD 56.115 31.481 37.503 C.3 0.0 **** 0.1157
2175 NE 54.665 31.576 37.757 N.pl3 0.0 **** 0.138
2176 CZ 54.109 32.268 38.741 C.cat 0.0 **** 0.1634
2177 NH1 54.878 32.913 39.62 N.pl3 0.0 **** 0.2799
2178 NH2 52.784 32.299 38.864 N.pl3 0.0 **** 0.2799
2179 N 59.589 33.12 38.912 N.am 0.0 **** -0.1765
2180 CA 59.358 34.547 39.055 C.3 0.0 **** 0.1967
2181 C 59.191 35.177 37.685 C.2 0.0 **** 0.2452
2182 O 59.833 34.761 36.714 O.2 0.0 **** -0.2726
2183 CB 60.491 35.194 39.796 C.3 0.0 **** 0.1907
2184 OG 60.487 34.746 41.144 O.3 0.0 **** -0.1835
2185 N 58.324 36.183 37.619 N.am 0.0 **** -0.1783
2186 CA 57.979 36.871 36.379 C.3 0.0 **** 0.1738
2187 C 58.422 38.306 36.535 C.2 0.0 **** 0.243
2188 O 58.195 38.922 37.583 O.2 0.0 **** -0.2727
2189 CB 56.464 36.811 36.117 C.3 0.0 **** 0.0176
2190 CG1 55.967 35.363 36.151 C.3 0.0 **** 0.0024
2191 CG2 56.111 37.486 34.809 C.3 0.0 **** 0.0102
2192 CD1 54.522 35.21 36.602 C.3 0.0 **** 0.0041
2193 N 59.068 38.836 35.514 N.am 0.0 **** -0.1789
2194 CA 59.544 40.208 35.575 C.3 0.0 **** 0.1678
2195 C 59.471 40.836 34.192 C.2 0.0 **** 0.2425
2196 O 59.695 40.174 33.179 O.2 0.0 **** -0.2727
2197 CB 60.97 40.253 36.087 C.3 0.0 **** 0.0414
2198 N 59.175 42.127 34.16 N.am 0.0 **** -0.1784
2199 CA 59.265 42.915 32.939 C.3 0.0 **** 0.1738
2200 C 60.483 43.815 33.053 C.2 0.0 **** 0.243
2201 O 60.622 44.569 34.011 O.2 0.0 **** -0.2727
2202 CB 57.979 43.701 32.703 C.3 0.0 **** 0.0176
2203 CG1 56.872 42.662 32.397 C.3 0.0 **** 0.0024
2204 CG2 58.187 44.727 31.565 C.3 0.0 **** 0.0102
2205 CD1 55.542 43.16 32.593 C.3 0.0 **** 0.0041
2206 N 61.392 43.682 32.103 N.am 0.0 **** -0.1786
2207 CA 62.701 44.307 32.165 C.3 0.0 **** 0.1714
2208 C 63.163 44.556 30.74 C.2 0.0 **** 0.2428
2209 O 63.077 43.655 29.902 O.2 0.0 **** -0.2727
2210 CB 63.661 43.38 32.915 C.3 0.0 **** 0.0434
2211 CG 65.103 43.521 32.626 C.3 0.0 **** 0.0873
2212 CD 65.958 42.64 33.56 C.2 0.0 **** 0.1859
2213 OE1 66.166 43.027 34.729 O.co2 0.0 **** -0.6397
2214 OE2 66.404 41.555 33.128 O.co2 0.0 **** -0.6397
2215 N 63.629 45.774 30.472 N.am 0.0 **** -0.1782
2216 CA 64.153 46.129 29.152 C.3 0.0 **** 0.1789
2217 C 63.137 45.814 28.063 C.2 0.0 **** 0.2432
2218 O 63.475 45.316 26.989 O.2 0.0 **** -0.2727
2219 CB 65.477 45.415 28.876 C.3 0.0 **** 0.1195
2220 CG 66.528 45.687 29.956 C.2 0.0 **** 0.1884
2221 OD1 66.545 46.802 30.514 O.co2 0.0 **** -0.6396
2222 OD2 67.335 44.777 30.247 O.co2 0.0 **** -0.6396
2223 N 61.87 46.109 28.347 N.am 0.0 **** -0.1789
2224 CA 60.784 45.946 27.373 C.3 0.0 **** 0.1678
2225 C 60.601 44.49 26.965 C.2 0.0 **** 0.2425
2226 O 60.147 44.191 25.85 O.2 0.0 **** -0.2727
2227 CB 61.015 46.834 26.135 C.3 0.0 **** 0.0414
2228 N 60.919 43.578 27.885 N.am 0.0 **** -0.1787
2229 CA 60.784 42.145 27.676 C.3 0.0 **** 0.1714
2230 C 60.04 41.491 28.841 C.2 0.0 **** 0.2428
2231 O 60.227 41.845 30.008 O.2 0.0 **** -0.2727
2232 CB 62.139 41.483 27.532 C.3 0.0 **** 0.0447
2233 CG 62.93 41.889 26.276 C.3 0.0 **** 0.1022
2234 CD 64.374 41.491 26.376 C.2 0.0 **** 0.217
2235 OE1 64.71 40.317 26.402 O.2 0.0 **** -0.2753
2236 NE2 65.246 42.485 26.479 N.am 0.0 **** -0.0515
2237 N 59.224 40.509 28.501 N.am 0.0 **** -0.1783
2238 CA 58.515 39.666 29.446 C.3 0.0 **** 0.1753
2239 C 59.384 38.456 29.767 C.2 0.0 **** 0.2431
2240 O 59.621 37.612 28.901 O.2 0.0 **** -0.2727
2241 CB 57.196 39.214 28.848 C.3 0.0 **** 0.0702
2242 CG 56.287 38.531 29.857 C.ar 0.0 **** -0.0454
2243 CD1 56.387 37.176 30.096 C.ar 0.0 **** 0.0036
2244 CD2 55.338 39.26 30.526 C.ar 0.0 **** 0.0036
2245 CE1 55.544 36.535 31.009 C.ar 0.0 **** 0.0003
2246 CE2 54.465 38.636 31.449 C.ar 0.0 **** 0.0003
2247 CZ 54.59 37.257 31.668 C.ar 0.0 **** 0.0
2248 N 59.861 38.38 31.008 N.am 0.0 **** -0.1786
2249 CA 60.819 37.365 31.406 C.3 0.0 **** 0.1709
2250 C 60.239 36.458 32.482 C.2 0.0 **** 0.2428
2251 O 59.55 36.909 33.396 O.2 0.0 **** -0.2727
2252 CB 62.113 38.016 31.913 C.3 0.0 **** 0.035
2253 CG 62.833 38.832 30.848 C.3 0.0 **** 0.0062
2254 CD 64.193 39.324 31.318 C.3 0.0 **** 0.0387
2255 CE 64.897 40.134 30.233 C.3 0.0 **** 0.1659
2256 NZ 66.269 40.562 30.673 N.4 0.0 **** 0.7918
2257 N 60.553 35.182 32.384 N.am 0.0 **** -0.1784
2258 CA 60.316 34.228 33.449 C.3 0.0 **** 0.1735
2259 C 61.661 33.636 33.862 C.2 0.0 **** 0.243
2260 O 62.458 33.224 33.008 O.2 0.0 **** -0.2727
2261 CB 59.342 33.139 32.984 C.3 0.0 **** 0.0147
2262 CG1 59.205 32.057 34.037 C.3 0.0 **** 0.0099
2263 CG2 57.993 33.777 32.63 C.3 0.0 **** 0.0099
2264 N 61.922 33.628 35.161 N.am 0.0 **** -0.1781
2265 CA 63.144 33.048 35.702 C.3 0.0 **** 0.1802
2266 C 64.375 33.635 35.045 C.2 0.0 **** 0.2431
2267 O 65.384 32.948 34.808 O.2 0.0 **** -0.2727
2268 CB 63.096 31.541 35.577 C.3 0.0 **** 0.1344
2269 CG 61.915 30.954 36.348 C.2 0.0 **** 0.2196
2270 OD1 61.431 31.567 37.313 O.2 0.0 **** -0.2752
2271 ND2 61.451 29.786 35.944 N.am 0.0 **** -0.0514
2272 N 64.305 34.938 34.767 N.am 0.0 **** -0.1817
2273 CA 65.454 35.644 34.302 C.3 0.0 **** 0.2156
2274 C 65.635 35.633 32.79 C.2 0.0 **** 0.2396
2275 O 66.588 36.246 32.307 O.2 0.0 **** -0.273
2276 N 64.743 34.968 32.038 N.am 0.0 **** -0.1789
2277 CA 64.883 34.835 30.591 C.3 0.0 **** 0.171
2278 C 63.624 35.287 29.875 C.2 0.0 **** 0.2427
2279 O 62.507 34.997 30.306 O.2 0.0 **** -0.2727
2280 CB 65.183 33.399 30.207 C.3 0.0 **** 0.0367
2281 CG 66.494 32.952 30.818 C.3 0.0 **** 0.0239
2282 CD 66.859 31.6 30.388 C.3 0.0 **** 0.1157
2283 NE 67.786 30.966 31.326 N.pl3 0.0 **** 0.138
2284 CZ 68.299 29.754 31.156 C.cat 0.0 **** 0.1634
2285 NH1 67.991 29.049 30.073 N.pl3 0.0 **** 0.2799
2286 NH2 69.128 29.26 32.071 N.pl3 0.0 **** 0.2799
2287 N 63.827 35.99 28.769 N.am 0.0 **** -0.1787
2288 CA 62.738 36.283 27.858 C.3 0.0 **** 0.171
2289 C 62.172 34.976 27.333 C.2 0.0 **** 0.2428
2290 O 62.926 34.08 26.948 O.2 0.0 **** -0.2727
2291 CB 63.25 37.141 26.692 C.3 0.0 **** 0.0367
2292 CG 62.211 37.364 25.594 C.3 0.0 **** 0.0239
2293 CD 62.81 38.163 24.467 C.3 0.0 **** 0.1157
2294 NE 63.807 37.414 23.696 N.pl3 0.0 **** 0.138
2295 CZ 65.139 37.572 23.726 C.cat 0.0 **** 0.1634
2296 NH1 65.735 38.46 24.52 N.pl3 0.0 **** 0.2799
2297 NH2 65.898 36.811 22.94 N.pl3 0.0 **** 0.2799
2298 N 60.847 34.855 27.31 N.am 0.0 **** -0.1784
2299 CA 60.229 33.651 26.758 C.3 0.0 **** 0.1738
2300 C 59.492 34.0 25.471 C.2 0.0 **** 0.243
2301 O 59.122 35.137 25.228 O.2 0.0 **** -0.2727
2302 CB 59.271 32.979 27.757 C.3 0.0 **** 0.0176
2303 CG1 58.167 33.966 28.163 C.3 0.0 **** 0.0024
2304 CG2 60.044 32.463 28.982 C.3 0.0 **** 0.0102
2305 CD1 57.034 33.339 28.948 C.3 0.0 **** 0.0041
2306 N 59.246 32.978 24.661 N.am 0.0 **** -0.1786
2307 CA 58.42 33.107 23.464 C.3 0.0 **** 0.1712
2308 C 57.125 32.334 23.695 C.2 0.0 **** 0.2428
2309 O 57.154 31.119 23.924 O.2 0.0 **** -0.2727
2310 CB 59.171 32.586 22.233 C.3 0.0 **** 0.0378
2311 CG 58.321 32.554 20.959 C.3 0.0 **** -0.0149
2312 CD1 57.79 33.947 20.641 C.3 0.0 **** 0.0072
2313 CD2 59.168 32.029 19.809 C.3 0.0 **** 0.0072
2314 N 56.004 33.05 23.658 N.am 0.0 **** -0.1786
2315 CA 54.69 32.462 23.844 C.3 0.0 **** 0.1712
2316 C 54.208 31.881 22.521 C.2 0.0 **** 0.2428
2317 O 54.084 32.612 21.525 O.2 0.0 **** -0.2727
2318 CB 53.718 33.519 24.333 C.3 0.0 **** 0.0378
2319 CG 54.092 34.164 25.67 C.3 0.0 **** -0.0149
2320 CD1 53.211 35.338 25.978 C.3 0.0 **** 0.0072
2321 CD2 53.949 33.116 26.752 C.3 0.0 **** 0.0072
2322 N 53.992 30.573 22.511 N.am 0.0 **** -0.1787
2323 CA 53.485 29.815 21.356 C.3 0.0 **** 0.171
2324 C 52.066 29.398 21.739 C.2 0.0 **** 0.2425
2325 O 51.846 28.3 22.257 O.2 0.0 **** -0.2727
2326 CB 54.389 28.579 21.083 C.3 0.0 **** 0.0367
2327 CG 55.889 28.841 20.984 C.3 0.0 **** 0.0239
2328 CD 56.717 27.54 21.076 C.3 0.0 **** 0.1157
2329 NE 58.108 27.834 21.438 N.pl3 0.0 **** 0.138
2330 CZ 59.07 28.096 20.57 C.cat 0.0 **** 0.1634
2331 NH1 58.831 28.047 19.28 N.pl3 0.0 **** 0.2799
2332 NH2 60.284 28.38 20.991 N.pl3 0.0 **** 0.2799
2333 N 51.111 30.302 21.539 N.am 0.0 **** -0.1817
2334 CA 49.841 30.22 22.226 C.3 0.0 **** 0.2156
2335 C 48.588 29.954 21.425 C.2 0.0 **** 0.2396
2336 O 48.541 30.101 20.19 O.2 0.0 **** -0.273
2337 N 47.547 29.564 22.155 N.am 0.0 **** -0.1787
2338 CA 46.187 29.528 21.617 C.3 0.0 **** 0.1735
2339 C 45.209 30.113 22.622 C.2 0.0 **** 0.243
2340 O 45.433 30.081 23.841 O.2 0.0 **** -0.2727
2341 CB 45.741 28.106 21.245 C.3 0.0 **** 0.0147
2342 CG1 46.651 27.532 20.165 C.3 0.0 **** 0.0099
2343 CG2 45.72 27.215 22.478 C.3 0.0 **** 0.0099
2344 N 44.103 30.624 22.098 N.am 0.0 **** -0.1781
2345 CA 42.953 31.034 22.898 C.3 0.0 **** 0.1802
2346 C 42.027 29.84 23.053 C.2 0.0 **** 0.2433
2347 O 41.483 29.351 22.068 O.2 0.0 **** -0.2727
2348 CB 42.173 32.155 22.225 C.3 0.0 **** 0.1344
2349 CG 42.852 33.49 22.342 C.2 0.0 **** 0.2196
2350 OD1 42.655 34.214 23.323 O.2 0.0 **** -0.2752
2351 ND2 43.66 33.831 21.332 N.am 0.0 **** -0.0514
2352 N 41.793 29.428 24.304 N.am 0.0 **** -0.1786
2353 CA 40.976 28.268 24.64 C.3 0.0 **** 0.171
2354 C 39.644 28.71 25.228 C.2 0.0 **** 0.2428
2355 O 39.587 29.169 26.379 O.2 0.0 **** -0.2727
2356 CB 41.695 27.378 25.645 C.3 0.0 **** 0.0367
2357 CG 40.868 26.145 26.074 C.3 0.0 **** 0.0239
2358 CD 41.516 25.415 27.217 C.3 0.0 **** 0.1157
2359 NE 40.767 24.229 27.609 N.pl3 0.0 **** 0.138
2360 CZ 39.959 24.149 28.663 C.cat 0.0 **** 0.1634
2361 NH1 39.758 25.188 29.467 N.pl3 0.0 **** 0.2799
2362 NH2 39.363 23.006 28.921 N.pl3 0.0 **** 0.2799
2363 N 38.576 28.514 24.47 N.am 0.0 **** -0.1783
2364 CA 37.22 28.501 25.015 C.3 0.0 **** 0.1769
2365 C 36.883 27.131 25.574 C.2 0.0 **** 0.2432
2366 O 37.503 26.131 25.221 O.2 0.0 **** -0.2727
2367 CB 36.201 28.831 23.932 C.3 0.0 **** 0.0902
2368 CG 35.844 30.279 23.849 C.2 0.0 **** 0.037
2369 ND1 34.983 30.88 24.741 N.pl3 0.0 **** -0.1813
2370 CD2 36.198 31.236 22.962 C.2 0.0 **** 0.1339
2371 CE1 34.837 32.154 24.418 C.2 0.0 **** 0.1962
2372 NE2 35.577 32.4 23.354 N.2 0.0 **** -0.2451
2373 N 35.835 27.079 26.408 N.am 0.0 **** -0.1786
2374 CA 35.293 25.819 26.891 C.3 0.0 **** 0.1714
2375 C 34.037 25.504 26.101 C.2 0.0 **** 0.2428
2376 O 33.014 26.19 26.22 O.2 0.0 **** -0.2727
2377 CB 35.035 25.872 28.395 C.3 0.0 **** 0.0434
2378 CG 36.391 25.822 29.114 C.3 0.0 **** 0.0873
2379 CD 36.346 25.801 30.632 C.2 0.0 **** 0.1859
2380 OE1 35.355 26.296 31.213 O.co2 0.0 **** -0.6397
2381 OE2 37.334 25.299 31.214 O.co2 0.0 **** -0.6397
2382 N 34.131 24.471 25.278 N.am 0.0 **** -0.1783
2383 CA 33.027 24.07 24.441 C.3 0.0 **** 0.1769
2384 C 33.097 22.586 24.185 C.2 0.0 **** 0.2432
2385 O 34.179 22.026 24.024 O.2 0.0 **** -0.2727
2386 CB 33.038 24.783 23.106 C.3 0.0 **** 0.0902
2387 CG 31.9 24.381 22.233 C.2 0.0 **** 0.037
2388 ND1 30.615 24.799 22.482 N.pl3 0.0 **** -0.1813
2389 CD2 31.835 23.571 21.148 C.2 0.0 **** 0.1339
2390 CE1 29.809 24.305 21.555 C.2 0.0 **** 0.1962
2391 NE2 30.523 23.551 20.74 N.2 0.0 **** -0.2451
2392 N 31.922 21.98 24.104 N.am 0.0 **** -0.1782
2393 CA 31.77 20.596 23.763 C.3 0.0 **** 0.1771
2394 C 30.581 20.502 22.804 C.2 0.0 **** 0.2458
2395 O 29.52 21.091 23.08 O.2 0.0 **** -0.2724
2396 CB 31.544 19.73 24.99 C.3 0.0 **** 0.0902
2397 CG 31.547 18.275 24.689 C.2 0.0 **** 0.037
2398 ND1 30.45 17.627 24.174 N.pl3 0.0 **** -0.1813
2399 CD2 32.525 17.346 24.796 C.2 0.0 **** 0.1339
2400 CE1 30.738 16.344 24.016 C.2 0.0 **** 0.1962
2401 NE2 31.994 16.152 24.383 N.2 0.0 **** -0.2451
2402 N 30.711 19.776 21.69 N.am 0.0 **** -0.3289
2403 CA 29.662 19.821 20.657 C.3 0.0 **** 0.1741
2404 C 28.355 19.162 21.077 C.2 0.0 **** 0.243
2405 O 27.327 19.366 20.422 O.2 0.0 **** -0.2727
2406 CB 30.301 19.073 19.477 C.3 0.0 **** 0.037
2407 CG 31.249 18.102 20.13 C.3 0.0 **** 0.0242
2408 CD 31.802 18.863 21.321 C.3 0.0 **** 0.1203
2409 N 28.353 18.36 22.135 N.am 0.0 **** -0.1787
2410 CA 27.104 17.823 22.619 C.3 0.0 **** 0.171
2411 C 26.723 18.304 24.005 C.2 0.0 **** 0.2427
2412 O 25.544 18.237 24.345 O.2 0.0 **** -0.2727
2413 CB 27.152 16.285 22.569 C.3 0.0 **** 0.0367
2414 CG 27.123 15.793 21.097 C.3 0.0 **** 0.0239
2415 CD 27.551 14.346 20.907 C.3 0.0 **** 0.1157
2416 NE 28.965 14.145 21.254 N.pl3 0.0 **** 0.138
2417 CZ 30.009 14.502 20.499 C.cat 0.0 **** 0.1634
2418 NH1 29.838 15.091 19.316 N.pl3 0.0 **** 0.2799
2419 NH2 31.238 14.265 20.939 N.pl3 0.0 **** 0.2799
2420 N 27.66 18.81 24.794 N.am 0.0 **** -0.1786
2421 CA 27.376 19.211 26.167 C.3 0.0 **** 0.1712
2422 C 27.52 20.712 26.421 C.2 0.0 **** 0.2425
2423 O 27.309 21.152 27.558 O.2 0.0 **** -0.2727
2424 CB 28.286 18.44 27.135 C.3 0.0 **** 0.0378
2425 CG 28.163 16.909 27.093 C.3 0.0 **** -0.0149
2426 CD1 29.195 16.246 27.987 C.3 0.0 **** 0.0072
2427 CD2 26.758 16.446 27.501 C.3 0.0 **** 0.0072
2428 N 27.892 21.501 25.415 N.am 0.0 **** -0.1817
2429 CA 27.917 22.95 25.553 C.3 0.0 **** 0.2156
2430 C 29.125 23.441 26.332 C.2 0.0 **** 0.2396
2431 O 30.269 23.147 25.966 O.2 0.0 **** -0.273
2432 N 28.887 24.112 27.447 N.am 0.0 **** -0.1789
2433 CA 29.973 24.668 28.286 C.3 0.0 **** 0.171
2434 C 30.539 23.604 29.231 C.2 0.0 **** 0.2428
2435 O 31.514 23.891 29.893 O.2 0.0 **** -0.2727
2436 CB 29.519 25.904 29.054 C.3 0.0 **** 0.0367
2437 CG 30.595 26.966 29.169 C.3 0.0 **** 0.0239
2438 CD 30.608 27.872 27.96 C.3 0.0 **** 0.1157
2439 NE 29.523 28.812 28.053 N.pl3 0.0 **** 0.138
2440 CZ 28.921 29.364 27.029 C.cat 0.0 **** 0.1634
2441 NH1 27.943 30.216 27.234 N.pl3 0.0 **** 0.2799
2442 NH2 29.301 29.077 25.808 N.pl3 0.0 **** 0.2799
2443 N 29.924 22.429 29.299 N.am 0.0 **** -0.1784
2444 CA 30.416 21.331 30.124 C.3 0.0 **** 0.1735
2445 C 31.453 20.577 29.299 C.2 0.0 **** 0.243
2446 O 31.117 19.979 28.261 O.2 0.0 **** -0.2727
2447 CB 29.269 20.407 30.546 C.3 0.0 **** 0.0147
2448 CG1 29.775 19.254 31.383 C.3 0.0 **** 0.0099
2449 CG2 28.206 21.185 31.291 C.3 0.0 **** 0.0099
2450 N 32.716 20.633 29.721 N.am 0.0 **** -0.1784
2451 CA 33.785 19.931 29.02 C.3 0.0 **** 0.1737
2452 C 34.231 18.766 29.907 C.2 0.0 **** 0.2456
2453 O 34.879 18.988 30.936 O.2 0.0 **** -0.2724
2454 CB 34.956 20.862 28.67 C.3 0.0 **** 0.0147
2455 CG1 35.968 20.108 27.831 C.3 0.0 **** 0.0099
2456 CG2 34.459 22.125 27.905 C.3 0.0 **** 0.0099
2457 N 33.944 17.525 29.545 N.am 0.0 **** -0.3289
2458 CA 34.383 16.399 30.382 C.3 0.0 **** 0.1741
2459 C 35.885 16.412 30.635 C.2 0.0 **** 0.243
2460 O 36.68 16.809 29.787 O.2 0.0 **** -0.2727
2461 CB 33.959 15.162 29.576 C.3 0.0 **** 0.037
2462 CG 32.759 15.632 28.745 C.3 0.0 **** 0.0242
2463 CD 33.12 17.091 28.393 C.3 0.0 **** 0.1203
2464 N 36.278 15.93 31.823 N.am 0.0 **** -0.1787
2465 CA 37.683 16.012 32.213 C.3 0.0 **** 0.171
2466 C 38.582 15.272 31.219 C.2 0.0 **** 0.2428
2467 O 39.671 15.757 30.884 O.2 0.0 **** -0.2727
2468 CB 37.88 15.457 33.63 C.3 0.0 **** 0.0367
2469 CG 39.324 15.529 34.097 C.3 0.0 **** 0.0239
2470 CD 39.471 14.934 35.487 C.3 0.0 **** 0.1157
2471 NE 40.875 14.914 35.867 N.pl3 0.0 **** 0.138
2472 CZ 41.519 15.959 36.368 C.cat 0.0 **** 0.1634
2473 NH1 40.88 17.098 36.586 N.pl3 0.0 **** 0.2799
2474 NH2 42.804 15.849 36.672 N.pl3 0.0 **** 0.2799
2475 N 38.142 14.106 30.728 N.am 0.0 **** -0.1782
2476 CA 38.965 13.342 29.788 C.3 0.0 **** 0.1789
2477 C 39.169 14.092 28.477 C.2 0.0 **** 0.2432
2478 O 40.205 13.926 27.825 O.2 0.0 **** -0.2727
2479 CB 38.343 11.968 29.509 C.3 0.0 **** 0.1195
2480 CG 36.998 12.055 28.805 C.2 0.0 **** 0.1884
2481 OD1 36.252 13.022 29.027 O.co2 0.0 **** -0.6396
2482 OD2 36.674 11.135 28.029 O.co2 0.0 **** -0.6396
2483 N 38.195 14.91 28.075 N.am 0.0 **** -0.1784
2484 CA 38.365 15.751 26.893 C.3 0.0 **** 0.1735
2485 C 39.373 16.854 27.169 C.2 0.0 **** 0.243
2486 O 40.207 17.178 26.312 O.2 0.0 **** -0.2727
2487 CB 37.003 16.326 26.465 C.3 0.0 **** 0.0147
2488 CG1 37.156 17.358 25.339 C.3 0.0 **** 0.0099
2489 CG2 36.083 15.189 26.044 C.3 0.0 **** 0.0099
2490 N 39.296 17.469 28.357 N.am 0.0 **** -0.1784
2491 CA 40.283 18.462 28.75 C.3 0.0 **** 0.1735
2492 C 41.681 17.863 28.719 C.2 0.0 **** 0.243
2493 O 42.617 18.451 28.152 O.2 0.0 **** -0.2727
2494 CB 39.964 19.041 30.141 C.3 0.0 **** 0.0147
2495 CG1 41.013 20.112 30.518 C.3 0.0 **** 0.0099
2496 CG2 38.569 19.689 30.135 C.3 0.0 **** 0.0099
2497 N 41.864 16.71 29.37 N.am 0.0 **** -0.1786
2498 CA 43.197 16.126 29.425 C.3 0.0 **** 0.1714
2499 C 43.707 15.829 28.027 C.2 0.0 **** 0.2428
2500 O 44.857 16.149 27.699 O.2 0.0 **** -0.2727
2501 CB 43.196 14.861 30.287 C.3 0.0 **** 0.0434
2502 CG 42.954 15.16 31.74 C.3 0.0 **** 0.0873
2503 CD 43.11 13.928 32.634 C.2 0.0 **** 0.1859
2504 OE1 42.183 13.094 32.683 O.co2 0.0 **** -0.6397
2505 OE2 44.174 13.796 33.261 O.co2 0.0 **** -0.6397
2506 N 42.852 15.237 27.187 N.am 0.0 **** -0.179
2507 CA 43.242 14.889 25.828 C.3 0.0 **** 0.1678
2508 C 43.586 16.128 25.004 C.2 0.0 **** 0.2425
2509 O 44.556 16.116 24.238 O.2 0.0 **** -0.2727
2510 CB 42.127 14.094 25.142 C.3 0.0 **** 0.0414
2511 N 42.797 17.204 25.114 N.am 0.0 **** -0.1787
2512 CA 43.074 18.364 24.26 C.3 0.0 **** 0.1714
2513 C 44.335 19.089 24.703 C.2 0.0 **** 0.2428
2514 O 45.047 19.66 23.87 O.2 0.0 **** -0.2727
2515 CB 41.89 19.35 24.211 C.3 0.0 **** 0.0434
2516 CG 41.659 20.22 25.459 C.3 0.0 **** 0.0873
2517 CD 40.496 21.196 25.304 C.2 0.0 **** 0.1859
2518 OE1 39.95 21.35 24.185 O.co2 0.0 **** -0.6397
2519 OE2 40.138 21.837 26.309 O.co2 0.0 **** -0.6397
2520 N 44.637 19.102 26.001 N.am 0.0 **** -0.1786
2521 CA 45.891 19.709 26.425 C.3 0.0 **** 0.1712
2522 C 47.087 18.902 25.931 C.2 0.0 **** 0.2428
2523 O 48.099 19.476 25.525 O.2 0.0 **** -0.2727
2524 CB 45.907 19.846 27.947 C.3 0.0 **** 0.0378
2525 CG 44.85 20.783 28.503 C.3 0.0 **** -0.0149
2526 CD1 44.89 20.808 30.061 C.3 0.0 **** 0.0072
2527 CD2 45.027 22.137 27.975 C.3 0.0 **** 0.0072
2528 N 46.999 17.576 25.976 N.am 0.0 **** -0.1787
2529 CA 48.052 16.754 25.385 C.3 0.0 **** 0.171
2530 C 48.179 17.011 23.881 C.2 0.0 **** 0.2427
2531 O 49.281 17.085 23.341 O.2 0.0 **** -0.2727
2532 CB 47.768 15.281 25.653 C.3 0.0 **** 0.0367
2533 CG 47.887 14.93 27.133 C.3 0.0 **** 0.0239
2534 CD 47.987 13.383 27.373 C.3 0.0 **** 0.1157
2535 NE 46.763 12.685 26.93 N.pl3 0.0 **** 0.138
2536 CZ 45.68 12.49 27.691 C.cat 0.0 **** 0.1634
2537 NH1 45.662 12.921 28.949 N.pl3 0.0 **** 0.2799
2538 NH2 44.611 11.861 27.202 N.pl3 0.0 **** 0.2799
2539 N 47.055 17.144 23.196 N.am 0.0 **** -0.1786
2540 CA 47.078 17.48 21.776 C.3 0.0 **** 0.1712
2541 C 47.788 18.81 21.525 C.2 0.0 **** 0.2428
2542 O 48.55 18.948 20.559 O.2 0.0 **** -0.2727
2543 CB 45.642 17.51 21.257 C.3 0.0 **** 0.0378
2544 CG 45.499 17.576 19.737 C.3 0.0 **** -0.0149
2545 CD1 46.058 16.312 19.103 C.3 0.0 **** 0.0072
2546 CD2 44.047 17.793 19.312 C.3 0.0 **** 0.0072
2547 N 47.535 19.806 22.37 N.am 0.0 **** -0.1786
2548 CA 48.234 21.079 22.246 C.3 0.0 **** 0.1718
2549 C 49.738 20.897 22.389 C.2 0.0 **** 0.2428
2550 O 50.513 21.375 21.557 O.2 0.0 **** -0.2727
2551 CB 47.737 22.067 23.301 C.3 0.0 **** 0.0457
2552 CG 46.309 22.494 23.157 C.3 0.0 **** 0.0716
2553 SD 45.937 23.7 24.466 S.3 0.0 **** -0.1653
2554 CE 44.177 24.004 24.212 C.3 0.0 **** 0.0847
2555 N 50.176 20.257 23.477 N.am 0.0 **** -0.1787
2556 CA 51.603 19.952 23.634 C.3 0.0 **** 0.1709
2557 C 52.171 19.226 22.428 C.2 0.0 **** 0.2427
2558 O 53.314 19.476 22.019 O.2 0.0 **** -0.2727
2559 CB 51.839 19.093 24.872 C.3 0.0 **** 0.035
2560 CG 51.451 19.819 26.194 C.3 0.0 **** 0.0062
2561 CD 52.37 21.013 26.543 C.3 0.0 **** 0.0387
2562 CE 53.723 20.554 27.071 C.3 0.0 **** 0.1659
2563 NZ 54.596 21.697 27.555 N.4 0.0 **** 0.7918
2564 N 51.412 18.279 21.884 N.am 0.0 **** -0.1786
2565 CA 51.831 17.533 20.711 C.3 0.0 **** 0.1714
2566 C 51.917 18.395 19.463 C.2 0.0 **** 0.2428
2567 O 52.511 17.952 18.475 O.2 0.0 **** -0.2727
2568 CB 50.869 16.38 20.46 C.3 0.0 **** 0.0447
2569 CG 50.995 15.256 21.459 C.3 0.0 **** 0.1022
2570 CD 49.835 14.295 21.373 C.2 0.0 **** 0.217
2571 OE1 49.07 14.305 20.417 O.2 0.0 **** -0.2753
2572 NE2 49.69 13.459 22.399 N.am 0.0 **** -0.0515
2573 N 51.354 19.602 19.489 N.am 0.0 **** -0.1783
2574 CA 51.488 20.528 18.386 C.3 0.0 **** 0.1769
2575 C 52.327 21.739 18.779 C.2 0.0 **** 0.2432
2576 O 52.247 22.803 18.146 O.2 0.0 **** -0.2727
2577 CB 50.107 20.892 17.838 C.3 0.0 **** 0.0902
2578 CG 49.49 19.753 17.072 C.2 0.0 **** 0.037
2579 ND1 48.906 18.672 17.694 N.pl3 0.0 **** -0.1813
2580 CD2 49.446 19.479 15.742 C.2 0.0 **** 0.1339
2581 CE1 48.519 17.789 16.783 C.2 0.0 **** 0.1962
2582 NE2 48.837 18.254 15.592 N.2 0.0 **** -0.2451
2583 N 53.203 21.545 19.772 N.am 0.0 **** -0.1781
2584 CA 54.265 22.475 20.18 C.3 0.0 **** 0.1802
2585 C 53.751 23.721 20.879 C.2 0.0 **** 0.2433
2586 O 54.545 24.64 21.163 O.2 0.0 **** -0.2727
2587 CB 55.147 22.869 18.986 C.3 0.0 **** 0.1344
2588 CG 55.99 21.695 18.473 C.2 0.0 **** 0.2196
2589 OD1 56.432 20.831 19.238 O.2 0.0 **** -0.2752
2590 ND2 56.23 21.673 17.166 N.am 0.0 **** -0.0514
2591 N 52.461 23.77 21.229 N.am 0.0 **** -0.1784
2592 CA 51.901 24.897 21.972 C.3 0.0 **** 0.1738
2593 C 52.473 24.915 23.384 C.2 0.0 **** 0.243
2594 O 52.66 23.866 24.002 O.2 0.0 **** -0.2727
2595 CB 50.365 24.773 21.965 C.3 0.0 **** 0.0176
2596 CG1 49.838 25.039 20.54 C.3 0.0 **** 0.0024
2597 CG2 49.72 25.715 22.992 C.3 0.0 **** 0.0102
2598 CD1 48.479 24.399 20.252 C.3 0.0 **** 0.0041
2599 N 52.807 26.11 23.885 N.am 0.0 **** -0.1781
2600 CA 53.319 26.248 25.242 C.3 0.0 **** 0.1802
2601 C 52.544 27.275 26.048 C.2 0.0 **** 0.2433
2602 O 52.933 27.562 27.193 O.2 0.0 **** -0.2727
2603 CB 54.811 26.612 25.267 C.3 0.0 **** 0.1344
2604 CG 55.081 28.056 24.835 C.2 0.0 **** 0.2196
2605 OD1 54.175 28.85 24.612 O.2 0.0 **** -0.2752
2606 ND2 56.347 28.381 24.702 N.am 0.0 **** -0.0514
2607 N 51.457 27.815 25.507 N.am 0.0 **** -0.1789
2608 CA 50.762 28.9 26.19 C.3 0.0 **** 0.1678
2609 C 49.28 28.897 25.831 C.2 0.0 **** 0.2425
2610 O 48.885 28.525 24.714 O.2 0.0 **** -0.2727
2611 CB 51.392 30.241 25.847 C.3 0.0 **** 0.0414
2612 N 48.458 29.258 26.826 N.am 0.0 **** -0.1784
2613 CA 47.001 29.299 26.702 C.3 0.0 **** 0.1738
2614 C 46.463 30.588 27.306 C.2 0.0 **** 0.243
2615 O 46.768 30.91 28.465 O.2 0.0 **** -0.2727
2616 CB 46.34 28.103 27.407 C.3 0.0 **** 0.0176
2617 CG1 46.855 26.806 26.801 C.3 0.0 **** 0.0024
2618 CG2 44.822 28.221 27.351 C.3 0.0 **** 0.0102
2619 CD1 46.416 25.567 27.572 C.3 0.0 **** 0.0041
2620 N 45.582 31.263 26.566 N.am 0.0 **** -0.1786
2621 CA 44.752 32.334 27.099 C.3 0.0 **** 0.171
2622 C 43.34 31.796 27.313 C.2 0.0 **** 0.2428
2623 O 42.756 31.181 26.404 O.2 0.0 **** -0.2727
2624 CB 44.74 33.533 26.165 C.3 0.0 **** 0.0367
2625 CG 43.712 34.624 26.511 C.3 0.0 **** 0.0239
2626 CD 44.004 35.85 25.751 C.3 0.0 **** 0.1157
2627 NE 43.091 36.969 26.008 N.pl3 0.0 **** 0.138
2628 CZ 42.324 37.539 25.082 C.cat 0.0 **** 0.1634
2629 NH1 42.326 37.078 23.83 N.pl3 0.0 **** 0.2799
2630 NH2 41.575 38.586 25.4 N.pl3 0.0 **** 0.2799
2631 N 42.817 31.966 28.526 N.am 0.0 **** -0.1763
2632 CA 41.481 31.451 28.859 C.3 0.0 **** 0.1996
2633 C 40.435 32.462 28.374 C.2 0.0 **** 0.2455
2634 O 39.816 33.223 29.118 O.2 0.0 **** -0.2726
2635 CB 41.37 31.121 30.353 C.3 0.0 **** 0.1429
2636 OG1 41.358 32.308 31.147 O.3 0.0 **** -0.1801
2637 CG2 42.545 30.249 30.818 C.3 0.0 **** 0.0409
2638 N 40.264 32.473 27.046 N.am 0.0 **** -0.1764
2639 CA 39.318 33.372 26.425 C.3 0.0 **** 0.1967
2640 C 37.897 32.941 26.769 C.2 0.0 **** 0.2452
2641 O 37.547 31.792 26.518 O.2 0.0 **** -0.2726
2642 CB 39.509 33.33 24.911 C.3 0.0 **** 0.1907
2643 OG 39.544 31.975 24.421 O.3 0.0 **** -0.1835
2644 N 37.051 33.83 27.309 N.am 0.0 **** -0.1782
2645 CA 37.351 35.141 27.914 C.3 0.0 **** 0.1769
2646 C 36.677 35.122 29.308 C.2 0.0 **** 0.2432
2647 O 35.741 35.888 29.594 O.2 0.0 **** -0.2727
2648 CB 36.82 36.296 27.107 C.3 0.0 **** 0.0902
2649 CG 37.334 36.361 25.692 C.2 0.0 **** 0.037
2650 ND1 38.649 36.651 25.383 N.pl3 0.0 **** -0.1813
2651 CD2 36.699 36.188 24.508 C.2 0.0 **** 0.1339
2652 CE1 38.799 36.647 24.059 C.2 0.0 **** 0.1962
2653 NE2 37.635 36.352 23.508 N.2 0.0 **** -0.2451
2654 N 37.138 34.195 30.139 N.am 0.0 **** -0.1783
2655 CA 36.587 33.912 31.459 C.3 0.0 **** 0.1755
2656 C 37.419 32.832 32.108 C.2 0.0 **** 0.2457
2657 O 38.118 32.088 31.408 O.2 0.0 **** -0.2724
2658 CB 35.129 33.457 31.357 C.3 0.0 **** 0.0702
2659 CG 34.93 32.459 30.257 C.ar 0.0 **** -0.0452
2660 CD1 35.322 31.13 30.412 C.ar 0.0 **** 0.0063
2661 CD2 34.406 32.859 29.022 C.ar 0.0 **** 0.0063
2662 CE1 35.159 30.218 29.38 C.ar 0.0 **** 0.0332
2663 CE2 34.229 31.964 28.002 C.ar 0.0 **** 0.0332
2664 CZ 34.632 30.655 28.163 C.ar 0.0 **** 0.0713
2665 OH 34.501 29.779 27.128 O.3 0.0 **** -0.1427
2666 N 37.351 32.663 33.435 N.am 0.0 **** -0.3289
2667 CA 38.109 31.62 34.057 C.3 0.0 **** 0.1743
2668 C 37.612 30.273 33.581 C.2 0.0 **** 0.2456
2669 O 36.405 30.081 33.405 O.2 0.0 **** -0.2724
2670 CB 37.845 31.83 35.558 C.3 0.0 **** 0.037
2671 CG 37.617 33.309 35.651 C.3 0.0 **** 0.0242
2672 CD 36.815 33.618 34.43 C.3 0.0 **** 0.1203
2673 N 38.494 29.32 33.395 N.am 0.0 **** -0.3289
2674 CA 38.089 27.974 33.005 C.3 0.0 **** 0.1741
2675 C 37.534 27.217 34.198 C.2 0.0 **** 0.243
2676 O 37.51 27.715 35.326 O.2 0.0 **** -0.2727
2677 CB 39.399 27.355 32.524 C.3 0.0 **** 0.037
2678 CG 40.414 27.979 33.431 C.3 0.0 **** 0.0242
2679 CD 39.935 29.415 33.626 C.3 0.0 **** 0.1203
2680 N 37.11 25.982 33.94 N.am 0.0 **** -0.1782
2681 CA 36.81 25.073 35.038 C.3 0.0 **** 0.1771
2682 C 37.969 25.056 36.028 C.2 0.0 **** 0.2458
2683 O 39.135 25.036 35.609 O.2 0.0 **** -0.2724
2684 CB 36.557 23.667 34.498 C.3 0.0 **** 0.0902
2685 CG 36.024 22.706 35.52 C.2 0.0 **** 0.037
2686 ND1 36.805 22.173 36.523 N.pl3 0.0 **** -0.1813
2687 CD2 34.783 22.187 35.688 C.2 0.0 **** 0.1339
2688 CE1 36.062 21.368 37.266 C.2 0.0 **** 0.1962
2689 NE2 34.833 21.362 36.779 N.2 0.0 **** -0.2451
2690 N 37.699 25.018 37.347 N.am 0.0 **** -0.3289
2691 CA 38.81 25.145 38.301 C.3 0.0 **** 0.1741
2692 C 39.85 24.045 38.18 C.2 0.0 **** 0.243
2693 O 41.01 24.273 38.553 O.2 0.0 **** -0.2727
2694 CB 38.117 25.109 39.678 C.3 0.0 **** 0.037
2695 CG 36.745 24.479 39.433 C.3 0.0 **** 0.0242
2696 CD 36.385 24.954 38.012 C.3 0.0 **** 0.1203
2697 N 39.394 22.893 37.738 N.4 0.0 **** -0.1786
2698 CA 40.365 21.71 37.507 C.3 0.0 **** 0.1714
2699 C 41.443 21.895 36.392 C.2 0.0 **** 0.2428
2700 O 42.514 21.21 36.216 O.2 0.0 **** -0.2727
2701 CB 39.559 20.463 37.113 C.3 0.0 **** 0.0447
2702 CG 39.097 20.384 35.586 C.3 0.0 **** 0.1022
2703 CD 38.164 19.176 35.322 C.2 0.0 **** 0.217
2704 OE1 38.342 18.126 35.921 O.2 0.0 **** -0.2753
2705 NE2 37.173 19.341 34.46 N.am 0.0 **** -0.0515
2706 CA 40.358002 21.780001 37.523998 C.3 0.0 **** 0.0
2707 CB 39.637001 20.434 37.530998 C.3 0.0 **** 0.0
2708 CG 39.036999 20.099001 38.889999 C.3 0.0 **** 0.0
2709 CD 39.977001 19.377001 39.824001 C.2 0.0 **** 0.0
2710 OE1 41.091 19.816999 40.096001 O.2 0.0 **** 0.0
2711 NE2 39.526001 18.243999 40.330002 N.am 0.0 **** 0.0
2712 N 41.149 22.894 35.536 N.am 0.0 **** -0.1783
2713 CA 42.07 23.132 34.433 C.3 0.0 **** 0.1753
2714 C 43.435 23.561 34.939 C.2 0.0 **** 0.2431
2715 O 44.46 23.211 34.35 O.2 0.0 **** -0.2727
2716 CB 41.481 24.209 33.514 C.3 0.0 **** 0.0702
2717 CG 42.432 24.758 32.524 C.ar 0.0 **** -0.0454
2718 CD1 42.518 24.218 31.242 C.ar 0.0 **** 0.0036
2719 CD2 43.206 25.857 32.849 C.ar 0.0 **** 0.0036
2720 CE1 43.368 24.754 30.323 C.ar 0.0 **** 0.0003
2721 CE2 44.055 26.399 31.947 C.ar 0.0 **** 0.0003
2722 CZ 44.154 25.859 30.674 C.ar 0.0 **** 0.0
2723 N 43.467 24.33 36.033 N.am 0.0 **** -0.1786
2724 CA 44.703 24.975 36.46 C.3 0.0 **** 0.1712
2725 C 45.787 23.955 36.81 C.2 0.0 **** 0.2427
2726 O 46.946 24.127 36.431 O.2 0.0 **** -0.2727
2727 CB 44.426 25.892 37.658 C.3 0.0 **** 0.0378
2728 CG 43.825 27.259 37.305 C.3 0.0 **** -0.0149
2729 CD1 44.786 28.028 36.392 C.3 0.0 **** 0.0072
2730 CD2 42.431 27.132 36.686 C.3 0.0 **** 0.0072
2731 N 45.447 22.908 37.576 N.am 0.0 **** -0.179
2732 CA 46.456 21.907 37.951 C.3 0.0 **** 0.1678
2733 C 46.965 21.13 36.729 C.2 0.0 **** 0.2425
2734 O 48.137 20.732 36.684 O.2 0.0 **** -0.2727
2735 CB 45.883 20.949 39.0 C.3 0.0 **** 0.0414
2736 N 46.11 20.909 35.728 N.am 0.0 **** -0.1787
2737 CA 46.572 20.285 34.483 C.3 0.0 **** 0.1712
2738 C 47.58 21.169 33.749 C.2 0.0 **** 0.2427
2739 O 48.554 20.664 33.174 O.2 0.0 **** -0.2727
2740 CB 45.375 19.999 33.59 C.3 0.0 **** 0.0378
2741 CG 44.425 18.958 34.183 C.3 0.0 **** -0.0149
2742 CD1 43.146 18.895 33.363 C.3 0.0 **** 0.0072
2743 CD2 45.12 17.598 34.218 C.3 0.0 **** 0.0072
2744 N 47.337 22.483 33.713 N.am 0.0 **** -0.179
2745 CA 48.282 23.41 33.095 C.3 0.0 **** 0.1678
2746 C 49.606 23.466 33.854 C.2 0.0 **** 0.2425
2747 O 50.686 23.51 33.239 O.2 0.0 **** -0.2727
2748 CB 47.658 24.797 33.008 C.3 0.0 **** 0.0414
2749 N 49.545 23.498 35.197 N.am 0.0 **** -0.1782
2750 CA 50.757 23.368 36.009 C.3 0.0 **** 0.1789
2751 C 51.542 22.115 35.651 C.2 0.0 **** 0.2432
2752 O 52.783 22.129 35.615 O.2 0.0 **** -0.2727
2753 CB 50.405 23.24 37.487 C.3 0.0 **** 0.1195
2754 CG 49.809 24.482 38.098 C.2 0.0 **** 0.1884
2755 OD1 49.805 25.546 37.467 O.co2 0.0 **** -0.6396
2756 OD2 49.379 24.365 39.301 O.co2 0.0 **** -0.6396
2757 N 50.834 20.993 35.504 N.am 0.0 **** -0.1786
2758 CA 51.483 19.696 35.348 C.3 0.0 **** 0.1714
2759 C 52.037 19.488 33.935 C.2 0.0 **** 0.2428
2760 O 53.169 19.021 33.762 O.2 0.0 **** -0.2727
2761 CB 50.486 18.608 35.688 C.3 0.0 **** 0.0447
2762 CG 50.135 18.563 37.195 C.3 0.0 **** 0.1022
2763 CD 48.818 17.853 37.445 C.2 0.0 **** 0.217
2764 OE1 48.229 17.268 36.525 O.2 0.0 **** -0.2753
2765 NE2 48.344 17.906 38.677 N.am 0.0 **** -0.0515
2766 N 51.239 19.765 32.926 N.am 0.0 **** -0.1786
2767 CA 51.684 19.533 31.542 C.3 0.0 **** 0.1712
2768 C 52.586 20.655 31.037 C.2 0.0 **** 0.2425
2769 O 53.444 20.421 30.177 O.2 0.0 **** -0.2727
2770 CB 50.467 19.37 30.617 C.3 0.0 **** 0.0378
2771 CG 49.622 18.12 30.906 C.3 0.0 **** -0.0149
2772 CD1 48.347 18.134 30.047 C.3 0.0 **** 0.0072
2773 CD2 50.398 16.891 30.66 C.3 0.0 **** 0.0072
2774 N 52.418 21.855 31.57 N.am 0.0 **** -0.1817
2775 CA 53.278 22.978 31.264 C.3 0.0 **** 0.2156
2776 C 52.756 23.883 30.179 C.2 0.0 **** 0.2396
2777 O 53.03 23.643 28.996 O.2 0.0 **** -0.273
2778 N 52.012 24.914 30.576 N.am 0.0 **** -0.1786
2779 CA 51.578 26.007 29.712 C.3 0.0 **** 0.1753
2780 C 51.728 27.305 30.477 C.2 0.0 **** 0.2431
2781 O 51.462 27.356 31.68 O.2 0.0 **** -0.2727
2782 CB 50.124 25.894 29.279 C.3 0.0 **** 0.0702
2783 CG 49.794 24.639 28.525 C.ar 0.0 **** -0.0454
2784 CD1 49.902 24.597 27.142 C.ar 0.0 **** 0.0036
2785 CD2 49.35 23.509 29.185 C.ar 0.0 **** 0.0036
2786 CE1 49.591 23.442 26.438 C.ar 0.0 **** 0.0003
2787 CE2 49.025 22.358 28.472 C.ar 0.0 **** 0.0003
2788 CZ 49.151 22.337 27.086 C.ar 0.0 **** 0.0
2789 N 52.179 28.343 29.791 N.am 0.0 **** -0.1783
2790 CA 52.073 29.701 30.289 C.3 0.0 **** 0.1753
2791 C 50.631 30.157 30.097 C.2 0.0 **** 0.2431
2792 O 50.156 30.206 28.967 O.2 0.0 **** -0.2727
2793 CB 53.031 30.625 29.532 C.3 0.0 **** 0.0702
2794 CG 54.486 30.196 29.567 C.ar 0.0 **** -0.0452
2795 CD1 55.212 30.171 30.783 C.ar 0.0 **** 0.0063
2796 CD2 55.138 29.818 28.406 C.ar 0.0 **** 0.0063
2797 CE1 56.528 29.771 30.809 C.ar 0.0 **** 0.0332
2798 CE2 56.45 29.432 28.423 C.ar 0.0 **** 0.0332
2799 CZ 57.154 29.412 29.635 C.ar 0.0 **** 0.0713
2800 OH 58.476 29.021 29.683 O.3 0.0 **** -0.1427
2801 N 49.937 30.493 31.19 N.am 0.0 **** -0.1784
2802 CA 48.504 30.787 31.144 C.3 0.0 **** 0.1735
2803 C 48.258 32.272 31.369 C.2 0.0 **** 0.243
2804 O 48.79 32.872 32.316 O.2 0.0 **** -0.2727
2805 CB 47.727 29.943 32.172 C.3 0.0 **** 0.0147
2806 CG1 46.264 30.322 32.181 C.3 0.0 **** 0.0099
2807 CG2 47.846 28.474 31.84 C.3 0.0 **** 0.0099
2808 N 47.441 32.856 30.499 N.am 0.0 **** -0.1784
2809 CA 46.853 34.173 30.686 C.3 0.0 **** 0.1735
2810 C 45.448 33.896 31.201 C.2 0.0 **** 0.243
2811 O 44.582 33.4 30.462 O.2 0.0 **** -0.2727
2812 CB 46.835 35.003 29.394 C.3 0.0 **** 0.0147
2813 CG1 46.13 36.352 29.639 C.3 0.0 **** 0.0099
2814 CG2 48.267 35.242 28.886 C.3 0.0 **** 0.0099
2815 N 45.253 34.096 32.498 N.am 0.0 **** -0.1786
2816 CA 43.99 33.791 33.207 C.3 0.0 **** 0.1712
2817 C 43.128 35.05 33.147 C.2 0.0 **** 0.2428
2818 O 43.463 36.018 33.773 O.2 0.0 **** -0.2727
2819 CB 44.319 33.363 34.637 C.3 0.0 **** 0.0378
2820 CG 43.262 32.525 35.338 C.3 0.0 **** -0.0149
2821 CD1 41.967 33.28 35.474 C.3 0.0 **** 0.0072
2822 CD2 43.03 31.211 34.624 C.3 0.0 **** 0.0072
2823 N 42.032 34.969 32.421 N.am 0.0 **** -0.1786
2824 CA 41.23 36.128 32.088 C.3 0.0 **** 0.1714
2825 C 39.919 36.182 32.856 C.2 0.0 **** 0.2428
2826 O 39.169 35.212 32.886 O.2 0.0 **** -0.2727
2827 CB 40.967 36.136 30.574 C.3 0.0 **** 0.0434
2828 CG 40.405 37.448 30.074 C.3 0.0 **** 0.0873
2829 CD 40.735 37.635 28.571 C.2 0.0 **** 0.1859
2830 OE1 41.814 38.203 28.247 O.co2 0.0 **** -0.6397
2831 OE2 39.935 37.168 27.76 O.co2 0.0 **** -0.6397
2832 N 39.615 37.361 33.391 N.am 0.0 **** -0.1779
2833 CA 38.389 37.605 34.112 C.3 0.0 **** 0.1806
2834 C 37.213 37.535 33.143 C.2 0.0 **** 0.2436
2835 O 37.343 37.816 31.949 O.2 0.0 **** -0.2726
2836 CB 38.458 38.978 34.788 C.3 0.0 **** 0.1006
2837 SG 37.024 39.46 35.721 S.3 0.0 **** -0.0744
2838 N 36.06 37.151 33.683 N.am 0.0 **** -0.1782
2839 CA 34.769 37.063 32.985 C.3 0.0 **** 0.1789
2840 C 34.203 38.467 32.818 C.2 0.0 **** 0.2432
2841 O 33.42 38.959 33.631 O.2 0.0 **** -0.2727
2842 CB 33.832 36.159 33.791 C.3 0.0 **** 0.1195
2843 CG 32.621 35.672 33.008 C.2 0.0 **** 0.1884
2844 OD1 32.322 36.194 31.896 O.co2 0.0 **** -0.6396
2845 OD2 31.969 34.746 33.511 O.co2 0.0 **** -0.6396
2846 N 34.624 39.142 31.754 N.am 0.0 **** -0.1786
2847 CA 34.143 40.499 31.472 C.3 0.0 **** 0.1712
2848 C 34.262 40.801 29.978 C.2 0.0 **** 0.2428
2849 O 35.37 40.743 29.428 O.2 0.0 **** -0.2727
2850 CB 34.941 41.508 32.271 C.3 0.0 **** 0.0378
2851 CG 34.653 42.973 31.893 C.3 0.0 **** -0.0149
2852 CD1 33.156 43.295 32.039 C.3 0.0 **** 0.0072
2853 CD2 35.497 43.92 32.746 C.3 0.0 **** 0.0072
2854 N 33.157 41.189 29.336 N.am 0.0 **** -0.1786
2855 CA 33.214 41.602 27.922 C.3 0.0 **** 0.1714
2856 C 31.965 42.405 27.621 C.2 0.0 **** 0.2428
2857 O 30.855 41.902 27.819 O.2 0.0 **** -0.2727
2858 CB 33.34 40.396 26.955 C.3 0.0 **** 0.0434
2859 CG 33.325 40.875 25.472 C.3 0.0 **** 0.0873
2860 CD 34.003 39.961 24.469 C.2 0.0 **** 0.1859
2861 OE1 34.57 38.913 24.838 O.co2 0.0 **** -0.6397
2862 OE2 33.948 40.329 23.281 O.co2 0.0 **** -0.6397
2863 N 32.146 43.651 27.147 N.am 0.0 **** -0.1763
2864 CA 31.046 44.577 26.885 C.3 0.0 **** 0.1996
2865 C 31.004 44.989 25.408 C.2 0.0 **** 0.2454
2866 O 30.499 46.056 25.065 O.2 0.0 **** -0.2726
2867 CB 31.155 45.812 27.767 C.3 0.0 **** 0.1429
2868 OG1 32.393 46.461 27.51 O.3 0.0 **** -0.1801
2869 CG2 31.039 45.424 29.279 C.3 0.0 **** 0.0409
2870 N 31.512 44.1 24.548 N.am 0.0 **** -0.1782
2871 CA 31.823 44.396 23.14 C.3 0.0 **** 0.1768
2872 C 30.649 45.019 22.403 C.2 0.0 **** 0.2429
2873 O 30.835 45.897 21.539 O.2 0.0 **** -0.2727
2874 CB 32.24 43.096 22.441 C.3 0.0 **** 0.0902
2875 CG 32.994 43.299 21.156 C.2 0.0 **** 0.037
2876 ND1 33.447 42.24 20.39 N.pl3 0.0 **** -0.1813
2877 CD2 33.381 44.424 20.509 C.2 0.0 **** 0.1339
2878 CE1 34.082 42.71 19.327 C.2 0.0 **** 0.1962
2879 NE2 34.056 44.032 19.376 N.2 0.0 **** -0.2451
2880 N 29.433 44.557 22.692 N.am 0.0 **** -0.1817
2881 CA 28.276 45.052 21.965 C.3 0.0 **** 0.2156
2882 C 27.917 46.499 22.256 C.2 0.0 **** 0.2396
2883 O 26.965 46.997 21.65 O.2 0.0 **** -0.273
2884 N 28.601 47.17 23.167 N.am 0.0 **** -0.1786
2885 CA 28.449 48.625 23.344 C.3 0.0 **** 0.1753
2886 C 29.255 49.385 22.289 C.2 0.0 **** 0.2431
2887 O 29.015 50.543 22.14 O.2 0.0 **** -0.2727
2888 CB 28.871 49.014 24.75 C.3 0.0 **** 0.0702
2889 CG 27.846 48.607 25.759 C.ar 0.0 **** -0.0454
2890 CD1 27.854 47.359 26.344 C.ar 0.0 **** 0.0036
2891 CD2 26.809 49.452 26.032 C.ar 0.0 **** 0.0036
2892 CE1 26.876 46.998 27.243 C.ar 0.0 **** 0.0003
2893 CE2 25.831 49.094 26.918 C.ar 0.0 **** 0.0003
2894 CZ 25.857 47.864 27.518 C.ar 0.0 **** 0.0
2895 N 30.171 48.745 21.577 N.am 0.0 **** -0.1786
2896 CA 31.011 49.468 20.625 C.3 0.0 **** 0.1714
2897 C 30.184 50.137 19.533 C.2 0.0 **** 0.2428
2898 O 30.511 51.239 19.091 O.2 0.0 **** -0.2727
2899 CB 32.039 48.532 19.992 C.3 0.0 **** 0.0434
2900 CG 33.043 49.271 19.159 C.3 0.0 **** 0.0873
2901 CD 34.209 48.406 18.713 C.2 0.0 **** 0.1859
2902 OE1 33.982 47.199 18.445 O.co2 0.0 **** -0.6397
2903 OE2 35.346 48.945 18.617 O.co2 0.0 **** -0.6397
2904 N 29.091 49.508 19.103 N.am 0.0 **** -0.1765
2905 CA 28.398 50.028 17.93 C.3 0.0 **** 0.1967
2906 C 27.677 51.339 18.222 C.2 0.0 **** 0.2451
2907 O 27.255 52.015 17.28 O.2 0.0 **** -0.2726
2908 CB 27.4 49.001 17.416 C.3 0.0 **** 0.1907
2909 OG 26.383 48.828 18.358 O.3 0.0 **** -0.1835
2910 N 27.529 51.715 19.499 N.am 0.0 **** -0.1789
2911 CA 26.98 53.014 19.874 C.3 0.0 **** 0.1678
2912 C 28.065 53.926 20.423 C.2 0.0 **** 0.2422
2913 O 27.8 54.779 21.283 O.2 0.0 **** -0.2727
2914 CB 25.867 52.842 20.901 C.3 0.0 **** 0.0414
2915 N 29.297 53.723 19.962 N.am 0.0 **** -0.1817
2916 CA 30.397 54.537 20.431 C.3 0.0 **** 0.2156
2917 C 30.686 54.331 21.906 C.2 0.0 **** 0.2396
2918 O 31.159 55.257 22.564 O.2 0.0 **** -0.273
2919 N 30.367 53.145 22.444 N.am 0.0 **** -0.1786
2920 CA 30.544 52.764 23.855 C.3 0.0 **** 0.1754
2921 C 29.696 53.582 24.806 C.2 0.0 **** 0.2431
2922 O 29.941 53.561 26.023 O.2 0.0 **** -0.2727
2923 CB 32.016 52.833 24.292 C.3 0.0 **** 0.0724
2924 CG 32.904 51.982 23.447 C.2 0.0 **** -0.0201
2925 CD1 33.647 52.376 22.361 C.2 0.0 **** 0.0869
2926 CD2 33.134 50.579 23.607 C.2 0.0 **** 0.0027
2927 NE1 34.315 51.289 21.839 N.pl3 0.0 **** -0.195
2928 CE2 34.035 50.187 22.61 C.2 0.0 **** 0.0456
2929 CE3 32.662 49.615 24.51 C.2 0.0 **** 0.0104
2930 CZ2 34.463 48.886 22.476 C.2 0.0 **** 0.0265
2931 CZ3 33.118 48.315 24.381 C.2 0.0 **** 0.0008
2932 CH2 33.997 47.968 23.375 C.2 0.0 **** 0.0022
2933 N 28.67 54.273 24.307 N.am 0.0 **** -0.1789
2934 CA 27.684 54.848 25.213 C.3 0.0 **** 0.1678
2935 C 27.098 53.774 26.117 C.2 0.0 **** 0.2425
2936 O 26.791 52.649 25.688 O.2 0.0 **** -0.2727
2937 CB 26.547 55.535 24.443 C.3 0.0 **** 0.0414
2938 N 26.946 54.076 27.42 N.am 0.0 **** -0.1787
2939 CA 26.378 53.234 28.497 C.3 0.0 **** 0.1714
2940 C 27.288 52.034 28.786 C.2 0.0 **** 0.2428
2941 O 26.815 51.154 29.449 O.2 0.0 **** -0.2727
2942 CB 24.937 52.801 28.234 C.3 0.0 **** 0.0447
2943 CG 24.033 53.918 27.748 C.3 0.0 **** 0.1022
2944 CD 22.621 53.422 27.629 C.2 0.0 **** 0.217
2945 OE1 22.105 53.211 26.552 O.2 0.0 **** -0.2753
2946 NE2 22.008 53.178 28.758 N.am 0.0 **** -0.0515
2947 N 28.535 52.072 28.343 N.am 0.0 **** -0.1781
2948 CA 29.442 50.927 28.573 C.3 0.0 **** 0.1804
2949 C 29.554 50.713 30.08 C.2 0.0 **** 0.2459
2950 O 29.972 51.59 30.751 O.2 0.0 **** -0.2724
2951 CB 30.84 51.235 28.039 C.3 0.0 **** 0.1344
2952 CG 31.801 50.071 28.14 C.2 0.0 **** 0.2196
2953 OD1 31.39 48.967 28.383 O.2 0.0 **** -0.2752
2954 ND2 33.071 50.324 27.93 N.am 0.0 **** -0.0514
2955 N 29.322 49.498 30.59 N.am 0.0 **** -0.3289
2956 CA 29.462 49.211 32.014 C.3 0.0 **** 0.1741
2957 C 30.868 49.455 32.572 C.2 0.0 **** 0.243
2958 O 30.976 49.81 33.688 O.2 0.0 **** -0.2727
2959 CB 29.066 47.745 32.11 C.3 0.0 **** 0.037
2960 CG 28.116 47.577 30.978 C.3 0.0 **** 0.0242
2961 CD 28.703 48.413 29.87 C.3 0.0 **** 0.1203
2962 N 31.895 49.278 31.755 N.am 0.0 **** -0.1765
2963 CA 33.286 49.463 32.21 C.3 0.0 **** 0.1967
2964 C 33.515 50.885 32.732 C.2 0.0 **** 0.2452
2965 O 34.42 51.053 33.486 O.2 0.0 **** -0.2726
2966 CB 34.253 49.088 31.128 C.3 0.0 **** 0.1907
2967 OG 33.923 47.837 30.596 O.3 0.0 **** -0.1835
2968 N 32.75 51.87 32.27 N.am 0.0 **** -0.1781
2969 CA 32.936 53.253 32.715 C.3 0.0 **** 0.1789
2970 C 31.741 53.779 33.491 C.2 0.0 **** 0.2432
2971 O 31.644 54.991 33.711 O.2 0.0 **** -0.2727
2972 CB 33.244 54.185 31.523 C.3 0.0 **** 0.1195
2973 CG 33.931 55.464 31.954 C.2 0.0 **** 0.1884
2974 OD1 34.779 55.431 32.876 O.co2 0.0 **** -0.6396
2975 OD2 33.643 56.509 31.388 O.co2 0.0 **** -0.6396
2976 N 30.853 52.909 33.958 N.am 0.0 **** -0.1782
2977 CA 29.641 53.37 34.62 C.3 0.0 **** 0.1791
2978 C 29.807 53.148 36.115 C.2 0.0 **** 0.2458
2979 O 29.972 51.998 36.544 O.2 0.0 **** -0.2724
2980 CB 28.422 52.616 34.098 C.3 0.0 **** 0.1195
2981 CG 27.134 52.99 34.77 C.2 0.0 **** 0.1884
2982 OD1 27.117 53.546 35.896 O.co2 0.0 **** -0.6396
2983 OD2 26.091 52.673 34.154 O.co2 0.0 **** -0.6396
2984 N 29.819 54.193 36.928 N.am 0.0 **** -0.3289
2985 CA 30.01 53.989 38.37 C.3 0.0 **** 0.1741
2986 C 29.085 52.96 38.984 C.2 0.0 **** 0.243
2987 O 29.472 52.32 39.963 O.2 0.0 **** -0.2727
2988 CB 29.728 55.381 38.95 C.3 0.0 **** 0.037
2989 CG 29.964 56.316 37.842 C.3 0.0 **** 0.0242
2990 CD 29.603 55.606 36.596 C.3 0.0 **** 0.1203
2991 N 27.855 52.804 38.481 N.am 0.0 **** -0.1786
2992 CA 26.955 51.838 39.112 C.3 0.0 **** 0.1714
2993 C 27.502 50.407 39.061 C.2 0.0 **** 0.2428
2994 O 27.114 49.58 39.899 O.2 0.0 **** -0.2727
2995 CB 25.582 51.887 38.453 C.3 0.0 **** 0.0447
2996 CG 24.897 53.251 38.561 C.3 0.0 **** 0.1022
2997 CD 23.382 53.167 38.536 C.2 0.0 **** 0.217
2998 OE1 22.786 53.11 37.467 O.2 0.0 **** -0.2753
2999 NE2 22.748 53.168 39.727 N.am 0.0 **** -0.0515
3000 N 28.347 50.098 38.09 N.am 0.0 **** -0.1783
3001 CA 28.922 48.752 37.879 C.3 0.0 **** 0.1754
3002 C 30.252 48.512 38.599 C.2 0.0 **** 0.2431
3003 O 30.767 47.429 38.444 O.2 0.0 **** -0.2727
3004 CB 29.092 48.594 36.378 C.3 0.0 **** 0.0724
3005 CG 27.829 48.295 35.656 C.2 0.0 **** -0.0201
3006 CD1 26.942 49.14 35.073 C.2 0.0 **** 0.0869
3007 CD2 27.303 46.993 35.469 C.2 0.0 **** 0.0027
3008 NE1 25.927 48.446 34.498 N.pl3 0.0 **** -0.195
3009 CE2 26.13 47.121 34.717 C.2 0.0 **** 0.0456
3010 CE3 27.762 45.739 35.836 C.2 0.0 **** 0.0104
3011 CZ2 25.372 46.026 34.365 C.2 0.0 **** 0.0265
3012 CZ3 27.024 44.658 35.472 C.2 0.0 **** 0.0008
3013 CH2 25.859 44.813 34.756 C.2 0.0 **** 0.0022
3014 N 30.766 49.435 39.39 N.am 0.0 **** -0.1786
3015 CA 32.088 49.229 39.978 C.3 0.0 **** 0.1714
3016 C 32.138 47.983 40.863 C.2 0.0 **** 0.2428
3017 O 33.023 47.131 40.705 O.2 0.0 **** -0.2727
3018 CB 32.528 50.46 40.775 C.3 0.0 **** 0.0434
3019 CG 33.996 50.35 41.244 C.3 0.0 **** 0.0873
3020 CD 34.442 51.486 42.134 C.2 0.0 **** 0.1859
3021 OE1 33.992 52.616 41.953 O.co2 0.0 **** -0.6397
3022 OE2 35.235 51.239 43.052 O.co2 0.0 **** -0.6397
3023 N 31.212 47.866 41.822 N.am 0.0 **** -0.1782
3024 CA 31.261 46.73 42.737 C.3 0.0 **** 0.1789
3025 C 31.146 45.403 41.987 C.2 0.0 **** 0.2432
3026 O 31.813 44.43 42.35 O.2 0.0 **** -0.2727
3027 CB 30.144 46.826 43.782 C.3 0.0 **** 0.1195
3028 CG 30.387 47.913 44.794 C.2 0.0 **** 0.1884
3029 OD1 31.521 48.431 44.877 O.co2 0.0 **** -0.6396
3030 OD2 29.428 48.262 45.484 O.co2 0.0 **** -0.6396
3031 N 30.256 45.328 40.988 N.am 0.0 **** -0.1789
3032 CA 30.096 44.097 40.207 C.3 0.0 **** 0.1678
3033 C 31.384 43.699 39.482 C.2 0.0 **** 0.2425
3034 O 31.72 42.505 39.398 O.2 0.0 **** -0.2727
3035 CB 28.985 44.254 39.175 C.3 0.0 **** 0.0414
3036 N 32.071 44.674 38.882 N.am 0.0 **** -0.1787
3037 CA 33.258 44.381 38.088 C.3 0.0 **** 0.1712
3038 C 34.474 44.105 38.98 C.2 0.0 **** 0.2428
3039 O 35.268 43.199 38.693 O.2 0.0 **** -0.2727
3040 CB 33.52 45.532 37.126 C.3 0.0 **** 0.0378
3041 CG 32.977 45.278 35.696 C.3 0.0 **** -0.0149
3042 CD1 31.509 44.935 35.682 C.3 0.0 **** 0.0072
3043 CD2 33.265 46.482 34.792 C.3 0.0 **** 0.0072
3044 N 34.612 44.829 40.097 N.am 0.0 **** -0.1784
3045 CA 35.679 44.477 41.035 C.3 0.0 **** 0.1735
3046 C 35.439 43.083 41.62 C.2 0.0 **** 0.243
3047 O 36.375 42.291 41.8 O.2 0.0 **** -0.2727
3048 CB 35.791 45.553 42.125 C.3 0.0 **** 0.0147
3049 CG1 36.743 45.107 43.265 C.3 0.0 **** 0.0099
3050 CG2 36.234 46.885 41.519 C.3 0.0 **** 0.0099
3051 N 34.178 42.743 41.889 N.am 0.0 **** -0.1782
3052 CA 33.876 41.402 42.383 C.3 0.0 **** 0.1789
3053 C 34.304 40.325 41.389 C.2 0.0 **** 0.2432
3054 O 34.827 39.28 41.781 O.2 0.0 **** -0.2727
3055 CB 32.382 41.281 42.687 C.3 0.0 **** 0.1195
3056 CG 32.042 39.968 43.385 C.2 0.0 **** 0.1884
3057 OD1 32.355 39.84 44.592 O.co2 0.0 **** -0.6396
3058 OD2 31.522 39.042 42.713 O.co2 0.0 **** -0.6396
3059 N 34.074 40.544 40.096 N.am 0.0 **** -0.1786
3060 CA 34.477 39.546 39.115 C.3 0.0 **** 0.171
3061 C 35.982 39.335 39.163 C.2 0.0 **** 0.2427
3062 O 36.473 38.198 39.133 O.2 0.0 **** -0.2727
3063 CB 34.042 39.977 37.702 C.3 0.0 **** 0.0367
3064 CG 32.545 39.866 37.431 C.3 0.0 **** 0.0239
3065 CD 32.014 40.611 36.154 C.3 0.0 **** 0.1157
3066 NE 30.586 40.339 36.061 N.pl3 0.0 **** 0.138
3067 CZ 30.035 39.325 35.391 C.cat 0.0 **** 0.1634
3068 NH1 30.768 38.525 34.612 N.pl3 0.0 **** 0.2799
3069 NH2 28.719 39.108 35.506 N.pl3 0.0 **** 0.2799
3070 N 36.734 40.431 39.224 N.am 0.0 **** -0.1786
3071 CA 38.185 40.318 39.24 C.3 0.0 **** 0.1718
3072 C 38.659 39.661 40.517 C.2 0.0 **** 0.2428
3073 O 39.575 38.832 40.493 O.2 0.0 **** -0.2727
3074 CB 38.82 41.698 39.103 C.3 0.0 **** 0.0457
3075 CG 40.285 41.647 38.742 C.3 0.0 **** 0.0716
3076 SD 40.453 41.029 37.032 S.3 0.0 **** -0.1653
3077 CE 42.093 40.381 37.104 C.3 0.0 **** 0.0847
3078 N 38.052 40.031 41.649 N.am 0.0 **** -0.1787
3079 CA 38.408 39.409 42.924 C.3 0.0 **** 0.171
3080 C 38.181 37.903 42.892 C.2 0.0 **** 0.2427
3081 O 39.067 37.114 43.268 O.2 0.0 **** -0.2727
3082 CB 37.611 40.066 44.059 C.3 0.0 **** 0.0367
3083 CG 37.781 39.405 45.481 C.3 0.0 **** 0.0239
3084 CD 37.207 40.291 46.579 C.3 0.0 **** 0.1157
3085 NE 35.814 40.578 46.314 N.pl3 0.0 **** 0.138
3086 CZ 35.28 41.795 46.252 C.cat 0.0 **** 0.1634
3087 NH1 35.996 42.889 46.506 N.pl3 0.0 **** 0.2799
3088 NH2 33.996 41.922 45.956 N.pl3 0.0 **** 0.2799
3089 N 36.998 37.467 42.443 N.am 0.0 **** -0.1787
3090 CA 36.767 36.03 42.408 C.3 0.0 **** 0.171
3091 C 37.726 35.349 41.44 C.2 0.0 **** 0.2428
3092 O 38.242 34.261 41.721 O.2 0.0 **** -0.2727
3093 CB 35.32 35.75 42.049 C.3 0.0 **** 0.0367
3094 CG 34.355 36.247 43.074 C.3 0.0 **** 0.0239
3095 CD 32.942 35.776 42.796 C.3 0.0 **** 0.1157
3096 NE 31.997 36.375 43.731 N.pl3 0.0 **** 0.138
3097 CZ 31.807 35.94 44.969 C.cat 0.0 **** 0.1634
3098 NH1 32.448 34.864 45.416 N.pl3 0.0 **** 0.2799
3099 NH2 30.943 36.557 45.75 N.pl3 0.0 **** 0.2799
3100 N 38.011 36.0 40.304 N.am 0.0 **** -0.1763
3101 CA 38.949 35.453 39.338 C.3 0.0 **** 0.1996
3102 C 40.306 35.219 39.988 C.2 0.0 **** 0.2454
3103 O 40.87 34.118 39.92 O.2 0.0 **** -0.2726
3104 CB 39.088 36.422 38.136 C.3 0.0 **** 0.1429
3105 OG1 37.879 36.435 37.39 O.3 0.0 **** -0.1801
3106 CG2 40.204 36.009 37.227 C.3 0.0 **** 0.0409
3107 N 40.867 36.27 40.577 N.am 0.0 **** -0.1783
3108 CA 42.21 36.19 41.146 C.3 0.0 **** 0.1735
3109 C 42.23 35.22 42.322 C.2 0.0 **** 0.243
3110 O 43.137 34.386 42.435 O.2 0.0 **** -0.2727
3111 CB 42.695 37.592 41.568 C.3 0.0 **** 0.0147
3112 CG1 43.961 37.53 42.396 C.3 0.0 **** 0.0099
3113 CG2 42.938 38.448 40.33 C.3 0.0 **** 0.0099
3114 N 41.26 35.334 43.239 N.am 0.0 **** -0.1786
3115 CA 41.325 34.496 44.447 C.3 0.0 **** 0.1714
3116 C 41.282 33.014 44.097 C.2 0.0 **** 0.2428
3117 O 41.948 32.202 44.736 O.2 0.0 **** -0.2727
3118 CB 40.209 34.846 45.436 C.3 0.0 **** 0.0434
3119 CG 40.267 36.238 45.981 C.3 0.0 **** 0.0873
3120 CD 41.476 36.531 46.872 C.2 0.0 **** 0.1859
3121 OE1 42.222 35.601 47.267 O.co2 0.0 **** -0.6397
3122 OE2 41.684 37.71 47.177 O.co2 0.0 **** -0.6397
3123 N 40.51 32.625 43.081 N.am 0.0 **** -0.1787
3124 CA 40.355 31.188 42.823 C.3 0.0 **** 0.171
3125 C 41.678 30.539 42.427 C.2 0.0 **** 0.2428
3126 O 41.994 29.433 42.876 O.2 0.0 **** -0.2727
3127 CB 39.313 30.927 41.723 C.3 0.0 **** 0.0367
3128 CG 38.779 29.497 41.809 C.3 0.0 **** 0.0239
3129 CD 37.901 29.122 40.597 C.3 0.0 **** 0.1157
3130 NE 38.731 29.056 39.407 N.pl3 0.0 **** 0.138
3131 CZ 38.303 28.796 38.173 C.cat 0.0 **** 0.1634
3132 NH1 37.016 28.547 37.903 N.pl3 0.0 **** 0.2799
3133 NH2 39.189 28.82 37.197 N.pl3 0.0 **** 0.2799
3134 N 42.455 31.199 41.569 N.am 0.0 **** -0.1782
3135 CA 43.535 30.542 40.844 C.3 0.0 **** 0.1789
3136 C 44.913 31.07 41.224 C.2 0.0 **** 0.2432
3137 O 45.903 30.726 40.57 O.2 0.0 **** -0.2727
3138 CB 43.291 30.708 39.346 C.3 0.0 **** 0.1195
3139 CG 42.028 29.995 38.876 C.2 0.0 **** 0.1884
3140 OD1 41.567 29.068 39.565 O.co2 0.0 **** -0.6396
3141 OD2 41.516 30.336 37.768 O.co2 0.0 **** -0.6396
3142 N 45.008 31.854 42.293 N.am 0.0 **** -0.1786
3143 CA 46.237 32.577 42.6 C.3 0.0 **** 0.1709
3144 C 47.406 31.685 42.995 C.2 0.0 **** 0.2428
3145 O 48.539 32.181 43.042 O.2 0.0 **** -0.2727
3146 CB 45.954 33.584 43.726 C.3 0.0 **** 0.035
3147 CG 45.403 32.919 44.978 C.3 0.0 **** 0.0062
3148 CD 45.17 33.909 46.076 C.3 0.0 **** 0.0387
3149 CE 44.623 33.276 47.339 C.3 0.0 **** 0.1659
3150 NZ 43.142 33.028 47.258 N.4 0.0 **** 0.7918
3151 N 47.18 30.399 43.291 N.am 0.0 **** -0.1781
3152 CA 48.25 29.512 43.74 C.3 0.0 **** 0.1802
3153 C 48.971 28.766 42.628 C.2 0.0 **** 0.2433
3154 O 49.889 27.999 42.935 O.2 0.0 **** -0.2727
3155 CB 47.678 28.503 44.744 C.3 0.0 **** 0.1344
3156 CG 47.201 29.185 45.997 C.2 0.0 **** 0.2196
3157 OD1 47.729 30.24 46.368 O.2 0.0 **** -0.2752
3158 ND2 46.182 28.637 46.622 N.am 0.0 **** -0.0514
3159 N 48.615 28.988 41.358 N.am 0.0 **** -0.1782
3160 CA 49.075 28.145 40.26 C.3 0.0 **** 0.1769
3161 C 50.238 28.782 39.511 C.2 0.0 **** 0.2431
3162 O 50.127 29.898 38.98 O.2 0.0 **** -0.2727
3163 CB 47.908 27.82 39.335 C.3 0.0 **** 0.0902
3164 CG 46.905 26.927 39.995 C.2 0.0 **** 0.037
3165 ND1 47.08 25.563 40.08 N.pl3 0.0 **** -0.1813
3166 CD2 45.759 27.203 40.663 C.2 0.0 **** 0.1339
3167 CE1 46.072 25.03 40.759 C.2 0.0 **** 0.1962
3168 NE2 45.261 26.005 41.138 N.2 0.0 **** -0.2451
3169 N 51.359 28.053 39.485 N.am 0.0 **** -0.1789
3170 CA 52.548 28.513 38.789 C.3 0.0 **** 0.1678
3171 C 52.284 28.799 37.309 C.2 0.0 **** 0.2425
3172 O 52.911 29.704 36.742 O.2 0.0 **** -0.2727
3173 CB 53.673 27.48 38.925 C.3 0.0 **** 0.0414
3174 N 51.368 28.055 36.67 N.am 0.0 **** -0.1765
3175 CA 51.124 28.251 35.236 C.3 0.0 **** 0.1967
3176 C 50.52 29.616 34.937 C.2 0.0 **** 0.2452
3177 O 50.701 30.143 33.827 O.2 0.0 **** -0.2726
3178 CB 50.22 27.146 34.676 C.3 0.0 **** 0.1907
3179 OG 48.971 27.111 35.336 O.3 0.0 **** -0.1835
3180 N 49.816 30.213 35.891 N.am 0.0 **** -0.1783
3181 CA 49.255 31.542 35.639 C.3 0.0 **** 0.1735
3182 C 50.395 32.56 35.684 C.2 0.0 **** 0.243
3183 O 50.963 32.818 36.746 O.2 0.0 **** -0.2727
3184 CB 48.146 31.898 36.633 C.3 0.0 **** 0.0147
3185 CG1 47.566 33.327 36.343 C.3 0.0 **** 0.0099
3186 CG2 47.017 30.915 36.551 C.3 0.0 **** 0.0099
3187 N 50.718 33.162 34.543 N.am 0.0 **** -0.1784
3188 CA 51.788 34.157 34.47 C.3 0.0 **** 0.1735
3189 C 51.279 35.559 34.173 C.2 0.0 **** 0.243
3190 O 52.057 36.527 34.299 O.2 0.0 **** -0.2727
3191 CB 52.873 33.76 33.436 C.3 0.0 **** 0.0147
3192 CG1 53.506 32.403 33.787 C.3 0.0 **** 0.0099
3193 CG2 52.342 33.692 32.023 C.3 0.0 **** 0.0099
3194 N 50.008 35.717 33.838 N.am 0.0 **** -0.1786
3195 CA 49.397 37.039 33.713 C.3 0.0 **** 0.1718
3196 C 47.936 36.957 34.11 C.2 0.0 **** 0.2428
3197 O 47.271 35.966 33.815 O.2 0.0 **** -0.2727
3198 CB 49.455 37.598 32.265 C.3 0.0 **** 0.0457
3199 CG 50.762 38.221 31.857 C.3 0.0 **** 0.0716
3200 SD 50.719 38.783 30.103 S.3 0.0 **** -0.1653
3201 CE 51.341 37.317 29.326 C.3 0.0 **** 0.0847
3202 N 47.445 38.014 34.736 N.am 0.0 **** -0.1783
3203 CA 46.022 38.207 34.962 C.3 0.0 **** 0.1754
3204 C 45.501 39.122 33.866 C.2 0.0 **** 0.2432
3205 O 46.098 40.161 33.61 O.2 0.0 **** -0.2727
3206 CB 45.733 38.868 36.298 C.3 0.0 **** 0.0724
3207 CG 46.085 38.107 37.542 C.2 0.0 **** -0.0201
3208 CD1 46.99 38.491 38.494 C.2 0.0 **** 0.0869
3209 CD2 45.561 36.856 37.966 C.2 0.0 **** 0.0027
3210 NE1 47.055 37.55 39.494 N.pl3 0.0 **** -0.195
3211 CE2 46.176 36.538 39.195 C.2 0.0 **** 0.0456
3212 CE3 44.629 35.968 37.437 C.2 0.0 **** 0.0104
3213 CZ2 45.887 35.371 39.893 C.2 0.0 **** 0.0265
3214 CZ3 44.332 34.799 38.15 C.2 0.0 **** 0.0008
3215 CH2 44.969 34.517 39.361 C.2 0.0 **** 0.0022
3216 N 44.391 38.755 33.246 N.am 0.0 **** -0.1765
3217 CA 43.747 39.617 32.269 C.3 0.0 **** 0.1967
3218 C 42.426 40.151 32.814 C.2 0.0 **** 0.2451
3219 O 41.633 39.397 33.392 O.2 0.0 **** -0.2726
3220 CB 43.55 38.885 30.951 C.3 0.0 **** 0.1907
3221 OG 42.941 39.757 29.987 O.3 0.0 **** -0.1835
3222 N 42.196 41.455 32.613 N.am 0.0 **** -0.1786
3223 CA 41.018 42.132 33.169 C.3 0.0 **** 0.1712
3224 C 39.717 41.743 32.48 C.2 0.0 **** 0.2425
3225 O 38.639 41.969 33.043 O.2 0.0 **** -0.2727
3226 CB 41.182 43.645 33.062 C.3 0.0 **** 0.0378
3227 CG 42.414 44.304 33.705 C.3 0.0 **** -0.0149
3228 CD1 42.353 45.826 33.507 C.3 0.0 **** 0.0072
3229 CD2 42.482 43.994 35.196 C.3 0.0 **** 0.0072
3230 N 39.791 41.215 31.257 N.am 0.0 **** -0.1817
3231 CA 38.627 40.923 30.46 C.3 0.0 **** 0.2156
3232 C 38.988 41.07 28.987 C.2 0.0 **** 0.2396
3233 O 40.154 40.987 28.614 O.2 0.0 **** -0.273
3234 N 37.977 41.312 28.158 N.am 0.0 **** -0.1784
3235 CA 38.169 41.331 26.718 C.3 0.0 **** 0.1802
3236 C 37.169 42.274 26.051 C.2 0.0 **** 0.2433
3237 O 35.979 42.219 26.368 O.2 0.0 **** -0.2727
3238 CB 38.031 39.903 26.142 C.3 0.0 **** 0.1344
3239 CG 38.326 39.867 24.636 C.2 0.0 **** 0.2196
3240 OD1 39.45 40.161 24.213 O.2 0.0 **** -0.2752
3241 ND2 37.324 39.5 23.833 N.am 0.0 **** -0.0514
3242 N 37.648 43.124 25.138 N.am 0.0 **** -0.1786
3243 CA 36.808 44.002 24.327 C.3 0.0 **** 0.1714
3244 C 35.707 44.653 25.156 C.2 0.0 **** 0.2428
3245 O 34.516 44.546 24.883 O.2 0.0 **** -0.2727
3246 CB 36.252 43.232 23.128 C.3 0.0 **** 0.0447
3247 CG 37.38 42.588 22.287 C.3 0.0 **** 0.1022
3248 CD 36.898 41.871 21.006 C.2 0.0 **** 0.217
3249 OE1 37.179 42.326 19.925 O.2 0.0 **** -0.2753
3250 NE2 36.194 40.715 21.152 N.am 0.0 **** -0.0515
3251 N 36.149 45.342 26.216 N.am 0.0 **** -0.179
3252 CA 35.238 45.995 27.148 C.3 0.0 **** 0.1678
3253 C 35.472 47.498 27.158 C.2 0.0 **** 0.2422
3254 O 35.012 48.201 28.064 O.2 0.0 **** -0.2727
3255 CB 35.396 45.383 28.543 C.3 0.0 **** 0.0414
3256 N 36.18 48.011 26.153 N.am 0.0 **** -0.1817
3257 CA 36.4 49.452 26.082 C.3 0.0 **** 0.2156
3258 C 37.384 49.937 27.129 C.2 0.0 **** 0.2396
3259 O 38.197 49.187 27.658 O.2 0.0 **** -0.273
3260 N 37.314 51.232 27.409 N.am 0.0 **** -0.1766
3261 CA 38.094 51.838 28.477 C.3 0.0 **** 0.1995
3262 C 37.164 52.358 29.564 C.2 0.0 **** 0.2452
3263 O 36.027 52.744 29.298 O.2 0.0 **** -0.2726
3264 CB 38.913 53.005 27.987 C.3 0.0 **** 0.1429
3265 OG1 38.006 54.045 27.644 O.3 0.0 **** -0.1801
3266 CG2 39.676 52.649 26.775 C.3 0.0 **** 0.0409
3267 N 37.632 52.39 30.791 N.am 0.0 **** -0.1816
3268 CA 36.762 52.986 31.776 C.3 0.0 **** 0.2156
3269 C 37.274 52.827 33.192 C.2 0.0 **** 0.2396
3270 O 38.179 52.052 33.482 O.2 0.0 **** -0.273
3271 N 36.637 53.59 34.079 N.am 0.0 **** -0.1789
3272 CA 37.138 53.707 35.451 C.3 0.0 **** 0.171
3273 C 37.047 52.395 36.211 C.2 0.0 **** 0.2428
3274 O 37.835 52.161 37.137 O.2 0.0 **** -0.2727
3275 CB 36.353 54.797 36.18 C.3 0.0 **** 0.0367
3276 CG 34.86 54.496 36.32 C.3 0.0 **** 0.0239
3277 CD 34.062 55.792 36.633 C.3 0.0 **** 0.1157
3278 NE 33.845 56.574 35.405 N.pl3 0.0 **** 0.138
3279 CZ 33.184 57.726 35.332 C.cat 0.0 **** 0.1634
3280 NH1 32.667 58.288 36.426 N.pl3 0.0 **** 0.2799
3281 NH2 33.045 58.318 34.158 N.pl3 0.0 **** 0.2799
3282 N 36.086 51.532 35.855 N.am 0.0 **** -0.1781
3283 CA 35.946 50.26 36.547 C.3 0.0 **** 0.1802
3284 C 37.061 49.293 36.181 C.2 0.0 **** 0.2433
3285 O 37.463 48.484 37.028 O.2 0.0 **** -0.2727
3286 CB 34.578 49.651 36.259 C.3 0.0 **** 0.1344
3287 CG 33.457 50.508 36.79 C.2 0.0 **** 0.2196
3288 OD1 33.633 51.242 37.77 O.2 0.0 **** -0.2752
3289 ND2 32.285 50.418 36.161 N.am 0.0 **** -0.0514
3290 N 37.559 49.347 34.933 N.am 0.0 **** -0.1786
3291 CA 38.734 48.564 34.579 C.3 0.0 **** 0.1712
3292 C 39.957 49.043 35.359 C.2 0.0 **** 0.2427
3293 O 40.781 48.234 35.802 O.2 0.0 **** -0.2727
3294 CB 39.005 48.646 33.057 C.3 0.0 **** 0.0378
3295 CG 37.96 47.911 32.232 C.3 0.0 **** -0.0149
3296 CD1 37.877 48.477 30.82 C.3 0.0 **** 0.0072
3297 CD2 38.284 46.416 32.193 C.3 0.0 **** 0.0072
3298 N 40.107 50.352 35.509 N.am 0.0 **** -0.179
3299 CA 41.175 50.88 36.354 C.3 0.0 **** 0.1678
3300 C 41.045 50.369 37.781 C.2 0.0 **** 0.2425
3301 O 42.043 49.996 38.4 O.2 0.0 **** -0.2727
3302 CB 41.158 52.416 36.331 C.3 0.0 **** 0.0414
3303 N 39.814 50.323 38.308 N.am 0.0 **** -0.179
3304 CA 39.587 49.806 39.655 C.3 0.0 **** 0.1678
3305 C 39.974 48.331 39.755 C.2 0.0 **** 0.2425
3306 O 40.601 47.91 40.744 O.2 0.0 **** -0.2727
3307 CB 38.121 50.016 40.061 C.3 0.0 **** 0.0414
3308 N 39.633 47.545 38.73 N.am 0.0 **** -0.1786
3309 CA 39.981 46.127 38.721 C.3 0.0 **** 0.1718
3310 C 41.491 45.937 38.691 C.2 0.0 **** 0.2428
3311 O 42.03 45.045 39.365 O.2 0.0 **** -0.2727
3312 CB 39.358 45.419 37.512 C.3 0.0 **** 0.0457
3313 CG 37.833 45.384 37.477 C.3 0.0 **** 0.0716
3314 SD 37.16 45.012 35.852 S.3 0.0 **** -0.1653
3315 CE 37.432 43.251 35.757 C.3 0.0 **** 0.0847
3316 N 42.178 46.748 37.879 N.am 0.0 **** -0.1765
3317 CA 43.634 46.694 37.818 C.3 0.0 **** 0.1967
3318 C 44.244 47.043 39.178 C.2 0.0 **** 0.2451
3319 O 45.135 46.342 39.67 O.2 0.0 **** -0.2726
3320 CB 44.136 47.647 36.749 C.3 0.0 **** 0.1907
3321 OG 45.543 47.648 36.735 O.3 0.0 **** -0.1835
3322 N 43.789 48.131 39.781 N.am 0.0 **** -0.1786
3323 CA 44.353 48.54 41.074 C.3 0.0 **** 0.171
3324 C 44.163 47.469 42.134 C.2 0.0 **** 0.2428
3325 O 45.066 47.231 42.954 O.2 0.0 **** -0.2727
3326 CB 43.727 49.849 41.542 C.3 0.0 **** 0.0367
3327 CG 44.171 51.062 40.763 C.3 0.0 **** 0.0239
3328 CD 43.79 52.369 41.485 C.3 0.0 **** 0.1157
3329 NE 42.342 52.483 41.714 N.pl3 0.0 **** 0.138
3330 CZ 41.47 53.023 40.852 C.cat 0.0 **** 0.1634
3331 NH1 41.876 53.533 39.7 N.pl3 0.0 **** 0.2799
3332 NH2 40.179 53.068 41.165 N.pl3 0.0 **** 0.2799
3333 N 42.979 46.846 42.162 N.am 0.0 **** -0.1783
3334 CA 42.708 45.807 43.145 C.3 0.0 **** 0.1754
3335 C 43.681 44.648 42.962 C.2 0.0 **** 0.2432
3336 O 44.236 44.1 43.93 O.2 0.0 **** -0.2727
3337 CB 41.246 45.331 42.996 C.3 0.0 **** 0.0724
3338 CG 40.885 44.357 44.032 C.2 0.0 **** -0.0201
3339 CD1 40.292 44.625 45.237 C.2 0.0 **** 0.0869
3340 CD2 41.164 42.952 44.026 C.2 0.0 **** 0.0027
3341 NE1 40.175 43.467 45.974 N.pl3 0.0 **** -0.195
3342 CE2 40.703 42.429 45.255 C.2 0.0 **** 0.0456
3343 CE3 41.744 42.083 43.102 C.2 0.0 **** 0.0104
3344 CZ2 40.822 41.067 45.594 C.2 0.0 **** 0.0265
3345 CZ3 41.855 40.727 43.433 C.2 0.0 **** 0.0008
3346 CH2 41.393 40.239 44.675 C.2 0.0 **** 0.0022
3347 N 43.905 44.276 41.703 N.am 0.0 **** -0.1763
3348 CA 44.734 43.13 41.368 C.3 0.0 **** 0.1996
3349 C 46.198 43.402 41.679 C.2 0.0 **** 0.2454
3350 O 46.869 42.541 42.255 O.2 0.0 **** -0.2726
3351 CB 44.564 42.759 39.883 C.3 0.0 **** 0.1429
3352 OG1 43.186 42.471 39.59 O.3 0.0 **** -0.1801
3353 CG2 45.421 41.532 39.539 C.3 0.0 **** 0.0409
3354 N 46.716 44.593 41.319 N.4 0.0 **** -0.1786
3355 CA 48.117 44.906 41.612 C.3 0.0 **** 0.1709
3356 C 48.375 44.921 43.114 C.2 0.0 **** 0.2428
3357 O 49.463 44.54 43.562 O.2 0.0 **** -0.2727
3358 CB 48.52 46.258 41.021 C.3 0.0 **** 0.035
3359 CG 48.479 46.339 39.498 C.3 0.0 **** 0.0062
3360 CD 49.441 45.379 38.788 C.3 0.0 **** 0.0387
3361 CE 50.893 45.684 39.023 C.3 0.0 **** 0.1659
3362 NZ 51.696 44.762 38.207 N.4 0.0 **** 0.7918
3363 CA 48.115002 44.909 41.612 C.3 0.0 **** 0.0
3364 CB 48.501999 46.261002 41.012001 C.3 0.0 **** 0.0
3365 CG 48.441002 46.294998 39.491001 C.3 0.0 **** 0.0
3366 CD 49.233002 47.471001 38.891998 C.3 0.0 **** 0.0
3367 CE 49.049 47.575001 37.403 C.3 0.0 **** 0.0
3368 NZ 50.169998 48.333 36.772999 N.4 0.0 **** 0.0
3369 N 47.398 45.403 43.9 N.am 0.0 **** -0.1782
3370 CA 47.533 45.411 45.354 C.3 0.0 **** 0.1789
3371 C 47.504 43.995 45.911 C.2 0.0 **** 0.2432
3372 O 48.306 43.641 46.769 O.2 0.0 **** -0.2727
3373 CB 46.414 46.238 45.967 C.3 0.0 **** 0.1195
3374 CG 46.363 46.112 47.469 C.2 0.0 **** 0.1884
3375 OD1 47.196 46.775 48.118 O.co2 0.0 **** -0.6396
3376 OD2 45.519 45.324 47.972 O.co2 0.0 **** -0.6396
3377 N 46.612 43.162 45.404 N.am 0.0 **** -0.1786
3378 CA 46.418 41.847 45.981 C.3 0.0 **** 0.171
3379 C 47.537 40.892 45.598 C.2 0.0 **** 0.2428
3380 O 47.961 40.071 46.422 O.2 0.0 **** -0.2727
3381 CB 45.081 41.272 45.516 C.3 0.0 **** 0.0367
3382 CG 44.813 39.849 46.016 C.3 0.0 **** 0.0239
3383 CD 44.686 39.804 47.515 C.3 0.0 **** 0.1157
3384 NE 44.226 38.491 47.989 N.pl3 0.0 **** 0.138
3385 CZ 44.768 37.794 48.98 C.cat 0.0 **** 0.1634
3386 NH1 45.814 38.265 49.664 N.pl3 0.0 **** 0.2799
3387 NH2 44.243 36.602 49.296 N.pl3 0.0 **** 0.2799
3388 N 47.962 40.924 44.332 N.am 0.0 **** -0.1782
3389 CA 48.929 39.964 43.789 C.3 0.0 **** 0.1791
3390 C 49.892 40.68 42.857 C.2 0.0 **** 0.2458
3391 O 49.771 40.609 41.625 O.2 0.0 **** -0.2724
3392 CB 48.243 38.853 43.011 C.3 0.0 **** 0.1195
3393 CG 49.237 37.818 42.507 C.2 0.0 **** 0.1884
3394 OD1 50.374 37.786 43.047 O.co2 0.0 **** -0.6396
3395 OD2 48.891 37.05 41.595 O.co2 0.0 **** -0.6396
3396 N 50.899 41.351 43.412 N.am 0.0 **** -0.3289
3397 CA 51.913 41.99 42.564 C.3 0.0 **** 0.1741
3398 C 52.808 41.012 41.823 C.2 0.0 **** 0.243
3399 O 53.631 41.461 41.022 O.2 0.0 **** -0.2727
3400 CB 52.729 42.831 43.571 C.3 0.0 **** 0.037
3401 CG 52.456 42.282 44.897 C.3 0.0 **** 0.0242
3402 CD 51.11 41.616 44.854 C.3 0.0 **** 0.1203
3403 N 52.669 39.697 42.024 N.am 0.0 **** -0.1765
3404 CA 53.6 38.758 41.41 C.3 0.0 **** 0.1967
3405 C 53.328 38.489 39.934 C.2 0.0 **** 0.2451
3406 O 54.171 37.854 39.278 O.2 0.0 **** -0.2726
3407 CB 53.6 37.422 42.156 C.3 0.0 **** 0.1907
3408 OG 52.441 36.626 41.906 O.3 0.0 **** -0.1835
3409 N 52.179 38.916 39.406 N.am 0.0 **** -0.1786
3410 CA 51.825 38.609 38.018 C.3 0.0 **** 0.1712
3411 C 51.46 39.886 37.274 C.2 0.0 **** 0.2453
3412 O 50.608 40.649 37.746 O.2 0.0 **** -0.2724
3413 CB 50.657 37.627 37.949 C.3 0.0 **** 0.0367
3414 CG 50.973 36.23 38.486 C.3 0.0 **** 0.0239
3415 CD 49.688 35.498 38.751 C.3 0.0 **** 0.1157
3416 NE 49.874 34.095 39.087 N.pl3 0.0 **** 0.138
3417 CZ 49.687 33.6 40.29 C.cat 0.0 **** 0.1634
3418 NH1 49.327 34.402 41.303 N.pl3 0.0 **** 0.2799
3419 NH2 49.865 32.297 40.471 N.pl3 0.0 **** 0.2799
3420 N 52.041 40.127 36.088 N.am 0.0 **** -0.3289
3421 CA 51.679 41.31 35.303 C.3 0.0 **** 0.1741
3422 C 50.215 41.308 34.856 C.2 0.0 **** 0.243
3423 O 49.589 40.26 34.704 O.2 0.0 **** -0.2727
3424 CB 52.612 41.223 34.093 C.3 0.0 **** 0.037
3425 CG 53.789 40.462 34.584 C.3 0.0 **** 0.0242
3426 CD 53.243 39.455 35.569 C.3 0.0 **** 0.1203
3427 N 49.691 42.501 34.617 N.am 0.0 **** -0.1784
3428 CA 48.296 42.692 34.252 C.3 0.0 **** 0.1738
3429 C 48.212 42.878 32.734 C.2 0.0 **** 0.243
3430 O 48.994 43.635 32.145 O.2 0.0 **** -0.2727
3431 CB 47.681 43.906 34.974 C.3 0.0 **** 0.0176
3432 CG1 47.795 43.759 36.513 C.3 0.0 **** 0.0024
3433 CG2 46.228 44.142 34.506 C.3 0.0 **** 0.0102
3434 CD1 47.198 42.538 37.037 C.3 0.0 **** 0.0041
3435 N 47.27 42.182 32.122 N.am 0.0 **** -0.1782
3436 CA 46.997 42.226 30.685 C.3 0.0 **** 0.1769
3437 C 45.585 42.767 30.459 C.2 0.0 **** 0.2432
3438 O 44.654 42.348 31.15 O.2 0.0 **** -0.2727
3439 CB 47.107 40.806 30.119 C.3 0.0 **** 0.0902
3440 CG 46.595 40.661 28.717 C.2 0.0 **** 0.037
3441 ND1 45.258 40.495 28.408 N.pl3 0.0 **** -0.1813
3442 CD2 47.257 40.663 27.536 C.2 0.0 **** 0.1339
3443 CE1 45.124 40.427 27.089 C.2 0.0 **** 0.1962
3444 NE2 46.317 40.523 26.541 N.2 0.0 **** -0.2451
3445 N 45.417 43.656 29.474 N.am 0.0 **** -0.1783
3446 CA 44.09 44.04 28.984 C.3 0.0 **** 0.1753
3447 C 44.262 44.759 27.649 C.2 0.0 **** 0.2431
3448 O 44.774 45.882 27.61 O.2 0.0 **** -0.2727
3449 CB 43.351 44.921 29.97 C.3 0.0 **** 0.0702
3450 CG 42.028 45.353 29.432 C.ar 0.0 **** -0.0452
3451 CD1 41.066 44.428 29.073 C.ar 0.0 **** 0.0063
3452 CD2 41.737 46.693 29.268 C.ar 0.0 **** 0.0063
3453 CE1 39.852 44.821 28.53 C.ar 0.0 **** 0.0332
3454 CE2 40.501 47.102 28.743 C.ar 0.0 **** 0.0332
3455 CZ 39.585 46.141 28.352 C.ar 0.0 **** 0.0713
3456 OH 38.368 46.548 27.839 O.3 0.0 **** -0.1427
3457 N 43.841 44.115 26.552 N.am 0.0 **** -0.1786
3458 CA 43.968 44.707 25.231 C.3 0.0 **** 0.1714
3459 C 43.01 45.873 25.002 C.2 0.0 **** 0.2425
3460 O 43.296 46.733 24.152 O.2 0.0 **** -0.2727
3461 CB 43.737 43.621 24.179 C.3 0.0 **** 0.0434
3462 CG 43.727 44.128 22.695 C.3 0.0 **** 0.0873
3463 CD 42.387 44.707 22.237 C.2 0.0 **** 0.1859
3464 OE1 41.367 44.507 22.93 O.co2 0.0 **** -0.6397
3465 OE2 42.38 45.378 21.164 O.co2 0.0 **** -0.6397
3466 N 41.896 45.936 25.742 N.am 0.0 **** -0.1817
3467 CA 40.783 46.8 25.354 C.3 0.0 **** 0.2156
3468 C 41.062 48.284 25.415 C.2 0.0 **** 0.2396
3469 O 40.315 49.062 24.785 O.2 0.0 **** -0.273
3470 N 42.124 48.708 26.144 N.am 0.0 **** -0.1784
3471 CA 42.514 50.128 26.263 C.3 0.0 **** 0.1789
3472 C 43.914 50.286 25.656 C.2 0.0 **** 0.2432
3473 O 44.912 49.919 26.28 O.2 0.0 **** -0.2727
3474 CB 42.492 50.552 27.747 C.3 0.0 **** 0.1195
3475 CG 43.133 51.915 28.009 C.2 0.0 **** 0.1884
3476 OD1 43.309 52.734 27.082 O.co2 0.0 **** -0.6396
3477 OD2 43.438 52.183 29.204 O.co2 0.0 **** -0.6396
3478 N 44.007 50.779 24.421 N.am 0.0 **** -0.1783
3479 CA 45.299 50.754 23.748 C.3 0.0 **** 0.1754
3480 C 46.326 51.659 24.413 C.2 0.0 **** 0.2432
3481 O 47.53 51.424 24.26 O.2 0.0 **** -0.2727
3482 CB 45.12 51.127 22.264 C.3 0.0 **** 0.0724
3483 CG 44.35 50.114 21.505 C.2 0.0 **** -0.0201
3484 CD1 43.721 49.001 21.996 C.2 0.0 **** 0.0869
3485 CD2 44.14 50.107 20.094 C.2 0.0 **** 0.0027
3486 NE1 43.121 48.306 20.965 N.pl3 0.0 **** -0.195
3487 CE2 43.37 48.964 19.79 C.2 0.0 **** 0.0456
3488 CE3 44.537 50.956 19.061 C.2 0.0 **** 0.0104
3489 CZ2 42.977 48.652 18.492 C.2 0.0 **** 0.0265
3490 CZ3 44.148 50.646 17.76 C.2 0.0 **** 0.0008
3491 CH2 43.375 49.491 17.496 C.2 0.0 **** 0.0022
3492 N 45.886 52.679 25.162 N.am 0.0 **** -0.1765
3493 CA 46.82 53.532 25.883 C.3 0.0 **** 0.1967
3494 C 47.624 52.746 26.919 C.2 0.0 **** 0.2452
3495 O 48.688 53.213 27.346 O.2 0.0 **** -0.2726
3496 CB 46.052 54.684 26.565 C.3 0.0 **** 0.1907
3497 OG 45.499 54.267 27.794 O.3 0.0 **** -0.1835
3498 N 47.132 51.574 27.334 N.am 0.0 **** -0.1765
3499 CA 47.827 50.692 28.273 C.3 0.0 **** 0.1967
3500 C 48.062 51.355 29.625 C.2 0.0 **** 0.2451
3501 O 48.981 50.981 30.365 O.2 0.0 **** -0.2726
3502 CB 49.139 50.187 27.661 C.3 0.0 **** 0.1907
3503 OG 48.846 49.589 26.402 O.3 0.0 **** -0.1835
3504 N 47.172 52.276 29.997 N.am 0.0 **** -0.1786
3505 CA 47.374 53.057 31.207 C.3 0.0 **** 0.1714
3506 C 47.404 52.178 32.464 C.2 0.0 **** 0.2428
3507 O 48.167 52.445 33.4 O.2 0.0 **** -0.2727
3508 CB 46.277 54.127 31.331 C.3 0.0 **** 0.0434
3509 CG 46.493 55.023 32.499 C.3 0.0 **** 0.0873
3510 CD 45.538 56.194 32.48 C.2 0.0 **** 0.1859
3511 OE1 44.598 56.2 31.663 O.co2 0.0 **** -0.6397
3512 OE2 45.717 57.086 33.293 O.co2 0.0 **** -0.6397
3513 N 46.603 51.121 32.504 N.am 0.0 **** -0.1783
3514 CA 46.444 50.334 33.718 C.3 0.0 **** 0.1769
3515 C 46.964 48.922 33.585 C.2 0.0 **** 0.2432
3516 O 46.54 48.051 34.353 O.2 0.0 **** -0.2727
3517 CB 44.977 50.308 34.115 C.3 0.0 **** 0.0902
3518 CG 44.389 51.675 34.201 C.2 0.0 **** 0.037
3519 ND1 44.879 52.623 35.063 N.pl3 0.0 **** -0.1813
3520 CD2 43.416 52.277 33.488 C.2 0.0 **** 0.1339
3521 CE1 44.2 53.747 34.91 C.2 0.0 **** 0.1962
3522 NE2 43.3 53.56 33.968 N.2 0.0 **** -0.2451
3523 N 47.906 48.679 32.66 N.am 0.0 **** -0.1784
3524 CA 48.43 47.352 32.423 C.3 0.0 **** 0.1735
3525 C 49.945 47.383 32.46 C.2 0.0 **** 0.243
3526 O 50.571 48.432 32.534 O.2 0.0 **** -0.2727
3527 CB 47.948 46.761 31.074 C.3 0.0 **** 0.0147
3528 CG1 46.413 46.566 31.096 C.3 0.0 **** 0.0099
3529 CG2 48.375 47.638 29.9 C.3 0.0 **** 0.0099
3530 N 50.528 46.193 32.377 N.am 0.0 **** -0.1782
3531 CA 51.972 46.022 32.425 C.3 0.0 **** 0.1789
3532 C 52.564 45.527 31.111 C.2 0.0 **** 0.2432
3533 O 53.794 45.565 30.959 O.2 0.0 **** -0.2727
3534 CB 52.344 45.043 33.55 C.3 0.0 **** 0.1195
3535 CG 51.84 45.516 34.898 C.2 0.0 **** 0.1884
3536 OD1 52.034 46.711 35.205 O.co2 0.0 **** -0.6396
3537 OD2 51.199 44.704 35.595 O.co2 0.0 **** -0.6396
3538 N 51.732 45.059 30.193 N.am 0.0 **** -0.1784
3539 CA 52.147 44.629 28.85 C.3 0.0 **** 0.1735
3540 C 51.255 45.354 27.867 C.2 0.0 **** 0.243
3541 O 50.119 45.72 28.186 O.2 0.0 **** -0.2727
3542 CB 52.093 43.094 28.61 C.3 0.0 **** 0.0147
3543 CG1 52.989 42.38 29.612 C.3 0.0 **** 0.0099
3544 CG2 50.637 42.513 28.686 C.3 0.0 **** 0.0099
3545 N 51.796 45.612 26.661 N.am 0.0 **** -0.1783
3546 CA 51.023 46.194 25.571 C.3 0.0 **** 0.1753
3547 C 50.471 45.027 24.764 C.2 0.0 **** 0.2432
3548 O 51.237 44.21 24.247 O.2 0.0 **** -0.2727
3549 CB 51.896 47.136 24.738 C.3 0.0 **** 0.0702
3550 CG 51.259 47.762 23.505 C.ar 0.0 **** -0.0452
3551 CD1 49.884 47.948 23.405 C.ar 0.0 **** 0.0063
3552 CD2 52.051 48.199 22.455 C.ar 0.0 **** 0.0063
3553 CE1 49.322 48.514 22.305 C.ar 0.0 **** 0.0332
3554 CE2 51.487 48.762 21.312 C.ar 0.0 **** 0.0332
3555 CZ 50.125 48.928 21.241 C.ar 0.0 **** 0.0713
3556 OH 49.505 49.474 20.11 O.3 0.0 **** -0.1427
3557 N 49.142 44.924 24.707 N.am 0.0 **** -0.1765
3558 CA 48.458 43.822 24.043 C.3 0.0 **** 0.1967
3559 C 47.599 44.354 22.905 C.2 0.0 **** 0.2451
3560 O 46.898 45.365 23.049 O.2 0.0 **** -0.2726
3561 CB 47.602 43.04 25.001 C.3 0.0 **** 0.1907
3562 OG 47.011 41.985 24.309 O.3 0.0 **** -0.1835
3563 N 47.695 43.691 21.744 N.am 0.0 **** -0.1786
3564 CA 46.793 43.96 20.627 C.3 0.0 **** 0.171
3565 C 46.252 42.639 20.07 C.2 0.0 **** 0.2427
3566 O 46.802 41.551 20.301 O.2 0.0 **** -0.2727
3567 CB 47.499 44.769 19.511 C.3 0.0 **** 0.0367
3568 CG 47.907 46.201 19.911 C.3 0.0 **** 0.0239
3569 CD 46.755 47.216 19.87 C.3 0.0 **** 0.1157
3570 NE 46.259 47.203 18.51 N.pl3 0.0 **** 0.138
3571 CZ 46.885 47.801 17.498 C.cat 0.0 **** 0.1634
3572 NH1 47.962 48.542 17.736 N.pl3 0.0 **** 0.2799
3573 NH2 46.447 47.67 16.238 N.pl3 0.0 **** 0.2799
3574 N 45.182 42.746 19.278 N.am 0.0 **** -0.1786
3575 CA 44.625 41.615 18.549 C.3 0.0 **** 0.1718
3576 C 44.575 41.946 17.059 C.2 0.0 **** 0.2428
3577 O 44.08 43.018 16.65 O.2 0.0 **** -0.2727
3578 CB 43.227 41.221 19.045 C.3 0.0 **** 0.0457
3579 CG 42.199 42.311 19.054 C.3 0.0 **** 0.0716
3580 SD 40.578 41.696 19.652 S.3 0.0 **** -0.1653
3581 CE 40.95 41.339 21.359 C.3 0.0 **** 0.0847
3582 N 45.132 41.042 16.268 N.am 0.0 **** -0.1783
3583 CA 45.086 41.11 14.792 C.3 0.0 **** 0.1753
3584 C 45.823 42.324 14.232 C.2 0.0 **** 0.2431
3585 O 45.591 42.706 13.086 O.2 0.0 **** -0.2727
3586 CB 43.642 41.085 14.272 C.3 0.0 **** 0.0702
3587 CG 42.827 39.998 14.955 C.ar 0.0 **** -0.0452
3588 CD1 43.086 38.658 14.7 C.ar 0.0 **** 0.0063
3589 CD2 41.851 40.327 15.895 C.ar 0.0 **** 0.0063
3590 CE1 42.38 37.649 15.336 C.ar 0.0 **** 0.0332
3591 CE2 41.132 39.35 16.546 C.ar 0.0 **** 0.0332
3592 CZ 41.389 38.01 16.257 C.ar 0.0 **** 0.0713
3593 OH 40.68 37.009 16.904 O.3 0.0 **** -0.1427
3594 N 46.76 42.9 14.975 N.am 0.0 **** -0.1789
3595 CA 47.651 43.878 14.364 C.3 0.0 **** 0.1678
3596 C 48.376 43.208 13.207 C.2 0.0 **** 0.2425
3597 O 48.779 42.046 13.307 O.2 0.0 **** -0.2727
3598 CB 48.651 44.421 15.373 C.3 0.0 **** 0.0414
3599 N 48.532 43.946 12.111 N.am 0.0 **** -0.1765
3600 CA 49.143 43.397 10.913 C.3 0.0 **** 0.1967
3601 C 50.588 43.011 11.193 C.2 0.0 **** 0.2451
3602 O 51.209 43.491 12.125 O.2 0.0 **** -0.2726
3603 CB 49.134 44.419 9.772 C.3 0.0 **** 0.1907
3604 OG 49.963 45.517 10.151 O.3 0.0 **** -0.1835
3605 N 51.128 42.166 10.315 N.am 0.0 **** -0.1786
3606 CA 52.551 41.859 10.365 C.3 0.0 **** 0.1714
3607 C 53.393 43.132 10.3 C.2 0.0 **** 0.2428
3608 O 54.376 43.273 11.03 O.2 0.0 **** -0.2727
3609 CB 52.906 40.899 9.225 C.3 0.0 **** 0.0447
3610 CG 52.288 39.524 9.394 C.3 0.0 **** 0.1022
3611 CD 50.924 39.367 8.704 C.2 0.0 **** 0.217
3612 OE1 50.192 40.336 8.496 O.2 0.0 **** -0.2753
3613 NE2 50.598 38.139 8.324 N.am 0.0 **** -0.0515
3614 N 53.023 44.061 9.43 N.am 0.0 **** -0.179
3615 CA 53.74 45.335 9.334 C.3 0.0 **** 0.1678
3616 C 53.731 46.086 10.665 C.2 0.0 **** 0.2425
3617 O 54.768 46.583 11.125 O.2 0.0 **** -0.2727
3618 CB 53.122 46.191 8.219 C.3 0.0 **** 0.0414
3619 N 52.556 46.223 11.287 N.am 0.0 **** -0.1787
3620 CA 52.525 46.971 12.538 C.3 0.0 **** 0.1714
3621 C 53.293 46.231 13.624 C.2 0.0 **** 0.2428
3622 O 53.977 46.85 14.441 O.2 0.0 **** -0.2727
3623 CB 51.084 47.272 12.968 C.3 0.0 **** 0.0434
3624 CG 51.074 48.206 14.218 C.3 0.0 **** 0.0873
3625 CD 49.7 48.624 14.752 C.2 0.0 **** 0.1859
3626 OE1 48.658 48.088 14.276 O.co2 0.0 **** -0.6397
3627 OE2 49.69 49.496 15.656 O.co2 0.0 **** -0.6397
3628 N 53.227 44.903 13.63 N.am 0.0 **** -0.1763
3629 CA 53.984 44.146 14.609 C.3 0.0 **** 0.1996
3630 C 55.481 44.407 14.452 C.2 0.0 **** 0.2454
3631 O 56.218 44.515 15.452 O.2 0.0 **** -0.2726
3632 CB 53.645 42.665 14.456 C.3 0.0 **** 0.1429
3633 OG1 52.261 42.482 14.753 O.3 0.0 **** -0.1801
3634 CG2 54.464 41.82 15.386 C.3 0.0 **** 0.0409
3635 N 55.946 44.535 13.194 N.am 0.0 **** -0.1789
3636 CA 57.364 44.775 12.954 C.3 0.0 **** 0.1678
3637 C 57.776 46.142 13.465 C.2 0.0 **** 0.2425
3638 O 58.879 46.308 14.005 O.2 0.0 **** -0.2727
3639 CB 57.686 44.633 11.453 C.3 0.0 **** 0.0414
3640 N 56.904 47.135 13.326 N.am 0.0 **** -0.1787
3641 CA 57.179 48.448 13.907 C.3 0.0 **** 0.1712
3642 C 57.237 48.371 15.432 C.2 0.0 **** 0.2428
3643 O 58.114 48.957 16.075 O.2 0.0 **** -0.2727
3644 CB 56.097 49.432 13.48 C.3 0.0 **** 0.0378
3645 CG 55.927 49.701 11.974 C.3 0.0 **** -0.0149
3646 CD1 54.884 50.793 11.769 C.3 0.0 **** 0.0072
3647 CD2 57.243 50.111 11.367 C.3 0.0 **** 0.0072
3648 N 56.26 47.704 16.032 N.am 0.0 **** -0.1784
3649 CA 56.256 47.598 17.478 C.3 0.0 **** 0.1738
3650 C 57.494 46.849 17.928 C.2 0.0 **** 0.2428
3651 O 58.14 47.214 18.917 O.2 0.0 **** -0.2727
3652 CB 54.961 46.908 17.938 C.3 0.0 **** 0.0176
3653 CG1 53.778 47.826 17.68 C.3 0.0 **** 0.0024
3654 CG2 55.061 46.535 19.427 C.3 0.0 **** 0.0102
3655 CD1 52.509 47.109 17.752 C.3 0.0 **** 0.0041
3656 N 57.867 45.802 17.187 N.am 0.0 **** -0.1817
3657 CA 59.037 45.042 17.579 C.3 0.0 **** 0.2156
3658 C 60.274 45.901 17.629 C.2 0.0 **** 0.2396
3659 O 61.153 45.695 18.466 O.2 0.0 **** -0.273
3660 N 60.358 46.881 16.745 N.am 0.0 **** -0.1789
3661 CA 61.508 47.765 16.68 C.3 0.0 **** 0.1714
3662 C 61.355 48.98 17.567 C.2 0.0 **** 0.2425
3663 O 62.281 49.799 17.639 O.2 0.0 **** -0.2727
3664 CB 61.749 48.194 15.226 C.3 0.0 **** 0.0447
3665 CG 62.15 47.026 14.387 C.3 0.0 **** 0.1022
3666 CD 62.22 47.406 12.926 C.2 0.0 **** 0.217
3667 OE1 63.245 47.865 12.463 O.2 0.0 **** -0.2753
3668 NE2 61.106 47.27 12.219 N.am 0.0 **** -0.0515
3669 N 60.221 49.11 18.25 N.am 0.0 **** -0.1817
3670 CA 59.999 50.227 19.147 C.3 0.0 **** 0.2156
3671 C 59.759 51.543 18.466 C.2 0.0 **** 0.2396
3672 O 60.044 52.593 19.054 O.2 0.0 **** -0.273
3673 N 59.244 51.524 17.23 N.am 0.0 **** -0.1787
3674 CA 59.119 52.728 16.433 C.3 0.0 **** 0.1737
3675 C 57.676 52.969 15.988 C.2 0.0 **** 0.243
3676 O 57.431 53.674 14.985 O.2 0.0 **** -0.2727
3677 CB 60.067 52.669 15.22 C.3 0.0 **** 0.0176
3678 CG1 59.704 51.509 14.306 C.3 0.0 **** 0.0024
3679 CG2 61.524 52.534 15.708 C.3 0.0 **** 0.0102
3680 CD1 60.641 51.344 13.049 C.3 0.0 **** 0.0041
3681 N 56.72 52.411 16.72 N.am 0.0 **** -0.1786
3682 CA 55.322 52.638 16.411 C.3 0.0 **** 0.1716
3683 C 54.953 54.095 16.719 C.2 0.0 **** 0.2454
3684 O 55.702 54.805 17.401 O.2 0.0 **** -0.2724
3685 CB 54.435 51.663 17.178 C.3 0.0 **** 0.0434
3686 CG 54.312 51.878 18.721 C.3 0.0 **** 0.0873
3687 CD 55.451 51.269 19.549 C.2 0.0 **** 0.1859
3688 OE1 56.487 50.859 18.979 O.co2 0.0 **** -0.6397
3689 OE2 55.318 51.28 20.804 O.co2 0.0 **** -0.6397
3690 N 53.838 54.586 16.172 N.am 0.0 **** -0.3289
3691 CA 53.456 55.988 16.406 C.3 0.0 **** 0.1741
3692 C 53.149 56.245 17.876 C.2 0.0 **** 0.243
3693 O 52.678 55.365 18.595 O.2 0.0 **** -0.2727
3694 CB 52.202 56.149 15.551 C.3 0.0 **** 0.037
3695 CG 52.321 55.081 14.483 C.3 0.0 **** 0.0242
3696 CD 52.954 53.919 15.201 C.3 0.0 **** 0.1203
3697 N 53.435 57.463 18.32 N.am 0.0 **** -0.1789
3698 CA 53.338 57.779 19.738 C.3 0.0 **** 0.1678
3699 C 51.891 57.999 20.149 C.2 0.0 **** 0.2425
3700 O 51.064 58.474 19.372 O.2 0.0 **** -0.2727
3701 CB 54.132 59.043 20.066 C.3 0.0 **** 0.0414
3702 N 51.592 57.643 21.392 N.am 0.0 **** -0.1787
3703 CA 50.395 58.147 22.052 C.3 0.0 **** 0.1712
3704 C 50.462 59.671 22.196 C.2 0.0 **** 0.2428
3705 O 51.536 60.261 22.288 O.2 0.0 **** -0.2727
3706 CB 50.244 57.492 23.433 C.3 0.0 **** 0.0378
3707 CG 50.015 55.975 23.382 C.3 0.0 **** -0.0149
3708 CD1 50.015 55.313 24.791 C.3 0.0 **** 0.0072
3709 CD2 48.726 55.711 22.655 C.3 0.0 **** 0.0072
3710 N 49.292 60.313 22.215 N.am 0.0 **** -0.1781
3711 CA 49.256 61.768 22.405 C.3 0.0 **** 0.1802
3712 C 49.852 62.179 23.73 C.2 0.0 **** 0.2433
3713 O 50.458 63.245 23.844 O.2 0.0 **** -0.2727
3714 CB 47.827 62.283 22.323 C.3 0.0 **** 0.1344
3715 CG 47.254 62.135 20.949 C.2 0.0 **** 0.2196
3716 OD1 47.966 62.271 19.951 O.2 0.0 **** -0.2752
3717 ND2 45.96 61.84 20.878 N.am 0.0 **** -0.0514
3718 N 49.643 61.374 24.755 N.am 0.0 **** -0.1782
3719 CA 50.123 61.649 26.099 C.3 0.0 **** 0.1789
3720 C 51.552 61.144 26.231 C.2 0.0 **** 0.2432
3721 O 51.791 59.944 26.205 O.2 0.0 **** -0.2727
3722 CB 49.201 60.957 27.096 C.3 0.0 **** 0.1195
3723 CG 49.537 61.268 28.53 C.2 0.0 **** 0.1884
3724 OD1 50.708 61.162 28.96 O.co2 0.0 **** -0.6396
3725 OD2 48.582 61.603 29.244 O.co2 0.0 **** -0.6396
3726 N 52.504 62.052 26.389 N.am 0.0 **** -0.1789
3727 CA 53.907 61.648 26.388 C.3 0.0 **** 0.1678
3728 C 54.235 60.695 27.524 C.2 0.0 **** 0.2425
3729 O 55.069 59.794 27.362 O.2 0.0 **** -0.2727
3730 CB 54.809 62.879 26.478 C.3 0.0 **** 0.0414
3731 N 53.644 60.906 28.704 N.am 0.0 **** -0.179
3732 CA 53.94 60.011 29.822 C.3 0.0 **** 0.1678
3733 C 53.388 58.617 29.558 C.2 0.0 **** 0.2425
3734 O 54.05 57.614 29.85 O.2 0.0 **** -0.2727
3735 CB 53.366 60.56 31.119 C.3 0.0 **** 0.0414
3736 N 52.169 58.529 29.021 N.am 0.0 **** -0.1787
3737 CA 51.646 57.21 28.694 C.3 0.0 **** 0.1712
3738 C 52.417 56.585 27.551 C.2 0.0 **** 0.2428
3739 O 52.638 55.373 27.553 O.2 0.0 **** -0.2727
3740 CB 50.173 57.279 28.347 C.3 0.0 **** 0.0378
3741 CG 49.249 57.674 29.508 C.3 0.0 **** -0.0149
3742 CD1 47.788 57.528 29.037 C.3 0.0 **** 0.0072
3743 CD2 49.509 56.844 30.763 C.3 0.0 **** 0.0072
3744 N 52.883 57.397 26.6 N.am 0.0 **** -0.1782
3745 CA 53.67 56.826 25.512 C.3 0.0 **** 0.1789
3746 C 54.973 56.234 26.029 C.2 0.0 **** 0.2432
3747 O 55.332 55.106 25.677 O.2 0.0 **** -0.2727
3748 CB 53.953 57.865 24.419 C.3 0.0 **** 0.1195
3749 CG 54.599 57.219 23.208 C.2 0.0 **** 0.1884
3750 OD1 53.882 56.489 22.477 O.co2 0.0 **** -0.6396
3751 OD2 55.825 57.379 23.039 O.co2 0.0 **** -0.6396
3752 N 55.708 56.986 26.857 N.am 0.0 **** -0.1789
3753 CA 56.938 56.451 27.435 C.3 0.0 **** 0.1678
3754 C 56.683 55.133 28.168 C.2 0.0 **** 0.2425
3755 O 57.463 54.182 28.027 O.2 0.0 **** -0.2727
3756 CB 57.576 57.473 28.392 C.3 0.0 **** 0.0414
3757 N 55.614 55.063 28.97 N.4 0.0 **** -0.1787
3758 CA 55.283 53.821 29.668 C.3 0.0 **** 0.171
3759 C 55.063 52.677 28.68 C.2 0.0 **** 0.2427
3760 O 55.595 51.572 28.851 O.2 0.0 **** -0.2727
3761 CB 54.025 54.006 30.525 C.3 0.0 **** 0.0367
3762 CG 54.209 54.792 31.834 C.3 0.0 **** 0.0239
3763 CD 52.959 54.667 32.733 C.3 0.0 **** 0.1157
3764 NE 52.768 53.283 33.204 N.pl3 0.0 **** 0.138
3765 CZ 51.896 52.394 32.712 C.cat 0.0 **** 0.1634
3766 NH1 51.076 52.708 31.686 N.pl3 0.0 **** 0.2799
3767 NH2 51.854 51.175 33.269 N.pl3 0.0 **** 0.2799
3768 CA 55.296001 53.819 29.666 C.3 0.0 **** 0.0
3769 CB 54.063 54.011002 30.548 C.3 0.0 **** 0.0
3770 CG 54.257999 54.972 31.714001 C.3 0.0 **** 0.0
3771 CD 52.956001 55.134998 32.480999 C.3 0.0 **** 0.0
3772 NE 53.009998 56.206001 33.452 N.pl3 0.0 **** 0.0
3773 CZ 51.967999 56.584 34.179001 C.cat 0.0 **** 0.0
3774 NH1 50.794998 55.974998 34.043999 N.pl3 0.0 **** 0.0
3775 NH2 52.103001 57.563999 35.040001 N.pl3 0.0 **** 0.0
3776 N 54.26 52.917 27.652 N.am 0.0 **** -0.1787
3777 CA 53.909 51.828 26.734 C.3 0.0 **** 0.171
3778 C 55.105 51.404 25.888 C.2 0.0 **** 0.2427
3779 O 55.276 50.216 25.589 O.2 0.0 **** -0.2727
3780 CB 52.744 52.233 25.821 C.3 0.0 **** 0.0367
3781 CG 52.108 51.043 25.137 C.3 0.0 **** 0.0239
3782 CD 50.886 51.448 24.286 C.3 0.0 **** 0.1157
3783 NE 51.301 52.2 23.105 N.pl3 0.0 **** 0.138
3784 CZ 50.532 52.472 22.062 C.cat 0.0 **** 0.1634
3785 NH1 49.256 52.104 22.054 N.pl3 0.0 **** 0.2799
3786 NH2 51.062 53.101 20.987 N.pl3 0.0 **** 0.2799
3787 N 55.941 52.353 25.489 N.am 0.0 **** -0.1787
3788 CA 57.105 51.993 24.683 C.3 0.0 **** 0.171
3789 C 58.082 51.14 25.472 C.2 0.0 **** 0.2427
3790 O 58.86 50.396 24.875 O.2 0.0 **** -0.2727
3791 CB 57.779 53.266 24.153 C.3 0.0 **** 0.0367
3792 CG 58.081 53.235 22.655 C.3 0.0 **** 0.0239
3793 CD 58.583 54.599 22.174 C.3 0.0 **** 0.1157
3794 NE 57.512 55.406 21.625 N.pl3 0.0 **** 0.138
3795 CZ 56.985 55.21 20.414 C.cat 0.0 **** 0.1634
3796 NH1 57.402 54.217 19.639 N.pl3 0.0 **** 0.2799
3797 NH2 56.02 55.996 19.977 N.pl3 0.0 **** 0.2799
3798 N 58.018 51.179 26.787 N.am 0.0 **** -0.179
3799 CA 58.849 50.34 27.628 C.3 0.0 **** 0.1678
3800 C 58.185 49.019 27.997 C.2 0.0 **** 0.2425
3801 O 58.755 48.257 28.794 O.2 0.0 **** -0.2727
3802 CB 59.211 51.088 28.911 C.3 0.0 **** 0.0414
3803 N 56.999 48.744 27.465 N.am 0.0 **** -0.1786
3804 CA 56.322 47.475 27.707 C.3 0.0 **** 0.172
3805 C 56.674 46.459 26.641 C.2 0.0 **** 0.2454
3806 O 56.839 46.813 25.471 O.2 0.0 **** -0.2724
3807 CB 54.809 47.656 27.721 C.3 0.0 **** 0.0457
3808 CG 54.261 48.471 28.864 C.3 0.0 **** 0.0716
3809 SD 52.462 48.583 28.784 S.3 0.0 **** -0.1653
3810 CE 52.216 49.85 30.074 C.3 0.0 **** 0.0847
3811 N 56.747 45.179 27.01 N.am 0.0 **** -0.3289
3812 CA 56.754 44.131 25.996 C.3 0.0 **** 0.1741
3813 C 55.38 44.003 25.362 C.2 0.0 **** 0.243
3814 O 54.38 44.453 25.912 O.2 0.0 **** -0.2727
3815 CB 57.137 42.885 26.778 C.3 0.0 **** 0.037
3816 CG 56.67 43.134 28.164 C.3 0.0 **** 0.0242
3817 CD 56.752 44.635 28.386 C.3 0.0 **** 0.1203
3818 N 55.348 43.399 24.167 N.am 0.0 **** -0.1783
3819 CA 54.165 43.402 23.312 C.3 0.0 **** 0.1753
3820 C 53.686 41.987 23.021 C.2 0.0 **** 0.2431
3821 O 54.462 41.139 22.596 O.2 0.0 **** -0.2727
3822 CB 54.449 44.113 21.978 C.3 0.0 **** 0.0702
3823 CG 53.299 44.047 21.027 C.ar 0.0 **** -0.0454
3824 CD1 52.204 44.877 21.199 C.ar 0.0 **** 0.0036
3825 CD2 53.32 43.177 19.956 C.ar 0.0 **** 0.0036
3826 CE1 51.134 44.814 20.299 C.ar 0.0 **** 0.0003
3827 CE2 52.258 43.104 19.075 C.ar 0.0 **** 0.0003
3828 CZ 51.177 43.932 19.244 C.ar 0.0 **** 0.0
3829 N 52.4 41.733 23.209 N.am 0.0 **** -0.1784
3830 CA 51.835 40.417 22.932 C.3 0.0 **** 0.1735
3831 C 50.636 40.562 21.995 C.2 0.0 **** 0.243
3832 O 49.849 41.508 22.101 O.2 0.0 **** -0.2727
3833 CB 51.427 39.703 24.244 C.3 0.0 **** 0.0147
3834 CG1 50.341 40.503 25.011 C.3 0.0 **** 0.0099
3835 CG2 50.955 38.305 23.958 C.3 0.0 **** 0.0099
3836 N 50.48 39.615 21.091 N.am 0.0 **** -0.1786
3837 CA 49.237 39.494 20.311 C.3 0.0 **** 0.1712
3838 C 48.34 38.514 21.054 C.2 0.0 **** 0.2428
3839 O 48.545 37.293 20.999 O.2 0.0 **** -0.2727
3840 CB 49.507 39.038 18.876 C.3 0.0 **** 0.0378
3841 CG 50.178 40.095 17.99 C.3 0.0 **** -0.0149
3842 CD1 50.796 39.534 16.701 C.3 0.0 **** 0.0072
3843 CD2 49.189 41.18 17.616 C.3 0.0 **** 0.0072
3844 N 47.329 39.035 21.741 N.am 0.0 **** -0.1779
3845 CA 46.461 38.148 22.485 C.3 0.0 **** 0.1806
3846 C 45.572 37.335 21.574 C.2 0.0 **** 0.2436
3847 O 45.084 36.289 22.017 O.2 0.0 **** -0.2726
3848 CB 45.598 38.914 23.504 C.3 0.0 **** 0.1006
3849 SG 44.487 40.15 22.891 S.3 0.0 **** -0.0744
3850 N 45.341 37.812 20.338 N.am 0.0 **** -0.1786
3851 CA 44.638 37.065 19.304 C.3 0.0 **** 0.1714
3852 C 45.322 37.422 17.991 C.2 0.0 **** 0.2428
3853 O 45.592 38.599 17.753 O.2 0.0 **** -0.2727
3854 CB 43.139 37.421 19.256 C.3 0.0 **** 0.0434
3855 CG 42.483 37.317 20.63 C.3 0.0 **** 0.0873
3856 CD 40.978 37.675 20.649 C.2 0.0 **** 0.1859
3857 OE1 40.331 37.704 19.578 O.co2 0.0 **** -0.6397
3858 OE2 40.449 37.872 21.77 O.co2 0.0 **** -0.6397
3859 N 45.644 36.427 17.175 N.am 0.0 **** -0.1783
3860 CA 46.181 36.693 15.841 C.3 0.0 **** 0.1753
3861 C 45.952 35.45 14.969 C.2 0.0 **** 0.2431
3862 O 45.431 34.424 15.425 O.2 0.0 **** -0.2727
3863 CB 47.664 37.127 15.919 C.3 0.0 **** 0.0702
3864 CG 48.668 36.024 15.951 C.ar 0.0 **** -0.0452
3865 CD1 48.61 35.032 16.917 C.ar 0.0 **** 0.0063
3866 CD2 49.692 35.968 15.032 C.ar 0.0 **** 0.0063
3867 CE1 49.528 33.981 16.932 C.ar 0.0 **** 0.0332
3868 CE2 50.621 34.899 15.034 C.ar 0.0 **** 0.0332
3869 CZ 50.517 33.922 16.004 C.ar 0.0 **** 0.0713
3870 OH 51.392 32.833 16.044 O.3 0.0 **** -0.1427
3871 N 46.29 35.597 13.687 N.am 0.0 **** -0.1784
3872 CA 46.115 34.615 12.606 C.3 0.0 **** 0.1735
3873 C 44.822 33.827 12.78 C.2 0.0 **** 0.243
3874 O 44.813 32.6 12.952 O.2 0.0 **** -0.2727
3875 CB 47.335 33.695 12.452 C.3 0.0 **** 0.0147
3876 CG1 48.527 34.531 11.967 C.3 0.0 **** 0.0099
3877 CG2 47.643 32.965 13.725 C.3 0.0 **** 0.0099
3878 N 43.728 34.564 12.697 N.am 0.0 **** -0.1782
3879 CA 42.382 34.03 12.821 C.3 0.0 **** 0.1769
3880 C 42.213 32.783 11.977 C.2 0.0 **** 0.2431
3881 O 42.416 32.809 10.744 O.2 0.0 **** -0.2727
3882 CB 41.421 35.13 12.391 C.3 0.0 **** 0.0902
3883 CG 40.008 34.938 12.838 C.2 0.0 **** 0.037
3884 ND1 39.029 34.475 11.983 N.pl3 0.0 **** -0.1813
3885 CD2 39.39 35.219 14.01 C.2 0.0 **** 0.1339
3886 CE1 37.87 34.461 12.625 C.2 0.0 **** 0.1962
3887 NE2 38.064 34.903 13.854 N.2 0.0 **** -0.2451
3888 N 41.842 31.686 12.631 N.am 0.0 **** -0.1789
3889 CA 41.958 30.355 12.046 C.3 0.0 **** 0.1678
3890 C 40.648 29.848 11.472 C.2 0.0 **** 0.2425
3891 O 40.365 28.652 11.505 O.2 0.0 **** -0.2727
3892 CB 42.499 29.386 13.075 C.3 0.0 **** 0.0414
3893 N 39.842 30.73 10.9 N.am 0.0 **** -0.1786
3894 CA 38.547 30.342 10.376 C.3 0.0 **** 0.1717
3895 C 38.657 29.754 8.962 C.2 0.0 **** 0.2426
3896 O 39.199 30.4 8.057 O.2 0.0 **** -0.2727
3897 CB 37.645 31.559 10.373 C.3 0.0 **** 0.0457
3898 CG 36.21 31.24 9.995 C.3 0.0 **** 0.0716
3899 SD 35.337 32.796 10.021 S.3 0.0 **** -0.1653
3900 CE 33.714 32.235 9.534 C.3 0.0 **** 0.0847
3901 N 38.159 28.526 8.787 N.am 0.0 **** -0.1817
3902 CA 38.084 27.922 7.456 C.3 0.0 **** 0.2156
3903 C 39.463 27.634 6.899 C.2 0.0 **** 0.2396
3904 O 40.427 27.371 7.632 O.2 0.0 **** -0.273
3905 N 39.559 27.688 5.57 N.am 0.0 **** -0.1784
3906 CA 40.839 27.487 4.908 C.3 0.0 **** 0.1802
3907 C 41.818 28.572 5.333 C.2 0.0 **** 0.2431
3908 O 41.61 29.744 5.022 O.2 0.0 **** -0.2727
3909 CB 40.65 27.487 3.381 C.3 0.0 **** 0.1344
3910 CG 41.879 27.019 2.647 C.2 0.0 **** 0.2196
3911 OD1 42.982 27.048 3.184 O.2 0.0 **** -0.2752
3912 ND2 41.71 26.641 1.409 N.am 0.0 **** -0.0514
3913 N 42.854 28.195 6.089 N.am 0.0 **** -0.1817
3914 CA 43.829 29.104 6.616 C.3 0.0 **** 0.2159
3915 C 44.349 28.553 7.937 C.2 0.0 **** 0.2422
3916 O 44.158 27.372 8.23 O.2 0.0 **** -0.2728
3917 N 44.996 29.387 8.754 N.am 0.0 **** -0.3291
3918 CA 45.275 30.802 8.492 C.3 0.0 **** 0.1741
3919 C 46.557 31.004 7.683 C.2 0.0 **** 0.2428
3920 O 47.554 30.29 7.875 O.2 0.0 **** -0.2727
3921 CB 45.429 31.387 9.889 C.3 0.0 **** 0.037
3922 CG 45.979 30.254 10.704 C.3 0.0 **** 0.0242
3923 CD 45.391 29.007 10.138 C.3 0.0 **** 0.1203
3924 N 46.518 31.969 6.771 N.am 0.0 **** -0.1817
3925 CA 47.707 32.357 6.037 C.3 0.0 **** 0.2156
3926 C 48.484 33.448 6.753 C.2 0.0 **** 0.2394
3927 O 47.974 34.151 7.628 O.2 0.0 **** -0.273
3928 N 49.758 33.566 6.399 N.am 0.0 **** -0.1819
3929 CA 50.602 34.595 6.953 C.3 0.0 **** 0.2156
3930 C 51.204 34.291 8.307 C.2 0.0 **** 0.2396
3931 O 51.714 35.203 8.947 O.2 0.0 **** -0.273
3932 N 51.159 33.049 8.767 N.am 0.0 **** -0.1789
3933 CA 51.708 32.739 10.089 C.3 0.0 **** 0.1717
3934 C 53.222 32.878 10.115 C.2 0.0 **** 0.2428
3935 O 53.787 33.254 11.145 O.2 0.0 **** -0.2727
3936 CB 51.352 31.315 10.528 C.3 0.0 **** 0.0457
3937 CG 49.902 31.141 10.958 C.3 0.0 **** 0.0716
3938 SD 49.633 29.462 11.596 S.3 0.0 **** -0.1653
3939 CE 49.487 28.455 10.136 C.3 0.0 **** 0.0847
3940 N 53.9 32.531 9.016 N.am 0.0 **** -0.1765
3941 CA 55.362 32.552 9.039 C.3 0.0 **** 0.1967
3942 C 55.882 33.965 9.206 C.2 0.0 **** 0.2451
3943 O 56.924 34.173 9.832 O.2 0.0 **** -0.2726
3944 CB 55.931 31.952 7.749 C.3 0.0 **** 0.1907
3945 OG 55.612 30.575 7.663 O.3 0.0 **** -0.1835
3946 N 55.202 34.94 8.602 N.am 0.0 **** -0.1786
3947 CA 55.691 36.311 8.654 C.3 0.0 **** 0.1714
3948 C 55.631 36.868 10.075 C.2 0.0 **** 0.2428
3949 O 56.552 37.565 10.513 O.2 0.0 **** -0.2727
3950 CB 54.909 37.173 7.668 C.3 0.0 **** 0.0434
3951 CG 55.308 36.904 6.217 C.3 0.0 **** 0.0873
3952 CD 54.654 35.672 5.591 C.2 0.0 **** 0.1859
3953 OE1 53.788 35.014 6.207 O.co2 0.0 **** -0.6397
3954 OE2 55.017 35.364 4.42 O.co2 0.0 **** -0.6397
3955 N 54.579 36.558 10.829 N.am 0.0 **** -0.1783
3956 CA 54.58 36.917 12.248 C.3 0.0 **** 0.1753
3957 C 55.706 36.207 12.996 C.2 0.0 **** 0.2431
3958 O 56.379 36.802 13.854 O.2 0.0 **** -0.2727
3959 CB 53.25 36.544 12.903 C.3 0.0 **** 0.0702
3960 CG 52.062 37.409 12.599 C.ar 0.0 **** -0.0452
3961 CD1 51.935 38.649 13.189 C.ar 0.0 **** 0.0063
3962 CD2 51.03 36.959 11.771 C.ar 0.0 **** 0.0063
3963 CE1 50.818 39.436 12.978 C.ar 0.0 **** 0.0332
3964 CE2 49.926 37.758 11.524 C.ar 0.0 **** 0.0332
3965 CZ 49.831 38.988 12.15 C.ar 0.0 **** 0.0713
3966 OH 48.721 39.79 11.946 O.3 0.0 **** -0.1427
3967 N 55.877 34.907 12.744 N.am 0.0 **** -0.1786
3968 CA 56.811 34.135 13.559 C.3 0.0 **** 0.1714
3969 C 58.229 34.64 13.39 C.2 0.0 **** 0.2428
3970 O 58.99 34.694 14.352 O.2 0.0 **** -0.2727
3971 CB 56.735 32.664 13.193 C.3 0.0 **** 0.0447
3972 CG 57.28 31.738 14.24 C.3 0.0 **** 0.1022
3973 CD 56.436 31.742 15.51 C.2 0.0 **** 0.217
3974 OE1 55.236 32.04 15.472 O.2 0.0 **** -0.2753
3975 NE2 57.064 31.428 16.648 N.am 0.0 **** -0.0515
3976 N 58.604 35.004 12.168 N.am 0.0 **** -0.179
3977 CA 59.933 35.555 11.949 C.3 0.0 **** 0.1678
3978 C 60.148 36.812 12.798 C.2 0.0 **** 0.2425
3979 O 61.247 37.044 13.311 O.2 0.0 **** -0.2727
3980 CB 60.13 35.849 10.462 C.3 0.0 **** 0.0414
3981 N 59.106 37.632 12.974 N.am 0.0 **** -0.1787
3982 CA 59.255 38.819 13.798 C.3 0.0 **** 0.1712
3983 C 59.408 38.443 15.27 C.2 0.0 **** 0.2428
3984 O 60.258 39.006 15.982 O.2 0.0 **** -0.2727
3985 CB 58.056 39.739 13.615 C.3 0.0 **** 0.0378
3986 CG 57.863 40.266 12.176 C.3 0.0 **** -0.0149
3987 CD1 56.481 40.972 12.027 C.3 0.0 **** 0.0072
3988 CD2 59.019 41.206 11.781 C.3 0.0 **** 0.0072
3989 N 58.565 37.515 15.745 N.am 0.0 **** -0.1783
3990 CA 58.673 37.037 17.133 C.3 0.0 **** 0.1753
3991 C 60.09 36.591 17.433 C.2 0.0 **** 0.2431
3992 O 60.607 36.827 18.531 O.2 0.0 **** -0.2727
3993 CB 57.726 35.858 17.392 C.3 0.0 **** 0.0702
3994 CG 56.257 36.172 17.278 C.ar 0.0 **** -0.0454
3995 CD1 55.778 37.468 17.327 C.ar 0.0 **** 0.0036
3996 CD2 55.362 35.139 17.116 C.ar 0.0 **** 0.0036
3997 CE1 54.419 37.713 17.215 C.ar 0.0 **** 0.0003
3998 CE2 54.024 35.37 17.002 C.ar 0.0 **** 0.0003
3999 CZ 53.541 36.658 17.062 C.ar 0.0 **** 0.0
4000 N 60.747 35.947 16.467 N.am 0.0 **** -0.1786
4001 CA 62.086 35.426 16.717 C.3 0.0 **** 0.1714
4002 C 63.131 36.527 16.665 C.2 0.0 **** 0.2428
4003 O 64.125 36.46 17.383 O.2 0.0 **** -0.2727
4004 CB 62.431 34.315 15.704 C.3 0.0 **** 0.0434
4005 CG 61.743 32.995 15.974 C.3 0.0 **** 0.0873
4006 CD 62.349 32.239 17.192 C.2 0.0 **** 0.1859
4007 OE1 63.399 32.677 17.713 O.co2 0.0 **** -0.6397
4008 OE2 61.788 31.205 17.616 O.co2 0.0 **** -0.6397
4009 N 62.89 37.564 15.886 N.am 0.0 **** -0.1787
4010 CA 63.876 38.618 15.664 C.3 0.0 **** 0.1709
4011 C 63.878 39.663 16.779 C.2 0.0 **** 0.2428
4012 O 64.936 40.181 17.136 O.2 0.0 **** -0.2727
4013 CB 63.6 39.286 14.307 C.3 0.0 **** 0.035
4014 CG 64.579 40.37 13.932 C.3 0.0 **** 0.0062
4015 CD 64.446 40.794 12.463 C.3 0.0 **** 0.0387
4016 CE 65.643 41.67 12.052 C.3 0.0 **** 0.1659
4017 NZ 65.479 42.234 10.679 N.4 0.0 **** 0.7918
4018 N 62.712 40.008 17.326 N.am 0.0 **** -0.1783
4019 CA 62.603 41.184 18.178 C.3 0.0 **** 0.1755
4020 C 62.279 40.778 19.613 C.2 0.0 **** 0.2457
4021 O 61.194 40.231 19.876 O.2 0.0 **** -0.2724
4022 CB 61.543 42.143 17.643 C.3 0.0 **** 0.0702
4023 CG 61.933 42.695 16.281 C.ar 0.0 **** -0.0452
4024 CD1 63.102 43.433 16.14 C.ar 0.0 **** 0.0063
4025 CD2 61.158 42.478 15.144 C.ar 0.0 **** 0.0063
4026 CE1 63.501 43.901 14.926 C.ar 0.0 **** 0.0332
4027 CE2 61.551 42.985 13.916 C.ar 0.0 **** 0.0332
4028 CZ 62.721 43.695 13.828 C.ar 0.0 **** 0.0713
4029 OH 63.141 44.218 12.648 O.3 0.0 **** -0.1427
4030 N 63.175 41.06 20.561 N.am 0.0 **** -0.3289
4031 CA 62.921 40.66 21.955 C.3 0.0 **** 0.1741
4032 C 61.686 41.287 22.569 C.2 0.0 **** 0.243
4033 O 61.077 40.67 23.45 O.2 0.0 **** -0.2727
4034 CB 64.192 41.122 22.679 C.3 0.0 **** 0.037
4035 CG 65.253 41.07 21.664 C.3 0.0 **** 0.0242
4036 CD 64.569 41.488 20.366 C.3 0.0 **** 0.1203
4037 N 61.315 42.501 22.17 N.am 0.0 **** -0.1787
4038 CA 60.105 43.105 22.72 C.3 0.0 **** 0.171
4039 C 58.865 42.294 22.388 C.2 0.0 **** 0.2427
4040 O 57.872 42.392 23.1 O.2 0.0 **** -0.2727
4041 CB 59.937 44.537 22.192 C.3 0.0 **** 0.0367
4042 CG 58.765 45.278 22.82 C.3 0.0 **** 0.0239
4043 CD 58.584 46.64 22.233 C.3 0.0 **** 0.1157
4044 NE 57.515 47.406 22.849 N.pl3 0.0 **** 0.138
4045 CZ 56.921 48.459 22.306 C.cat 0.0 **** 0.1634
4046 NH1 57.228 48.856 21.1 N.pl3 0.0 **** 0.2799
4047 NH2 55.972 49.104 22.969 N.pl3 0.0 **** 0.2799
4048 N 58.9 41.478 21.347 N.am 0.0 **** -0.1786
4049 CA 57.717 40.707 20.956 C.3 0.0 **** 0.1712
4050 C 57.643 39.44 21.791 C.2 0.0 **** 0.2428
4051 O 58.537 38.598 21.732 O.2 0.0 **** -0.2727
4052 CB 57.764 40.377 19.458 C.3 0.0 **** 0.0378
4053 CG 57.811 41.586 18.535 C.3 0.0 **** -0.0149
4054 CD1 57.804 41.177 17.039 C.3 0.0 **** 0.0072
4055 CD2 56.638 42.554 18.769 C.3 0.0 **** 0.0072
4056 N 56.559 39.302 22.554 N.am 0.0 **** -0.1786
4057 CA 56.363 38.149 23.428 C.3 0.0 **** 0.1717
4058 C 55.861 36.942 22.676 C.2 0.0 **** 0.2426
4059 O 55.937 35.818 23.194 O.2 0.0 **** -0.2727
4060 CB 55.342 38.491 24.51 C.3 0.0 **** 0.0457
4061 CG 55.771 39.652 25.417 C.3 0.0 **** 0.0716
4062 SD 54.462 40.38 26.41 S.3 0.0 **** -0.1653
4063 CE 53.788 38.915 27.198 C.3 0.0 **** 0.0847
4064 N 55.341 37.133 21.478 N.am 0.0 **** -0.1817
4065 CA 54.65 36.067 20.769 C.3 0.0 **** 0.2156
4066 C 53.168 36.349 20.624 C.2 0.0 **** 0.2394
4067 O 52.711 37.484 20.64 O.2 0.0 **** -0.273
4068 N 52.403 35.259 20.468 N.am 0.0 **** -0.1819
4069 CA 50.994 35.43 20.201 C.3 0.0 **** 0.2156
4070 C 50.173 34.182 20.424 C.2 0.0 **** 0.2396
4071 O 50.692 33.064 20.508 O.2 0.0 **** -0.273
4072 N 48.865 34.409 20.548 N.am 0.0 **** -0.1786
4073 CA 47.879 33.379 20.813 C.3 0.0 **** 0.1753
4074 C 46.924 33.323 19.632 C.2 0.0 **** 0.2431
4075 O 46.181 34.282 19.39 O.2 0.0 **** -0.2727
4076 CB 47.082 33.675 22.099 C.3 0.0 **** 0.0702
4077 CG 47.916 33.715 23.351 C.ar 0.0 **** -0.0454
4078 CD1 48.675 34.819 23.654 C.ar 0.0 **** 0.0036
4079 CD2 47.925 32.64 24.219 C.ar 0.0 **** 0.0036
4080 CE1 49.431 34.869 24.83 C.ar 0.0 **** 0.0003
4081 CE2 48.688 32.673 25.383 C.ar 0.0 **** 0.0003
4082 CZ 49.432 33.793 25.685 C.ar 0.0 **** 0.0
4083 N 46.918 32.19 18.929 N.am 0.0 **** -0.1784
4084 CA 46.037 32.026 17.781 C.3 0.0 **** 0.1735
4085 C 44.595 32.133 18.233 C.2 0.0 **** 0.243
4086 O 44.222 31.606 19.291 O.2 0.0 **** -0.2727
4087 CB 46.294 30.675 17.097 C.3 0.0 **** 0.0147
4088 CG1 45.307 30.491 15.932 C.3 0.0 **** 0.0099
4089 CG2 47.77 30.571 16.62 C.3 0.0 **** 0.0099
4090 N 43.794 32.777 17.401 N.am 0.0 **** -0.1783
4091 CA 42.327 32.759 17.558 C.3 0.0 **** 0.1754
4092 C 41.795 31.752 16.543 C.2 0.0 **** 0.2431
4093 O 41.881 32.041 15.386 O.2 0.0 **** -0.2727
4094 CB 41.647 34.115 17.369 C.3 0.0 **** 0.0724
4095 CG 40.225 33.946 17.768 C.2 0.0 **** -0.0201
4096 CD1 39.196 33.513 16.995 C.2 0.0 **** 0.0869
4097 CD2 39.731 33.981 19.105 C.2 0.0 **** 0.0027
4098 NE1 38.082 33.326 17.749 N.pl3 0.0 **** -0.195
4099 CE2 38.375 33.625 19.045 C.2 0.0 **** 0.0456
4100 CE3 40.294 34.293 20.339 C.2 0.0 **** 0.0104
4101 CZ2 37.579 33.594 20.177 C.2 0.0 **** 0.0265
4102 CZ3 39.503 34.252 21.456 C.2 0.0 **** 0.0008
4103 CH2 38.164 33.901 21.374 C.2 0.0 **** 0.0022
4104 N 41.27 30.62 16.989 N.am 0.0 **** -0.1786
4105 CA 41.273 30.113 18.36 C.3 0.0 **** 0.1714
4106 C 41.517 28.615 18.326 C.2 0.0 **** 0.2428
4107 O 41.541 28.006 17.272 O.2 0.0 **** -0.2727
4108 CB 39.95 30.364 19.081 C.3 0.0 **** 0.0434
4109 CG 38.742 29.666 18.415 C.3 0.0 **** 0.0873
4110 CD 37.428 29.926 19.162 C.2 0.0 **** 0.1859
4111 OE1 37.403 29.662 20.367 O.co2 0.0 **** -0.6397
4112 OE2 36.416 30.353 18.561 O.co2 0.0 **** -0.6397
4113 N 41.68 28.027 19.511 N.am 0.0 **** -0.1783
4114 CA 41.91 26.579 19.583 C.3 0.0 **** 0.1754
4115 C 40.796 25.791 18.91 C.2 0.0 **** 0.2431
4116 O 41.06 24.964 18.015 O.2 0.0 **** -0.2727
4117 CB 42.082 26.165 21.043 C.3 0.0 **** 0.0724
4118 CG 42.106 24.683 21.29 C.2 0.0 **** -0.0201
4119 CD1 41.219 23.96 22.052 C.2 0.0 **** 0.0869
4120 CD2 43.075 23.75 20.814 C.2 0.0 **** 0.0027
4121 NE1 41.588 22.631 22.074 N.pl3 0.0 **** -0.195
4122 CE2 42.709 22.477 21.303 C.2 0.0 **** 0.0456
4123 CE3 44.202 23.856 19.991 C.2 0.0 **** 0.0104
4124 CZ2 43.443 21.338 21.027 C.2 0.0 **** 0.0265
4125 CZ3 44.924 22.721 19.702 C.2 0.0 **** 0.0008
4126 CH2 44.542 21.475 20.222 C.2 0.0 **** 0.0022
4127 N 39.546 26.005 19.312 N.am 0.0 **** -0.1786
4128 CA 38.499 25.124 18.823 C.3 0.0 **** 0.1712
4129 C 37.369 25.843 18.098 C.2 0.0 **** 0.2428
4130 O 37.038 26.998 18.373 O.2 0.0 **** -0.2727
4131 CB 37.905 24.264 19.937 C.3 0.0 **** 0.0378
4132 CG 37.579 24.88 21.29 C.3 0.0 **** -0.0149
4133 CD1 36.38 25.821 21.17 C.3 0.0 **** 0.0072
4134 CD2 37.272 23.775 22.271 C.3 0.0 **** 0.0072
4135 N 36.812 25.114 17.13 N.am 0.0 **** -0.1786
4136 CA 35.538 25.463 16.526 C.3 0.0 **** 0.1714
4137 C 34.434 25.108 17.506 C.2 0.0 **** 0.2428
4138 O 34.433 24.016 18.073 O.2 0.0 **** -0.2727
4139 CB 35.332 24.663 15.239 C.3 0.0 **** 0.0434
4140 CG 36.309 24.925 14.099 C.3 0.0 **** 0.0873
4141 CD 36.041 24.045 12.883 C.2 0.0 **** 0.1859
4142 OE1 35.209 23.104 12.992 O.co2 0.0 **** -0.6397
4143 OE2 36.656 24.298 11.818 O.co2 0.0 **** -0.6397
4144 N 33.47 26.007 17.687 N.am 0.0 **** -0.1783
4145 CA 32.331 25.695 18.557 C.3 0.0 **** 0.1768
4146 C 31.188 25.043 17.789 C.2 0.0 **** 0.2429
4147 O 30.025 25.405 17.98 O.2 0.0 **** -0.2727
4148 CB 31.809 26.945 19.266 C.3 0.0 **** 0.0902
4149 CG 32.837 27.755 20.001 C.2 0.0 **** 0.037
4150 ND1 32.555 28.367 21.205 N.pl3 0.0 **** -0.1813
4151 CD2 34.116 28.1 19.694 C.2 0.0 **** 0.1339
4152 CE1 33.617 29.047 21.611 C.2 0.0 **** 0.1962
4153 NE2 34.581 28.898 20.717 N.2 0.0 **** -0.2451
4154 N 31.454 24.093 16.899 N.am 0.0 **** -0.1817
4155 CA 30.367 23.396 16.254 C.3 0.0 **** 0.2156
4156 C 29.5 22.668 17.258 C.2 0.0 **** 0.2396
4157 O 29.972 22.204 18.305 O.2 0.0 **** -0.273
4158 N 28.215 22.556 16.923 N.am 0.0 **** -0.1787
4159 CA 27.26 21.801 17.722 C.3 0.0 **** 0.1738
4160 C 26.727 20.673 16.864 C.2 0.0 **** 0.2431
4161 O 26.152 20.915 15.801 O.2 0.0 **** -0.2727
4162 CB 26.126 22.686 18.253 C.3 0.0 **** 0.0176
4163 CG1 26.702 23.617 19.337 C.3 0.0 **** 0.0024
4164 CG2 24.993 21.802 18.826 C.3 0.0 **** 0.0102
4165 CD1 25.687 24.537 20.039 C.3 0.0 **** 0.0041
4166 N 26.902 19.439 17.338 N.am 0.0 **** -0.1763
4167 CA 26.469 18.283 16.579 C.3 0.0 **** 0.1996
4168 C 24.963 18.326 16.343 C.2 0.0 **** 0.2454
4169 O 24.177 18.463 17.288 O.2 0.0 **** -0.2726
4170 CB 26.812 16.992 17.317 C.3 0.0 **** 0.1429
4171 OG1 28.206 16.941 17.616 O.3 0.0 **** -0.1801
4172 CG2 26.443 15.8 16.468 C.3 0.0 **** 0.0409
4173 N 24.586 18.13 15.087 N.am 0.0 **** -0.1783
4174 CA 23.164 18.063 14.658 C.3 0.0 **** 0.1735
4175 C 22.968 16.82 13.787 C.2 0.0 **** 0.2431
4176 O 23.927 16.315 13.254 O.2 0.0 **** -0.2727
4177 CB 22.689 19.342 13.948 C.3 0.0 **** 0.0147
4178 CG1 22.681 20.531 14.879 C.3 0.0 **** 0.0099
4179 CG2 23.5 19.651 12.717 C.3 0.0 **** 0.0099
4180 N 21.722 16.401 13.623 N.am 0.0 **** -0.1765
4181 CA 21.369 15.202 12.82 C.3 0.0 **** 0.1967
4182 C 20.531 15.588 11.596 C.2 0.0 **** 0.2452
4183 O 19.619 16.399 11.724 O.2 0.0 **** -0.2726
4184 CB 20.62 14.228 13.666 C.3 0.0 **** 0.1907
4185 OG 21.369 13.919 14.826 O.3 0.0 **** -0.1835
4186 N 20.84 14.981 10.455 N.am 0.0 **** -0.1762
4187 CA 20.026 15.172 9.225 C.3 0.0 **** 0.1996
4188 C 18.927 14.083 9.222 C.2 0.0 **** 0.2454
4189 O 18.796 13.36 10.238 O.2 0.0 **** -0.2726
4190 CB 20.958 15.463 8.037 C.3 0.0 **** 0.1429
4191 OG1 20.565 16.624 7.302 O.3 0.0 **** -0.1801
4192 CG2 21.218 14.289 7.124 C.3 0.0 **** 0.0409
4193 N 18.226 13.94 8.089 N.am 0.0 **** -0.1789
4194 CA 17.089 13.003 7.89 C.3 0.0 **** 0.1678
4195 C 17.493 11.529 8.036 C.2 0.0 **** 0.2425
4196 O 16.777 10.805 8.737 O.2 0.0 **** -0.2727
4197 CB 16.45 13.263 6.556 C.3 0.0 **** 0.0414
4198 N 18.618 11.109 7.445 N.am 0.0 **** -0.1782
4199 CA 19.032 9.681 7.535 C.3 0.0 **** 0.1789
4200 C 19.904 9.488 8.773 C.2 0.0 **** 0.243
4201 O 20.491 8.409 8.922 O.2 0.0 **** -0.2727
4202 CB 19.69 9.128 6.266 C.3 0.0 **** 0.1195
4203 CG 19.529 7.614 6.111 C.2 0.0 **** 0.1884
4204 OD1 18.931 6.981 7.011 O.co2 0.0 **** -0.6396
4205 OD2 19.979 7.069 5.087 O.co2 0.0 **** -0.6396
4206 N 19.886 10.456 9.686 N.am 0.0 **** -0.1817
4207 CA 20.737 10.319 10.878 C.3 0.0 **** 0.2156
4208 C 22.19 10.558 10.525 C.2 0.0 **** 0.2396
4209 O 23.056 9.898 11.11 O.2 0.0 **** -0.273
4210 N 22.431 11.333 9.47 N.am 0.0 **** -0.1787
4211 CA 23.827 11.749 9.157 C.3 0.0 **** 0.1735
4212 C 24.178 12.804 10.212 C.2 0.0 **** 0.243
4213 O 23.302 13.596 10.545 O.2 0.0 **** -0.2727
4214 CB 23.93 12.346 7.746 C.3 0.0 **** 0.0147
4215 CG1 25.375 12.361 7.287 C.3 0.0 **** 0.0099
4216 CG2 23.045 11.603 6.758 C.3 0.0 **** 0.0099
4217 N 25.416 12.834 10.683 N.am 0.0 **** -0.1782
4218 CA 25.796 13.816 11.725 C.3 0.0 **** 0.1789
4219 C 26.671 14.902 11.101 C.2 0.0 **** 0.2432
4220 O 27.524 14.564 10.295 O.2 0.0 **** -0.2727
4221 CB 26.557 13.118 12.846 C.3 0.0 **** 0.1195
4222 CG 25.673 12.546 13.929 C.2 0.0 **** 0.1884
4223 OD1 24.456 12.592 13.775 O.co2 0.0 **** -0.6396
4224 OD2 26.224 12.103 14.924 O.co2 0.0 **** -0.6396
4225 N 26.44 16.158 11.471 N.am 0.0 **** -0.1782
4226 CA 27.267 17.253 10.999 C.3 0.0 **** 0.1769
4227 C 27.222 18.342 12.059 C.2 0.0 **** 0.2432
4228 O 26.397 18.299 12.975 O.2 0.0 **** -0.2727
4229 CB 26.78 17.766 9.635 C.3 0.0 **** 0.0902
4230 CG 25.437 18.431 9.679 C.2 0.0 **** 0.037
4231 ND1 25.289 19.804 9.746 N.pl3 0.0 **** -0.1813
4232 CD2 24.185 17.915 9.682 C.2 0.0 **** 0.1339
4233 CE1 23.999 20.101 9.774 C.2 0.0 **** 0.1962
4234 NE2 23.311 18.973 9.738 N.2 0.0 **** -0.2451
4235 N 28.132 19.3 11.959 N.am 0.0 **** -0.1783
4236 CA 28.14 20.4 12.912 C.3 0.0 **** 0.1753
4237 C 27.223 21.519 12.426 C.2 0.0 **** 0.2429
4238 O 27.206 21.848 11.24 O.2 0.0 **** -0.2727
4239 CB 29.559 20.94 13.123 C.3 0.0 **** 0.0702
4240 CG 30.514 19.954 13.745 C.ar 0.0 **** -0.0452
4241 CD1 30.301 19.479 15.037 C.ar 0.0 **** 0.0063
4242 CD2 31.646 19.521 13.061 C.ar 0.0 **** 0.0063
4243 CE1 31.195 18.587 15.628 C.ar 0.0 **** 0.0332
4244 CE2 32.547 18.63 13.64 C.ar 0.0 **** 0.0332
4245 CZ 32.313 18.168 14.915 C.ar 0.0 **** 0.0713
4246 OH 33.2 17.293 15.482 O.3 0.0 **** -0.1427
4247 N 26.461 22.097 13.354 N.am 0.0 **** -0.1817
4248 CA 25.725 23.313 13.103 C.3 0.0 **** 0.2156
4249 C 26.436 24.537 13.659 C.2 0.0 **** 0.2396
4250 O 27.345 24.429 14.485 O.2 0.0 **** -0.273
4251 N 26.009 25.713 13.201 N.am 0.0 **** -0.1786
4252 CA 26.586 26.973 13.66 C.3 0.0 **** 0.1753
4253 C 25.466 28.013 13.773 C.2 0.0 **** 0.2429
4254 O 24.277 27.686 13.782 O.2 0.0 **** -0.2727
4255 CB 27.739 27.397 12.728 C.3 0.0 **** 0.0702
4256 CG 27.412 27.339 11.228 C.ar 0.0 **** -0.0452
4257 CD1 26.522 28.228 10.665 C.ar 0.0 **** 0.0063
4258 CD2 28.025 26.415 10.395 C.ar 0.0 **** 0.0063
4259 CE1 26.225 28.197 9.298 C.ar 0.0 **** 0.0332
4260 CE2 27.74 26.366 9.01 C.ar 0.0 **** 0.0332
4261 CZ 26.844 27.26 8.476 C.ar 0.0 **** 0.0713
4262 OH 26.565 27.214 7.098 O.3 0.0 **** -0.1427
4263 N 25.85 29.281 13.879 N.am 0.0 **** -0.1817
4264 CA 24.893 30.357 14.063 C.3 0.0 **** 0.2156
4265 C 23.788 30.352 13.029 C.2 0.0 **** 0.2394
4266 O 24.063 30.237 11.833 O.2 0.0 **** -0.273
4267 N 22.537 30.468 13.477 N.am 0.0 **** -0.1819
4268 CA 21.392 30.45 12.593 C.3 0.0 **** 0.2156
4269 C 20.796 29.076 12.361 C.2 0.0 **** 0.2396
4270 O 19.645 28.981 11.929 O.2 0.0 **** -0.273
4271 N 21.543 28.013 12.634 N.am 0.0 **** -0.1784
4272 CA 21.032 26.65 12.495 C.3 0.0 **** 0.1789
4273 C 20.064 26.258 13.604 C.2 0.0 **** 0.2432
4274 O 19.511 25.152 13.565 O.2 0.0 **** -0.2727
4275 CB 22.202 25.662 12.453 C.3 0.0 **** 0.1195
4276 CG 22.999 25.778 11.164 C.2 0.0 **** 0.1884
4277 OD1 22.411 26.236 10.175 O.co2 0.0 **** -0.6396
4278 OD2 24.193 25.417 11.133 O.co2 0.0 **** -0.6396
4279 N 19.831 27.137 14.575 N.am 0.0 **** -0.1783
4280 CA 18.973 26.834 15.711 C.3 0.0 **** 0.1753
4281 C 17.852 27.852 15.846 C.2 0.0 **** 0.2429
4282 O 17.329 28.074 16.936 O.2 0.0 **** -0.2727
4283 CB 19.816 26.749 16.989 C.3 0.0 **** 0.0702
4284 CG 20.872 25.704 16.902 C.ar 0.0 **** -0.0454
4285 CD1 20.575 24.386 17.19 C.ar 0.0 **** 0.0036
4286 CD2 22.142 26.029 16.434 C.ar 0.0 **** 0.0036
4287 CE1 21.54 23.409 17.069 C.ar 0.0 **** 0.0003
4288 CE2 23.128 25.057 16.299 C.ar 0.0 **** 0.0003
4289 CZ 22.838 23.747 16.614 C.ar 0.0 **** 0.0
4290 N 17.469 28.467 14.732 N.am 0.0 **** -0.1817
4291 CA 16.313 29.327 14.729 C.3 0.0 **** 0.2156
4292 C 16.545 30.719 15.256 C.2 0.0 **** 0.2396
4293 O 15.578 31.466 15.41 O.2 0.0 **** -0.273
4294 N 17.79 31.118 15.491 N.am 0.0 **** -0.1789
4295 CA 18.033 32.439 16.049 C.3 0.0 **** 0.1714
4296 C 17.482 33.518 15.135 C.2 0.0 **** 0.2428
4297 O 17.64 33.461 13.912 O.2 0.0 **** -0.2727
4298 CB 19.522 32.689 16.253 C.3 0.0 **** 0.0434
4299 CG 20.188 31.652 17.116 C.3 0.0 **** 0.0873
4300 CD 20.882 30.616 16.281 C.2 0.0 **** 0.1859
4301 OE1 20.195 29.997 15.435 O.co2 0.0 **** -0.6397
4302 OE2 22.107 30.443 16.453 O.co2 0.0 **** -0.6397
4303 N 16.865 34.523 15.762 N.am 0.0 **** -0.1786
4304 CA 16.469 35.754 15.086 C.3 0.0 **** 0.1714
4305 C 17.678 36.608 14.701 C.2 0.0 **** 0.2428
4306 O 17.67 37.264 13.653 O.2 0.0 **** -0.2727
4307 CB 15.545 36.555 16.004 C.3 0.0 **** 0.0434
4308 CG 15.322 38.012 15.613 C.3 0.0 **** 0.0873
4309 CD 14.773 38.83 16.782 C.2 0.0 **** 0.1859
4310 OE1 15.567 39.433 17.588 O.co2 0.0 **** -0.6397
4311 OE2 13.532 38.824 16.899 O.co2 0.0 **** -0.6397
4312 N 18.679 36.7 15.575 N.am 0.0 **** -0.1784
4313 CA 19.933 37.37 15.242 C.3 0.0 **** 0.1735
4314 C 21.071 36.435 15.606 C.2 0.0 **** 0.243
4315 O 21.063 35.784 16.658 O.2 0.0 **** -0.2727
4316 CB 20.1 38.749 15.925 C.3 0.0 **** 0.0147
4317 CG1 18.856 39.621 15.693 C.3 0.0 **** 0.0099
4318 CG2 20.356 38.619 17.355 C.3 0.0 **** 0.0099
4319 N 22.045 36.363 14.719 N.am 0.0 **** -0.1782
4320 CA 23.137 35.425 14.881 C.3 0.0 **** 0.1769
4321 C 24.268 35.865 13.969 C.2 0.0 **** 0.2432
4322 O 24.115 36.774 13.144 O.2 0.0 **** -0.2727
4323 CB 22.688 34.012 14.536 C.3 0.0 **** 0.0902
4324 CG 22.287 33.857 13.095 C.2 0.0 **** 0.037
4325 ND1 23.203 33.621 12.092 N.pl3 0.0 **** -0.1813
4326 CD2 21.075 33.957 12.486 C.2 0.0 **** 0.1339
4327 CE1 22.572 33.55 10.932 C.2 0.0 **** 0.1962
4328 NE2 21.283 33.766 11.14 N.2 0.0 **** -0.2451
4329 N 25.399 35.185 14.107 N.am 0.0 **** -0.1782
4330 CA 26.559 35.509 13.297 C.3 0.0 **** 0.1789
4331 C 27.091 34.292 12.538 C.2 0.0 **** 0.243
4332 O 28.271 34.241 12.183 O.2 0.0 **** -0.2727
4333 CB 27.623 36.165 14.172 C.3 0.0 **** 0.1195
4334 CG 27.212 37.56 14.587 C.2 0.0 **** 0.1884
4335 OD1 27.388 38.466 13.739 O.co2 0.0 **** -0.6396
4336 OD2 26.648 37.734 15.712 O.co2 0.0 **** -0.6396
4337 N 26.217 33.336 12.234 N.am 0.0 **** -0.1817
4338 CA 26.549 32.333 11.232 C.3 0.0 **** 0.2156
4339 C 27.71 31.456 11.655 C.2 0.0 **** 0.2396
4340 O 27.816 31.033 12.815 O.2 0.0 **** -0.273
4341 N 28.606 31.16 10.706 N.am 0.0 **** -0.1784
4342 CA 29.668 30.209 10.988 C.3 0.0 **** 0.1802
4343 C 30.911 30.87 11.601 C.2 0.0 **** 0.2433
4344 O 31.975 30.255 11.634 O.2 0.0 **** -0.2727
4345 CB 30.015 29.414 9.723 C.3 0.0 **** 0.1344
4346 CG 30.908 30.172 8.779 C.2 0.0 **** 0.2196
4347 OD1 30.795 31.393 8.627 O.2 0.0 **** -0.2752
4348 ND2 31.828 29.443 8.149 N.am 0.0 **** -0.0514
4349 N 30.782 32.085 12.133 N.am 0.0 **** -0.1783
4350 CA 31.905 32.748 12.779 C.3 0.0 **** 0.1753
4351 C 32.291 32.072 14.083 C.2 0.0 **** 0.2431
4352 O 33.383 32.31 14.6 O.2 0.0 **** -0.2727
4353 CB 31.545 34.221 13.01 C.3 0.0 **** 0.0702
4354 CG 32.711 35.127 12.936 C.ar 0.0 **** -0.0454
4355 CD1 33.274 35.41 11.729 C.ar 0.0 **** 0.0036
4356 CD2 33.285 35.648 14.099 C.ar 0.0 **** 0.0036
4357 CE1 34.353 36.208 11.624 C.ar 0.0 **** 0.0003
4358 CE2 34.402 36.489 14.004 C.ar 0.0 **** 0.0003
4359 CZ 34.937 36.751 12.76 C.ar 0.0 **** 0.0
4360 N 31.458 31.166 14.56 N.am 0.0 **** -0.1784
4361 CA 31.76 30.396 15.791 C.3 0.0 **** 0.1735
4362 C 32.603 29.181 15.408 C.2 0.0 **** 0.2431
4363 O 33.172 28.597 16.295 O.2 0.0 **** -0.2727
4364 CB 30.489 30.013 16.559 C.3 0.0 **** 0.0147
4365 CG1 29.922 28.696 16.083 C.3 0.0 **** 0.0099
4366 CG2 30.751 29.994 18.044 C.3 0.0 **** 0.0099
4367 N 32.666 28.825 14.126 N.am 0.0 **** -0.1763
4368 CA 33.529 27.727 13.697 C.3 0.0 **** 0.1996
4369 C 34.788 28.332 13.064 C.2 0.0 **** 0.2454
4370 O 34.914 28.473 11.849 O.2 0.0 **** -0.2726
4371 CB 32.772 26.784 12.768 C.3 0.0 **** 0.1429
4372 OG1 32.236 27.521 11.638 O.3 0.0 **** -0.1801
4373 CG2 31.615 26.127 13.528 C.3 0.0 **** 0.0409
4374 N 35.74 28.686 13.93 N.am 0.0 **** -0.1781
4375 CA 36.916 29.49 13.58 C.3 0.0 **** 0.1789
4376 C 38.173 28.972 14.282 C.2 0.0 **** 0.243
4377 O 39.01 29.755 14.742 O.2 0.0 **** -0.2727
4378 CB 36.67 30.971 13.928 C.3 0.0 **** 0.1195
4379 CG 36.396 31.194 15.395 C.2 0.0 **** 0.1884
4380 OD1 36.313 30.199 16.146 O.co2 0.0 **** -0.6396
4381 OD2 36.263 32.356 15.797 O.co2 0.0 **** -0.6396
4382 N 38.323 27.648 14.373 N.am 0.0 **** -0.1817
4383 CA 39.334 27.036 15.211 C.3 0.0 **** 0.2156
4384 C 40.358 26.201 14.452 C.2 0.0 **** 0.2396
4385 O 40.191 25.883 13.269 O.2 0.0 **** -0.273
4386 N 41.472 25.921 15.156 N.am 0.0 **** -0.1789
4387 CA 42.536 25.013 14.71 C.3 0.0 **** 0.1712
4388 C 42.117 23.548 14.767 C.2 0.0 **** 0.2428
4389 O 42.71 22.717 14.059 O.2 0.0 **** -0.2727
4390 CB 43.791 25.213 15.585 C.3 0.0 **** 0.0378
4391 CG 44.439 26.617 15.527 C.3 0.0 **** -0.0149
4392 CD1 45.455 26.802 16.621 C.3 0.0 **** 0.0072
4393 CD2 45.077 26.733 14.135 C.3 0.0 **** 0.0072
4394 N 41.117 23.211 15.582 N.am 0.0 **** -0.1784
4395 CA 40.575 21.859 15.678 C.3 0.0 **** 0.1735
4396 C 39.059 21.954 15.613 C.2 0.0 **** 0.243
4397 O 38.47 22.976 15.955 O.2 0.0 **** -0.2727
4398 CB 40.997 21.107 16.966 C.3 0.0 **** 0.0147
4399 CG1 42.514 21.109 17.122 C.3 0.0 **** 0.0099
4400 CG2 40.384 21.689 18.228 C.3 0.0 **** 0.0099
4401 N 38.42 20.871 15.168 N.am 0.0 **** -0.1782
4402 CA 36.969 20.915 15.169 C.3 0.0 **** 0.1789
4403 C 36.49 20.683 16.6 C.2 0.0 **** 0.2432
4404 O 37.293 20.553 17.534 O.2 0.0 **** -0.2727
4405 CB 36.373 19.949 14.129 C.3 0.0 **** 0.1195
4406 CG 36.464 18.469 14.507 C.2 0.0 **** 0.1884
4407 OD1 36.716 18.118 15.679 O.co2 0.0 **** -0.6396
4408 OD2 36.241 17.628 13.588 O.co2 0.0 **** -0.6396
4409 N 35.171 20.701 16.789 N.am 0.0 **** -0.1789
4410 CA 34.614 20.622 18.148 C.3 0.0 **** 0.1678
4411 C 34.903 19.28 18.805 C.2 0.0 **** 0.2425
4412 O 34.805 19.166 20.031 O.2 0.0 **** -0.2727
4413 CB 33.107 20.864 18.109 C.3 0.0 **** 0.0414
4414 N 35.215 18.261 18.017 N.am 0.0 **** -0.1782
4415 CA 35.622 16.963 18.543 C.3 0.0 **** 0.1789
4416 C 37.141 16.82 18.592 C.2 0.0 **** 0.2432
4417 O 37.655 15.71 18.786 O.2 0.0 **** -0.2727
4418 CB 34.97 15.856 17.725 C.3 0.0 **** 0.1195
4419 CG 33.525 15.599 18.175 C.2 0.0 **** 0.1884
4420 OD1 33.335 14.979 19.248 O.co2 0.0 **** -0.6396
4421 OD2 32.589 16.091 17.526 O.co2 0.0 **** -0.6396
4422 N 37.855 17.933 18.466 N.am 0.0 **** -0.1786
4423 CA 39.303 18.023 18.632 C.3 0.0 **** 0.171
4424 C 40.068 17.329 17.502 C.2 0.0 **** 0.2427
4425 O 41.236 16.959 17.675 O.2 0.0 **** -0.2727
4426 CB 39.753 17.501 20.016 C.3 0.0 **** 0.0367
4427 CG 39.645 18.559 21.106 C.3 0.0 **** 0.0239
4428 CD 38.193 18.978 21.451 C.3 0.0 **** 0.1157
4429 NE 38.134 19.836 22.629 N.pl3 0.0 **** 0.138
4430 CZ 37.02 20.325 23.165 C.cat 0.0 **** 0.1634
4431 NH1 35.84 20.086 22.634 N.pl3 0.0 **** 0.2799
4432 NH2 37.083 21.069 24.243 N.pl3 0.0 **** 0.2799
4433 N 39.445 17.175 16.322 N.am 0.0 **** -0.1786
4434 CA 40.171 16.714 15.137 C.3 0.0 **** 0.1712
4435 C 40.943 17.875 14.501 C.2 0.0 **** 0.2453
4436 O 40.354 18.928 14.235 O.2 0.0 **** -0.2724
4437 CB 39.199 16.111 14.103 C.3 0.0 **** 0.0367
4438 CG 38.489 14.88 14.638 C.3 0.0 **** 0.0239
4439 CD 37.577 14.236 13.607 C.3 0.0 **** 0.1157
4440 NE 36.324 14.973 13.546 N.pl3 0.0 **** 0.138
4441 CZ 35.14 14.519 13.945 C.cat 0.0 **** 0.1634
4442 NH1 35.012 13.293 14.418 N.pl3 0.0 **** 0.2799
4443 NH2 34.073 15.299 13.847 N.pl3 0.0 **** 0.2799
4444 N 42.249 17.746 14.269 N.am 0.0 **** -0.3289
4445 CA 42.98 18.841 13.731 C.3 0.0 **** 0.1741
4446 C 42.517 19.336 12.365 C.2 0.0 **** 0.243
4447 O 42.194 18.562 11.551 O.2 0.0 **** -0.2727
4448 CB 44.386 18.265 13.549 C.3 0.0 **** 0.037
4449 CG 44.48 17.201 14.585 C.3 0.0 **** 0.0242
4450 CD 43.086 16.629 14.645 C.3 0.0 **** 0.1203
4451 N 42.364 20.643 12.238 N.am 0.0 **** -0.1786
4452 CA 42.294 21.249 10.924 C.3 0.0 **** 0.1712
4453 C 43.699 21.4 10.352 C.2 0.0 **** 0.2453
4454 O 44.683 21.415 11.094 O.2 0.0 **** -0.2724
4455 CB 41.622 22.614 10.986 C.3 0.0 **** 0.0367
4456 CG 40.183 22.603 11.516 C.3 0.0 **** 0.0239
4457 CD 39.309 21.737 10.665 C.3 0.0 **** 0.1157
4458 NE 37.881 21.909 10.917 N.pl3 0.0 **** 0.138
4459 CZ 36.975 20.988 10.623 C.cat 0.0 **** 0.1634
4460 NH1 37.352 19.842 10.054 N.pl3 0.0 **** 0.2799
4461 NH2 35.706 21.204 10.903 N.pl3 0.0 **** 0.2799
4462 N 43.817 21.519 9.034 N.am 0.0 **** -0.3289
4463 CA 45.139 21.765 8.429 C.3 0.0 **** 0.1741
4464 C 45.885 22.923 9.078 C.2 0.0 **** 0.2428
4465 O 47.117 22.857 9.225 O.2 0.0 **** -0.2727
4466 CB 44.797 22.044 6.955 C.3 0.0 **** 0.037
4467 CG 43.509 21.283 6.701 C.3 0.0 **** 0.0242
4468 CD 42.75 21.353 8.037 C.3 0.0 **** 0.1203
4469 N 45.164 23.975 9.518 N.am 0.0 **** -0.1817
4470 CA 45.823 25.091 10.17 C.3 0.0 **** 0.2156
4471 C 46.627 24.678 11.39 C.2 0.0 **** 0.2396
4472 O 47.69 25.233 11.643 O.2 0.0 **** -0.273
4473 N 46.173 23.664 12.126 N.am 0.0 **** -0.1789
4474 CA 46.94 23.214 13.284 C.3 0.0 **** 0.1712
4475 C 48.205 22.486 12.861 C.2 0.0 **** 0.2428
4476 O 49.254 22.647 13.48 O.2 0.0 **** -0.2727
4477 CB 46.094 22.313 14.172 C.3 0.0 **** 0.0378
4478 CG 46.828 21.759 15.4 C.3 0.0 **** -0.0149
4479 CD1 47.232 22.925 16.325 C.3 0.0 **** 0.0072
4480 CD2 45.966 20.782 16.144 C.3 0.0 **** 0.0072
4481 N 48.127 21.693 11.798 N.am 0.0 **** -0.1786
4482 CA 49.31 21.002 11.311 C.3 0.0 **** 0.1712
4483 C 50.348 22.001 10.825 C.2 0.0 **** 0.2428
4484 O 51.557 21.802 11.039 O.2 0.0 **** -0.2727
4485 CB 48.924 20.039 10.193 C.3 0.0 **** 0.0378
4486 CG 47.702 19.194 10.507 C.3 0.0 **** -0.0149
4487 CD1 47.38 18.329 9.316 C.3 0.0 **** 0.0072
4488 CD2 47.949 18.352 11.725 C.3 0.0 **** 0.0072
4489 N 49.896 23.099 10.193 N.am 0.0 **** -0.1782
4490 CA 50.833 24.145 9.775 C.3 0.0 **** 0.1789
4491 C 51.387 24.905 10.988 C.2 0.0 **** 0.2432
4492 O 52.597 25.134 11.094 O.2 0.0 **** -0.2727
4493 CB 50.169 25.129 8.814 C.3 0.0 **** 0.1195
4494 CG 49.884 24.518 7.439 C.2 0.0 **** 0.1884
4495 OD1 50.507 23.485 7.118 O.co2 0.0 **** -0.6396
4496 OD2 49.045 25.093 6.702 O.co2 0.0 **** -0.6396
4497 N 50.517 25.264 11.93 N.am 0.0 **** -0.1783
4498 CA 50.946 25.992 13.132 C.3 0.0 **** 0.1753
4499 C 51.99 25.212 13.922 C.2 0.0 **** 0.2431
4500 O 53.0 25.789 14.344 O.2 0.0 **** -0.2727
4501 CB 49.72 26.303 13.981 C.3 0.0 **** 0.0702
4502 CG 50.007 27.131 15.215 C.ar 0.0 **** -0.0454
4503 CD1 50.618 28.368 15.121 C.ar 0.0 **** 0.0036
4504 CD2 49.592 26.703 16.442 C.ar 0.0 **** 0.0036
4505 CE1 50.837 29.147 16.234 C.ar 0.0 **** 0.0003
4506 CE2 49.806 27.478 17.568 C.ar 0.0 **** 0.0003
4507 CZ 50.454 28.685 17.463 C.ar 0.0 **** 0.0
4508 N 51.79 23.902 14.094 N.am 0.0 **** -0.1786
4509 CA 52.782 23.096 14.793 C.3 0.0 **** 0.1709
4510 C 54.171 23.338 14.231 C.2 0.0 **** 0.2427
4511 O 55.157 23.454 14.983 O.2 0.0 **** -0.2727
4512 CB 52.433 21.599 14.707 C.3 0.0 **** 0.035
4513 CG 53.537 20.706 15.267 C.3 0.0 **** 0.0062
4514 CD 53.194 19.237 15.269 C.3 0.0 **** 0.0387
4515 CE 54.327 18.4 15.897 C.3 0.0 **** 0.1659
4516 NZ 54.078 16.921 15.744 N.4 0.0 **** 0.7918
4517 N 54.264 23.367 12.91 N.am 0.0 **** -0.1787
4518 CA 55.542 23.56 12.235 C.3 0.0 **** 0.1709
4519 C 56.054 24.984 12.4 C.2 0.0 **** 0.2428
4520 O 57.242 25.193 12.665 O.2 0.0 **** -0.2727
4521 CB 55.396 23.206 10.748 C.3 0.0 **** 0.035
4522 CG 56.575 23.592 9.885 C.3 0.0 **** 0.0062
4523 CD 57.83 22.841 10.281 C.3 0.0 **** 0.0387
4524 CE 58.94 23.133 9.26 C.3 0.0 **** 0.1659
4525 NZ 60.159 22.373 9.525 N.4 0.0 **** 0.7918
4526 N 55.177 25.973 12.251 N.am 0.0 **** -0.1784
4527 CA 55.582 27.37 12.384 C.3 0.0 **** 0.1735
4528 C 56.241 27.617 13.746 C.2 0.0 **** 0.243
4529 O 57.261 28.321 13.85 O.2 0.0 **** -0.2727
4530 CB 54.361 28.276 12.173 C.3 0.0 **** 0.0147
4531 CG1 54.654 29.758 12.566 C.3 0.0 **** 0.0099
4532 CG2 53.872 28.225 10.683 C.3 0.0 **** 0.0099
4533 N 55.651 27.08 14.815 N.am 0.0 **** -0.1784
4534 CA 56.16 27.327 16.174 C.3 0.0 **** 0.1738
4535 C 57.102 26.22 16.656 C.2 0.0 **** 0.243
4536 O 57.395 26.15 17.853 O.2 0.0 **** -0.2727
4537 CB 55.02 27.518 17.183 C.3 0.0 **** 0.0176
4538 CG1 54.14 26.27 17.231 C.3 0.0 **** 0.0024
4539 CG2 54.209 28.79 16.852 C.3 0.0 **** 0.0102
4540 CD1 53.174 26.232 18.378 C.3 0.0 **** 0.0041
4541 N 57.606 25.365 15.765 N.am 0.0 **** -0.1786
4542 CA 58.446 24.26 16.248 C.3 0.0 **** 0.1716
4543 C 59.626 24.82 17.042 C.2 0.0 **** 0.2454
4544 O 60.22 25.828 16.65 O.2 0.0 **** -0.2724
4545 CB 58.942 23.359 15.083 C.3 0.0 **** 0.0434
4546 CG 59.899 23.992 14.102 C.3 0.0 **** 0.0873
4547 CD 60.217 23.091 12.893 C.2 0.0 **** 0.1859
4548 OE1 59.858 21.875 12.893 O.co2 0.0 **** -0.6397
4549 OE2 60.817 23.625 11.937 O.co2 0.0 **** -0.6397
4550 N 59.981 24.211 18.178 N.am 0.0 **** -0.3289
4551 CA 60.967 24.824 19.081 C.3 0.0 **** 0.1741
4552 C 62.427 24.574 18.722 C.2 0.0 **** 0.243
4553 O 63.313 25.073 19.444 O.2 0.0 **** -0.2727
4554 CB 60.633 24.159 20.413 C.3 0.0 **** 0.037
4555 CG 60.249 22.781 19.991 C.3 0.0 **** 0.0242
4556 CD 59.381 23.004 18.778 C.3 0.0 **** 0.1203
4557 N 62.689 23.793 17.667 N.am 0.0 **** -0.1786
4558 CA 64.018 23.561 17.124 C.3 0.0 **** 0.1712
4559 C 63.995 23.907 15.645 C.2 0.0 **** 0.2428
4560 O 62.982 23.679 14.967 O.2 0.0 **** -0.2727
4561 CB 64.444 22.098 17.261 C.3 0.0 **** 0.0378
4562 CG 64.295 21.456 18.623 C.3 0.0 **** -0.0149
4563 CD1 64.647 19.976 18.499 C.3 0.0 **** 0.0072
4564 CD2 65.204 22.152 19.592 C.3 0.0 **** 0.0072
4565 N 65.094 24.454 15.154 N.am 0.0 **** -0.1787
4566 CA 65.262 24.725 13.73 C.3 0.0 **** 0.171
4567 C 66.33 23.78 13.199 C.2 0.0 **** 0.2428
4568 O 67.454 23.759 13.711 O.2 0.0 **** -0.2727
4569 CB 65.639 26.178 13.492 C.3 0.0 **** 0.0367
4570 CG 65.46 26.633 12.037 C.3 0.0 **** 0.0239
4571 CD 66.072 28.024 11.806 C.3 0.0 **** 0.1157
4572 NE 67.531 27.981 11.982 N.pl3 0.0 **** 0.138
4573 CZ 68.281 28.966 12.478 C.cat 0.0 **** 0.1634
4574 NH1 67.716 30.104 12.864 N.pl3 0.0 **** 0.2799
4575 NH2 69.604 28.806 12.591 N.pl3 0.0 **** 0.2799
4576 N 65.977 23.026 12.161 N.am 0.0 **** -0.1784
4577 CA 66.842 22.029 11.536 C.3 0.0 **** 0.1738
4578 C 66.999 22.422 10.081 C.2 0.0 **** 0.243
4579 O 66.042 22.319 9.304 O.2 0.0 **** -0.2727
4580 CB 66.249 20.622 11.635 C.3 0.0 **** 0.0176
4581 CG1 66.179 20.177 13.096 C.3 0.0 **** 0.0024
4582 CG2 67.052 19.638 10.794 C.3 0.0 **** 0.0102
4583 CD1 65.318 18.917 13.277 C.3 0.0 **** 0.0041
4584 N 68.188 22.861 9.709 N.am 0.0 **** -0.1782
4585 CA 68.478 23.285 8.34 C.3 0.0 **** 0.1789
4586 C 69.434 22.267 7.728 C.2 0.0 **** 0.2432
4587 O 70.623 22.236 8.067 O.2 0.0 **** -0.2727
4588 CB 69.082 24.682 8.299 C.3 0.0 **** 0.1195
4589 CG 68.076 25.756 8.67 C.2 0.0 **** 0.1884
4590 OD1 66.919 25.694 8.197 O.co2 0.0 **** -0.6396
4591 OD2 68.446 26.659 9.452 O.co2 0.0 **** -0.6396
4592 N 68.918 21.468 6.801 N.am 0.0 **** -0.1784
4593 CA 69.682 20.363 6.234 C.3 0.0 **** 0.1735
4594 C 70.573 20.876 5.112 C.2 0.0 **** 0.243
4595 O 70.105 21.571 4.205 O.2 0.0 **** -0.2727
4596 CB 68.744 19.268 5.713 C.3 0.0 **** 0.0147
4597 CG1 69.587 18.122 5.079 C.3 0.0 **** 0.0099
4598 CG2 67.831 18.752 6.838 C.3 0.0 **** 0.0099
4599 N 71.84 20.472 5.134 N.am 0.0 **** -0.1789
4600 CA 72.794 20.891 4.115 C.3 0.0 **** 0.1678
4601 C 72.386 20.407 2.733 C.2 0.0 **** 0.2425
4602 O 72.008 19.249 2.549 O.2 0.0 **** -0.2727
4603 CB 74.187 20.333 4.417 C.3 0.0 **** 0.0414
4604 N 72.555 21.284 1.741 N.am 0.0 **** -0.1787
4605 CA 72.273 20.914 0.357 C.3 0.0 **** 0.171
4606 C 73.039 19.664 -0.065 C.2 0.0 **** 0.2428
4607 O 72.528 18.848 -0.847 O.2 0.0 **** -0.2727
4608 CB 72.619 22.097 -0.553 C.3 0.0 **** 0.0367
4609 CG 72.596 21.804 -2.059 C.3 0.0 **** 0.0239
4610 CD 71.176 21.832 -2.597 C.3 0.0 **** 0.1157
4611 NE 71.097 21.305 -3.963 N.pl3 0.0 **** 0.138
4612 CZ 70.064 21.491 -4.784 C.cat 0.0 **** 0.1634
4613 NH1 69.009 22.204 -4.384 N.pl3 0.0 **** 0.2799
4614 NH2 70.095 20.969 -6.009 N.pl3 0.0 **** 0.2799
4615 N 74.281 19.518 0.385 N.am 0.0 **** -0.1782
4616 CA 75.084 18.363 -0.014 C.3 0.0 **** 0.1789
4617 C 74.865 17.139 0.882 C.2 0.0 **** 0.2432
4618 O 75.553 16.119 0.704 O.2 0.0 **** -0.2727
4619 CB 76.574 18.724 -0.031 C.3 0.0 **** 0.1195
4620 CG 77.075 19.163 1.317 C.2 0.0 **** 0.1884
4621 OD1 76.32 19.031 2.287 O.co2 0.0 **** -0.6396
4622 OD2 78.233 19.621 1.417 O.co2 0.0 **** -0.6396
4623 N 73.931 17.216 1.828 N.am 0.0 **** -0.1783
4624 CA 73.506 16.085 2.651 C.3 0.0 **** 0.1754
4625 C 74.596 15.608 3.592 C.2 0.0 **** 0.2432
4626 O 74.545 14.46 4.068 O.2 0.0 **** -0.2727
4627 CB 73.011 14.904 1.799 C.3 0.0 **** 0.0724
4628 CG 71.743 15.175 1.083 C.2 0.0 **** -0.0201
4629 CD1 71.197 16.412 0.789 C.2 0.0 **** 0.0869
4630 CD2 70.827 14.197 0.565 C.2 0.0 **** 0.0027
4631 NE1 70.01 16.248 0.124 N.pl3 0.0 **** -0.195
4632 CE2 69.766 14.905 -0.05 C.2 0.0 **** 0.0456
4633 CE3 70.81 12.795 0.543 C.2 0.0 **** 0.0104
4634 CZ2 68.693 14.263 -0.656 C.2 0.0 **** 0.0265
4635 CZ3 69.742 12.149 -0.088 C.2 0.0 **** 0.0008
4636 CH2 68.691 12.895 -0.668 C.2 0.0 **** 0.0022
4637 N 75.58 16.467 3.888 N.am 0.0 **** -0.1763
4638 CA 76.655 16.08 4.8 C.3 0.0 **** 0.1996
4639 C 76.286 16.305 6.254 C.2 0.0 **** 0.2452
4640 O 76.97 15.775 7.135 O.2 0.0 **** -0.2726
4641 CB 77.943 16.866 4.495 C.3 0.0 **** 0.1429
4642 OG1 77.66 18.273 4.547 O.3 0.0 **** -0.1801
4643 CG2 78.481 16.517 3.113 C.3 0.0 **** 0.0409
4644 N 75.237 17.077 6.524 N.am 0.0 **** -0.1816
4645 CA 74.88 17.378 7.893 C.3 0.0 **** 0.2156
4646 C 73.75 18.38 7.931 C.2 0.0 **** 0.2396
4647 O 73.157 18.718 6.894 O.2 0.0 **** -0.273
4648 N 73.506 18.891 9.137 N.am 0.0 **** -0.1786
4649 CA 72.436 19.849 9.347 C.3 0.0 **** 0.1753
4650 C 72.841 20.811 10.441 C.2 0.0 **** 0.2432
4651 O 73.585 20.461 11.364 O.2 0.0 **** -0.2727
4652 CB 71.098 19.173 9.687 C.3 0.0 **** 0.0702
4653 CG 71.124 18.307 10.91 C.ar 0.0 **** -0.0454
4654 CD1 71.571 16.999 10.833 C.ar 0.0 **** 0.0036
4655 CD2 70.638 18.796 12.129 C.ar 0.0 **** 0.0036
4656 CE1 71.557 16.189 11.936 C.ar 0.0 **** 0.0003
4657 CE2 70.619 17.988 13.263 C.ar 0.0 **** 0.0003
4658 CZ 71.085 16.69 13.179 C.ar 0.0 **** 0.0
4659 N 72.358 22.032 10.317 N.am 0.0 **** -0.1763
4660 CA 72.479 23.018 11.373 C.3 0.0 **** 0.1996
4661 C 71.282 22.893 12.294 C.2 0.0 **** 0.2454
4662 O 70.151 22.713 11.834 O.2 0.0 **** -0.2726
4663 CB 72.548 24.422 10.765 C.3 0.0 **** 0.1429
4664 OG1 73.763 24.498 10.005 O.3 0.0 **** -0.1801
4665 CG2 72.532 25.513 11.835 C.3 0.0 **** 0.0409
4666 N 71.538 23.016 13.595 N.am 0.0 **** -0.1786
4667 CA 70.515 22.787 14.602 C.3 0.0 **** 0.1712
4668 C 70.514 23.975 15.544 C.2 0.0 **** 0.2428
4669 O 71.537 24.271 16.172 O.2 0.0 **** -0.2727
4670 CB 70.778 21.483 15.349 C.3 0.0 **** 0.0378
4671 CG 69.977 21.259 16.635 C.3 0.0 **** -0.0149
4672 CD1 68.499 21.12 16.301 C.3 0.0 **** 0.0072
4673 CD2 70.487 20.024 17.343 C.3 0.0 **** 0.0072
4674 N 69.394 24.668 15.613 N.am 0.0 **** -0.1787
4675 CA 69.217 25.743 16.572 C.3 0.0 **** 0.171
4676 C 68.182 25.312 17.596 C.2 0.0 **** 0.2428
4677 O 67.076 24.891 17.239 O.2 0.0 **** -0.2727
4678 CB 68.774 27.045 15.917 C.3 0.0 **** 0.0367
4679 CG 68.587 28.131 16.966 C.3 0.0 **** 0.0239
4680 CD 68.517 29.525 16.353 C.3 0.0 **** 0.1157
4681 NE 68.709 30.535 17.394 N.pl3 0.0 **** 0.138
4682 CZ 67.76 30.954 18.223 C.cat 0.0 **** 0.1634
4683 NH1 66.515 30.459 18.144 N.pl3 0.0 **** 0.2799
4684 NH2 68.068 31.877 19.135 N.pl3 0.0 **** 0.2799
4685 N 68.542 25.425 18.867 N.am 0.0 **** -0.1781
4686 CA 67.607 25.164 19.953 C.3 0.0 **** 0.1802
4687 C 66.879 26.473 20.264 C.2 0.0 **** 0.2431
4688 O 67.471 27.404 20.818 O.2 0.0 **** -0.2727
4689 CB 68.348 24.628 21.169 C.3 0.0 **** 0.1344
4690 CG 67.419 24.368 22.333 C.2 0.0 **** 0.2196
4691 OD1 66.189 24.528 22.218 O.2 0.0 **** -0.2752
4692 ND2 67.987 23.96 23.453 N.am 0.0 **** -0.0514
4693 N 65.602 26.538 19.904 N.am 0.0 **** -0.1817
4694 CA 64.789 27.719 20.113 C.3 0.0 **** 0.2156
4695 C 64.059 27.758 21.44 C.2 0.0 **** 0.2396
4696 O 63.337 28.715 21.719 O.2 0.0 **** -0.273
4697 N 64.222 26.741 22.274 N.am 0.0 **** -0.1789
4698 CA 63.593 26.762 23.588 C.3 0.0 **** 0.1714
4699 C 64.239 27.823 24.452 C.2 0.0 **** 0.2428
4700 O 65.355 28.279 24.197 O.2 0.0 **** -0.2727
4701 CB 63.727 25.4 24.259 C.3 0.0 **** 0.0447
4702 CG 62.986 24.296 23.542 C.3 0.0 **** 0.1022
4703 CD 63.37 22.907 24.038 C.2 0.0 **** 0.217
4704 OE1 62.561 22.216 24.668 O.2 0.0 **** -0.2753
4705 NE2 64.603 22.476 23.727 N.am 0.0 **** -0.0515
4706 N 63.539 28.191 25.527 N.am 0.0 **** -0.1782
4707 CA 64.044 29.218 26.418 C.3 0.0 **** 0.1789
4708 C 64.825 28.627 27.597 C.2 0.0 **** 0.2432
4709 O 65.732 29.291 28.129 O.2 0.0 **** -0.2727
4710 CB 62.864 30.052 26.905 C.3 0.0 **** 0.1195
4711 CG 62.149 30.733 25.769 C.2 0.0 **** 0.1884
4712 OD1 62.852 31.321 24.898 O.co2 0.0 **** -0.6396
4713 OD2 60.904 30.674 25.764 O.co2 0.0 **** -0.6396
4714 N 64.505 27.401 27.998 N.am 0.0 **** -0.1783
4715 CA 65.112 26.819 29.202 C.3 0.0 **** 0.1753
4716 C 65.727 25.454 28.958 C.2 0.0 **** 0.2431
4717 O 66.828 25.199 29.44 O.2 0.0 **** -0.2727
4718 CB 64.082 26.717 30.352 C.3 0.0 **** 0.0702
4719 CG 63.46 28.032 30.686 C.ar 0.0 **** -0.0454
4720 CD1 64.193 29.03 31.307 C.ar 0.0 **** 0.0036
4721 CD2 62.168 28.29 30.326 C.ar 0.0 **** 0.0036
4722 CE1 63.608 30.28 31.599 C.ar 0.0 **** 0.0003
4723 CE2 61.59 29.521 30.6 C.ar 0.0 **** 0.0003
4724 CZ 62.321 30.508 31.241 C.ar 0.0 **** 0.0
4725 N 65.05 24.581 28.231 N.am 0.0 **** -0.1789
4726 CA 65.536 23.217 28.068 C.3 0.0 **** 0.1678
4727 C 66.618 23.133 26.99 C.2 0.0 **** 0.2425
4728 O 66.634 23.912 26.032 O.2 0.0 **** -0.2727
4729 CB 64.377 22.29 27.719 C.3 0.0 **** 0.0414
4730 N 67.544 22.172 27.169 N.am 0.0 **** -0.1782
4731 CA 68.494 21.823 26.121 C.3 0.0 **** 0.1789
4732 C 67.828 20.816 25.192 C.2 0.0 **** 0.2433
4733 O 66.593 20.709 25.196 O.2 0.0 **** -0.2727
4734 CB 69.819 21.301 26.712 C.3 0.0 **** 0.1195
4735 CG 69.675 19.962 27.451 C.2 0.0 **** 0.1884
4736 OD1 68.603 19.314 27.391 O.co2 0.0 **** -0.6396
4737 OD2 70.672 19.564 28.111 O.co2 0.0 **** -0.6396
4738 N 68.605 20.132 24.352 N.am 0.0 **** -0.1763
4739 CA 68.041 19.205 23.373 C.3 0.0 **** 0.1996
4740 C 68.103 17.748 23.834 C.2 0.0 **** 0.2455
4741 O 67.853 16.846 23.019 O.2 0.0 **** -0.2726
4742 CB 68.752 19.339 22.009 C.3 0.0 **** 0.1429
4743 OG1 70.176 19.204 22.174 O.3 0.0 **** -0.1801
4744 CG2 68.466 20.68 21.4 C.3 0.0 **** 0.0409
4745 N 68.379 17.491 25.127 N.am 0.0 **** -0.1764
4746 CA 68.589 16.114 25.58 C.3 0.0 **** 0.1967
4747 C 67.31 15.279 25.544 C.2 0.0 **** 0.2451
4748 O 67.403 14.051 25.516 O.2 0.0 **** -0.2726
4749 CB 69.208 16.085 26.996 C.3 0.0 **** 0.1907
4750 OG 68.391 16.781 27.913 O.3 0.0 **** -0.1835
4751 N 66.126 15.887 25.502 N.am 0.0 **** -0.1789
4752 CA 64.91 15.074 25.42 C.3 0.0 **** 0.1678
4753 C 64.667 14.46 24.043 C.2 0.0 **** 0.2425
4754 O 63.776 13.606 23.905 O.2 0.0 **** -0.2727
4755 CB 63.687 15.922 25.809 C.3 0.0 **** 0.0414
4756 N 65.447 14.831 23.04 N.am 0.0 **** -0.1783
4757 CA 65.164 14.481 21.666 C.3 0.0 **** 0.1753
4758 C 66.138 13.432 21.161 C.2 0.0 **** 0.2432
4759 O 67.307 13.39 21.564 O.2 0.0 **** -0.2727
4760 CB 65.253 15.706 20.787 C.3 0.0 **** 0.0702
4761 CG 64.392 16.85 21.276 C.ar 0.0 **** -0.0454
4762 CD1 63.021 16.697 21.365 C.ar 0.0 **** 0.0036
4763 CD2 64.957 18.051 21.66 C.ar 0.0 **** 0.0036
4764 CE1 62.21 17.734 21.829 C.ar 0.0 **** 0.0003
4765 CE2 64.161 19.103 22.126 C.ar 0.0 **** 0.0003
4766 CZ 62.783 18.945 22.217 C.ar 0.0 **** 0.0
4767 N 65.629 12.603 20.253 N.am 0.0 **** -0.1765
4768 CA 66.424 11.716 19.421 C.3 0.0 **** 0.1967
4769 C 66.398 12.282 18.016 C.2 0.0 **** 0.2452
4770 O 65.331 12.666 17.52 O.2 0.0 **** -0.2726
4771 CB 65.853 10.303 19.425 C.3 0.0 **** 0.1907
4772 OG 66.462 9.504 18.414 O.3 0.0 **** -0.1835
4773 N 67.558 12.35 17.386 N.am 0.0 **** -0.1782
4774 CA 67.687 12.956 16.067 C.3 0.0 **** 0.1753
4775 C 67.811 11.845 15.031 C.2 0.0 **** 0.2431
4776 O 68.733 11.034 15.095 O.2 0.0 **** -0.2727
4777 CB 68.878 13.919 16.047 C.3 0.0 **** 0.0702
4778 CG 68.651 15.14 16.888 C.ar 0.0 **** -0.0454
4779 CD1 68.037 16.255 16.339 C.ar 0.0 **** 0.0036
4780 CD2 68.974 15.156 18.236 C.ar 0.0 **** 0.0036
4781 CE1 67.773 17.383 17.095 C.ar 0.0 **** 0.0003
4782 CE2 68.733 16.264 19.009 C.ar 0.0 **** 0.0003
4783 CZ 68.114 17.408 18.438 C.ar 0.0 **** 0.0
4784 N 66.864 11.809 14.093 N.am 0.0 **** -0.1786
4785 CA 66.725 10.728 13.135 C.3 0.0 **** 0.171
4786 C 66.846 11.303 11.739 C.2 0.0 **** 0.2428
4787 O 66.472 12.454 11.503 O.2 0.0 **** -0.2727
4788 CB 65.368 10.018 13.286 C.3 0.0 **** 0.0367
4789 CG 65.192 9.489 14.699 C.3 0.0 **** 0.0239
4790 CD 63.997 8.57 14.896 C.3 0.0 **** 0.1157
4791 NE 63.924 8.137 16.311 N.pl3 0.0 **** 0.138
4792 CZ 62.915 7.456 16.858 C.cat 0.0 **** 0.1634
4793 NH1 61.857 7.102 16.13 N.pl3 0.0 **** 0.2799
4794 NH2 62.96 7.132 18.143 N.pl3 0.0 **** 0.2799
4795 N 67.399 10.511 10.83 N.am 0.0 **** -0.1783
4796 CA 67.446 10.886 9.43 C.3 0.0 **** 0.1753
4797 C 66.818 9.77 8.615 C.2 0.0 **** 0.2431
4798 O 66.876 8.588 8.987 O.2 0.0 **** -0.2727
4799 CB 68.877 11.152 8.937 C.3 0.0 **** 0.0702
4800 CG 69.799 9.958 9.022 C.ar 0.0 **** -0.0452
4801 CD1 70.457 9.671 10.207 C.ar 0.0 **** 0.0063
4802 CD2 70.011 9.112 7.925 C.ar 0.0 **** 0.0063
4803 CE1 71.313 8.58 10.314 C.ar 0.0 **** 0.0332
4804 CE2 70.874 8.007 8.031 C.ar 0.0 **** 0.0332
4805 CZ 71.515 7.762 9.238 C.ar 0.0 **** 0.0713
4806 OH 72.378 6.681 9.411 O.3 0.0 **** -0.1427
4807 N 66.215 10.152 7.49 N.am 0.0 **** -0.1786
4808 CA 65.797 9.158 6.523 C.3 0.0 **** 0.1714
4809 C 65.947 9.738 5.124 C.2 0.0 **** 0.2428
4810 O 65.675 10.917 4.892 O.2 0.0 **** -0.2727
4811 CB 64.352 8.704 6.745 C.3 0.0 **** 0.0434
4812 CG 63.983 7.498 5.836 C.3 0.0 **** 0.0873
4813 CD 62.581 6.98 6.077 C.2 0.0 **** 0.1859
4814 OE1 61.62 7.703 5.725 O.co2 0.0 **** -0.6397
4815 OE2 62.444 5.864 6.631 O.co2 0.0 **** -0.6397
4816 N 66.402 8.9 4.211 N.am 0.0 **** -0.1784
4817 CA 66.432 9.207 2.79 C.3 0.0 **** 0.1735
4818 C 65.327 8.395 2.135 C.2 0.0 **** 0.243
4819 O 65.27 7.172 2.303 O.2 0.0 **** -0.2727
4820 CB 67.795 8.856 2.176 C.3 0.0 **** 0.0147
4821 CG1 67.786 9.087 0.654 C.3 0.0 **** 0.0099
4822 CG2 68.902 9.66 2.847 C.3 0.0 **** 0.0099
4823 N 64.45 9.061 1.395 N.am 0.0 **** -0.1786
4824 CA 63.385 8.371 0.686 C.3 0.0 **** 0.1714
4825 C 63.463 8.664 -0.806 C.2 0.0 **** 0.2428
4826 O 63.838 9.771 -1.214 O.2 0.0 **** -0.2727
4827 CB 62.022 8.8 1.219 C.3 0.0 **** 0.0434
4828 CG 60.893 7.896 0.74 C.3 0.0 **** 0.0873
4829 CD 59.53 8.373 1.199 C.2 0.0 **** 0.1859
4830 OE1 59.47 9.337 1.993 O.co2 0.0 **** -0.6397
4831 OE2 58.523 7.769 0.759 O.co2 0.0 **** -0.6397
4832 N 63.092 7.656 -1.612 N.am 0.0 **** -0.179
4833 CA 63.005 7.795 -3.061 C.3 0.0 **** 0.1678
4834 C 61.691 7.19 -3.542 C.2 0.0 **** 0.2425
4835 O 60.855 6.744 -2.746 O.2 0.0 **** -0.2727
4836 CB 64.186 7.133 -3.765 C.3 0.0 **** 0.0414
4837 N 61.507 7.187 -4.868 N.am 0.0 **** -0.1782
4838 CA 60.273 6.675 -5.453 C.3 0.0 **** 0.1789
4839 C 59.932 5.285 -4.923 C.2 0.0 **** 0.243
4840 O 58.777 5.009 -4.58 O.2 0.0 **** -0.2727
4841 CB 60.398 6.661 -6.976 C.3 0.0 **** 0.1195
4842 CG 61.771 6.224 -7.44 C.2 0.0 **** 0.1884
4843 OD1 62.436 5.45 -6.71 O.co2 0.0 **** -0.6396
4844 OD2 62.196 6.683 -8.522 O.co2 0.0 **** -0.6396
4845 N 60.923 4.404 -4.832 N.am 0.0 **** -0.1817
4846 CA 60.699 3.061 -4.332 C.3 0.0 **** 0.2156
4847 C 60.633 2.92 -2.823 C.2 0.0 **** 0.2394
4848 O 60.535 1.798 -2.317 O.2 0.0 **** -0.273
4849 N 60.689 4.017 -2.085 N.am 0.0 **** -0.1819
4850 CA 60.628 3.98 -0.644 C.3 0.0 **** 0.2156
4851 C 61.934 4.399 0.005 C.2 0.0 **** 0.2396
4852 O 62.788 5.056 -0.598 O.2 0.0 **** -0.273
4853 N 62.088 3.989 1.265 N.am 0.0 **** -0.1792
4854 CA 63.214 4.422 2.079 C.3 0.0 **** 0.1678
4855 C 64.495 3.76 1.605 C.2 0.0 **** 0.2425
4856 O 64.532 2.551 1.352 O.2 0.0 **** -0.2727
4857 CB 62.962 4.089 3.547 C.3 0.0 **** 0.0414
4858 N 65.547 4.559 1.463 N.am 0.0 **** -0.1787
4859 CA 66.829 4.049 1.003 C.3 0.0 **** 0.1712
4860 C 67.863 3.951 2.109 C.2 0.0 **** 0.2428
4861 O 68.813 3.177 1.978 O.2 0.0 **** -0.2727
4862 CB 67.404 4.949 -0.097 C.3 0.0 **** 0.0378
4863 CG 66.585 5.04 -1.39 C.3 0.0 **** -0.0149
4864 CD1 67.174 6.104 -2.304 C.3 0.0 **** 0.0072
4865 CD2 66.56 3.726 -2.085 C.3 0.0 **** 0.0072
4866 N 67.713 4.727 3.17 N.am 0.0 **** -0.1782
4867 CA 68.693 4.781 4.245 C.3 0.0 **** 0.1789
4868 C 68.036 5.518 5.391 C.2 0.0 **** 0.243
4869 O 67.154 6.355 5.185 O.2 0.0 **** -0.2727
4870 CB 69.982 5.499 3.796 C.3 0.0 **** 0.1195
4871 CG 71.185 5.242 4.729 C.2 0.0 **** 0.1884
4872 OD1 71.133 4.311 5.566 O.co2 0.0 **** -0.6396
4873 OD2 72.199 5.971 4.607 O.co2 0.0 **** -0.6396
4874 N 68.448 5.187 6.601 N.am 0.0 **** -0.1817
4875 CA 67.913 5.908 7.739 C.3 0.0 **** 0.2156
4876 C 68.689 5.518 8.977 C.2 0.0 **** 0.2394
4877 O 69.438 4.545 8.969 O.2 0.0 **** -0.273
4878 N 68.498 6.29 10.039 N.am 0.0 **** -0.1819
4879 CA 69.187 5.998 11.284 C.3 0.0 **** 0.2156
4880 C 69.069 7.164 12.241 C.2 0.0 **** 0.2396
4881 O 68.275 8.084 12.046 O.2 0.0 **** -0.273
4882 N 69.867 7.095 13.296 N.am 0.0 **** -0.1766
4883 CA 69.916 8.149 14.297 C.3 0.0 **** 0.1996
4884 C 71.329 8.692 14.356 C.2 0.0 **** 0.2454
4885 O 72.283 8.042 13.92 O.2 0.0 **** -0.2726
4886 CB 69.53 7.613 15.673 C.3 0.0 **** 0.1429
4887 OG1 70.455 6.572 15.982 O.3 0.0 **** -0.1801
4888 CG2 68.154 7.008 15.647 C.3 0.0 **** 0.0409
4889 N 71.464 9.871 14.933 N.am 0.0 **** -0.1783
4890 CA 72.772 10.483 15.081 C.3 0.0 **** 0.1735
4891 C 72.851 11.105 16.466 C.2 0.0 **** 0.243
4892 O 71.874 11.675 16.956 O.2 0.0 **** -0.2727
4893 CB 73.022 11.527 13.98 C.3 0.0 **** 0.0147
4894 CG1 71.933 12.564 13.997 C.3 0.0 **** 0.0099
4895 CG2 74.371 12.17 14.158 C.3 0.0 **** 0.0099
4896 N 74.032 11.043 17.055 N.am 0.0 **** -0.1782
4897 CA 74.273 11.579 18.392 C.3 0.0 **** 0.1789
4898 C 74.519 13.076 18.302 C.2 0.0 **** 0.2432
4899 O 75.361 13.523 17.517 O.2 0.0 **** -0.2727
4900 CB 75.479 10.888 19.01 C.3 0.0 **** 0.1195
4901 CG 75.855 11.472 20.373 C.2 0.0 **** 0.1884
4902 OD1 74.937 11.826 21.14 O.co2 0.0 **** -0.6396
4903 OD2 77.071 11.52 20.674 O.co2 0.0 **** -0.6396
4904 N 73.788 13.844 19.099 N.am 0.0 **** -0.1784
4905 CA 73.901 15.297 19.144 C.3 0.0 **** 0.1735
4906 C 74.225 15.694 20.583 C.2 0.0 **** 0.243
4907 O 73.379 15.534 21.473 O.2 0.0 **** -0.2727
4908 CB 72.61 15.98 18.691 C.3 0.0 **** 0.0147
4909 CG1 72.725 17.501 18.868 C.3 0.0 **** 0.0099
4910 CG2 72.272 15.596 17.191 C.3 0.0 **** 0.0099
4911 N 75.429 16.218 20.821 N.am 0.0 **** -0.1789
4912 CA 75.729 16.742 22.155 C.3 0.0 **** 0.1681
4913 C 74.692 17.8 22.523 C.2 0.0 **** 0.2451
4914 O 74.316 18.606 21.664 O.2 0.0 **** -0.2725
4915 CB 77.128 17.346 22.189 C.3 0.0 **** 0.0414
4916 N 74.183 17.817 23.763 N.am 0.0 **** -0.3289
4917 CA 73.044 18.706 24.071 C.3 0.0 **** 0.1741
4918 C 73.329 20.16 23.731 C.2 0.0 **** 0.243
4919 O 74.343 20.727 24.142 O.2 0.0 **** -0.2727
4920 CB 72.842 18.529 25.58 C.3 0.0 **** 0.037
4921 CG 73.502 17.257 25.91 C.3 0.0 **** 0.0242
4922 CD 74.546 16.965 24.914 C.3 0.0 **** 0.1203
4923 N 72.409 20.776 22.996 N.am 0.0 **** -0.1784
4924 CA 72.544 22.163 22.6 C.3 0.0 **** 0.1735
4925 C 71.792 23.028 23.607 C.2 0.0 **** 0.243
4926 O 70.61 22.806 23.881 O.2 0.0 **** -0.2727
4927 CB 72.003 22.377 21.182 C.3 0.0 **** 0.0147
4928 CG1 72.157 23.824 20.772 C.3 0.0 **** 0.0099
4929 CG2 72.712 21.429 20.186 C.3 0.0 **** 0.0099
4930 N 72.466 24.041 24.131 N.am 0.0 **** -0.1789
4931 CA 71.839 24.905 25.126 C.3 0.0 **** 0.1681
4932 C 70.693 25.716 24.502 C.2 0.0 **** 0.2451
4933 O 70.691 25.981 23.295 O.2 0.0 **** -0.2725
4934 CB 72.867 25.857 25.705 C.3 0.0 **** 0.0414
4935 N 69.721 26.161 25.311 N.am 0.0 **** -0.3289
4936 CA 68.666 27.01 24.757 C.3 0.0 **** 0.1741
4937 C 69.268 28.255 24.116 C.2 0.0 **** 0.243
4938 O 70.209 28.847 24.641 O.2 0.0 **** -0.2727
4939 CB 67.79 27.348 25.982 C.3 0.0 **** 0.037
4940 CG 68.604 27.078 27.154 C.3 0.0 **** 0.0242
4941 CD 69.549 25.96 26.768 C.3 0.0 **** 0.1203
4942 N 68.722 28.628 22.955 N.am 0.0 **** -0.1786
4943 CA 69.13 29.793 22.181 C.3 0.0 **** 0.1714
4944 C 70.51 29.64 21.565 C.2 0.0 **** 0.2428
4945 O 71.088 30.624 21.091 O.2 0.0 **** -0.2727
4946 CB 69.068 31.086 23.008 C.3 0.0 **** 0.0447
4947 CG 67.667 31.379 23.57 C.3 0.0 **** 0.1022
4948 CD 66.636 31.551 22.487 C.2 0.0 **** 0.217
4949 OE1 66.716 32.48 21.71 O.2 0.0 **** -0.2753
4950 NE2 65.665 30.652 22.421 N.am 0.0 **** -0.0515
4951 N 71.033 28.426 21.505 N.am 0.0 **** -0.1765
4952 CA 72.313 28.176 20.88 C.3 0.0 **** 0.1967
4953 C 72.118 27.319 19.639 C.2 0.0 **** 0.2451
4954 O 71.03 26.813 19.366 O.2 0.0 **** -0.2726
4955 CB 73.263 27.49 21.859 C.3 0.0 **** 0.1907
4956 OG 73.48 28.345 22.978 O.3 0.0 **** -0.1835
4957 N 73.201 27.126 18.897 N.am 0.0 **** -0.1786
4958 CA 73.097 26.308 17.701 C.3 0.0 **** 0.1714
4959 C 74.396 25.55 17.487 C.2 0.0 **** 0.2428
4960 O 75.41 25.806 18.132 O.2 0.0 **** -0.2727
4961 CB 72.707 27.147 16.486 C.3 0.0 **** 0.0434
4962 CG 73.65 28.207 16.105 C.3 0.0 **** 0.0873
4963 CD 73.236 28.869 14.782 C.2 0.0 **** 0.1859
4964 OE1 72.273 29.669 14.774 O.co2 0.0 **** -0.6397
4965 OE2 73.855 28.556 13.741 O.co2 0.0 **** -0.6397
4966 N 74.327 24.551 16.62 N.am 0.0 **** -0.1763
4967 CA 75.504 23.757 16.315 C.3 0.0 **** 0.1996
4968 C 75.319 23.189 14.914 C.2 0.0 **** 0.2454
4969 O 74.26 23.343 14.294 O.2 0.0 **** -0.2726
4970 CB 75.726 22.675 17.365 C.3 0.0 **** 0.1429
4971 OG1 77.035 22.106 17.194 O.3 0.0 **** -0.1801
4972 CG2 74.683 21.584 17.256 C.3 0.0 **** 0.0409
4973 N 76.375 22.562 14.407 N.am 0.0 **** -0.1783
4974 CA 76.318 21.874 13.123 C.3 0.0 **** 0.1735
4975 C 76.558 20.402 13.401 C.2 0.0 **** 0.243
4976 O 77.498 20.046 14.117 O.2 0.0 **** -0.2727
4977 CB 77.327 22.43 12.102 C.3 0.0 **** 0.0147
4978 CG1 77.215 21.661 10.773 C.3 0.0 **** 0.0099
4979 CG2 77.058 23.9 11.836 C.3 0.0 **** 0.0099
4980 N 75.674 19.558 12.885 N.am 0.0 **** -0.1784
4981 CA 75.692 18.129 13.138 C.3 0.0 **** 0.1735
4982 C 76.019 17.433 11.834 C.2 0.0 **** 0.243
4983 O 75.36 17.669 10.821 O.2 0.0 **** -0.2727
4984 CB 74.348 17.623 13.684 C.3 0.0 **** 0.0147
4985 CG1 74.454 16.12 13.96 C.3 0.0 **** 0.0099
4986 CG2 73.944 18.406 14.965 C.3 0.0 **** 0.0099
4987 N 77.033 16.59 11.868 N.am 0.0 **** -0.1786
4988 CA 77.434 15.814 10.714 C.3 0.0 **** 0.1714
4989 C 76.537 14.59 10.613 C.2 0.0 **** 0.2428
4990 O 76.207 13.97 11.627 O.2 0.0 **** -0.2727
4991 CB 78.897 15.403 10.877 C.3 0.0 **** 0.0434
4992 CG 79.545 14.907 9.636 C.3 0.0 **** 0.0873
4993 CD 80.932 14.335 9.905 C.2 0.0 **** 0.1859
4994 OE1 81.471 14.562 11.016 O.co2 0.0 **** -0.6397
4995 OE2 81.478 13.656 9.0 O.co2 0.0 **** -0.6397
4996 N 76.095 14.266 9.381 N.am 0.0 **** -0.1786
4997 CA 75.373 13.028 9.14 C.3 0.0 **** 0.1714
4998 C 76.336 11.915 8.759 C.2 0.0 **** 0.2454
4999 O 77.418 12.169 8.229 O.2 0.0 **** -0.2724
5000 CB 74.354 13.219 8.019 C.3 0.0 **** 0.0378
5001 CG 73.171 14.09 8.447 C.3 0.0 **** -0.0149
5002 CD1 72.407 14.532 7.21 C.3 0.0 **** 0.0072
5003 CD2 72.253 13.34 9.412 C.3 0.0 **** 0.0072
5004 N 75.95 10.663 8.963 N.am 0.0 **** -0.3289
5005 CA 76.815 9.565 8.548 C.3 0.0 **** 0.1741
5006 C 77.141 9.689 7.066 C.2 0.0 **** 0.2428
5007 O 76.351 10.208 6.271 O.2 0.0 **** -0.2727
5008 CB 75.976 8.319 8.844 C.3 0.0 **** 0.037
5009 CG 75.056 8.751 9.941 C.3 0.0 **** 0.0242
5010 CD 74.728 10.186 9.626 C.3 0.0 **** 0.1203
5011 N 78.329 9.21 6.71 N.am 0.0 **** -0.1817
5012 CA 78.804 9.34 5.336 C.3 0.0 **** 0.2156
5013 C 77.925 8.664 4.306 C.2 0.0 **** 0.2396
5014 O 77.901 9.078 3.142 O.2 0.0 **** -0.273
5015 N 77.248 7.576 4.688 N.am 0.0 **** -0.1768
5016 CA 76.366 6.882 3.753 C.3 0.0 **** 0.1967
5017 C 75.344 7.829 3.122 C.2 0.0 **** 0.2452
5018 O 74.974 7.659 1.952 O.2 0.0 **** -0.2726
5019 CB 75.646 5.749 4.478 C.3 0.0 **** 0.1907
5020 OG 74.869 6.249 5.56 O.3 0.0 **** -0.1835
5021 N 74.898 8.831 3.864 N.am 0.0 **** -0.1783
5022 CA 73.824 9.704 3.391 C.3 0.0 **** 0.1735
5023 C 74.315 10.571 2.235 C.2 0.0 **** 0.243
5024 O 73.738 10.57 1.146 O.2 0.0 **** -0.2727
5025 CB 73.29 10.557 4.553 C.3 0.0 **** 0.0147
5026 CG1 72.273 11.577 4.055 C.3 0.0 **** 0.0099
5027 CG2 72.659 9.654 5.611 C.3 0.0 **** 0.0099
5028 N 75.422 11.265 2.441 N.am 0.0 **** -0.1789
5029 CA 76.025 12.115 1.394 C.3 0.0 **** 0.1678
5030 C 76.452 11.244 0.213 C.2 0.0 **** 0.2425
5031 O 76.283 11.667 -0.918 O.2 0.0 **** -0.2727
5032 CB 77.186 12.883 1.954 C.3 0.0 **** 0.0414
5033 N 76.943 10.034 0.487 N.am 0.0 **** -0.179
5034 CA 77.377 9.107 -0.58 C.3 0.0 **** 0.1678
5035 C 76.18 8.764 -1.45 C.2 0.0 **** 0.2425
5036 O 76.312 8.752 -2.658 O.2 0.0 **** -0.2727
5037 CB 77.958 7.859 0.022 C.3 0.0 **** 0.0414
5038 N 75.038 8.533 -0.823 N.am 0.0 **** -0.1787
5039 CA 73.791 8.245 -1.552 C.3 0.0 **** 0.1712
5040 C 73.45 9.469 -2.408 C.2 0.0 **** 0.2427
5041 O 73.09 9.288 -3.552 O.2 0.0 **** -0.2727
5042 CB 72.74 7.974 -0.487 C.3 0.0 **** 0.0378
5043 CG 71.497 7.241 -0.942 C.3 0.0 **** -0.0149
5044 CD1 71.86 6.163 -1.923 C.3 0.0 **** 0.0072
5045 CD2 70.792 6.643 0.254 C.3 0.0 **** 0.0072
5046 N 73.615 10.677 -1.877 N.am 0.0 **** -0.179
5047 CA 73.343 11.906 -2.65 C.3 0.0 **** 0.1678
5048 C 74.31 12.006 -3.832 C.2 0.0 **** 0.2425
5049 O 73.863 12.314 -4.921 O.2 0.0 **** -0.2727
5050 CB 73.501 13.1 -1.751 C.3 0.0 **** 0.0414
5051 N 75.586 11.712 -3.605 N.am 0.0 **** -0.179
5052 CA 76.622 11.797 -4.657 C.3 0.0 **** 0.1678
5053 C 76.339 10.811 -5.784 C.2 0.0 **** 0.2422
5054 O 76.57 11.163 -6.927 O.2 0.0 **** -0.2727
5055 CB 77.983 11.571 -4.067 C.3 0.0 **** 0.0414
5056 N 75.845 9.626 -5.454 N.am 0.0 **** -0.1817
5057 CA 75.6 8.585 -6.46 C.3 0.0 **** 0.2156
5058 C 74.297 8.757 -7.202 C.2 0.0 **** 0.2396
5059 O 74.054 7.988 -8.121 O.2 0.0 **** -0.273
5060 N 73.464 9.706 -6.798 N.am 0.0 **** -0.1789
5061 CA 72.147 9.829 -7.459 C.3 0.0 **** 0.1712
5062 C 72.313 10.228 -8.921 C.2 0.0 **** 0.2428
5063 O 73.027 11.189 -9.183 O.2 0.0 **** -0.2727
5064 CB 71.335 10.888 -6.718 C.3 0.0 **** 0.0378
5065 CG 70.725 10.42 -5.406 C.3 0.0 **** -0.0149
5066 CD1 69.927 11.539 -4.771 C.3 0.0 **** 0.0072
5067 CD2 69.872 9.187 -5.611 C.3 0.0 **** 0.0072
5068 N 71.639 9.488 -9.806 N.am 0.0 **** -0.1765
5069 CA 71.623 9.788 -11.256 C.3 0.0 **** 0.1967
5070 C 70.84 11.083 -11.406 C.2 0.0 **** 0.2452
5071 O 69.842 11.231 -10.697 O.2 0.0 **** -0.2726
5072 CB 70.965 8.681 -12.003 C.3 0.0 **** 0.1907
5073 OG 69.662 8.462 -11.504 O.3 0.0 **** -0.1835
5074 N 71.226 11.949 -12.335 N.am 0.0 **** -0.1781
5075 CA 70.531 13.259 -12.437 C.3 0.0 **** 0.1789
5076 C 69.05 13.102 -12.795 C.2 0.0 **** 0.243
5077 O 68.691 12.163 -13.525 O.2 0.0 **** -0.2727
5078 CB 71.34 14.278 -13.233 C.3 0.0 **** 0.1195
5079 CG 72.378 14.955 -12.362 C.2 0.0 **** 0.1884
5080 OD1 72.02 15.343 -11.231 O.co2 0.0 **** -0.6396
5081 OD2 73.535 15.065 -12.805 O.co2 0.0 **** -0.6396
5082 N 68.226 13.948 -12.178 N.am 0.0 **** -0.1817
5083 CA 66.771 13.979 -12.4 C.3 0.0 **** 0.2156
5084 C 66.009 12.969 -11.569 C.2 0.0 **** 0.2396
5085 O 64.781 12.943 -11.681 O.2 0.0 **** -0.273
5086 N 66.7 12.155 -10.778 N.am 0.0 **** -0.1789
5087 CA 65.974 11.224 -9.922 C.3 0.0 **** 0.1712
5088 C 65.623 11.903 -8.604 C.2 0.0 **** 0.2453
5089 O 66.535 12.297 -7.872 O.2 0.0 **** -0.2724
5090 CB 66.804 9.991 -9.632 C.3 0.0 **** 0.0367
5091 CG 66.051 8.989 -8.784 C.3 0.0 **** 0.0239
5092 CD 66.935 7.856 -8.325 C.3 0.0 **** 0.1157
5093 NE 66.144 6.853 -7.615 N.pl3 0.0 **** 0.138
5094 CZ 66.645 5.913 -6.815 C.cat 0.0 **** 0.1634
5095 NH1 67.963 5.829 -6.604 N.pl3 0.0 **** 0.2799
5096 NH2 65.818 5.052 -6.223 N.pl3 0.0 **** 0.2799
5097 N 64.34 12.023 -8.247 N.am 0.0 **** -0.3289
5098 CA 63.988 12.717 -6.998 C.3 0.0 **** 0.1741
5099 C 64.326 11.896 -5.763 C.2 0.0 **** 0.243
5100 O 64.153 10.675 -5.726 O.2 0.0 **** -0.2727
5101 CB 62.475 12.931 -7.126 C.3 0.0 **** 0.037
5102 CG 62.016 11.797 -7.976 C.3 0.0 **** 0.0242
5103 CD 63.144 11.512 -8.944 C.3 0.0 **** 0.1203
5104 N 64.794 12.587 -4.73 N.am 0.0 **** -0.1789
5105 CA 65.092 11.945 -3.459 C.3 0.0 **** 0.1678
5106 C 64.992 13.007 -2.376 C.2 0.0 **** 0.2425
5107 O 65.288 14.177 -2.621 O.2 0.0 **** -0.2727
5108 CB 66.486 11.29 -3.464 C.3 0.0 **** 0.0414
5109 N 64.567 12.599 -1.184 N.am 0.0 **** -0.1784
5110 CA 64.268 13.529 -0.102 C.3 0.0 **** 0.1735
5111 C 64.998 13.054 1.142 C.2 0.0 **** 0.243
5112 O 64.794 11.916 1.57 O.2 0.0 **** -0.2727
5113 CB 62.761 13.609 0.185 C.3 0.0 **** 0.0147
5114 CG1 62.473 14.53 1.349 C.3 0.0 **** 0.0099
5115 CG2 61.985 14.048 -1.081 C.3 0.0 **** 0.0099
5116 N 65.826 13.922 1.72 N.am 0.0 **** -0.1786
5117 CA 66.456 13.673 3.019 C.3 0.0 **** 0.1712
5118 C 65.691 14.456 4.068 C.2 0.0 **** 0.2428
5119 O 65.568 15.681 3.96 O.2 0.0 **** -0.2727
5120 CB 67.923 14.094 3.006 C.3 0.0 **** 0.0378
5121 CG 68.586 14.191 4.395 C.3 0.0 **** -0.0149
5122 CD1 68.543 12.843 5.091 C.3 0.0 **** 0.0072
5123 CD2 70.033 14.684 4.227 C.3 0.0 **** 0.0072
5124 N 65.176 13.755 5.073 N.am 0.0 **** -0.1763
5125 CA 64.455 14.364 6.186 C.3 0.0 **** 0.1996
5126 C 65.224 14.097 7.477 C.2 0.0 **** 0.2454
5127 O 65.602 12.958 7.747 O.2 0.0 **** -0.2726
5128 CB 63.024 13.793 6.282 C.3 0.0 **** 0.1429
5129 OG1 62.334 13.965 5.022 O.3 0.0 **** -0.1801
5130 CG2 62.242 14.466 7.355 C.3 0.0 **** 0.0409
5131 N 65.477 15.148 8.249 N.am 0.0 **** -0.1783
5132 CA 66.06 15.03 9.583 C.3 0.0 **** 0.1735
5133 C 64.983 15.437 10.568 C.2 0.0 **** 0.243
5134 O 64.348 16.484 10.396 O.2 0.0 **** -0.2727
5135 CB 67.319 15.905 9.729 C.3 0.0 **** 0.0147
5136 CG1 67.838 15.884 11.158 C.3 0.0 **** 0.0099
5137 CG2 68.409 15.426 8.744 C.3 0.0 **** 0.0099
5138 N 64.774 14.623 11.6 N.am 0.0 **** -0.1786
5139 CA 63.654 14.816 12.507 C.3 0.0 **** 0.171
5140 C 64.145 14.774 13.94 C.2 0.0 **** 0.2427
5141 O 65.033 13.996 14.277 O.2 0.0 **** -0.2727
5142 CB 62.598 13.738 12.336 C.3 0.0 **** 0.0367
5143 CG 62.14 13.579 10.885 C.3 0.0 **** 0.0239
5144 CD 60.972 12.623 10.776 C.3 0.0 **** 0.1157
5145 NE 61.229 11.335 11.384 N.pl3 0.0 **** 0.138
5146 CZ 60.439 10.75 12.278 C.cat 0.0 **** 0.1634
5147 NH1 59.305 11.328 12.684 N.pl3 0.0 **** 0.2799
5148 NH2 60.784 9.561 12.755 N.pl3 0.0 **** 0.2799
5149 N 63.546 15.602 14.77 N.am 0.0 **** -0.179
5150 CA 63.773 15.571 16.206 C.3 0.0 **** 0.1678
5151 C 62.516 14.993 16.824 C.2 0.0 **** 0.2425
5152 O 61.426 15.572 16.665 O.2 0.0 **** -0.2727
5153 CB 64.072 16.97 16.726 C.3 0.0 **** 0.0414
5154 N 62.646 13.831 17.462 N.am 0.0 **** -0.1784
5155 CA 61.52 13.167 18.106 C.3 0.0 **** 0.1735
5156 C 61.814 12.992 19.592 C.2 0.0 **** 0.243
5157 O 62.973 13.034 20.033 O.2 0.0 **** -0.2727
5158 CB 61.228 11.812 17.441 C.3 0.0 **** 0.0147
5159 CG1 61.048 12.013 15.924 C.3 0.0 **** 0.0099
5160 CG2 62.307 10.797 17.723 C.3 0.0 **** 0.0099
5161 N 60.758 12.723 20.367 N.am 0.0 **** -0.1786
5162 CA 60.955 12.413 21.782 C.3 0.0 **** 0.1712
5163 C 61.715 11.104 21.908 C.2 0.0 **** 0.2425
5164 O 61.304 10.078 21.343 O.2 0.0 **** -0.2727
5165 CB 59.633 12.309 22.522 C.3 0.0 **** 0.0378
5166 CG 58.832 13.623 22.627 C.3 0.0 **** -0.0149
5167 CD1 57.595 13.345 23.452 C.3 0.0 **** 0.0072
5168 CD2 59.63 14.766 23.275 C.3 0.0 **** 0.0072
5169 N 62.836 11.157 22.622 N.am 0.0 **** -0.1817
5170 CA 63.595 9.963 22.913 C.3 0.0 **** 0.2156
5171 C 62.93 9.056 23.926 C.2 0.0 **** 0.2396
5172 O 63.206 7.852 23.939 O.2 0.0 **** -0.273
5173 N 62.05 9.596 24.75 N.am 0.0 **** -0.1792
5174 CA 61.355 8.822 25.768 C.3 0.0 **** 0.1678
5175 C 59.948 9.374 25.931 C.2 0.0 **** 0.2425
5176 O 59.668 10.518 25.563 O.2 0.0 **** -0.2727
5177 CB 62.093 8.871 27.113 C.3 0.0 **** 0.0414
5178 N 59.056 8.543 26.473 N.am 0.0 **** -0.1782
5179 CA 57.717 9.009 26.807 C.3 0.0 **** 0.1789
5180 C 57.784 10.254 27.681 C.2 0.0 **** 0.2433
5181 O 58.589 10.349 28.612 O.2 0.0 **** -0.2727
5182 CB 56.946 7.933 27.562 C.3 0.0 **** 0.1195
5183 CG 56.582 6.745 26.716 C.2 0.0 **** 0.1884
5184 OD1 56.896 6.716 25.502 O.co2 0.0 **** -0.6396
5185 OD2 55.969 5.823 27.297 O.co2 0.0 **** -0.6396
5186 N 56.92 11.21 27.385 N.am 0.0 **** -0.1765
5187 CA 56.679 12.344 28.257 C.3 0.0 **** 0.1967
5188 C 55.276 12.221 28.84 C.2 0.0 **** 0.2451
5189 O 54.549 11.267 28.581 O.2 0.0 **** -0.2726
5190 CB 56.832 13.671 27.496 C.3 0.0 **** 0.1907
5191 OG 55.695 13.848 26.67 O.3 0.0 **** -0.1835
5192 N 54.891 13.228 29.619 N.am 0.0 **** -0.1789
5193 CA 53.536 13.27 30.157 C.3 0.0 **** 0.1678
5194 C 52.49 13.47 29.071 C.2 0.0 **** 0.2425
5195 O 51.311 13.173 29.295 O.2 0.0 **** -0.2727
5196 CB 53.432 14.397 31.18 C.3 0.0 **** 0.0414
5197 N 52.893 13.956 27.896 N.am 0.0 **** -0.1783
5198 CA 51.943 14.425 26.9 C.3 0.0 **** 0.1754
5199 C 52.057 13.702 25.562 C.2 0.0 **** 0.2431
5200 O 51.233 13.949 24.678 O.2 0.0 **** -0.2727
5201 CB 52.092 15.945 26.706 C.3 0.0 **** 0.0724
5202 CG 53.471 16.42 26.61 C.2 0.0 **** -0.0201
5203 CD1 54.265 16.814 27.64 C.2 0.0 **** 0.0869
5204 CD2 54.257 16.549 25.423 C.2 0.0 **** 0.0027
5205 NE1 55.506 17.19 27.171 N.pl3 0.0 **** -0.195
5206 CE2 55.52 17.028 25.81 C.2 0.0 **** 0.0456
5207 CE3 54.01 16.307 24.062 C.2 0.0 **** 0.0104
5208 CZ2 56.525 17.284 24.901 C.2 0.0 **** 0.0265
5209 CZ3 55.02 16.551 23.155 C.2 0.0 **** 0.0008
5210 CH2 56.267 17.038 23.584 C.2 0.0 **** 0.0022
5211 N 53.017 12.791 25.406 N.am 0.0 **** -0.1789
5212 CA 53.155 12.01 24.182 C.3 0.0 **** 0.1678
5213 C 54.151 10.876 24.421 C.2 0.0 **** 0.2425
5214 O 54.896 10.868 25.412 O.2 0.0 **** -0.2727
5215 CB 53.607 12.877 23.003 C.3 0.0 **** 0.0414
5216 N 54.17 9.926 23.486 N.am 0.0 **** -0.1782
5217 CA 55.043 8.766 23.587 C.3 0.0 **** 0.1789
5218 C 56.368 9.016 22.873 C.2 0.0 **** 0.2432
5219 O 56.497 9.911 22.029 O.2 0.0 **** -0.2727
5220 CB 54.366 7.52 23.001 C.3 0.0 **** 0.1195
5221 CG 53.177 7.044 23.834 C.2 0.0 **** 0.1884
5222 OD1 53.093 7.415 25.034 O.co2 0.0 **** -0.6396
5223 OD2 52.339 6.285 23.294 O.co2 0.0 **** -0.6396
5224 N 57.366 8.215 23.239 N.am 0.0 **** -0.1789
5225 CA 58.647 8.234 22.551 C.3 0.0 **** 0.1678
5226 C 58.418 8.104 21.05 C.2 0.0 **** 0.2422
5227 O 57.541 7.361 20.594 O.2 0.0 **** -0.2727
5228 CB 59.546 7.09 23.054 C.3 0.0 **** 0.0414
5229 N 59.208 8.846 20.275 N.am 0.0 **** -0.1817
5230 CA 59.031 8.877 18.832 C.3 0.0 **** 0.2156
5231 C 58.11 9.961 18.346 C.2 0.0 **** 0.2396
5232 O 58.067 10.223 17.14 O.2 0.0 **** -0.273
5233 N 57.385 10.621 19.237 N.am 0.0 **** -0.1785
5234 CA 56.576 11.747 18.815 C.3 0.0 **** 0.1768
5235 C 57.456 12.82 18.182 C.2 0.0 **** 0.2432
5236 O 58.461 13.248 18.757 O.2 0.0 **** -0.2727
5237 CB 55.824 12.342 19.992 C.3 0.0 **** 0.0902
5238 CG 55.164 13.64 19.656 C.2 0.0 **** 0.037
5239 ND1 53.963 13.709 18.982 N.pl3 0.0 **** -0.1813
5240 CD2 55.57 14.917 19.83 C.2 0.0 **** 0.1339
5241 CE1 53.644 14.971 18.778 C.2 0.0 **** 0.1962
5242 NE2 54.597 15.725 19.295 N.2 0.0 **** -0.2451
5243 N 57.039 13.295 17.022 N.am 0.0 **** -0.1786
5244 CA 57.837 14.245 16.264 C.3 0.0 **** 0.1714
5245 C 57.602 15.667 16.753 C.2 0.0 **** 0.2428
5246 O 56.456 16.133 16.823 O.2 0.0 **** -0.2727
5247 CB 57.49 14.13 14.774 C.3 0.0 **** 0.0434
5248 CG 58.297 15.042 13.884 C.3 0.0 **** 0.0873
5249 CD 57.852 14.935 12.444 C.2 0.0 **** 0.1859
5250 OE1 56.723 15.334 12.147 O.co2 0.0 **** -0.6397
5251 OE2 58.611 14.412 11.622 O.co2 0.0 **** -0.6397
5252 N 58.692 16.381 17.022 N.am 0.0 **** -0.1784
5253 CA 58.636 17.764 17.487 C.3 0.0 **** 0.1735
5254 C 59.075 18.754 16.406 C.2 0.0 **** 0.243
5255 O 58.448 19.801 16.233 O.2 0.0 **** -0.2727
5256 CB 59.491 17.905 18.76 C.3 0.0 **** 0.0147
5257 CG1 59.741 19.372 19.14 C.3 0.0 **** 0.0099
5258 CG2 58.807 17.155 19.917 C.3 0.0 **** 0.0099
5259 N 60.156 18.453 15.678 N.am 0.0 **** -0.1789
5260 CA 60.695 19.362 14.682 C.3 0.0 **** 0.1678
5261 C 61.28 18.556 13.519 C.2 0.0 **** 0.2425
5262 O 61.613 17.371 13.656 O.2 0.0 **** -0.2727
5263 CB 61.764 20.28 15.281 C.3 0.0 **** 0.0414
5264 N 61.421 19.213 12.374 N.am 0.0 **** -0.1783
5265 CA 62.011 18.517 11.238 C.3 0.0 **** 0.1754
5266 C 62.561 19.517 10.233 C.2 0.0 **** 0.2429
5267 O 62.179 20.696 10.223 O.2 0.0 **** -0.2727
5268 CB 60.984 17.59 10.561 C.3 0.0 **** 0.0724
5269 CG 59.709 18.269 10.112 C.2 0.0 **** -0.0201
5270 CD1 58.535 18.369 10.818 C.2 0.0 **** 0.0869
5271 CD2 59.475 18.934 8.864 C.2 0.0 **** 0.0027
5272 NE1 57.607 19.049 10.088 N.pl3 0.0 **** -0.195
5273 CE2 58.156 19.42 8.892 C.2 0.0 **** 0.0456
5274 CE3 60.258 19.174 7.733 C.2 0.0 **** 0.0104
5275 CZ2 57.603 20.122 7.834 C.2 0.0 **** 0.0265
5276 CZ3 59.717 19.855 6.68 C.2 0.0 **** 0.0008
5277 CH2 58.393 20.334 6.732 C.2 0.0 **** 0.0022
5278 N 63.44 19.001 9.361 N.am 0.0 **** -0.1817
5279 CA 63.95 19.757 8.23 C.3 0.0 **** 0.2156
5280 C 64.282 18.807 7.104 C.2 0.0 **** 0.2396
5281 O 64.543 17.623 7.327 O.2 0.0 **** -0.273
5282 N 64.306 19.345 5.878 N.am 0.0 **** -0.1789
5283 CA 64.511 18.508 4.701 C.3 0.0 **** 0.1714
5284 C 65.457 19.164 3.714 C.2 0.0 **** 0.2428
5285 O 65.568 20.39 3.654 O.2 0.0 **** -0.2727
5286 CB 63.208 18.239 3.949 C.3 0.0 **** 0.0447
5287 CG 62.174 17.486 4.728 C.3 0.0 **** 0.1022
5288 CD 60.917 17.231 3.925 C.2 0.0 **** 0.217
5289 OE1 60.291 18.162 3.411 O.2 0.0 **** -0.2753
5290 NE2 60.535 15.966 3.81 N.am 0.0 **** -0.0515
5291 N 66.085 18.319 2.889 N.am 0.0 **** -0.1765
5292 CA 66.74 18.744 1.663 C.3 0.0 **** 0.1967
5293 C 66.266 17.838 0.538 C.2 0.0 **** 0.2452
5294 O 66.332 16.612 0.675 O.2 0.0 **** -0.2726
5295 CB 68.273 18.67 1.799 C.3 0.0 **** 0.1907
5296 OG 68.883 18.924 0.525 O.3 0.0 **** -0.1835
5297 N 65.809 18.433 -0.57 N.am 0.0 **** -0.1783
5298 CA 65.177 17.703 -1.657 C.3 0.0 **** 0.1735
5299 C 66.077 17.786 -2.883 C.2 0.0 **** 0.243
5300 O 66.508 18.877 -3.271 O.2 0.0 **** -0.2727
5301 CB 63.782 18.27 -1.979 C.3 0.0 **** 0.0147
5302 CG1 63.187 17.568 -3.191 C.3 0.0 **** 0.0099
5303 CG2 62.856 18.153 -0.79 C.3 0.0 **** 0.0099
5304 N 66.343 16.645 -3.498 N.am 0.0 **** -0.1786
5305 CA 66.921 16.604 -4.837 C.3 0.0 **** 0.171
5306 C 65.754 16.525 -5.801 C.2 0.0 **** 0.2427
5307 O 65.062 15.505 -5.862 O.2 0.0 **** -0.2727
5308 CB 67.861 15.416 -5.003 C.3 0.0 **** 0.0367
5309 CG 69.088 15.495 -4.14 C.3 0.0 **** 0.0239
5310 CD 69.863 16.764 -4.387 C.3 0.0 **** 0.1157
5311 NE 70.973 16.912 -3.454 N.pl3 0.0 **** 0.138
5312 CZ 72.148 16.318 -3.597 C.cat 0.0 **** 0.1634
5313 NH1 72.382 15.51 -4.633 N.pl3 0.0 **** 0.2799
5314 NH2 73.091 16.539 -2.712 N.pl3 0.0 **** 0.2799
5315 N 65.509 17.627 -6.503 N.am 0.0 **** -0.1786
5316 CA 64.295 17.779 -7.274 C.3 0.0 **** 0.1716
5317 C 64.35 16.918 -8.533 C.2 0.0 **** 0.2454
5318 O 65.422 16.7 -9.097 O.2 0.0 **** -0.2724
5319 CB 64.105 19.239 -7.673 C.3 0.0 **** 0.0434
5320 CG 63.846 20.163 -6.513 C.3 0.0 **** 0.0873
5321 CD 62.492 19.905 -5.895 C.2 0.0 **** 0.1859
5322 OE1 61.694 19.183 -6.526 O.co2 0.0 **** -0.6397
5323 OE2 62.227 20.416 -4.783 O.co2 0.0 **** -0.6397
5324 N 63.205 16.44 -9.005 N.am 0.0 **** -0.3289
5325 CA 63.174 15.799 -10.325 C.3 0.0 **** 0.1741
5326 C 63.378 16.83 -11.419 C.2 0.0 **** 0.2428
5327 O 62.945 17.977 -11.303 O.2 0.0 **** -0.2727
5328 CB 61.772 15.179 -10.388 C.3 0.0 **** 0.037
5329 CG 60.939 16.063 -9.504 C.3 0.0 **** 0.0242
5330 CD 61.862 16.527 -8.4 C.3 0.0 **** 0.1203
5331 N 64.058 16.418 -12.478 N.am 0.0 **** -0.1817
5332 CA 64.211 17.288 -13.626 C.3 0.0 **** 0.2156
5333 C 62.875 17.665 -14.236 C.2 0.0 **** 0.2396
5334 O 61.855 16.996 -14.054 O.2 0.0 **** -0.273
5335 N 62.878 18.751 -15.001 N.am 0.0 **** -0.1792
5336 CA 61.619 19.155 -15.655 C.3 0.0 **** 0.1681
5337 C 61.219 17.995 -16.553 C.2 0.0 **** 0.2451
5338 O 62.098 17.35 -17.094 O.2 0.0 **** -0.2725
5339 CB 61.828 20.396 -16.467 C.3 0.0 **** 0.0414
5340 N 59.921 17.706 -16.724 N.am 0.0 **** -0.3289
5341 CA 59.492 16.607 -17.57 C.3 0.0 **** 0.1741
5342 C 59.813 17.062 -18.996 C.2 0.0 **** 0.243
5343 O 59.612 18.188 -19.32 O.2 0.0 **** -0.2727
5344 CB 57.983 16.622 -17.35 C.3 0.0 **** 0.037
5345 CG 57.703 18.082 -17.198 C.3 0.0 **** 0.0242
5346 CD 58.806 18.522 -16.265 C.3 0.0 **** 0.1203
5347 N 60.302 16.161 -19.825 N.am 0.0 **** -0.1784
5348 CA 60.672 16.612 -21.191 C.3 0.0 **** 0.1737
5349 C 59.473 16.348 -22.1 C.2 0.0 **** 0.2456
5350 O 58.956 15.227 -22.108 O.2 0.0 **** -0.2724
5351 CB 61.971 15.92 -21.631 C.3 0.0 **** 0.0147
5352 CG1 61.833 14.413 -21.563 C.3 0.0 **** 0.0099
5353 CG2 62.45 16.394 -22.987 C.3 0.0 **** 0.0099
5354 N 58.985 17.356 -22.836 N.am 0.0 **** -0.3289
5355 CA 57.803 17.182 -23.662 C.3 0.0 **** 0.1743
5356 C 58.101 16.153 -24.755 C.2 0.0 **** 0.2456
5357 O 59.149 16.202 -25.301 O.2 0.0 **** -0.2724
5358 CB 57.567 18.582 -24.227 C.3 0.0 **** 0.037
5359 CG 58.917 19.232 -24.173 C.3 0.0 **** 0.0242
5360 CD 59.562 18.676 -22.926 C.3 0.0 **** 0.1203
5361 N 57.164 15.25 -25.09 N.am 0.0 **** -0.3289
5362 CA 57.39 14.218 -26.083 C.3 0.0 **** 0.1741
5363 C 57.57 14.748 -27.503 C.2 0.0 **** 0.243
5364 O 57.137 15.803 -27.795 O.2 0.0 **** -0.2727
5365 CB 56.117 13.372 -26.066 C.3 0.0 **** 0.037
5366 CG 55.076 14.302 -25.523 C.3 0.0 **** 0.0242
5367 CD 55.826 15.169 -24.542 C.3 0.0 **** 0.1203
5368 N 58.28 13.983 -28.324 N.am 0.0 **** -0.1789
5369 CA 58.496 14.378 -29.729 C.3 0.0 **** 0.1681
5370 C 57.134 14.38 -30.413 C.2 0.0 **** 0.2451
5371 O 56.38 13.431 -30.245 O.2 0.0 **** -0.2725
5372 CB 59.424 13.386 -30.375 C.3 0.0 **** 0.0414
5373 N 56.781 15.421 -31.174 N.am 0.0 **** -0.3289
5374 CA 55.468 15.456 -31.836 C.3 0.0 **** 0.1741
5375 C 55.535 14.731 -33.171 C.2 0.0 **** 0.243
5376 O 55.557 15.332 -34.251 O.2 0.0 **** -0.2727
5377 CB 55.217 16.957 -31.987 C.3 0.0 **** 0.037
5378 CG 56.593 17.528 -32.176 C.3 0.0 **** 0.0242
5379 CD 57.569 16.628 -31.473 C.3 0.0 **** 0.1203
5380 N 55.601 13.404 -33.076 N.am 0.0 **** -0.1784
5381 CA 55.772 12.555 -34.245 C.3 0.0 **** 0.1735
5382 C 54.47 11.913 -34.682 C.2 0.0 **** 0.243
5383 O 54.439 11.284 -35.75 O.2 0.0 **** -0.2727
5384 CB 56.832 11.462 -33.991 C.3 0.0 **** 0.0147
5385 CG1 58.152 12.103 -33.629 C.3 0.0 **** 0.0099
5386 CG2 56.379 10.488 -32.883 C.3 0.0 **** 0.0099
5387 N 53.394 12.036 -33.888 N.am 0.0 **** -0.1786
5388 CA 52.086 11.607 -34.356 C.3 0.0 **** 0.1716
5389 C 51.405 12.751 -35.104 C.2 0.0 **** 0.2454
5390 O 51.495 13.913 -34.686 O.2 0.0 **** -0.2724
5391 CB 51.201 11.167 -33.198 C.3 0.0 **** 0.0434
5392 CG 51.597 9.87 -32.529 C.3 0.0 **** 0.0873
5393 CD 51.466 8.698 -33.449 C.2 0.0 **** 0.1859
5394 OE1 50.387 8.537 -34.072 O.co2 0.0 **** -0.6397
5395 OE2 52.461 7.953 -33.561 O.co2 0.0 **** -0.6397
5396 N 50.72 12.455 -36.204 N.am 0.0 **** -0.3289
5397 CA 49.949 13.474 -36.907 C.3 0.0 **** 0.1741
5398 C 48.519 13.506 -36.381 C.2 0.0 **** 0.243
5399 O 48.076 12.619 -35.649 O.2 0.0 **** -0.2727
5400 CB 49.989 12.969 -38.361 C.3 0.0 **** 0.037
5401 CG 49.899 11.477 -38.188 C.3 0.0 **** 0.0242
5402 CD 50.584 11.145 -36.864 C.3 0.0 **** 0.1203
5403 N 47.79 14.529 -36.806 N.am 0.0 **** -0.1784
5404 CA 46.375 14.644 -36.468 C.3 0.0 **** 0.1735
5405 C 45.546 13.837 -37.463 C.2 0.0 **** 0.243
5406 O 45.638 14.034 -38.685 O.2 0.0 **** -0.2727
5407 CB 45.944 16.118 -36.428 C.3 0.0 **** 0.0147
5408 CG1 44.441 16.244 -36.209 C.3 0.0 **** 0.0099
5409 CG2 46.714 16.855 -35.299 C.3 0.0 **** 0.0099
5410 N 44.745 12.907 -36.941 N.am 0.0 **** -0.1786
5411 CA 43.802 12.146 -37.754 C.3 0.0 **** 0.1714
5412 C 42.456 12.857 -37.733 C.2 0.0 **** 0.2428
5413 O 41.889 13.081 -36.662 O.2 0.0 **** -0.2727
5414 CB 43.643 10.729 -37.222 C.3 0.0 **** 0.0447
5415 CG 44.754 9.79 -37.605 C.3 0.0 **** 0.1022
5416 CD 44.392 8.351 -37.321 C.2 0.0 **** 0.217
5417 OE1 44.059 8.004 -36.181 O.2 0.0 **** -0.2753
5418 NE2 44.432 7.503 -38.364 N.am 0.0 **** -0.0515
5419 N 41.928 13.184 -38.909 N.am 0.0 **** -0.1784
5420 CA 40.727 14.002 -39.021 C.3 0.0 **** 0.1735
5421 C 39.555 13.122 -39.417 C.2 0.0 **** 0.243
5422 O 39.604 12.448 -40.449 O.2 0.0 **** -0.2727
5423 CB 40.91 15.125 -40.051 C.3 0.0 **** 0.0147
5424 CG1 39.614 15.943 -40.19 C.3 0.0 **** 0.0099
5425 CG2 42.108 15.991 -39.675 C.3 0.0 **** 0.0099
5426 N 38.491 13.166 -38.629 N.am 0.0 **** -0.1786
5427 CA 37.221 12.568 -39.004 C.3 0.0 **** 0.1714
5428 C 36.152 13.646 -39.075 C.2 0.0 **** 0.2428
5429 O 36.401 14.826 -38.81 O.2 0.0 **** -0.2727
5430 CB 36.813 11.475 -38.023 C.3 0.0 **** 0.0447
5431 CG 37.68 10.25 -38.121 C.3 0.0 **** 0.1022
5432 CD 37.125 9.096 -37.329 C.2 0.0 **** 0.217
5433 OE1 36.752 8.064 -37.896 O.2 0.0 **** -0.2753
5434 NE2 37.066 9.257 -36.003 N.am 0.0 **** -0.0515
5435 N 34.944 13.221 -39.436 N.am 0.0 **** -0.1782
5436 CA 33.859 14.17 -39.622 C.3 0.0 **** 0.1789
5437 C 33.721 15.081 -38.409 C.2 0.0 **** 0.2433
5438 O 33.812 16.304 -38.532 O.2 0.0 **** -0.2727
5439 CB 32.555 13.435 -39.884 C.3 0.0 **** 0.1195
5440 CG 32.407 13.016 -41.33 C.2 0.0 **** 0.1884
5441 OD1 33.371 13.183 -42.113 O.co2 0.0 **** -0.6396
5442 OD2 31.314 12.527 -41.678 O.co2 0.0 **** -0.6396
5443 N 33.496 14.496 -37.226 N.am 0.0 **** -0.1765
5444 CA 33.196 15.269 -36.026 C.3 0.0 **** 0.1967
5445 C 34.293 15.221 -34.971 C.2 0.0 **** 0.2451
5446 O 34.232 15.987 -34.001 O.2 0.0 **** -0.2726
5447 CB 31.885 14.776 -35.398 C.3 0.0 **** 0.1907
5448 OG 31.968 13.402 -35.091 O.3 0.0 **** -0.1835
5449 N 35.295 14.365 -35.138 N.am 0.0 **** -0.1786
5450 CA 36.345 14.179 -34.156 C.3 0.0 **** 0.1714
5451 C 37.702 14.32 -34.817 C.2 0.0 **** 0.2428
5452 O 37.855 14.158 -36.03 O.2 0.0 **** -0.2727
5453 CB 36.26 12.798 -33.494 C.3 0.0 **** 0.0434
5454 CG 35.07 12.618 -32.587 C.3 0.0 **** 0.0873
5455 CD 34.857 11.174 -32.197 C.2 0.0 **** 0.1859
5456 OE1 35.205 10.281 -33.003 O.co2 0.0 **** -0.6397
5457 OE2 34.335 10.932 -31.087 O.co2 0.0 **** -0.6397
5458 N 38.687 14.607 -33.985 N.am 0.0 **** -0.1786
5459 CA 40.087 14.533 -34.35 C.3 0.0 **** 0.1712
5460 C 40.779 13.58 -33.392 C.2 0.0 **** 0.2428
5461 O 40.414 13.493 -32.213 O.2 0.0 **** -0.2727
5462 CB 40.771 15.899 -34.271 C.3 0.0 **** 0.0378
5463 CG 40.103 17.065 -34.984 C.3 0.0 **** -0.0149
5464 CD1 40.875 18.363 -34.689 C.3 0.0 **** 0.0072
5465 CD2 40.03 16.777 -36.471 C.3 0.0 **** 0.0072
5466 N 41.796 12.879 -33.884 N.am 0.0 **** -0.1763
5467 CA 42.596 12.04 -33.007 C.3 0.0 **** 0.1996
5468 C 44.06 12.423 -33.142 C.2 0.0 **** 0.2454
5469 O 44.551 12.688 -34.243 O.2 0.0 **** -0.2726
5470 CB 42.37 10.568 -33.317 C.3 0.0 **** 0.1429
5471 OG1 40.983 10.27 -33.118 O.3 0.0 **** -0.1801
5472 CG2 43.203 9.678 -32.39 C.3 0.0 **** 0.0409
5473 N 44.743 12.498 -32.002 N.am 0.0 **** -0.1786
5474 CA 46.176 12.773 -31.989 C.3 0.0 **** 0.1712
5475 C 46.773 11.814 -30.966 C.2 0.0 **** 0.2425
5476 O 46.683 12.043 -29.754 O.2 0.0 **** -0.2727
5477 CB 46.475 14.234 -31.664 C.3 0.0 **** 0.0378
5478 CG 47.962 14.616 -31.598 C.3 0.0 **** -0.0149
5479 CD1 48.67 14.289 -32.924 C.3 0.0 **** 0.0072
5480 CD2 48.166 16.074 -31.248 C.3 0.0 **** 0.0072
5481 N 47.357 10.725 -31.463 N.am 0.0 **** -0.1817
5482 CA 47.804 9.655 -30.61 C.3 0.0 **** 0.2159
5483 C 46.673 9.175 -29.719 C.2 0.0 **** 0.2422
5484 O 45.612 8.763 -30.199 O.2 0.0 **** -0.2728
5485 N 46.859 9.245 -28.403 N.am 0.0 **** -0.3291
5486 CA 45.844 8.73 -27.473 C.3 0.0 **** 0.1741
5487 C 44.704 9.681 -27.122 C.2 0.0 **** 0.243
5488 O 43.828 9.285 -26.343 O.2 0.0 **** -0.2727
5489 CB 46.678 8.422 -26.227 C.3 0.0 **** 0.037
5490 CG 47.806 9.41 -26.272 C.3 0.0 **** 0.0242
5491 CD 48.103 9.639 -27.719 C.3 0.0 **** 0.1203
5492 N 44.639 10.883 -27.68 N.4 0.0 **** -0.1784
5493 CA 43.622 11.852 -27.292 C.3 0.0 **** 0.1735
5494 C 42.659 12.04 -28.453 C.2 0.0 **** 0.243
5495 O 43.071 12.151 -29.62 O.2 0.0 **** -0.2727
5496 CB 44.247 13.183 -26.826 C.3 0.0 **** 0.0147
5497 CG1 45.222 13.718 -27.836 C.3 0.0 **** 0.0099
5498 CG2 43.167 14.215 -26.494 C.3 0.0 **** 0.0099
5499 CA 43.638 11.876 -27.302999 C.3 0.0 **** 0.0
5500 CB 44.293999 13.218 -26.929001 C.3 0.0 **** 0.0
5501 CG1 43.237999 14.263 -26.563 C.3 0.0 **** 0.0
5502 CG2 45.245998 13.015 -25.768 C.3 0.0 **** 0.0
5503 N 41.372 12.022 -28.135 N.am 0.0 **** -0.1784
5504 CA 40.31 12.278 -29.098 C.3 0.0 **** 0.1735
5505 C 39.759 13.659 -28.787 C.2 0.0 **** 0.243
5506 O 39.617 14.015 -27.613 O.2 0.0 **** -0.2727
5507 CB 39.213 11.199 -29.017 C.3 0.0 **** 0.0147
5508 CG1 38.154 11.429 -30.087 C.3 0.0 **** 0.0099
5509 CG2 39.836 9.802 -29.145 C.3 0.0 **** 0.0099
5510 N 39.505 14.451 -29.821 N.am 0.0 **** -0.1783
5511 CA 38.946 15.785 -29.648 C.3 0.0 **** 0.1753
5512 C 37.604 15.912 -30.352 C.2 0.0 **** 0.2432
5513 O 37.369 15.3 -31.398 O.2 0.0 **** -0.2727
5514 CB 39.866 16.881 -30.214 C.3 0.0 **** 0.0702
5515 CG 41.249 16.897 -29.64 C.ar 0.0 **** -0.0454
5516 CD1 42.224 16.02 -30.113 C.ar 0.0 **** 0.0036
5517 CD2 41.585 17.801 -28.643 C.ar 0.0 **** 0.0036
5518 CE1 43.501 16.045 -29.591 C.ar 0.0 **** 0.0003
5519 CE2 42.849 17.836 -28.125 C.ar 0.0 **** 0.0003
5520 CZ 43.808 16.958 -28.592 C.ar 0.0 **** 0.0
5521 N 36.745 16.767 -29.797 N.am 0.0 **** -0.1765
5522 CA 35.563 17.228 -30.51 C.3 0.0 **** 0.1967
5523 C 35.956 18.344 -31.482 C.2 0.0 **** 0.2451
5524 O 36.593 19.323 -31.07 O.2 0.0 **** -0.2726
5525 CB 34.521 17.743 -29.51 C.3 0.0 **** 0.1907
5526 OG 33.589 18.576 -30.169 O.3 0.0 **** -0.1835
5527 N 35.586 18.202 -32.771 N.am 0.0 **** -0.1786
5528 CA 35.819 19.292 -33.72 C.3 0.0 **** 0.171
5529 C 34.887 20.47 -33.484 C.2 0.0 **** 0.2427
5530 O 35.154 21.578 -33.974 O.2 0.0 **** -0.2727
5531 CB 35.656 18.802 -35.179 C.3 0.0 **** 0.0367
5532 CG 36.83 18.046 -35.679 C.3 0.0 **** 0.0239
5533 CD 36.632 17.559 -37.12 C.3 0.0 **** 0.1157
5534 NE 36.694 18.638 -38.104 N.pl3 0.0 **** 0.138
5535 CZ 36.584 18.461 -39.418 C.cat 0.0 **** 0.1634
5536 NH1 36.399 17.246 -39.922 N.pl3 0.0 **** 0.2799
5537 NH2 36.656 19.502 -40.237 N.pl3 0.0 **** 0.2799
5538 N 33.788 20.255 -32.763 N.am 0.0 **** -0.179
5539 CA 32.881 21.344 -32.451 C.3 0.0 **** 0.1678
5540 C 33.381 22.197 -31.295 C.2 0.0 **** 0.2425
5541 O 33.135 23.409 -31.275 O.2 0.0 **** -0.2727
5542 CB 31.498 20.791 -32.121 C.3 0.0 **** 0.0414
5543 N 34.056 21.596 -30.302 N.am 0.0 **** -0.1763
5544 CA 34.528 22.357 -29.159 C.3 0.0 **** 0.1995
5545 C 36.034 22.549 -29.122 C.2 0.0 **** 0.2452
5546 O 36.497 23.501 -28.492 O.2 0.0 **** -0.2726
5547 CB 34.093 21.693 -27.837 C.3 0.0 **** 0.1429
5548 OG1 34.851 20.497 -27.611 O.3 0.0 **** -0.1801
5549 CG2 32.609 21.332 -27.876 C.3 0.0 **** 0.0409
5550 N 36.802 21.694 -29.775 N.am 0.0 **** -0.1816
5551 CA 38.232 21.714 -29.588 C.3 0.0 **** 0.2156
5552 C 38.699 21.107 -28.287 C.2 0.0 **** 0.2396
5553 O 39.91 21.072 -28.045 O.2 0.0 **** -0.273
5554 N 37.789 20.636 -27.446 N.am 0.0 **** -0.1789
5555 CA 38.215 20.023 -26.195 C.3 0.0 **** 0.172
5556 C 38.453 18.532 -26.398 C.2 0.0 **** 0.2454
5557 O 37.806 17.891 -27.243 O.2 0.0 **** -0.2724
5558 CB 37.156 20.192 -25.124 C.3 0.0 **** 0.0457
5559 CG 36.902 21.619 -24.685 C.3 0.0 **** 0.0716
5560 SD 35.703 21.646 -23.313 S.3 0.0 **** -0.1653
5561 CE 34.159 21.174 -24.091 C.3 0.0 **** 0.0847
5562 N 39.352 17.944 -25.628 N.am 0.0 **** -0.3289
5563 CA 39.484 16.49 -25.668 C.3 0.0 **** 0.1741
5564 C 38.207 15.85 -25.147 C.2 0.0 **** 0.2431
5565 O 37.577 16.354 -24.211 O.2 0.0 **** -0.2727
5566 CB 40.682 16.213 -24.75 C.3 0.0 **** 0.037
5567 CG 40.742 17.362 -23.843 C.3 0.0 **** 0.0242
5568 CD 40.225 18.558 -24.62 C.3 0.0 **** 0.1203
5569 N 37.814 14.744 -25.769 N.am 0.0 **** -0.1763
5570 CA 36.709 13.935 -25.272 C.3 0.0 **** 0.1996
5571 C 37.166 12.619 -24.65 C.2 0.0 **** 0.2455
5572 O 36.379 11.974 -23.948 O.2 0.0 **** -0.2726
5573 CB 35.715 13.647 -26.403 C.3 0.0 **** 0.1429
5574 OG1 36.418 13.108 -27.533 O.3 0.0 **** -0.1801
5575 CG2 34.991 14.943 -26.808 C.3 0.0 **** 0.0409
5576 N 38.408 12.21 -24.874 N.am 0.0 **** -0.1764
5577 CA 38.979 11.086 -24.144 C.3 0.0 **** 0.1967
5578 C 40.489 11.199 -24.236 C.2 0.0 **** 0.2452
5579 O 41.019 11.744 -25.205 O.2 0.0 **** -0.2726
5580 CB 38.503 9.732 -24.692 C.3 0.0 **** 0.1907
5581 OG 38.923 9.553 -26.036 O.3 0.0 **** -0.1835
5582 N 41.17 10.728 -23.191 N.am 0.0 **** -0.1783
5583 CA 42.621 10.661 -23.165 C.3 0.0 **** 0.1738
5584 C 42.975 9.228 -22.793 C.2 0.0 **** 0.2428
5585 O 42.661 8.778 -21.683 O.2 0.0 **** -0.2727
5586 CB 43.226 11.659 -22.18 C.3 0.0 **** 0.0176
5587 CG1 42.818 13.08 -22.582 C.3 0.0 **** 0.0024
5588 CG2 44.727 11.527 -22.149 C.3 0.0 **** 0.0102
5589 CD1 43.171 14.152 -21.53 C.3 0.0 **** 0.0041
5590 N 43.575 8.501 -23.734 N.am 0.0 **** -0.1817
5591 CA 43.892 7.098 -23.505 C.3 0.0 **** 0.2156
5592 C 42.715 6.287 -23.016 C.2 0.0 **** 0.2394
5593 O 42.883 5.391 -22.177 O.2 0.0 **** -0.273
5594 N 41.512 6.598 -23.503 N.am 0.0 **** -0.1819
5595 CA 40.309 5.92 -23.079 C.3 0.0 **** 0.2156
5596 C 39.603 6.556 -21.9 C.2 0.0 **** 0.2396
5597 O 38.424 6.271 -21.679 O.2 0.0 **** -0.273
5598 N 40.28 7.401 -21.131 N.am 0.0 **** -0.1787
5599 CA 39.628 8.055 -20.003 C.3 0.0 **** 0.1737
5600 C 38.69 9.125 -20.541 C.2 0.0 **** 0.2456
5601 O 39.136 10.037 -21.245 O.2 0.0 **** -0.2724
5602 CB 40.654 8.651 -19.045 C.3 0.0 **** 0.0147
5603 CG1 39.942 9.469 -17.938 C.3 0.0 **** 0.0099
5604 CG2 41.503 7.53 -18.458 C.3 0.0 **** 0.0099
5605 N 37.395 9.05 -20.258 N.am 0.0 **** -0.3289
5606 CA 36.462 10.001 -20.867 C.3 0.0 **** 0.1741
5607 C 36.632 11.382 -20.258 C.2 0.0 **** 0.243
5608 O 36.643 11.546 -19.034 O.2 0.0 **** -0.2727
5609 CB 35.087 9.402 -20.552 C.3 0.0 **** 0.037
5610 CG 35.308 8.646 -19.298 C.3 0.0 **** 0.0242
5611 CD 36.709 8.103 -19.364 C.3 0.0 **** 0.1203
5612 N 36.772 12.377 -21.118 N.am 0.0 **** -0.1784
5613 CA 36.868 13.765 -20.696 C.3 0.0 **** 0.1735
5614 C 35.57 14.448 -21.075 C.2 0.0 **** 0.243
5615 O 35.223 14.503 -22.261 O.2 0.0 **** -0.2727
5616 CB 38.052 14.47 -21.357 C.3 0.0 **** 0.0147
5617 CG1 38.097 15.919 -20.922 C.3 0.0 **** 0.0099
5618 CG2 39.329 13.73 -21.05 C.3 0.0 **** 0.0099
5619 N 34.861 14.976 -20.07 N.am 0.0 **** -0.1786
5620 CA 33.611 15.678 -20.31 C.3 0.0 **** 0.1714
5621 C 33.829 17.158 -20.561 C.2 0.0 **** 0.2428
5622 O 33.071 17.761 -21.33 O.2 0.0 **** -0.2727
5623 CB 32.653 15.501 -19.132 C.3 0.0 **** 0.0434
5624 CG 32.222 14.054 -18.929 C.3 0.0 **** 0.0873
5625 CD 30.925 13.913 -18.155 C.2 0.0 **** 0.1859
5626 OE1 30.397 14.955 -17.704 O.co2 0.0 **** -0.6397
5627 OE2 30.433 12.763 -18.007 O.co2 0.0 **** -0.6397
5628 N 34.882 17.737 -19.988 N.am 0.0 **** -0.1787
5629 CA 35.147 19.156 -20.168 C.3 0.0 **** 0.1709
5630 C 36.615 19.451 -19.856 C.2 0.0 **** 0.2427
5631 O 37.227 18.799 -19.002 O.2 0.0 **** -0.2727
5632 CB 34.229 19.973 -19.259 C.3 0.0 **** 0.035
5633 CG 34.21 21.443 -19.562 C.3 0.0 **** 0.0062
5634 CD 33.241 22.164 -18.634 C.3 0.0 **** 0.0387
5635 CE 33.115 23.659 -18.963 C.3 0.0 **** 0.1659
5636 NZ 32.529 24.413 -17.815 N.4 0.0 **** 0.7918
5637 N 37.177 20.42 -20.577 N.am 0.0 **** -0.1786
5638 CA 38.47 20.997 -20.225 C.3 0.0 **** 0.1712
5639 C 38.403 22.51 -20.434 C.2 0.0 **** 0.2425
5640 O 37.938 22.967 -21.484 O.2 0.0 **** -0.2727
5641 CB 39.604 20.408 -21.051 C.3 0.0 **** 0.0378
5642 CG 40.947 21.122 -20.872 C.3 0.0 **** -0.0149
5643 CD1 41.502 20.927 -19.446 C.3 0.0 **** 0.0072
5644 CD2 41.939 20.626 -21.878 C.3 0.0 **** 0.0072
5645 N 38.887 23.276 -19.457 N.am 0.0 **** -0.1817
5646 CA 38.866 24.72 -19.588 C.3 0.0 **** 0.2156
5647 C 39.727 25.402 -18.551 C.2 0.0 **** 0.2396
5648 O 40.249 24.778 -17.616 O.2 0.0 **** -0.273
5649 N 39.864 26.708 -18.737 N.am 0.0 **** -0.1789
5650 CA 40.608 27.543 -17.809 C.3 0.0 **** 0.1712
5651 C 39.795 27.824 -16.547 C.2 0.0 **** 0.2428
5652 O 38.575 28.011 -16.594 O.2 0.0 **** -0.2727
5653 CB 40.97 28.872 -18.463 C.3 0.0 **** 0.0378
5654 CG 41.972 29.758 -17.714 C.3 0.0 **** -0.0149
5655 CD1 43.34 29.299 -18.011 C.3 0.0 **** 0.0072
5656 CD2 41.789 31.186 -18.136 C.3 0.0 **** 0.0072
5657 N 40.5 27.883 -15.41 N.am 0.0 **** -0.1763
5658 CA 39.933 28.336 -14.153 C.3 0.0 **** 0.1996
5659 C 40.651 29.587 -13.692 C.2 0.0 **** 0.2454
5660 O 41.873 29.693 -13.832 O.2 0.0 **** -0.2726
5661 CB 40.072 27.28 -13.046 C.3 0.0 **** 0.1429
5662 OG1 41.46 26.937 -12.885 O.3 0.0 **** -0.1801
5663 CG2 39.258 26.051 -13.381 C.3 0.0 **** 0.0409
5664 N 39.886 30.509 -13.097 N.am 0.0 **** -0.1786
5665 CA 40.398 31.722 -12.489 C.3 0.0 **** 0.1712
5666 C 39.807 31.941 -11.106 C.2 0.0 **** 0.2428
5667 O 40.175 32.91 -10.433 O.2 0.0 **** -0.2727
5668 CB 40.066 32.945 -13.361 C.3 0.0 **** 0.0378
5669 CG 40.614 32.934 -14.795 C.3 0.0 **** -0.0149
5670 CD1 40.093 34.139 -15.604 C.3 0.0 **** 0.0072
5671 CD2 42.154 32.931 -14.76 C.3 0.0 **** 0.0072
5672 N 38.901 31.073 -10.666 N.am 0.0 **** -0.1783
5673 CA 38.08 31.307 -9.479 C.3 0.0 **** 0.1754
5674 C 38.057 30.047 -8.624 C.2 0.0 **** 0.2431
5675 O 38.291 28.933 -9.116 O.2 0.0 **** -0.2727
5676 CB 36.646 31.687 -9.917 C.3 0.0 **** 0.0724
5677 CG 35.564 31.82 -8.842 C.2 0.0 **** -0.0201
5678 CD1 35.301 32.921 -8.047 C.2 0.0 **** 0.0869
5679 CD2 34.568 30.849 -8.505 C.2 0.0 **** 0.0027
5680 NE1 34.203 32.678 -7.247 N.pl3 0.0 **** -0.195
5681 CE2 33.736 31.422 -7.519 C.2 0.0 **** 0.0456
5682 CE3 34.284 29.56 -8.959 C.2 0.0 **** 0.0104
5683 CZ2 32.66 30.742 -6.962 C.2 0.0 **** 0.0265
5684 CZ3 33.201 28.879 -8.393 C.2 0.0 **** 0.0008
5685 CH2 32.404 29.482 -7.404 C.2 0.0 **** 0.0022
5686 N 37.738 30.221 -7.354 N.am 0.0 **** -0.1783
5687 CA 37.5 29.096 -6.471 C.3 0.0 **** 0.1754
5688 C 36.318 29.423 -5.566 C.2 0.0 **** 0.2431
5689 O 35.933 30.586 -5.409 O.2 0.0 **** -0.2727
5690 CB 38.782 28.718 -5.679 C.3 0.0 **** 0.0724
5691 CG 39.298 29.647 -4.578 C.2 0.0 **** -0.0201
5692 CD1 38.575 30.486 -3.774 C.2 0.0 **** 0.0869
5693 CD2 40.669 29.807 -4.179 C.2 0.0 **** 0.0027
5694 NE1 39.412 31.141 -2.883 N.pl3 0.0 **** -0.195
5695 CE2 40.695 30.73 -3.107 C.2 0.0 **** 0.0456
5696 CE3 41.873 29.242 -4.608 C.2 0.0 **** 0.0104
5697 CZ2 41.88 31.108 -2.465 C.2 0.0 **** 0.0265
5698 CZ3 43.048 29.619 -3.971 C.2 0.0 **** 0.0008
5699 CH2 43.035 30.555 -2.907 C.2 0.0 **** 0.0022
5700 N 35.735 28.384 -4.965 N.am 0.0 **** -0.1789
5701 CA 34.625 28.6 -4.056 C.3 0.0 **** 0.1681
5702 C 35.106 29.373 -2.823 C.2 0.0 **** 0.2451
5703 O 35.96 28.862 -2.076 O.2 0.0 **** -0.2725
5704 CB 34.007 27.275 -3.625 C.3 0.0 **** 0.0414
5705 N 34.587 30.573 -2.568 N.am 0.0 **** -0.3289
5706 CA 35.156 31.447 -1.543 C.3 0.0 **** 0.1741
5707 C 35.366 30.782 -0.199 C.2 0.0 **** 0.2431
5708 O 34.474 30.134 0.337 O.2 0.0 **** -0.2727
5709 CB 34.109 32.539 -1.408 C.3 0.0 **** 0.037
5710 CG 33.545 32.648 -2.729 C.3 0.0 **** 0.0242
5711 CD 33.582 31.285 -3.352 C.3 0.0 **** 0.1203
5712 N 36.544 30.994 0.357 N.am 0.0 **** -0.1763
5713 CA 36.799 30.611 1.751 C.3 0.0 **** 0.1996
5714 C 36.098 31.564 2.707 C.2 0.0 **** 0.2454
5715 O 35.583 32.615 2.332 O.2 0.0 **** -0.2726
5716 CB 38.284 30.644 2.047 C.3 0.0 **** 0.1429
5717 OG1 38.715 31.999 2.026 O.3 0.0 **** -0.1801
5718 CG2 39.105 29.846 0.998 C.3 0.0 **** 0.0409
5719 N 36.11 31.219 4.001 N.am 0.0 **** -0.1781
5720 CA 35.596 32.162 4.973 C.3 0.0 **** 0.1789
5721 C 36.349 33.483 4.899 C.2 0.0 **** 0.2432
5722 O 35.747 34.561 5.048 O.2 0.0 **** -0.2727
5723 CB 35.674 31.547 6.379 C.3 0.0 **** 0.1195
5724 CG 34.724 30.382 6.534 C.2 0.0 **** 0.1884
5725 OD1 33.592 30.485 6.017 O.co2 0.0 **** -0.6396
5726 OD2 35.11 29.371 7.154 O.co2 0.0 **** -0.6396
5727 N 37.66 33.432 4.668 N.am 0.0 **** -0.1781
5728 CA 38.422 34.682 4.574 C.3 0.0 **** 0.1802
5729 C 37.986 35.527 3.378 C.2 0.0 **** 0.2433
5730 O 37.906 36.756 3.487 O.2 0.0 **** -0.2727
5731 CB 39.917 34.389 4.502 C.3 0.0 **** 0.1344
5732 CG 40.443 33.899 5.836 C.2 0.0 **** 0.2196
5733 OD1 39.93 34.299 6.891 O.2 0.0 **** -0.2752
5734 ND2 41.392 32.966 5.802 N.am 0.0 **** -0.0514
5735 N 37.709 34.891 2.25 N.am 0.0 **** -0.1782
5736 CA 37.263 35.617 1.064 C.3 0.0 **** 0.1789
5737 C 35.9 36.26 1.257 C.2 0.0 **** 0.2432
5738 O 35.561 37.201 0.534 O.2 0.0 **** -0.2727
5739 CB 37.202 34.676 -0.152 C.3 0.0 **** 0.1195
5740 CG 38.524 34.053 -0.478 C.2 0.0 **** 0.1884
5741 OD1 39.582 34.69 -0.262 O.co2 0.0 **** -0.6396
5742 OD2 38.516 32.895 -0.942 O.co2 0.0 **** -0.6396
5743 N 35.108 35.766 2.193 N.am 0.0 **** -0.1786
5744 CA 33.847 36.417 2.52 C.3 0.0 **** 0.1712
5745 C 34.005 37.611 3.468 C.2 0.0 **** 0.2425
5746 O 33.013 38.298 3.727 O.2 0.0 **** -0.2727
5747 CB 32.89 35.391 3.125 C.3 0.0 **** 0.0378
5748 CG 32.464 34.276 2.182 C.3 0.0 **** -0.0149
5749 CD1 31.812 33.129 2.959 C.3 0.0 **** 0.0072
5750 CD2 31.507 34.787 1.106 C.3 0.0 **** 0.0072
5751 N 35.218 37.913 3.941 N.am 0.0 **** -0.1817
5752 CA 35.434 39.056 4.82 C.3 0.0 **** 0.2156
5753 C 35.884 40.28 4.033 C.2 0.0 **** 0.2396
5754 O 36.5 40.167 2.975 O.2 0.0 **** -0.273
5755 N 35.529 41.453 4.541 N.am 0.0 **** -0.1789
5756 CA 35.966 42.708 3.941 C.3 0.0 **** 0.171
5757 C 37.442 42.926 4.205 C.2 0.0 **** 0.2427
5758 O 37.957 42.573 5.267 O.2 0.0 **** -0.2727
5759 CB 35.175 43.882 4.508 C.3 0.0 **** 0.0367
5760 CG 33.678 43.67 4.481 C.3 0.0 **** 0.0239
5761 CD 32.895 44.967 4.68 C.3 0.0 **** 0.1157
5762 NE 31.446 44.751 4.538 N.pl3 0.0 **** 0.138
5763 CZ 30.759 44.846 3.394 C.cat 0.0 **** 0.1634
5764 NH1 31.372 45.167 2.255 N.pl3 0.0 **** 0.2799
5765 NH2 29.441 44.621 3.388 N.pl3 0.0 **** 0.2799
5766 N 38.119 43.514 3.237 N.am 0.0 **** -0.1786
5767 CA 39.479 44.009 3.413 C.3 0.0 **** 0.1714
5768 C 39.406 45.532 3.444 C.2 0.0 **** 0.2428
5769 O 39.153 46.177 2.418 O.2 0.0 **** -0.2727
5770 CB 40.415 43.516 2.306 C.3 0.0 **** 0.0434
5771 CG 41.188 42.241 2.636 C.3 0.0 **** 0.0873
5772 CD 41.466 41.425 1.39 C.2 0.0 **** 0.1859
5773 OE1 40.506 41.19 0.612 O.co2 0.0 **** -0.6397
5774 OE2 42.64 41.038 1.186 O.co2 0.0 **** -0.6397
5775 N 39.591 46.057 4.643 N.am 0.0 **** -0.1783
5776 CA 39.459 47.482 5.023 C.3 0.0 **** 0.1754
5777 C 40.589 48.338 4.442 C.2 0.0 **** 0.2429
5778 O 40.469 49.58 4.488 O.2 0.0 **** -0.2727
5779 CB 39.404 47.546 6.55 C.3 0.0 **** 0.0724
5780 CG 38.374 46.637 7.136 C.2 0.0 **** -0.0201
5781 CD1 38.562 45.376 7.6 C.2 0.0 **** 0.0869
5782 CD2 36.983 46.926 7.337 C.2 0.0 **** 0.0027
5783 NE1 37.39 44.856 8.066 N.pl3 0.0 **** -0.195
5784 CE2 36.404 45.783 7.92 C.2 0.0 **** 0.0456
5785 CE3 36.168 48.029 7.074 C.2 0.0 **** 0.0104
5786 CZ2 35.055 45.71 8.238 C.2 0.0 **** 0.0265
5787 CZ3 34.833 47.96 7.398 C.2 0.0 **** 0.0008
5788 CH2 34.29 46.818 7.982 C.2 0.0 **** 0.0022
5789 N 41.599 47.699 3.856 N.am 0.0 **** -0.1817
5790 CA 42.821 48.371 3.376 C.3 0.0 **** 0.2156
5791 C 42.638 49.474 2.343 C.2 0.0 **** 0.2394
5792 O 43.356 50.476 2.469 O.2 0.0 **** -0.273
5793 N 41.73 49.331 1.373 N.am 0.0 **** -0.1819
5794 CA 41.583 50.326 0.294 C.3 0.0 **** 0.2156
5795 C 40.181 50.885 0.194 C.2 0.0 **** 0.2396
5796 O 39.422 50.679 1.146 O.2 0.0 **** -0.273
5797 N 39.88 51.586 -0.909 N.am 0.0 **** -0.1792
5798 CA 38.568 52.163 -1.178 C.3 0.0 **** 0.1678
5799 C 37.566 51.128 -1.667 C.2 0.0 **** 0.2425
5800 O 36.396 51.471 -1.892 O.2 0.0 **** -0.2727
5801 CB 38.663 53.277 -2.231 C.3 0.0 **** 0.0414
5802 N 38.005 49.894 -1.876 N.am 0.0 **** -0.1782
5803 CA 37.1 48.797 -2.194 C.3 0.0 **** 0.1789
5804 C 36.968 47.977 -0.933 C.2 0.0 **** 0.2432
5805 O 37.907 47.283 -0.536 O.2 0.0 **** -0.2727
5806 CB 37.619 47.933 -3.34 C.3 0.0 **** 0.1195
5807 CG 36.549 47.022 -3.922 C.2 0.0 **** 0.1884
5808 OD1 35.365 47.135 -3.5 O.co2 0.0 **** -0.6396
5809 OD2 36.912 46.208 -4.807 O.co2 0.0 **** -0.6396
5810 N 35.811 48.033 -0.312 N.am 0.0 **** -0.1786
5811 CA 35.608 47.212 0.866 C.3 0.0 **** 0.1714
5812 C 34.721 46.009 0.597 C.2 0.0 **** 0.2428
5813 O 34.387 45.279 1.543 O.2 0.0 **** -0.2727
5814 CB 35.083 48.08 2.014 C.3 0.0 **** 0.0434
5815 CG 36.23 48.928 2.619 C.3 0.0 **** 0.0873
5816 CD 35.849 49.676 3.897 C.2 0.0 **** 0.1859
5817 OE1 34.66 49.642 4.292 O.co2 0.0 **** -0.6397
5818 OE2 36.758 50.291 4.506 O.co2 0.0 **** -0.6397
5819 N 34.402 45.727 -0.668 N.am 0.0 **** -0.1786
5820 CA 33.72 44.483 -0.978 C.3 0.0 **** 0.1712
5821 C 34.614 43.316 -0.583 C.2 0.0 **** 0.2453
5822 O 35.82 43.333 -0.871 O.2 0.0 **** -0.2724
5823 CB 33.38 44.376 -2.466 C.3 0.0 **** 0.0367
5824 CG 32.318 45.351 -2.944 C.3 0.0 **** 0.0239
5825 CD 32.227 45.339 -4.465 C.3 0.0 **** 0.1157
5826 NE 33.524 45.583 -5.077 N.pl3 0.0 **** 0.138
5827 CZ 33.845 45.261 -6.333 C.cat 0.0 **** 0.1634
5828 NH1 32.972 44.637 -7.13 N.pl3 0.0 **** 0.2799
5829 NH2 35.068 45.537 -6.786 N.pl3 0.0 **** 0.2799
5830 N 34.068 42.285 0.063 N.am 0.0 **** -0.3289
5831 CA 34.804 41.032 0.196 C.3 0.0 **** 0.1741
5832 C 35.292 40.552 -1.157 C.2 0.0 **** 0.243
5833 O 34.667 40.803 -2.185 O.2 0.0 **** -0.2727
5834 CB 33.76 40.07 0.768 C.3 0.0 **** 0.037
5835 CG 32.812 40.935 1.486 C.3 0.0 **** 0.0242
5836 CD 32.727 42.194 0.659 C.3 0.0 **** 0.1203
5837 N 36.405 39.824 -1.151 N.am 0.0 **** -0.1786
5838 CA 36.887 39.246 -2.397 C.3 0.0 **** 0.1712
5839 C 35.811 38.426 -3.086 C.2 0.0 **** 0.2427
5840 O 35.692 38.456 -4.319 O.2 0.0 **** -0.2727
5841 CB 38.128 38.387 -2.133 C.3 0.0 **** 0.0378
5842 CG 38.899 37.915 -3.339 C.3 0.0 **** -0.0149
5843 CD1 39.247 39.062 -4.294 C.3 0.0 **** 0.0072
5844 CD2 40.155 37.19 -2.846 C.3 0.0 **** 0.0072
5845 N 35.035 37.651 -2.318 N.am 0.0 **** -0.179
5846 CA 33.987 36.838 -2.914 C.3 0.0 **** 0.1678
5847 C 33.013 37.682 -3.71 C.2 0.0 **** 0.2425
5848 O 32.538 37.269 -4.774 O.2 0.0 **** -0.2727
5849 CB 33.248 36.092 -1.829 C.3 0.0 **** 0.0414
5850 N 32.66 38.845 -3.173 N.am 0.0 **** -0.1763
5851 CA 31.735 39.727 -3.854 C.3 0.0 **** 0.1996
5852 C 32.378 40.361 -5.086 C.2 0.0 **** 0.2454
5853 O 31.728 40.487 -6.13 O.2 0.0 **** -0.2726
5854 CB 31.261 40.792 -2.875 C.3 0.0 **** 0.1429
5855 OG1 30.574 40.141 -1.805 O.3 0.0 **** -0.1801
5856 CG2 30.318 41.77 -3.546 C.3 0.0 **** 0.0409
5857 N 33.639 40.794 -4.968 N.am 0.0 **** -0.1786
5858 CA 34.376 41.28 -6.129 C.3 0.0 **** 0.1714
5859 C 34.365 40.243 -7.244 C.2 0.0 **** 0.2428
5860 O 34.174 40.579 -8.425 O.2 0.0 **** -0.2727
5861 CB 35.825 41.601 -5.748 C.3 0.0 **** 0.0447
5862 CG 36.008 42.665 -4.665 C.3 0.0 **** 0.1022
5863 CD 37.472 42.865 -4.269 C.2 0.0 **** 0.217
5864 OE1 38.374 42.714 -5.081 O.2 0.0 **** -0.2753
5865 NE2 37.705 43.205 -2.988 N.am 0.0 **** -0.0515
5866 N 34.558 38.972 -6.884 N.am 0.0 **** -0.1783
5867 CA 34.537 37.912 -7.889 C.3 0.0 **** 0.1754
5868 C 33.16 37.77 -8.524 C.2 0.0 **** 0.2431
5869 O 33.04 37.65 -9.755 O.2 0.0 **** -0.2727
5870 CB 34.973 36.585 -7.267 C.3 0.0 **** 0.0724
5871 CG 36.451 36.485 -7.049 C.2 0.0 **** -0.0201
5872 CD1 37.416 37.219 -7.67 C.2 0.0 **** 0.0869
5873 CD2 37.125 35.629 -6.122 C.2 0.0 **** 0.0027
5874 NE1 38.665 36.852 -7.205 N.pl3 0.0 **** -0.195
5875 CE2 38.511 35.884 -6.244 C.2 0.0 **** 0.0456
5876 CE3 36.697 34.67 -5.2 C.2 0.0 **** 0.0104
5877 CZ2 39.466 35.185 -5.498 C.2 0.0 **** 0.0265
5878 CZ3 37.643 33.979 -4.462 C.2 0.0 **** 0.0008
5879 CH2 39.005 34.239 -4.605 C.2 0.0 **** 0.0022
5880 N 32.109 37.765 -7.704 N.am 0.0 **** -0.1786
5881 CA 30.753 37.623 -8.227 C.3 0.0 **** 0.1709
5882 C 30.392 38.784 -9.133 C.2 0.0 **** 0.2428
5883 O 29.876 38.583 -10.239 O.2 0.0 **** -0.2727
5884 CB 29.736 37.505 -7.081 C.3 0.0 **** 0.035
5885 CG 29.279 36.082 -6.849 C.3 0.0 **** 0.0062
5886 CD 29.048 35.759 -5.364 C.3 0.0 **** 0.0387
5887 CE 27.989 36.659 -4.713 C.3 0.0 **** 0.1659
5888 NZ 28.109 36.705 -3.189 N.4 0.0 **** 0.7918
5889 N 30.666 39.999 -8.69 N.am 0.0 **** -0.1782
5890 CA 30.418 41.166 -9.525 C.3 0.0 **** 0.1789
5891 C 31.196 41.101 -10.839 C.2 0.0 **** 0.2432
5892 O 30.714 41.587 -11.87 O.2 0.0 **** -0.2727
5893 CB 30.824 42.442 -8.804 C.3 0.0 **** 0.1195
5894 CG 29.912 42.788 -7.608 C.2 0.0 **** 0.1884
5895 OD1 28.841 42.16 -7.452 O.co2 0.0 **** -0.6396
5896 OD2 30.276 43.714 -6.848 O.co2 0.0 **** -0.6396
5897 N 32.396 40.522 -10.818 N.am 0.0 **** -0.1789
5898 CA 33.219 40.455 -12.015 C.3 0.0 **** 0.1678
5899 C 32.848 39.301 -12.93 C.2 0.0 **** 0.2422
5900 O 33.391 39.215 -14.025 O.2 0.0 **** -0.2727
5901 CB 34.701 40.331 -11.641 C.3 0.0 **** 0.0414
5902 N 31.942 38.422 -12.507 N.am 0.0 **** -0.1817
5903 CA 31.575 37.255 -13.276 C.3 0.0 **** 0.2156
5904 C 32.576 36.129 -13.205 C.2 0.0 **** 0.2396
5905 O 32.511 35.197 -14.014 O.2 0.0 **** -0.273
5906 N 33.524 36.192 -12.269 N.am 0.0 **** -0.1789
5907 CA 34.592 35.216 -12.278 C.3 0.0 **** 0.1712
5908 C 34.087 33.813 -11.993 C.2 0.0 **** 0.2428
5909 O 34.766 32.849 -12.322 O.2 0.0 **** -0.2727
5910 CB 35.656 35.606 -11.258 C.3 0.0 **** 0.0378
5911 CG 37.068 35.323 -11.732 C.3 0.0 **** -0.0149
5912 CD1 37.411 36.2 -12.985 C.3 0.0 **** 0.0072
5913 CD2 38.093 35.541 -10.64 C.3 0.0 **** 0.0072
5914 N 32.916 33.688 -11.396 N.am 0.0 **** -0.1781
5915 CA 32.344 32.391 -11.079 C.3 0.0 **** 0.1802
5916 C 31.502 31.844 -12.211 C.2 0.0 **** 0.2433
5917 O 31.003 30.721 -12.102 O.2 0.0 **** -0.2727
5918 CB 31.484 32.518 -9.821 C.3 0.0 **** 0.1344
5919 CG 30.275 33.4 -10.047 C.2 0.0 **** 0.2196
5920 OD1 30.374 34.537 -10.5 O.2 0.0 **** -0.2752
5921 ND2 29.122 32.854 -9.775 N.am 0.0 **** -0.0514
5922 N 31.394 32.577 -13.317 N.am 0.0 **** -0.1786
5923 CA 30.542 32.175 -14.426 C.3 0.0 **** 0.171
5924 C 31.255 32.421 -15.748 C.2 0.0 **** 0.2427
5925 O 30.748 33.087 -16.651 O.2 0.0 **** -0.2727
5926 CB 29.219 32.92 -14.33 C.3 0.0 **** 0.0367
5927 CG 29.351 34.414 -14.052 C.3 0.0 **** 0.0239
5928 CD 27.939 35.044 -14.102 C.3 0.0 **** 0.1157
5929 NE 27.95 36.441 -13.759 N.pl3 0.0 **** 0.138
5930 CZ 28.191 37.432 -14.608 C.cat 0.0 **** 0.1634
5931 NH1 28.405 37.18 -15.907 N.pl3 0.0 **** 0.2799
5932 NH2 28.16 38.685 -14.159 N.pl3 0.0 **** 0.2799
5933 N 32.445 31.866 -15.886 N.am 0.0 **** -0.1786
5934 CA 33.191 32.038 -17.122 C.3 0.0 **** 0.1712
5935 C 32.566 31.248 -18.265 C.2 0.0 **** 0.2428
5936 O 31.969 30.195 -18.07 O.2 0.0 **** -0.2727
5937 CB 34.628 31.58 -16.94 C.3 0.0 **** 0.0378
5938 CG 35.371 32.272 -15.8 C.3 0.0 **** -0.0149
5939 CD1 36.744 31.67 -15.732 C.3 0.0 **** 0.0072
5940 CD2 35.428 33.783 -16.01 C.3 0.0 **** 0.0072
5941 N 32.739 31.763 -19.472 N.am 0.0 **** -0.1783
5942 CA 32.352 31.066 -20.697 C.3 0.0 **** 0.1769
5943 C 33.489 31.163 -21.676 C.2 0.0 **** 0.2432
5944 O 34.331 32.061 -21.584 O.2 0.0 **** -0.2727
5945 CB 31.083 31.644 -21.302 C.3 0.0 **** 0.0902
5946 CG 29.879 31.278 -20.518 C.2 0.0 **** 0.037
5947 ND1 29.375 29.994 -20.504 N.pl3 0.0 **** -0.1813
5948 CD2 29.14 31.988 -19.64 C.2 0.0 **** 0.1339
5949 CE1 28.343 29.945 -19.68 C.2 0.0 **** 0.1962
5950 NE2 28.185 31.14 -19.141 N.2 0.0 **** -0.2451
5951 N 33.543 30.195 -22.576 N.am 0.0 **** -0.1763
5952 CA 34.638 30.088 -23.518 C.3 0.0 **** 0.1996
5953 C 34.103 30.077 -24.94 C.2 0.0 **** 0.2454
5954 O 33.164 29.344 -25.249 O.2 0.0 **** -0.2726
5955 CB 35.446 28.835 -23.221 C.3 0.0 **** 0.1429
5956 OG1 35.904 28.906 -21.866 O.3 0.0 **** -0.1801
5957 CG2 36.624 28.728 -24.176 C.3 0.0 **** 0.0409
5958 N 34.674 30.926 -25.785 N.am 0.0 **** -0.1786
5959 CA 34.395 30.937 -27.209 C.3 0.0 **** 0.171
5960 C 35.564 30.295 -27.942 C.2 0.0 **** 0.2427
5961 O 36.726 30.51 -27.586 O.2 0.0 **** -0.2727
5962 CB 34.165 32.368 -27.725 C.3 0.0 **** 0.0367
5963 CG 33.778 32.431 -29.204 C.3 0.0 **** 0.0239
5964 CD 33.321 33.837 -29.671 C.3 0.0 **** 0.1157
5965 NE 34.409 34.818 -29.573 N.pl3 0.0 **** 0.138
5966 CZ 35.322 35.048 -30.517 C.cat 0.0 **** 0.1634
5967 NH1 35.303 34.386 -31.661 N.pl3 0.0 **** 0.2799
5968 NH2 36.272 35.95 -30.316 N.pl3 0.0 **** 0.2799
5969 N 35.247 29.482 -28.947 N.am 0.0 **** -0.1786
5970 CA 36.251 28.831 -29.768 C.3 0.0 **** 0.1712
5971 C 36.607 29.762 -30.923 C.2 0.0 **** 0.2428
5972 O 35.732 30.174 -31.675 O.2 0.0 **** -0.2727
5973 CB 35.722 27.487 -30.297 C.3 0.0 **** 0.0378
5974 CG 36.611 26.728 -31.285 C.3 0.0 **** -0.0149
5975 CD1 37.866 26.203 -30.565 C.3 0.0 **** 0.0072
5976 CD2 35.835 25.577 -31.906 C.3 0.0 **** 0.0072
5977 N 37.89 30.069 -31.073 N.am 0.0 **** -0.1786
5978 CA 38.359 30.908 -32.165 C.3 0.0 **** 0.1712
5979 C 38.851 30.114 -33.366 C.2 0.0 **** 0.2425
5980 O 38.703 30.576 -34.5 O.2 0.0 **** -0.2727
5981 CB 39.491 31.814 -31.665 C.3 0.0 **** 0.0378
5982 CG 38.986 33.123 -31.028 C.3 0.0 **** -0.0149
5983 CD1 37.925 32.873 -29.982 C.3 0.0 **** 0.0072
5984 CD2 40.156 33.894 -30.433 C.3 0.0 **** 0.0072
5985 N 39.433 28.942 -33.144 N.am 0.0 **** -0.1817
5986 CA 39.827 28.091 -34.245 C.3 0.0 **** 0.2156
5987 C 40.605 26.877 -33.802 C.2 0.0 **** 0.2396
5988 O 41.095 26.827 -32.678 O.2 0.0 **** -0.273
5989 N 40.745 25.898 -34.694 N.am 0.0 **** -0.1787
5990 CA 41.523 24.697 -34.431 C.3 0.0 **** 0.1738
5991 C 42.384 24.461 -35.654 C.2 0.0 **** 0.2431
5992 O 41.871 24.448 -36.77 O.2 0.0 **** -0.2727
5993 CB 40.633 23.462 -34.18 C.3 0.0 **** 0.0176
5994 CG1 39.658 23.68 -33.021 C.3 0.0 **** 0.0024
5995 CG2 41.49 22.218 -33.934 C.3 0.0 **** 0.0102
5996 CD1 38.574 22.593 -32.964 C.3 0.0 **** 0.0041
5997 N 43.677 24.252 -35.455 N.am 0.0 **** -0.1765
5998 CA 44.555 24.046 -36.594 C.3 0.0 **** 0.1967
5999 C 45.639 23.066 -36.199 C.2 0.0 **** 0.2451
6000 O 46.06 23.014 -35.036 O.2 0.0 **** -0.2726
6001 CB 45.179 25.356 -37.064 C.3 0.0 **** 0.1907
6002 OG 46.102 25.811 -36.102 O.3 0.0 **** -0.1835
6003 N 46.085 22.289 -37.176 N.am 0.0 **** -0.1789
6004 CA 47.224 21.413 -36.994 C.3 0.0 **** 0.1678
6005 C 48.453 22.063 -37.62 C.2 0.0 **** 0.2425
6006 O 48.344 22.845 -38.571 O.2 0.0 **** -0.2727
6007 CB 46.962 20.045 -37.617 C.3 0.0 **** 0.0414
6008 N 49.62 21.734 -37.083 N.am 0.0 **** -0.1781
6009 CA 50.865 22.366 -37.485 C.3 0.0 **** 0.1804
6010 C 51.949 21.312 -37.631 C.2 0.0 **** 0.2459
6011 O 51.857 20.228 -37.044 O.2 0.0 **** -0.2724
6012 CB 51.293 23.436 -36.475 C.3 0.0 **** 0.1344
6013 CG 50.304 24.573 -36.408 C.2 0.0 **** 0.2196
6014 OD1 49.876 25.092 -37.446 O.2 0.0 **** -0.2752
6015 ND2 49.902 24.942 -35.198 N.am 0.0 **** -0.0514
6016 N 52.985 21.597 -38.421 N.am 0.0 **** -0.3289
6017 CA 54.025 20.589 -38.668 C.3 0.0 **** 0.1741
6018 C 54.812 20.307 -37.401 C.2 0.0 **** 0.2428
6019 O 55.388 21.213 -36.799 O.2 0.0 **** -0.2727
6020 CB 54.901 21.233 -39.752 C.3 0.0 **** 0.037
6021 CG 54.645 22.689 -39.65 C.3 0.0 **** 0.0242
6022 CD 53.225 22.836 -39.186 C.3 0.0 **** 0.1203
6023 N 54.829 19.042 -37.005 N.am 0.0 **** -0.1817
6024 CA 55.628 18.613 -35.883 C.3 0.0 **** 0.2156
6025 C 56.962 18.073 -36.363 C.2 0.0 **** 0.2396
6026 O 57.734 18.789 -37.012 O.2 0.0 **** -0.273
6027 N 57.211 16.794 -36.087 N.am 0.0 **** -0.1789
6028 CA 58.499 16.152 -36.326 C.3 0.0 **** 0.1714
6029 C 58.267 14.832 -37.046 C.2 0.0 **** 0.2428
6030 O 57.395 14.052 -36.648 O.2 0.0 **** -0.2727
6031 CB 59.238 15.913 -35.001 C.3 0.0 **** 0.0447
6032 CG 60.616 15.323 -35.146 C.3 0.0 **** 0.1022
6033 CD 61.123 14.696 -33.866 C.2 0.0 **** 0.217
6034 OE1 60.958 15.246 -32.778 O.2 0.0 **** -0.2753
6035 NE2 61.737 13.532 -33.987 N.am 0.0 **** -0.0515
6036 N 59.063 14.613 -38.1 N.am 0.0 **** -0.1782
6037 CA 59.042 13.349 -38.881 C.3 0.0 **** 0.1789
6038 C 57.621 13.03 -39.315 C.2 0.0 **** 0.243
6039 O 57.161 11.924 -39.033 O.2 0.0 **** -0.2727
6040 CB 59.663 12.206 -38.086 C.3 0.0 **** 0.1195
6041 CG 61.053 12.575 -37.624 C.2 0.0 **** 0.1884
6042 OD1 61.575 13.573 -38.145 O.co2 0.0 **** -0.6396
6043 OD2 61.58 11.891 -36.72 O.co2 0.0 **** -0.6396
6044 N 56.931 14.02 -39.882 N.am 0.0 **** -0.1817
6045 CA 55.536 13.841 -40.325 C.3 0.0 **** 0.2156
6046 C 54.533 14.006 -39.195 C.2 0.0 **** 0.2394
6047 O 53.341 13.764 -39.424 O.2 0.0 **** -0.273
6048 N 55.006 14.376 -38.009 N.am 0.0 **** -0.1819
6049 CA 54.136 14.552 -36.84 C.3 0.0 **** 0.2156
6050 C 53.465 15.897 -36.899 C.2 0.0 **** 0.2396
6051 O 53.93 16.764 -37.648 O.2 0.0 **** -0.273
6052 N 52.421 16.064 -36.102 N.am 0.0 **** -0.1789
6053 CA 51.728 17.339 -36.105 C.3 0.0 **** 0.1714
6054 C 51.418 17.736 -34.673 C.2 0.0 **** 0.2428
6055 O 51.158 16.882 -33.828 O.2 0.0 **** -0.2727
6056 CB 50.421 17.275 -36.876 C.3 0.0 **** 0.0434
6057 CG 50.606 17.075 -38.365 C.3 0.0 **** 0.0873
6058 CD 49.287 16.994 -39.064 C.2 0.0 **** 0.1859
6059 OE1 48.518 16.048 -38.78 O.co2 0.0 **** -0.6397
6060 OE2 49.016 17.894 -39.885 O.co2 0.0 **** -0.6397
6061 N 51.449 19.035 -34.415 N.am 0.0 **** -0.1763
6062 CA 50.865 19.562 -33.193 C.3 0.0 **** 0.1996
6063 C 49.487 20.123 -33.523 C.2 0.0 **** 0.2454
6064 O 49.162 20.413 -34.683 O.2 0.0 **** -0.2726
6065 CB 51.747 20.635 -32.54 C.3 0.0 **** 0.1429
6066 OG1 51.77 21.813 -33.346 O.3 0.0 **** -0.1801
6067 CG2 53.154 20.141 -32.354 C.3 0.0 **** 0.0409
6068 N 48.666 20.255 -32.487 N.am 0.0 **** -0.1786
6069 CA 47.305 20.736 -32.625 C.3 0.0 **** 0.1712
6070 C 47.142 21.936 -31.712 C.2 0.0 **** 0.2428
6071 O 47.328 21.818 -30.501 O.2 0.0 **** -0.2727
6072 CB 46.307 19.64 -32.265 C.3 0.0 **** 0.0378
6073 CG 44.849 20.049 -32.526 C.3 0.0 **** -0.0149
6074 CD1 44.544 19.995 -34.005 C.3 0.0 **** 0.0072
6075 CD2 43.889 19.166 -31.738 C.3 0.0 **** 0.0072
6076 N 46.805 23.085 -32.282 N.am 0.0 **** -0.1763
6077 CA 46.586 24.276 -31.479 C.3 0.0 **** 0.1996
6078 C 45.112 24.627 -31.503 C.2 0.0 **** 0.2454
6079 O 44.521 24.787 -32.582 O.2 0.0 **** -0.2726
6080 CB 47.431 25.441 -31.969 C.3 0.0 **** 0.1429
6081 OG1 48.806 25.133 -31.727 O.3 0.0 **** -0.1801
6082 CG2 47.081 26.709 -31.212 C.3 0.0 **** 0.0409
6083 N 44.529 24.718 -30.31 N.am 0.0 **** -0.1783
6084 CA 43.147 25.133 -30.117 C.3 0.0 **** 0.1735
6085 C 43.161 26.531 -29.509 C.2 0.0 **** 0.243
6086 O 43.702 26.748 -28.412 O.2 0.0 **** -0.2727
6087 CB 42.381 24.137 -29.233 C.3 0.0 **** 0.0147
6088 CG1 40.917 24.561 -29.073 C.3 0.0 **** 0.0099
6089 CG2 42.48 22.705 -29.853 C.3 0.0 **** 0.0099
6090 N 42.584 27.483 -30.228 N.am 0.0 **** -0.1786
6091 CA 42.555 28.868 -29.794 C.3 0.0 **** 0.171
6092 C 41.18 29.192 -29.219 C.2 0.0 **** 0.2428
6093 O 40.147 28.926 -29.859 O.2 0.0 **** -0.2727
6094 CB 42.884 29.803 -30.955 C.3 0.0 **** 0.0367
6095 CG 44.278 29.589 -31.537 C.3 0.0 **** 0.0239
6096 CD 44.595 30.628 -32.575 C.3 0.0 **** 0.1157
6097 NE 43.643 30.579 -33.677 N.pl3 0.0 **** 0.138
6098 CZ 42.735 31.515 -33.962 C.cat 0.0 **** 0.1634
6099 NH1 42.627 32.632 -33.232 N.pl3 0.0 **** 0.2799
6100 NH2 41.926 31.328 -35.0 N.pl3 0.0 **** 0.2799
6101 N 41.176 29.77 -28.022 N.am 0.0 **** -0.1763
6102 CA 39.938 30.073 -27.316 C.3 0.0 **** 0.1996
6103 C 40.051 31.442 -26.675 C.2 0.0 **** 0.2454
6104 O 41.136 32.023 -26.582 O.2 0.0 **** -0.2726
6105 CB 39.61 29.035 -26.232 C.3 0.0 **** 0.1429
6106 OG1 40.488 29.215 -25.107 O.3 0.0 **** -0.1801
6107 CG2 39.751 27.611 -26.797 C.3 0.0 **** 0.0409
6108 N 38.902 31.954 -26.24 N.am 0.0 **** -0.1786
6109 CA 38.832 33.176 -25.439 C.3 0.0 **** 0.171
6110 C 37.861 32.951 -24.297 C.2 0.0 **** 0.2428
6111 O 36.747 32.465 -24.516 O.2 0.0 **** -0.2727
6112 CB 38.4 34.388 -26.286 C.3 0.0 **** 0.0367
6113 CG 38.499 35.724 -25.543 C.3 0.0 **** 0.0239
6114 CD 38.129 36.892 -26.464 C.3 0.0 **** 0.1157
6115 NE 38.225 38.184 -25.79 N.pl3 0.0 **** 0.138
6116 CZ 37.268 38.717 -25.035 C.cat 0.0 **** 0.1634
6117 NH1 36.135 38.061 -24.807 N.pl3 0.0 **** 0.2799
6118 NH2 37.454 39.912 -24.497 N.pl3 0.0 **** 0.2799
6119 N 38.29 33.303 -23.079 N.am 0.0 **** -0.1784
6120 CA 37.513 33.109 -21.871 C.3 0.0 **** 0.1735
6121 C 37.111 34.48 -21.343 C.2 0.0 **** 0.2431
6122 O 37.947 35.395 -21.244 O.2 0.0 **** -0.2727
6123 CB 38.31 32.324 -20.813 C.3 0.0 **** 0.0147
6124 CG1 37.49 32.094 -19.595 C.3 0.0 **** 0.0099
6125 CG2 38.769 30.97 -21.396 C.3 0.0 **** 0.0099
6126 N 35.834 34.622 -21.003 N.am 0.0 **** -0.1765
6127 CA 35.298 35.869 -20.485 C.3 0.0 **** 0.1967
6128 C 34.062 35.499 -19.662 C.2 0.0 **** 0.2451
6129 O 33.877 34.332 -19.304 O.2 0.0 **** -0.2726
6130 CB 35.0 36.839 -21.653 C.3 0.0 **** 0.1907
6131 OG 34.619 38.119 -21.145 O.3 0.0 **** -0.1835
6132 N 33.219 36.475 -19.361 N.am 0.0 **** -0.1789
6133 CA 31.954 36.229 -18.684 C.3 0.0 **** 0.1678
6134 C 30.886 37.134 -19.278 C.2 0.0 **** 0.2425
6135 O 31.188 38.169 -19.879 O.2 0.0 **** -0.2727
6136 CB 32.071 36.476 -17.164 C.3 0.0 **** 0.0414
6137 N 29.625 36.723 -19.12 N.am 0.0 **** -0.179
6138 CA 28.531 37.512 -19.664 C.3 0.0 **** 0.1678
6139 C 28.595 38.945 -19.15 C.2 0.0 **** 0.2425
6140 O 28.856 39.199 -17.962 O.2 0.0 **** -0.2727
6141 CB 27.178 36.897 -19.312 C.3 0.0 **** 0.0414
6142 N 28.387 39.878 -20.073 N.am 0.0 **** -0.1782
6143 CA 28.265 41.3 -19.819 C.3 0.0 **** 0.1789
6144 C 29.596 41.988 -19.537 C.2 0.0 **** 0.2432
6145 O 29.598 43.175 -19.156 O.2 0.0 **** -0.2727
6146 CB 27.319 41.563 -18.65 C.3 0.0 **** 0.1195
6147 CG 26.831 42.993 -18.614 C.2 0.0 **** 0.1884
6148 OD1 26.459 43.524 -19.675 O.co2 0.0 **** -0.6396
6149 OD2 26.824 43.582 -17.501 O.co2 0.0 **** -0.6396
6150 N 30.712 41.303 -19.715 N.am 0.0 **** -0.1786
6151 CA 32.04 41.867 -19.517 C.3 0.0 **** 0.1709
6152 C 32.791 41.988 -20.839 C.2 0.0 **** 0.2427
6153 O 32.636 41.158 -21.743 O.2 0.0 **** -0.2727
6154 CB 32.843 40.997 -18.571 C.3 0.0 **** 0.035
6155 CG 32.118 40.694 -17.22 C.3 0.0 **** 0.0062
6156 CD 31.667 41.948 -16.491 C.3 0.0 **** 0.0387
6157 CE 30.841 41.614 -15.211 C.3 0.0 **** 0.1659
6158 NZ 30.393 42.831 -14.507 N.4 0.0 **** 0.7918
6159 N 33.653 43.006 -20.923 N.am 0.0 **** -0.1786
6160 CA 34.482 43.206 -22.109 C.3 0.0 **** 0.1714
6161 C 35.876 42.62 -21.974 C.2 0.0 **** 0.2428
6162 O 36.512 42.357 -23.007 O.2 0.0 **** -0.2727
6163 CB 34.597 44.702 -22.462 C.3 0.0 **** 0.0447
6164 CG 33.271 45.31 -22.843 C.3 0.0 **** 0.1022
6165 CD 33.356 46.615 -23.621 C.2 0.0 **** 0.217
6166 OE1 34.415 47.031 -24.08 O.2 0.0 **** -0.2753
6167 NE2 32.221 47.26 -23.779 N.am 0.0 **** -0.0515
6168 N 36.357 42.396 -20.745 N.am 0.0 **** -0.1783
6169 CA 37.679 41.825 -20.537 C.3 0.0 **** 0.1753
6170 C 37.652 40.322 -20.769 C.2 0.0 **** 0.2429
6171 O 36.651 39.65 -20.492 O.2 0.0 **** -0.2727
6172 CB 38.204 42.121 -19.103 C.3 0.0 **** 0.0702
6173 CG 37.208 41.931 -17.994 C.ar 0.0 **** -0.0452
6174 CD1 36.933 40.686 -17.475 C.ar 0.0 **** 0.0063
6175 CD2 36.545 43.031 -17.446 C.ar 0.0 **** 0.0063
6176 CE1 36.026 40.534 -16.412 C.ar 0.0 **** 0.0332
6177 CE2 35.641 42.899 -16.387 C.ar 0.0 **** 0.0332
6178 CZ 35.369 41.645 -15.897 C.ar 0.0 **** 0.0713
6179 OH 34.48 41.518 -14.854 O.3 0.0 **** -0.1427
6180 N 38.763 39.791 -21.274 N.am 0.0 **** -0.1817
6181 CA 38.904 38.356 -21.424 C.3 0.0 **** 0.2156
6182 C 40.363 37.93 -21.381 C.2 0.0 **** 0.2396
6183 O 41.256 38.76 -21.194 O.2 0.0 **** -0.273
6184 N 40.6 36.611 -21.528 N.am 0.0 **** -0.1787
6185 CA 41.942 36.065 -21.734 C.3 0.0 **** 0.1735
6186 C 41.884 35.129 -22.925 C.2 0.0 **** 0.243
6187 O 40.958 34.319 -23.051 O.2 0.0 **** -0.2727
6188 CB 42.512 35.328 -20.498 C.3 0.0 **** 0.0147
6189 CG1 42.864 36.322 -19.403 C.3 0.0 **** 0.0099
6190 CG2 41.541 34.286 -19.946 C.3 0.0 **** 0.0099
6191 N 42.821 35.304 -23.838 N.am 0.0 **** -0.1786
6192 CA 42.995 34.392 -24.949 C.3 0.0 **** 0.1712
6193 C 43.773 33.197 -24.423 C.2 0.0 **** 0.2428
6194 O 44.846 33.36 -23.824 O.2 0.0 **** -0.2727
6195 CB 43.735 35.093 -26.082 C.3 0.0 **** 0.0378
6196 CG 42.983 36.329 -26.592 C.3 0.0 **** -0.0149
6197 CD1 43.895 37.304 -27.307 C.3 0.0 **** 0.0072
6198 CD2 41.867 35.909 -27.534 C.3 0.0 **** 0.0072
6199 N 43.221 32.007 -24.588 N.am 0.0 **** -0.1784
6200 CA 43.856 30.799 -24.096 C.3 0.0 **** 0.1735
6201 C 44.091 29.884 -25.287 C.2 0.0 **** 0.243
6202 O 43.146 29.504 -25.99 O.2 0.0 **** -0.2727
6203 CB 43.007 30.109 -23.021 C.3 0.0 **** 0.0147
6204 CG1 43.726 28.88 -22.478 C.3 0.0 **** 0.0099
6205 CG2 42.677 31.099 -21.885 C.3 0.0 **** 0.0099
6206 N 45.35 29.551 -25.522 N.am 0.0 **** -0.1782
6207 CA 45.751 28.655 -26.593 C.3 0.0 **** 0.1789
6208 C 46.288 27.364 -25.993 C.2 0.0 **** 0.2432
6209 O 47.14 27.396 -25.098 O.2 0.0 **** -0.2727
6210 CB 46.809 29.318 -27.461 C.3 0.0 **** 0.1195
6211 CG 46.267 30.53 -28.213 C.2 0.0 **** 0.1884
6212 OD1 45.039 30.729 -28.27 O.co2 0.0 **** -0.6396
6213 OD2 47.087 31.259 -28.805 O.co2 0.0 **** -0.6396
6214 N 45.737 26.241 -26.43 N.am 0.0 **** -0.1783
6215 CA 46.215 24.927 -26.033 C.3 0.0 **** 0.1753
6216 C 46.977 24.336 -27.204 C.2 0.0 **** 0.2432
6217 O 46.428 24.218 -28.308 O.2 0.0 **** -0.2727
6218 CB 45.06 24.013 -25.647 C.3 0.0 **** 0.0702
6219 CG 44.119 24.602 -24.601 C.ar 0.0 **** -0.0452
6220 CD1 43.028 25.377 -24.975 C.ar 0.0 **** 0.0063
6221 CD2 44.311 24.343 -23.242 C.ar 0.0 **** 0.0063
6222 CE1 42.162 25.909 -24.024 C.ar 0.0 **** 0.0332
6223 CE2 43.446 24.859 -22.285 C.ar 0.0 **** 0.0332
6224 CZ 42.375 25.635 -22.676 C.ar 0.0 **** 0.0713
6225 OH 41.531 26.129 -21.714 O.3 0.0 **** -0.1427
6226 N 48.219 23.959 -26.979 N.am 0.0 **** -0.1763
6227 CA 48.985 23.257 -28.012 C.3 0.0 **** 0.1996
6228 C 49.278 21.839 -27.553 C.2 0.0 **** 0.2454
6229 O 49.94 21.63 -26.525 O.2 0.0 **** -0.2726
6230 CB 50.268 24.006 -28.346 C.3 0.0 **** 0.1429
6231 OG1 49.906 25.314 -28.821 O.3 0.0 **** -0.1801
6232 CG2 51.052 23.258 -29.447 C.3 0.0 **** 0.0409
6233 N 48.794 20.876 -28.335 N.am 0.0 **** -0.1782
6234 CA 48.862 19.462 -28.018 C.3 0.0 **** 0.1754
6235 C 49.891 18.775 -28.904 C.2 0.0 **** 0.2432
6236 O 49.993 19.076 -30.101 O.2 0.0 **** -0.2727
6237 CB 47.501 18.798 -28.239 C.3 0.0 **** 0.0724
6238 CG 46.393 19.329 -27.394 C.2 0.0 **** -0.0201
6239 CD1 45.593 20.395 -27.668 C.2 0.0 **** 0.0869
6240 CD2 45.948 18.809 -26.136 C.2 0.0 **** 0.0027
6241 NE1 44.677 20.571 -26.669 N.pl3 0.0 **** -0.195
6242 CE2 44.869 19.608 -25.719 C.2 0.0 **** 0.0456
6243 CE3 46.359 17.745 -25.323 C.2 0.0 **** 0.0104
6244 CZ2 44.197 19.391 -24.526 C.2 0.0 **** 0.0265
6245 CZ3 45.687 17.525 -24.138 C.2 0.0 **** 0.0008
6246 CH2 44.615 18.354 -23.746 C.2 0.0 **** 0.0022
6247 N 50.636 17.841 -28.313 N.am 0.0 **** -0.1765
6248 CA 51.638 17.065 -29.03 C.3 0.0 **** 0.1967
6249 C 51.693 15.673 -28.43 C.2 0.0 **** 0.2452
6250 O 51.413 15.486 -27.244 O.2 0.0 **** -0.2726
6251 CB 53.015 17.706 -28.931 C.3 0.0 **** 0.1907
6252 OG 53.397 17.757 -27.569 O.3 0.0 **** -0.1835
6253 N 52.079 14.694 -29.241 N.am 0.0 **** -0.1762
6254 CA 52.21 13.36 -28.68 C.3 0.0 **** 0.1996
6255 C 53.175 12.543 -29.517 C.2 0.0 **** 0.2454
6256 O 53.287 12.72 -30.733 O.2 0.0 **** -0.2726
6257 CB 50.873 12.625 -28.593 C.3 0.0 **** 0.1429
6258 OG1 51.057 11.384 -27.916 O.3 0.0 **** -0.1801
6259 CG2 50.331 12.337 -29.973 C.3 0.0 **** 0.0409
6260 N 53.859 11.633 -28.835 N.am 0.0 **** -0.1781
6261 CA 54.611 10.587 -29.497 C.3 0.0 **** 0.1789
6262 C 53.845 9.274 -29.526 C.2 0.0 **** 0.243
6263 O 54.4 8.26 -29.943 O.2 0.0 **** -0.2727
6264 CB 55.951 10.396 -28.799 C.3 0.0 **** 0.1195
6265 CG 55.79 9.911 -27.379 C.2 0.0 **** 0.1884
6266 OD1 54.646 9.553 -26.998 O.co2 0.0 **** -0.6396
6267 OD2 56.805 9.888 -26.641 O.co2 0.0 **** -0.6396
6268 N 52.592 9.261 -29.075 N.am 0.0 **** -0.1817
6269 CA 51.791 8.056 -29.035 C.3 0.0 **** 0.2156
6270 C 51.61 7.472 -27.648 C.2 0.0 **** 0.2396
6271 O 50.642 6.728 -27.429 O.2 0.0 **** -0.273
6272 N 52.516 7.758 -26.713 N.am 0.0 **** -0.1789
6273 CA 52.319 7.359 -25.322 C.3 0.0 **** 0.1714
6274 C 52.226 8.538 -24.369 C.2 0.0 **** 0.2428
6275 O 51.388 8.527 -23.466 O.2 0.0 **** -0.2727
6276 CB 53.445 6.43 -24.852 C.3 0.0 **** 0.0434
6277 CG 53.022 5.524 -23.691 C.3 0.0 **** 0.0873
6278 CD 54.17 4.705 -23.111 C.2 0.0 **** 0.1859
6279 OE1 55.251 5.281 -22.856 O.co2 0.0 **** -0.6397
6280 OE2 53.994 3.481 -22.912 O.co2 0.0 **** -0.6397
6281 N 53.063 9.551 -24.544 N.am 0.0 **** -0.1763
6282 CA 53.027 10.753 -23.725 C.3 0.0 **** 0.1996
6283 C 52.438 11.915 -24.514 C.2 0.0 **** 0.2454
6284 O 52.755 12.1 -25.697 O.2 0.0 **** -0.2726
6285 CB 54.432 11.1 -23.259 C.3 0.0 **** 0.1429
6286 OG1 54.876 10.086 -22.361 O.3 0.0 **** -0.1801
6287 CG2 54.469 12.424 -22.562 C.3 0.0 **** 0.0409
6288 N 51.586 12.695 -23.845 N.am 0.0 **** -0.1783
6289 CA 50.938 13.866 -24.42 C.3 0.0 **** 0.1735
6290 C 51.56 15.115 -23.813 C.2 0.0 **** 0.2428
6291 O 51.68 15.232 -22.586 O.2 0.0 **** -0.2727
6292 CB 49.421 13.828 -24.165 C.3 0.0 **** 0.0147
6293 CG1 48.745 15.109 -24.692 C.3 0.0 **** 0.0099
6294 CG2 48.816 12.561 -24.822 C.3 0.0 **** 0.0099
6295 N 51.95 16.064 -24.673 N.am 0.0 **** -0.1817
6296 CA 52.399 17.367 -24.224 C.3 0.0 **** 0.2156
6297 C 51.283 18.392 -24.409 C.2 0.0 **** 0.2396
6298 O 50.695 18.489 -25.483 O.2 0.0 **** -0.273
6299 N 50.999 19.13 -23.346 N.am 0.0 **** -0.1789
6300 CA 49.974 20.181 -23.363 C.3 0.0 **** 0.1712
6301 C 50.612 21.485 -22.914 C.2 0.0 **** 0.2428
6302 O 51.019 21.616 -21.749 O.2 0.0 **** -0.2727
6303 CB 48.787 19.845 -22.451 C.3 0.0 **** 0.0378
6304 CG 47.793 21.0 -22.269 C.3 0.0 **** -0.0149
6305 CD1 47.306 21.5 -23.657 C.3 0.0 **** 0.0072
6306 CD2 46.623 20.557 -21.416 C.3 0.0 **** 0.0072
6307 N 50.69 22.44 -23.828 N.am 0.0 **** -0.1787
6308 CA 51.167 23.779 -23.533 C.3 0.0 **** 0.171
6309 C 49.98 24.727 -23.517 C.2 0.0 **** 0.2428
6310 O 49.207 24.774 -24.48 O.2 0.0 **** -0.2727
6311 CB 52.187 24.243 -24.571 C.3 0.0 **** 0.0367
6312 CG 52.799 25.611 -24.282 C.3 0.0 **** 0.0239
6313 CD 53.222 26.299 -25.561 C.3 0.0 **** 0.1157
6314 NE 54.208 27.347 -25.316 N.pl3 0.0 **** 0.138
6315 CZ 54.866 27.984 -26.282 C.cat 0.0 **** 0.1634
6316 NH1 54.638 27.683 -27.556 N.pl3 0.0 **** 0.2799
6317 NH2 55.757 28.921 -25.976 N.pl3 0.0 **** 0.2799
6318 N 49.844 25.482 -22.434 N.am 0.0 **** -0.1763
6319 CA 48.739 26.405 -22.253 C.3 0.0 **** 0.1996
6320 C 49.305 27.814 -22.172 C.2 0.0 **** 0.2454
6321 O 50.23 28.075 -21.388 O.2 0.0 **** -0.2726
6322 CB 47.94 26.046 -20.994 C.3 0.0 **** 0.1429
6323 OG1 47.514 24.688 -21.084 O.3 0.0 **** -0.1801
6324 CG2 46.702 26.927 -20.807 C.3 0.0 **** 0.0409
6325 N 48.76 28.713 -22.986 N.am 0.0 **** -0.1786
6326 CA 49.211 30.094 -23.036 C.3 0.0 **** 0.1714
6327 C 48.017 31.003 -22.811 C.2 0.0 **** 0.2428
6328 O 46.988 30.861 -23.48 O.2 0.0 **** -0.2727
6329 CB 49.873 30.402 -24.382 C.3 0.0 **** 0.0447
6330 CG 51.116 29.543 -24.659 C.3 0.0 **** 0.1022
6331 CD 51.457 29.476 -26.141 C.2 0.0 **** 0.217
6332 OE1 50.771 28.806 -26.929 O.2 0.0 **** -0.2753
6333 NE2 52.511 30.184 -26.531 N.am 0.0 **** -0.0515
6334 N 48.164 31.934 -21.877 N.am 0.0 **** -0.1784
6335 CA 47.083 32.807 -21.435 C.3 0.0 **** 0.1735
6336 C 47.507 34.251 -21.672 C.2 0.0 **** 0.243
6337 O 48.581 34.666 -21.219 O.2 0.0 **** -0.2727
6338 CB 46.78 32.574 -19.941 C.3 0.0 **** 0.0147
6339 CG1 45.666 33.504 -19.447 C.3 0.0 **** 0.0099
6340 CG2 46.423 31.107 -19.674 C.3 0.0 **** 0.0099
6341 N 46.641 35.036 -22.295 N.am 0.0 **** -0.1786
6342 CA 46.979 36.415 -22.633 C.3 0.0 **** 0.171
6343 C 45.779 37.298 -22.38 C.2 0.0 **** 0.2427
6344 O 44.685 37.05 -22.91 O.2 0.0 **** -0.2727
6345 CB 47.436 36.534 -24.086 C.3 0.0 **** 0.0367
6346 CG 48.473 35.469 -24.434 C.3 0.0 **** 0.0239
6347 CD 48.968 35.541 -25.899 C.3 0.0 **** 0.1157
6348 NE 47.958 35.239 -26.919 N.pl3 0.0 **** 0.138
6349 CZ 47.357 34.061 -27.067 C.cat 0.0 **** 0.1634
6350 NH1 47.611 33.065 -26.223 N.pl3 0.0 **** 0.2799
6351 NH2 46.477 33.888 -28.047 N.pl3 0.0 **** 0.2799
6352 N 45.975 38.321 -21.556 N.am 0.0 **** -0.1787
6353 CA 44.893 39.249 -21.283 C.3 0.0 **** 0.171
6354 C 44.49 39.978 -22.544 C.2 0.0 **** 0.2428
6355 O 45.335 40.436 -23.332 O.2 0.0 **** -0.2727
6356 CB 45.312 40.257 -20.221 C.3 0.0 **** 0.0367
6357 CG 45.509 39.688 -18.853 C.3 0.0 **** 0.0239
6358 CD 46.325 40.644 -18.02 C.3 0.0 **** 0.1157
6359 NE 47.626 40.844 -18.648 N.pl3 0.0 **** 0.138
6360 CZ 48.358 41.956 -18.571 C.cat 0.0 **** 0.1634
6361 NH1 47.956 42.983 -17.829 N.pl3 0.0 **** 0.2799
6362 NH2 49.509 42.025 -19.239 N.pl3 0.0 **** 0.2799
6363 N 43.178 40.098 -22.736 N.am 0.0 **** -0.1782
6364 CA 42.632 40.853 -23.851 C.3 0.0 **** 0.1789
6365 C 41.623 41.847 -23.277 C.2 0.0 **** 0.243
6366 O 40.468 41.493 -22.997 O.2 0.0 **** -0.2727
6367 CB 41.993 39.934 -24.894 C.3 0.0 **** 0.1195
6368 CG 41.233 40.705 -25.959 C.2 0.0 **** 0.1884
6369 OD1 41.687 41.805 -26.338 O.co2 0.0 **** -0.6396
6370 OD2 40.151 40.247 -26.379 O.co2 0.0 **** -0.6396
6371 N 42.068 43.087 -23.082 N.am 0.0 **** -0.1817
6372 CA 41.298 44.068 -22.341 C.3 0.0 **** 0.2156
6373 C 41.653 44.077 -20.859 C.2 0.0 **** 0.2396
6374 O 42.14 43.106 -20.29 O.2 0.0 **** -0.273
6375 N 41.412 45.211 -20.226 N.am 0.0 **** -0.1766
6376 CA 41.811 45.402 -18.829 C.3 0.0 **** 0.1996
6377 C 40.81 44.748 -17.885 C.2 0.0 **** 0.2454
6378 O 39.605 44.966 -18.005 O.2 0.0 **** -0.2726
6379 CB 41.911 46.894 -18.526 C.3 0.0 **** 0.1429
6380 OG1 42.863 47.481 -19.42 O.3 0.0 **** -0.1801
6381 CG2 42.335 47.162 -17.071 C.3 0.0 **** 0.0409
6382 N 41.312 43.964 -16.935 N.am 0.0 **** -0.1782
6383 CA 40.455 43.261 -15.979 C.3 0.0 **** 0.1754
6384 C 40.083 44.215 -14.838 C.2 0.0 **** 0.2431
6385 O 40.596 44.149 -13.721 O.2 0.0 **** -0.2727
6386 CB 41.156 42.005 -15.484 C.3 0.0 **** 0.0724
6387 CG 41.028 40.925 -16.508 C.2 0.0 **** -0.0201
6388 CD1 41.618 40.89 -17.725 C.2 0.0 **** 0.0869
6389 CD2 40.198 39.761 -16.428 C.2 0.0 **** 0.0027
6390 NE1 41.204 39.774 -18.425 N.pl3 0.0 **** -0.195
6391 CE2 40.345 39.057 -17.636 C.2 0.0 **** 0.0456
6392 CE3 39.344 39.252 -15.453 C.2 0.0 **** 0.0104
6393 CZ2 39.648 37.857 -17.9 C.2 0.0 **** 0.0265
6394 CZ3 38.682 38.055 -15.702 C.2 0.0 **** 0.0008
6395 CH2 38.842 37.376 -16.901 C.2 0.0 **** 0.0022
6396 N 39.161 45.122 -15.148 N.am 0.0 **** -0.1784
6397 CA 38.658 46.097 -14.195 C.3 0.0 **** 0.1735
6398 C 37.136 46.016 -14.22 C.2 0.0 **** 0.243
6399 O 36.52 45.857 -15.282 O.2 0.0 **** -0.2727
6400 CB 39.176 47.519 -14.525 C.3 0.0 **** 0.0147
6401 CG1 38.806 47.911 -15.957 C.3 0.0 **** 0.0099
6402 CG2 38.629 48.553 -13.544 C.3 0.0 **** 0.0099
6403 N 36.53 46.077 -13.043 N.am 0.0 **** -0.1781
6404 CA 35.088 45.95 -12.944 C.3 0.0 **** 0.1802
6405 C 34.62 46.817 -11.777 C.2 0.0 **** 0.2433
6406 O 35.226 46.797 -10.709 O.2 0.0 **** -0.2727
6407 CB 34.681 44.502 -12.737 C.3 0.0 **** 0.1344
6408 CG 33.187 44.315 -12.821 C.2 0.0 **** 0.2196
6409 OD1 32.576 44.515 -13.882 O.2 0.0 **** -0.2752
6410 ND2 32.584 43.957 -11.711 N.am 0.0 **** -0.0514
6411 N 33.581 47.6 -12.0 N.am 0.0 **** -0.1786
6412 CA 33.084 48.521 -10.97 C.3 0.0 **** 0.171
6413 C 34.2 49.412 -10.457 C.2 0.0 **** 0.2425
6414 O 34.219 49.797 -9.285 O.2 0.0 **** -0.2727
6415 CB 32.454 47.776 -9.803 C.3 0.0 **** 0.0367
6416 CG 31.172 47.128 -10.118 C.3 0.0 **** 0.0239
6417 CD 30.323 46.967 -8.872 C.3 0.0 **** 0.1157
6418 NE 29.311 45.921 -9.037 N.pl3 0.0 **** 0.138
6419 CZ 28.052 46.124 -9.41 C.cat 0.0 **** 0.1634
6420 NH1 27.615 47.359 -9.67 N.pl3 0.0 **** 0.2799
6421 NH2 27.225 45.088 -9.528 N.pl3 0.0 **** 0.2799
6422 N 35.147 49.731 -11.326 N.am 0.0 **** -0.1817
6423 CA 36.189 50.681 -10.996 C.3 0.0 **** 0.2156
6424 C 37.375 50.116 -10.263 C.2 0.0 **** 0.2396
6425 O 38.285 50.874 -9.916 O.2 0.0 **** -0.273
6426 N 37.405 48.815 -10.011 N.am 0.0 **** -0.1786
6427 CA 38.496 48.211 -9.285 C.3 0.0 **** 0.1753
6428 C 39.042 47.043 -10.071 C.2 0.0 **** 0.2431
6429 O 38.28 46.311 -10.7 O.2 0.0 **** -0.2727
6430 CB 38.009 47.745 -7.936 C.3 0.0 **** 0.0702
6431 CG 37.619 48.861 -7.038 C.ar 0.0 **** -0.0454
6432 CD1 38.591 49.602 -6.399 C.ar 0.0 **** 0.0036
6433 CD2 36.286 49.17 -6.839 C.ar 0.0 **** 0.0036
6434 CE1 38.24 50.646 -5.544 C.ar 0.0 **** 0.0003
6435 CE2 35.924 50.207 -5.983 C.ar 0.0 **** 0.0003
6436 CZ 36.914 50.952 -5.344 C.ar 0.0 **** 0.0
6437 N 40.349 46.87 -10.013 N.4 0.0 **** -0.1786
6438 CA 40.978 45.766 -10.714 C.3 0.0 **** 0.1714
6439 C 40.555 44.434 -10.101 C.2 0.0 **** 0.2428
6440 O 40.444 44.295 -8.885 O.2 0.0 **** -0.2727
6441 CB 42.498 45.951 -10.694 C.3 0.0 **** 0.0434
6442 CG 42.913 47.158 -11.556 C.3 0.0 **** 0.0873
6443 CD 44.359 47.607 -11.391 C.2 0.0 **** 0.1859
6444 OE1 44.949 47.427 -10.291 O.co2 0.0 **** -0.6397
6445 OE2 44.889 48.181 -12.369 O.co2 0.0 **** -0.6397
6446 CA 41.004002 45.761002 -10.698 C.3 0.0 **** 0.0
6447 CB 42.533001 45.894001 -10.6 C.3 0.0 **** 0.0
6448 CG 43.331001 44.776001 -11.31 C.3 0.0 **** 0.0
6449 CD 44.860001 45.012001 -11.327 C.2 0.0 **** 0.0
6450 OE1 45.291 46.174 -11.173 O.co2 0.0 **** 0.0
6451 OE2 45.627998 44.044998 -11.517 O.co2 0.0 **** 0.0
6452 N 40.274 43.468 -10.966 N.am 0.0 **** -0.1784
6453 CA 39.811 42.142 -10.583 C.3 0.0 **** 0.1735
6454 C 41.054 41.322 -10.261 C.2 0.0 **** 0.243
6455 O 41.957 41.215 -11.094 O.2 0.0 **** -0.2727
6456 CB 39.009 41.494 -11.731 C.3 0.0 **** 0.0147
6457 CG1 38.534 40.09 -11.379 C.3 0.0 **** 0.0099
6458 CG2 37.806 42.4 -12.112 C.3 0.0 **** 0.0099
6459 N 41.131 40.782 -9.052 N.am 0.0 **** -0.1786
6460 CA 42.11 39.747 -8.756 C.3 0.0 **** 0.1714
6461 C 41.567 38.35 -9.066 C.2 0.0 **** 0.2428
6462 O 40.352 38.117 -9.093 O.2 0.0 **** -0.2727
6463 CB 42.549 39.815 -7.296 C.3 0.0 **** 0.0434
6464 CG 43.464 40.977 -7.029 C.3 0.0 **** 0.0873
6465 CD 44.208 40.837 -5.721 C.2 0.0 **** 0.1859
6466 OE1 44.588 39.7 -5.362 O.co2 0.0 **** -0.6397
6467 OE2 44.41 41.866 -5.059 O.co2 0.0 **** -0.6397
6468 N 42.487 37.432 -9.364 N.am 0.0 **** -0.1783
6469 CA 42.167 36.051 -9.664 C.3 0.0 **** 0.1754
6470 C 42.5 35.178 -8.462 C.2 0.0 **** 0.2431
6471 O 43.375 35.506 -7.67 O.2 0.0 **** -0.2727
6472 CB 42.955 35.543 -10.884 C.3 0.0 **** 0.0724
6473 CG 42.62 36.211 -12.156 C.2 0.0 **** -0.0201
6474 CD1 41.511 36.924 -12.435 C.2 0.0 **** 0.0869
6475 CD2 43.415 36.208 -13.348 C.2 0.0 **** 0.0027
6476 NE1 41.547 37.37 -13.749 N.pl3 0.0 **** -0.195
6477 CE2 42.714 36.942 -14.319 C.2 0.0 **** 0.0456
6478 CE3 44.654 35.642 -13.685 C.2 0.0 **** 0.0104
6479 CZ2 43.213 37.142 -15.602 C.2 0.0 **** 0.0265
6480 CZ3 45.151 35.848 -14.954 C.2 0.0 **** 0.0008
6481 CH2 44.427 36.587 -15.902 C.2 0.0 **** 0.0022
6482 N 41.757 34.085 -8.313 N.am 0.0 **** -0.1789
6483 CA 42.09 33.046 -7.342 C.3 0.0 **** 0.1678
6484 C 43.19 32.129 -7.827 C.2 0.0 **** 0.2425
6485 O 43.916 31.538 -7.007 O.2 0.0 **** -0.2727
6486 CB 40.868 32.197 -7.04 C.3 0.0 **** 0.0414
6487 N 43.273 31.957 -9.127 N.am 0.0 **** -0.1787
6488 CA 44.251 31.027 -9.698 C.3 0.0 **** 0.171
6489 C 44.394 31.239 -11.197 C.2 0.0 **** 0.2428
6490 O 43.673 32.022 -11.761 O.2 0.0 **** -0.2727
6491 CB 43.707 29.619 -9.461 C.3 0.0 **** 0.0367
6492 CG 42.528 29.266 -10.353 C.3 0.0 **** 0.0239
6493 CD 41.454 28.405 -9.737 C.3 0.0 **** 0.1157
6494 NE 41.927 27.117 -9.309 N.pl3 0.0 **** 0.138
6495 CZ 41.221 26.264 -8.609 C.cat 0.0 **** 0.1634
6496 NH1 41.753 25.118 -8.247 N.pl3 0.0 **** 0.2799
6497 NH2 39.986 26.543 -8.266 N.pl3 0.0 **** 0.2799
6498 N 45.409 30.615 -11.759 N.am 0.0 **** -0.1784
6499 CA 45.517 30.4 -13.201 C.3 0.0 **** 0.1738
6500 C 45.689 28.909 -13.354 C.2 0.0 **** 0.2428
6501 O 46.761 28.382 -13.028 O.2 0.0 **** -0.2727
6502 CB 46.693 31.149 -13.836 C.3 0.0 **** 0.0176
6503 CG1 46.55 32.643 -13.557 C.3 0.0 **** 0.0024
6504 CG2 46.754 30.866 -15.362 C.3 0.0 **** 0.0102
6505 CD1 47.795 33.455 -13.828 C.3 0.0 **** 0.0041
6506 N 44.64 28.221 -13.821 N.am 0.0 **** -0.1817
6507 CA 44.7 26.775 -13.86 C.3 0.0 **** 0.2156
6508 C 43.774 26.164 -14.883 C.2 0.0 **** 0.2396
6509 O 43.095 26.863 -15.642 O.2 0.0 **** -0.273
6510 N 43.775 24.821 -14.898 N.am 0.0 **** -0.1789
6511 CA 42.885 24.028 -15.74 C.3 0.0 **** 0.1712
6512 C 41.961 23.179 -14.873 C.2 0.0 **** 0.2428
6513 O 42.382 22.634 -13.841 O.2 0.0 **** -0.2727
6514 CB 43.668 23.094 -16.686 C.3 0.0 **** 0.0378
6515 CG 44.712 23.746 -17.603 C.3 0.0 **** -0.0149
6516 CD1 45.474 22.698 -18.399 C.3 0.0 **** 0.0072
6517 CD2 44.082 24.765 -18.547 C.3 0.0 **** 0.0072
6518 N 40.71 23.042 -15.31 N.am 0.0 **** -0.1786
6519 CA 39.776 22.068 -14.759 C.3 0.0 **** 0.1714
6520 C 39.566 20.996 -15.815 C.2 0.0 **** 0.2428
6521 O 39.145 21.307 -16.938 O.2 0.0 **** -0.2727
6522 CB 38.441 22.703 -14.383 C.3 0.0 **** 0.0434
6523 CG 37.441 21.726 -13.747 C.3 0.0 **** 0.0873
6524 CD 36.065 22.346 -13.567 C.2 0.0 **** 0.1859
6525 OE1 35.526 22.838 -14.562 O.co2 0.0 **** -0.6397
6526 OE2 35.518 22.339 -12.453 O.co2 0.0 **** -0.6397
6527 N 39.89 19.753 -15.47 N.am 0.0 **** -0.1783
6528 CA 39.509 18.584 -16.256 C.3 0.0 **** 0.1753
6529 C 38.297 17.968 -15.568 C.2 0.0 **** 0.2431
6530 O 38.38 17.6 -14.388 O.2 0.0 **** -0.2727
6531 CB 40.615 17.531 -16.31 C.3 0.0 **** 0.0702
6532 CG 41.859 17.941 -17.031 C.ar 0.0 **** -0.0454
6533 CD1 42.782 18.779 -16.437 C.ar 0.0 **** 0.0036
6534 CD2 42.138 17.41 -18.274 C.ar 0.0 **** 0.0036
6535 CE1 43.959 19.125 -17.091 C.ar 0.0 **** 0.0003
6536 CE2 43.317 17.738 -18.95 C.ar 0.0 **** 0.0003
6537 CZ 44.235 18.598 -18.33 C.ar 0.0 **** 0.0
6538 N 37.184 17.851 -16.279 N.am 0.0 **** -0.1784
6539 CA 36.042 17.092 -15.777 C.3 0.0 **** 0.1735
6540 C 36.071 15.744 -16.479 C.2 0.0 **** 0.243
6541 O 35.886 15.664 -17.697 O.2 0.0 **** -0.2727
6542 CB 34.71 17.822 -15.993 C.3 0.0 **** 0.0147
6543 CG1 33.579 17.014 -15.377 C.3 0.0 **** 0.0099
6544 CG2 34.736 19.241 -15.359 C.3 0.0 **** 0.0099
6545 N 36.326 14.686 -15.712 N.am 0.0 **** -0.1786
6546 CA 36.453 13.331 -16.235 C.3 0.0 **** 0.1712
6547 C 35.173 12.54 -15.988 C.2 0.0 **** 0.2425
6548 O 34.553 12.64 -14.923 O.2 0.0 **** -0.2727
6549 CB 37.631 12.61 -15.584 C.3 0.0 **** 0.0378
6550 CG 38.923 13.427 -15.531 C.3 0.0 **** -0.0149
6551 CD1 40.024 12.678 -14.778 C.3 0.0 **** 0.0072
6552 CD2 39.372 13.764 -16.94 C.3 0.0 **** 0.0072
6553 N 34.787 11.741 -16.978 N.am 0.0 **** -0.1817
6554 CA 33.525 11.033 -16.92 C.3 0.0 **** 0.2156
6555 C 33.574 9.752 -16.113 C.2 0.0 **** 0.2396
6556 O 32.781 8.841 -16.36 O.2 0.0 **** -0.273
6557 N 34.514 9.636 -15.182 N.am 0.0 **** -0.1789
6558 CA 34.589 8.465 -14.324 C.3 0.0 **** 0.1714
6559 C 35.038 8.905 -12.943 C.2 0.0 **** 0.2428
6560 O 35.619 9.979 -12.782 O.2 0.0 **** -0.2727
6561 CB 35.559 7.415 -14.859 C.3 0.0 **** 0.0434
6562 CG 34.881 6.309 -15.637 C.3 0.0 **** 0.0873
6563 CD 35.821 5.634 -16.616 C.2 0.0 **** 0.1859
6564 OE1 37.056 5.685 -16.4 O.co2 0.0 **** -0.6397
6565 OE2 35.32 5.058 -17.611 O.co2 0.0 **** -0.6397
6566 N 34.777 8.053 -11.952 N.am 0.0 **** -0.1786
6567 CA 35.133 8.351 -10.57 C.3 0.0 **** 0.1714
6568 C 36.577 7.967 -10.293 C.2 0.0 **** 0.2428
6569 O 37.128 7.044 -10.899 O.2 0.0 **** -0.2727
6570 CB 34.216 7.61 -9.602 C.3 0.0 **** 0.0434
6571 CG 32.76 8.018 -9.668 C.3 0.0 **** 0.0873
6572 CD 31.926 7.3 -8.633 C.2 0.0 **** 0.1859
6573 OE1 31.807 6.063 -8.724 O.co2 0.0 **** -0.6397
6574 OE2 31.411 7.964 -7.711 O.co2 0.0 **** -0.6397
6575 N 37.189 8.694 -9.368 N.am 0.0 **** -0.1763
6576 CA 38.555 8.437 -8.936 C.3 0.0 **** 0.1996
6577 C 38.533 7.742 -7.581 C.2 0.0 **** 0.2454
6578 O 37.82 8.162 -6.661 O.2 0.0 **** -0.2726
6579 CB 39.361 9.746 -8.856 C.3 0.0 **** 0.1429
6580 OG1 39.517 10.304 -10.174 O.3 0.0 **** -0.1801
6581 CG2 40.74 9.5 -8.275 C.3 0.0 **** 0.0409
6582 N 39.309 6.669 -7.465 N.am 0.0 **** -0.1786
6583 CA 39.401 5.949 -6.209 C.3 0.0 **** 0.1714
6584 C 40.603 6.364 -5.391 C.2 0.0 **** 0.2428
6585 O 40.534 6.342 -4.162 O.2 0.0 **** -0.2727
6586 CB 39.476 4.441 -6.458 C.3 0.0 **** 0.0434
6587 CG 38.193 3.869 -7.018 C.3 0.0 **** 0.0873
6588 CD 38.162 3.85 -8.538 C.2 0.0 **** 0.1859
6589 OE1 39.156 3.391 -9.146 O.co2 0.0 **** -0.6397
6590 OE2 37.143 4.286 -9.128 O.co2 0.0 **** -0.6397
6591 N 41.685 6.761 -6.056 N.am 0.0 **** -0.1786
6592 CA 42.972 6.966 -5.414 C.3 0.0 **** 0.1712
6593 C 43.692 8.126 -6.075 C.2 0.0 **** 0.2428
6594 O 43.67 8.255 -7.303 O.2 0.0 **** -0.2727
6595 CB 43.843 5.709 -5.52 C.3 0.0 **** 0.0378
6596 CG 45.094 5.704 -4.629 C.3 0.0 **** -0.0149
6597 CD1 44.716 5.504 -3.184 C.3 0.0 **** 0.0072
6598 CD2 46.073 4.632 -5.085 C.3 0.0 **** 0.0072
6599 N 44.34 8.955 -5.255 N.am 0.0 **** -0.1784
6600 CA 45.132 10.083 -5.734 C.3 0.0 **** 0.1735
6601 C 46.521 9.99 -5.113 C.2 0.0 **** 0.2431
6602 O 46.659 9.96 -3.881 O.2 0.0 **** -0.2727
6603 CB 44.483 11.435 -5.405 C.3 0.0 **** 0.0147
6604 CG1 45.317 12.569 -5.979 C.3 0.0 **** 0.0099
6605 CG2 43.078 11.492 -5.979 C.3 0.0 **** 0.0099
6606 N 47.539 9.957 -5.96 N.am 0.0 **** -0.1765
6607 CA 48.915 9.905 -5.517 C.3 0.0 **** 0.1967
6608 C 49.662 11.066 -6.138 C.2 0.0 **** 0.2452
6609 O 49.316 11.522 -7.24 O.2 0.0 **** -0.2726
6610 CB 49.594 8.578 -5.939 C.3 0.0 **** 0.1907
6611 OG 48.859 7.474 -5.446 O.3 0.0 **** -0.1835
6612 N 50.72 11.502 -5.461 N.am 0.0 **** -0.1782
6613 CA 51.509 12.603 -5.984 C.3 0.0 **** 0.1754
6614 C 52.873 12.648 -5.33 C.2 0.0 **** 0.2431
6615 O 53.061 12.165 -4.204 O.2 0.0 **** -0.2727
6616 CB 50.78 13.942 -5.787 C.3 0.0 **** 0.0724
6617 CG 50.704 14.536 -4.392 C.2 0.0 **** -0.0201
6618 CD1 51.454 15.566 -3.903 C.2 0.0 **** 0.0869
6619 CD2 49.801 14.169 -3.342 C.2 0.0 **** 0.0027
6620 NE1 51.087 15.854 -2.605 N.pl3 0.0 **** -0.195
6621 CE2 50.07 15.011 -2.242 C.2 0.0 **** 0.0456
6622 CE3 48.798 13.197 -3.22 C.2 0.0 **** 0.0104
6623 CZ2 49.365 14.922 -1.034 C.2 0.0 **** 0.0265
6624 CZ3 48.097 13.109 -2.007 C.2 0.0 **** 0.0008
6625 CH2 48.383 13.974 -0.941 C.2 0.0 **** 0.0022
6626 N 53.826 13.224 -6.058 N.am 0.0 **** -0.1783
6627 CA 55.069 13.704 -5.473 C.3 0.0 **** 0.1753
6628 C 54.99 15.217 -5.337 C.2 0.0 **** 0.2429
6629 O 54.644 15.914 -6.292 O.2 0.0 **** -0.2727
6630 CB 56.287 13.326 -6.312 C.3 0.0 **** 0.0702
6631 CG 57.562 13.879 -5.758 C.ar 0.0 **** -0.0454
6632 CD1 58.171 13.278 -4.67 C.ar 0.0 **** 0.0036
6633 CD2 58.13 15.026 -6.275 C.ar 0.0 **** 0.0036
6634 CE1 59.339 13.796 -4.127 C.ar 0.0 **** 0.0003
6635 CE2 59.314 15.553 -5.716 C.ar 0.0 **** 0.0003
6636 CZ 59.907 14.927 -4.645 C.ar 0.0 **** 0.0
6637 N 55.297 15.724 -4.148 N.am 0.0 **** -0.1817
6638 CA 55.178 17.137 -3.888 C.3 0.0 **** 0.2156
6639 C 55.177 17.364 -2.388 C.2 0.0 **** 0.2396
6640 O 56.042 16.833 -1.693 O.2 0.0 **** -0.273
6641 N 54.187 18.08 -1.884 N.am 0.0 **** -0.1789
6642 CA 54.114 18.457 -0.474 C.3 0.0 **** 0.1714
6643 C 52.882 17.82 0.133 C.2 0.0 **** 0.2425
6644 O 51.811 17.826 -0.478 O.2 0.0 **** -0.2727
6645 CB 54.005 19.976 -0.303 C.3 0.0 **** 0.0447
6646 CG 55.087 20.754 -0.956 C.3 0.0 **** 0.1022
6647 CD 56.438 20.525 -0.293 C.2 0.0 **** 0.217
6648 OE1 56.561 20.619 0.933 O.2 0.0 **** -0.2753
6649 NE2 57.46 20.228 -1.102 N.am 0.0 **** -0.0515
6650 N 53.001 17.33 1.361 N.am 0.0 **** -0.1817
6651 CA 51.894 16.618 1.924 C.3 0.0 **** 0.2159
6652 C 52.117 16.174 3.345 C.2 0.0 **** 0.2422
6653 O 53.096 16.541 4.003 O.2 0.0 **** -0.2728
6654 N 51.195 15.343 3.838 N.am 0.0 **** -0.3291
6655 CA 50.021 14.858 3.09 C.3 0.0 **** 0.1741
6656 C 48.865 15.854 2.94 C.2 0.0 **** 0.243
6657 O 48.044 15.664 2.049 O.2 0.0 **** -0.2727
6658 CB 49.528 13.694 3.936 C.3 0.0 **** 0.037
6659 CG 49.93 14.054 5.288 C.3 0.0 **** 0.0242
6660 CD 51.254 14.767 5.197 C.3 0.0 **** 0.1203
6661 N 48.77 16.85 3.831 N.am 0.0 **** -0.1783
6662 CA 47.603 17.722 3.876 C.3 0.0 **** 0.1769
6663 C 47.74 18.876 2.871 C.2 0.0 **** 0.2432
6664 O 48.737 18.994 2.152 O.2 0.0 **** -0.2727
6665 CB 47.378 18.236 5.3 C.3 0.0 **** 0.0902
6666 CG 48.488 19.09 5.828 C.2 0.0 **** 0.037
6667 ND1 49.649 18.552 6.352 N.pl3 0.0 **** -0.1813
6668 CD2 48.585 20.438 5.986 C.2 0.0 **** 0.1339
6669 CE1 50.435 19.535 6.753 C.2 0.0 **** 0.1962
6670 NE2 49.814 20.689 6.542 N.2 0.0 **** -0.2451
6671 N 46.719 19.739 2.818 N.am 0.0 **** -0.1786
6672 CA 46.639 20.787 1.799 C.3 0.0 **** 0.1714
6673 C 47.716 21.845 1.997 C.2 0.0 **** 0.2428
6674 O 48.24 22.047 3.099 O.2 0.0 **** -0.2727
6675 CB 45.283 21.481 1.842 C.3 0.0 **** 0.0447
6676 CG 45.109 22.425 3.047 C.3 0.0 **** 0.1022
6677 CD 43.731 23.001 3.192 C.2 0.0 **** 0.217
6678 OE1 42.802 22.653 2.472 O.2 0.0 **** -0.2753
6679 NE2 43.579 23.902 4.173 N.am 0.0 **** -0.0515
6680 N 47.997 22.58 0.928 N.am 0.0 **** -0.1765
6681 CA 48.919 23.709 1.025 C.3 0.0 **** 0.1967
6682 C 48.592 24.751 -0.035 C.2 0.0 **** 0.2452
6683 O 48.388 24.421 -1.214 O.2 0.0 **** -0.2726
6684 CB 50.376 23.245 0.882 C.3 0.0 **** 0.1907
6685 OG 50.63 22.606 -0.353 O.3 0.0 **** -0.1835
6686 N 48.556 26.01 0.4 N.am 0.0 **** -0.1782
6687 CA 48.324 27.167 -0.44 C.3 0.0 **** 0.1755
6688 C 49.548 28.062 -0.296 C.2 0.0 **** 0.2457
6689 O 50.414 27.796 0.554 O.2 0.0 **** -0.2724
6690 CB 47.017 27.882 -0.043 C.3 0.0 **** 0.0702
6691 CG 45.81 27.047 -0.412 C.ar 0.0 **** -0.0452
6692 CD1 45.454 25.95 0.357 C.ar 0.0 **** 0.0063
6693 CD2 45.06 27.326 -1.547 C.ar 0.0 **** 0.0063
6694 CE1 44.383 25.117 0.002 C.ar 0.0 **** 0.0332
6695 CE2 43.957 26.516 -1.908 C.ar 0.0 **** 0.0332
6696 CZ 43.629 25.412 -1.114 C.ar 0.0 **** 0.0713
6697 OH 42.579 24.573 -1.439 O.3 0.0 **** -0.1427
6698 N 49.664 29.123 -1.088 N.am 0.0 **** -0.3289
6699 CA 50.948 29.836 -1.139 C.3 0.0 **** 0.1741
6700 C 51.398 30.361 0.197 C.2 0.0 **** 0.243
6701 O 52.607 30.411 0.439 O.2 0.0 **** -0.2727
6702 CB 50.67 30.962 -2.135 C.3 0.0 **** 0.037
6703 CG 49.76 30.277 -3.118 C.3 0.0 **** 0.0242
6704 CD 48.834 29.419 -2.281 C.3 0.0 **** 0.1203
6705 N 50.47 30.779 1.054 N.am 0.0 **** -0.1782
6706 CA 50.794 31.364 2.351 C.3 0.0 **** 0.1789
6707 C 50.468 30.428 3.516 C.2 0.0 **** 0.2433
6708 O 50.355 30.877 4.673 O.2 0.0 **** -0.2727
6709 CB 50.093 32.712 2.504 C.3 0.0 **** 0.1195
6710 CG 48.563 32.638 2.424 C.2 0.0 **** 0.1884
6711 OD1 47.991 31.582 2.076 O.co2 0.0 **** -0.6396
6712 OD2 47.934 33.681 2.772 O.co2 0.0 **** -0.6396
6713 N 50.317 29.142 3.228 N.am 0.0 **** -0.1763
6714 CA 50.098 28.127 4.249 C.3 0.0 **** 0.1996
6715 C 50.955 26.929 3.864 C.2 0.0 **** 0.2452
6716 O 51.917 27.045 3.093 O.2 0.0 **** -0.2726
6717 CB 48.602 27.757 4.351 C.3 0.0 **** 0.1429
6718 OG1 48.163 27.142 3.103 O.3 0.0 **** -0.1801
6719 CG2 47.779 29.01 4.631 C.3 0.0 **** 0.0409
6720 N 50.59 25.764 4.377 N.am 0.0 **** -0.1816
6721 CA 51.303 24.546 4.027 C.3 0.0 **** 0.2156
6722 C 52.665 24.355 4.673 C.2 0.0 **** 0.2396
6723 O 53.44 23.507 4.222 O.2 0.0 **** -0.273
6724 N 52.994 25.114 5.716 N.am 0.0 **** -0.1789
6725 CA 54.308 24.946 6.327 C.3 0.0 **** 0.1714
6726 C 54.495 23.52 6.837 C.2 0.0 **** 0.2425
6727 O 55.607 22.993 6.815 O.2 0.0 **** -0.2727
6728 CB 54.493 25.931 7.478 C.3 0.0 **** 0.0447
6729 CG 54.404 27.4 7.079 C.3 0.0 **** 0.1022
6730 CD 52.995 27.977 7.151 C.2 0.0 **** 0.217
6731 OE1 52.004 27.263 7.012 O.2 0.0 **** -0.2753
6732 NE2 52.904 29.296 7.359 N.am 0.0 **** -0.0515
6733 N 53.422 22.899 7.311 N.am 0.0 **** -0.1817
6734 CA 53.493 21.538 7.792 C.3 0.0 **** 0.2156
6735 C 53.485 20.472 6.727 C.2 0.0 **** 0.2396
6736 O 53.679 19.302 7.059 O.2 0.0 **** -0.273
6737 N 53.258 20.833 5.466 N.am 0.0 **** -0.1792
6738 CA 53.312 19.866 4.382 C.3 0.0 **** 0.1678
6739 C 54.759 19.697 3.984 C.2 0.0 **** 0.2425
6740 O 55.423 20.667 3.621 O.2 0.0 **** -0.2727
6741 CB 52.463 20.343 3.201 C.3 0.0 **** 0.0414
6742 N 55.265 18.487 4.09 N.am 0.0 **** -0.1787
6743 CA 56.663 18.232 3.81 C.3 0.0 **** 0.171
6744 C 56.795 17.591 2.438 C.2 0.0 **** 0.2427
6745 O 55.834 17.07 1.878 O.2 0.0 **** -0.2727
6746 CB 57.267 17.328 4.88 C.3 0.0 **** 0.0367
6747 CG 56.802 15.867 4.843 C.3 0.0 **** 0.0239
6748 CD 57.249 15.124 6.144 C.3 0.0 **** 0.1157
6749 NE 56.555 15.686 7.294 N.pl3 0.0 **** 0.138
6750 CZ 56.94 15.511 8.564 C.cat 0.0 **** 0.1634
6751 NH1 58.008 14.779 8.853 N.pl3 0.0 **** 0.2799
6752 NH2 56.243 16.042 9.545 N.pl3 0.0 **** 0.2799
6753 N 58.009 17.627 1.911 N.am 0.0 **** -0.179
6754 CA 58.264 16.993 0.623 C.3 0.0 **** 0.1678
6755 C 58.21 15.48 0.762 C.2 0.0 **** 0.2422
6756 O 58.735 14.907 1.724 O.2 0.0 **** -0.2727
6757 CB 59.625 17.405 0.073 C.3 0.0 **** 0.0414
6758 N 57.594 14.824 -0.213 N.am 0.0 **** -0.1817
6759 CA 57.548 13.376 -0.194 C.3 0.0 **** 0.2156
6760 C 56.608 12.836 -1.259 C.2 0.0 **** 0.2396
6761 O 56.101 13.569 -2.101 O.2 0.0 **** -0.273
6762 N 56.381 11.529 -1.175 N.am 0.0 **** -0.1786
6763 CA 55.429 10.82 -2.02 C.3 0.0 **** 0.1754
6764 C 54.214 10.49 -1.169 C.2 0.0 **** 0.2431
6765 O 54.36 9.975 -0.062 O.2 0.0 **** -0.2727
6766 CB 56.044 9.531 -2.596 C.3 0.0 **** 0.0724
6767 CG 57.141 9.769 -3.574 C.2 0.0 **** -0.0201
6768 CD1 57.045 9.725 -4.941 C.2 0.0 **** 0.0869
6769 CD2 58.507 10.087 -3.275 C.2 0.0 **** 0.0027
6770 NE1 58.268 10.002 -5.505 N.pl3 0.0 **** -0.195
6771 CE2 59.182 10.22 -4.503 C.2 0.0 **** 0.0456
6772 CE3 59.225 10.272 -2.083 C.2 0.0 **** 0.0104
6773 CZ2 60.534 10.539 -4.578 C.2 0.0 **** 0.0265
6774 CZ3 60.576 10.581 -2.161 C.2 0.0 **** 0.0008
6775 CH2 61.213 10.716 -3.391 C.2 0.0 **** 0.0022
6776 N 53.027 10.793 -1.676 N.am 0.0 **** -0.1783
6777 CA 51.789 10.634 -0.927 C.3 0.0 **** 0.1753
6778 C 50.781 9.903 -1.795 C.2 0.0 **** 0.2432
6779 O 50.858 9.935 -3.03 O.2 0.0 **** -0.2727
6780 CB 51.245 12.014 -0.45 C.3 0.0 **** 0.0702
6781 CG 52.289 12.816 0.284 C.ar 0.0 **** -0.0454
6782 CD1 52.532 12.601 1.634 C.ar 0.0 **** 0.0036
6783 CD2 53.086 13.72 -0.399 C.ar 0.0 **** 0.0036
6784 CE1 53.534 13.301 2.295 C.ar 0.0 **** 0.0003
6785 CE2 54.085 14.427 0.269 C.ar 0.0 **** 0.0003
6786 CZ 54.305 14.211 1.602 C.ar 0.0 **** 0.0
6787 N 49.861 9.209 -1.132 N.am 0.0 **** -0.1765
6788 CA 48.789 8.514 -1.829 C.3 0.0 **** 0.1967
6789 C 47.604 8.409 -0.883 C.2 0.0 **** 0.2451
6790 O 47.76 7.951 0.255 O.2 0.0 **** -0.2726
6791 CB 49.249 7.136 -2.302 C.3 0.0 **** 0.1907
6792 OG 48.246 6.514 -3.052 O.3 0.0 **** -0.1835
6793 N 46.44 8.887 -1.331 N.am 0.0 **** -0.1786
6794 CA 45.249 8.954 -0.509 C.3 0.0 **** 0.1714
6795 C 44.014 8.536 -1.297 C.2 0.0 **** 0.2454
6796 O 43.901 8.856 -2.493 O.2 0.0 **** -0.2724
6797 CB 45.008 10.376 0.04 C.3 0.0 **** 0.0378
6798 CG 46.008 10.948 1.052 C.3 0.0 **** -0.0149
6799 CD1 45.614 12.358 1.429 C.3 0.0 **** 0.0072
6800 CD2 46.074 10.076 2.292 C.3 0.0 **** 0.0072
6801 N 43.068 7.844 -0.663 N.am 0.0 **** -0.3289
6802 CA 41.755 7.677 -1.293 C.3 0.0 **** 0.1741
6803 C 41.116 9.035 -1.477 C.2 0.0 **** 0.243
6804 O 41.405 9.98 -0.744 O.2 0.0 **** -0.2727
6805 CB 40.973 6.805 -0.304 C.3 0.0 **** 0.037
6806 CG 41.72 6.878 0.985 C.3 0.0 **** 0.0242
6807 CD 43.132 7.263 0.693 C.3 0.0 **** 0.1203
6808 N 40.254 9.125 -2.489 N.am 0.0 **** -0.1786
6809 CA 39.722 10.418 -2.887 C.3 0.0 **** 0.1712
6810 C 39.106 11.156 -1.705 C.2 0.0 **** 0.2427
6811 O 39.298 12.37 -1.544 O.2 0.0 **** -0.2727
6812 CB 38.693 10.215 -4.003 C.3 0.0 **** 0.0378
6813 CG 38.065 11.525 -4.507 C.3 0.0 **** -0.0149
6814 CD1 39.12 12.474 -5.033 C.3 0.0 **** 0.0072
6815 CD2 37.001 11.257 -5.56 C.3 0.0 **** 0.0072
6816 N 38.378 10.438 -0.851 N.am 0.0 **** -0.179
6817 CA 37.656 11.107 0.223 C.3 0.0 **** 0.1678
6818 C 38.614 11.823 1.158 C.2 0.0 **** 0.2425
6819 O 38.286 12.893 1.689 O.2 0.0 **** -0.2727
6820 CB 36.823 10.108 1.01 C.3 0.0 **** 0.0414
6821 N 39.802 11.269 1.35 N.am 0.0 **** -0.1787
6822 CA 40.741 11.852 2.291 C.3 0.0 **** 0.1709
6823 C 41.513 13.019 1.703 C.2 0.0 **** 0.2427
6824 O 42.314 13.63 2.412 O.2 0.0 **** -0.2727
6825 CB 41.711 10.778 2.778 C.3 0.0 **** 0.035
6826 CG 41.04 9.624 3.499 C.3 0.0 **** 0.0062
6827 CD 40.762 9.97 4.972 C.3 0.0 **** 0.0387
6828 CE 40.238 8.771 5.779 C.3 0.0 **** 0.1659
6829 NZ 41.17 7.596 5.714 N.4 0.0 **** 0.7918
6830 N 41.314 13.34 0.425 N.am 0.0 **** -0.1786
6831 CA 41.854 14.587 -0.097 C.3 0.0 **** 0.1718
6832 C 41.074 15.793 0.406 C.2 0.0 **** 0.2428
6833 O 41.616 16.897 0.433 O.2 0.0 **** -0.2727
6834 CB 41.854 14.557 -1.636 C.3 0.0 **** 0.0457
6835 CG 42.679 13.445 -2.253 C.3 0.0 **** 0.0716
6836 SD 44.45 13.606 -1.956 S.3 0.0 **** -0.1653
6837 CE 44.834 14.999 -3.006 C.3 0.0 **** 0.0847
6838 N 39.832 15.607 0.845 N.am 0.0 **** -0.1782
6839 CA 38.972 16.722 1.193 C.3 0.0 **** 0.1789
6840 C 39.264 17.19 2.624 C.2 0.0 **** 0.2432
6841 O 40.021 16.567 3.366 O.2 0.0 **** -0.2727
6842 CB 37.51 16.319 1.046 C.3 0.0 **** 0.1195
6843 CG 36.623 17.444 0.546 C.2 0.0 **** 0.1884
6844 OD1 36.998 18.635 0.598 O.co2 0.0 **** -0.6396
6845 OD2 35.509 17.134 0.082 O.co2 0.0 **** -0.6396
6846 N 38.676 18.321 2.996 N.am 0.0 **** -0.1784
6847 CA 38.831 18.875 4.338 C.3 0.0 **** 0.1735
6848 C 37.443 19.197 4.87 C.2 0.0 **** 0.243
6849 O 36.704 19.983 4.261 O.2 0.0 **** -0.2727
6850 CB 39.717 20.131 4.365 C.3 0.0 **** 0.0147
6851 CG1 39.904 20.6 5.799 C.3 0.0 **** 0.0099
6852 CG2 41.082 19.835 3.748 C.3 0.0 **** 0.0099
6853 N 37.111 18.639 6.037 N.am 0.0 **** -0.1786
6854 CA 35.724 18.697 6.488 C.3 0.0 **** 0.1714
6855 C 35.384 20.0 7.213 C.2 0.0 **** 0.2428
6856 O 34.793 19.971 8.293 O.2 0.0 **** -0.2727
6857 CB 35.42 17.493 7.37 C.3 0.0 **** 0.0434
6858 CG 35.557 16.167 6.614 C.3 0.0 **** 0.0873
6859 CD 34.842 14.993 7.28 C.2 0.0 **** 0.1859
6860 OE1 33.791 15.195 7.923 O.co2 0.0 **** -0.6397
6861 OE2 35.333 13.848 7.141 O.co2 0.0 **** -0.6397
6862 N 35.686 21.142 6.609 N.am 0.0 **** -0.1783
6863 CA 35.199 22.405 7.159 C.3 0.0 **** 0.1753
6864 C 33.68 22.397 7.245 C.2 0.0 **** 0.2431
6865 O 32.986 21.83 6.394 O.2 0.0 **** -0.2727
6866 CB 35.661 23.554 6.293 C.3 0.0 **** 0.0702
6867 CG 37.148 23.761 6.303 C.ar 0.0 **** -0.0452
6868 CD1 37.833 24.005 7.503 C.ar 0.0 **** 0.0063
6869 CD2 37.865 23.706 5.136 C.ar 0.0 **** 0.0063
6870 CE1 39.198 24.198 7.512 C.ar 0.0 **** 0.0332
6871 CE2 39.239 23.898 5.135 C.ar 0.0 **** 0.0332
6872 CZ 39.89 24.159 6.329 C.ar 0.0 **** 0.0713
6873 OH 41.26 24.348 6.331 O.3 0.0 **** -0.1427
6874 N 33.152 23.069 8.268 N.am 0.0 **** -0.1784
6875 CA 31.724 22.964 8.574 C.3 0.0 **** 0.1735
6876 C 30.903 23.609 7.475 C.2 0.0 **** 0.243
6877 O 29.894 23.051 7.017 O.2 0.0 **** -0.2727
6878 CB 31.421 23.593 9.949 C.3 0.0 **** 0.0147
6879 CG1 29.956 23.448 10.275 C.3 0.0 **** 0.0099
6880 CG2 32.322 22.919 11.078 C.3 0.0 **** 0.0099
6881 N 31.299 24.807 7.053 N.am 0.0 **** -0.1786
6882 CA 30.759 25.389 5.835 C.3 0.0 **** 0.1712
6883 C 31.715 25.01 4.714 C.2 0.0 **** 0.2453
6884 O 32.879 25.459 4.73 O.2 0.0 **** -0.2724
6885 CB 30.631 26.899 5.932 C.3 0.0 **** 0.0367
6886 CG 29.989 27.501 4.674 C.3 0.0 **** 0.0239
6887 CD 30.093 29.038 4.655 C.3 0.0 **** 0.1157
6888 NE 31.478 29.454 4.368 N.pl3 0.0 **** 0.138
6889 CZ 32.005 29.544 3.151 C.cat 0.0 **** 0.1634
6890 NH1 31.275 29.311 2.047 N.pl3 0.0 **** 0.2799
6891 NH2 33.259 29.907 3.036 N.pl3 0.0 **** 0.2799
6892 N 31.31 24.154 3.768 N.am 0.0 **** -0.3289
6893 CA 32.225 23.754 2.693 C.3 0.0 **** 0.1741
6894 C 32.725 24.971 1.927 C.2 0.0 **** 0.243
6895 O 32.008 25.961 1.73 O.2 0.0 **** -0.2727
6896 CB 31.365 22.845 1.805 C.3 0.0 **** 0.037
6897 CG 30.29 22.3 2.717 C.3 0.0 **** 0.0242
6898 CD 30.023 23.456 3.705 C.3 0.0 **** 0.1203
6899 N 33.96 24.87 1.465 N.am 0.0 **** -0.1786
6900 CA 34.626 26.001 0.838 C.3 0.0 **** 0.1714
6901 C 35.857 25.447 0.146 C.2 0.0 **** 0.2428
6902 O 36.217 24.279 0.321 O.2 0.0 **** -0.2727
6903 CB 35.012 27.069 1.856 C.3 0.0 **** 0.0447
6904 CG 36.058 26.55 2.888 C.3 0.0 **** 0.1022
6905 CD 36.115 27.447 4.091 C.2 0.0 **** 0.217
6906 OE1 36.968 28.32 4.188 O.2 0.0 **** -0.2753
6907 NE2 35.142 27.293 4.98 N.am 0.0 **** -0.0515
6908 N 36.5 26.293 -0.643 N.am 0.0 **** -0.1786
6909 CA 37.735 25.873 -1.293 C.3 0.0 **** 0.1714
6910 C 38.724 25.325 -0.268 C.2 0.0 **** 0.2428
6911 O 39.026 25.986 0.727 O.2 0.0 **** -0.2727
6912 CB 38.366 27.053 -2.023 C.3 0.0 **** 0.0434
6913 CG 39.832 26.823 -2.428 C.3 0.0 **** 0.0873
6914 CD 40.032 25.722 -3.436 C.2 0.0 **** 0.1859
6915 OE1 39.089 25.372 -4.189 O.co2 0.0 **** -0.6397
6916 OE2 41.161 25.191 -3.487 O.co2 0.0 **** -0.6397
6917 N 39.295 24.165 -0.579 N.am 0.0 **** -0.1779
6918 CA 40.221 23.456 0.294 C.3 0.0 **** 0.1806
6919 C 40.759 22.262 -0.481 C.2 0.0 **** 0.2434
6920 O 40.243 21.906 -1.542 O.2 0.0 **** -0.2727
6921 CB 39.523 23.013 1.583 C.3 0.0 **** 0.1006
6922 SG 38.261 21.773 1.29 S.3 0.0 **** -0.0744
6923 N 41.812 21.633 0.058 N.am 0.0 **** -0.1817
6924 CA 42.312 20.394 -0.517 C.3 0.0 **** 0.2156
6925 C 43.335 20.526 -1.625 C.2 0.0 **** 0.2396
6926 O 43.778 19.499 -2.169 O.2 0.0 **** -0.273
6927 N 43.732 21.741 -1.986 N.am 0.0 **** -0.1792
6928 CA 44.792 21.894 -2.969 C.3 0.0 **** 0.1678
6929 C 46.121 21.462 -2.379 C.2 0.0 **** 0.2425
6930 O 46.42 21.728 -1.206 O.2 0.0 **** -0.2727
6931 CB 44.916 23.339 -3.432 C.3 0.0 **** 0.0414
6932 N 46.912 20.815 -3.198 N.am 0.0 **** -0.1787
6933 CA 48.26 20.399 -2.852 C.3 0.0 **** 0.171
6934 C 49.23 21.194 -3.708 C.2 0.0 **** 0.2428
6935 O 49.506 20.831 -4.847 O.2 0.0 **** -0.2727
6936 CB 48.414 18.9 -3.07 C.3 0.0 **** 0.0367
6937 CG 48.106 18.048 -1.853 C.3 0.0 **** 0.0239
6938 CD 46.73 18.207 -1.28 C.3 0.0 **** 0.1157
6939 NE 46.527 17.287 -0.144 N.pl3 0.0 **** 0.138
6940 CZ 45.337 16.998 0.385 C.cat 0.0 **** 0.1634
6941 NH1 44.214 17.557 -0.095 N.pl3 0.0 **** 0.2799
6942 NH2 45.256 16.147 1.399 N.pl3 0.0 **** 0.2799
6943 N 49.752 22.273 -3.165 N.am 0.0 **** -0.1765
6944 CA 50.677 23.092 -3.923 C.3 0.0 **** 0.1967
6945 C 52.044 22.418 -3.977 C.2 0.0 **** 0.2449
6946 O 52.363 21.53 -3.175 O.2 0.0 **** -0.2726
6947 CB 50.811 24.481 -3.301 C.3 0.0 **** 0.1907
6948 OG 49.601 25.215 -3.415 O.3 0.0 **** -0.1835
6949 N 52.849 22.837 -4.957 N.am 0.0 **** -0.1816
6950 CA 54.185 22.287 -5.09 C.3 0.0 **** 0.2156
6951 C 54.254 20.881 -5.653 C.2 0.0 **** 0.2396
6952 O 55.242 20.185 -5.425 O.2 0.0 **** -0.273
6953 N 53.238 20.428 -6.383 N.am 0.0 **** -0.1768
6954 CA 53.255 19.075 -6.929 C.3 0.0 **** 0.1967
6955 C 54.115 19.024 -8.185 C.2 0.0 **** 0.2451
6956 O 54.072 19.935 -9.017 O.2 0.0 **** -0.2726
6957 CB 51.848 18.608 -7.283 C.3 0.0 **** 0.1907
6958 OG 50.99 18.567 -6.17 O.3 0.0 **** -0.1835
6959 N 54.894 17.949 -8.33 N.am 0.0 **** -0.1786
6960 CA 55.656 17.731 -9.554 C.3 0.0 **** 0.171
6961 C 55.064 16.649 -10.436 C.2 0.0 **** 0.2428
6962 O 55.246 16.693 -11.666 O.2 0.0 **** -0.2727
6963 CB 57.1 17.352 -9.225 C.3 0.0 **** 0.0367
6964 CG 57.894 18.459 -8.515 C.3 0.0 **** 0.0239
6965 CD 57.966 19.74 -9.373 C.3 0.0 **** 0.1157
6966 NE 58.36 19.483 -10.77 N.pl3 0.0 **** 0.138
6967 CZ 59.617 19.479 -11.217 C.cat 0.0 **** 0.1634
6968 NH1 60.637 19.707 -10.379 N.pl3 0.0 **** 0.2799
6969 NH2 59.857 19.236 -12.499 N.pl3 0.0 **** 0.2799
6970 N 54.371 15.688 -9.835 N.am 0.0 **** -0.1765
6971 CA 53.704 14.617 -10.56 C.3 0.0 **** 0.1967
6972 C 52.493 14.169 -9.757 C.2 0.0 **** 0.2451
6973 O 52.462 14.296 -8.521 O.2 0.0 **** -0.2726
6974 CB 54.642 13.422 -10.818 C.3 0.0 **** 0.1907
6975 OG 54.952 12.748 -9.592 O.3 0.0 **** -0.1835
6976 N 51.49 13.655 -10.468 N.am 0.0 **** -0.1789
6977 CA 50.25 13.192 -9.864 C.3 0.0 **** 0.1678
6978 C 49.736 11.991 -10.65 C.2 0.0 **** 0.2425
6979 O 49.972 11.873 -11.849 O.2 0.0 **** -0.2727
6980 CB 49.196 14.302 -9.832 C.3 0.0 **** 0.0414
6981 N 49.023 11.102 -9.964 N.am 0.0 **** -0.179
6982 CA 48.454 9.922 -10.596 C.3 0.0 **** 0.1678
6983 C 47.063 9.717 -10.022 C.2 0.0 **** 0.2425
6984 O 46.906 9.585 -8.801 O.2 0.0 **** -0.2727
6985 CB 49.327 8.688 -10.366 C.3 0.0 **** 0.0414
6986 N 46.06 9.728 -10.896 N.am 0.0 **** -0.1787
6987 CA 44.686 9.445 -10.517 C.3 0.0 **** 0.1712
6988 C 44.331 8.056 -11.01 C.2 0.0 **** 0.2428
6989 O 44.545 7.736 -12.18 O.2 0.0 **** -0.2727
6990 CB 43.708 10.456 -11.112 C.3 0.0 **** 0.0378
6991 CG 43.53 11.813 -10.416 C.3 0.0 **** -0.0149
6992 CD1 44.794 12.641 -10.469 C.3 0.0 **** 0.0072
6993 CD2 42.381 12.528 -11.102 C.3 0.0 **** 0.0072
6994 N 43.777 7.249 -10.123 N.am 0.0 **** -0.1786
6995 CA 43.333 5.907 -10.453 C.3 0.0 **** 0.1714
6996 C 41.827 5.964 -10.655 C.2 0.0 **** 0.2428
6997 O 41.069 6.118 -9.69 O.2 0.0 **** -0.2727
6998 CB 43.714 4.91 -9.36 C.3 0.0 **** 0.0447
6999 CG 43.489 3.481 -9.789 C.3 0.0 **** 0.1022
7000 CD 44.171 2.491 -8.892 C.2 0.0 **** 0.217
7001 OE1 45.13 2.819 -8.194 O.2 0.0 **** -0.2753
7002 NE2 43.691 1.243 -8.923 N.am 0.0 **** -0.0515
7003 N 41.403 5.877 -11.913 N.am 0.0 **** -0.1786
7004 CA 39.99 5.887 -12.286 C.3 0.0 **** 0.1712
7005 C 39.666 4.477 -12.755 C.2 0.0 **** 0.2425
7006 O 39.747 4.178 -13.945 O.2 0.0 **** -0.2727
7007 CB 39.688 6.892 -13.384 C.3 0.0 **** 0.0378
7008 CG 40.274 8.283 -13.23 C.3 0.0 **** -0.0149
7009 CD1 41.514 8.418 -14.105 C.3 0.0 **** 0.0072
7010 CD2 39.227 9.328 -13.586 C.3 0.0 **** 0.0072
7011 N 39.31 3.613 -11.808 N.am 0.0 **** -0.1817
7012 CA 39.017 2.229 -12.109 C.3 0.0 **** 0.2156
7013 C 40.233 1.481 -12.603 C.2 0.0 **** 0.2394
7014 O 41.193 1.264 -11.853 O.2 0.0 **** -0.273
7015 N 40.203 1.095 -13.873 N.am 0.0 **** -0.1819
7016 CA 41.254 0.274 -14.431 C.3 0.0 **** 0.2156
7017 C 42.419 1.077 -14.957 C.2 0.0 **** 0.2396
7018 O 43.499 0.524 -15.171 O.2 0.0 **** -0.273
7019 N 42.226 2.374 -15.169 N.am 0.0 **** -0.1789
7020 CA 43.274 3.207 -15.735 C.3 0.0 **** 0.171
7021 C 43.902 4.098 -14.67 C.2 0.0 **** 0.2428
7022 O 43.306 4.365 -13.622 O.2 0.0 **** -0.2727
7023 CB 42.725 4.07 -16.868 C.3 0.0 **** 0.0367
7024 CG 42.093 3.266 -18.002 C.3 0.0 **** 0.0239
7025 CD 41.818 4.135 -19.222 C.3 0.0 **** 0.1157
7026 NE 41.329 3.339 -20.343 N.pl3 0.0 **** 0.138
7027 CZ 40.071 2.931 -20.472 C.cat 0.0 **** 0.1634
7028 NH1 39.175 3.249 -19.538 N.pl3 0.0 **** 0.2799
7029 NH2 39.704 2.207 -21.531 N.pl3 0.0 **** 0.2799
7030 N 45.124 4.552 -14.953 N.am 0.0 **** -0.1763
7031 CA 45.803 5.544 -14.134 C.3 0.0 **** 0.1996
7032 C 46.201 6.705 -15.031 C.2 0.0 **** 0.2454
7033 O 46.901 6.507 -16.031 O.2 0.0 **** -0.2726
7034 CB 47.032 4.958 -13.438 C.3 0.0 **** 0.1429
7035 OG1 46.636 3.842 -12.636 O.3 0.0 **** -0.1801
7036 CG2 47.69 6.016 -12.544 C.3 0.0 **** 0.0409
7037 N 45.737 7.904 -14.683 N.am 0.0 **** -0.1786
7038 CA 46.075 9.124 -15.392 C.3 0.0 **** 0.1712
7039 C 47.205 9.833 -14.653 C.2 0.0 **** 0.2428
7040 O 47.052 10.201 -13.484 O.2 0.0 **** -0.2727
7041 CB 44.847 10.026 -15.501 C.3 0.0 **** 0.0378
7042 CG 45.112 11.471 -15.925 C.3 0.0 **** -0.0149
7043 CD1 45.687 11.533 -17.339 C.3 0.0 **** 0.0072
7044 CD2 43.836 12.262 -15.829 C.3 0.0 **** 0.0072
7045 N 48.318 10.053 -15.341 N.am 0.0 **** -0.1786
7046 CA 49.485 10.693 -14.752 C.3 0.0 **** 0.1714
7047 C 49.7 12.07 -15.373 C.2 0.0 **** 0.2428
7048 O 49.558 12.237 -16.592 O.2 0.0 **** -0.2727
7049 CB 50.725 9.823 -14.956 C.3 0.0 **** 0.0434
7050 CG 50.589 8.429 -14.38 C.3 0.0 **** 0.0873
7051 CD 51.751 7.532 -14.757 C.2 0.0 **** 0.1859
7052 OE1 52.487 7.863 -15.713 O.co2 0.0 **** -0.6397
7053 OE2 51.931 6.495 -14.088 O.co2 0.0 **** -0.6397
7054 N 50.034 13.046 -14.525 N.am 0.0 **** -0.1784
7055 CA 50.321 14.424 -14.915 C.3 0.0 **** 0.1738
7056 C 51.683 14.81 -14.351 C.2 0.0 **** 0.243
7057 O 51.94 14.614 -13.154 O.2 0.0 **** -0.2727
7058 CB 49.261 15.407 -14.382 C.3 0.0 **** 0.0176
7059 CG1 47.861 14.987 -14.806 C.3 0.0 **** 0.0024
7060 CG2 49.571 16.838 -14.818 C.3 0.0 **** 0.0102
7061 CD1 47.16 14.162 -13.756 C.3 0.0 **** 0.0041
7062 N 52.524 15.412 -15.185 N.am 0.0 **** -0.1778
7063 CA 53.807 15.951 -14.765 C.3 0.0 **** 0.1806
7064 C 53.973 17.366 -15.281 C.2 0.0 **** 0.2434
7065 O 53.405 17.752 -16.308 O.2 0.0 **** -0.2727
7066 CB 54.987 15.124 -15.274 C.3 0.0 **** 0.1006
7067 SG 55.057 13.509 -14.586 S.3 0.0 **** -0.0744
7068 N 54.761 18.138 -14.548 N.am 0.0 **** -0.1817
7069 CA 55.041 19.498 -14.949 C.3 0.0 **** 0.2156
7070 C 55.957 20.152 -13.948 C.2 0.0 **** 0.2396
7071 O 56.268 19.601 -12.88 O.2 0.0 **** -0.273
7072 N 56.39 21.353 -14.311 N.am 0.0 **** -0.1784
7073 CA 56.941 22.221 -13.31 C.3 0.0 **** 0.1791
7074 C 55.862 22.408 -12.259 C.2 0.0 **** 0.2458
7075 O 54.692 22.101 -12.51 O.2 0.0 **** -0.2724
7076 CB 57.381 23.546 -13.931 C.3 0.0 **** 0.1195
7077 CG 58.762 23.453 -14.58 C.2 0.0 **** 0.1884
7078 OD1 59.408 22.395 -14.444 O.co2 0.0 **** -0.6396
7079 OD2 59.207 24.425 -15.22 O.co2 0.0 **** -0.6396
7080 N 56.231 22.878 -11.075 N.am 0.0 **** -0.3289
7081 CA 55.3 22.857 -9.944 C.3 0.0 **** 0.1741
7082 C 53.888 23.289 -10.305 C.2 0.0 **** 0.243
7083 O 53.682 24.285 -11.006 O.2 0.0 **** -0.2727
7084 CB 55.946 23.83 -8.951 C.3 0.0 **** 0.037
7085 CG 57.409 23.691 -9.209 C.3 0.0 **** 0.0242
7086 CD 57.535 23.447 -10.708 C.3 0.0 **** 0.1203
7087 N 52.912 22.52 -9.837 N.am 0.0 **** -0.1783
7088 CA 51.511 22.856 -9.998 C.3 0.0 **** 0.1753
7089 C 50.783 22.459 -8.723 C.2 0.0 **** 0.2431
7090 O 51.234 21.583 -7.978 O.2 0.0 **** -0.2727
7091 CB 50.906 22.148 -11.223 C.3 0.0 **** 0.0702
7092 CG 50.956 20.638 -11.159 C.ar 0.0 **** -0.0454
7093 CD1 52.06 19.938 -11.646 C.ar 0.0 **** 0.0036
7094 CD2 49.895 19.91 -10.628 C.ar 0.0 **** 0.0036
7095 CE1 52.106 18.554 -11.619 C.ar 0.0 **** 0.0003
7096 CE2 49.938 18.51 -10.611 C.ar 0.0 **** 0.0003
7097 CZ 51.053 17.837 -11.103 C.ar 0.0 **** 0.0
7098 N 49.656 23.108 -8.464 N.am 0.0 **** -0.1789
7099 CA 48.802 22.667 -7.38 C.3 0.0 **** 0.1678
7100 C 47.798 21.663 -7.919 C.2 0.0 **** 0.2425
7101 O 47.283 21.817 -9.036 O.2 0.0 **** -0.2727
7102 CB 48.07 23.828 -6.73 C.3 0.0 **** 0.0414
7103 N 47.52 20.642 -7.11 N.am 0.0 **** -0.1787
7104 CA 46.66 19.522 -7.471 C.3 0.0 **** 0.1712
7105 C 45.456 19.505 -6.543 C.2 0.0 **** 0.2428
7106 O 45.616 19.519 -5.32 O.2 0.0 **** -0.2727
7107 CB 47.42 18.206 -7.321 C.3 0.0 **** 0.0378
7108 CG 46.634 16.903 -7.382 C.3 0.0 **** -0.0149
7109 CD1 46.202 16.633 -8.84 C.3 0.0 **** 0.0072
7110 CD2 47.485 15.73 -6.844 C.3 0.0 **** 0.0072
7111 N 44.262 19.435 -7.124 N.am 0.0 **** -0.1763
7112 CA 43.046 19.19 -6.368 C.3 0.0 **** 0.1996
7113 C 42.21 18.176 -7.134 C.2 0.0 **** 0.2454
7114 O 42.143 18.217 -8.37 O.2 0.0 **** -0.2726
7115 CB 42.219 20.458 -6.159 C.3 0.0 **** 0.1429
7116 OG1 43.051 21.537 -5.755 O.3 0.0 **** -0.1801
7117 CG2 41.127 20.238 -5.13 C.3 0.0 **** 0.0409
7118 N 41.546 17.287 -6.405 N.am 0.0 **** -0.1783
7119 CA 40.679 16.292 -7.013 C.3 0.0 **** 0.1735
7120 C 39.447 16.161 -6.141 C.2 0.0 **** 0.243
7121 O 39.564 15.941 -4.93 O.2 0.0 **** -0.2727
7122 CB 41.356 14.918 -7.174 C.3 0.0 **** 0.0147
7123 CG1 40.426 13.969 -7.958 C.3 0.0 **** 0.0099
7124 CG2 42.714 15.046 -7.876 C.3 0.0 **** 0.0099
7125 N 38.271 16.265 -6.76 N.am 0.0 **** -0.1786
7126 CA 36.994 16.259 -6.063 C.3 0.0 **** 0.1712
7127 C 35.974 15.439 -6.834 C.2 0.0 **** 0.2453
7128 O 36.052 15.334 -8.067 O.2 0.0 **** -0.2724
7129 CB 36.43 17.681 -5.873 C.3 0.0 **** 0.0367
7130 CG 37.333 18.626 -5.089 C.3 0.0 **** 0.0239
7131 CD 36.549 19.725 -4.461 C.3 0.0 **** 0.1157
7132 NE 37.433 20.738 -3.894 N.pl3 0.0 **** 0.138
7133 CZ 37.776 21.875 -4.491 C.cat 0.0 **** 0.1634
7134 NH1 37.304 22.187 -5.704 N.pl3 0.0 **** 0.2799
7135 NH2 38.601 22.704 -3.87 N.pl3 0.0 **** 0.2799
7136 N 35.01 14.843 -6.135 N.am 0.0 **** -0.3289
7137 CA 33.887 14.177 -6.81 C.3 0.0 **** 0.1741
7138 C 32.669 15.058 -7.059 C.2 0.0 **** 0.243
7139 O 31.613 14.522 -7.419 O.2 0.0 **** -0.2727
7140 CB 33.539 13.057 -5.828 C.3 0.0 **** 0.037
7141 CG 33.867 13.655 -4.443 C.3 0.0 **** 0.0242
7142 CD 35.0 14.629 -4.669 C.3 0.0 **** 0.1203
7143 N 32.786 16.375 -6.882 N.am 0.0 **** -0.1783
7144 CA 31.699 17.302 -7.166 C.3 0.0 **** 0.1753
7145 C 32.329 18.577 -7.703 C.2 0.0 **** 0.2432
7146 O 33.532 18.816 -7.533 O.2 0.0 **** -0.2727
7147 CB 30.843 17.587 -5.908 C.3 0.0 **** 0.0702
7148 CG 31.699 17.935 -4.708 C.ar 0.0 **** -0.0452
7149 CD1 32.258 19.198 -4.587 C.ar 0.0 **** 0.0063
7150 CD2 31.98 16.99 -3.732 C.ar 0.0 **** 0.0063
7151 CE1 33.072 19.527 -3.503 C.ar 0.0 **** 0.0332
7152 CE2 32.805 17.305 -2.645 C.ar 0.0 **** 0.0332
7153 CZ 33.334 18.574 -2.545 C.ar 0.0 **** 0.0713
7154 OH 34.146 18.881 -1.485 O.3 0.0 **** -0.1427
7155 N 31.498 19.405 -8.336 N.am 0.0 **** -0.1765
7156 CA 31.915 20.632 -8.992 C.3 0.0 **** 0.1967
7157 C 32.16 21.77 -7.998 C.2 0.0 **** 0.2451
7158 O 31.776 21.716 -6.826 O.2 0.0 **** -0.2726
7159 CB 30.841 21.093 -9.979 C.3 0.0 **** 0.1907
7160 OG 29.748 21.704 -9.294 O.3 0.0 **** -0.1835
7161 N 32.771 22.847 -8.506 N.am 0.0 **** -0.1786
7162 CA 32.981 24.037 -7.691 C.3 0.0 **** 0.1714
7163 C 31.666 24.723 -7.339 C.2 0.0 **** 0.2428
7164 O 31.565 25.383 -6.294 O.2 0.0 **** -0.2727
7165 CB 33.881 25.038 -8.419 C.3 0.0 **** 0.0447
7166 CG 35.308 24.581 -8.639 C.3 0.0 **** 0.1022
7167 CD 36.254 25.743 -8.85 C.2 0.0 **** 0.217
7168 OE1 37.068 26.05 -7.986 O.2 0.0 **** -0.2753
7169 NE2 36.159 26.391 -10.016 N.am 0.0 **** -0.0515
7170 N 30.663 24.639 -8.225 N.am 0.0 **** -0.1782
7171 CA 29.401 25.3 -7.937 C.3 0.0 **** 0.1789
7172 C 28.651 24.564 -6.834 C.2 0.0 **** 0.2432
7173 O 27.99 25.188 -6.001 O.2 0.0 **** -0.2727
7174 CB 28.56 25.403 -9.209 C.3 0.0 **** 0.1195
7175 CG 29.164 26.381 -10.24 C.2 0.0 **** 0.1884
7176 OD1 29.886 27.334 -9.864 O.co2 0.0 **** -0.6396
7177 OD2 28.925 26.191 -11.435 O.co2 0.0 **** -0.6396
7178 N 28.763 23.237 -6.801 N.am 0.0 **** -0.1784
7179 CA 28.214 22.467 -5.681 C.3 0.0 **** 0.1735
7180 C 28.929 22.839 -4.384 C.2 0.0 **** 0.243
7181 O 28.3 22.987 -3.331 O.2 0.0 **** -0.2727
7182 CB 28.317 20.958 -5.975 C.3 0.0 **** 0.0147
7183 CG1 27.956 20.111 -4.756 C.3 0.0 **** 0.0099
7184 CG2 27.382 20.599 -7.111 C.3 0.0 **** 0.0099
7185 N 30.256 22.98 -4.445 N.am 0.0 **** -0.1786
7186 CA 31.036 23.34 -3.266 C.3 0.0 **** 0.1712
7187 C 30.642 24.717 -2.756 C.2 0.0 **** 0.2428
7188 O 30.452 24.917 -1.549 O.2 0.0 **** -0.2727
7189 CB 32.531 23.309 -3.598 C.3 0.0 **** 0.0378
7190 CG 33.493 23.628 -2.442 C.3 0.0 **** -0.0149
7191 CD1 33.283 22.692 -1.24 C.3 0.0 **** 0.0072
7192 CD2 34.952 23.526 -2.92 C.3 0.0 **** 0.0072
7193 N 30.519 25.681 -3.667 N.am 0.0 **** -0.1782
7194 CA 30.172 27.04 -3.27 C.3 0.0 **** 0.1789
7195 C 28.751 27.124 -2.726 C.2 0.0 **** 0.2432
7196 O 28.49 27.843 -1.752 O.2 0.0 **** -0.2727
7197 CB 30.334 27.988 -4.446 C.3 0.0 **** 0.1195
7198 CG 30.303 29.449 -4.007 C.2 0.0 **** 0.1884
7199 OD1 30.705 29.727 -2.843 O.co2 0.0 **** -0.6396
7200 OD2 29.868 30.302 -4.826 O.co2 0.0 **** -0.6396
7201 N 27.817 26.401 -3.335 N.am 0.0 **** -0.1789
7202 CA 26.432 26.458 -2.887 C.3 0.0 **** 0.1678
7203 C 26.202 25.787 -1.538 C.2 0.0 **** 0.2425
7204 O 25.237 26.127 -0.85 O.2 0.0 **** -0.2727
7205 CB 25.527 25.796 -3.915 C.3 0.0 **** 0.0414
7206 N 27.036 24.831 -1.166 N.am 0.0 **** -0.179
7207 CA 26.809 24.055 0.045 C.3 0.0 **** 0.1678
7208 C 27.055 24.901 1.293 C.2 0.0 **** 0.2425
7209 O 28.117 25.513 1.445 O.2 0.0 **** -0.2727
7210 CB 27.728 22.837 0.038 C.3 0.0 **** 0.0414
7211 N 26.069 24.934 2.189 N.am 0.0 **** -0.179
7212 CA 26.219 25.597 3.484 C.3 0.0 **** 0.1678
7213 C 26.656 24.642 4.589 C.2 0.0 **** 0.2425
7214 O 27.268 25.077 5.583 O.2 0.0 **** -0.2727
7215 CB 24.904 26.272 3.867 C.3 0.0 **** 0.0414
7216 N 26.352 23.356 4.443 N.am 0.0 **** -0.1783
7217 CA 26.798 22.32 5.353 C.3 0.0 **** 0.1769
7218 C 27.268 21.128 4.541 C.2 0.0 **** 0.2432
7219 O 26.983 21.018 3.347 O.2 0.0 **** -0.2727
7220 CB 25.678 21.88 6.307 C.3 0.0 **** 0.0902
7221 CG 25.166 22.987 7.179 C.2 0.0 **** 0.037
7222 ND1 24.228 23.897 6.745 N.pl3 0.0 **** -0.1813
7223 CD2 25.475 23.337 8.455 C.2 0.0 **** 0.1339
7224 CE1 23.976 24.758 7.718 C.2 0.0 **** 0.1962
7225 NE2 24.723 24.444 8.763 N.2 0.0 **** -0.2451
7226 N 27.999 20.245 5.21 N.am 0.0 **** -0.1786
7227 CA 28.656 19.124 4.508 C.3 0.0 **** 0.1712
7228 C 27.635 18.216 3.838 C.2 0.0 **** 0.2453
7229 O 27.937 17.714 2.796 O.2 0.0 **** -0.2724
7230 CB 29.659 18.391 5.395 C.3 0.0 **** 0.0367
7231 CG 30.776 19.295 5.881 C.3 0.0 **** 0.0239
7232 CD 32.116 18.634 6.041 C.3 0.0 **** 0.1157
7233 NE 32.664 18.176 4.79 N.pl3 0.0 **** 0.138
7234 CZ 33.255 18.939 3.909 C.cat 0.0 **** 0.1634
7235 NH1 33.39 20.232 4.134 N.pl3 0.0 **** 0.2799
7236 NH2 33.726 18.406 2.81 N.pl3 0.0 **** 0.2799
7237 N 26.483 17.914 4.438 N.am 0.0 **** -0.3289
7238 CA 25.498 17.059 3.744 C.3 0.0 **** 0.1741
7239 C 25.021 17.624 2.427 C.2 0.0 **** 0.243
7240 O 24.446 16.875 1.63 O.2 0.0 **** -0.2727
7241 CB 24.354 16.953 4.755 C.3 0.0 **** 0.037
7242 CG 25.04 17.084 6.093 C.3 0.0 **** 0.0242
7243 CD 26.102 18.143 5.844 C.3 0.0 **** 0.1203
7244 N 25.24 18.914 2.163 N.am 0.0 **** -0.1782
7245 CA 24.878 19.493 0.879 C.3 0.0 **** 0.1789
7246 C 25.793 19.036 -0.252 C.2 0.0 **** 0.2432
7247 O 25.475 19.276 -1.422 O.2 0.0 **** -0.2727
7248 CB 24.913 21.025 0.952 C.3 0.0 **** 0.1195
7249 CG 23.901 21.591 1.922 C.2 0.0 **** 0.1884
7250 OD1 22.864 20.94 2.128 O.co2 0.0 **** -0.6396
7251 OD2 24.137 22.691 2.475 O.co2 0.0 **** -0.6396
7252 N 26.923 18.424 0.06 N.am 0.0 **** -0.1786
7253 CA 27.835 17.952 -0.967 C.3 0.0 **** 0.1712
7254 C 27.394 16.582 -1.449 C.2 0.0 **** 0.2428
7255 O 27.043 15.71 -0.647 O.2 0.0 **** -0.2727
7256 CB 29.262 17.883 -0.432 C.3 0.0 **** 0.0378
7257 CG 29.844 19.197 0.075 C.3 0.0 **** -0.0149
7258 CD1 31.18 18.901 0.78 C.3 0.0 **** 0.0072
7259 CD2 30.041 20.243 -1.027 C.3 0.0 **** 0.0072
7260 N 27.413 16.396 -2.765 N.am 0.0 **** -0.1787
7261 CA 26.963 15.157 -3.396 C.3 0.0 **** 0.1709
7262 C 27.9 14.821 -4.543 C.2 0.0 **** 0.2427
7263 O 28.24 15.698 -5.338 O.2 0.0 **** -0.2727
7264 CB 25.524 15.292 -3.928 C.3 0.0 **** 0.035
7265 CG 24.466 15.548 -2.86 C.3 0.0 **** 0.0062
7266 CD 24.209 14.302 -1.999 C.3 0.0 **** 0.0387
7267 CE 23.913 14.672 -0.532 C.3 0.0 **** 0.1659
7268 NZ 24.112 13.52 0.417 N.4 0.0 **** 0.7918
7269 N 28.311 13.562 -4.635 N.am 0.0 **** -0.179
7270 CA 29.11 13.123 -5.769 C.3 0.0 **** 0.1678
7271 C 28.199 12.908 -6.968 C.2 0.0 **** 0.2425
7272 O 27.054 12.469 -6.819 O.2 0.0 **** -0.2727
7273 CB 29.856 11.831 -5.441 C.3 0.0 **** 0.0414
7274 N 28.697 13.224 -8.162 N.am 0.0 **** -0.1782
7275 CA 27.886 13.099 -9.37 C.3 0.0 **** 0.1789
7276 C 28.422 12.058 -10.35 C.2 0.0 **** 0.243
7277 O 27.98 12.03 -11.507 O.2 0.0 **** -0.2727
7278 CB 27.763 14.458 -10.058 C.3 0.0 **** 0.1195
7279 CG 29.088 14.986 -10.547 C.2 0.0 **** 0.1884
7280 OD1 30.109 14.3 -10.347 O.co2 0.0 **** -0.6396
7281 OD2 29.105 16.088 -11.137 O.co2 0.0 **** -0.6396
7282 N 29.357 11.214 -9.928 N.am 0.0 **** -0.1817
7283 CA 29.924 10.208 -10.797 C.3 0.0 **** 0.2156
7284 C 31.105 10.667 -11.617 C.2 0.0 **** 0.2396
7285 O 31.696 9.851 -12.329 O.2 0.0 **** -0.273
7286 N 31.485 11.932 -11.529 N.am 0.0 **** -0.1789
7287 CA 32.604 12.454 -12.292 C.3 0.0 **** 0.171
7288 C 33.815 12.647 -11.391 C.2 0.0 **** 0.2428
7289 O 33.76 12.443 -10.166 O.2 0.0 **** -0.2727
7290 CB 32.216 13.767 -12.961 C.3 0.0 **** 0.0367
7291 CG 30.994 13.633 -13.84 C.3 0.0 **** 0.0239
7292 CD 30.472 14.981 -14.275 C.3 0.0 **** 0.1157
7293 NE 29.46 14.839 -15.327 N.pl3 0.0 **** 0.138
7294 CZ 28.18 14.53 -15.118 C.cat 0.0 **** 0.1634
7295 NH1 27.725 14.324 -13.887 N.pl3 0.0 **** 0.2799
7296 NH2 27.346 14.427 -16.144 N.pl3 0.0 **** 0.2799
7297 N 34.921 13.049 -12.018 N.am 0.0 **** -0.1763
7298 CA 36.098 13.542 -11.313 C.3 0.0 **** 0.1996
7299 C 36.37 14.97 -11.763 C.2 0.0 **** 0.2454
7300 O 36.447 15.251 -12.966 O.2 0.0 **** -0.2726
7301 CB 37.325 12.663 -11.575 C.3 0.0 **** 0.1429
7302 OG1 37.058 11.336 -11.132 O.3 0.0 **** -0.1801
7303 CG2 38.541 13.201 -10.839 C.3 0.0 **** 0.0409
7304 N 36.498 15.877 -10.797 N.am 0.0 **** -0.1782
7305 CA 36.912 17.238 -11.074 C.3 0.0 **** 0.1753
7306 C 38.386 17.361 -10.694 C.2 0.0 **** 0.2431
7307 O 38.746 17.256 -9.512 O.2 0.0 **** -0.2727
7308 CB 36.025 18.209 -10.312 C.3 0.0 **** 0.0702
7309 CG 34.594 18.09 -10.784 C.ar 0.0 **** -0.0452
7310 CD1 33.782 17.073 -10.323 C.ar 0.0 **** 0.0063
7311 CD2 34.073 18.978 -11.715 C.ar 0.0 **** 0.0063
7312 CE1 32.482 16.938 -10.77 C.ar 0.0 **** 0.0332
7313 CE2 32.766 18.866 -12.169 C.ar 0.0 **** 0.0332
7314 CZ 31.976 17.84 -11.694 C.ar 0.0 **** 0.0713
7315 OH 30.681 17.699 -12.147 O.3 0.0 **** -0.1427
7316 N 39.237 17.546 -11.704 N.am 0.0 **** -0.1786
7317 CA 40.685 17.591 -11.53 C.3 0.0 **** 0.1712
7318 C 41.166 19.004 -11.819 C.2 0.0 **** 0.2428
7319 O 40.966 19.516 -12.932 O.2 0.0 **** -0.2727
7320 CB 41.375 16.582 -12.454 C.3 0.0 **** 0.0378
7321 CG 42.874 16.801 -12.68 C.3 0.0 **** -0.0149
7322 CD1 43.662 16.569 -11.392 C.3 0.0 **** 0.0072
7323 CD2 43.396 15.889 -13.742 C.3 0.0 **** 0.0072
7324 N 41.829 19.611 -10.84 N.am 0.0 **** -0.1783
7325 CA 42.346 20.971 -10.944 C.3 0.0 **** 0.1753
7326 C 43.864 20.904 -10.963 C.2 0.0 **** 0.2431
7327 O 44.474 20.323 -10.052 O.2 0.0 **** -0.2727
7328 CB 41.853 21.853 -9.795 C.3 0.0 **** 0.0702
7329 CG 40.351 21.874 -9.809 C.ar 0.0 **** -0.0452
7330 CD1 39.623 20.878 -9.166 C.ar 0.0 **** 0.0063
7331 CD2 39.644 22.849 -10.525 C.ar 0.0 **** 0.0063
7332 CE1 38.234 20.859 -9.204 C.ar 0.0 **** 0.0332
7333 CE2 38.239 22.823 -10.565 C.ar 0.0 **** 0.0332
7334 CZ 37.56 21.814 -9.918 C.ar 0.0 **** 0.0713
7335 OH 36.195 21.736 -9.997 O.3 0.0 **** -0.1427
7336 N 44.456 21.467 -12.015 N.am 0.0 **** -0.1784
7337 CA 45.894 21.629 -12.136 C.3 0.0 **** 0.1735
7338 C 46.157 23.123 -12.267 C.2 0.0 **** 0.243
7339 O 45.79 23.734 -13.281 O.2 0.0 **** -0.2727
7340 CB 46.434 20.848 -13.333 C.3 0.0 **** 0.0147
7341 CG1 47.925 21.013 -13.475 C.3 0.0 **** 0.0099
7342 CG2 46.087 19.373 -13.154 C.3 0.0 **** 0.0099
7343 N 46.769 23.719 -11.245 N.am 0.0 **** -0.1782
7344 CA 46.972 25.164 -11.199 C.3 0.0 **** 0.1789
7345 C 48.443 25.519 -11.359 C.2 0.0 **** 0.2432
7346 O 49.312 25.022 -10.624 O.2 0.0 **** -0.2727
7347 CB 46.449 25.766 -9.903 C.3 0.0 **** 0.1195
7348 CG 44.972 25.55 -9.724 C.2 0.0 **** 0.1884
7349 OD1 44.179 26.089 -10.529 O.co2 0.0 **** -0.6396
7350 OD2 44.62 24.827 -8.772 O.co2 0.0 **** -0.6396
7351 N 48.703 26.402 -12.312 N.am 0.0 **** -0.1782
7352 CA 50.02 26.974 -12.464 C.3 0.0 **** 0.1769
7353 C 50.263 28.078 -11.447 C.2 0.0 **** 0.2431
7354 O 51.405 28.323 -11.058 O.2 0.0 **** -0.2727
7355 CB 50.151 27.504 -13.893 C.3 0.0 **** 0.0902
7356 CG 51.436 28.205 -14.145 C.2 0.0 **** 0.037
7357 ND1 52.649 27.553 -14.1 N.pl3 0.0 **** -0.1813
7358 CD2 51.7 29.504 -14.424 C.2 0.0 **** 0.1339
7359 CE1 53.612 28.423 -14.357 C.2 0.0 **** 0.1962
7360 NE2 53.06 29.611 -14.558 N.2 0.0 **** -0.2451
7361 N 49.2 28.729 -10.978 N.am 0.0 **** -0.1789
7362 CA 49.309 29.78 -9.975 C.3 0.0 **** 0.1678
7363 C 48.071 29.746 -9.095 C.2 0.0 **** 0.2425
7364 O 46.976 29.46 -9.584 O.2 0.0 **** -0.2727
7365 CB 49.436 31.164 -10.629 C.3 0.0 **** 0.0414
7366 N 48.259 30.06 -7.806 N.am 0.0 **** -0.1787
7367 CA 47.193 30.205 -6.822 C.3 0.0 **** 0.1712
7368 C 47.429 31.476 -6.046 C.2 0.0 **** 0.2428
7369 O 48.573 31.883 -5.854 O.2 0.0 **** -0.2727
7370 CB 47.14 29.074 -5.762 C.3 0.0 **** 0.0378
7371 CG 46.772 27.676 -6.194 C.3 0.0 **** -0.0149
7372 CD1 46.708 26.724 -5.002 C.3 0.0 **** 0.0072
7373 CD2 45.428 27.718 -6.894 C.3 0.0 **** 0.0072
7374 N 46.359 32.087 -5.576 N.am 0.0 **** -0.1787
7375 CA 46.554 33.124 -4.578 C.3 0.0 **** 0.171
7376 C 46.609 32.501 -3.175 C.2 0.0 **** 0.2425
7377 O 46.256 31.341 -2.967 O.2 0.0 **** -0.2727
7378 CB 45.458 34.189 -4.637 C.3 0.0 **** 0.0367
7379 CG 44.15 33.732 -4.157 C.3 0.0 **** 0.0239
7380 CD 43.064 34.823 -4.345 C.3 0.0 **** 0.1157
7381 NE 43.204 35.97 -3.463 N.pl3 0.0 **** 0.138
7382 CZ 43.72 37.144 -3.798 C.cat 0.0 **** 0.1634
7383 NH1 44.163 37.329 -5.028 N.pl3 0.0 **** 0.2799
7384 NH2 43.788 38.123 -2.885 N.pl3 0.0 **** 0.2799
7385 N 47.037 33.322 -2.217 N.am 0.0 **** -0.1817
7386 CA 47.069 32.944 -0.807 C.3 0.0 **** 0.2156
7387 C 45.674 32.961 -0.218 C.2 0.0 **** 0.2396
7388 O 44.695 33.363 -0.85 O.2 0.0 **** -0.273
7389 N 45.545 32.467 1.01 N.am 0.0 **** -0.1787
7390 CA 44.242 32.464 1.653 C.3 0.0 **** 0.1735
7391 C 44.123 33.522 2.754 C.2 0.0 **** 0.2428
7392 O 42.99 33.932 3.063 O.2 0.0 **** -0.2727
7393 CB 43.858 31.063 2.181 C.3 0.0 **** 0.0147
7394 CG1 43.774 30.084 1.055 C.3 0.0 **** 0.0099
7395 CG2 44.827 30.545 3.241 C.3 0.0 **** 0.0099
7396 N 45.247 34.028 3.302 N.am 0.0 **** -0.1817
7397 CA 45.222 35.168 4.232 C.3 0.0 **** 0.2156
7398 C 44.435 34.861 5.513 C.2 0.0 **** 0.2396
7399 O 44.281 33.702 5.91 O.2 0.0 **** -0.273
7400 N 43.947 35.926 6.167 N.am 0.0 **** -0.1766
7401 CA 43.077 35.821 7.353 C.3 0.0 **** 0.1996
7402 C 42.007 36.913 7.338 C.2 0.0 **** 0.2454
7403 O 41.616 37.431 8.389 O.2 0.0 **** -0.2726
7404 CB 43.861 35.88 8.67 C.3 0.0 **** 0.1429
7405 OG1 44.71 37.036 8.734 O.3 0.0 **** -0.1801
7406 CG2 44.711 34.668 8.842 C.3 0.0 **** 0.0409
7407 N 41.468 37.229 6.148 N.am 0.0 **** -0.1789
7408 CA 40.601 38.398 6.032 C.3 0.0 **** 0.1678
7409 C 39.295 38.236 6.794 C.2 0.0 **** 0.2425
7410 O 38.623 39.232 7.017 O.2 0.0 **** -0.2727
7411 CB 40.283 38.746 4.576 C.3 0.0 **** 0.0414
7412 N 38.913 37.037 7.213 N.am 0.0 **** -0.179
7413 CA 37.696 36.959 8.015 C.3 0.0 **** 0.1678
7414 C 37.819 37.822 9.265 C.2 0.0 **** 0.2425
7415 O 36.821 38.348 9.757 O.2 0.0 **** -0.2727
7416 CB 37.385 35.51 8.388 C.3 0.0 **** 0.0414
7417 N 39.037 37.984 9.795 N.am 0.0 **** -0.1779
7418 CA 39.237 38.881 10.929 C.3 0.0 **** 0.1806
7419 C 40.741 39.13 11.02 C.2 0.0 **** 0.2434
7420 O 41.488 38.255 11.469 O.2 0.0 **** -0.2727
7421 CB 38.675 38.275 12.193 C.3 0.0 **** 0.1006
7422 SG 38.938 39.266 13.685 S.3 0.0 **** -0.0744
7423 N 41.164 40.3 10.56 N.am 0.0 **** -0.1816
7424 CA 42.571 40.62 10.513 C.3 0.0 **** 0.2159
7425 C 43.086 40.75 9.09 C.2 0.0 **** 0.2422
7426 O 42.321 40.935 8.126 O.2 0.0 **** -0.2728
7427 N 44.397 40.617 8.921 N.am 0.0 **** -0.3291
7428 CA 44.99 40.853 7.597 C.3 0.0 **** 0.1741
7429 C 44.464 39.908 6.527 C.2 0.0 **** 0.2428
7430 O 44.269 38.707 6.748 O.2 0.0 **** -0.2727
7431 CB 46.486 40.644 7.837 C.3 0.0 **** 0.037
7432 CG 46.684 40.886 9.316 C.3 0.0 **** 0.0242
7433 CD 45.4 40.475 9.997 C.3 0.0 **** 0.1203
7434 N 44.222 40.475 5.34 N.am 0.0 **** -0.1817
7435 CA 44.002 39.69 4.146 C.3 0.0 **** 0.2156
7436 C 45.309 39.095 3.636 C.2 0.0 **** 0.2396
7437 O 46.327 39.078 4.326 O.2 0.0 **** -0.273
7438 N 45.271 38.618 2.393 N.am 0.0 **** -0.1787
7439 CA 46.445 38.027 1.745 C.3 0.0 **** 0.1735
7440 C 47.542 39.067 1.626 C.2 0.0 **** 0.243
7441 O 47.307 40.182 1.158 O.2 0.0 **** -0.2727
7442 CB 46.058 37.481 0.364 C.3 0.0 **** 0.0147
7443 CG1 47.251 36.847 -0.33 C.3 0.0 **** 0.0099
7444 CG2 44.962 36.465 0.493 C.3 0.0 **** 0.0099
7445 N 48.738 38.717 2.075 N.am 0.0 **** -0.1786
7446 CA 49.868 39.615 1.945 C.3 0.0 **** 0.1712
7447 C 50.201 39.803 0.465 C.2 0.0 **** 0.2428
7448 O 49.935 38.939 -0.374 O.2 0.0 **** -0.2727
7449 CB 51.095 39.062 2.681 C.3 0.0 **** 0.0378
7450 CG 50.977 38.969 4.204 C.3 0.0 **** -0.0149
7451 CD1 52.115 38.186 4.804 C.3 0.0 **** 0.0072
7452 CD2 50.938 40.347 4.842 C.3 0.0 **** 0.0072
7453 N 50.835 40.934 0.175 N.am 0.0 **** -0.1786
7454 CA 51.061 41.354 -1.207 C.3 0.0 **** 0.1714
7455 C 51.738 40.269 -2.043 C.2 0.0 **** 0.2428
7456 O 51.356 40.027 -3.206 O.2 0.0 **** -0.2727
7457 CB 51.895 42.643 -1.2 C.3 0.0 **** 0.0434
7458 CG 52.07 43.294 -2.583 C.3 0.0 **** 0.0873
7459 CD 50.759 43.784 -3.167 C.2 0.0 **** 0.1859
7460 OE1 49.873 44.211 -2.392 O.co2 0.0 **** -0.6397
7461 OE2 50.606 43.72 -4.407 O.co2 0.0 **** -0.6397
7462 N 52.749 39.631 -1.474 N.4 0.0 **** -0.1786
7463 CA 53.52 38.636 -2.211 C.3 0.0 **** 0.1714
7464 C 52.693 37.423 -2.617 C.2 0.0 **** 0.2428
7465 O 53.133 36.661 -3.484 O.2 0.0 **** -0.2727
7466 CB 54.725 38.179 -1.378 C.3 0.0 **** 0.0447
7467 CG 54.413 37.675 0.053 C.3 0.0 **** 0.1022
7468 CD 54.567 38.767 1.141 C.2 0.0 **** 0.217
7469 OE1 54.149 39.926 0.954 O.2 0.0 **** -0.2753
7470 NE2 55.182 38.393 2.279 N.am 0.0 **** -0.0515
7471 CA 53.540001 38.584 -2.131 C.3 0.0 **** 0.0
7472 CB 54.605 38.028 -1.16 C.3 0.0 **** 0.0
7473 CG 55.011002 36.554001 -1.426 C.3 0.0 **** 0.0
7474 CD 56.057999 35.993999 -0.482 C.2 0.0 **** 0.0
7475 OE1 56.407001 36.596001 0.531 O.2 0.0 **** 0.0
7476 NE2 56.560001 34.818001 -0.815 N.am 0.0 **** 0.0
7477 N 51.516 37.225 -2.032 N.am 0.0 **** -0.1783
7478 CA 50.698 36.072 -2.347 C.3 0.0 **** 0.1753
7479 C 49.424 36.437 -3.088 C.2 0.0 **** 0.2431
7480 O 48.602 35.556 -3.352 O.2 0.0 **** -0.2727
7481 CB 50.345 35.323 -1.069 C.3 0.0 **** 0.0702
7482 CG 51.484 34.928 -0.152 C.ar 0.0 **** -0.0452
7483 CD1 52.358 33.902 -0.483 C.ar 0.0 **** 0.0063
7484 CD2 51.624 35.517 1.09 C.ar 0.0 **** 0.0063
7485 CE1 53.373 33.52 0.371 C.ar 0.0 **** 0.0332
7486 CE2 52.633 35.13 1.943 C.ar 0.0 **** 0.0332
7487 CZ 53.498 34.144 1.591 C.ar 0.0 **** 0.0713
7488 OH 54.474 33.76 2.492 O.3 0.0 **** -0.1427
7489 N 49.243 37.7 -3.419 N.am 0.0 **** -0.1786
7490 CA 48.069 38.134 -4.21 C.3 0.0 **** 0.171
7491 C 48.288 37.688 -5.651 C.2 0.0 **** 0.2427
7492 O 49.412 37.456 -6.032 O.2 0.0 **** -0.2727
7493 CB 47.822 39.63 -4.072 C.3 0.0 **** 0.0367
7494 CG 47.553 40.05 -2.64 C.3 0.0 **** 0.0239
7495 CD 47.063 41.465 -2.491 C.3 0.0 **** 0.1157
7496 NE 45.63 41.564 -2.706 N.pl3 0.0 **** 0.138
7497 CZ 44.696 41.42 -1.776 C.cat 0.0 **** 0.1634
7498 NH1 43.427 41.542 -2.108 N.pl3 0.0 **** 0.2799
7499 NH2 45.01 41.175 -0.521 N.pl3 0.0 **** 0.2799
7500 N 47.221 37.516 -6.407 N.am 0.0 **** -0.1786
7501 CA 47.307 37.056 -7.796 C.3 0.0 **** 0.1712
7502 C 46.532 38.054 -8.647 C.2 0.0 **** 0.2428
7503 O 45.307 37.961 -8.777 O.2 0.0 **** -0.2727
7504 CB 46.775 35.628 -7.963 C.3 0.0 **** 0.0378
7505 CG 46.891 35.012 -9.356 C.3 0.0 **** -0.0149
7506 CD1 48.343 35.016 -9.861 C.3 0.0 **** 0.0072
7507 CD2 46.342 33.574 -9.337 C.3 0.0 **** 0.0072
7508 N 47.232 38.996 -9.184 N.am 0.0 **** -0.1786
7509 CA 46.694 39.983 -10.1 C.3 0.0 **** 0.1712
7510 C 46.723 39.442 -11.532 C.2 0.0 **** 0.2453
7511 O 47.579 38.628 -11.87 O.2 0.0 **** -0.2724
7512 CB 47.5 41.276 -10.01 C.3 0.0 **** 0.0351
7513 CG 47.329 42.013 -8.678 C.3 0.0 **** 0.0062
7514 CD 48.055 43.356 -8.664 C.3 0.0 **** 0.0387
7515 CE 47.637 44.21 -7.439 C.3 0.0 **** 0.1659
7516 NZ 47.913 43.527 -6.135 N.4 0.0 **** 0.7918
7517 N 45.765 39.837 -12.369 N.am 0.0 **** -0.3289
7518 CA 45.755 39.375 -13.761 C.3 0.0 **** 0.1741
7519 C 47.094 39.58 -14.454 C.2 0.0 **** 0.243
7520 O 47.74 40.626 -14.31 O.2 0.0 **** -0.2727
7521 CB 44.662 40.223 -14.399 C.3 0.0 **** 0.037
7522 CG 43.733 40.53 -13.256 C.3 0.0 **** 0.0242
7523 CD 44.632 40.728 -12.075 C.3 0.0 **** 0.1203
7524 N 47.527 38.549 -15.175 N.am 0.0 **** -0.1787
7525 CA 48.79 38.585 -15.889 C.3 0.0 **** 0.171
7526 C 48.727 37.597 -17.045 C.2 0.0 **** 0.2428
7527 O 47.856 36.724 -17.097 O.2 0.0 **** -0.2727
7528 CB 49.964 38.251 -14.98 C.3 0.0 **** 0.0367
7529 CG 49.973 36.836 -14.419 C.3 0.0 **** 0.0239
7530 CD 51.42 36.446 -14.089 C.3 0.0 **** 0.1157
7531 NE 51.543 35.142 -13.45 N.pl3 0.0 **** 0.138
7532 CZ 51.389 34.93 -12.148 C.cat 0.0 **** 0.1634
7533 NH1 51.097 35.932 -11.324 N.pl3 0.0 **** 0.2799
7534 NH2 51.53 33.705 -11.664 N.pl3 0.0 **** 0.2799
7535 N 49.668 37.742 -17.963 N.am 0.0 **** -0.1782
7536 CA 49.847 36.753 -19.015 C.3 0.0 **** 0.1789
7537 C 50.722 35.621 -18.484 C.2 0.0 **** 0.2432
7538 O 51.532 35.814 -17.57 O.2 0.0 **** -0.2727
7539 CB 50.435 37.424 -20.265 C.3 0.0 **** 0.1195
7540 CG 49.667 38.68 -20.663 C.2 0.0 **** 0.1884
7541 OD1 48.441 38.733 -20.453 O.co2 0.0 **** -0.6396
7542 OD2 50.27 39.628 -21.202 O.co2 0.0 **** -0.6396
7543 N 50.488 34.404 -18.972 N.am 0.0 **** -0.1789
7544 CA 51.156 33.25 -18.382 C.3 0.0 **** 0.1678
7545 C 51.211 32.131 -19.398 C.2 0.0 **** 0.2422
7546 O 50.422 32.091 -20.335 O.2 0.0 **** -0.2727
7547 CB 50.446 32.756 -17.102 C.3 0.0 **** 0.0414
7548 N 52.153 31.212 -19.207 N.am 0.0 **** -0.1817
7549 CA 52.23 30.06 -20.085 C.3 0.0 **** 0.2156
7550 C 52.766 28.917 -19.251 C.2 0.0 **** 0.2396
7551 O 53.595 29.137 -18.36 O.2 0.0 **** -0.273
7552 N 52.287 27.705 -19.517 N.am 0.0 **** -0.1786
7553 CA 52.807 26.589 -18.74 C.3 0.0 **** 0.1753
7554 C 52.582 25.29 -19.487 C.2 0.0 **** 0.2431
7555 O 51.636 25.144 -20.283 O.2 0.0 **** -0.2727
7556 CB 52.194 26.504 -17.333 C.3 0.0 **** 0.0702
7557 CG 50.7 26.414 -17.321 C.ar 0.0 **** -0.0454
7558 CD1 49.922 27.555 -17.418 C.ar 0.0 **** 0.0036
7559 CD2 50.07 25.192 -17.176 C.ar 0.0 **** 0.0036
7560 CE1 48.534 27.476 -17.394 C.ar 0.0 **** 0.0003
7561 CE2 48.693 25.102 -17.147 C.ar 0.0 **** 0.0003
7562 CZ 47.925 26.237 -17.263 C.ar 0.0 **** 0.0
7563 N 53.489 24.357 -19.214 N.am 0.0 **** -0.1784
7564 CA 53.567 23.077 -19.893 C.3 0.0 **** 0.1738
7565 C 53.259 21.973 -18.89 C.2 0.0 **** 0.243
7566 O 53.698 22.011 -17.726 O.2 0.0 **** -0.2727
7567 CB 54.954 22.869 -20.534 C.3 0.0 **** 0.0176
7568 CG1 55.179 23.93 -21.638 C.3 0.0 **** 0.0024
7569 CG2 55.086 21.445 -21.104 C.3 0.0 **** 0.0102
7570 CD1 56.582 23.857 -22.336 C.3 0.0 **** 0.0041
7571 N 52.491 20.995 -19.353 N.am 0.0 **** -0.1786
7572 CA 52.23 19.764 -18.63 C.3 0.0 **** 0.1712
7573 C 52.442 18.595 -19.578 C.2 0.0 **** 0.2428
7574 O 52.318 18.739 -20.795 O.2 0.0 **** -0.2727
7575 CB 50.805 19.72 -18.102 C.3 0.0 **** 0.0378
7576 CG 50.372 20.856 -17.206 C.3 0.0 **** -0.0149
7577 CD1 48.868 20.781 -17.092 C.3 0.0 **** 0.0072
7578 CD2 51.049 20.742 -15.836 C.3 0.0 **** 0.0072
7579 N 52.757 17.43 -19.015 N.am 0.0 **** -0.1763
7580 CA 52.71 16.188 -19.772 C.3 0.0 **** 0.1996
7581 C 51.704 15.252 -19.117 C.2 0.0 **** 0.2454
7582 O 51.522 15.27 -17.9 O.2 0.0 **** -0.2726
7583 CB 54.09 15.505 -19.861 C.3 0.0 **** 0.1429
7584 OG1 54.443 14.97 -18.58 O.3 0.0 **** -0.1801
7585 CG2 55.155 16.499 -20.288 C.3 0.0 **** 0.0409
7586 N 51.043 14.449 -19.934 N.am 0.0 **** -0.1786
7587 CA 49.999 13.54 -19.5 C.3 0.0 **** 0.1712
7588 C 50.258 12.166 -20.093 C.2 0.0 **** 0.2428
7589 O 50.764 12.053 -21.216 O.2 0.0 **** -0.2727
7590 CB 48.629 14.023 -19.962 C.3 0.0 **** 0.0378
7591 CG 48.271 15.463 -19.595 C.3 0.0 **** -0.0149
7592 CD1 47.091 15.972 -20.4 C.3 0.0 **** 0.0072
7593 CD2 47.961 15.494 -18.13 C.3 0.0 **** 0.0072
7594 N 49.864 11.116 -19.375 N.am 0.0 **** -0.1787
7595 CA 49.892 9.791 -19.989 C.3 0.0 **** 0.1709
7596 C 49.023 8.849 -19.173 C.2 0.0 **** 0.2428
7597 O 48.872 9.018 -17.964 O.2 0.0 **** -0.2727
7598 CB 51.319 9.247 -20.117 C.3 0.0 **** 0.035
7599 CG 51.827 8.462 -18.92 C.3 0.0 **** 0.0062
7600 CD 53.249 7.915 -19.151 C.3 0.0 **** 0.0387
7601 CE 53.323 6.935 -20.337 C.3 0.0 **** 0.1659
7602 NZ 52.537 5.672 -20.143 N.4 0.0 **** 0.7918
7603 N 48.448 7.857 -19.848 N.am 0.0 **** -0.1784
7604 CA 47.515 6.933 -19.214 C.3 0.0 **** 0.1735
7605 C 48.11 5.537 -19.228 C.2 0.0 **** 0.243
7606 O 48.568 5.068 -20.273 O.2 0.0 **** -0.2727
7607 CB 46.139 6.929 -19.905 C.3 0.0 **** 0.0147
7608 CG1 45.243 5.856 -19.294 C.3 0.0 **** 0.0099
7609 CG2 45.475 8.274 -19.794 C.3 0.0 **** 0.0099
7610 N 48.05 4.869 -18.08 N.am 0.0 **** -0.1786
7611 CA 48.549 3.518 -17.884 C.3 0.0 **** 0.171
7612 C 47.386 2.587 -17.58 C.2 0.0 **** 0.2428
7613 O 46.458 2.952 -16.853 O.2 0.0 **** -0.2727
7614 CB 49.565 3.462 -16.728 C.3 0.0 **** 0.0367
7615 CG 49.787 2.058 -16.178 C.3 0.0 **** 0.0239
7616 CD 50.818 2.019 -15.07 C.3 0.0 **** 0.1157
7617 NE 50.384 2.769 -13.887 N.pl3 0.0 **** 0.138
7618 CZ 51.068 3.758 -13.315 C.cat 0.0 **** 0.1634
7619 NH1 52.25 4.138 -13.793 N.pl3 0.0 **** 0.2799
7620 NH2 50.576 4.366 -12.241 N.pl3 0.0 **** 0.2799
7621 N 47.439 1.387 -18.147 N.am 0.0 **** -0.1777
7622 CA 46.563 0.297 -17.729 C.3 0.0 **** 0.1828
7623 C 47.397 -0.778 -17.043 C.2 0.0 **** 0.2104
7624 O 47.675 -0.705 -15.844 O.co2 0.0 **** -0.6372
7625 CB 45.81 -0.292 -18.918 C.3 0.0 **** 0.1892
7626 OG 44.836 0.617 -19.397 O.3 0.0 **** -0.1836
7627 OXT 47.829 -1.735 -17.681 O.co2 0.0 **** -0.6372
7628 C1 37.948 49.212 21.788 C.3 0.0 **** 0.2851
7629 C2 37.961 47.805 22.399 C.3 0.0 **** 0.2017
7630 C3 39.167 47.008 21.885 C.3 0.0 **** 0.1792
7631 C4 39.109 46.974 20.361 C.3 0.0 **** 0.1769
7632 C5 39.048 48.406 19.828 C.3 0.0 **** 0.1781
7633 C6 38.907 48.455 18.297 C.3 0.0 **** 0.1906
7634 O2 38.002 47.85 23.821 O.3 0.0 **** -0.1741
7635 O3 39.131 45.674 22.372 O.3 0.0 **** -0.1767
7636 O4 40.247 46.309 19.839 O.3 0.0 **** -0.1768
7637 O5 37.933 49.095 20.368 O.3 0.0 **** -0.3412
7638 O6 37.76 47.72 17.898 O.3 0.0 **** -0.1834
7639 C1 38.012 51.771 23.339 C.3 0.0 **** 0.2245
7640 C2 39.003 51.332 22.264 C.3 0.0 **** 0.2236
7641 C3 40.363 52.002 22.528 C.3 0.0 **** 0.2075
7642 C4 40.973 52.065 21.134 C.3 0.0 **** 0.1797
7643 C5 39.76 52.451 20.332 C.3 0.0 **** 0.1786
7644 C6 39.852 52.045 18.846 C.3 0.0 **** 0.1906
7645 O1 37.838 53.156 23.184 O.3 0.0 **** -0.1803
7646 O2 39.085 49.914 22.206 O.3 0.0 **** -0.313
7647 O3 41.232 51.376 23.419 O.3 0.0 **** -0.1737
7648 O4 41.998 53.016 21.064 O.3 0.0 **** -0.1767
7649 O5 38.648 51.862 20.994 O.3 0.0 **** -0.3369
7650 O6 38.57 52.206 18.247 O.3 0.0 **** -0.1834
7651 C1 50.377 9.39 20.806 C.3 0.0 **** 0.2851
7652 C2 51.707 9.877 20.226 C.3 0.0 **** 0.2017
7653 C3 51.56 11.104 19.334 C.3 0.0 **** 0.1792
7654 C4 50.487 10.752 18.358 C.3 0.0 **** 0.1769
7655 C5 49.193 10.627 19.09 C.3 0.0 **** 0.1781
7656 C6 48.089 10.458 18.054 C.3 0.0 **** 0.1906
7657 O2 52.594 10.085 21.301 O.3 0.0 **** -0.1741
7658 O3 52.698 11.394 18.545 O.3 0.0 **** -0.1767
7659 O4 50.287 11.746 17.357 O.3 0.0 **** -0.1768
7660 O5 49.261 9.509 19.938 O.3 0.0 **** -0.3412
7661 O6 48.37 11.242 16.892 O.3 0.0 **** -0.1834
7662 C1 48.295 8.34 22.185 C.3 0.0 **** 0.2245
7663 C2 48.908 9.633 22.704 C.3 0.0 **** 0.2236
7664 C3 49.324 9.529 24.164 C.3 0.0 **** 0.2075
7665 C4 49.044 10.915 24.66 C.3 0.0 **** 0.1797
7666 C5 47.639 10.93 24.053 C.3 0.0 **** 0.1786
7667 C6 46.751 12.135 24.141 C.3 0.0 **** 0.1906
7668 O1 47.411 8.611 21.085 O.3 0.0 **** -0.1803
7669 O2 50.06 10.065 21.997 O.3 0.0 **** -0.313
7670 O3 50.67 9.176 24.399 O.3 0.0 **** -0.1737
7671 O4 49.298 10.978 26.067 O.3 0.0 **** -0.1767
7672 O5 47.906 10.636 22.69 O.3 0.0 **** -0.3369
7673 O6 45.396 11.671 24.006 O.3 0.0 **** -0.1834
7674 C1 53.219 60.984 13.101 C.3 0.0 **** 0.2851
7675 C2 54.215 60.087 13.835 C.3 0.0 **** 0.2017
7676 C3 53.703 60.051 15.293 C.3 0.0 **** 0.1792
7677 C4 53.587 61.49 15.835 C.3 0.0 **** 0.1769
7678 C5 53.29 62.626 14.837 C.3 0.0 **** 0.1781
7679 C6 54.019 63.961 15.098 C.3 0.0 **** 0.1906
7680 O2 54.373 58.815 13.199 O.3 0.0 **** -0.1741
7681 O3 54.501 59.29 16.19 O.3 0.0 **** -0.1767
7682 O4 52.487 61.522 16.723 O.3 0.0 **** -0.1768
7683 O5 53.54 62.304 13.482 O.3 0.0 **** -0.3412
7684 O6 54.042 64.332 16.473 O.3 0.0 **** -0.1834
7685 C1 51.306 59.399 11.363 C.3 0.0 **** 0.2245
7686 C2 50.929 60.531 12.338 C.3 0.0 **** 0.2236
7687 C3 49.458 60.217 12.664 C.3 0.0 **** 0.2075
7688 C4 48.86 61.542 13.086 C.3 0.0 **** 0.1797
7689 C5 49.693 62.566 12.319 C.3 0.0 **** 0.1786
7690 C6 50.089 63.756 13.196 C.3 0.0 **** 0.1906
7691 O1 50.819 58.165 11.853 O.3 0.0 **** -0.1803
7692 O2 51.862 60.623 13.425 O.3 0.0 **** -0.313
7693 O3 49.258 59.184 13.606 O.3 0.0 **** -0.1737
7694 O4 47.491 61.628 12.763 O.3 0.0 **** -0.1767
7695 O5 50.835 61.857 11.815 O.3 0.0 **** -0.3369
7696 O6 49.008 64.273 13.946 O.3 0.0 **** -0.1834
7697 C 34.594 38.867 49.123 C.2 0.0 **** 0.1827
7698 O 34.146 37.869 48.523 O.co2 0.0 **** -0.64
7699 OXT 35.75 39.047 49.6 O.co2 0.0 **** -0.64
7700 CH3 33.571 40.093 49.316 C.3 0.0 **** 0.0973
7701 C 29.845 12.774 24.194 C.2 0.0 **** 0.1827
7702 O 30.721 12.705 23.339 O.co2 0.0 **** -0.64
7703 OXT 28.748 13.277 24.001 O.co2 0.0 **** -0.64
7704 CH3 30.121 12.187 25.572 C.3 0.0 **** 0.0973
7705 C 32.385 20.12 60.718 C.2 0.0 **** 0.1827
7706 O 31.4 19.935 59.957 O.co2 0.0 **** -0.64
7707 OXT 33.36 19.339 60.933 O.co2 0.0 **** -0.64
7708 CH3 32.418 21.496 61.517 C.3 0.0 **** 0.0973
7709 C 44.838 43.929 -15.874 C.2 0.0 **** 0.1827
7710 O 43.939 43.708 -16.709 O.co2 0.0 **** -0.64
7711 OXT 45.984 43.441 -15.94 O.co2 0.0 **** -0.64
7712 CH3 44.517 44.855 -14.698 C.3 0.0 **** 0.0973
7713 C 50.126 19.444 62.018 C.2 0.0 **** 0.1827
7714 O 49.871 18.732 61.0 O.co2 0.0 **** -0.64
7715 OXT 51.172 19.444 62.723 O.co2 0.0 **** -0.64
7716 CH3 48.982 20.458 62.46 C.3 0.0 **** 0.0973
7717 NA 34.276 33.549 16.459 Na 0.0 **** 1.0
7718 NA 60.751 37.777 20.875 Na 0.0 **** 1.0
7719 NA 72.826 11.196 22.152 Na 0.0 **** 1.0
7720 C1 51.494 31.908 -7.317 C.3 0.0 **** 0.1692
7721 C2 52.037 30.56 -6.841 C.2 0.0 **** 0.1938
7722 C3 52.286 32.434 -8.514 C.2 0.0 **** 0.1938
7723 O6 51.323 29.521 -6.926 O.co2 0.0 **** -0.6392
7724 O7 53.199 30.497 -6.344 O.co2 0.0 **** -0.6392
7725 O8 51.936 33.523 -9.056 O.co2 0.0 **** -0.6392
7726 O9 53.285 31.79 -8.953 O.co2 0.0 **** -0.6392
7727 O 15.365 47.372 37.38 O.3 0.0 **** -0.0
7728 O 29.152 36.024 -1.245 O.3 0.0 **** -0.0
7729 O 75.788 27.295 13.349 O.3 0.0 **** -0.0
7730 O 44.076 53.877 38.886 O.3 0.0 **** -0.0
7731 O 47.6 10.541 -34.61 O.3 0.0 **** -0.0
7732 O 38.08 39.251 21.083 O.3 0.0 **** -0.0
7733 O 42.713 38.714 0.611 O.3 0.0 **** -0.0
7734 O 59.827 30.451 16.461 O.3 0.0 **** -0.0
7735 O 34.389 19.604 63.095 O.3 0.0 **** -0.0
7736 O 43.318 32.412 -28.438 O.3 0.0 **** -0.0
7737 O 60.357 50.148 22.987 O.3 0.0 **** -0.0
7738 O 61.844 28.973 18.6 O.3 0.0 **** -0.0
7739 O 36.706 25.018 -22.033 O.3 0.0 **** -0.0
7740 O 36.88 54.576 21.423 O.3 0.0 **** -0.0
7741 O 64.368 17.141 44.083 O.3 0.0 **** -0.0
7742 O 39.628 51.655 43.113 O.3 0.0 **** -0.0
7743 O 31.666 32.569 6.636 O.3 0.0 **** -0.0
7744 O 56.106 18.007 -27.364 O.3 0.0 **** -0.0
7745 O 57.221 35.785 49.334 O.3 0.0 **** -0.0
7746 O 36.281 49.364 44.314 O.3 0.0 **** -0.0
7747 O 45.916 49.538 -14.189 O.3 0.0 **** -0.0
7748 O 54.801 16.584 13.123 O.3 0.0 **** -0.0
7749 O 67.614 42.556 29.141 O.3 0.0 **** -0.0
7750 O 57.689 16.679 45.53 O.3 0.0 **** -0.0
7751 O 30.059 26.746 0.378 O.3 0.0 **** -0.0
7752 O 53.286 10.983 -8.997 O.3 0.0 **** -0.0
7753 O 58.595 6.14 -1.867 O.3 0.0 **** -0.0
7754 O 53.096 30.212 -10.885 O.3 0.0 **** -0.0
7755 O 26.32 46.492 19.253 O.3 0.0 **** -0.0
7756 O 39.272 41.715 7.223 O.3 0.0 **** -0.0
7757 O 33.055 23.104 -14.924 O.3 0.0 **** -0.0
7758 O 70.884 27.135 44.508 O.3 0.0 **** -0.0
7759 O 34.194 12.814 -29.421 O.3 0.0 **** -0.0
7760 O 70.796 2.847 10.248 O.3 0.0 **** -0.0
7761 O 18.097 41.734 44.116 O.3 0.0 **** -0.0
7762 O 28.276 28.835 30.635 O.3 0.0 **** -0.0
7763 O 4.681 42.23 40.253 O.3 0.0 **** -0.0
7764 O 63.475 20.115 36.701 O.3 0.0 **** -0.0
7765 O 36.014 51.17 19.628 O.3 0.0 **** -0.0
7766 O 49.569 26.577 -26.646 O.3 0.0 **** -0.0
7767 O 42.185 14.661 18.189 O.3 0.0 **** -0.0
7768 O 38.341 43.526 -7.674 O.3 0.0 **** -0.0
7769 O 59.353 36.336 42.78 O.3 0.0 **** -0.0
7770 O 79.101 10.104 20.054 O.3 0.0 **** -0.0
7771 O 39.442 45.898 -4.986 O.3 0.0 **** -0.0
7772 O 35.452 45.311 17.524 O.3 0.0 **** -0.0
7773 O 49.656 32.318 59.042 O.3 0.0 **** -0.0
7774 O 43.48 44.412 46.705 O.3 0.0 **** -0.0
7775 O 48.725 16.045 34.322 O.3 0.0 **** -0.0
7776 O 57.176 60.328 25.988 O.3 0.0 **** -0.0
7777 O 33.496 48.898 -3.683 O.3 0.0 **** -0.0
7778 O 61.627 43.7 10.629 O.3 0.0 **** -0.0
7779 O 31.974 39.687 21.06 O.3 0.0 **** -0.0
7780 O 58.902 11.627 -27.482 O.3 0.0 **** -0.0
7781 O 26.735 16.475 33.94 O.3 0.0 **** -0.0
7782 O 54.811 18.633 36.086 O.3 0.0 **** -0.0
7783 O 39.224 18.177 61.676 O.3 0.0 **** -0.0
7784 O 47.704 46.682 12.328 O.3 0.0 **** -0.0
7785 O 67.277 23.074 48.297 O.3 0.0 **** -0.0
7786 O 26.422 36.382 35.674 O.3 0.0 **** -0.0
7787 O 79.956 11.655 8.385 O.3 0.0 **** -0.0
7788 O 50.382 25.77 44.449 O.3 0.0 **** -0.0
7789 O 39.909 39.023 48.535 O.3 0.0 **** -0.0
7790 O 39.797 27.842 -22.605 O.3 0.0 **** -0.0
7791 O 47.379 23.661 5.318 O.3 0.0 **** -0.0
7792 O 22.646 23.433 4.471 O.3 0.0 **** -0.0
7793 O 36.008 36.56 18.649 O.3 0.0 **** -0.0
7794 O 21.691 41.417 38.119 O.3 0.0 **** -0.0
7795 O 72.754 21.107 28.336 O.3 0.0 **** -0.0
7796 O 26.372 29.585 6.041 O.3 0.0 **** -0.0
7797 O 28.023 37.329 22.006 O.3 0.0 **** -0.0
7798 O 31.699 36.978 48.469 O.3 0.0 **** -0.0
7799 O 38.021 44.001 0.679 O.3 0.0 **** -0.0
7800 O 39.084 28.061 21.553 O.3 0.0 **** -0.0
7801 O 37.931 27.516 -20.992 O.3 0.0 **** -0.0
7802 O 23.649 52.385 35.114 O.3 0.0 **** -0.0
7803 O 37.307 36.952 20.99 O.3 0.0 **** -0.0
7804 O 26.161 26.694 30.165 O.3 0.0 **** -0.0
7805 O 38.038 22.786 31.338 O.3 0.0 **** -0.0
7806 O 50.349 20.038 0.049 O.3 0.0 **** -0.0
7807 O 55.368 30.214 54.863 O.3 0.0 **** -0.0
7808 O 49.559 42.343 39.439 O.3 0.0 **** -0.0
7809 O 51.434 32.311 43.417 O.3 0.0 **** -0.0
7810 O 64.916 19.756 43.467 O.3 0.0 **** -0.0
7811 O 62.5 31.446 22.305 O.3 0.0 **** -0.0
7812 O 19.675 52.137 29.341 O.3 0.0 **** -0.0
7813 O 45.907 47.528 24.15 O.3 0.0 **** -0.0
7814 O 15.131 37.117 24.549 O.3 0.0 **** -0.0
7815 O 27.679 42.182 -15.455 O.3 0.0 **** -0.0
7816 O 51.617 29.858 60.87 O.3 0.0 **** -0.0
7817 O 30.909 38.025 -0.287 O.3 0.0 **** -0.0
7818 O 10.639 28.071 35.758 O.3 0.0 **** -0.0
7819 O 39.562 18.258 57.298 O.3 0.0 **** -0.0
7820 O 24.082 49.509 19.431 O.3 0.0 **** -0.0
7821 O 33.293 23.138 -11.301 O.3 0.0 **** -0.0
7822 O 26.194 22.11 58.7 O.3 0.0 **** -0.0
7823 O 64.852 32.919 25.581 O.3 0.0 **** -0.0
7824 O 43.911 45.404 19.023 O.3 0.0 **** -0.0
7825 O 58.597 37.46 26.351 O.3 0.0 **** -0.0
7826 O 44.932 13.875 22.638 O.3 0.0 **** -0.0
7827 O 57.537 17.255 48.212 O.3 0.0 **** -0.0
7828 O 26.971 57.276 21.116 O.3 0.0 **** -0.0
7829 O 34.1 38.299 45.922 O.3 0.0 **** -0.0
7830 O 69.92 11.36 18.7 O.3 0.0 **** -0.0
7831 O 28.743 34.64 -17.378 O.3 0.0 **** -0.0
7832 O 34.564 33.054 44.317 O.3 0.0 **** -0.0
7833 O 56.233 4.422 24.378 O.3 0.0 **** -0.0
7834 O 22.954 53.349 31.216 O.3 0.0 **** -0.0
7835 O 68.313 18.956 41.613 O.3 0.0 **** -0.0
7836 O 76.769 14.746 -1.197 O.3 0.0 **** -0.0
7837 O 77.056 12.125 16.05 O.3 0.0 **** -0.0
7838 O 5.777 39.759 29.343 O.3 0.0 **** -0.0
7839 O 63.379 35.953 12.192 O.3 0.0 **** -0.0
7840 O 56.263 40.646 38.119 O.3 0.0 **** -0.0
7841 O 67.147 39.209 34.096 O.3 0.0 **** -0.0
7842 O 60.889 47.872 30.309 O.3 0.0 **** -0.0
7843 O 51.127 45.932 45.076 O.3 0.0 **** -0.0
7844 O 35.144 24.691 9.682 O.3 0.0 **** -0.0
7845 O 36.747 25.768 -5.356 O.3 0.0 **** -0.0
7846 O 54.679 29.876 -1.119 O.3 0.0 **** -0.0
7847 O 56.165 50.786 31.314 O.3 0.0 **** -0.0
7848 O 23.727 33.449 52.885 O.3 0.0 **** -0.0
7849 O 30.8 38.411 40.242 O.3 0.0 **** -0.0
7850 O 25.608 33.267 38.158 O.3 0.0 **** -0.0
7851 O 27.053 32.348 53.009 O.3 0.0 **** -0.0
7852 O 30.638 38.21 2.546 O.3 0.0 **** -0.0
7853 O 41.907 21.614 -26.383 O.3 0.0 **** -0.0
7854 O 60.547 20.778 3.04 O.3 0.0 **** -0.0
7855 O 21.212 39.171 43.107 O.3 0.0 **** -0.0
7856 O 33.952 31.34 48.488 O.3 0.0 **** -0.0
7857 O 28.962 44.497 -16.211 O.3 0.0 **** -0.0
7858 O 62.611 12.344 25.936 O.3 0.0 **** -0.0
7859 O 65.607 45.153 12.301 O.3 0.0 **** -0.0
7860 O 37.849 37.426 49.392 O.3 0.0 **** -0.0
7861 O 69.722 12.848 25.014 O.3 0.0 **** -0.0
7862 O 53.019 19.628 11.502 O.3 0.0 **** -0.0
7863 O 50.99 50.533 18.17 O.3 0.0 **** -0.0
7864 O 59.57 28.828 27.263 O.3 0.0 **** -0.0
7865 O 42.269 24.672 -11.741 O.3 0.0 **** -0.0
7866 O 53.129 32.738 13.998 O.3 0.0 **** -0.0
7867 O 41.089 32.911 1.223 O.3 0.0 **** -0.0
7868 O 34.915 20.293 0.774 O.3 0.0 **** -0.0
7869 O 44.72 22.403 -7.651 O.3 0.0 **** -0.0
7870 O 54.51 18.434 9.445 O.3 0.0 **** -0.0
7871 O 59.655 27.938 15.111 O.3 0.0 **** -0.0
7872 O 42.704 54.593 30.095 O.3 0.0 **** -0.0
7873 O 45.074 48.373 28.531 O.3 0.0 **** -0.0
7874 O 47.165 43.237 -13.551 O.3 0.0 **** -0.0
7875 O 17.414 27.511 11.846 O.3 0.0 **** -0.0
7876 O 25.57 14.99 36.093 O.3 0.0 **** -0.0
7877 O 70.938 16.642 22.133 O.3 0.0 **** -0.0
7878 O 53.822 16.569 6.577 O.3 0.0 **** -0.0
7879 O 76.444 12.541 4.966 O.3 0.0 **** -0.0
7880 O 39.85 24.335 52.548 O.3 0.0 **** -0.0
7881 O 43.051 54.532 19.127 O.3 0.0 **** -0.0
7882 O 34.428 39.386 18.529 O.3 0.0 **** -0.0
7883 O 54.778 30.152 41.527 O.3 0.0 **** -0.0
7884 O 44.981 22.795 46.556 O.3 0.0 **** -0.0
7885 O 51.295 25.441 40.831 O.3 0.0 **** -0.0
7886 O 35.659 29.987 58.767 O.3 0.0 **** -0.0
7887 O 27.328 46.615 45.712 O.3 0.0 **** -0.0
7888 O 25.432 20.02 29.098 O.3 0.0 **** -0.0
7889 O 33.638 18.643 -26.104 O.3 0.0 **** -0.0
7890 O 42.298 34.778 -1.24 O.3 0.0 **** -0.0
7891 O 23.223 35.709 29.709 O.3 0.0 **** -0.0
7892 O 57.564 20.658 13.563 O.3 0.0 **** -0.0
7893 O 34.572 28.031 39.417 O.3 0.0 **** -0.0
7894 O 12.725 34.926 37.511 O.3 0.0 **** -0.0
7895 O 36.811 26.681 58.072 O.3 0.0 **** -0.0
7896 O 20.404 29.619 24.39 O.3 0.0 **** -0.0
7897 O 40.178 33.847 9.529 O.3 0.0 **** -0.0
7898 O 49.819 38.544 50.301 O.3 0.0 **** -0.0
7899 O 28.435 30.131 40.906 O.3 0.0 **** -0.0
7900 O 23.086 30.069 9.333 O.3 0.0 **** -0.0
7901 O 38.336 5.649 -2.775 O.3 0.0 **** -0.0
7902 O 24.639 18.434 19.938 O.3 0.0 **** -0.0
7903 O 28.524 44.696 -5.057 O.3 0.0 **** -0.0
7904 O 38.345 19.682 -1.484 O.3 0.0 **** -0.0
7905 O 36.056 20.957 32.345 O.3 0.0 **** -0.0
7906 O 37.864 46.196 -19.65 O.3 0.0 **** -0.0
7907 O 28.378 36.294 -10.925 O.3 0.0 **** -0.0
7908 O 8.017 29.369 45.152 O.3 0.0 **** -0.0
7909 O 67.692 37.875 30.468 O.3 0.0 **** -0.0
7910 O 49.365 14.439 17.743 O.3 0.0 **** -0.0
7911 O 35.816 17.632 10.928 O.3 0.0 **** -0.0
7912 O 56.586 4.962 21.366 O.3 0.0 **** -0.0
7913 O 79.706 7.816 8.562 O.3 0.0 **** -0.0
7914 O 33.112 24.98 31.928 O.3 0.0 **** -0.0
7915 O 38.581 53.922 39.041 O.3 0.0 **** -0.0
7916 O 57.063 10.489 1.59 O.3 0.0 **** -0.0
7917 O 34.479 20.659 44.275 O.3 0.0 **** -0.0
7918 O 44.359 49.705 -19.087 O.3 0.0 **** -0.0
7919 O 35.097 27.613 9.294 O.3 0.0 **** -0.0
7920 O 32.102 45.664 -16.282 O.3 0.0 **** -0.0
7921 O 41.903 54.461 25.55 O.3 0.0 **** -0.0
7922 O 25.815 35.202 30.135 O.3 0.0 **** -0.0
7923 O 42.866 25.571 42.315 O.3 0.0 **** -0.0
7924 O 27.369 34.805 23.415 O.3 0.0 **** -0.0
7925 O 40.487 42.644 24.683 O.3 0.0 **** -0.0
7926 O 50.198 30.593 7.387 O.3 0.0 **** -0.0
7927 O 41.922 11.867 28.191 O.3 0.0 **** -0.0
7928 O 33.787 35.202 6.8 O.3 0.0 **** -0.0
7929 O 28.581 20.869 7.932 O.3 0.0 **** -0.0
7930 O 59.519 24.344 40.693 O.3 0.0 **** -0.0
7931 O 35.098 34.742 22.08 O.3 0.0 **** -0.0
7932 O 50.19 38.495 -11.157 O.3 0.0 **** -0.0
7933 O 66.426 21.64 50.461 O.3 0.0 **** -0.0
7934 O 59.856 22.224 24.84 O.3 0.0 **** -0.0
7935 O 58.499 16.583 41.927 O.3 0.0 **** -0.0
7936 O 73.105 4.707 7.701 O.3 0.0 **** -0.0
7937 O 37.322 19.004 50.763 O.3 0.0 **** -0.0
7938 O 45.229 26.898 63.248 O.3 0.0 **** -0.0
7939 O 29.627 31.54 -1.139 O.3 0.0 **** -0.0
7940 O 50.698 44.339 47.84 O.3 0.0 **** -0.0
7941 O 59.707 24.096 61.535 O.3 0.0 **** -0.0
7942 O 50.858 53.697 28.9 O.3 0.0 **** -0.0
7943 O 45.596 18.458 59.518 O.3 0.0 **** -0.0
7944 O 48.459 22.501 41.046 O.3 0.0 **** -0.0
7945 O 38.981 23.818 -7.081 O.3 0.0 **** -0.0
7946 O 53.839 48.481 34.215 O.3 0.0 **** -0.0
7947 O 63.324 23.076 11.051 O.3 0.0 **** -0.0
7948 O 38.198 20.912 46.567 O.3 0.0 **** -0.0
7949 O 11.794 39.896 31.851 O.3 0.0 **** -0.0
7950 O 52.13 15.005 -31.939 O.3 0.0 **** -0.0
7951 O 59.631 29.396 23.733 O.3 0.0 **** -0.0
7952 O 59.897 39.221 39.679 O.3 0.0 **** -0.0
7953 O 65.293 18.609 26.331 O.3 0.0 **** -0.0
7954 O 28.689 37.434 43.005 O.3 0.0 **** -0.0
7955 O 35.962 31.994 52.13 O.3 0.0 **** -0.0
7956 O 45.593 26.423 3.644 O.3 0.0 **** -0.0
7957 O 43.203 22.888 39.383 O.3 0.0 **** -0.0
7958 O 23.452 22.581 59.737 O.3 0.0 **** -0.0
7959 O 45.089 14.542 55.97 O.3 0.0 **** -0.0
7960 O 49.48 47.773 8.692 O.3 0.0 **** -0.0
7961 O 25.846 17.935 30.818 O.3 0.0 **** -0.0
7962 O 47.093 49.043 43.201 O.3 0.0 **** -0.0
7963 O 52.88 32.439 6.22 O.3 0.0 **** -0.0
7964 O 29.153 41.783 -0.149 O.3 0.0 **** -0.0
7965 O 28.061 47.152 40.889 O.3 0.0 **** -0.0
7966 O 71.482 17.306 29.417 O.3 0.0 **** -0.0
7967 O 53.78 28.988 2.63 O.3 0.0 **** -0.0
7968 O 39.635 32.266 38.336 O.3 0.0 **** -0.0
7969 O 17.363 43.96 27.219 O.3 0.0 **** -0.0
7970 O 57.393 29.079 9.098 O.3 0.0 **** -0.0
7971 O 52.077 18.845 -3.599 O.3 0.0 **** -0.0
7972 O 55.145 16.86 41.939 O.3 0.0 **** -0.0
7973 O 35.12 17.539 -24.017 O.3 0.0 **** -0.0
7974 O 32.746 44.417 44.921 O.3 0.0 **** -0.0
7975 O 32.259 28.908 -0.699 O.3 0.0 **** -0.0
7976 O 47.592 44.694 27.965 O.3 0.0 **** -0.0
7977 O 15.153 42.656 23.413 O.3 0.0 **** -0.0
7978 O 58.242 38.793 8.745 O.3 0.0 **** -0.0
7979 O 37.129 24.1 57.641 O.3 0.0 **** -0.0
7980 O 41.331 23.668 -5.764 O.3 0.0 **** -0.0
7981 O 30.704 24.109 -11.522 O.3 0.0 **** -0.0
7982 O 69.799 14.135 22.426 O.3 0.0 **** -0.0
7983 O 41.268 42.496 6.135 O.3 0.0 **** -0.0
7984 O 63.932 34.875 38.36 O.3 0.0 **** -0.0
7985 O 66.425 37.109 45.536 O.3 0.0 **** -0.0
7986 O 53.851 23.17 -15.243 O.3 0.0 **** -0.0
7987 O 30.842 30.781 -25.523 O.3 0.0 **** -0.0
7988 O 61.59 35.839 56.598 O.3 0.0 **** -0.0
7989 O 20.105 52.719 40.32 O.3 0.0 **** -0.0
7990 O 41.374 26.413 40.243 O.3 0.0 **** -0.0
7991 O 31.671 11.969 -8.432 O.3 0.0 **** -0.0
7992 O 39.881 34.462 50.964 O.3 0.0 **** -0.0
7993 O 29.547 54.306 30.704 O.3 0.0 **** -0.0
7994 O 12.9 37.656 33.089 O.3 0.0 **** -0.0
7995 O 25.2 49.078 21.994 O.3 0.0 **** -0.0
7996 O 31.588 21.513 33.914 O.3 0.0 **** -0.0
7997 O 31.23 18.234 42.61 O.3 0.0 **** -0.0
7998 O 60.06 12.991 26.707 O.3 0.0 **** -0.0
7999 O 31.397 22.856 43.288 O.3 0.0 **** -0.0
8000 O 55.073 22.961 24.973 O.3 0.0 **** -0.0
8001 O 51.56 20.108 56.556 O.3 0.0 **** -0.0
8002 O 47.839 37.227 5.695 O.3 0.0 **** -0.0
8003 O 23.607 37.558 10.552 O.3 0.0 **** -0.0
8004 O 28.371 31.525 38.614 O.3 0.0 **** -0.0
8005 O 57.392 21.177 21.8 O.3 0.0 **** -0.0
8006 O 59.418 18.559 30.181 O.3 0.0 **** -0.0
8007 O 30.324 28.53 22.819 O.3 0.0 **** -0.0
8008 O 44.842 43.121 4.865 O.3 0.0 **** -0.0
8009 O 53.219 23.549 -0.501 O.3 0.0 **** -0.0
8010 O 35.282 20.947 -7.43 O.3 0.0 **** -0.0
8011 O 49.724 16.284 7.925 O.3 0.0 **** -0.0
8012 O 36.398 22.494 -17.16 O.3 0.0 **** -0.0
8013 O 46.451 52.193 37.293 O.3 0.0 **** -0.0
8014 O 19.216 35.867 40.95 O.3 0.0 **** -0.0
8015 O 23.019 33.088 28.12 O.3 0.0 **** -0.0
8016 O 55.535 47.013 32.542 O.3 0.0 **** -0.0
8017 O 42.643 25.097 8.637 O.3 0.0 **** -0.0
8018 O 49.495 23.119 -19.962 O.3 0.0 **** -0.0
8019 O 34.68 37.521 22.451 O.3 0.0 **** -0.0
8020 O 38.389 19.794 63.559 O.3 0.0 **** -0.0
8021 O 33.83 53.175 27.674 O.3 0.0 **** -0.0
8022 O 68.109 25.842 39.842 O.3 0.0 **** -0.0
8023 O 44.621 50.126 30.625 O.3 0.0 **** -0.0
8024 O 15.429 37.255 40.285 O.3 0.0 **** -0.0
8025 O 52.829 33.933 41.398 O.3 0.0 **** -0.0
8026 O 37.273 26.179 60.698 O.3 0.0 **** -0.0
8027 O 77.99 12.919 13.468 O.3 0.0 **** -0.0
8028 O 62.694 11.756 3.389 O.3 0.0 **** -0.0
8029 O 47.575 36.769 8.444 O.3 0.0 **** -0.0
8030 O 52.522 24.802 -13.47 O.3 0.0 **** -0.0
8031 O 74.99 5.092 0.904 O.3 0.0 **** -0.0
8032 O 42.959 18.926 37.724 O.3 0.0 **** -0.0
8033 O 30.386 33.019 -4.624 O.3 0.0 **** -0.0
8034 O 63.532 22.743 36.354 O.3 0.0 **** -0.0
8035 O 31.708 32.71 47.529 O.3 0.0 **** -0.0
8036 O 11.497 32.575 26.547 O.3 0.0 **** -0.0
8037 O 25.357 51.362 31.801 O.3 0.0 **** -0.0
8038 O 34.392 39.781 -23.501 O.3 0.0 **** -0.0
8039 O 66.789 31.597 27.003 O.3 0.0 **** -0.0
8040 O 35.677 42.957 -25.586 O.3 0.0 **** -0.0
8041 O 44.529 44.172 10.98 O.3 0.0 **** -0.0
8042 O 61.806 23.192 7.444 O.3 0.0 **** -0.0
8043 O 42.264 36.594 3.382 O.3 0.0 **** -0.0
8044 O 66.896 39.188 27.692 O.3 0.0 **** -0.0
8045 O 63.543 16.673 39.296 O.3 0.0 **** -0.0
8046 O 47.258 27.007 7.635 O.3 0.0 **** -0.0
8047 O 36.282 10.352 -27.192 O.3 0.0 **** -0.0
8048 O 60.04 54.415 27.005 O.3 0.0 **** -0.0
8049 O 30.55 26.517 24.67 O.3 0.0 **** -0.0
8050 O 53.94 35.693 45.006 O.3 0.0 **** -0.0
8051 O 33.293 9.867 -6.945 O.3 0.0 **** -0.0
8052 O 66.372 22.17 5.638 O.3 0.0 **** -0.0
8053 O 9.639 37.882 31.622 O.3 0.0 **** -0.0
8054 O 11.712 42.708 31.671 O.3 0.0 **** -0.0
8055 O 45.523 24.427 64.176 O.3 0.0 **** -0.0
8056 O 56.705 34.415 41.885 O.3 0.0 **** -0.0
8057 O 34.291 43.204 -9.358 O.3 0.0 **** -0.0
8058 O 40.04 28.022 28.881 O.3 0.0 **** -0.0
8059 O 46.893 49.63 38.161 O.3 0.0 **** -0.0
8060 O 42.115 41.767 26.789 O.3 0.0 **** -0.0
8061 O 74.372 22.341 26.419 O.3 0.0 **** -0.0
8062 O 51.66 37.956 45.519 O.3 0.0 **** -0.0
8063 O 18.583 48.065 38.707 O.3 0.0 **** -0.0
8064 O 26.852 27.603 -6.819 O.3 0.0 **** -0.0
8065 O 33.34 21.975 14.733 O.3 0.0 **** -0.0
8066 O 37.225 32.864 43.915 O.3 0.0 **** -0.0
8067 O 44.662 28.76 43.359 O.3 0.0 **** -0.0
8068 O 68.774 29.5 51.203 O.3 0.0 **** -0.0
8069 O 44.581 45.612 15.737 O.3 0.0 **** -0.0
8070 O 38.928 18.973 48.524 O.3 0.0 **** -0.0
8071 O 62.303 25.482 33.983 O.3 0.0 **** -0.0
8072 O 46.878 36.682 51.708 O.3 0.0 **** -0.0
8073 O 34.856 28.022 54.573 O.3 0.0 **** -0.0
8074 O 27.132 40.477 -8.897 O.3 0.0 **** -0.0
8075 O 46.642 12.913 20.521 O.3 0.0 **** -0.0
8076 O 56.546 36.55 39.991 O.3 0.0 **** -0.0
8077 O 36.383 27.212 -18.147 O.3 0.0 **** -0.0
8078 O 58.587 10.062 -8.289 O.3 0.0 **** -0.0
8079 O 62.641 44.199 20.311 O.3 0.0 **** -0.0
8080 O 54.373 39.672 20.083 O.3 0.0 **** -0.0
8081 O 43.624 17.406 58.896 O.3 0.0 **** -0.0
8082 O 34.194 47.578 44.846 O.3 0.0 **** -0.0
8083 O 44.172 37.433 11.47 O.3 0.0 **** -0.0
8084 O 39.052 30.874 5.274 O.3 0.0 **** -0.0
8085 O 7.679 36.423 31.865 O.3 0.0 **** -0.0
8086 O 62.586 19.645 25.799 O.3 0.0 **** -0.0
8087 O 53.864 53.338 22.046 O.3 0.0 **** -0.0
8088 O 40.015 32.822 55.281 O.3 0.0 **** -0.0
8089 O 35.672 46.434 -17.899 O.3 0.0 **** -0.0
8090 O 57.979 58.288 24.6 O.3 0.0 **** -0.0
8091 O 49.066 36.17 3.425 O.3 0.0 **** -0.0
8092 O 55.523 18.534 30.017 O.3 0.0 **** -0.0
8093 O 39.194 42.158 9.791 O.3 0.0 **** -0.0
8094 O 22.663 41.123 42.172 O.3 0.0 **** -0.0
8095 O 68.793 8.913 19.884 O.3 0.0 **** -0.0
8096 O 56.391 17.594 62.12 O.3 0.0 **** -0.0
8097 O 33.356 16.779 10.214 O.3 0.0 **** -0.0
8098 O 18.132 29.571 25.832 O.3 0.0 **** -0.0
8099 O 30.422 26.91 56.79 O.3 0.0 **** -0.0
8100 O 44.942 35.049 51.543 O.3 0.0 **** -0.0
8101 O 59.386 26.442 11.324 O.3 0.0 **** -0.0
8102 O 52.381 31.901 18.516 O.3 0.0 **** -0.0
8103 O 57.22 23.942 21.725 O.3 0.0 **** -0.0
8104 O 59.319 40.068 25.573 O.3 0.0 **** -0.0
8105 O 36.897 48.172 -23.372 O.3 0.0 **** -0.0
8106 O 38.475 39.089 1.27 O.3 0.0 **** -0.0
8107 O 30.964 12.966 46.197 O.3 0.0 **** -0.0
8108 O 9.762 22.685 31.544 O.3 0.0 **** -0.0
8109 O 58.649 29.36 11.62 O.3 0.0 **** -0.0
8110 O 29.533 40.717 39.49 O.3 0.0 **** -0.0
8111 O 25.472 39.73 50.709 O.3 0.0 **** -0.0
8112 O 57.98 34.32 47.068 O.3 0.0 **** -0.0
8113 O 32.549 19.419 9.924 O.3 0.0 **** -0.0
8114 O 25.136 55.526 35.491 O.3 0.0 **** -0.0
8115 O 52.732 26.364 -0.217 O.3 0.0 **** -0.0
8116 O 55.819 57.972 32.032 O.3 0.0 **** -0.0
8117 O 25.664 22.139 -2.735 O.3 0.0 **** -0.0
8118 O 12.974 48.217 25.239 O.3 0.0 **** -0.0
8119 O 36.889 29.377 45.16 O.3 0.0 **** -0.0
8120 O 35.919 35.301 15.666 O.3 0.0 **** -0.0
8121 O 59.016 12.503 7.487 O.3 0.0 **** -0.0
8122 O 50.389 39.294 47.673 O.3 0.0 **** -0.0
8123 O 29.076 32.496 57.574 O.3 0.0 **** -0.0
8124 O 55.263 18.343 20.173 O.3 0.0 **** -0.0
8125 O 54.214 32.949 60.537 O.3 0.0 **** -0.0
8126 O 40.385 51.692 30.889 O.3 0.0 **** -0.0
8127 O 17.681 31.349 12.009 O.3 0.0 **** -0.0
8128 O 28.056 40.382 15.731 O.3 0.0 **** -0.0
8129 O 40.717 26.055 10.136 O.3 0.0 **** -0.0
8130 O 15.951 34.036 18.412 O.3 0.0 **** -0.0
8131 O 73.476 23.938 2.197 O.3 0.0 **** -0.0
8132 O 36.588 44.587 -9.195 O.3 0.0 **** -0.0
8133 O 29.867 19.262 9.703 O.3 0.0 **** -0.0
8134 O 41.917 31.474 8.28 O.3 0.0 **** -0.0
8135 O 49.15 42.359 6.785 O.3 0.0 **** -0.0
8136 O 44.9 26.547 44.924 O.3 0.0 **** -0.0
8137 O 27.062 30.108 -0.772 O.3 0.0 **** -0.0
8138 O 29.358 46.669 19.167 O.3 0.0 **** -0.0
8139 O 44.575 44.277 -23.742 O.3 0.0 **** -0.0
8140 O 32.547 26.75 8.908 O.3 0.0 **** -0.0
8141 O 65.478 47.733 14.239 O.3 0.0 **** -0.0
8142 O 55.374 20.585 23.658 O.3 0.0 **** -0.0
8143 O 27.707 25.613 39.633 O.3 0.0 **** -0.0
8144 O 27.505 39.628 -11.541 O.3 0.0 **** -0.0
8145 O 30.034 39.632 46.254 O.3 0.0 **** -0.0
8146 O 21.409 23.668 33.892 O.3 0.0 **** -0.0
8147 O 34.699 21.54 41.626 O.3 0.0 **** -0.0
8148 O 27.048 42.508 -5.247 O.3 0.0 **** -0.0
8149 O 14.987 24.418 48.972 O.3 0.0 **** -0.0
8150 O 39.943 49.103 43.263 O.3 0.0 **** -0.0
8151 O 17.444 38.114 19.304 O.3 0.0 **** -0.0
8152 O 37.634 23.378 26.006 O.3 0.0 **** -0.0
8153 O 25.367 45.682 -16.199 O.3 0.0 **** -0.0
8154 O 56.409 5.915 -3.237 O.3 0.0 **** -0.0
8155 O 47.825 53.125 19.786 O.3 0.0 **** -0.0
8156 O 54.754 22.976 1.725 O.3 0.0 **** -0.0
8157 O 50.872 53.209 18.01 O.3 0.0 **** -0.0
8158 O 44.28 18.864 4.059 O.3 0.0 **** -0.0
8159 O 50.696 59.24 16.626 O.3 0.0 **** -0.0
8160 O 63.474 45.341 24.114 O.3 0.0 **** -0.0
8161 O 31.271 53.669 41.756 O.3 0.0 **** -0.0
8162 O 40.573 37.061 1.032 O.3 0.0 **** -0.0
8163 O 37.854 26.877 11.374 O.3 0.0 **** -0.0
8164 O 32.753 34.499 -5.528 O.3 0.0 **** -0.0
8165 O 43.005 16.333 3.184 O.3 0.0 **** -0.0
8166 O 46.378 38.358 12.876 O.3 0.0 **** -0.0
8167 O 38.082 14.82 -2.443 O.3 0.0 **** -0.0
8168 O 38.412 30.202 29.252 O.3 0.0 **** -0.0
8169 O 77.209 19.758 6.973 O.3 0.0 **** -0.0
8170 O 33.48 13.708 24.028 O.3 0.0 **** -0.0
8171 O 62.798 21.721 5.251 O.3 0.0 **** -0.0
8172 O 27.5 37.455 47.888 O.3 0.0 **** -0.0
8173 O 21.552 41.287 12.596 O.3 0.0 **** -0.0
8174 O 27.501 20.572 -10.707 O.3 0.0 **** -0.0
8175 O 16.682 32.877 24.864 O.3 0.0 **** -0.0
8176 O 52.622 20.614 -26.861 O.3 0.0 **** -0.0
8177 O 52.162 25.034 -6.702 O.3 0.0 **** -0.0
8178 O 27.877 41.086 37.438 O.3 0.0 **** -0.0
8179 O 56.963 20.333 28.506 O.3 0.0 **** -0.0
8180 O 28.324 35.092 26.015 O.3 0.0 **** -0.0
8181 O 41.193 15.987 5.947 O.3 0.0 **** -0.0
8182 O 28.98 18.197 -9.104 O.3 0.0 **** -0.0
8183 O 42.172 17.489 -3.5 O.3 0.0 **** -0.0
8184 O 48.369 23.539 43.93 O.3 0.0 **** -0.0
8185 O 47.593 46.984 26.183 O.3 0.0 **** -0.0
8186 O 33.578 34.134 -23.467 O.3 0.0 **** -0.0
8187 O 35.968 12.611 31.938 O.3 0.0 **** -0.0
8188 O 24.516 52.859 42.012 O.3 0.0 **** -0.0
8189 O 18.717 35.821 18.373 O.3 0.0 **** -0.0
8190 O 39.773 17.247 -2.338 O.3 0.0 **** -0.0
8191 O 66.553 36.565 27.927 O.3 0.0 **** -0.0
8192 O 38.913 17.022 7.656 O.3 0.0 **** -0.0
8193 O 50.113 38.969 -8.749 O.3 0.0 **** -0.0
8194 O 38.318 25.523 47.947 O.3 0.0 **** -0.0
8195 O 31.776 55.054 27.731 O.3 0.0 **** -0.0
8196 O 37.75 7.595 -1.055 O.3 0.0 **** -0.0
8197 O 31.821 47.818 -14.319 O.3 0.0 **** -0.0
8198 O 55.181 31.873 18.921 O.3 0.0 **** -0.0
8199 O 75.234 24.439 23.282 O.3 0.0 **** -0.0
8200 O 59.914 5.862 27.259 O.3 0.0 **** -0.0
8201 O 34.229 15.258 33.796 O.3 0.0 **** -0.0
8202 O 28.484 28.546 1.628 O.3 0.0 **** -0.0
8203 O 46.489 1.154 -13.923 O.3 0.0 **** -0.0
8204 O 64.488 51.629 17.05 O.3 0.0 **** -0.0
8205 O 58.048 12.639 3.446 O.3 0.0 **** -0.0
8206 O 38.45 43.384 48.341 O.3 0.0 **** -0.0
8207 O 58.699 36.301 56.788 O.3 0.0 **** -0.0
8208 O 54.582 32.691 43.216 O.3 0.0 **** -0.0
8209 O 51.431 15.733 16.178 O.3 0.0 **** -0.0
8210 O 63.699 47.892 32.502 O.3 0.0 **** -0.0
8211 O 27.544 33.895 28.25 O.3 0.0 **** -0.0
8212 O 24.995 42.054 38.459 O.3 0.0 **** -0.0
8213 O 53.082 27.27 42.757 O.3 0.0 **** -0.0
8214 O 44.982 17.298 51.965 O.3 0.0 **** -0.0
8215 O 54.87 12.021 15.5 O.3 0.0 **** -0.0
8216 O 35.79 32.257 41.175 O.3 0.0 **** -0.0
8217 O 41.901 48.885 -8.527 O.3 0.0 **** -0.0
8218 O 61.126 36.482 22.907 O.3 0.0 **** -0.0
8219 O 34.965 25.693 -14.094 O.3 0.0 **** -0.0
8220 O 33.476 45.151 -18.906 O.3 0.0 **** -0.0
8221 O 49.979 16.223 13.783 O.3 0.0 **** -0.0
8222 O 65.766 21.383 -0.626 O.3 0.0 **** -0.0
8223 O 35.132 10.715 -8.198 O.3 0.0 **** -0.0
8224 O 78.607 16.192 14.339 O.3 0.0 **** -0.0
8225 O 51.278 43.527 7.103 O.3 0.0 **** -0.0
8226 O 30.904 58.166 22.092 O.3 0.0 **** -0.0
8227 O 40.359 44.429 -26.009 O.3 0.0 **** -0.0
8228 O 34.148 32.248 18.718 O.3 0.0 **** -0.0
8229 O 27.972 42.294 -12.886 O.3 0.0 **** -0.0
8230 O 37.589 40.877 17.373 O.3 0.0 **** -0.0
8231 O 62.202 36.938 35.369 O.3 0.0 **** -0.0
8232 O 62.969 28.055 34.076 O.3 0.0 **** -0.0
8233 O 37.065 29.627 -12.846 O.3 0.0 **** -0.0
8234 O 53.205 8.899 -4.52 O.3 0.0 **** -0.0
8235 O 35.105 49.587 -14.289 O.3 0.0 **** -0.0
8236 O 51.326 15.766 39.093 O.3 0.0 **** -0.0
8237 O 67.286 20.783 29.782 O.3 0.0 **** -0.0
8238 O 62.836 27.242 16.675 O.3 0.0 **** -0.0
8239 O 27.637 31.848 7.979 O.3 0.0 **** -0.0
8240 O 58.099 22.767 63.07 O.3 0.0 **** -0.0
8241 O 8.52 38.187 41.049 O.3 0.0 **** -0.0
8242 O 32.141 27.996 -11.725 O.3 0.0 **** -0.0
8243 O 51.158 43.058 2.236 O.3 0.0 **** -0.0
8244 O 17.671 33.848 39.252 O.3 0.0 **** -0.0
8245 O 41.269 42.539 -4.389 O.3 0.0 **** -0.0
8246 O 21.272 47.553 41.871 O.3 0.0 **** -0.0
8247 O 41.53 45.398 17.299 O.3 0.0 **** -0.0
8248 O 57.427 17.724 38.689 O.3 0.0 **** -0.0
8249 O 29.621 44.376 -11.799 O.3 0.0 **** -0.0
8250 O 75.411 29.058 19.49 O.3 0.0 **** -0.0
8251 O 47.492 59.297 24.927 O.3 0.0 **** -0.0
8252 O 12.852 33.999 42.423 O.3 0.0 **** -0.0
8253 O 16.138 27.844 26.84 O.3 0.0 **** -0.0
8254 O 57.111 15.084 30.447 O.3 0.0 **** -0.0
8255 O 35.064 31.587 -34.251 O.3 0.0 **** -0.0
8256 O 72.0 28.653 47.859 O.3 0.0 **** -0.0
8257 O 27.814 56.833 28.288 O.3 0.0 **** -0.0
8258 O 20.018 52.696 33.094 O.3 0.0 **** -0.0
8259 O 37.368 35.237 -33.692 O.3 0.0 **** -0.0
8260 O 35.604 52.79 25.466 O.3 0.0 **** -0.0
8261 O 58.68 26.473 24.419 O.3 0.0 **** -0.0
8262 O 19.64 32.105 23.612 O.3 0.0 **** -0.0
8263 O 40.073 18.75 9.292 O.3 0.0 **** -0.0
8264 O 38.811 23.735 50.014 O.3 0.0 **** -0.0
8265 O 58.076 43.405 36.681 O.3 0.0 **** -0.0
8266 O 27.835 44.126 45.262 O.3 0.0 **** -0.0
8267 O 4.168 38.252 40.818 O.3 0.0 **** -0.0
8268 O 33.214 29.406 -14.274 O.3 0.0 **** -0.0
8269 O 55.615 19.294 12.38 O.3 0.0 **** -0.0
8270 O 33.659 22.245 32.129 O.3 0.0 **** -0.0
8271 O 23.593 50.069 33.395 O.3 0.0 **** -0.0
8272 O 36.967 32.917 -35.397 O.3 0.0 **** -0.0
8273 O 39.994 16.234 23.42 O.3 0.0 **** -0.0
8274 O 45.66 30.099 64.678 O.3 0.0 **** -0.0
8275 O 29.208 50.087 42.426 O.3 0.0 **** -0.0
8276 O 56.517 40.259 4.293 O.3 0.0 **** -0.0
8277 O 31.271 28.19 -22.203 O.3 0.0 **** -0.0
8278 O 46.732 58.704 21.783 O.3 0.0 **** -0.0
8279 O 34.806 45.694 46.752 O.3 0.0 **** -0.0
8280 O 50.143 9.286 1.911 O.3 0.0 **** -0.0
8281 O 57.41 48.344 31.539 O.3 0.0 **** -0.0
8282 O 55.878 12.549 11.191 O.3 0.0 **** -0.0
8283 O 31.237 46.64 17.203 O.3 0.0 **** -0.0
8284 O 31.529 15.062 12.153 O.3 0.0 **** -0.0
8285 O 63.096 8.863 10.866 O.3 0.0 **** -0.0
8286 O 48.175 41.43 -22.721 O.3 0.0 **** -0.0
8287 O 54.175 31.123 4.049 O.3 0.0 **** -0.0
8288 O 38.407 44.237 -24.539 O.3 0.0 **** -0.0
8289 O 59.055 28.627 60.303 O.3 0.0 **** -0.0
8290 O 35.462 31.333 46.264 O.3 0.0 **** -0.0
8291 O 43.931 33.822 -30.705 O.3 0.0 **** -0.0
8292 O 63.358 36.522 42.317 O.3 0.0 **** -0.0
8293 O 29.51 15.52 15.21 O.3 0.0 **** -0.0
8294 O 45.392 25.394 6.19 O.3 0.0 **** -0.0
8295 O 40.597 43.975 -2.179 O.3 0.0 **** -0.0
8296 O 58.344 17.146 28.425 O.3 0.0 **** -0.0
8297 O 35.23 22.233 2.637 O.3 0.0 **** -0.0
8298 O 40.462 43.558 -28.597 O.3 0.0 **** -0.0
8299 O 11.606 39.726 24.563 O.3 0.0 **** -0.0
8300 O 11.686 44.812 32.62 O.3 0.0 **** -0.0
8301 O 71.429 12.584 20.701 O.3 0.0 **** -0.0
8302 O 8.166 45.228 36.111 O.3 0.0 **** -0.0
8303 O 66.999 21.09 44.255 O.3 0.0 **** -0.0
8304 O 13.552 19.839 55.368 O.3 0.0 **** -0.0
8305 O 16.3 29.294 23.833 O.3 0.0 **** -0.0
8306 O 53.118 27.145 62.679 O.3 0.0 **** -0.0
8307 O 21.451 38.294 12.321 O.3 0.0 **** -0.0
8308 O 29.773 34.13 -2.528 O.3 0.0 **** -0.0
8309 O 29.819 44.421 -0.369 O.3 0.0 **** -0.0
8310 O 30.59 38.252 12.764 O.3 0.0 **** -0.0
8311 O 69.517 23.683 30.112 O.3 0.0 **** -0.0
8312 O 34.726 29.648 52.312 O.3 0.0 **** -0.0
8313 O 51.556 40.338 -17.517 O.3 0.0 **** -0.0
8314 O 25.009 54.194 16.816 O.3 0.0 **** -0.0
8315 O 49.386 33.631 56.585 O.3 0.0 **** -0.0
8316 O 76.021 22.101 1.56 O.3 0.0 **** -0.0
8317 O 50.554 41.683 -15.338 O.3 0.0 **** -0.0
8318 O 19.291 37.12 10.918 O.3 0.0 **** -0.0
8319 O 61.851 19.541 28.439 O.3 0.0 **** -0.0
8320 O 43.329 54.255 23.698 O.3 0.0 **** -0.0
8321 O 50.134 0.678 -19.722 O.3 0.0 **** -0.0
8322 O 68.353 10.403 22.105 O.3 0.0 **** -0.0
8323 O 11.785 23.462 25.217 O.3 0.0 **** -0.0
8324 O 63.086 37.45 20.488 O.3 0.0 **** -0.0
8325 O 40.721 54.048 32.098 O.3 0.0 **** -0.0
8326 O 56.174 42.678 8.401 O.3 0.0 **** -0.0
8327 O 71.855 4.534 13.361 O.3 0.0 **** -0.0
8328 O 9.352 30.82 43.084 O.3 0.0 **** -0.0
8329 O 60.467 5.429 19.357 O.3 0.0 **** -0.0
8330 O 39.414 55.631 24.602 O.3 0.0 **** -0.0
8331 O 63.787 34.933 53.901 O.3 0.0 **** -0.0
8332 O 37.961 47.201 14.638 O.3 0.0 **** -0.0
8333 O 40.925 55.754 34.694 O.3 0.0 **** -0.0
8334 O 42.141 15.888 21.978 O.3 0.0 **** -0.0
8335 O 50.706 6.933 18.419 O.3 0.0 **** -0.0
8336 O 23.561 23.39 -1.714 O.3 0.0 **** -0.0
8337 O 66.7 43.01 17.062 O.3 0.0 **** -0.0
8338 O 50.449 35.708 56.425 O.3 0.0 **** -0.0
8339 O 32.668 38.667 51.413 O.3 0.0 **** -0.0
8340 O 76.368 8.719 16.43 O.3 0.0 **** -0.0
8341 O 65.205 27.75 16.647 O.3 0.0 **** -0.0
8342 O 36.987 31.869 38.798 O.3 0.0 **** -0.0
8343 O 72.998 9.092 20.803 O.3 0.0 **** -0.0
8344 O 48.837 52.45 36.705 O.3 0.0 **** -0.0
8345 O 45.593 33.1 53.029 O.3 0.0 **** -0.0
8346 O 73.087 4.157 1.897 O.3 0.0 **** -0.0
8347 O 74.071 10.174 23.981 O.3 0.0 **** -0.0
8348 O 33.068 11.892 -23.171 O.3 0.0 **** -0.0
8349 O 70.96 33.014 51.744 O.3 0.0 **** -0.0
8350 O 25.037 24.311 -7.451 O.3 0.0 **** -0.0
8351 O 46.907 34.897 55.707 O.3 0.0 **** -0.0
8352 O 47.79 15.243 54.765 O.3 0.0 **** -0.0
8353 O 75.367 4.538 8.475 O.3 0.0 **** -0.0
8354 O 61.712 52.149 25.604 O.3 0.0 **** -0.0
8355 O 69.483 34.471 32.823 O.3 0.0 **** -0.0
8356 O 37.412 42.033 -27.472 O.3 0.0 **** -0.0
8357 O 42.149 43.011 48.774 O.3 0.0 **** -0.0
8358 O 17.903 30.635 19.742 O.3 0.0 **** -0.0
8359 O 56.93 30.862 4.432 O.3 0.0 **** -0.0
8360 O 29.951 16.439 8.585 O.3 0.0 **** -0.0
8361 O 65.084 6.762 11.401 O.3 0.0 **** -0.0
8362 O 44.273 22.818 42.261 O.3 0.0 **** -0.0
8363 O 60.222 47.958 33.104 O.3 0.0 **** -0.0
8364 O 36.058 23.847 47.624 O.3 0.0 **** -0.0
8365 O 15.62 51.933 28.899 O.3 0.0 **** -0.0
8366 O 35.979 14.1 -1.703 O.3 0.0 **** -0.0
8367 O 55.271 65.085 12.109 O.3 0.0 **** -0.0
8368 O 29.017 27.649 -23.175 O.3 0.0 **** -0.0
8369 O 66.921 34.794 25.706 O.3 0.0 **** -0.0
8370 O 41.767 15.908 59.627 O.3 0.0 **** -0.0
8371 O 76.619 8.894 23.102 O.3 0.0 **** -0.0
8372 O 47.137 14.533 15.984 O.3 0.0 **** -0.0
8373 O 61.139 10.667 7.79 O.3 0.0 **** -0.0
8374 O 39.634 22.872 -24.729 O.3 0.0 **** -0.0
8375 O 29.166 32.735 5.633 O.3 0.0 **** -0.0
8376 O 16.045 43.498 44.085 O.3 0.0 **** -0.0
8377 O 29.214 46.242 -13.803 O.3 0.0 **** -0.0
8378 O 58.769 34.429 6.612 O.3 0.0 **** -0.0
8379 O 42.311 46.946 46.983 O.3 0.0 **** -0.0
8380 O 63.465 49.431 21.161 O.3 0.0 **** -0.0
8381 O 59.192 18.319 34.747 O.3 0.0 **** -0.0
8382 O 42.271 48.693 45.352 O.3 0.0 **** -0.0
8383 O 49.566 48.408 44.586 O.3 0.0 **** -0.0
8384 O 55.357 37.744 48.832 O.3 0.0 **** -0.0
8385 O 40.204 41.57 49.292 O.3 0.0 **** -0.0
8386 O 27.287 55.497 31.84 O.3 0.0 **** -0.0
8387 O 45.987 24.125 44.409 O.3 0.0 **** -0.0
8388 O 35.629 21.735 46.45 O.3 0.0 **** -0.0
8389 O 32.526 26.934 -20.739 O.3 0.0 **** -0.0
8390 O 53.449 13.283 12.025 O.3 0.0 **** -0.0
8391 O 27.259 32.022 -23.107 O.3 0.0 **** -0.0
8392 O 54.428 38.467 45.65 O.3 0.0 **** -0.0
8393 O 61.828 18.24 36.137 O.3 0.0 **** -0.0
8394 O 29.133 40.809 2.383 O.3 0.0 **** -0.0
8395 O 58.15 38.327 41.498 O.3 0.0 **** -0.0
8396 O 37.983 15.926 9.928 O.3 0.0 **** -0.0
8397 O 52.867 27.379 -2.769 O.3 0.0 **** -0.0
8398 O 62.133 27.929 13.871 O.3 0.0 **** -0.0
8399 O 59.688 35.888 45.422 O.3 0.0 **** -0.0
8400 O 62.654 37.278 37.964 O.3 0.0 **** -0.0
8401 O 40.432 14.306 58.444 O.3 0.0 **** -0.0
8402 O 65.38 19.089 34.896 O.3 0.0 **** -0.0
8403 O 40.11 19.923 65.675 O.3 0.0 **** -0.0
8404 O 45.1 44.564 8.76 O.3 0.0 **** -0.0
8405 O 64.8 5.415 13.483 O.3 0.0 **** -0.0
8406 O 54.362 12.556 5.972 O.3 0.0 **** -0.0
8407 O 53.521 16.463 50.961 O.3 0.0 **** -0.0
8408 O 7.998 34.854 26.273 O.3 0.0 **** -0.0
8409 O 51.426 49.955 10.16 O.3 0.0 **** -0.0
8410 O 30.252 43.508 46.247 O.3 0.0 **** -0.0
8411 O 75.857 7.614 20.695 O.3 0.0 **** -0.0
8412 O 7.576 37.141 25.345 O.3 0.0 **** -0.0
8413 O 45.703 54.801 20.679 O.3 0.0 **** -0.0
8414 O 59.491 19.902 23.091 O.3 0.0 **** -0.0
8415 O 64.551 24.214 33.784 O.3 0.0 **** -0.0
8416 O 68.22 24.021 38.128 O.3 0.0 **** -0.0
8417 O 15.178 35.054 39.055 O.3 0.0 **** -0.0
8418 O 11.456 22.493 28.297 O.3 0.0 **** -0.0
8419 O 33.147 9.881 -4.405 O.3 0.0 **** -0.0
8420 O 43.378 40.376 52.365 O.3 0.0 **** -0.0
8421 O 69.183 34.882 29.278 O.3 0.0 **** -0.0
8422 O 66.631 22.213 32.423 O.3 0.0 **** -0.0
8423 O 13.721 28.657 25.952 O.3 0.0 **** -0.0
8424 O 13.245 43.839 24.873 O.3 0.0 **** -0.0
8425 O 34.469 33.143 56.292 O.3 0.0 **** -0.0
8426 O 52.028 15.959 9.089 O.3 0.0 **** -0.0
8427 O 65.753 28.434 34.568 O.3 0.0 **** -0.0
8428 O 63.079 33.314 12.241 O.3 0.0 **** -0.0
8429 O 59.146 36.675 7.107 O.3 0.0 **** -0.0
8430 O 69.528 21.466 48.233 O.3 0.0 **** -0.0
8431 O 52.192 17.02 11.857 O.3 0.0 **** -0.0
8432 O 71.672 13.563 26.062 O.3 0.0 **** -0.0
8433 O 39.766 43.258 16.305 O.3 0.0 **** -0.0
8434 O 25.333 56.426 18.12 O.3 0.0 **** -0.0
8435 O 63.772 49.603 26.369 O.3 0.0 **** -0.0
8436 O 37.284 51.515 -14.687 O.3 0.0 **** -0.0
8437 O 71.555 23.804 28.826 O.3 0.0 **** -0.0
8438 O 56.84 17.223 32.151 O.3 0.0 **** -0.0
8439 O 66.667 26.144 33.96 O.3 0.0 **** -0.0
8440 O 13.667 32.559 24.748 O.3 0.0 **** -0.0
8441 O 27.884 34.054 55.381 O.3 0.0 **** -0.0
8442 O 60.169 56.635 25.463 O.3 0.0 **** -0.0
8443 O 38.453 32.884 53.06 O.3 0.0 **** -0.0
8444 O 44.691 14.967 10.553 O.3 0.0 **** -0.0
8445 O 58.188 26.888 8.599 O.3 0.0 **** -0.0
8446 O 21.159 38.072 9.782 O.3 0.0 **** -0.0
8447 O 59.832 15.91 26.715 O.3 0.0 **** -0.0
8448 O 26.302 32.985 -1.274 O.3 0.0 **** -0.0
8449 O 43.508 17.473 6.942 O.3 0.0 **** -0.0
8450 O 32.472 28.473 56.201 O.3 0.0 **** -0.0
8451 O 28.746 36.603 3.366 O.3 0.0 **** -0.0
8452 O 57.792 23.939 24.357 O.3 0.0 **** -0.0
8453 O 47.805 50.236 40.695 O.3 0.0 **** -0.0
8454 O 46.718 44.417 7.035 O.3 0.0 **** -0.0
8455 O 40.06 43.338 13.898 O.3 0.0 **** -0.0
8456 O 28.345 52.923 44.443 O.3 0.0 **** -0.0
8457 O 41.483 46.83 15.231 O.3 0.0 **** -0.0
8458 O 60.291 18.144 25.241 O.3 0.0 **** -0.0
8459 O 55.22 32.019 62.815 O.3 0.0 **** -0.0
8460 O 48.772 15.973 51.493 O.3 0.0 **** -0.0
8461 O 28.595 45.337 -2.685 O.3 0.0 **** -0.0
8462 O 23.547 41.503 10.401 O.3 0.0 **** -0.0
8463 O 14.03 30.041 23.906 O.3 0.0 **** -0.0
8464 O 70.793 10.602 23.405 O.3 0.0 **** -0.0
8465 O 62.438 47.778 22.631 O.3 0.0 **** -0.0
8466 O 43.756 15.28 8.307 O.3 0.0 **** -0.0
8467 O 41.44 45.011 50.633 O.3 0.0 **** -0.0
8468 O 31.458 56.78 42.368 O.3 0.0 **** -0.0
8469 O 42.016 14.131 7.301 O.3 0.0 **** -0.0
8470 O 62.24 54.581 23.199 O.3 0.0 **** -0.0
8471 O 56.485 37.623 44.771 O.3 0.0 **** -0.0
8472 O 52.409 15.4 52.889 O.3 0.0 **** -0.0
8473 O 57.09 12.253 -14.905 O.3 0.0 **** -0.0
8474 O 73.199 25.59 29.299 O.3 0.0 **** -0.0
8475 O 39.964 41.534 52.168 O.3 0.0 **** -0.0
8476 O 49.988 14.196 53.276 O.3 0.0 **** -0.0
8477 O 64.667 50.475 23.226 O.3 0.0 **** -0.0
@<TRIPOS>BOND
1 1 2 1
2 2 3 1
3 3 4 2
4 2 5 1
5 5 6 1
6 7 8 1
7 8 9 1
8 9 10 2
9 8 11 1
10 11 12 1
11 12 13 1
12 12 14 1
13 15 16 1
14 16 17 1
15 17 18 2
16 16 19 1
17 19 20 1
18 20 21 1
19 21 22 am
20 21 23 am
21 24 25 1
22 25 26 1
23 26 27 2
24 25 28 1
25 28 29 1
26 29 30 1
27 29 31 1
28 32 33 1
29 33 34 1
30 34 35 2
31 36 37 1
32 37 38 1
33 38 39 2
34 37 40 1
35 41 42 1
36 42 43 1
37 43 44 2
38 42 45 1
39 46 47 1
40 47 48 1
41 48 49 2
42 47 50 1
43 50 51 1
44 51 52 am
45 51 53 am
46 54 55 1
47 55 56 1
48 56 57 2
49 55 58 1
50 58 59 1
51 58 60 1
52 59 61 1
53 62 63 1
54 63 64 1
55 64 65 2
56 63 66 1
57 66 67 1
58 67 68 1
59 68 69 2
60 68 70 1
61 71 72 1
62 72 73 1
63 73 74 2
64 72 75 1
65 75 76 1
66 76 77 am
67 76 78 am
68 79 80 1
69 80 81 1
70 81 82 2
71 80 83 1
72 83 84 1
73 84 85 1
74 84 86 1
75 87 88 1
76 88 89 1
77 89 90 2
78 88 91 1
79 91 92 1
80 92 93 1
81 93 94 am
82 93 95 am
83 96 97 1
84 97 98 1
85 98 99 2
86 97 100 1
87 100 101 1
88 102 103 1
89 103 104 1
90 104 105 2
91 103 106 1
92 106 107 1
93 107 108 ar
94 107 109 ar
95 108 110 ar
96 109 111 ar
97 110 112 ar
98 111 112 ar
99 113 114 1
100 114 115 1
101 115 116 2
102 114 117 1
103 117 118 1
104 118 119 1
105 119 120 am
106 119 121 am
107 122 123 1
108 123 124 1
109 124 125 2
110 123 126 1
111 127 128 1
112 128 129 1
113 129 130 2
114 131 132 1
115 132 133 1
116 133 134 2
117 132 135 1
118 135 136 1
119 136 137 1
120 137 138 1
121 138 139 1
122 139 140 am
123 139 141 am
124 142 143 1
125 143 144 1
126 144 145 2
127 146 147 1
128 147 148 1
129 148 149 2
130 147 150 1
131 151 152 1
132 152 153 1
133 153 154 2
134 152 155 1
135 155 156 1
136 156 157 1
137 156 158 1
138 159 160 1
139 160 161 1
140 161 162 2
141 160 163 1
142 163 164 1
143 164 165 1
144 165 159 1
145 166 167 1
146 167 168 1
147 168 169 2
148 167 170 1
149 171 172 1
150 172 173 1
151 173 174 2
152 172 175 1
153 175 176 1
154 176 177 1
155 177 178 1
156 178 179 1
157 179 180 am
158 179 181 am
159 182 183 1
160 183 184 1
161 184 185 2
162 183 186 1
163 187 188 1
164 188 189 1
165 189 190 2
166 188 191 1
167 191 192 1
168 192 193 ar
169 192 194 ar
170 193 195 ar
171 194 196 ar
172 195 197 ar
173 196 197 ar
174 197 198 1
175 199 200 1
176 200 201 1
177 201 202 2
178 200 203 1
179 203 204 1
180 204 205 1
181 204 206 1
182 207 208 1
183 208 209 1
184 209 210 2
185 208 211 1
186 211 212 1
187 212 213 1
188 213 214 2
189 213 215 1
190 216 217 1
191 217 218 1
192 218 219 2
193 217 220 1
194 220 221 1
195 222 223 1
196 223 224 1
197 224 225 2
198 223 226 1
199 226 227 1
200 227 228 am
201 227 229 am
202 230 231 1
203 231 232 1
204 232 233 2
205 231 234 1
206 235 236 1
207 236 237 1
208 237 238 2
209 236 239 1
210 239 240 1
211 240 241 1
212 241 235 1
213 242 243 1
214 243 244 1
215 244 245 2
216 243 246 1
217 246 247 1
218 247 248 1
219 248 249 1
220 249 250 1
221 250 251 am
222 250 252 am
223 253 254 1
224 254 255 1
225 255 256 2
226 254 257 1
227 257 258 1
228 258 259 1
229 258 260 1
230 261 262 1
231 262 263 1
232 263 264 2
233 262 265 1
234 265 266 1
235 267 268 1
236 268 269 1
237 269 270 2
238 268 271 1
239 271 272 1
240 272 273 1
241 272 274 1
242 275 276 1
243 276 277 1
244 277 278 2
245 276 279 1
246 279 280 1
247 280 281 2
248 280 282 1
249 283 284 1
250 284 285 1
251 285 286 2
252 287 288 1
253 288 289 1
254 289 290 2
255 288 291 1
256 291 292 1
257 292 293 1
258 293 294 am
259 293 295 am
260 296 297 1
261 297 298 1
262 298 299 2
263 297 300 1
264 300 301 1
265 301 302 2
266 301 303 1
267 302 304 1
268 303 305 1
269 304 305 1
270 303 306 2
271 305 307 2
272 306 308 1
273 307 309 1
274 308 309 2
275 310 311 1
276 311 312 1
277 312 313 2
278 311 314 1
279 314 315 1
280 315 316 1
281 316 317 2
282 316 318 1
283 319 320 1
284 320 321 1
285 321 322 2
286 320 323 1
287 323 324 1
288 324 325 ar
289 324 326 ar
290 325 327 ar
291 326 328 ar
292 327 329 ar
293 328 329 ar
294 330 331 1
295 331 332 1
296 332 333 2
297 331 334 1
298 334 335 1
299 335 336 1
300 336 337 1
301 337 338 1
302 338 339 am
303 338 340 am
304 341 342 1
305 342 343 1
306 343 344 2
307 342 345 1
308 345 346 1
309 346 347 1
310 346 348 1
311 349 350 1
312 350 351 1
313 351 352 2
314 350 353 1
315 353 354 1
316 355 356 1
317 356 357 1
318 357 358 2
319 356 359 1
320 359 360 1
321 360 361 1
322 361 355 1
323 362 363 1
324 363 364 1
325 364 365 2
326 366 367 1
327 367 368 1
328 368 369 2
329 367 370 1
330 370 371 1
331 372 373 1
332 373 374 1
333 374 375 2
334 373 376 1
335 376 377 1
336 377 378 1
337 378 379 1
338 379 380 1
339 380 381 am
340 380 382 am
341 383 384 1
342 384 385 1
343 385 386 2
344 384 387 1
345 387 388 1
346 387 389 1
347 390 391 1
348 391 392 1
349 392 393 2
350 391 394 1
351 395 396 1
352 396 397 1
353 397 398 2
354 396 399 1
355 399 400 1
356 400 401 1
357 401 395 1
358 402 403 1
359 403 404 1
360 404 405 2
361 403 406 1
362 406 407 1
363 407 408 am
364 407 409 am
365 410 411 1
366 411 412 1
367 412 413 2
368 411 414 1
369 414 415 1
370 415 416 am
371 415 417 am
372 418 419 1
373 419 420 1
374 420 421 2
375 422 423 1
376 423 424 1
377 424 425 2
378 423 426 1
379 426 427 1
380 427 428 2
381 427 429 1
382 428 430 1
383 429 431 1
384 430 431 1
385 429 432 2
386 431 433 2
387 432 434 1
388 433 435 1
389 434 435 2
390 436 437 1
391 437 438 1
392 438 439 2
393 437 440 1
394 440 441 1
395 441 442 1
396 442 443 2
397 442 444 1
398 445 446 1
399 446 447 1
400 447 448 2
401 446 449 1
402 449 450 1
403 450 451 1
404 450 452 1
405 453 454 1
406 454 455 1
407 455 456 2
408 457 458 1
409 458 459 1
410 459 460 2
411 458 461 1
412 461 462 1
413 462 463 1
414 463 464 am
415 463 465 am
416 466 467 1
417 467 468 1
418 468 469 2
419 467 470 1
420 471 472 1
421 472 473 1
422 473 474 2
423 472 475 1
424 475 476 1
425 476 477 1
426 476 478 1
427 479 480 1
428 480 481 1
429 481 482 2
430 480 483 1
431 483 484 1
432 484 485 2
433 484 486 1
434 487 488 1
435 488 489 1
436 489 490 2
437 491 492 1
438 492 493 1
439 493 494 2
440 492 495 1
441 495 496 1
442 496 497 ar
443 496 498 ar
444 497 499 ar
445 498 500 ar
446 499 501 ar
447 500 501 ar
448 502 503 1
449 503 504 1
450 504 505 2
451 503 506 1
452 506 507 1
453 507 508 1
454 508 509 am
455 508 510 am
456 511 512 1
457 512 513 1
458 513 514 2
459 512 515 1
460 515 516 1
461 517 518 1
462 518 519 1
463 519 520 2
464 518 521 1
465 521 522 1
466 522 523 1
467 522 524 1
468 525 526 1
469 526 527 1
470 527 528 2
471 526 529 1
472 529 530 1
473 530 531 1
474 531 525 1
475 532 533 1
476 533 534 1
477 534 535 2
478 533 536 1
479 536 537 1
480 536 538 1
481 539 540 1
482 540 541 1
483 541 542 2
484 540 543 1
485 543 544 1
486 544 545 1
487 545 539 1
488 546 547 1
489 547 548 1
490 548 549 2
491 547 550 1
492 550 551 1
493 552 553 1
494 553 554 1
495 554 555 2
496 553 556 1
497 556 557 1
498 558 559 1
499 559 560 1
500 560 561 2
501 559 562 1
502 562 563 1
503 563 564 2
504 563 565 1
505 564 566 1
506 565 567 1
507 566 567 1
508 565 568 2
509 567 569 2
510 568 570 1
511 569 571 1
512 570 571 2
513 572 573 1
514 573 574 1
515 574 575 2
516 573 576 1
517 576 577 1
518 577 578 1
519 578 572 1
520 579 580 1
521 580 581 1
522 581 582 2
523 580 583 1
524 583 584 1
525 584 585 1
526 585 586 1
527 587 588 1
528 588 589 1
529 589 590 2
530 588 591 1
531 591 592 1
532 592 593 1
533 592 594 2
534 593 595 1
535 594 596 1
536 595 596 2
537 597 598 1
538 598 599 1
539 599 600 2
540 601 602 1
541 602 603 1
542 603 604 2
543 602 605 1
544 605 606 1
545 606 607 1
546 606 608 2
547 607 609 1
548 608 610 1
549 609 610 2
550 611 612 1
551 612 613 1
552 613 614 2
553 615 616 1
554 616 617 1
555 617 618 2
556 616 619 1
557 620 621 1
558 621 622 1
559 622 623 2
560 621 624 1
561 624 625 1
562 625 626 1
563 626 620 1
564 627 628 1
565 628 629 1
566 629 630 2
567 628 631 1
568 632 633 1
569 633 634 1
570 634 635 2
571 633 636 1
572 636 637 1
573 637 638 ar
574 637 639 ar
575 638 640 ar
576 639 641 ar
577 640 642 ar
578 641 642 ar
579 642 643 1
580 644 645 1
581 645 646 1
582 646 647 2
583 645 648 1
584 648 649 1
585 648 650 1
586 651 652 1
587 652 653 1
588 653 654 2
589 652 655 1
590 655 656 1
591 656 657 2
592 656 658 1
593 659 660 1
594 660 661 1
595 661 662 2
596 660 663 1
597 663 664 1
598 663 665 1
599 666 667 1
600 667 668 1
601 668 669 2
602 667 670 1
603 670 671 1
604 671 672 1
605 672 673 2
606 672 674 1
607 675 676 1
608 676 677 1
609 677 678 2
610 676 679 1
611 679 680 1
612 680 681 ar
613 680 682 ar
614 681 683 ar
615 682 684 ar
616 683 685 ar
617 684 685 ar
618 686 687 1
619 687 688 1
620 688 689 2
621 687 690 1
622 690 691 1
623 691 692 1
624 692 686 1
625 693 694 1
626 694 695 1
627 695 696 2
628 694 697 1
629 697 698 1
630 698 699 ar
631 698 700 ar
632 699 701 ar
633 700 702 ar
634 701 703 ar
635 702 703 ar
636 704 705 1
637 705 706 1
638 706 707 2
639 705 708 1
640 709 710 1
641 710 711 1
642 711 712 2
643 710 713 1
644 713 714 1
645 713 715 1
646 716 717 1
647 717 718 1
648 718 719 2
649 717 720 1
650 720 721 1
651 721 722 1
652 722 723 am
653 722 724 am
654 725 726 1
655 726 727 1
656 727 728 2
657 726 729 1
658 729 730 1
659 730 731 1
660 731 725 1
661 732 733 1
662 733 734 1
663 734 735 2
664 733 736 1
665 736 737 1
666 737 738 1
667 738 732 1
668 739 740 1
669 740 741 1
670 741 742 2
671 740 743 1
672 743 744 1
673 744 745 1
674 744 746 2
675 745 747 1
676 746 748 1
677 747 748 2
678 749 750 1
679 750 751 1
680 751 752 2
681 750 753 1
682 753 754 1
683 753 755 1
684 756 757 1
685 757 758 1
686 758 759 2
687 757 760 1
688 760 761 1
689 761 762 1
690 762 756 1
691 763 764 1
692 764 765 1
693 765 766 2
694 764 767 1
695 767 768 1
696 768 769 1
697 769 770 am
698 769 771 am
699 772 773 1
700 773 774 1
701 774 775 2
702 773 776 1
703 777 778 1
704 778 779 1
705 779 780 2
706 778 781 1
707 781 782 1
708 782 783 2
709 782 784 1
710 785 786 1
711 786 787 1
712 787 788 2
713 786 789 1
714 789 790 1
715 790 791 1
716 791 785 1
717 792 793 1
718 793 794 1
719 794 795 2
720 793 796 1
721 796 797 1
722 796 798 1
723 797 799 1
724 800 801 1
725 801 802 1
726 802 803 2
727 804 805 1
728 805 806 1
729 806 807 2
730 805 808 1
731 808 809 1
732 809 810 am
733 809 811 am
734 812 813 1
735 813 814 1
736 814 815 2
737 813 816 1
738 816 817 1
739 817 818 1
740 817 819 2
741 818 820 1
742 819 821 1
743 820 821 2
744 822 823 1
745 823 824 1
746 824 825 2
747 823 826 1
748 826 827 1
749 827 828 1
750 827 829 1
751 830 831 1
752 831 832 1
753 832 833 2
754 831 834 1
755 834 835 1
756 834 836 1
757 837 838 1
758 838 839 1
759 839 840 2
760 838 841 1
761 841 842 1
762 841 843 1
763 844 845 1
764 845 846 1
765 846 847 2
766 845 848 1
767 848 849 1
768 849 850 ar
769 849 851 ar
770 850 852 ar
771 851 853 ar
772 852 854 ar
773 853 854 ar
774 855 856 1
775 856 857 1
776 857 858 2
777 856 859 1
778 859 860 1
779 860 861 1
780 861 862 am
781 861 863 am
782 864 865 1
783 865 866 1
784 866 867 2
785 865 868 1
786 869 870 1
787 870 871 1
788 871 872 2
789 873 874 1
790 874 875 1
791 875 876 2
792 874 877 1
793 877 878 1
794 878 879 1
795 879 873 1
796 880 881 1
797 881 882 1
798 882 883 2
799 881 884 1
800 884 885 1
801 885 886 1
802 886 887 am
803 886 888 am
804 889 890 1
805 890 891 1
806 891 892 2
807 890 893 1
808 893 894 1
809 894 895 ar
810 894 896 ar
811 895 897 ar
812 896 898 ar
813 897 899 ar
814 898 899 ar
815 900 901 1
816 901 902 1
817 902 903 2
818 901 904 1
819 904 905 1
820 905 906 ar
821 905 907 ar
822 906 908 ar
823 907 909 ar
824 908 910 ar
825 909 910 ar
826 911 912 1
827 912 913 1
828 913 914 2
829 912 915 1
830 915 916 1
831 916 917 1
832 917 911 1
833 918 919 1
834 919 920 1
835 920 921 2
836 919 922 1
837 922 923 1
838 923 924 1
839 923 925 2
840 924 926 1
841 925 927 1
842 926 927 2
843 928 929 1
844 929 930 1
845 930 931 2
846 929 932 1
847 933 934 1
848 934 935 1
849 935 936 2
850 934 937 1
851 937 938 1
852 938 939 1
853 938 940 1
854 941 942 1
855 942 943 1
856 943 944 2
857 942 945 1
858 945 946 1
859 946 947 1
860 946 948 1
861 949 950 1
862 950 951 1
863 951 952 2
864 950 953 1
865 953 954 1
866 954 955 1
867 955 956 1
868 956 957 1
869 957 958 am
870 957 959 am
871 960 961 1
872 961 962 1
873 962 963 2
874 961 964 1
875 964 965 1
876 965 966 ar
877 965 967 ar
878 966 968 ar
879 967 969 ar
880 968 970 ar
881 969 970 ar
882 971 972 1
883 972 973 1
884 973 974 2
885 972 975 1
886 975 976 1
887 976 977 am
888 976 978 am
889 979 980 1
890 980 981 1
891 981 982 2
892 983 984 1
893 984 985 1
894 985 986 2
895 984 987 1
896 987 988 1
897 987 989 1
898 988 990 1
899 991 992 1
900 992 993 1
901 993 994 2
902 992 995 1
903 995 996 1
904 996 997 1
905 997 998 am
906 997 999 am
907 1000 1001 1
908 1001 1002 1
909 1002 1003 2
910 1001 1004 1
911 1004 1005 1
912 1006 1007 1
913 1007 1008 1
914 1008 1009 2
915 1007 1010 1
916 1011 1012 1
917 1012 1013 1
918 1013 1014 2
919 1015 1016 1
920 1016 1017 1
921 1017 1018 2
922 1016 1019 1
923 1019 1020 1
924 1019 1021 1
925 1022 1023 1
926 1023 1024 1
927 1024 1025 2
928 1023 1026 1
929 1026 1027 1
930 1026 1028 1
931 1029 1030 1
932 1030 1031 1
933 1031 1032 2
934 1030 1033 1
935 1033 1034 1
936 1034 1035 2
937 1034 1036 1
938 1035 1037 1
939 1036 1038 1
940 1037 1038 1
941 1036 1039 2
942 1038 1040 2
943 1039 1041 1
944 1040 1042 1
945 1041 1042 2
946 1043 1044 1
947 1044 1045 1
948 1045 1046 2
949 1044 1047 1
950 1047 1048 1
951 1048 1049 1
952 1048 1050 1
953 1051 1052 1
954 1052 1053 1
955 1053 1054 2
956 1052 1055 1
957 1055 1056 1
958 1056 1057 2
959 1056 1058 1
960 1059 1060 1
961 1060 1061 1
962 1061 1062 2
963 1063 1064 1
964 1064 1065 1
965 1065 1066 2
966 1064 1067 1
967 1067 1068 1
968 1067 1069 1
969 1070 1071 1
970 1071 1072 1
971 1072 1073 2
972 1071 1074 1
973 1074 1075 1
974 1075 1076 1
975 1076 1077 am
976 1076 1078 am
977 1079 1080 1
978 1080 1081 1
979 1081 1082 2
980 1080 1083 1
981 1083 1084 1
982 1084 1085 1
983 1084 1086 1
984 1087 1088 1
985 1088 1089 1
986 1089 1090 2
987 1091 1092 1
988 1092 1093 1
989 1093 1094 2
990 1092 1095 1
991 1095 1096 1
992 1095 1097 1
993 1098 1099 1
994 1099 1100 1
995 1100 1101 2
996 1099 1102 1
997 1102 1103 1
998 1102 1104 1
999 1105 1106 1
1000 1106 1107 1
1001 1107 1108 2
1002 1106 1109 1
1003 1109 1110 1
1004 1110 1111 1
1005 1111 1112 1
1006 1112 1113 1
1007 1113 1114 am
1008 1113 1115 am
1009 1116 1117 1
1010 1117 1118 1
1011 1118 1119 2
1012 1120 1121 1
1013 1121 1122 1
1014 1122 1123 2
1015 1121 1124 1
1016 1124 1125 1
1017 1126 1127 1
1018 1127 1128 1
1019 1128 1129 2
1020 1127 1130 1
1021 1130 1131 1
1022 1131 1132 1
1023 1132 1133 1
1024 1133 1134 1
1025 1134 1135 am
1026 1134 1136 am
1027 1137 1138 1
1028 1138 1139 1
1029 1139 1140 2
1030 1138 1141 1
1031 1141 1142 1
1032 1142 1143 1
1033 1142 1144 1
1034 1145 1146 1
1035 1146 1147 1
1036 1147 1148 2
1037 1146 1149 1
1038 1150 1151 1
1039 1151 1152 1
1040 1152 1153 2
1041 1151 1154 1
1042 1154 1155 1
1043 1155 1156 1
1044 1155 1157 2
1045 1156 1158 1
1046 1157 1159 1
1047 1158 1159 2
1048 1160 1161 1
1049 1161 1162 1
1050 1162 1163 2
1051 1161 1164 1
1052 1164 1165 1
1053 1165 1166 1
1054 1166 1167 am
1055 1166 1168 am
1056 1169 1170 1
1057 1170 1171 1
1058 1171 1172 2
1059 1170 1173 1
1060 1173 1174 1
1061 1174 1175 ar
1062 1174 1176 ar
1063 1175 1177 ar
1064 1176 1178 ar
1065 1177 1179 ar
1066 1178 1179 ar
1067 1180 1181 1
1068 1181 1182 1
1069 1182 1183 2
1070 1181 1184 1
1071 1184 1185 1
1072 1185 1186 am
1073 1185 1187 am
1074 1188 1189 1
1075 1189 1190 1
1076 1190 1191 2
1077 1189 1192 1
1078 1192 1193 1
1079 1192 1194 1
1080 1195 1196 1
1081 1196 1197 1
1082 1197 1198 2
1083 1196 1199 1
1084 1199 1200 1
1085 1201 1202 1
1086 1202 1203 1
1087 1203 1204 2
1088 1205 1206 1
1089 1206 1207 1
1090 1207 1208 2
1091 1206 1209 1
1092 1209 1210 1
1093 1209 1211 1
1094 1210 1212 1
1095 1213 1214 1
1096 1214 1215 1
1097 1215 1216 2
1098 1214 1217 1
1099 1217 1218 1
1100 1218 1219 1
1101 1218 1220 1
1102 1221 1222 1
1103 1222 1223 1
1104 1223 1224 2
1105 1222 1225 1
1106 1225 1226 1
1107 1226 1227 1
1108 1227 1228 am
1109 1227 1229 am
1110 1230 1231 1
1111 1231 1232 1
1112 1232 1233 2
1113 1231 1234 1
1114 1234 1235 1
1115 1235 1236 1
1116 1236 1237 2
1117 1236 1238 1
1118 1239 1240 1
1119 1240 1241 1
1120 1241 1242 2
1121 1243 1244 1
1122 1244 1245 1
1123 1245 1246 2
1124 1244 1247 1
1125 1247 1248 1
1126 1248 1249 1
1127 1249 1250 am
1128 1249 1251 am
1129 1252 1253 1
1130 1253 1254 1
1131 1254 1255 2
1132 1253 1256 1
1133 1256 1257 1
1134 1257 1258 2
1135 1257 1259 1
1136 1260 1261 1
1137 1261 1262 1
1138 1262 1263 2
1139 1261 1264 1
1140 1264 1265 1
1141 1264 1266 1
1142 1267 1268 1
1143 1268 1269 1
1144 1269 1270 2
1145 1268 1271 1
1146 1271 1272 1
1147 1272 1273 1
1148 1272 1274 1
1149 1275 1276 1
1150 1276 1277 1
1151 1277 1278 2
1152 1276 1279 1
1153 1280 1281 1
1154 1281 1282 1
1155 1282 1283 2
1156 1281 1284 1
1157 1284 1285 1
1158 1284 1286 1
1159 1287 1288 1
1160 1288 1289 1
1161 1289 1290 2
1162 1288 1291 1
1163 1291 1292 1
1164 1292 1293 1
1165 1293 1294 1
1166 1294 1295 1
1167 1295 1296 am
1168 1295 1297 am
1169 1298 1299 1
1170 1299 1300 1
1171 1300 1301 2
1172 1299 1302 1
1173 1302 1303 1
1174 1302 1304 1
1175 1305 1306 1
1176 1306 1307 1
1177 1307 1308 2
1178 1306 1309 1
1179 1310 1311 1
1180 1311 1312 1
1181 1312 1313 2
1182 1311 1314 1
1183 1314 1315 1
1184 1315 1316 1
1185 1316 1317 2
1186 1316 1318 1
1187 1319 1320 1
1188 1320 1321 1
1189 1321 1322 2
1190 1320 1323 1
1191 1323 1324 1
1192 1324 1325 ar
1193 1324 1326 ar
1194 1325 1327 ar
1195 1326 1328 ar
1196 1327 1329 ar
1197 1328 1329 ar
1198 1330 1331 1
1199 1331 1332 1
1200 1332 1333 2
1201 1331 1334 1
1202 1334 1335 1
1203 1336 1337 1
1204 1337 1338 1
1205 1338 1339 2
1206 1337 1340 1
1207 1341 1342 1
1208 1342 1343 1
1209 1343 1344 2
1210 1342 1345 1
1211 1346 1347 1
1212 1347 1348 1
1213 1348 1349 2
1214 1347 1350 1
1215 1350 1351 1
1216 1352 1353 1
1217 1353 1354 1
1218 1354 1355 2
1219 1353 1356 1
1220 1356 1357 1
1221 1357 1358 ar
1222 1357 1359 ar
1223 1358 1360 ar
1224 1359 1361 ar
1225 1360 1362 ar
1226 1361 1362 ar
1227 1362 1363 1
1228 1364 1365 1
1229 1365 1366 1
1230 1366 1367 2
1231 1365 1368 1
1232 1368 1369 1
1233 1368 1370 1
1234 1371 1372 1
1235 1372 1373 1
1236 1373 1374 2
1237 1372 1375 1
1238 1375 1376 1
1239 1376 1377 1
1240 1377 1378 am
1241 1377 1379 am
1242 1380 1381 1
1243 1381 1382 1
1244 1382 1383 2
1245 1381 1384 1
1246 1384 1385 1
1247 1385 1386 am
1248 1385 1387 am
1249 1388 1389 1
1250 1389 1390 1
1251 1390 1391 2
1252 1389 1392 1
1253 1392 1393 1
1254 1393 1394 1
1255 1394 1395 2
1256 1394 1396 1
1257 1397 1398 1
1258 1398 1399 1
1259 1399 1400 2
1260 1398 1401 1
1261 1401 1402 1
1262 1402 1403 am
1263 1402 1404 am
1264 1405 1406 1
1265 1406 1407 1
1266 1407 1408 2
1267 1406 1409 1
1268 1409 1410 1
1269 1410 1411 1
1270 1411 1412 1
1271 1413 1414 1
1272 1414 1415 1
1273 1415 1416 2
1274 1414 1417 1
1275 1417 1418 1
1276 1418 1419 2
1277 1418 1420 1
1278 1419 1421 1
1279 1420 1422 1
1280 1421 1422 1
1281 1420 1423 2
1282 1422 1424 2
1283 1423 1425 1
1284 1424 1426 1
1285 1425 1426 2
1286 1427 1428 1
1287 1428 1429 1
1288 1429 1430 2
1289 1428 1431 1
1290 1431 1432 1
1291 1432 1433 2
1292 1432 1434 1
1293 1433 1435 1
1294 1434 1436 1
1295 1435 1436 1
1296 1434 1437 2
1297 1436 1438 2
1298 1437 1439 1
1299 1438 1440 1
1300 1439 1440 2
1301 1441 1442 1
1302 1442 1443 1
1303 1443 1444 2
1304 1442 1445 1
1305 1445 1446 1
1306 1446 1447 1
1307 1446 1448 1
1308 1449 1450 1
1309 1450 1451 1
1310 1451 1452 2
1311 1450 1453 1
1312 1453 1454 1
1313 1454 1455 1
1314 1455 1449 1
1315 1456 1457 1
1316 1457 1458 1
1317 1458 1459 2
1318 1460 1461 1
1319 1461 1462 1
1320 1462 1463 2
1321 1461 1464 1
1322 1464 1465 1
1323 1464 1466 1
1324 1465 1467 1
1325 1468 1469 1
1326 1469 1470 1
1327 1470 1471 2
1328 1469 1472 1
1329 1472 1473 1
1330 1473 1474 ar
1331 1473 1475 ar
1332 1474 1476 ar
1333 1475 1477 ar
1334 1476 1478 ar
1335 1477 1478 ar
1336 1479 1480 1
1337 1480 1481 1
1338 1481 1482 2
1339 1480 1483 1
1340 1483 1484 1
1341 1484 1485 1
1342 1485 1486 1
1343 1486 1487 1
1344 1487 1488 am
1345 1487 1489 am
1346 1490 1491 1
1347 1491 1492 1
1348 1492 1493 2
1349 1491 1494 1
1350 1494 1495 1
1351 1495 1496 am
1352 1495 1497 am
1353 1498 1499 1
1354 1499 1500 1
1355 1500 1501 2
1356 1499 1502 1
1357 1502 1503 1
1358 1502 1504 1
1359 1505 1506 1
1360 1506 1507 1
1361 1507 1508 2
1362 1506 1509 1
1363 1509 1510 1
1364 1509 1511 1
1365 1512 1513 1
1366 1513 1514 1
1367 1514 1515 2
1368 1513 1516 1
1369 1516 1517 1
1370 1517 1518 1
1371 1517 1519 1
1372 1520 1521 1
1373 1521 1522 1
1374 1522 1523 2
1375 1521 1524 1
1376 1524 1525 1
1377 1525 1526 1
1378 1526 1527 2
1379 1526 1528 1
1380 1529 1530 1
1381 1530 1531 1
1382 1531 1532 2
1383 1530 1533 1
1384 1534 1535 1
1385 1535 1536 1
1386 1536 1537 2
1387 1535 1538 1
1388 1538 1539 1
1389 1539 1540 1
1390 1540 1541 1
1391 1541 1542 1
1392 1542 1543 am
1393 1542 1544 am
1394 1545 1546 1
1395 1546 1547 1
1396 1547 1548 2
1397 1546 1549 1
1398 1549 1550 1
1399 1550 1551 1
1400 1551 1545 1
1401 1552 1553 1
1402 1553 1554 1
1403 1554 1555 2
1404 1553 1556 1
1405 1557 1558 1
1406 1558 1559 1
1407 1559 1560 2
1408 1558 1561 1
1409 1562 1563 1
1410 1563 1564 1
1411 1564 1565 2
1412 1566 1567 1
1413 1567 1568 1
1414 1568 1569 2
1415 1567 1570 1
1416 1570 1571 1
1417 1570 1572 1
1418 1571 1573 1
1419 1574 1575 1
1420 1575 1576 1
1421 1576 1577 2
1422 1575 1578 1
1423 1578 1579 1
1424 1579 1580 am
1425 1579 1581 am
1426 1582 1583 1
1427 1583 1584 1
1428 1584 1585 2
1429 1583 1586 1
1430 1586 1587 1
1431 1587 1588 am
1432 1587 1589 am
1433 1590 1591 1
1434 1591 1592 1
1435 1592 1593 2
1436 1591 1594 1
1437 1594 1595 1
1438 1594 1596 1
1439 1597 1598 1
1440 1598 1599 1
1441 1599 1600 2
1442 1598 1601 1
1443 1601 1602 1
1444 1602 1603 ar
1445 1602 1604 ar
1446 1603 1605 ar
1447 1604 1606 ar
1448 1605 1607 ar
1449 1606 1607 ar
1450 1608 1609 1
1451 1609 1610 1
1452 1610 1611 2
1453 1609 1612 1
1454 1612 1613 1
1455 1612 1614 1
1456 1615 1616 1
1457 1616 1617 1
1458 1617 1618 2
1459 1616 1619 1
1460 1619 1620 1
1461 1620 1621 1
1462 1620 1622 2
1463 1621 1623 1
1464 1622 1624 1
1465 1623 1624 2
1466 1625 1626 1
1467 1626 1627 1
1468 1627 1628 2
1469 1626 1629 1
1470 1630 1631 1
1471 1631 1632 1
1472 1632 1633 2
1473 1634 1635 1
1474 1635 1636 1
1475 1636 1637 2
1476 1635 1638 1
1477 1638 1639 1
1478 1639 1640 ar
1479 1639 1641 ar
1480 1640 1642 ar
1481 1641 1643 ar
1482 1642 1644 ar
1483 1643 1644 ar
1484 1644 1645 1
1485 1646 1647 1
1486 1647 1648 1
1487 1648 1649 2
1488 1647 1650 1
1489 1650 1651 1
1490 1651 1652 am
1491 1651 1653 am
1492 1654 1655 1
1493 1655 1656 1
1494 1656 1657 2
1495 1655 1658 1
1496 1658 1659 1
1497 1659 1660 1
1498 1659 1661 2
1499 1660 1662 1
1500 1661 1663 1
1501 1662 1663 2
1502 1664 1665 1
1503 1665 1666 1
1504 1666 1667 2
1505 1665 1668 1
1506 1668 1669 1
1507 1668 1670 1
1508 1669 1671 1
1509 1672 1673 1
1510 1673 1674 1
1511 1674 1675 2
1512 1673 1676 1
1513 1676 1677 1
1514 1676 1678 1
1515 1679 1680 1
1516 1680 1681 1
1517 1681 1682 2
1518 1683 1684 1
1519 1684 1685 1
1520 1685 1686 2
1521 1684 1687 1
1522 1687 1688 1
1523 1688 1689 1
1524 1689 1690 am
1525 1689 1691 am
1526 1692 1693 1
1527 1693 1694 1
1528 1694 1695 2
1529 1696 1697 1
1530 1697 1698 1
1531 1698 1699 2
1532 1697 1700 1
1533 1700 1701 1
1534 1700 1702 1
1535 1701 1703 1
1536 1704 1705 1
1537 1705 1706 1
1538 1706 1707 2
1539 1705 1708 1
1540 1708 1709 1
1541 1709 1710 1
1542 1709 1711 1
1543 1712 1713 1
1544 1713 1714 1
1545 1714 1715 2
1546 1713 1716 1
1547 1716 1717 1
1548 1717 1718 1
1549 1718 1719 1
1550 1719 1720 1
1551 1721 1722 1
1552 1722 1723 1
1553 1723 1724 2
1554 1722 1725 1
1555 1725 1726 1
1556 1725 1727 1
1557 1728 1729 1
1558 1729 1730 1
1559 1730 1731 2
1560 1729 1732 1
1561 1732 1733 1
1562 1733 1734 1
1563 1734 1735 am
1564 1734 1736 am
1565 1737 1738 1
1566 1738 1739 1
1567 1739 1740 2
1568 1738 1741 1
1569 1742 1743 1
1570 1743 1744 1
1571 1744 1745 2
1572 1743 1746 1
1573 1746 1747 1
1574 1748 1749 1
1575 1749 1750 1
1576 1750 1751 2
1577 1749 1752 1
1578 1752 1753 1
1579 1753 1754 1
1580 1754 1755 1
1581 1755 1756 1
1582 1756 1757 am
1583 1756 1758 am
1584 1759 1760 1
1585 1760 1761 1
1586 1761 1762 2
1587 1763 1764 1
1588 1764 1765 1
1589 1765 1766 2
1590 1767 1768 1
1591 1768 1769 1
1592 1769 1770 2
1593 1768 1771 1
1594 1771 1772 1
1595 1772 1773 1
1596 1773 1774 2
1597 1773 1775 1
1598 1776 1777 1
1599 1777 1778 1
1600 1778 1779 2
1601 1777 1780 1
1602 1781 1782 1
1603 1782 1783 1
1604 1783 1784 2
1605 1782 1785 1
1606 1785 1786 1
1607 1785 1787 1
1608 1786 1788 1
1609 1789 1790 1
1610 1790 1791 1
1611 1791 1792 2
1612 1790 1793 1
1613 1793 1794 1
1614 1794 1795 am
1615 1794 1796 am
1616 1797 1798 1
1617 1798 1799 1
1618 1799 1800 2
1619 1798 1801 1
1620 1802 1803 1
1621 1803 1804 1
1622 1804 1805 2
1623 1803 1806 1
1624 1806 1807 1
1625 1806 1808 1
1626 1809 1810 1
1627 1810 1811 1
1628 1811 1812 2
1629 1810 1813 1
1630 1813 1814 1
1631 1813 1815 1
1632 1816 1817 1
1633 1817 1818 1
1634 1818 1819 2
1635 1817 1820 1
1636 1820 1821 1
1637 1821 1822 1
1638 1822 1823 1
1639 1823 1824 1
1640 1824 1825 am
1641 1824 1826 am
1642 1827 1828 1
1643 1828 1829 1
1644 1829 1830 2
1645 1828 1831 1
1646 1831 1832 1
1647 1831 1833 1
1648 1834 1835 1
1649 1835 1836 1
1650 1836 1837 2
1651 1835 1838 1
1652 1838 1839 1
1653 1839 1840 1
1654 1840 1834 1
1655 1841 1842 1
1656 1842 1843 1
1657 1843 1844 2
1658 1842 1845 1
1659 1845 1846 1
1660 1846 1847 1
1661 1847 1848 am
1662 1847 1849 am
1663 1850 1851 1
1664 1851 1852 1
1665 1852 1853 2
1666 1851 1854 1
1667 1854 1855 1
1668 1855 1856 1
1669 1855 1857 1
1670 1858 1859 1
1671 1859 1860 1
1672 1860 1861 2
1673 1859 1862 1
1674 1863 1864 1
1675 1864 1865 1
1676 1865 1866 2
1677 1864 1867 1
1678 1867 1868 1
1679 1868 1869 1
1680 1868 1870 1
1681 1871 1872 1
1682 1872 1873 1
1683 1873 1874 2
1684 1872 1875 1
1685 1875 1876 1
1686 1876 1877 1
1687 1877 1878 am
1688 1877 1879 am
1689 1880 1881 1
1690 1881 1882 1
1691 1882 1883 2
1692 1881 1884 1
1693 1884 1885 1
1694 1885 1886 1
1695 1885 1887 1
1696 1888 1889 1
1697 1889 1890 1
1698 1890 1891 2
1699 1889 1892 1
1700 1893 1894 1
1701 1894 1895 1
1702 1895 1896 2
1703 1894 1897 1
1704 1898 1899 1
1705 1899 1900 1
1706 1900 1901 2
1707 1902 1903 1
1708 1903 1904 1
1709 1904 1905 2
1710 1903 1906 1
1711 1906 1907 1
1712 1906 1908 1
1713 1909 1910 1
1714 1910 1911 1
1715 1911 1912 2
1716 1910 1913 1
1717 1913 1914 1
1718 1914 1915 1
1719 1915 1916 am
1720 1915 1917 am
1721 1918 1919 1
1722 1919 1920 1
1723 1920 1921 2
1724 1919 1922 1
1725 1922 1923 1
1726 1922 1924 1
1727 1925 1926 1
1728 1926 1927 1
1729 1927 1928 2
1730 1926 1929 1
1731 1929 1930 1
1732 1930 1931 1
1733 1931 1932 1
1734 1932 1933 1
1735 1933 1934 am
1736 1933 1935 am
1737 1936 1937 1
1738 1937 1938 1
1739 1938 1939 2
1740 1937 1940 1
1741 1940 1941 1
1742 1940 1942 1
1743 1943 1944 1
1744 1944 1945 1
1745 1945 1946 2
1746 1944 1947 1
1747 1947 1948 1
1748 1948 1949 1
1749 1949 1943 1
1750 1950 1951 1
1751 1951 1952 1
1752 1952 1953 2
1753 1951 1954 1
1754 1955 1956 1
1755 1956 1957 1
1756 1957 1958 2
1757 1956 1959 1
1758 1959 1960 1
1759 1959 1961 1
1760 1962 1963 1
1761 1963 1964 1
1762 1964 1965 2
1763 1963 1966 1
1764 1966 1967 1
1765 1967 1968 1
1766 1968 1969 am
1767 1968 1970 am
1768 1971 1972 1
1769 1972 1973 1
1770 1973 1974 2
1771 1972 1975 1
1772 1975 1976 1
1773 1976 1977 1
1774 1977 1971 1
1775 1978 1979 1
1776 1979 1980 1
1777 1980 1981 2
1778 1979 1982 1
1779 1982 1983 1
1780 1983 1984 2
1781 1983 1985 1
1782 1984 1986 1
1783 1985 1987 1
1784 1986 1987 1
1785 1985 1988 2
1786 1987 1989 2
1787 1988 1990 1
1788 1989 1991 1
1789 1990 1991 2
1790 1992 1993 1
1791 1993 1994 1
1792 1994 1995 2
1793 1993 1996 1
1794 1996 1997 1
1795 1998 1999 1
1796 1999 2000 1
1797 2000 2001 2
1798 1999 2002 1
1799 2003 2004 1
1800 2004 2005 1
1801 2005 2006 2
1802 2004 2007 1
1803 2007 2008 1
1804 2008 2009 1
1805 2009 2010 am
1806 2009 2011 am
1807 2012 2013 1
1808 2013 2014 1
1809 2014 2015 2
1810 2013 2016 1
1811 2016 2017 1
1812 2016 2018 1
1813 2019 2020 1
1814 2020 2021 1
1815 2021 2022 2
1816 2020 2023 1
1817 2023 2024 1
1818 2024 2025 1
1819 2025 2019 1
1820 2026 2027 1
1821 2027 2028 1
1822 2028 2029 2
1823 2027 2030 1
1824 2030 2031 1
1825 2031 2032 1
1826 2032 2033 1
1827 2033 2034 1
1828 2035 2036 1
1829 2036 2037 1
1830 2037 2038 2
1831 2036 2039 1
1832 2039 2040 1
1833 2040 2041 1
1834 2040 2042 1
1835 2043 2044 1
1836 2044 2045 1
1837 2045 2046 2
1838 2044 2047 1
1839 2047 2048 1
1840 2048 2049 ar
1841 2048 2050 ar
1842 2049 2051 ar
1843 2050 2052 ar
1844 2051 2053 ar
1845 2052 2053 ar
1846 2053 2054 1
1847 2055 2056 1
1848 2056 2057 1
1849 2057 2058 2
1850 2056 2059 1
1851 2059 2060 1
1852 2060 2061 1
1853 2061 2062 am
1854 2061 2063 am
1855 2064 2065 1
1856 2065 2066 1
1857 2066 2067 2
1858 2065 2068 1
1859 2069 2070 1
1860 2070 2071 1
1861 2071 2072 2
1862 2070 2073 1
1863 2074 2075 1
1864 2075 2076 1
1865 2076 2077 2
1866 2075 2078 1
1867 2078 2079 1
1868 2078 2080 1
1869 2081 2082 1
1870 2082 2083 1
1871 2083 2084 2
1872 2082 2085 1
1873 2085 2086 1
1874 2087 2088 1
1875 2088 2089 1
1876 2089 2090 2
1877 2088 2091 1
1878 2092 2093 1
1879 2093 2094 1
1880 2094 2095 2
1881 2093 2096 1
1882 2097 2098 1
1883 2098 2099 1
1884 2099 2100 2
1885 2101 2102 1
1886 2102 2103 1
1887 2103 2104 2
1888 2102 2105 1
1889 2105 2106 1
1890 2106 2107 1
1891 2107 2108 am
1892 2107 2109 am
1893 2110 2111 1
1894 2111 2112 1
1895 2112 2113 2
1896 2111 2114 1
1897 2114 2115 1
1898 2116 2117 1
1899 2117 2118 1
1900 2118 2119 2
1901 2117 2120 1
1902 2120 2121 1
1903 2120 2122 1
1904 2123 2124 1
1905 2124 2125 1
1906 2125 2126 2
1907 2124 2127 1
1908 2128 2129 1
1909 2129 2130 1
1910 2130 2131 2
1911 2129 2132 1
1912 2132 2133 1
1913 2133 2134 1
1914 2133 2135 1
1915 2136 2137 1
1916 2137 2138 1
1917 2138 2139 2
1918 2137 2140 1
1919 2140 2141 1
1920 2141 2142 1
1921 2142 2143 2
1922 2142 2144 1
1923 2145 2146 1
1924 2146 2147 1
1925 2147 2148 2
1926 2146 2149 1
1927 2149 2150 1
1928 2149 2151 1
1929 2150 2152 1
1930 2153 2154 1
1931 2154 2155 1
1932 2155 2156 2
1933 2157 2158 1
1934 2158 2159 1
1935 2159 2160 2
1936 2158 2161 1
1937 2161 2162 1
1938 2162 2163 ar
1939 2162 2164 ar
1940 2163 2165 ar
1941 2164 2166 ar
1942 2165 2167 ar
1943 2166 2167 ar
1944 2168 2169 1
1945 2169 2170 1
1946 2170 2171 2
1947 2169 2172 1
1948 2172 2173 1
1949 2173 2174 1
1950 2174 2175 1
1951 2175 2176 1
1952 2176 2177 am
1953 2176 2178 am
1954 2179 2180 1
1955 2180 2181 1
1956 2181 2182 2
1957 2180 2183 1
1958 2183 2184 1
1959 2185 2186 1
1960 2186 2187 1
1961 2187 2188 2
1962 2186 2189 1
1963 2189 2190 1
1964 2189 2191 1
1965 2190 2192 1
1966 2193 2194 1
1967 2194 2195 1
1968 2195 2196 2
1969 2194 2197 1
1970 2198 2199 1
1971 2199 2200 1
1972 2200 2201 2
1973 2199 2202 1
1974 2202 2203 1
1975 2202 2204 1
1976 2203 2205 1
1977 2206 2207 1
1978 2207 2208 1
1979 2208 2209 2
1980 2207 2210 1
1981 2210 2211 1
1982 2211 2212 1
1983 2212 2213 am
1984 2212 2214 am
1985 2215 2216 1
1986 2216 2217 1
1987 2217 2218 2
1988 2216 2219 1
1989 2219 2220 1
1990 2220 2221 am
1991 2220 2222 am
1992 2223 2224 1
1993 2224 2225 1
1994 2225 2226 2
1995 2224 2227 1
1996 2228 2229 1
1997 2229 2230 1
1998 2230 2231 2
1999 2229 2232 1
2000 2232 2233 1
2001 2233 2234 1
2002 2234 2235 2
2003 2234 2236 1
2004 2237 2238 1
2005 2238 2239 1
2006 2239 2240 2
2007 2238 2241 1
2008 2241 2242 1
2009 2242 2243 ar
2010 2242 2244 ar
2011 2243 2245 ar
2012 2244 2246 ar
2013 2245 2247 ar
2014 2246 2247 ar
2015 2248 2249 1
2016 2249 2250 1
2017 2250 2251 2
2018 2249 2252 1
2019 2252 2253 1
2020 2253 2254 1
2021 2254 2255 1
2022 2255 2256 1
2023 2257 2258 1
2024 2258 2259 1
2025 2259 2260 2
2026 2258 2261 1
2027 2261 2262 1
2028 2261 2263 1
2029 2264 2265 1
2030 2265 2266 1
2031 2266 2267 2
2032 2265 2268 1
2033 2268 2269 1
2034 2269 2270 2
2035 2269 2271 1
2036 2272 2273 1
2037 2273 2274 1
2038 2274 2275 2
2039 2276 2277 1
2040 2277 2278 1
2041 2278 2279 2
2042 2277 2280 1
2043 2280 2281 1
2044 2281 2282 1
2045 2282 2283 1
2046 2283 2284 1
2047 2284 2285 am
2048 2284 2286 am
2049 2287 2288 1
2050 2288 2289 1
2051 2289 2290 2
2052 2288 2291 1
2053 2291 2292 1
2054 2292 2293 1
2055 2293 2294 1
2056 2294 2295 1
2057 2295 2296 am
2058 2295 2297 am
2059 2298 2299 1
2060 2299 2300 1
2061 2300 2301 2
2062 2299 2302 1
2063 2302 2303 1
2064 2302 2304 1
2065 2303 2305 1
2066 2306 2307 1
2067 2307 2308 1
2068 2308 2309 2
2069 2307 2310 1
2070 2310 2311 1
2071 2311 2312 1
2072 2311 2313 1
2073 2314 2315 1
2074 2315 2316 1
2075 2316 2317 2
2076 2315 2318 1
2077 2318 2319 1
2078 2319 2320 1
2079 2319 2321 1
2080 2322 2323 1
2081 2323 2324 1
2082 2324 2325 2
2083 2323 2326 1
2084 2326 2327 1
2085 2327 2328 1
2086 2328 2329 1
2087 2329 2330 1
2088 2330 2331 am
2089 2330 2332 am
2090 2333 2334 1
2091 2334 2335 1
2092 2335 2336 2
2093 2337 2338 1
2094 2338 2339 1
2095 2339 2340 2
2096 2338 2341 1
2097 2341 2342 1
2098 2341 2343 1
2099 2344 2345 1
2100 2345 2346 1
2101 2346 2347 2
2102 2345 2348 1
2103 2348 2349 1
2104 2349 2350 2
2105 2349 2351 1
2106 2352 2353 1
2107 2353 2354 1
2108 2354 2355 2
2109 2353 2356 1
2110 2356 2357 1
2111 2357 2358 1
2112 2358 2359 1
2113 2359 2360 1
2114 2360 2361 am
2115 2360 2362 am
2116 2363 2364 1
2117 2364 2365 1
2118 2365 2366 2
2119 2364 2367 1
2120 2367 2368 1
2121 2368 2369 1
2122 2368 2370 2
2123 2369 2371 1
2124 2370 2372 1
2125 2371 2372 2
2126 2373 2374 1
2127 2374 2375 1
2128 2375 2376 2
2129 2374 2377 1
2130 2377 2378 1
2131 2378 2379 1
2132 2379 2380 am
2133 2379 2381 am
2134 2382 2383 1
2135 2383 2384 1
2136 2384 2385 2
2137 2383 2386 1
2138 2386 2387 1
2139 2387 2388 1
2140 2387 2389 2
2141 2388 2390 1
2142 2389 2391 1
2143 2390 2391 2
2144 2392 2393 1
2145 2393 2394 1
2146 2394 2395 2
2147 2393 2396 1
2148 2396 2397 1
2149 2397 2398 1
2150 2397 2399 2
2151 2398 2400 1
2152 2399 2401 1
2153 2400 2401 2
2154 2402 2403 1
2155 2403 2404 1
2156 2404 2405 2
2157 2403 2406 1
2158 2406 2407 1
2159 2407 2408 1
2160 2408 2402 1
2161 2409 2410 1
2162 2410 2411 1
2163 2411 2412 2
2164 2410 2413 1
2165 2413 2414 1
2166 2414 2415 1
2167 2415 2416 1
2168 2416 2417 1
2169 2417 2418 am
2170 2417 2419 am
2171 2420 2421 1
2172 2421 2422 1
2173 2422 2423 2
2174 2421 2424 1
2175 2424 2425 1
2176 2425 2426 1
2177 2425 2427 1
2178 2428 2429 1
2179 2429 2430 1
2180 2430 2431 2
2181 2432 2433 1
2182 2433 2434 1
2183 2434 2435 2
2184 2433 2436 1
2185 2436 2437 1
2186 2437 2438 1
2187 2438 2439 1
2188 2439 2440 1
2189 2440 2441 am
2190 2440 2442 am
2191 2443 2444 1
2192 2444 2445 1
2193 2445 2446 2
2194 2444 2447 1
2195 2447 2448 1
2196 2447 2449 1
2197 2450 2451 1
2198 2451 2452 1
2199 2452 2453 2
2200 2451 2454 1
2201 2454 2455 1
2202 2454 2456 1
2203 2457 2458 1
2204 2458 2459 1
2205 2459 2460 2
2206 2458 2461 1
2207 2461 2462 1
2208 2462 2463 1
2209 2463 2457 1
2210 2464 2465 1
2211 2465 2466 1
2212 2466 2467 2
2213 2465 2468 1
2214 2468 2469 1
2215 2469 2470 1
2216 2470 2471 1
2217 2471 2472 1
2218 2472 2473 am
2219 2472 2474 am
2220 2475 2476 1
2221 2476 2477 1
2222 2477 2478 2
2223 2476 2479 1
2224 2479 2480 1
2225 2480 2481 am
2226 2480 2482 am
2227 2483 2484 1
2228 2484 2485 1
2229 2485 2486 2
2230 2484 2487 1
2231 2487 2488 1
2232 2487 2489 1
2233 2490 2491 1
2234 2491 2492 1
2235 2492 2493 2
2236 2491 2494 1
2237 2494 2495 1
2238 2494 2496 1
2239 2497 2498 1
2240 2498 2499 1
2241 2499 2500 2
2242 2498 2501 1
2243 2501 2502 1
2244 2502 2503 1
2245 2503 2504 am
2246 2503 2505 am
2247 2506 2507 1
2248 2507 2508 1
2249 2508 2509 2
2250 2507 2510 1
2251 2511 2512 1
2252 2512 2513 1
2253 2513 2514 2
2254 2512 2515 1
2255 2515 2516 1
2256 2516 2517 1
2257 2517 2518 am
2258 2517 2519 am
2259 2520 2521 1
2260 2521 2522 1
2261 2522 2523 2
2262 2521 2524 1
2263 2524 2525 1
2264 2525 2526 1
2265 2525 2527 1
2266 2528 2529 1
2267 2529 2530 1
2268 2530 2531 2
2269 2529 2532 1
2270 2532 2533 1
2271 2533 2534 1
2272 2534 2535 1
2273 2535 2536 1
2274 2536 2537 am
2275 2536 2538 am
2276 2539 2540 1
2277 2540 2541 1
2278 2541 2542 2
2279 2540 2543 1
2280 2543 2544 1
2281 2544 2545 1
2282 2544 2546 1
2283 2547 2548 1
2284 2548 2549 1
2285 2549 2550 2
2286 2548 2551 1
2287 2551 2552 1
2288 2552 2553 1
2289 2553 2554 1
2290 2555 2556 1
2291 2556 2557 1
2292 2557 2558 2
2293 2556 2559 1
2294 2559 2560 1
2295 2560 2561 1
2296 2561 2562 1
2297 2562 2563 1
2298 2564 2565 1
2299 2565 2566 1
2300 2566 2567 2
2301 2565 2568 1
2302 2568 2569 1
2303 2569 2570 1
2304 2570 2571 2
2305 2570 2572 1
2306 2573 2574 1
2307 2574 2575 1
2308 2575 2576 2
2309 2574 2577 1
2310 2577 2578 1
2311 2578 2579 1
2312 2578 2580 2
2313 2579 2581 1
2314 2580 2582 1
2315 2581 2582 2
2316 2583 2584 1
2317 2584 2585 1
2318 2585 2586 2
2319 2584 2587 1
2320 2587 2588 1
2321 2588 2589 2
2322 2588 2590 1
2323 2591 2592 1
2324 2592 2593 1
2325 2593 2594 2
2326 2592 2595 1
2327 2595 2596 1
2328 2595 2597 1
2329 2596 2598 1
2330 2599 2600 1
2331 2600 2601 1
2332 2601 2602 2
2333 2600 2603 1
2334 2603 2604 1
2335 2604 2605 2
2336 2604 2606 1
2337 2607 2608 1
2338 2608 2609 1
2339 2609 2610 2
2340 2608 2611 1
2341 2612 2613 1
2342 2613 2614 1
2343 2614 2615 2
2344 2613 2616 1
2345 2616 2617 1
2346 2616 2618 1
2347 2617 2619 1
2348 2620 2621 1
2349 2621 2622 1
2350 2622 2623 2
2351 2621 2624 1
2352 2624 2625 1
2353 2625 2626 1
2354 2626 2627 1
2355 2627 2628 1
2356 2628 2629 am
2357 2628 2630 am
2358 2631 2632 1
2359 2632 2633 1
2360 2633 2634 2
2361 2632 2635 1
2362 2635 2636 1
2363 2635 2637 1
2364 2638 2639 1
2365 2639 2640 1
2366 2640 2641 2
2367 2639 2642 1
2368 2642 2643 1
2369 2644 2645 1
2370 2645 2646 1
2371 2646 2647 2
2372 2645 2648 1
2373 2648 2649 1
2374 2649 2650 1
2375 2649 2651 2
2376 2650 2652 1
2377 2651 2653 1
2378 2652 2653 2
2379 2654 2655 1
2380 2655 2656 1
2381 2656 2657 2
2382 2655 2658 1
2383 2658 2659 1
2384 2659 2660 ar
2385 2659 2661 ar
2386 2660 2662 ar
2387 2661 2663 ar
2388 2662 2664 ar
2389 2663 2664 ar
2390 2664 2665 1
2391 2666 2667 1
2392 2667 2668 1
2393 2668 2669 2
2394 2667 2670 1
2395 2670 2671 1
2396 2671 2672 1
2397 2672 2666 1
2398 2673 2674 1
2399 2674 2675 1
2400 2675 2676 2
2401 2674 2677 1
2402 2677 2678 1
2403 2678 2679 1
2404 2679 2673 1
2405 2680 2681 1
2406 2681 2682 1
2407 2682 2683 2
2408 2681 2684 1
2409 2684 2685 1
2410 2685 2686 1
2411 2685 2687 2
2412 2686 2688 1
2413 2687 2689 1
2414 2688 2689 2
2415 2690 2691 1
2416 2691 2692 1
2417 2692 2693 2
2418 2691 2694 1
2419 2694 2695 1
2420 2695 2696 1
2421 2696 2690 1
2422 2697 2698 1
2423 2698 2699 1
2424 2699 2700 2
2425 2698 2701 1
2426 2701 2702 1
2427 2702 2703 1
2428 2703 2704 2
2429 2703 2705 1
2430 2697 2706 1
2431 2706 2699 1
2432 2706 2707 1
2433 2707 2708 1
2434 2708 2709 1
2435 2709 2710 2
2436 2709 2711 1
2437 2712 2713 1
2438 2713 2714 1
2439 2714 2715 2
2440 2713 2716 1
2441 2716 2717 1
2442 2717 2718 ar
2443 2717 2719 ar
2444 2718 2720 ar
2445 2719 2721 ar
2446 2720 2722 ar
2447 2721 2722 ar
2448 2723 2724 1
2449 2724 2725 1
2450 2725 2726 2
2451 2724 2727 1
2452 2727 2728 1
2453 2728 2729 1
2454 2728 2730 1
2455 2731 2732 1
2456 2732 2733 1
2457 2733 2734 2
2458 2732 2735 1
2459 2736 2737 1
2460 2737 2738 1
2461 2738 2739 2
2462 2737 2740 1
2463 2740 2741 1
2464 2741 2742 1
2465 2741 2743 1
2466 2744 2745 1
2467 2745 2746 1
2468 2746 2747 2
2469 2745 2748 1
2470 2749 2750 1
2471 2750 2751 1
2472 2751 2752 2
2473 2750 2753 1
2474 2753 2754 1
2475 2754 2755 am
2476 2754 2756 am
2477 2757 2758 1
2478 2758 2759 1
2479 2759 2760 2
2480 2758 2761 1
2481 2761 2762 1
2482 2762 2763 1
2483 2763 2764 2
2484 2763 2765 1
2485 2766 2767 1
2486 2767 2768 1
2487 2768 2769 2
2488 2767 2770 1
2489 2770 2771 1
2490 2771 2772 1
2491 2771 2773 1
2492 2774 2775 1
2493 2775 2776 1
2494 2776 2777 2
2495 2778 2779 1
2496 2779 2780 1
2497 2780 2781 2
2498 2779 2782 1
2499 2782 2783 1
2500 2783 2784 ar
2501 2783 2785 ar
2502 2784 2786 ar
2503 2785 2787 ar
2504 2786 2788 ar
2505 2787 2788 ar
2506 2789 2790 1
2507 2790 2791 1
2508 2791 2792 2
2509 2790 2793 1
2510 2793 2794 1
2511 2794 2795 ar
2512 2794 2796 ar
2513 2795 2797 ar
2514 2796 2798 ar
2515 2797 2799 ar
2516 2798 2799 ar
2517 2799 2800 1
2518 2801 2802 1
2519 2802 2803 1
2520 2803 2804 2
2521 2802 2805 1
2522 2805 2806 1
2523 2805 2807 1
2524 2808 2809 1
2525 2809 2810 1
2526 2810 2811 2
2527 2809 2812 1
2528 2812 2813 1
2529 2812 2814 1
2530 2815 2816 1
2531 2816 2817 1
2532 2817 2818 2
2533 2816 2819 1
2534 2819 2820 1
2535 2820 2821 1
2536 2820 2822 1
2537 2823 2824 1
2538 2824 2825 1
2539 2825 2826 2
2540 2824 2827 1
2541 2827 2828 1
2542 2828 2829 1
2543 2829 2830 am
2544 2829 2831 am
2545 2832 2833 1
2546 2833 2834 1
2547 2834 2835 2
2548 2833 2836 1
2549 2836 2837 1
2550 2838 2839 1
2551 2839 2840 1
2552 2840 2841 2
2553 2839 2842 1
2554 2842 2843 1
2555 2843 2844 am
2556 2843 2845 am
2557 2846 2847 1
2558 2847 2848 1
2559 2848 2849 2
2560 2847 2850 1
2561 2850 2851 1
2562 2851 2852 1
2563 2851 2853 1
2564 2854 2855 1
2565 2855 2856 1
2566 2856 2857 2
2567 2855 2858 1
2568 2858 2859 1
2569 2859 2860 1
2570 2860 2861 am
2571 2860 2862 am
2572 2863 2864 1
2573 2864 2865 1
2574 2865 2866 2
2575 2864 2867 1
2576 2867 2868 1
2577 2867 2869 1
2578 2870 2871 1
2579 2871 2872 1
2580 2872 2873 2
2581 2871 2874 1
2582 2874 2875 1
2583 2875 2876 1
2584 2875 2877 2
2585 2876 2878 1
2586 2877 2879 1
2587 2878 2879 2
2588 2880 2881 1
2589 2881 2882 1
2590 2882 2883 2
2591 2884 2885 1
2592 2885 2886 1
2593 2886 2887 2
2594 2885 2888 1
2595 2888 2889 1
2596 2889 2890 ar
2597 2889 2891 ar
2598 2890 2892 ar
2599 2891 2893 ar
2600 2892 2894 ar
2601 2893 2894 ar
2602 2895 2896 1
2603 2896 2897 1
2604 2897 2898 2
2605 2896 2899 1
2606 2899 2900 1
2607 2900 2901 1
2608 2901 2902 am
2609 2901 2903 am
2610 2904 2905 1
2611 2905 2906 1
2612 2906 2907 2
2613 2905 2908 1
2614 2908 2909 1
2615 2910 2911 1
2616 2911 2912 1
2617 2912 2913 2
2618 2911 2914 1
2619 2915 2916 1
2620 2916 2917 1
2621 2917 2918 2
2622 2919 2920 1
2623 2920 2921 1
2624 2921 2922 2
2625 2920 2923 1
2626 2923 2924 1
2627 2924 2925 2
2628 2924 2926 1
2629 2925 2927 1
2630 2926 2928 1
2631 2927 2928 1
2632 2926 2929 2
2633 2928 2930 2
2634 2929 2931 1
2635 2930 2932 1
2636 2931 2932 2
2637 2933 2934 1
2638 2934 2935 1
2639 2935 2936 2
2640 2934 2937 1
2641 2938 2939 1
2642 2939 2940 1
2643 2940 2941 2
2644 2939 2942 1
2645 2942 2943 1
2646 2943 2944 1
2647 2944 2945 2
2648 2944 2946 1
2649 2947 2948 1
2650 2948 2949 1
2651 2949 2950 2
2652 2948 2951 1
2653 2951 2952 1
2654 2952 2953 2
2655 2952 2954 1
2656 2955 2956 1
2657 2956 2957 1
2658 2957 2958 2
2659 2956 2959 1
2660 2959 2960 1
2661 2960 2961 1
2662 2961 2955 1
2663 2962 2963 1
2664 2963 2964 1
2665 2964 2965 2
2666 2963 2966 1
2667 2966 2967 1
2668 2968 2969 1
2669 2969 2970 1
2670 2970 2971 2
2671 2969 2972 1
2672 2972 2973 1
2673 2973 2974 am
2674 2973 2975 am
2675 2976 2977 1
2676 2977 2978 1
2677 2978 2979 2
2678 2977 2980 1
2679 2980 2981 1
2680 2981 2982 am
2681 2981 2983 am
2682 2984 2985 1
2683 2985 2986 1
2684 2986 2987 2
2685 2985 2988 1
2686 2988 2989 1
2687 2989 2990 1
2688 2990 2984 1
2689 2991 2992 1
2690 2992 2993 1
2691 2993 2994 2
2692 2992 2995 1
2693 2995 2996 1
2694 2996 2997 1
2695 2997 2998 2
2696 2997 2999 1
2697 3000 3001 1
2698 3001 3002 1
2699 3002 3003 2
2700 3001 3004 1
2701 3004 3005 1
2702 3005 3006 2
2703 3005 3007 1
2704 3006 3008 1
2705 3007 3009 1
2706 3008 3009 1
2707 3007 3010 2
2708 3009 3011 2
2709 3010 3012 1
2710 3011 3013 1
2711 3012 3013 2
2712 3014 3015 1
2713 3015 3016 1
2714 3016 3017 2
2715 3015 3018 1
2716 3018 3019 1
2717 3019 3020 1
2718 3020 3021 am
2719 3020 3022 am
2720 3023 3024 1
2721 3024 3025 1
2722 3025 3026 2
2723 3024 3027 1
2724 3027 3028 1
2725 3028 3029 am
2726 3028 3030 am
2727 3031 3032 1
2728 3032 3033 1
2729 3033 3034 2
2730 3032 3035 1
2731 3036 3037 1
2732 3037 3038 1
2733 3038 3039 2
2734 3037 3040 1
2735 3040 3041 1
2736 3041 3042 1
2737 3041 3043 1
2738 3044 3045 1
2739 3045 3046 1
2740 3046 3047 2
2741 3045 3048 1
2742 3048 3049 1
2743 3048 3050 1
2744 3051 3052 1
2745 3052 3053 1
2746 3053 3054 2
2747 3052 3055 1
2748 3055 3056 1
2749 3056 3057 am
2750 3056 3058 am
2751 3059 3060 1
2752 3060 3061 1
2753 3061 3062 2
2754 3060 3063 1
2755 3063 3064 1
2756 3064 3065 1
2757 3065 3066 1
2758 3066 3067 1
2759 3067 3068 am
2760 3067 3069 am
2761 3070 3071 1
2762 3071 3072 1
2763 3072 3073 2
2764 3071 3074 1
2765 3074 3075 1
2766 3075 3076 1
2767 3076 3077 1
2768 3078 3079 1
2769 3079 3080 1
2770 3080 3081 2
2771 3079 3082 1
2772 3082 3083 1
2773 3083 3084 1
2774 3084 3085 1
2775 3085 3086 1
2776 3086 3087 am
2777 3086 3088 am
2778 3089 3090 1
2779 3090 3091 1
2780 3091 3092 2
2781 3090 3093 1
2782 3093 3094 1
2783 3094 3095 1
2784 3095 3096 1
2785 3096 3097 1
2786 3097 3098 am
2787 3097 3099 am
2788 3100 3101 1
2789 3101 3102 1
2790 3102 3103 2
2791 3101 3104 1
2792 3104 3105 1
2793 3104 3106 1
2794 3107 3108 1
2795 3108 3109 1
2796 3109 3110 2
2797 3108 3111 1
2798 3111 3112 1
2799 3111 3113 1
2800 3114 3115 1
2801 3115 3116 1
2802 3116 3117 2
2803 3115 3118 1
2804 3118 3119 1
2805 3119 3120 1
2806 3120 3121 am
2807 3120 3122 am
2808 3123 3124 1
2809 3124 3125 1
2810 3125 3126 2
2811 3124 3127 1
2812 3127 3128 1
2813 3128 3129 1
2814 3129 3130 1
2815 3130 3131 1
2816 3131 3132 am
2817 3131 3133 am
2818 3134 3135 1
2819 3135 3136 1
2820 3136 3137 2
2821 3135 3138 1
2822 3138 3139 1
2823 3139 3140 am
2824 3139 3141 am
2825 3142 3143 1
2826 3143 3144 1
2827 3144 3145 2
2828 3143 3146 1
2829 3146 3147 1
2830 3147 3148 1
2831 3148 3149 1
2832 3149 3150 1
2833 3151 3152 1
2834 3152 3153 1
2835 3153 3154 2
2836 3152 3155 1
2837 3155 3156 1
2838 3156 3157 2
2839 3156 3158 1
2840 3159 3160 1
2841 3160 3161 1
2842 3161 3162 2
2843 3160 3163 1
2844 3163 3164 1
2845 3164 3165 1
2846 3164 3166 2
2847 3165 3167 1
2848 3166 3168 1
2849 3167 3168 2
2850 3169 3170 1
2851 3170 3171 1
2852 3171 3172 2
2853 3170 3173 1
2854 3174 3175 1
2855 3175 3176 1
2856 3176 3177 2
2857 3175 3178 1
2858 3178 3179 1
2859 3180 3181 1
2860 3181 3182 1
2861 3182 3183 2
2862 3181 3184 1
2863 3184 3185 1
2864 3184 3186 1
2865 3187 3188 1
2866 3188 3189 1
2867 3189 3190 2
2868 3188 3191 1
2869 3191 3192 1
2870 3191 3193 1
2871 3194 3195 1
2872 3195 3196 1
2873 3196 3197 2
2874 3195 3198 1
2875 3198 3199 1
2876 3199 3200 1
2877 3200 3201 1
2878 3202 3203 1
2879 3203 3204 1
2880 3204 3205 2
2881 3203 3206 1
2882 3206 3207 1
2883 3207 3208 2
2884 3207 3209 1
2885 3208 3210 1
2886 3209 3211 1
2887 3210 3211 1
2888 3209 3212 2
2889 3211 3213 2
2890 3212 3214 1
2891 3213 3215 1
2892 3214 3215 2
2893 3216 3217 1
2894 3217 3218 1
2895 3218 3219 2
2896 3217 3220 1
2897 3220 3221 1
2898 3222 3223 1
2899 3223 3224 1
2900 3224 3225 2
2901 3223 3226 1
2902 3226 3227 1
2903 3227 3228 1
2904 3227 3229 1
2905 3230 3231 1
2906 3231 3232 1
2907 3232 3233 2
2908 3234 3235 1
2909 3235 3236 1
2910 3236 3237 2
2911 3235 3238 1
2912 3238 3239 1
2913 3239 3240 2
2914 3239 3241 1
2915 3242 3243 1
2916 3243 3244 1
2917 3244 3245 2
2918 3243 3246 1
2919 3246 3247 1
2920 3247 3248 1
2921 3248 3249 2
2922 3248 3250 1
2923 3251 3252 1
2924 3252 3253 1
2925 3253 3254 2
2926 3252 3255 1
2927 3256 3257 1
2928 3257 3258 1
2929 3258 3259 2
2930 3260 3261 1
2931 3261 3262 1
2932 3262 3263 2
2933 3261 3264 1
2934 3264 3265 1
2935 3264 3266 1
2936 3267 3268 1
2937 3268 3269 1
2938 3269 3270 2
2939 3271 3272 1
2940 3272 3273 1
2941 3273 3274 2
2942 3272 3275 1
2943 3275 3276 1
2944 3276 3277 1
2945 3277 3278 1
2946 3278 3279 1
2947 3279 3280 am
2948 3279 3281 am
2949 3282 3283 1
2950 3283 3284 1
2951 3284 3285 2
2952 3283 3286 1
2953 3286 3287 1
2954 3287 3288 2
2955 3287 3289 1
2956 3290 3291 1
2957 3291 3292 1
2958 3292 3293 2
2959 3291 3294 1
2960 3294 3295 1
2961 3295 3296 1
2962 3295 3297 1
2963 3298 3299 1
2964 3299 3300 1
2965 3300 3301 2
2966 3299 3302 1
2967 3303 3304 1
2968 3304 3305 1
2969 3305 3306 2
2970 3304 3307 1
2971 3308 3309 1
2972 3309 3310 1
2973 3310 3311 2
2974 3309 3312 1
2975 3312 3313 1
2976 3313 3314 1
2977 3314 3315 1
2978 3316 3317 1
2979 3317 3318 1
2980 3318 3319 2
2981 3317 3320 1
2982 3320 3321 1
2983 3322 3323 1
2984 3323 3324 1
2985 3324 3325 2
2986 3323 3326 1
2987 3326 3327 1
2988 3327 3328 1
2989 3328 3329 1
2990 3329 3330 1
2991 3330 3331 am
2992 3330 3332 am
2993 3333 3334 1
2994 3334 3335 1
2995 3335 3336 2
2996 3334 3337 1
2997 3337 3338 1
2998 3338 3339 2
2999 3338 3340 1
3000 3339 3341 1
3001 3340 3342 1
3002 3341 3342 1
3003 3340 3343 2
3004 3342 3344 2
3005 3343 3345 1
3006 3344 3346 1
3007 3345 3346 2
3008 3347 3348 1
3009 3348 3349 1
3010 3349 3350 2
3011 3348 3351 1
3012 3351 3352 1
3013 3351 3353 1
3014 3354 3355 1
3015 3355 3356 1
3016 3356 3357 2
3017 3355 3358 1
3018 3358 3359 1
3019 3359 3360 1
3020 3360 3361 1
3021 3361 3362 1
3022 3354 3363 1
3023 3363 3356 1
3024 3363 3364 1
3025 3364 3365 1
3026 3365 3366 1
3027 3366 3367 1
3028 3367 3368 1
3029 3369 3370 1
3030 3370 3371 1
3031 3371 3372 2
3032 3370 3373 1
3033 3373 3374 1
3034 3374 3375 am
3035 3374 3376 am
3036 3377 3378 1
3037 3378 3379 1
3038 3379 3380 2
3039 3378 3381 1
3040 3381 3382 1
3041 3382 3383 1
3042 3383 3384 1
3043 3384 3385 1
3044 3385 3386 am
3045 3385 3387 am
3046 3388 3389 1
3047 3389 3390 1
3048 3390 3391 2
3049 3389 3392 1
3050 3392 3393 1
3051 3393 3394 am
3052 3393 3395 am
3053 3396 3397 1
3054 3397 3398 1
3055 3398 3399 2
3056 3397 3400 1
3057 3400 3401 1
3058 3401 3402 1
3059 3402 3396 1
3060 3403 3404 1
3061 3404 3405 1
3062 3405 3406 2
3063 3404 3407 1
3064 3407 3408 1
3065 3409 3410 1
3066 3410 3411 1
3067 3411 3412 2
3068 3410 3413 1
3069 3413 3414 1
3070 3414 3415 1
3071 3415 3416 1
3072 3416 3417 1
3073 3417 3418 am
3074 3417 3419 am
3075 3420 3421 1
3076 3421 3422 1
3077 3422 3423 2
3078 3421 3424 1
3079 3424 3425 1
3080 3425 3426 1
3081 3426 3420 1
3082 3427 3428 1
3083 3428 3429 1
3084 3429 3430 2
3085 3428 3431 1
3086 3431 3432 1
3087 3431 3433 1
3088 3432 3434 1
3089 3435 3436 1
3090 3436 3437 1
3091 3437 3438 2
3092 3436 3439 1
3093 3439 3440 1
3094 3440 3441 1
3095 3440 3442 2
3096 3441 3443 1
3097 3442 3444 1
3098 3443 3444 2
3099 3445 3446 1
3100 3446 3447 1
3101 3447 3448 2
3102 3446 3449 1
3103 3449 3450 1
3104 3450 3451 ar
3105 3450 3452 ar
3106 3451 3453 ar
3107 3452 3454 ar
3108 3453 3455 ar
3109 3454 3455 ar
3110 3455 3456 1
3111 3457 3458 1
3112 3458 3459 1
3113 3459 3460 2
3114 3458 3461 1
3115 3461 3462 1
3116 3462 3463 1
3117 3463 3464 am
3118 3463 3465 am
3119 3466 3467 1
3120 3467 3468 1
3121 3468 3469 2
3122 3470 3471 1
3123 3471 3472 1
3124 3472 3473 2
3125 3471 3474 1
3126 3474 3475 1
3127 3475 3476 am
3128 3475 3477 am
3129 3478 3479 1
3130 3479 3480 1
3131 3480 3481 2
3132 3479 3482 1
3133 3482 3483 1
3134 3483 3484 2
3135 3483 3485 1
3136 3484 3486 1
3137 3485 3487 1
3138 3486 3487 1
3139 3485 3488 2
3140 3487 3489 2
3141 3488 3490 1
3142 3489 3491 1
3143 3490 3491 2
3144 3492 3493 1
3145 3493 3494 1
3146 3494 3495 2
3147 3493 3496 1
3148 3496 3497 1
3149 3498 3499 1
3150 3499 3500 1
3151 3500 3501 2
3152 3499 3502 1
3153 3502 3503 1
3154 3504 3505 1
3155 3505 3506 1
3156 3506 3507 2
3157 3505 3508 1
3158 3508 3509 1
3159 3509 3510 1
3160 3510 3511 am
3161 3510 3512 am
3162 3513 3514 1
3163 3514 3515 1
3164 3515 3516 2
3165 3514 3517 1
3166 3517 3518 1
3167 3518 3519 1
3168 3518 3520 2
3169 3519 3521 1
3170 3520 3522 1
3171 3521 3522 2
3172 3523 3524 1
3173 3524 3525 1
3174 3525 3526 2
3175 3524 3527 1
3176 3527 3528 1
3177 3527 3529 1
3178 3530 3531 1
3179 3531 3532 1
3180 3532 3533 2
3181 3531 3534 1
3182 3534 3535 1
3183 3535 3536 am
3184 3535 3537 am
3185 3538 3539 1
3186 3539 3540 1
3187 3540 3541 2
3188 3539 3542 1
3189 3542 3543 1
3190 3542 3544 1
3191 3545 3546 1
3192 3546 3547 1
3193 3547 3548 2
3194 3546 3549 1
3195 3549 3550 1
3196 3550 3551 ar
3197 3550 3552 ar
3198 3551 3553 ar
3199 3552 3554 ar
3200 3553 3555 ar
3201 3554 3555 ar
3202 3555 3556 1
3203 3557 3558 1
3204 3558 3559 1
3205 3559 3560 2
3206 3558 3561 1
3207 3561 3562 1
3208 3563 3564 1
3209 3564 3565 1
3210 3565 3566 2
3211 3564 3567 1
3212 3567 3568 1
3213 3568 3569 1
3214 3569 3570 1
3215 3570 3571 1
3216 3571 3572 am
3217 3571 3573 am
3218 3574 3575 1
3219 3575 3576 1
3220 3576 3577 2
3221 3575 3578 1
3222 3578 3579 1
3223 3579 3580 1
3224 3580 3581 1
3225 3582 3583 1
3226 3583 3584 1
3227 3584 3585 2
3228 3583 3586 1
3229 3586 3587 1
3230 3587 3588 ar
3231 3587 3589 ar
3232 3588 3590 ar
3233 3589 3591 ar
3234 3590 3592 ar
3235 3591 3592 ar
3236 3592 3593 1
3237 3594 3595 1
3238 3595 3596 1
3239 3596 3597 2
3240 3595 3598 1
3241 3599 3600 1
3242 3600 3601 1
3243 3601 3602 2
3244 3600 3603 1
3245 3603 3604 1
3246 3605 3606 1
3247 3606 3607 1
3248 3607 3608 2
3249 3606 3609 1
3250 3609 3610 1
3251 3610 3611 1
3252 3611 3612 2
3253 3611 3613 1
3254 3614 3615 1
3255 3615 3616 1
3256 3616 3617 2
3257 3615 3618 1
3258 3619 3620 1
3259 3620 3621 1
3260 3621 3622 2
3261 3620 3623 1
3262 3623 3624 1
3263 3624 3625 1
3264 3625 3626 am
3265 3625 3627 am
3266 3628 3629 1
3267 3629 3630 1
3268 3630 3631 2
3269 3629 3632 1
3270 3632 3633 1
3271 3632 3634 1
3272 3635 3636 1
3273 3636 3637 1
3274 3637 3638 2
3275 3636 3639 1
3276 3640 3641 1
3277 3641 3642 1
3278 3642 3643 2
3279 3641 3644 1
3280 3644 3645 1
3281 3645 3646 1
3282 3645 3647 1
3283 3648 3649 1
3284 3649 3650 1
3285 3650 3651 2
3286 3649 3652 1
3287 3652 3653 1
3288 3652 3654 1
3289 3653 3655 1
3290 3656 3657 1
3291 3657 3658 1
3292 3658 3659 2
3293 3660 3661 1
3294 3661 3662 1
3295 3662 3663 2
3296 3661 3664 1
3297 3664 3665 1
3298 3665 3666 1
3299 3666 3667 2
3300 3666 3668 1
3301 3669 3670 1
3302 3670 3671 1
3303 3671 3672 2
3304 3673 3674 1
3305 3674 3675 1
3306 3675 3676 2
3307 3674 3677 1
3308 3677 3678 1
3309 3677 3679 1
3310 3678 3680 1
3311 3681 3682 1
3312 3682 3683 1
3313 3683 3684 2
3314 3682 3685 1
3315 3685 3686 1
3316 3686 3687 1
3317 3687 3688 am
3318 3687 3689 am
3319 3690 3691 1
3320 3691 3692 1
3321 3692 3693 2
3322 3691 3694 1
3323 3694 3695 1
3324 3695 3696 1
3325 3696 3690 1
3326 3697 3698 1
3327 3698 3699 1
3328 3699 3700 2
3329 3698 3701 1
3330 3702 3703 1
3331 3703 3704 1
3332 3704 3705 2
3333 3703 3706 1
3334 3706 3707 1
3335 3707 3708 1
3336 3707 3709 1
3337 3710 3711 1
3338 3711 3712 1
3339 3712 3713 2
3340 3711 3714 1
3341 3714 3715 1
3342 3715 3716 2
3343 3715 3717 1
3344 3718 3719 1
3345 3719 3720 1
3346 3720 3721 2
3347 3719 3722 1
3348 3722 3723 1
3349 3723 3724 am
3350 3723 3725 am
3351 3726 3727 1
3352 3727 3728 1
3353 3728 3729 2
3354 3727 3730 1
3355 3731 3732 1
3356 3732 3733 1
3357 3733 3734 2
3358 3732 3735 1
3359 3736 3737 1
3360 3737 3738 1
3361 3738 3739 2
3362 3737 3740 1
3363 3740 3741 1
3364 3741 3742 1
3365 3741 3743 1
3366 3744 3745 1
3367 3745 3746 1
3368 3746 3747 2
3369 3745 3748 1
3370 3748 3749 1
3371 3749 3750 am
3372 3749 3751 am
3373 3752 3753 1
3374 3753 3754 1
3375 3754 3755 2
3376 3753 3756 1
3377 3757 3758 1
3378 3758 3759 1
3379 3759 3760 2
3380 3758 3761 1
3381 3761 3762 1
3382 3762 3763 1
3383 3763 3764 1
3384 3764 3765 1
3385 3765 3766 am
3386 3765 3767 am
3387 3757 3768 1
3388 3768 3759 1
3389 3768 3769 1
3390 3769 3770 1
3391 3770 3771 1
3392 3771 3772 1
3393 3772 3773 1
3394 3773 3774 am
3395 3773 3775 am
3396 3776 3777 1
3397 3777 3778 1
3398 3778 3779 2
3399 3777 3780 1
3400 3780 3781 1
3401 3781 3782 1
3402 3782 3783 1
3403 3783 3784 1
3404 3784 3785 am
3405 3784 3786 am
3406 3787 3788 1
3407 3788 3789 1
3408 3789 3790 2
3409 3788 3791 1
3410 3791 3792 1
3411 3792 3793 1
3412 3793 3794 1
3413 3794 3795 1
3414 3795 3796 am
3415 3795 3797 am
3416 3798 3799 1
3417 3799 3800 1
3418 3800 3801 2
3419 3799 3802 1
3420 3803 3804 1
3421 3804 3805 1
3422 3805 3806 2
3423 3804 3807 1
3424 3807 3808 1
3425 3808 3809 1
3426 3809 3810 1
3427 3811 3812 1
3428 3812 3813 1
3429 3813 3814 2
3430 3812 3815 1
3431 3815 3816 1
3432 3816 3817 1
3433 3817 3811 1
3434 3818 3819 1
3435 3819 3820 1
3436 3820 3821 2
3437 3819 3822 1
3438 3822 3823 1
3439 3823 3824 ar
3440 3823 3825 ar
3441 3824 3826 ar
3442 3825 3827 ar
3443 3826 3828 ar
3444 3827 3828 ar
3445 3829 3830 1
3446 3830 3831 1
3447 3831 3832 2
3448 3830 3833 1
3449 3833 3834 1
3450 3833 3835 1
3451 3836 3837 1
3452 3837 3838 1
3453 3838 3839 2
3454 3837 3840 1
3455 3840 3841 1
3456 3841 3842 1
3457 3841 3843 1
3458 3844 3845 1
3459 3845 3846 1
3460 3846 3847 2
3461 3845 3848 1
3462 3848 3849 1
3463 3850 3851 1
3464 3851 3852 1
3465 3852 3853 2
3466 3851 3854 1
3467 3854 3855 1
3468 3855 3856 1
3469 3856 3857 am
3470 3856 3858 am
3471 3859 3860 1
3472 3860 3861 1
3473 3861 3862 2
3474 3860 3863 1
3475 3863 3864 1
3476 3864 3865 ar
3477 3864 3866 ar
3478 3865 3867 ar
3479 3866 3868 ar
3480 3867 3869 ar
3481 3868 3869 ar
3482 3869 3870 1
3483 3871 3872 1
3484 3872 3873 1
3485 3873 3874 2
3486 3872 3875 1
3487 3875 3876 1
3488 3875 3877 1
3489 3878 3879 1
3490 3879 3880 1
3491 3880 3881 2
3492 3879 3882 1
3493 3882 3883 1
3494 3883 3884 1
3495 3883 3885 2
3496 3884 3886 1
3497 3885 3887 1
3498 3886 3887 2
3499 3888 3889 1
3500 3889 3890 1
3501 3890 3891 2
3502 3889 3892 1
3503 3893 3894 1
3504 3894 3895 1
3505 3895 3896 2
3506 3894 3897 1
3507 3897 3898 1
3508 3898 3899 1
3509 3899 3900 1
3510 3901 3902 1
3511 3902 3903 1
3512 3903 3904 2
3513 3905 3906 1
3514 3906 3907 1
3515 3907 3908 2
3516 3906 3909 1
3517 3909 3910 1
3518 3910 3911 2
3519 3910 3912 1
3520 3913 3914 1
3521 3914 3915 1
3522 3915 3916 2
3523 3917 3918 1
3524 3918 3919 1
3525 3919 3920 2
3526 3918 3921 1
3527 3921 3922 1
3528 3922 3923 1
3529 3923 3917 1
3530 3924 3925 1
3531 3925 3926 1
3532 3926 3927 2
3533 3928 3929 1
3534 3929 3930 1
3535 3930 3931 2
3536 3932 3933 1
3537 3933 3934 1
3538 3934 3935 2
3539 3933 3936 1
3540 3936 3937 1
3541 3937 3938 1
3542 3938 3939 1
3543 3940 3941 1
3544 3941 3942 1
3545 3942 3943 2
3546 3941 3944 1
3547 3944 3945 1
3548 3946 3947 1
3549 3947 3948 1
3550 3948 3949 2
3551 3947 3950 1
3552 3950 3951 1
3553 3951 3952 1
3554 3952 3953 am
3555 3952 3954 am
3556 3955 3956 1
3557 3956 3957 1
3558 3957 3958 2
3559 3956 3959 1
3560 3959 3960 1
3561 3960 3961 ar
3562 3960 3962 ar
3563 3961 3963 ar
3564 3962 3964 ar
3565 3963 3965 ar
3566 3964 3965 ar
3567 3965 3966 1
3568 3967 3968 1
3569 3968 3969 1
3570 3969 3970 2
3571 3968 3971 1
3572 3971 3972 1
3573 3972 3973 1
3574 3973 3974 2
3575 3973 3975 1
3576 3976 3977 1
3577 3977 3978 1
3578 3978 3979 2
3579 3977 3980 1
3580 3981 3982 1
3581 3982 3983 1
3582 3983 3984 2
3583 3982 3985 1
3584 3985 3986 1
3585 3986 3987 1
3586 3986 3988 1
3587 3989 3990 1
3588 3990 3991 1
3589 3991 3992 2
3590 3990 3993 1
3591 3993 3994 1
3592 3994 3995 ar
3593 3994 3996 ar
3594 3995 3997 ar
3595 3996 3998 ar
3596 3997 3999 ar
3597 3998 3999 ar
3598 4000 4001 1
3599 4001 4002 1
3600 4002 4003 2
3601 4001 4004 1
3602 4004 4005 1
3603 4005 4006 1
3604 4006 4007 am
3605 4006 4008 am
3606 4009 4010 1
3607 4010 4011 1
3608 4011 4012 2
3609 4010 4013 1
3610 4013 4014 1
3611 4014 4015 1
3612 4015 4016 1
3613 4016 4017 1
3614 4018 4019 1
3615 4019 4020 1
3616 4020 4021 2
3617 4019 4022 1
3618 4022 4023 1
3619 4023 4024 ar
3620 4023 4025 ar
3621 4024 4026 ar
3622 4025 4027 ar
3623 4026 4028 ar
3624 4027 4028 ar
3625 4028 4029 1
3626 4030 4031 1
3627 4031 4032 1
3628 4032 4033 2
3629 4031 4034 1
3630 4034 4035 1
3631 4035 4036 1
3632 4036 4030 1
3633 4037 4038 1
3634 4038 4039 1
3635 4039 4040 2
3636 4038 4041 1
3637 4041 4042 1
3638 4042 4043 1
3639 4043 4044 1
3640 4044 4045 1
3641 4045 4046 am
3642 4045 4047 am
3643 4048 4049 1
3644 4049 4050 1
3645 4050 4051 2
3646 4049 4052 1
3647 4052 4053 1
3648 4053 4054 1
3649 4053 4055 1
3650 4056 4057 1
3651 4057 4058 1
3652 4058 4059 2
3653 4057 4060 1
3654 4060 4061 1
3655 4061 4062 1
3656 4062 4063 1
3657 4064 4065 1
3658 4065 4066 1
3659 4066 4067 2
3660 4068 4069 1
3661 4069 4070 1
3662 4070 4071 2
3663 4072 4073 1
3664 4073 4074 1
3665 4074 4075 2
3666 4073 4076 1
3667 4076 4077 1
3668 4077 4078 ar
3669 4077 4079 ar
3670 4078 4080 ar
3671 4079 4081 ar
3672 4080 4082 ar
3673 4081 4082 ar
3674 4083 4084 1
3675 4084 4085 1
3676 4085 4086 2
3677 4084 4087 1
3678 4087 4088 1
3679 4087 4089 1
3680 4090 4091 1
3681 4091 4092 1
3682 4092 4093 2
3683 4091 4094 1
3684 4094 4095 1
3685 4095 4096 2
3686 4095 4097 1
3687 4096 4098 1
3688 4097 4099 1
3689 4098 4099 1
3690 4097 4100 2
3691 4099 4101 2
3692 4100 4102 1
3693 4101 4103 1
3694 4102 4103 2
3695 4104 4105 1
3696 4105 4106 1
3697 4106 4107 2
3698 4105 4108 1
3699 4108 4109 1
3700 4109 4110 1
3701 4110 4111 am
3702 4110 4112 am
3703 4113 4114 1
3704 4114 4115 1
3705 4115 4116 2
3706 4114 4117 1
3707 4117 4118 1
3708 4118 4119 2
3709 4118 4120 1
3710 4119 4121 1
3711 4120 4122 1
3712 4121 4122 1
3713 4120 4123 2
3714 4122 4124 2
3715 4123 4125 1
3716 4124 4126 1
3717 4125 4126 2
3718 4127 4128 1
3719 4128 4129 1
3720 4129 4130 2
3721 4128 4131 1
3722 4131 4132 1
3723 4132 4133 1
3724 4132 4134 1
3725 4135 4136 1
3726 4136 4137 1
3727 4137 4138 2
3728 4136 4139 1
3729 4139 4140 1
3730 4140 4141 1
3731 4141 4142 am
3732 4141 4143 am
3733 4144 4145 1
3734 4145 4146 1
3735 4146 4147 2
3736 4145 4148 1
3737 4148 4149 1
3738 4149 4150 1
3739 4149 4151 2
3740 4150 4152 1
3741 4151 4153 1
3742 4152 4153 2
3743 4154 4155 1
3744 4155 4156 1
3745 4156 4157 2
3746 4158 4159 1
3747 4159 4160 1
3748 4160 4161 2
3749 4159 4162 1
3750 4162 4163 1
3751 4162 4164 1
3752 4163 4165 1
3753 4166 4167 1
3754 4167 4168 1
3755 4168 4169 2
3756 4167 4170 1
3757 4170 4171 1
3758 4170 4172 1
3759 4173 4174 1
3760 4174 4175 1
3761 4175 4176 2
3762 4174 4177 1
3763 4177 4178 1
3764 4177 4179 1
3765 4180 4181 1
3766 4181 4182 1
3767 4182 4183 2
3768 4181 4184 1
3769 4184 4185 1
3770 4186 4187 1
3771 4187 4188 1
3772 4188 4189 2
3773 4187 4190 1
3774 4190 4191 1
3775 4190 4192 1
3776 4193 4194 1
3777 4194 4195 1
3778 4195 4196 2
3779 4194 4197 1
3780 4198 4199 1
3781 4199 4200 1
3782 4200 4201 2
3783 4199 4202 1
3784 4202 4203 1
3785 4203 4204 am
3786 4203 4205 am
3787 4206 4207 1
3788 4207 4208 1
3789 4208 4209 2
3790 4210 4211 1
3791 4211 4212 1
3792 4212 4213 2
3793 4211 4214 1
3794 4214 4215 1
3795 4214 4216 1
3796 4217 4218 1
3797 4218 4219 1
3798 4219 4220 2
3799 4218 4221 1
3800 4221 4222 1
3801 4222 4223 am
3802 4222 4224 am
3803 4225 4226 1
3804 4226 4227 1
3805 4227 4228 2
3806 4226 4229 1
3807 4229 4230 1
3808 4230 4231 1
3809 4230 4232 2
3810 4231 4233 1
3811 4232 4234 1
3812 4233 4234 2
3813 4235 4236 1
3814 4236 4237 1
3815 4237 4238 2
3816 4236 4239 1
3817 4239 4240 1
3818 4240 4241 ar
3819 4240 4242 ar
3820 4241 4243 ar
3821 4242 4244 ar
3822 4243 4245 ar
3823 4244 4245 ar
3824 4245 4246 1
3825 4247 4248 1
3826 4248 4249 1
3827 4249 4250 2
3828 4251 4252 1
3829 4252 4253 1
3830 4253 4254 2
3831 4252 4255 1
3832 4255 4256 1
3833 4256 4257 ar
3834 4256 4258 ar
3835 4257 4259 ar
3836 4258 4260 ar
3837 4259 4261 ar
3838 4260 4261 ar
3839 4261 4262 1
3840 4263 4264 1
3841 4264 4265 1
3842 4265 4266 2
3843 4267 4268 1
3844 4268 4269 1
3845 4269 4270 2
3846 4271 4272 1
3847 4272 4273 1
3848 4273 4274 2
3849 4272 4275 1
3850 4275 4276 1
3851 4276 4277 am
3852 4276 4278 am
3853 4279 4280 1
3854 4280 4281 1
3855 4281 4282 2
3856 4280 4283 1
3857 4283 4284 1
3858 4284 4285 ar
3859 4284 4286 ar
3860 4285 4287 ar
3861 4286 4288 ar
3862 4287 4289 ar
3863 4288 4289 ar
3864 4290 4291 1
3865 4291 4292 1
3866 4292 4293 2
3867 4294 4295 1
3868 4295 4296 1
3869 4296 4297 2
3870 4295 4298 1
3871 4298 4299 1
3872 4299 4300 1
3873 4300 4301 am
3874 4300 4302 am
3875 4303 4304 1
3876 4304 4305 1
3877 4305 4306 2
3878 4304 4307 1
3879 4307 4308 1
3880 4308 4309 1
3881 4309 4310 am
3882 4309 4311 am
3883 4312 4313 1
3884 4313 4314 1
3885 4314 4315 2
3886 4313 4316 1
3887 4316 4317 1
3888 4316 4318 1
3889 4319 4320 1
3890 4320 4321 1
3891 4321 4322 2
3892 4320 4323 1
3893 4323 4324 1
3894 4324 4325 1
3895 4324 4326 2
3896 4325 4327 1
3897 4326 4328 1
3898 4327 4328 2
3899 4329 4330 1
3900 4330 4331 1
3901 4331 4332 2
3902 4330 4333 1
3903 4333 4334 1
3904 4334 4335 am
3905 4334 4336 am
3906 4337 4338 1
3907 4338 4339 1
3908 4339 4340 2
3909 4341 4342 1
3910 4342 4343 1
3911 4343 4344 2
3912 4342 4345 1
3913 4345 4346 1
3914 4346 4347 2
3915 4346 4348 1
3916 4349 4350 1
3917 4350 4351 1
3918 4351 4352 2
3919 4350 4353 1
3920 4353 4354 1
3921 4354 4355 ar
3922 4354 4356 ar
3923 4355 4357 ar
3924 4356 4358 ar
3925 4357 4359 ar
3926 4358 4359 ar
3927 4360 4361 1
3928 4361 4362 1
3929 4362 4363 2
3930 4361 4364 1
3931 4364 4365 1
3932 4364 4366 1
3933 4367 4368 1
3934 4368 4369 1
3935 4369 4370 2
3936 4368 4371 1
3937 4371 4372 1
3938 4371 4373 1
3939 4374 4375 1
3940 4375 4376 1
3941 4376 4377 2
3942 4375 4378 1
3943 4378 4379 1
3944 4379 4380 am
3945 4379 4381 am
3946 4382 4383 1
3947 4383 4384 1
3948 4384 4385 2
3949 4386 4387 1
3950 4387 4388 1
3951 4388 4389 2
3952 4387 4390 1
3953 4390 4391 1
3954 4391 4392 1
3955 4391 4393 1
3956 4394 4395 1
3957 4395 4396 1
3958 4396 4397 2
3959 4395 4398 1
3960 4398 4399 1
3961 4398 4400 1
3962 4401 4402 1
3963 4402 4403 1
3964 4403 4404 2
3965 4402 4405 1
3966 4405 4406 1
3967 4406 4407 am
3968 4406 4408 am
3969 4409 4410 1
3970 4410 4411 1
3971 4411 4412 2
3972 4410 4413 1
3973 4414 4415 1
3974 4415 4416 1
3975 4416 4417 2
3976 4415 4418 1
3977 4418 4419 1
3978 4419 4420 am
3979 4419 4421 am
3980 4422 4423 1
3981 4423 4424 1
3982 4424 4425 2
3983 4423 4426 1
3984 4426 4427 1
3985 4427 4428 1
3986 4428 4429 1
3987 4429 4430 1
3988 4430 4431 am
3989 4430 4432 am
3990 4433 4434 1
3991 4434 4435 1
3992 4435 4436 2
3993 4434 4437 1
3994 4437 4438 1
3995 4438 4439 1
3996 4439 4440 1
3997 4440 4441 1
3998 4441 4442 am
3999 4441 4443 am
4000 4444 4445 1
4001 4445 4446 1
4002 4446 4447 2
4003 4445 4448 1
4004 4448 4449 1
4005 4449 4450 1
4006 4450 4444 1
4007 4451 4452 1
4008 4452 4453 1
4009 4453 4454 2
4010 4452 4455 1
4011 4455 4456 1
4012 4456 4457 1
4013 4457 4458 1
4014 4458 4459 1
4015 4459 4460 am
4016 4459 4461 am
4017 4462 4463 1
4018 4463 4464 1
4019 4464 4465 2
4020 4463 4466 1
4021 4466 4467 1
4022 4467 4468 1
4023 4468 4462 1
4024 4469 4470 1
4025 4470 4471 1
4026 4471 4472 2
4027 4473 4474 1
4028 4474 4475 1
4029 4475 4476 2
4030 4474 4477 1
4031 4477 4478 1
4032 4478 4479 1
4033 4478 4480 1
4034 4481 4482 1
4035 4482 4483 1
4036 4483 4484 2
4037 4482 4485 1
4038 4485 4486 1
4039 4486 4487 1
4040 4486 4488 1
4041 4489 4490 1
4042 4490 4491 1
4043 4491 4492 2
4044 4490 4493 1
4045 4493 4494 1
4046 4494 4495 am
4047 4494 4496 am
4048 4497 4498 1
4049 4498 4499 1
4050 4499 4500 2
4051 4498 4501 1
4052 4501 4502 1
4053 4502 4503 ar
4054 4502 4504 ar
4055 4503 4505 ar
4056 4504 4506 ar
4057 4505 4507 ar
4058 4506 4507 ar
4059 4508 4509 1
4060 4509 4510 1
4061 4510 4511 2
4062 4509 4512 1
4063 4512 4513 1
4064 4513 4514 1
4065 4514 4515 1
4066 4515 4516 1
4067 4517 4518 1
4068 4518 4519 1
4069 4519 4520 2
4070 4518 4521 1
4071 4521 4522 1
4072 4522 4523 1
4073 4523 4524 1
4074 4524 4525 1
4075 4526 4527 1
4076 4527 4528 1
4077 4528 4529 2
4078 4527 4530 1
4079 4530 4531 1
4080 4530 4532 1
4081 4533 4534 1
4082 4534 4535 1
4083 4535 4536 2
4084 4534 4537 1
4085 4537 4538 1
4086 4537 4539 1
4087 4538 4540 1
4088 4541 4542 1
4089 4542 4543 1
4090 4543 4544 2
4091 4542 4545 1
4092 4545 4546 1
4093 4546 4547 1
4094 4547 4548 am
4095 4547 4549 am
4096 4550 4551 1
4097 4551 4552 1
4098 4552 4553 2
4099 4551 4554 1
4100 4554 4555 1
4101 4555 4556 1
4102 4556 4550 1
4103 4557 4558 1
4104 4558 4559 1
4105 4559 4560 2
4106 4558 4561 1
4107 4561 4562 1
4108 4562 4563 1
4109 4562 4564 1
4110 4565 4566 1
4111 4566 4567 1
4112 4567 4568 2
4113 4566 4569 1
4114 4569 4570 1
4115 4570 4571 1
4116 4571 4572 1
4117 4572 4573 1
4118 4573 4574 am
4119 4573 4575 am
4120 4576 4577 1
4121 4577 4578 1
4122 4578 4579 2
4123 4577 4580 1
4124 4580 4581 1
4125 4580 4582 1
4126 4581 4583 1
4127 4584 4585 1
4128 4585 4586 1
4129 4586 4587 2
4130 4585 4588 1
4131 4588 4589 1
4132 4589 4590 am
4133 4589 4591 am
4134 4592 4593 1
4135 4593 4594 1
4136 4594 4595 2
4137 4593 4596 1
4138 4596 4597 1
4139 4596 4598 1
4140 4599 4600 1
4141 4600 4601 1
4142 4601 4602 2
4143 4600 4603 1
4144 4604 4605 1
4145 4605 4606 1
4146 4606 4607 2
4147 4605 4608 1
4148 4608 4609 1
4149 4609 4610 1
4150 4610 4611 1
4151 4611 4612 1
4152 4612 4613 am
4153 4612 4614 am
4154 4615 4616 1
4155 4616 4617 1
4156 4617 4618 2
4157 4616 4619 1
4158 4619 4620 1
4159 4620 4621 am
4160 4620 4622 am
4161 4623 4624 1
4162 4624 4625 1
4163 4625 4626 2
4164 4624 4627 1
4165 4627 4628 1
4166 4628 4629 2
4167 4628 4630 1
4168 4629 4631 1
4169 4630 4632 1
4170 4631 4632 1
4171 4630 4633 2
4172 4632 4634 2
4173 4633 4635 1
4174 4634 4636 1
4175 4635 4636 2
4176 4637 4638 1
4177 4638 4639 1
4178 4639 4640 2
4179 4638 4641 1
4180 4641 4642 1
4181 4641 4643 1
4182 4644 4645 1
4183 4645 4646 1
4184 4646 4647 2
4185 4648 4649 1
4186 4649 4650 1
4187 4650 4651 2
4188 4649 4652 1
4189 4652 4653 1
4190 4653 4654 ar
4191 4653 4655 ar
4192 4654 4656 ar
4193 4655 4657 ar
4194 4656 4658 ar
4195 4657 4658 ar
4196 4659 4660 1
4197 4660 4661 1
4198 4661 4662 2
4199 4660 4663 1
4200 4663 4664 1
4201 4663 4665 1
4202 4666 4667 1
4203 4667 4668 1
4204 4668 4669 2
4205 4667 4670 1
4206 4670 4671 1
4207 4671 4672 1
4208 4671 4673 1
4209 4674 4675 1
4210 4675 4676 1
4211 4676 4677 2
4212 4675 4678 1
4213 4678 4679 1
4214 4679 4680 1
4215 4680 4681 1
4216 4681 4682 1
4217 4682 4683 am
4218 4682 4684 am
4219 4685 4686 1
4220 4686 4687 1
4221 4687 4688 2
4222 4686 4689 1
4223 4689 4690 1
4224 4690 4691 2
4225 4690 4692 1
4226 4693 4694 1
4227 4694 4695 1
4228 4695 4696 2
4229 4697 4698 1
4230 4698 4699 1
4231 4699 4700 2
4232 4698 4701 1
4233 4701 4702 1
4234 4702 4703 1
4235 4703 4704 2
4236 4703 4705 1
4237 4706 4707 1
4238 4707 4708 1
4239 4708 4709 2
4240 4707 4710 1
4241 4710 4711 1
4242 4711 4712 am
4243 4711 4713 am
4244 4714 4715 1
4245 4715 4716 1
4246 4716 4717 2
4247 4715 4718 1
4248 4718 4719 1
4249 4719 4720 ar
4250 4719 4721 ar
4251 4720 4722 ar
4252 4721 4723 ar
4253 4722 4724 ar
4254 4723 4724 ar
4255 4725 4726 1
4256 4726 4727 1
4257 4727 4728 2
4258 4726 4729 1
4259 4730 4731 1
4260 4731 4732 1
4261 4732 4733 2
4262 4731 4734 1
4263 4734 4735 1
4264 4735 4736 am
4265 4735 4737 am
4266 4738 4739 1
4267 4739 4740 1
4268 4740 4741 2
4269 4739 4742 1
4270 4742 4743 1
4271 4742 4744 1
4272 4745 4746 1
4273 4746 4747 1
4274 4747 4748 2
4275 4746 4749 1
4276 4749 4750 1
4277 4751 4752 1
4278 4752 4753 1
4279 4753 4754 2
4280 4752 4755 1
4281 4756 4757 1
4282 4757 4758 1
4283 4758 4759 2
4284 4757 4760 1
4285 4760 4761 1
4286 4761 4762 ar
4287 4761 4763 ar
4288 4762 4764 ar
4289 4763 4765 ar
4290 4764 4766 ar
4291 4765 4766 ar
4292 4767 4768 1
4293 4768 4769 1
4294 4769 4770 2
4295 4768 4771 1
4296 4771 4772 1
4297 4773 4774 1
4298 4774 4775 1
4299 4775 4776 2
4300 4774 4777 1
4301 4777 4778 1
4302 4778 4779 ar
4303 4778 4780 ar
4304 4779 4781 ar
4305 4780 4782 ar
4306 4781 4783 ar
4307 4782 4783 ar
4308 4784 4785 1
4309 4785 4786 1
4310 4786 4787 2
4311 4785 4788 1
4312 4788 4789 1
4313 4789 4790 1
4314 4790 4791 1
4315 4791 4792 1
4316 4792 4793 am
4317 4792 4794 am
4318 4795 4796 1
4319 4796 4797 1
4320 4797 4798 2
4321 4796 4799 1
4322 4799 4800 1
4323 4800 4801 ar
4324 4800 4802 ar
4325 4801 4803 ar
4326 4802 4804 ar
4327 4803 4805 ar
4328 4804 4805 ar
4329 4805 4806 1
4330 4807 4808 1
4331 4808 4809 1
4332 4809 4810 2
4333 4808 4811 1
4334 4811 4812 1
4335 4812 4813 1
4336 4813 4814 am
4337 4813 4815 am
4338 4816 4817 1
4339 4817 4818 1
4340 4818 4819 2
4341 4817 4820 1
4342 4820 4821 1
4343 4820 4822 1
4344 4823 4824 1
4345 4824 4825 1
4346 4825 4826 2
4347 4824 4827 1
4348 4827 4828 1
4349 4828 4829 1
4350 4829 4830 am
4351 4829 4831 am
4352 4832 4833 1
4353 4833 4834 1
4354 4834 4835 2
4355 4833 4836 1
4356 4837 4838 1
4357 4838 4839 1
4358 4839 4840 2
4359 4838 4841 1
4360 4841 4842 1
4361 4842 4843 am
4362 4842 4844 am
4363 4845 4846 1
4364 4846 4847 1
4365 4847 4848 2
4366 4849 4850 1
4367 4850 4851 1
4368 4851 4852 2
4369 4853 4854 1
4370 4854 4855 1
4371 4855 4856 2
4372 4854 4857 1
4373 4858 4859 1
4374 4859 4860 1
4375 4860 4861 2
4376 4859 4862 1
4377 4862 4863 1
4378 4863 4864 1
4379 4863 4865 1
4380 4866 4867 1
4381 4867 4868 1
4382 4868 4869 2
4383 4867 4870 1
4384 4870 4871 1
4385 4871 4872 am
4386 4871 4873 am
4387 4874 4875 1
4388 4875 4876 1
4389 4876 4877 2
4390 4878 4879 1
4391 4879 4880 1
4392 4880 4881 2
4393 4882 4883 1
4394 4883 4884 1
4395 4884 4885 2
4396 4883 4886 1
4397 4886 4887 1
4398 4886 4888 1
4399 4889 4890 1
4400 4890 4891 1
4401 4891 4892 2
4402 4890 4893 1
4403 4893 4894 1
4404 4893 4895 1
4405 4896 4897 1
4406 4897 4898 1
4407 4898 4899 2
4408 4897 4900 1
4409 4900 4901 1
4410 4901 4902 am
4411 4901 4903 am
4412 4904 4905 1
4413 4905 4906 1
4414 4906 4907 2
4415 4905 4908 1
4416 4908 4909 1
4417 4908 4910 1
4418 4911 4912 1
4419 4912 4913 1
4420 4913 4914 2
4421 4912 4915 1
4422 4916 4917 1
4423 4917 4918 1
4424 4918 4919 2
4425 4917 4920 1
4426 4920 4921 1
4427 4921 4922 1
4428 4922 4916 1
4429 4923 4924 1
4430 4924 4925 1
4431 4925 4926 2
4432 4924 4927 1
4433 4927 4928 1
4434 4927 4929 1
4435 4930 4931 1
4436 4931 4932 1
4437 4932 4933 2
4438 4931 4934 1
4439 4935 4936 1
4440 4936 4937 1
4441 4937 4938 2
4442 4936 4939 1
4443 4939 4940 1
4444 4940 4941 1
4445 4941 4935 1
4446 4942 4943 1
4447 4943 4944 1
4448 4944 4945 2
4449 4943 4946 1
4450 4946 4947 1
4451 4947 4948 1
4452 4948 4949 2
4453 4948 4950 1
4454 4951 4952 1
4455 4952 4953 1
4456 4953 4954 2
4457 4952 4955 1
4458 4955 4956 1
4459 4957 4958 1
4460 4958 4959 1
4461 4959 4960 2
4462 4958 4961 1
4463 4961 4962 1
4464 4962 4963 1
4465 4963 4964 am
4466 4963 4965 am
4467 4966 4967 1
4468 4967 4968 1
4469 4968 4969 2
4470 4967 4970 1
4471 4970 4971 1
4472 4970 4972 1
4473 4973 4974 1
4474 4974 4975 1
4475 4975 4976 2
4476 4974 4977 1
4477 4977 4978 1
4478 4977 4979 1
4479 4980 4981 1
4480 4981 4982 1
4481 4982 4983 2
4482 4981 4984 1
4483 4984 4985 1
4484 4984 4986 1
4485 4987 4988 1
4486 4988 4989 1
4487 4989 4990 2
4488 4988 4991 1
4489 4991 4992 1
4490 4992 4993 1
4491 4993 4994 am
4492 4993 4995 am
4493 4996 4997 1
4494 4997 4998 1
4495 4998 4999 2
4496 4997 5000 1
4497 5000 5001 1
4498 5001 5002 1
4499 5001 5003 1
4500 5004 5005 1
4501 5005 5006 1
4502 5006 5007 2
4503 5005 5008 1
4504 5008 5009 1
4505 5009 5010 1
4506 5010 5004 1
4507 5011 5012 1
4508 5012 5013 1
4509 5013 5014 2
4510 5015 5016 1
4511 5016 5017 1
4512 5017 5018 2
4513 5016 5019 1
4514 5019 5020 1
4515 5021 5022 1
4516 5022 5023 1
4517 5023 5024 2
4518 5022 5025 1
4519 5025 5026 1
4520 5025 5027 1
4521 5028 5029 1
4522 5029 5030 1
4523 5030 5031 2
4524 5029 5032 1
4525 5033 5034 1
4526 5034 5035 1
4527 5035 5036 2
4528 5034 5037 1
4529 5038 5039 1
4530 5039 5040 1
4531 5040 5041 2
4532 5039 5042 1
4533 5042 5043 1
4534 5043 5044 1
4535 5043 5045 1
4536 5046 5047 1
4537 5047 5048 1
4538 5048 5049 2
4539 5047 5050 1
4540 5051 5052 1
4541 5052 5053 1
4542 5053 5054 2
4543 5052 5055 1
4544 5056 5057 1
4545 5057 5058 1
4546 5058 5059 2
4547 5060 5061 1
4548 5061 5062 1
4549 5062 5063 2
4550 5061 5064 1
4551 5064 5065 1
4552 5065 5066 1
4553 5065 5067 1
4554 5068 5069 1
4555 5069 5070 1
4556 5070 5071 2
4557 5069 5072 1
4558 5072 5073 1
4559 5074 5075 1
4560 5075 5076 1
4561 5076 5077 2
4562 5075 5078 1
4563 5078 5079 1
4564 5079 5080 am
4565 5079 5081 am
4566 5082 5083 1
4567 5083 5084 1
4568 5084 5085 2
4569 5086 5087 1
4570 5087 5088 1
4571 5088 5089 2
4572 5087 5090 1
4573 5090 5091 1
4574 5091 5092 1
4575 5092 5093 1
4576 5093 5094 1
4577 5094 5095 am
4578 5094 5096 am
4579 5097 5098 1
4580 5098 5099 1
4581 5099 5100 2
4582 5098 5101 1
4583 5101 5102 1
4584 5102 5103 1
4585 5103 5097 1
4586 5104 5105 1
4587 5105 5106 1
4588 5106 5107 2
4589 5105 5108 1
4590 5109 5110 1
4591 5110 5111 1
4592 5111 5112 2
4593 5110 5113 1
4594 5113 5114 1
4595 5113 5115 1
4596 5116 5117 1
4597 5117 5118 1
4598 5118 5119 2
4599 5117 5120 1
4600 5120 5121 1
4601 5121 5122 1
4602 5121 5123 1
4603 5124 5125 1
4604 5125 5126 1
4605 5126 5127 2
4606 5125 5128 1
4607 5128 5129 1
4608 5128 5130 1
4609 5131 5132 1
4610 5132 5133 1
4611 5133 5134 2
4612 5132 5135 1
4613 5135 5136 1
4614 5135 5137 1
4615 5138 5139 1
4616 5139 5140 1
4617 5140 5141 2
4618 5139 5142 1
4619 5142 5143 1
4620 5143 5144 1
4621 5144 5145 1
4622 5145 5146 1
4623 5146 5147 am
4624 5146 5148 am
4625 5149 5150 1
4626 5150 5151 1
4627 5151 5152 2
4628 5150 5153 1
4629 5154 5155 1
4630 5155 5156 1
4631 5156 5157 2
4632 5155 5158 1
4633 5158 5159 1
4634 5158 5160 1
4635 5161 5162 1
4636 5162 5163 1
4637 5163 5164 2
4638 5162 5165 1
4639 5165 5166 1
4640 5166 5167 1
4641 5166 5168 1
4642 5169 5170 1
4643 5170 5171 1
4644 5171 5172 2
4645 5173 5174 1
4646 5174 5175 1
4647 5175 5176 2
4648 5174 5177 1
4649 5178 5179 1
4650 5179 5180 1
4651 5180 5181 2
4652 5179 5182 1
4653 5182 5183 1
4654 5183 5184 am
4655 5183 5185 am
4656 5186 5187 1
4657 5187 5188 1
4658 5188 5189 2
4659 5187 5190 1
4660 5190 5191 1
4661 5192 5193 1
4662 5193 5194 1
4663 5194 5195 2
4664 5193 5196 1
4665 5197 5198 1
4666 5198 5199 1
4667 5199 5200 2
4668 5198 5201 1
4669 5201 5202 1
4670 5202 5203 2
4671 5202 5204 1
4672 5203 5205 1
4673 5204 5206 1
4674 5205 5206 1
4675 5204 5207 2
4676 5206 5208 2
4677 5207 5209 1
4678 5208 5210 1
4679 5209 5210 2
4680 5211 5212 1
4681 5212 5213 1
4682 5213 5214 2
4683 5212 5215 1
4684 5216 5217 1
4685 5217 5218 1
4686 5218 5219 2
4687 5217 5220 1
4688 5220 5221 1
4689 5221 5222 am
4690 5221 5223 am
4691 5224 5225 1
4692 5225 5226 1
4693 5226 5227 2
4694 5225 5228 1
4695 5229 5230 1
4696 5230 5231 1
4697 5231 5232 2
4698 5233 5234 1
4699 5234 5235 1
4700 5235 5236 2
4701 5234 5237 1
4702 5237 5238 1
4703 5238 5239 1
4704 5238 5240 2
4705 5239 5241 1
4706 5240 5242 1
4707 5241 5242 2
4708 5243 5244 1
4709 5244 5245 1
4710 5245 5246 2
4711 5244 5247 1
4712 5247 5248 1
4713 5248 5249 1
4714 5249 5250 am
4715 5249 5251 am
4716 5252 5253 1
4717 5253 5254 1
4718 5254 5255 2
4719 5253 5256 1
4720 5256 5257 1
4721 5256 5258 1
4722 5259 5260 1
4723 5260 5261 1
4724 5261 5262 2
4725 5260 5263 1
4726 5264 5265 1
4727 5265 5266 1
4728 5266 5267 2
4729 5265 5268 1
4730 5268 5269 1
4731 5269 5270 2
4732 5269 5271 1
4733 5270 5272 1
4734 5271 5273 1
4735 5272 5273 1
4736 5271 5274 2
4737 5273 5275 2
4738 5274 5276 1
4739 5275 5277 1
4740 5276 5277 2
4741 5278 5279 1
4742 5279 5280 1
4743 5280 5281 2
4744 5282 5283 1
4745 5283 5284 1
4746 5284 5285 2
4747 5283 5286 1
4748 5286 5287 1
4749 5287 5288 1
4750 5288 5289 2
4751 5288 5290 1
4752 5291 5292 1
4753 5292 5293 1
4754 5293 5294 2
4755 5292 5295 1
4756 5295 5296 1
4757 5297 5298 1
4758 5298 5299 1
4759 5299 5300 2
4760 5298 5301 1
4761 5301 5302 1
4762 5301 5303 1
4763 5304 5305 1
4764 5305 5306 1
4765 5306 5307 2
4766 5305 5308 1
4767 5308 5309 1
4768 5309 5310 1
4769 5310 5311 1
4770 5311 5312 1
4771 5312 5313 am
4772 5312 5314 am
4773 5315 5316 1
4774 5316 5317 1
4775 5317 5318 2
4776 5316 5319 1
4777 5319 5320 1
4778 5320 5321 1
4779 5321 5322 am
4780 5321 5323 am
4781 5324 5325 1
4782 5325 5326 1
4783 5326 5327 2
4784 5325 5328 1
4785 5328 5329 1
4786 5329 5330 1
4787 5330 5324 1
4788 5331 5332 1
4789 5332 5333 1
4790 5333 5334 2
4791 5335 5336 1
4792 5336 5337 1
4793 5337 5338 2
4794 5336 5339 1
4795 5340 5341 1
4796 5341 5342 1
4797 5342 5343 2
4798 5341 5344 1
4799 5344 5345 1
4800 5345 5346 1
4801 5346 5340 1
4802 5347 5348 1
4803 5348 5349 1
4804 5349 5350 2
4805 5348 5351 1
4806 5351 5352 1
4807 5351 5353 1
4808 5354 5355 1
4809 5355 5356 1
4810 5356 5357 2
4811 5355 5358 1
4812 5358 5359 1
4813 5359 5360 1
4814 5360 5354 1
4815 5361 5362 1
4816 5362 5363 1
4817 5363 5364 2
4818 5362 5365 1
4819 5365 5366 1
4820 5366 5367 1
4821 5367 5361 1
4822 5368 5369 1
4823 5369 5370 1
4824 5370 5371 2
4825 5369 5372 1
4826 5373 5374 1
4827 5374 5375 1
4828 5375 5376 2
4829 5374 5377 1
4830 5377 5378 1
4831 5378 5379 1
4832 5379 5373 1
4833 5380 5381 1
4834 5381 5382 1
4835 5382 5383 2
4836 5381 5384 1
4837 5384 5385 1
4838 5384 5386 1
4839 5387 5388 1
4840 5388 5389 1
4841 5389 5390 2
4842 5388 5391 1
4843 5391 5392 1
4844 5392 5393 1
4845 5393 5394 am
4846 5393 5395 am
4847 5396 5397 1
4848 5397 5398 1
4849 5398 5399 2
4850 5397 5400 1
4851 5400 5401 1
4852 5401 5402 1
4853 5402 5396 1
4854 5403 5404 1
4855 5404 5405 1
4856 5405 5406 2
4857 5404 5407 1
4858 5407 5408 1
4859 5407 5409 1
4860 5410 5411 1
4861 5411 5412 1
4862 5412 5413 2
4863 5411 5414 1
4864 5414 5415 1
4865 5415 5416 1
4866 5416 5417 2
4867 5416 5418 1
4868 5419 5420 1
4869 5420 5421 1
4870 5421 5422 2
4871 5420 5423 1
4872 5423 5424 1
4873 5423 5425 1
4874 5426 5427 1
4875 5427 5428 1
4876 5428 5429 2
4877 5427 5430 1
4878 5430 5431 1
4879 5431 5432 1
4880 5432 5433 2
4881 5432 5434 1
4882 5435 5436 1
4883 5436 5437 1
4884 5437 5438 2
4885 5436 5439 1
4886 5439 5440 1
4887 5440 5441 am
4888 5440 5442 am
4889 5443 5444 1
4890 5444 5445 1
4891 5445 5446 2
4892 5444 5447 1
4893 5447 5448 1
4894 5449 5450 1
4895 5450 5451 1
4896 5451 5452 2
4897 5450 5453 1
4898 5453 5454 1
4899 5454 5455 1
4900 5455 5456 am
4901 5455 5457 am
4902 5458 5459 1
4903 5459 5460 1
4904 5460 5461 2
4905 5459 5462 1
4906 5462 5463 1
4907 5463 5464 1
4908 5463 5465 1
4909 5466 5467 1
4910 5467 5468 1
4911 5468 5469 2
4912 5467 5470 1
4913 5470 5471 1
4914 5470 5472 1
4915 5473 5474 1
4916 5474 5475 1
4917 5475 5476 2
4918 5474 5477 1
4919 5477 5478 1
4920 5478 5479 1
4921 5478 5480 1
4922 5481 5482 1
4923 5482 5483 1
4924 5483 5484 2
4925 5485 5486 1
4926 5486 5487 1
4927 5487 5488 2
4928 5486 5489 1
4929 5489 5490 1
4930 5490 5491 1
4931 5491 5485 1
4932 5492 5493 1
4933 5493 5494 1
4934 5494 5495 2
4935 5493 5496 1
4936 5496 5497 1
4937 5496 5498 1
4938 5492 5499 1
4939 5499 5494 1
4940 5499 5500 1
4941 5500 5501 1
4942 5500 5502 1
4943 5503 5504 1
4944 5504 5505 1
4945 5505 5506 2
4946 5504 5507 1
4947 5507 5508 1
4948 5507 5509 1
4949 5510 5511 1
4950 5511 5512 1
4951 5512 5513 2
4952 5511 5514 1
4953 5514 5515 1
4954 5515 5516 ar
4955 5515 5517 ar
4956 5516 5518 ar
4957 5517 5519 ar
4958 5518 5520 ar
4959 5519 5520 ar
4960 5521 5522 1
4961 5522 5523 1
4962 5523 5524 2
4963 5522 5525 1
4964 5525 5526 1
4965 5527 5528 1
4966 5528 5529 1
4967 5529 5530 2
4968 5528 5531 1
4969 5531 5532 1
4970 5532 5533 1
4971 5533 5534 1
4972 5534 5535 1
4973 5535 5536 am
4974 5535 5537 am
4975 5538 5539 1
4976 5539 5540 1
4977 5540 5541 2
4978 5539 5542 1
4979 5543 5544 1
4980 5544 5545 1
4981 5545 5546 2
4982 5544 5547 1
4983 5547 5548 1
4984 5547 5549 1
4985 5550 5551 1
4986 5551 5552 1
4987 5552 5553 2
4988 5554 5555 1
4989 5555 5556 1
4990 5556 5557 2
4991 5555 5558 1
4992 5558 5559 1
4993 5559 5560 1
4994 5560 5561 1
4995 5562 5563 1
4996 5563 5564 1
4997 5564 5565 2
4998 5563 5566 1
4999 5566 5567 1
5000 5567 5568 1
5001 5568 5562 1
5002 5569 5570 1
5003 5570 5571 1
5004 5571 5572 2
5005 5570 5573 1
5006 5573 5574 1
5007 5573 5575 1
5008 5576 5577 1
5009 5577 5578 1
5010 5578 5579 2
5011 5577 5580 1
5012 5580 5581 1
5013 5582 5583 1
5014 5583 5584 1
5015 5584 5585 2
5016 5583 5586 1
5017 5586 5587 1
5018 5586 5588 1
5019 5587 5589 1
5020 5590 5591 1
5021 5591 5592 1
5022 5592 5593 2
5023 5594 5595 1
5024 5595 5596 1
5025 5596 5597 2
5026 5598 5599 1
5027 5599 5600 1
5028 5600 5601 2
5029 5599 5602 1
5030 5602 5603 1
5031 5602 5604 1
5032 5605 5606 1
5033 5606 5607 1
5034 5607 5608 2
5035 5606 5609 1
5036 5609 5610 1
5037 5610 5611 1
5038 5611 5605 1
5039 5612 5613 1
5040 5613 5614 1
5041 5614 5615 2
5042 5613 5616 1
5043 5616 5617 1
5044 5616 5618 1
5045 5619 5620 1
5046 5620 5621 1
5047 5621 5622 2
5048 5620 5623 1
5049 5623 5624 1
5050 5624 5625 1
5051 5625 5626 am
5052 5625 5627 am
5053 5628 5629 1
5054 5629 5630 1
5055 5630 5631 2
5056 5629 5632 1
5057 5632 5633 1
5058 5633 5634 1
5059 5634 5635 1
5060 5635 5636 1
5061 5637 5638 1
5062 5638 5639 1
5063 5639 5640 2
5064 5638 5641 1
5065 5641 5642 1
5066 5642 5643 1
5067 5642 5644 1
5068 5645 5646 1
5069 5646 5647 1
5070 5647 5648 2
5071 5649 5650 1
5072 5650 5651 1
5073 5651 5652 2
5074 5650 5653 1
5075 5653 5654 1
5076 5654 5655 1
5077 5654 5656 1
5078 5657 5658 1
5079 5658 5659 1
5080 5659 5660 2
5081 5658 5661 1
5082 5661 5662 1
5083 5661 5663 1
5084 5664 5665 1
5085 5665 5666 1
5086 5666 5667 2
5087 5665 5668 1
5088 5668 5669 1
5089 5669 5670 1
5090 5669 5671 1
5091 5672 5673 1
5092 5673 5674 1
5093 5674 5675 2
5094 5673 5676 1
5095 5676 5677 1
5096 5677 5678 2
5097 5677 5679 1
5098 5678 5680 1
5099 5679 5681 1
5100 5680 5681 1
5101 5679 5682 2
5102 5681 5683 2
5103 5682 5684 1
5104 5683 5685 1
5105 5684 5685 2
5106 5686 5687 1
5107 5687 5688 1
5108 5688 5689 2
5109 5687 5690 1
5110 5690 5691 1
5111 5691 5692 2
5112 5691 5693 1
5113 5692 5694 1
5114 5693 5695 1
5115 5694 5695 1
5116 5693 5696 2
5117 5695 5697 2
5118 5696 5698 1
5119 5697 5699 1
5120 5698 5699 2
5121 5700 5701 1
5122 5701 5702 1
5123 5702 5703 2
5124 5701 5704 1
5125 5705 5706 1
5126 5706 5707 1
5127 5707 5708 2
5128 5706 5709 1
5129 5709 5710 1
5130 5710 5711 1
5131 5711 5705 1
5132 5712 5713 1
5133 5713 5714 1
5134 5714 5715 2
5135 5713 5716 1
5136 5716 5717 1
5137 5716 5718 1
5138 5719 5720 1
5139 5720 5721 1
5140 5721 5722 2
5141 5720 5723 1
5142 5723 5724 1
5143 5724 5725 am
5144 5724 5726 am
5145 5727 5728 1
5146 5728 5729 1
5147 5729 5730 2
5148 5728 5731 1
5149 5731 5732 1
5150 5732 5733 2
5151 5732 5734 1
5152 5735 5736 1
5153 5736 5737 1
5154 5737 5738 2
5155 5736 5739 1
5156 5739 5740 1
5157 5740 5741 am
5158 5740 5742 am
5159 5743 5744 1
5160 5744 5745 1
5161 5745 5746 2
5162 5744 5747 1
5163 5747 5748 1
5164 5748 5749 1
5165 5748 5750 1
5166 5751 5752 1
5167 5752 5753 1
5168 5753 5754 2
5169 5755 5756 1
5170 5756 5757 1
5171 5757 5758 2
5172 5756 5759 1
5173 5759 5760 1
5174 5760 5761 1
5175 5761 5762 1
5176 5762 5763 1
5177 5763 5764 am
5178 5763 5765 am
5179 5766 5767 1
5180 5767 5768 1
5181 5768 5769 2
5182 5767 5770 1
5183 5770 5771 1
5184 5771 5772 1
5185 5772 5773 am
5186 5772 5774 am
5187 5775 5776 1
5188 5776 5777 1
5189 5777 5778 2
5190 5776 5779 1
5191 5779 5780 1
5192 5780 5781 2
5193 5780 5782 1
5194 5781 5783 1
5195 5782 5784 1
5196 5783 5784 1
5197 5782 5785 2
5198 5784 5786 2
5199 5785 5787 1
5200 5786 5788 1
5201 5787 5788 2
5202 5789 5790 1
5203 5790 5791 1
5204 5791 5792 2
5205 5793 5794 1
5206 5794 5795 1
5207 5795 5796 2
5208 5797 5798 1
5209 5798 5799 1
5210 5799 5800 2
5211 5798 5801 1
5212 5802 5803 1
5213 5803 5804 1
5214 5804 5805 2
5215 5803 5806 1
5216 5806 5807 1
5217 5807 5808 am
5218 5807 5809 am
5219 5810 5811 1
5220 5811 5812 1
5221 5812 5813 2
5222 5811 5814 1
5223 5814 5815 1
5224 5815 5816 1
5225 5816 5817 am
5226 5816 5818 am
5227 5819 5820 1
5228 5820 5821 1
5229 5821 5822 2
5230 5820 5823 1
5231 5823 5824 1
5232 5824 5825 1
5233 5825 5826 1
5234 5826 5827 1
5235 5827 5828 am
5236 5827 5829 am
5237 5830 5831 1
5238 5831 5832 1
5239 5832 5833 2
5240 5831 5834 1
5241 5834 5835 1
5242 5835 5836 1
5243 5836 5830 1
5244 5837 5838 1
5245 5838 5839 1
5246 5839 5840 2
5247 5838 5841 1
5248 5841 5842 1
5249 5842 5843 1
5250 5842 5844 1
5251 5845 5846 1
5252 5846 5847 1
5253 5847 5848 2
5254 5846 5849 1
5255 5850 5851 1
5256 5851 5852 1
5257 5852 5853 2
5258 5851 5854 1
5259 5854 5855 1
5260 5854 5856 1
5261 5857 5858 1
5262 5858 5859 1
5263 5859 5860 2
5264 5858 5861 1
5265 5861 5862 1
5266 5862 5863 1
5267 5863 5864 2
5268 5863 5865 1
5269 5866 5867 1
5270 5867 5868 1
5271 5868 5869 2
5272 5867 5870 1
5273 5870 5871 1
5274 5871 5872 2
5275 5871 5873 1
5276 5872 5874 1
5277 5873 5875 1
5278 5874 5875 1
5279 5873 5876 2
5280 5875 5877 2
5281 5876 5878 1
5282 5877 5879 1
5283 5878 5879 2
5284 5880 5881 1
5285 5881 5882 1
5286 5882 5883 2
5287 5881 5884 1
5288 5884 5885 1
5289 5885 5886 1
5290 5886 5887 1
5291 5887 5888 1
5292 5889 5890 1
5293 5890 5891 1
5294 5891 5892 2
5295 5890 5893 1
5296 5893 5894 1
5297 5894 5895 am
5298 5894 5896 am
5299 5897 5898 1
5300 5898 5899 1
5301 5899 5900 2
5302 5898 5901 1
5303 5902 5903 1
5304 5903 5904 1
5305 5904 5905 2
5306 5906 5907 1
5307 5907 5908 1
5308 5908 5909 2
5309 5907 5910 1
5310 5910 5911 1
5311 5911 5912 1
5312 5911 5913 1
5313 5914 5915 1
5314 5915 5916 1
5315 5916 5917 2
5316 5915 5918 1
5317 5918 5919 1
5318 5919 5920 2
5319 5919 5921 1
5320 5922 5923 1
5321 5923 5924 1
5322 5924 5925 2
5323 5923 5926 1
5324 5926 5927 1
5325 5927 5928 1
5326 5928 5929 1
5327 5929 5930 1
5328 5930 5931 am
5329 5930 5932 am
5330 5933 5934 1
5331 5934 5935 1
5332 5935 5936 2
5333 5934 5937 1
5334 5937 5938 1
5335 5938 5939 1
5336 5938 5940 1
5337 5941 5942 1
5338 5942 5943 1
5339 5943 5944 2
5340 5942 5945 1
5341 5945 5946 1
5342 5946 5947 1
5343 5946 5948 2
5344 5947 5949 1
5345 5948 5950 1
5346 5949 5950 2
5347 5951 5952 1
5348 5952 5953 1
5349 5953 5954 2
5350 5952 5955 1
5351 5955 5956 1
5352 5955 5957 1
5353 5958 5959 1
5354 5959 5960 1
5355 5960 5961 2
5356 5959 5962 1
5357 5962 5963 1
5358 5963 5964 1
5359 5964 5965 1
5360 5965 5966 1
5361 5966 5967 am
5362 5966 5968 am
5363 5969 5970 1
5364 5970 5971 1
5365 5971 5972 2
5366 5970 5973 1
5367 5973 5974 1
5368 5974 5975 1
5369 5974 5976 1
5370 5977 5978 1
5371 5978 5979 1
5372 5979 5980 2
5373 5978 5981 1
5374 5981 5982 1
5375 5982 5983 1
5376 5982 5984 1
5377 5985 5986 1
5378 5986 5987 1
5379 5987 5988 2
5380 5989 5990 1
5381 5990 5991 1
5382 5991 5992 2
5383 5990 5993 1
5384 5993 5994 1
5385 5993 5995 1
5386 5994 5996 1
5387 5997 5998 1
5388 5998 5999 1
5389 5999 6000 2
5390 5998 6001 1
5391 6001 6002 1
5392 6003 6004 1
5393 6004 6005 1
5394 6005 6006 2
5395 6004 6007 1
5396 6008 6009 1
5397 6009 6010 1
5398 6010 6011 2
5399 6009 6012 1
5400 6012 6013 1
5401 6013 6014 2
5402 6013 6015 1
5403 6016 6017 1
5404 6017 6018 1
5405 6018 6019 2
5406 6017 6020 1
5407 6020 6021 1
5408 6021 6022 1
5409 6022 6016 1
5410 6023 6024 1
5411 6024 6025 1
5412 6025 6026 2
5413 6027 6028 1
5414 6028 6029 1
5415 6029 6030 2
5416 6028 6031 1
5417 6031 6032 1
5418 6032 6033 1
5419 6033 6034 2
5420 6033 6035 1
5421 6036 6037 1
5422 6037 6038 1
5423 6038 6039 2
5424 6037 6040 1
5425 6040 6041 1
5426 6041 6042 am
5427 6041 6043 am
5428 6044 6045 1
5429 6045 6046 1
5430 6046 6047 2
5431 6048 6049 1
5432 6049 6050 1
5433 6050 6051 2
5434 6052 6053 1
5435 6053 6054 1
5436 6054 6055 2
5437 6053 6056 1
5438 6056 6057 1
5439 6057 6058 1
5440 6058 6059 am
5441 6058 6060 am
5442 6061 6062 1
5443 6062 6063 1
5444 6063 6064 2
5445 6062 6065 1
5446 6065 6066 1
5447 6065 6067 1
5448 6068 6069 1
5449 6069 6070 1
5450 6070 6071 2
5451 6069 6072 1
5452 6072 6073 1
5453 6073 6074 1
5454 6073 6075 1
5455 6076 6077 1
5456 6077 6078 1
5457 6078 6079 2
5458 6077 6080 1
5459 6080 6081 1
5460 6080 6082 1
5461 6083 6084 1
5462 6084 6085 1
5463 6085 6086 2
5464 6084 6087 1
5465 6087 6088 1
5466 6087 6089 1
5467 6090 6091 1
5468 6091 6092 1
5469 6092 6093 2
5470 6091 6094 1
5471 6094 6095 1
5472 6095 6096 1
5473 6096 6097 1
5474 6097 6098 1
5475 6098 6099 am
5476 6098 6100 am
5477 6101 6102 1
5478 6102 6103 1
5479 6103 6104 2
5480 6102 6105 1
5481 6105 6106 1
5482 6105 6107 1
5483 6108 6109 1
5484 6109 6110 1
5485 6110 6111 2
5486 6109 6112 1
5487 6112 6113 1
5488 6113 6114 1
5489 6114 6115 1
5490 6115 6116 1
5491 6116 6117 am
5492 6116 6118 am
5493 6119 6120 1
5494 6120 6121 1
5495 6121 6122 2
5496 6120 6123 1
5497 6123 6124 1
5498 6123 6125 1
5499 6126 6127 1
5500 6127 6128 1
5501 6128 6129 2
5502 6127 6130 1
5503 6130 6131 1
5504 6132 6133 1
5505 6133 6134 1
5506 6134 6135 2
5507 6133 6136 1
5508 6137 6138 1
5509 6138 6139 1
5510 6139 6140 2
5511 6138 6141 1
5512 6142 6143 1
5513 6143 6144 1
5514 6144 6145 2
5515 6143 6146 1
5516 6146 6147 1
5517 6147 6148 am
5518 6147 6149 am
5519 6150 6151 1
5520 6151 6152 1
5521 6152 6153 2
5522 6151 6154 1
5523 6154 6155 1
5524 6155 6156 1
5525 6156 6157 1
5526 6157 6158 1
5527 6159 6160 1
5528 6160 6161 1
5529 6161 6162 2
5530 6160 6163 1
5531 6163 6164 1
5532 6164 6165 1
5533 6165 6166 2
5534 6165 6167 1
5535 6168 6169 1
5536 6169 6170 1
5537 6170 6171 2
5538 6169 6172 1
5539 6172 6173 1
5540 6173 6174 ar
5541 6173 6175 ar
5542 6174 6176 ar
5543 6175 6177 ar
5544 6176 6178 ar
5545 6177 6178 ar
5546 6178 6179 1
5547 6180 6181 1
5548 6181 6182 1
5549 6182 6183 2
5550 6184 6185 1
5551 6185 6186 1
5552 6186 6187 2
5553 6185 6188 1
5554 6188 6189 1
5555 6188 6190 1
5556 6191 6192 1
5557 6192 6193 1
5558 6193 6194 2
5559 6192 6195 1
5560 6195 6196 1
5561 6196 6197 1
5562 6196 6198 1
5563 6199 6200 1
5564 6200 6201 1
5565 6201 6202 2
5566 6200 6203 1
5567 6203 6204 1
5568 6203 6205 1
5569 6206 6207 1
5570 6207 6208 1
5571 6208 6209 2
5572 6207 6210 1
5573 6210 6211 1
5574 6211 6212 am
5575 6211 6213 am
5576 6214 6215 1
5577 6215 6216 1
5578 6216 6217 2
5579 6215 6218 1
5580 6218 6219 1
5581 6219 6220 ar
5582 6219 6221 ar
5583 6220 6222 ar
5584 6221 6223 ar
5585 6222 6224 ar
5586 6223 6224 ar
5587 6224 6225 1
5588 6226 6227 1
5589 6227 6228 1
5590 6228 6229 2
5591 6227 6230 1
5592 6230 6231 1
5593 6230 6232 1
5594 6233 6234 1
5595 6234 6235 1
5596 6235 6236 2
5597 6234 6237 1
5598 6237 6238 1
5599 6238 6239 2
5600 6238 6240 1
5601 6239 6241 1
5602 6240 6242 1
5603 6241 6242 1
5604 6240 6243 2
5605 6242 6244 2
5606 6243 6245 1
5607 6244 6246 1
5608 6245 6246 2
5609 6247 6248 1
5610 6248 6249 1
5611 6249 6250 2
5612 6248 6251 1
5613 6251 6252 1
5614 6253 6254 1
5615 6254 6255 1
5616 6255 6256 2
5617 6254 6257 1
5618 6257 6258 1
5619 6257 6259 1
5620 6260 6261 1
5621 6261 6262 1
5622 6262 6263 2
5623 6261 6264 1
5624 6264 6265 1
5625 6265 6266 am
5626 6265 6267 am
5627 6268 6269 1
5628 6269 6270 1
5629 6270 6271 2
5630 6272 6273 1
5631 6273 6274 1
5632 6274 6275 2
5633 6273 6276 1
5634 6276 6277 1
5635 6277 6278 1
5636 6278 6279 am
5637 6278 6280 am
5638 6281 6282 1
5639 6282 6283 1
5640 6283 6284 2
5641 6282 6285 1
5642 6285 6286 1
5643 6285 6287 1
5644 6288 6289 1
5645 6289 6290 1
5646 6290 6291 2
5647 6289 6292 1
5648 6292 6293 1
5649 6292 6294 1
5650 6295 6296 1
5651 6296 6297 1
5652 6297 6298 2
5653 6299 6300 1
5654 6300 6301 1
5655 6301 6302 2
5656 6300 6303 1
5657 6303 6304 1
5658 6304 6305 1
5659 6304 6306 1
5660 6307 6308 1
5661 6308 6309 1
5662 6309 6310 2
5663 6308 6311 1
5664 6311 6312 1
5665 6312 6313 1
5666 6313 6314 1
5667 6314 6315 1
5668 6315 6316 am
5669 6315 6317 am
5670 6318 6319 1
5671 6319 6320 1
5672 6320 6321 2
5673 6319 6322 1
5674 6322 6323 1
5675 6322 6324 1
5676 6325 6326 1
5677 6326 6327 1
5678 6327 6328 2
5679 6326 6329 1
5680 6329 6330 1
5681 6330 6331 1
5682 6331 6332 2
5683 6331 6333 1
5684 6334 6335 1
5685 6335 6336 1
5686 6336 6337 2
5687 6335 6338 1
5688 6338 6339 1
5689 6338 6340 1
5690 6341 6342 1
5691 6342 6343 1
5692 6343 6344 2
5693 6342 6345 1
5694 6345 6346 1
5695 6346 6347 1
5696 6347 6348 1
5697 6348 6349 1
5698 6349 6350 am
5699 6349 6351 am
5700 6352 6353 1
5701 6353 6354 1
5702 6354 6355 2
5703 6353 6356 1
5704 6356 6357 1
5705 6357 6358 1
5706 6358 6359 1
5707 6359 6360 1
5708 6360 6361 am
5709 6360 6362 am
5710 6363 6364 1
5711 6364 6365 1
5712 6365 6366 2
5713 6364 6367 1
5714 6367 6368 1
5715 6368 6369 am
5716 6368 6370 am
5717 6371 6372 1
5718 6372 6373 1
5719 6373 6374 2
5720 6375 6376 1
5721 6376 6377 1
5722 6377 6378 2
5723 6376 6379 1
5724 6379 6380 1
5725 6379 6381 1
5726 6382 6383 1
5727 6383 6384 1
5728 6384 6385 2
5729 6383 6386 1
5730 6386 6387 1
5731 6387 6388 2
5732 6387 6389 1
5733 6388 6390 1
5734 6389 6391 1
5735 6390 6391 1
5736 6389 6392 2
5737 6391 6393 2
5738 6392 6394 1
5739 6393 6395 1
5740 6394 6395 2
5741 6396 6397 1
5742 6397 6398 1
5743 6398 6399 2
5744 6397 6400 1
5745 6400 6401 1
5746 6400 6402 1
5747 6403 6404 1
5748 6404 6405 1
5749 6405 6406 2
5750 6404 6407 1
5751 6407 6408 1
5752 6408 6409 2
5753 6408 6410 1
5754 6411 6412 1
5755 6412 6413 1
5756 6413 6414 2
5757 6412 6415 1
5758 6415 6416 1
5759 6416 6417 1
5760 6417 6418 1
5761 6418 6419 1
5762 6419 6420 am
5763 6419 6421 am
5764 6422 6423 1
5765 6423 6424 1
5766 6424 6425 2
5767 6426 6427 1
5768 6427 6428 1
5769 6428 6429 2
5770 6427 6430 1
5771 6430 6431 1
5772 6431 6432 ar
5773 6431 6433 ar
5774 6432 6434 ar
5775 6433 6435 ar
5776 6434 6436 ar
5777 6435 6436 ar
5778 6437 6438 1
5779 6438 6439 1
5780 6439 6440 2
5781 6438 6441 1
5782 6441 6442 1
5783 6442 6443 1
5784 6443 6444 am
5785 6443 6445 am
5786 6437 6446 1
5787 6446 6439 1
5788 6446 6447 1
5789 6447 6448 1
5790 6448 6449 1
5791 6449 6450 am
5792 6449 6451 am
5793 6452 6453 1
5794 6453 6454 1
5795 6454 6455 2
5796 6453 6456 1
5797 6456 6457 1
5798 6456 6458 1
5799 6459 6460 1
5800 6460 6461 1
5801 6461 6462 2
5802 6460 6463 1
5803 6463 6464 1
5804 6464 6465 1
5805 6465 6466 am
5806 6465 6467 am
5807 6468 6469 1
5808 6469 6470 1
5809 6470 6471 2
5810 6469 6472 1
5811 6472 6473 1
5812 6473 6474 2
5813 6473 6475 1
5814 6474 6476 1
5815 6475 6477 1
5816 6476 6477 1
5817 6475 6478 2
5818 6477 6479 2
5819 6478 6480 1
5820 6479 6481 1
5821 6480 6481 2
5822 6482 6483 1
5823 6483 6484 1
5824 6484 6485 2
5825 6483 6486 1
5826 6487 6488 1
5827 6488 6489 1
5828 6489 6490 2
5829 6488 6491 1
5830 6491 6492 1
5831 6492 6493 1
5832 6493 6494 1
5833 6494 6495 1
5834 6495 6496 am
5835 6495 6497 am
5836 6498 6499 1
5837 6499 6500 1
5838 6500 6501 2
5839 6499 6502 1
5840 6502 6503 1
5841 6502 6504 1
5842 6503 6505 1
5843 6506 6507 1
5844 6507 6508 1
5845 6508 6509 2
5846 6510 6511 1
5847 6511 6512 1
5848 6512 6513 2
5849 6511 6514 1
5850 6514 6515 1
5851 6515 6516 1
5852 6515 6517 1
5853 6518 6519 1
5854 6519 6520 1
5855 6520 6521 2
5856 6519 6522 1
5857 6522 6523 1
5858 6523 6524 1
5859 6524 6525 am
5860 6524 6526 am
5861 6527 6528 1
5862 6528 6529 1
5863 6529 6530 2
5864 6528 6531 1
5865 6531 6532 1
5866 6532 6533 ar
5867 6532 6534 ar
5868 6533 6535 ar
5869 6534 6536 ar
5870 6535 6537 ar
5871 6536 6537 ar
5872 6538 6539 1
5873 6539 6540 1
5874 6540 6541 2
5875 6539 6542 1
5876 6542 6543 1
5877 6542 6544 1
5878 6545 6546 1
5879 6546 6547 1
5880 6547 6548 2
5881 6546 6549 1
5882 6549 6550 1
5883 6550 6551 1
5884 6550 6552 1
5885 6553 6554 1
5886 6554 6555 1
5887 6555 6556 2
5888 6557 6558 1
5889 6558 6559 1
5890 6559 6560 2
5891 6558 6561 1
5892 6561 6562 1
5893 6562 6563 1
5894 6563 6564 am
5895 6563 6565 am
5896 6566 6567 1
5897 6567 6568 1
5898 6568 6569 2
5899 6567 6570 1
5900 6570 6571 1
5901 6571 6572 1
5902 6572 6573 am
5903 6572 6574 am
5904 6575 6576 1
5905 6576 6577 1
5906 6577 6578 2
5907 6576 6579 1
5908 6579 6580 1
5909 6579 6581 1
5910 6582 6583 1
5911 6583 6584 1
5912 6584 6585 2
5913 6583 6586 1
5914 6586 6587 1
5915 6587 6588 1
5916 6588 6589 am
5917 6588 6590 am
5918 6591 6592 1
5919 6592 6593 1
5920 6593 6594 2
5921 6592 6595 1
5922 6595 6596 1
5923 6596 6597 1
5924 6596 6598 1
5925 6599 6600 1
5926 6600 6601 1
5927 6601 6602 2
5928 6600 6603 1
5929 6603 6604 1
5930 6603 6605 1
5931 6606 6607 1
5932 6607 6608 1
5933 6608 6609 2
5934 6607 6610 1
5935 6610 6611 1
5936 6612 6613 1
5937 6613 6614 1
5938 6614 6615 2
5939 6613 6616 1
5940 6616 6617 1
5941 6617 6618 2
5942 6617 6619 1
5943 6618 6620 1
5944 6619 6621 1
5945 6620 6621 1
5946 6619 6622 2
5947 6621 6623 2
5948 6622 6624 1
5949 6623 6625 1
5950 6624 6625 2
5951 6626 6627 1
5952 6627 6628 1
5953 6628 6629 2
5954 6627 6630 1
5955 6630 6631 1
5956 6631 6632 ar
5957 6631 6633 ar
5958 6632 6634 ar
5959 6633 6635 ar
5960 6634 6636 ar
5961 6635 6636 ar
5962 6637 6638 1
5963 6638 6639 1
5964 6639 6640 2
5965 6641 6642 1
5966 6642 6643 1
5967 6643 6644 2
5968 6642 6645 1
5969 6645 6646 1
5970 6646 6647 1
5971 6647 6648 2
5972 6647 6649 1
5973 6650 6651 1
5974 6651 6652 1
5975 6652 6653 2
5976 6654 6655 1
5977 6655 6656 1
5978 6656 6657 2
5979 6655 6658 1
5980 6658 6659 1
5981 6659 6660 1
5982 6660 6654 1
5983 6661 6662 1
5984 6662 6663 1
5985 6663 6664 2
5986 6662 6665 1
5987 6665 6666 1
5988 6666 6667 1
5989 6666 6668 2
5990 6667 6669 1
5991 6668 6670 1
5992 6669 6670 2
5993 6671 6672 1
5994 6672 6673 1
5995 6673 6674 2
5996 6672 6675 1
5997 6675 6676 1
5998 6676 6677 1
5999 6677 6678 2
6000 6677 6679 1
6001 6680 6681 1
6002 6681 6682 1
6003 6682 6683 2
6004 6681 6684 1
6005 6684 6685 1
6006 6686 6687 1
6007 6687 6688 1
6008 6688 6689 2
6009 6687 6690 1
6010 6690 6691 1
6011 6691 6692 ar
6012 6691 6693 ar
6013 6692 6694 ar
6014 6693 6695 ar
6015 6694 6696 ar
6016 6695 6696 ar
6017 6696 6697 1
6018 6698 6699 1
6019 6699 6700 1
6020 6700 6701 2
6021 6699 6702 1
6022 6702 6703 1
6023 6703 6704 1
6024 6704 6698 1
6025 6705 6706 1
6026 6706 6707 1
6027 6707 6708 2
6028 6706 6709 1
6029 6709 6710 1
6030 6710 6711 am
6031 6710 6712 am
6032 6713 6714 1
6033 6714 6715 1
6034 6715 6716 2
6035 6714 6717 1
6036 6717 6718 1
6037 6717 6719 1
6038 6720 6721 1
6039 6721 6722 1
6040 6722 6723 2
6041 6724 6725 1
6042 6725 6726 1
6043 6726 6727 2
6044 6725 6728 1
6045 6728 6729 1
6046 6729 6730 1
6047 6730 6731 2
6048 6730 6732 1
6049 6733 6734 1
6050 6734 6735 1
6051 6735 6736 2
6052 6737 6738 1
6053 6738 6739 1
6054 6739 6740 2
6055 6738 6741 1
6056 6742 6743 1
6057 6743 6744 1
6058 6744 6745 2
6059 6743 6746 1
6060 6746 6747 1
6061 6747 6748 1
6062 6748 6749 1
6063 6749 6750 1
6064 6750 6751 am
6065 6750 6752 am
6066 6753 6754 1
6067 6754 6755 1
6068 6755 6756 2
6069 6754 6757 1
6070 6758 6759 1
6071 6759 6760 1
6072 6760 6761 2
6073 6762 6763 1
6074 6763 6764 1
6075 6764 6765 2
6076 6763 6766 1
6077 6766 6767 1
6078 6767 6768 2
6079 6767 6769 1
6080 6768 6770 1
6081 6769 6771 1
6082 6770 6771 1
6083 6769 6772 2
6084 6771 6773 2
6085 6772 6774 1
6086 6773 6775 1
6087 6774 6775 2
6088 6776 6777 1
6089 6777 6778 1
6090 6778 6779 2
6091 6777 6780 1
6092 6780 6781 1
6093 6781 6782 ar
6094 6781 6783 ar
6095 6782 6784 ar
6096 6783 6785 ar
6097 6784 6786 ar
6098 6785 6786 ar
6099 6787 6788 1
6100 6788 6789 1
6101 6789 6790 2
6102 6788 6791 1
6103 6791 6792 1
6104 6793 6794 1
6105 6794 6795 1
6106 6795 6796 2
6107 6794 6797 1
6108 6797 6798 1
6109 6798 6799 1
6110 6798 6800 1
6111 6801 6802 1
6112 6802 6803 1
6113 6803 6804 2
6114 6802 6805 1
6115 6805 6806 1
6116 6806 6807 1
6117 6807 6801 1
6118 6808 6809 1
6119 6809 6810 1
6120 6810 6811 2
6121 6809 6812 1
6122 6812 6813 1
6123 6813 6814 1
6124 6813 6815 1
6125 6816 6817 1
6126 6817 6818 1
6127 6818 6819 2
6128 6817 6820 1
6129 6821 6822 1
6130 6822 6823 1
6131 6823 6824 2
6132 6822 6825 1
6133 6825 6826 1
6134 6826 6827 1
6135 6827 6828 1
6136 6828 6829 1
6137 6830 6831 1
6138 6831 6832 1
6139 6832 6833 2
6140 6831 6834 1
6141 6834 6835 1
6142 6835 6836 1
6143 6836 6837 1
6144 6838 6839 1
6145 6839 6840 1
6146 6840 6841 2
6147 6839 6842 1
6148 6842 6843 1
6149 6843 6844 am
6150 6843 6845 am
6151 6846 6847 1
6152 6847 6848 1
6153 6848 6849 2
6154 6847 6850 1
6155 6850 6851 1
6156 6850 6852 1
6157 6853 6854 1
6158 6854 6855 1
6159 6855 6856 2
6160 6854 6857 1
6161 6857 6858 1
6162 6858 6859 1
6163 6859 6860 am
6164 6859 6861 am
6165 6862 6863 1
6166 6863 6864 1
6167 6864 6865 2
6168 6863 6866 1
6169 6866 6867 1
6170 6867 6868 ar
6171 6867 6869 ar
6172 6868 6870 ar
6173 6869 6871 ar
6174 6870 6872 ar
6175 6871 6872 ar
6176 6872 6873 1
6177 6874 6875 1
6178 6875 6876 1
6179 6876 6877 2
6180 6875 6878 1
6181 6878 6879 1
6182 6878 6880 1
6183 6881 6882 1
6184 6882 6883 1
6185 6883 6884 2
6186 6882 6885 1
6187 6885 6886 1
6188 6886 6887 1
6189 6887 6888 1
6190 6888 6889 1
6191 6889 6890 am
6192 6889 6891 am
6193 6892 6893 1
6194 6893 6894 1
6195 6894 6895 2
6196 6893 6896 1
6197 6896 6897 1
6198 6897 6898 1
6199 6898 6892 1
6200 6899 6900 1
6201 6900 6901 1
6202 6901 6902 2
6203 6900 6903 1
6204 6903 6904 1
6205 6904 6905 1
6206 6905 6906 2
6207 6905 6907 1
6208 6908 6909 1
6209 6909 6910 1
6210 6910 6911 2
6211 6909 6912 1
6212 6912 6913 1
6213 6913 6914 1
6214 6914 6915 am
6215 6914 6916 am
6216 6917 6918 1
6217 6918 6919 1
6218 6919 6920 2
6219 6918 6921 1
6220 6921 6922 1
6221 6923 6924 1
6222 6924 6925 1
6223 6925 6926 2
6224 6927 6928 1
6225 6928 6929 1
6226 6929 6930 2
6227 6928 6931 1
6228 6932 6933 1
6229 6933 6934 1
6230 6934 6935 2
6231 6933 6936 1
6232 6936 6937 1
6233 6937 6938 1
6234 6938 6939 1
6235 6939 6940 1
6236 6940 6941 am
6237 6940 6942 am
6238 6943 6944 1
6239 6944 6945 1
6240 6945 6946 2
6241 6944 6947 1
6242 6947 6948 1
6243 6949 6950 1
6244 6950 6951 1
6245 6951 6952 2
6246 6953 6954 1
6247 6954 6955 1
6248 6955 6956 2
6249 6954 6957 1
6250 6957 6958 1
6251 6959 6960 1
6252 6960 6961 1
6253 6961 6962 2
6254 6960 6963 1
6255 6963 6964 1
6256 6964 6965 1
6257 6965 6966 1
6258 6966 6967 1
6259 6967 6968 am
6260 6967 6969 am
6261 6970 6971 1
6262 6971 6972 1
6263 6972 6973 2
6264 6971 6974 1
6265 6974 6975 1
6266 6976 6977 1
6267 6977 6978 1
6268 6978 6979 2
6269 6977 6980 1
6270 6981 6982 1
6271 6982 6983 1
6272 6983 6984 2
6273 6982 6985 1
6274 6986 6987 1
6275 6987 6988 1
6276 6988 6989 2
6277 6987 6990 1
6278 6990 6991 1
6279 6991 6992 1
6280 6991 6993 1
6281 6994 6995 1
6282 6995 6996 1
6283 6996 6997 2
6284 6995 6998 1
6285 6998 6999 1
6286 6999 7000 1
6287 7000 7001 2
6288 7000 7002 1
6289 7003 7004 1
6290 7004 7005 1
6291 7005 7006 2
6292 7004 7007 1
6293 7007 7008 1
6294 7008 7009 1
6295 7008 7010 1
6296 7011 7012 1
6297 7012 7013 1
6298 7013 7014 2
6299 7015 7016 1
6300 7016 7017 1
6301 7017 7018 2
6302 7019 7020 1
6303 7020 7021 1
6304 7021 7022 2
6305 7020 7023 1
6306 7023 7024 1
6307 7024 7025 1
6308 7025 7026 1
6309 7026 7027 1
6310 7027 7028 am
6311 7027 7029 am
6312 7030 7031 1
6313 7031 7032 1
6314 7032 7033 2
6315 7031 7034 1
6316 7034 7035 1
6317 7034 7036 1
6318 7037 7038 1
6319 7038 7039 1
6320 7039 7040 2
6321 7038 7041 1
6322 7041 7042 1
6323 7042 7043 1
6324 7042 7044 1
6325 7045 7046 1
6326 7046 7047 1
6327 7047 7048 2
6328 7046 7049 1
6329 7049 7050 1
6330 7050 7051 1
6331 7051 7052 am
6332 7051 7053 am
6333 7054 7055 1
6334 7055 7056 1
6335 7056 7057 2
6336 7055 7058 1
6337 7058 7059 1
6338 7058 7060 1
6339 7059 7061 1
6340 7062 7063 1
6341 7063 7064 1
6342 7064 7065 2
6343 7063 7066 1
6344 7066 7067 1
6345 7068 7069 1
6346 7069 7070 1
6347 7070 7071 2
6348 7072 7073 1
6349 7073 7074 1
6350 7074 7075 2
6351 7073 7076 1
6352 7076 7077 1
6353 7077 7078 am
6354 7077 7079 am
6355 7080 7081 1
6356 7081 7082 1
6357 7082 7083 2
6358 7081 7084 1
6359 7084 7085 1
6360 7085 7086 1
6361 7086 7080 1
6362 7087 7088 1
6363 7088 7089 1
6364 7089 7090 2
6365 7088 7091 1
6366 7091 7092 1
6367 7092 7093 ar
6368 7092 7094 ar
6369 7093 7095 ar
6370 7094 7096 ar
6371 7095 7097 ar
6372 7096 7097 ar
6373 7098 7099 1
6374 7099 7100 1
6375 7100 7101 2
6376 7099 7102 1
6377 7103 7104 1
6378 7104 7105 1
6379 7105 7106 2
6380 7104 7107 1
6381 7107 7108 1
6382 7108 7109 1
6383 7108 7110 1
6384 7111 7112 1
6385 7112 7113 1
6386 7113 7114 2
6387 7112 7115 1
6388 7115 7116 1
6389 7115 7117 1
6390 7118 7119 1
6391 7119 7120 1
6392 7120 7121 2
6393 7119 7122 1
6394 7122 7123 1
6395 7122 7124 1
6396 7125 7126 1
6397 7126 7127 1
6398 7127 7128 2
6399 7126 7129 1
6400 7129 7130 1
6401 7130 7131 1
6402 7131 7132 1
6403 7132 7133 1
6404 7133 7134 am
6405 7133 7135 am
6406 7136 7137 1
6407 7137 7138 1
6408 7138 7139 2
6409 7137 7140 1
6410 7140 7141 1
6411 7141 7142 1
6412 7142 7136 1
6413 7143 7144 1
6414 7144 7145 1
6415 7145 7146 2
6416 7144 7147 1
6417 7147 7148 1
6418 7148 7149 ar
6419 7148 7150 ar
6420 7149 7151 ar
6421 7150 7152 ar
6422 7151 7153 ar
6423 7152 7153 ar
6424 7153 7154 1
6425 7155 7156 1
6426 7156 7157 1
6427 7157 7158 2
6428 7156 7159 1
6429 7159 7160 1
6430 7161 7162 1
6431 7162 7163 1
6432 7163 7164 2
6433 7162 7165 1
6434 7165 7166 1
6435 7166 7167 1
6436 7167 7168 2
6437 7167 7169 1
6438 7170 7171 1
6439 7171 7172 1
6440 7172 7173 2
6441 7171 7174 1
6442 7174 7175 1
6443 7175 7176 am
6444 7175 7177 am
6445 7178 7179 1
6446 7179 7180 1
6447 7180 7181 2
6448 7179 7182 1
6449 7182 7183 1
6450 7182 7184 1
6451 7185 7186 1
6452 7186 7187 1
6453 7187 7188 2
6454 7186 7189 1
6455 7189 7190 1
6456 7190 7191 1
6457 7190 7192 1
6458 7193 7194 1
6459 7194 7195 1
6460 7195 7196 2
6461 7194 7197 1
6462 7197 7198 1
6463 7198 7199 am
6464 7198 7200 am
6465 7201 7202 1
6466 7202 7203 1
6467 7203 7204 2
6468 7202 7205 1
6469 7206 7207 1
6470 7207 7208 1
6471 7208 7209 2
6472 7207 7210 1
6473 7211 7212 1
6474 7212 7213 1
6475 7213 7214 2
6476 7212 7215 1
6477 7216 7217 1
6478 7217 7218 1
6479 7218 7219 2
6480 7217 7220 1
6481 7220 7221 1
6482 7221 7222 1
6483 7221 7223 2
6484 7222 7224 1
6485 7223 7225 1
6486 7224 7225 2
6487 7226 7227 1
6488 7227 7228 1
6489 7228 7229 2
6490 7227 7230 1
6491 7230 7231 1
6492 7231 7232 1
6493 7232 7233 1
6494 7233 7234 1
6495 7234 7235 am
6496 7234 7236 am
6497 7237 7238 1
6498 7238 7239 1
6499 7239 7240 2
6500 7238 7241 1
6501 7241 7242 1
6502 7242 7243 1
6503 7243 7237 1
6504 7244 7245 1
6505 7245 7246 1
6506 7246 7247 2
6507 7245 7248 1
6508 7248 7249 1
6509 7249 7250 am
6510 7249 7251 am
6511 7252 7253 1
6512 7253 7254 1
6513 7254 7255 2
6514 7253 7256 1
6515 7256 7257 1
6516 7257 7258 1
6517 7257 7259 1
6518 7260 7261 1
6519 7261 7262 1
6520 7262 7263 2
6521 7261 7264 1
6522 7264 7265 1
6523 7265 7266 1
6524 7266 7267 1
6525 7267 7268 1
6526 7269 7270 1
6527 7270 7271 1
6528 7271 7272 2
6529 7270 7273 1
6530 7274 7275 1
6531 7275 7276 1
6532 7276 7277 2
6533 7275 7278 1
6534 7278 7279 1
6535 7279 7280 am
6536 7279 7281 am
6537 7282 7283 1
6538 7283 7284 1
6539 7284 7285 2
6540 7286 7287 1
6541 7287 7288 1
6542 7288 7289 2
6543 7287 7290 1
6544 7290 7291 1
6545 7291 7292 1
6546 7292 7293 1
6547 7293 7294 1
6548 7294 7295 am
6549 7294 7296 am
6550 7297 7298 1
6551 7298 7299 1
6552 7299 7300 2
6553 7298 7301 1
6554 7301 7302 1
6555 7301 7303 1
6556 7304 7305 1
6557 7305 7306 1
6558 7306 7307 2
6559 7305 7308 1
6560 7308 7309 1
6561 7309 7310 ar
6562 7309 7311 ar
6563 7310 7312 ar
6564 7311 7313 ar
6565 7312 7314 ar
6566 7313 7314 ar
6567 7314 7315 1
6568 7316 7317 1
6569 7317 7318 1
6570 7318 7319 2
6571 7317 7320 1
6572 7320 7321 1
6573 7321 7322 1
6574 7321 7323 1
6575 7324 7325 1
6576 7325 7326 1
6577 7326 7327 2
6578 7325 7328 1
6579 7328 7329 1
6580 7329 7330 ar
6581 7329 7331 ar
6582 7330 7332 ar
6583 7331 7333 ar
6584 7332 7334 ar
6585 7333 7334 ar
6586 7334 7335 1
6587 7336 7337 1
6588 7337 7338 1
6589 7338 7339 2
6590 7337 7340 1
6591 7340 7341 1
6592 7340 7342 1
6593 7343 7344 1
6594 7344 7345 1
6595 7345 7346 2
6596 7344 7347 1
6597 7347 7348 1
6598 7348 7349 am
6599 7348 7350 am
6600 7351 7352 1
6601 7352 7353 1
6602 7353 7354 2
6603 7352 7355 1
6604 7355 7356 1
6605 7356 7357 1
6606 7356 7358 2
6607 7357 7359 1
6608 7358 7360 1
6609 7359 7360 2
6610 7361 7362 1
6611 7362 7363 1
6612 7363 7364 2
6613 7362 7365 1
6614 7366 7367 1
6615 7367 7368 1
6616 7368 7369 2
6617 7367 7370 1
6618 7370 7371 1
6619 7371 7372 1
6620 7371 7373 1
6621 7374 7375 1
6622 7375 7376 1
6623 7376 7377 2
6624 7375 7378 1
6625 7378 7379 1
6626 7379 7380 1
6627 7380 7381 1
6628 7381 7382 1
6629 7382 7383 am
6630 7382 7384 am
6631 7385 7386 1
6632 7386 7387 1
6633 7387 7388 2
6634 7389 7390 1
6635 7390 7391 1
6636 7391 7392 2
6637 7390 7393 1
6638 7393 7394 1
6639 7393 7395 1
6640 7396 7397 1
6641 7397 7398 1
6642 7398 7399 2
6643 7400 7401 1
6644 7401 7402 1
6645 7402 7403 2
6646 7401 7404 1
6647 7404 7405 1
6648 7404 7406 1
6649 7407 7408 1
6650 7408 7409 1
6651 7409 7410 2
6652 7408 7411 1
6653 7412 7413 1
6654 7413 7414 1
6655 7414 7415 2
6656 7413 7416 1
6657 7417 7418 1
6658 7418 7419 1
6659 7419 7420 2
6660 7418 7421 1
6661 7421 7422 1
6662 7423 7424 1
6663 7424 7425 1
6664 7425 7426 2
6665 7427 7428 1
6666 7428 7429 1
6667 7429 7430 2
6668 7428 7431 1
6669 7431 7432 1
6670 7432 7433 1
6671 7433 7427 1
6672 7434 7435 1
6673 7435 7436 1
6674 7436 7437 2
6675 7438 7439 1
6676 7439 7440 1
6677 7440 7441 2
6678 7439 7442 1
6679 7442 7443 1
6680 7442 7444 1
6681 7445 7446 1
6682 7446 7447 1
6683 7447 7448 2
6684 7446 7449 1
6685 7449 7450 1
6686 7450 7451 1
6687 7450 7452 1
6688 7453 7454 1
6689 7454 7455 1
6690 7455 7456 2
6691 7454 7457 1
6692 7457 7458 1
6693 7458 7459 1
6694 7459 7460 am
6695 7459 7461 am
6696 7462 7463 1
6697 7463 7464 1
6698 7464 7465 2
6699 7463 7466 1
6700 7466 7467 1
6701 7467 7468 1
6702 7468 7469 2
6703 7468 7470 1
6704 7462 7471 1
6705 7471 7464 1
6706 7471 7472 1
6707 7472 7473 1
6708 7473 7474 1
6709 7474 7475 2
6710 7474 7476 1
6711 7477 7478 1
6712 7478 7479 1
6713 7479 7480 2
6714 7478 7481 1
6715 7481 7482 1
6716 7482 7483 ar
6717 7482 7484 ar
6718 7483 7485 ar
6719 7484 7486 ar
6720 7485 7487 ar
6721 7486 7487 ar
6722 7487 7488 1
6723 7489 7490 1
6724 7490 7491 1
6725 7491 7492 2
6726 7490 7493 1
6727 7493 7494 1
6728 7494 7495 1
6729 7495 7496 1
6730 7496 7497 1
6731 7497 7498 am
6732 7497 7499 am
6733 7500 7501 1
6734 7501 7502 1
6735 7502 7503 2
6736 7501 7504 1
6737 7504 7505 1
6738 7505 7506 1
6739 7505 7507 1
6740 7508 7509 1
6741 7509 7510 1
6742 7510 7511 2
6743 7509 7512 1
6744 7512 7513 1
6745 7513 7514 1
6746 7514 7515 1
6747 7515 7516 1
6748 7517 7518 1
6749 7518 7519 1
6750 7519 7520 2
6751 7518 7521 1
6752 7521 7522 1
6753 7522 7523 1
6754 7523 7517 1
6755 7524 7525 1
6756 7525 7526 1
6757 7526 7527 2
6758 7525 7528 1
6759 7528 7529 1
6760 7529 7530 1
6761 7530 7531 1
6762 7531 7532 1
6763 7532 7533 am
6764 7532 7534 am
6765 7535 7536 1
6766 7536 7537 1
6767 7537 7538 2
6768 7536 7539 1
6769 7539 7540 1
6770 7540 7541 am
6771 7540 7542 am
6772 7543 7544 1
6773 7544 7545 1
6774 7545 7546 2
6775 7544 7547 1
6776 7548 7549 1
6777 7549 7550 1
6778 7550 7551 2
6779 7552 7553 1
6780 7553 7554 1
6781 7554 7555 2
6782 7553 7556 1
6783 7556 7557 1
6784 7557 7558 ar
6785 7557 7559 ar
6786 7558 7560 ar
6787 7559 7561 ar
6788 7560 7562 ar
6789 7561 7562 ar
6790 7563 7564 1
6791 7564 7565 1
6792 7565 7566 2
6793 7564 7567 1
6794 7567 7568 1
6795 7567 7569 1
6796 7568 7570 1
6797 7571 7572 1
6798 7572 7573 1
6799 7573 7574 2
6800 7572 7575 1
6801 7575 7576 1
6802 7576 7577 1
6803 7576 7578 1
6804 7579 7580 1
6805 7580 7581 1
6806 7581 7582 2
6807 7580 7583 1
6808 7583 7584 1
6809 7583 7585 1
6810 7586 7587 1
6811 7587 7588 1
6812 7588 7589 2
6813 7587 7590 1
6814 7590 7591 1
6815 7591 7592 1
6816 7591 7593 1
6817 7594 7595 1
6818 7595 7596 1
6819 7596 7597 2
6820 7595 7598 1
6821 7598 7599 1
6822 7599 7600 1
6823 7600 7601 1
6824 7601 7602 1
6825 7603 7604 1
6826 7604 7605 1
6827 7605 7606 2
6828 7604 7607 1
6829 7607 7608 1
6830 7607 7609 1
6831 7610 7611 1
6832 7611 7612 1
6833 7612 7613 2
6834 7611 7614 1
6835 7614 7615 1
6836 7615 7616 1
6837 7616 7617 1
6838 7617 7618 1
6839 7618 7619 am
6840 7618 7620 am
6841 7621 7622 1
6842 7622 7623 1
6843 7623 7624 am
6844 7622 7625 1
6845 7625 7626 1
6846 7623 7627 am
6847 3 7 1
6848 9 15 1
6849 17 24 1
6850 26 32 1
6851 34 36 1
6852 38 41 1
6853 43 46 1
6854 48 54 1
6855 56 62 1
6856 64 71 1
6857 73 79 1
6858 81 87 1
6859 89 96 1
6860 98 102 1
6861 104 113 1
6862 115 122 1
6863 124 127 1
6864 129 131 1
6865 133 142 1
6866 144 146 1
6867 148 151 1
6868 153 159 1
6869 161 166 1
6870 168 171 1
6871 173 182 1
6872 184 187 1
6873 189 199 1
6874 201 207 1
6875 209 216 1
6876 218 222 1
6877 224 230 1
6878 232 235 1
6879 237 242 1
6880 244 253 1
6881 255 261 1
6882 263 267 1
6883 269 275 1
6884 277 283 1
6885 285 287 1
6886 289 296 1
6887 298 310 1
6888 312 319 1
6889 321 330 1
6890 332 341 1
6891 343 349 1
6892 351 355 1
6893 357 362 1
6894 364 366 1
6895 368 372 1
6896 374 383 1
6897 385 390 1
6898 392 395 1
6899 397 402 1
6900 404 410 1
6901 412 418 1
6902 420 422 1
6903 424 436 1
6904 438 445 1
6905 447 453 1
6906 455 457 1
6907 459 466 1
6908 468 471 1
6909 473 479 1
6910 481 487 1
6911 489 491 1
6912 493 502 1
6913 504 511 1
6914 513 517 1
6915 519 525 1
6916 527 532 1
6917 534 539 1
6918 541 546 1
6919 548 552 1
6920 554 558 1
6921 560 572 1
6922 574 579 1
6923 581 587 1
6924 589 597 1
6925 599 601 1
6926 603 611 1
6927 613 615 1
6928 617 620 1
6929 622 627 1
6930 629 632 1
6931 634 644 1
6932 646 651 1
6933 653 659 1
6934 661 666 1
6935 668 675 1
6936 677 686 1
6937 688 693 1
6938 695 704 1
6939 706 709 1
6940 711 716 1
6941 718 725 1
6942 727 732 1
6943 734 739 1
6944 741 749 1
6945 751 756 1
6946 758 763 1
6947 765 772 1
6948 774 777 1
6949 779 785 1
6950 787 792 1
6951 794 800 1
6952 802 804 1
6953 806 812 1
6954 814 822 1
6955 824 830 1
6956 832 837 1
6957 839 844 1
6958 846 855 1
6959 857 864 1
6960 866 869 1
6961 871 873 1
6962 875 880 1
6963 882 889 1
6964 891 900 1
6965 902 911 1
6966 913 918 1
6967 920 928 1
6968 930 933 1
6969 935 941 1
6970 943 949 1
6971 951 960 1
6972 962 971 1
6973 973 979 1
6974 981 983 1
6975 985 991 1
6976 993 1000 1
6977 1002 1006 1
6978 1008 1011 1
6979 1013 1015 1
6980 1017 1022 1
6981 1024 1029 1
6982 1031 1043 1
6983 1045 1051 1
6984 1053 1059 1
6985 1061 1063 1
6986 1065 1070 1
6987 1072 1079 1
6988 1081 1087 1
6989 1089 1091 1
6990 1093 1098 1
6991 1100 1105 1
6992 1107 1116 1
6993 1118 1120 1
6994 1122 1126 1
6995 1128 1137 1
6996 1139 1145 1
6997 1147 1150 1
6998 1152 1160 1
6999 1162 1169 1
7000 1171 1180 1
7001 1182 1188 1
7002 1190 1195 1
7003 1197 1201 1
7004 1203 1205 1
7005 1207 1213 1
7006 1215 1221 1
7007 1223 1230 1
7008 1232 1239 1
7009 1241 1243 1
7010 1245 1252 1
7011 1254 1260 1
7012 1262 1267 1
7013 1269 1275 1
7014 1277 1280 1
7015 1282 1287 1
7016 1289 1298 1
7017 1300 1305 1
7018 1307 1310 1
7019 1312 1319 1
7020 1321 1330 1
7021 1332 1336 1
7022 1338 1341 1
7023 1343 1346 1
7024 1348 1352 1
7025 1354 1364 1
7026 1366 1371 1
7027 1373 1380 1
7028 1382 1388 1
7029 1390 1397 1
7030 1399 1405 1
7031 1407 1413 1
7032 1415 1427 1
7033 1429 1441 1
7034 1443 1449 1
7035 1451 1456 1
7036 1458 1460 1
7037 1462 1468 1
7038 1470 1479 1
7039 1481 1490 1
7040 1492 1498 1
7041 1500 1505 1
7042 1507 1512 1
7043 1514 1520 1
7044 1522 1529 1
7045 1531 1534 1
7046 1536 1545 1
7047 1547 1552 1
7048 1554 1557 1
7049 1559 1562 1
7050 1564 1566 1
7051 1568 1574 1
7052 1576 1582 1
7053 1584 1590 1
7054 1592 1597 1
7055 1599 1608 1
7056 1610 1615 1
7057 1617 1625 1
7058 1627 1630 1
7059 1632 1634 1
7060 1636 1646 1
7061 1648 1654 1
7062 1656 1664 1
7063 1666 1672 1
7064 1674 1679 1
7065 1681 1683 1
7066 1685 1692 1
7067 1694 1696 1
7068 1698 1704 1
7069 1706 1712 1
7070 1714 1721 1
7071 1723 1728 1
7072 1730 1737 1
7073 1739 1742 1
7074 1744 1748 1
7075 1750 1759 1
7076 1761 1763 1
7077 1765 1767 1
7078 1769 1776 1
7079 1778 1781 1
7080 1783 1789 1
7081 1791 1797 1
7082 1799 1802 1
7083 1804 1809 1
7084 1811 1816 1
7085 1818 1827 1
7086 1829 1834 1
7087 1836 1841 1
7088 1843 1850 1
7089 1852 1858 1
7090 1860 1863 1
7091 1865 1871 1
7092 1873 1880 1
7093 1882 1888 1
7094 1890 1893 1
7095 1895 1898 1
7096 1900 1902 1
7097 1904 1909 1
7098 1911 1918 1
7099 1920 1925 1
7100 1927 1936 1
7101 1938 1943 1
7102 1945 1950 1
7103 1952 1955 1
7104 1957 1962 1
7105 1964 1971 1
7106 1973 1978 1
7107 1980 1992 1
7108 1994 1998 1
7109 2000 2003 1
7110 2005 2012 1
7111 2014 2019 1
7112 2021 2026 1
7113 2028 2035 1
7114 2037 2043 1
7115 2045 2055 1
7116 2057 2064 1
7117 2066 2069 1
7118 2071 2074 1
7119 2076 2081 1
7120 2083 2087 1
7121 2089 2092 1
7122 2094 2097 1
7123 2099 2101 1
7124 2103 2110 1
7125 2112 2116 1
7126 2118 2123 1
7127 2125 2128 1
7128 2130 2136 1
7129 2138 2145 1
7130 2147 2153 1
7131 2155 2157 1
7132 2159 2168 1
7133 2170 2179 1
7134 2181 2185 1
7135 2187 2193 1
7136 2195 2198 1
7137 2200 2206 1
7138 2208 2215 1
7139 2217 2223 1
7140 2225 2228 1
7141 2230 2237 1
7142 2239 2248 1
7143 2250 2257 1
7144 2259 2264 1
7145 2266 2272 1
7146 2274 2276 1
7147 2278 2287 1
7148 2289 2298 1
7149 2300 2306 1
7150 2308 2314 1
7151 2316 2322 1
7152 2324 2333 1
7153 2335 2337 1
7154 2339 2344 1
7155 2346 2352 1
7156 2354 2363 1
7157 2365 2373 1
7158 2375 2382 1
7159 2384 2392 1
7160 2394 2402 1
7161 2404 2409 1
7162 2411 2420 1
7163 2422 2428 1
7164 2430 2432 1
7165 2434 2443 1
7166 2445 2450 1
7167 2452 2457 1
7168 2459 2464 1
7169 2466 2475 1
7170 2477 2483 1
7171 2485 2490 1
7172 2492 2497 1
7173 2499 2506 1
7174 2508 2511 1
7175 2513 2520 1
7176 2522 2528 1
7177 2530 2539 1
7178 2541 2547 1
7179 2549 2555 1
7180 2557 2564 1
7181 2566 2573 1
7182 2575 2583 1
7183 2585 2591 1
7184 2593 2599 1
7185 2601 2607 1
7186 2609 2612 1
7187 2614 2620 1
7188 2622 2631 1
7189 2633 2638 1
7190 2640 2644 1
7191 2646 2654 1
7192 2656 2666 1
7193 2668 2673 1
7194 2675 2680 1
7195 2682 2690 1
7196 2692 2697 1
7197 2699 2712 1
7198 2714 2723 1
7199 2725 2731 1
7200 2733 2736 1
7201 2738 2744 1
7202 2746 2749 1
7203 2751 2757 1
7204 2759 2766 1
7205 2768 2774 1
7206 2776 2778 1
7207 2780 2789 1
7208 2791 2801 1
7209 2803 2808 1
7210 2810 2815 1
7211 2817 2823 1
7212 2825 2832 1
7213 2834 2838 1
7214 2840 2846 1
7215 2848 2854 1
7216 2856 2863 1
7217 2865 2870 1
7218 2872 2880 1
7219 2882 2884 1
7220 2886 2895 1
7221 2897 2904 1
7222 2906 2910 1
7223 2912 2915 1
7224 2917 2919 1
7225 2921 2933 1
7226 2935 2938 1
7227 2940 2947 1
7228 2949 2955 1
7229 2957 2962 1
7230 2964 2968 1
7231 2970 2976 1
7232 2978 2984 1
7233 2986 2991 1
7234 2993 3000 1
7235 3002 3014 1
7236 3016 3023 1
7237 3025 3031 1
7238 3033 3036 1
7239 3038 3044 1
7240 3046 3051 1
7241 3053 3059 1
7242 3061 3070 1
7243 3072 3078 1
7244 3080 3089 1
7245 3091 3100 1
7246 3102 3107 1
7247 3109 3114 1
7248 3116 3123 1
7249 3125 3134 1
7250 3136 3142 1
7251 3144 3151 1
7252 3153 3159 1
7253 3161 3169 1
7254 3171 3174 1
7255 3176 3180 1
7256 3182 3187 1
7257 3189 3194 1
7258 3196 3202 1
7259 3204 3216 1
7260 3218 3222 1
7261 3224 3230 1
7262 3232 3234 1
7263 3236 3242 1
7264 3244 3251 1
7265 3253 3256 1
7266 3258 3260 1
7267 3262 3267 1
7268 3269 3271 1
7269 3273 3282 1
7270 3284 3290 1
7271 3292 3298 1
7272 3300 3303 1
7273 3305 3308 1
7274 3310 3316 1
7275 3318 3322 1
7276 3324 3333 1
7277 3335 3347 1
7278 3349 3354 1
7279 3356 3369 1
7280 3371 3377 1
7281 3379 3388 1
7282 3390 3396 1
7283 3398 3403 1
7284 3405 3409 1
7285 3411 3420 1
7286 3422 3427 1
7287 3429 3435 1
7288 3437 3445 1
7289 3447 3457 1
7290 3459 3466 1
7291 3468 3470 1
7292 3472 3478 1
7293 3480 3492 1
7294 3494 3498 1
7295 3500 3504 1
7296 3506 3513 1
7297 3515 3523 1
7298 3525 3530 1
7299 3532 3538 1
7300 3540 3545 1
7301 3547 3557 1
7302 3559 3563 1
7303 3565 3574 1
7304 3576 3582 1
7305 3584 3594 1
7306 3596 3599 1
7307 3601 3605 1
7308 3607 3614 1
7309 3616 3619 1
7310 3621 3628 1
7311 3630 3635 1
7312 3637 3640 1
7313 3642 3648 1
7314 3650 3656 1
7315 3658 3660 1
7316 3662 3669 1
7317 3671 3673 1
7318 3675 3681 1
7319 3683 3690 1
7320 3692 3697 1
7321 3699 3702 1
7322 3704 3710 1
7323 3712 3718 1
7324 3720 3726 1
7325 3728 3731 1
7326 3733 3736 1
7327 3738 3744 1
7328 3746 3752 1
7329 3754 3757 1
7330 3759 3776 1
7331 3778 3787 1
7332 3789 3798 1
7333 3800 3803 1
7334 3805 3811 1
7335 3813 3818 1
7336 3820 3829 1
7337 3831 3836 1
7338 3838 3844 1
7339 3846 3850 1
7340 3852 3859 1
7341 3861 3871 1
7342 3873 3878 1
7343 3880 3888 1
7344 3890 3893 1
7345 3895 3901 1
7346 3903 3905 1
7347 3907 3913 1
7348 3915 3917 1
7349 3919 3924 1
7350 3926 3928 1
7351 3930 3932 1
7352 3934 3940 1
7353 3942 3946 1
7354 3948 3955 1
7355 3957 3967 1
7356 3969 3976 1
7357 3978 3981 1
7358 3983 3989 1
7359 3991 4000 1
7360 4002 4009 1
7361 4011 4018 1
7362 4020 4030 1
7363 4032 4037 1
7364 4039 4048 1
7365 4050 4056 1
7366 4058 4064 1
7367 4066 4068 1
7368 4070 4072 1
7369 4074 4083 1
7370 4085 4090 1
7371 4092 4104 1
7372 4106 4113 1
7373 4115 4127 1
7374 4129 4135 1
7375 4137 4144 1
7376 4146 4154 1
7377 4156 4158 1
7378 4160 4166 1
7379 4168 4173 1
7380 4175 4180 1
7381 4182 4186 1
7382 4188 4193 1
7383 4195 4198 1
7384 4200 4206 1
7385 4208 4210 1
7386 4212 4217 1
7387 4219 4225 1
7388 4227 4235 1
7389 4237 4247 1
7390 4249 4251 1
7391 4253 4263 1
7392 4265 4267 1
7393 4269 4271 1
7394 4273 4279 1
7395 4281 4290 1
7396 4292 4294 1
7397 4296 4303 1
7398 4305 4312 1
7399 4314 4319 1
7400 4321 4329 1
7401 4331 4337 1
7402 4339 4341 1
7403 4343 4349 1
7404 4351 4360 1
7405 4362 4367 1
7406 4369 4374 1
7407 4376 4382 1
7408 4384 4386 1
7409 4388 4394 1
7410 4396 4401 1
7411 4403 4409 1
7412 4411 4414 1
7413 4416 4422 1
7414 4424 4433 1
7415 4435 4444 1
7416 4446 4451 1
7417 4453 4462 1
7418 4464 4469 1
7419 4471 4473 1
7420 4475 4481 1
7421 4483 4489 1
7422 4491 4497 1
7423 4499 4508 1
7424 4510 4517 1
7425 4519 4526 1
7426 4528 4533 1
7427 4535 4541 1
7428 4543 4550 1
7429 4552 4557 1
7430 4559 4565 1
7431 4567 4576 1
7432 4578 4584 1
7433 4586 4592 1
7434 4594 4599 1
7435 4601 4604 1
7436 4606 4615 1
7437 4617 4623 1
7438 4625 4637 1
7439 4639 4644 1
7440 4646 4648 1
7441 4650 4659 1
7442 4661 4666 1
7443 4668 4674 1
7444 4676 4685 1
7445 4687 4693 1
7446 4695 4697 1
7447 4699 4706 1
7448 4708 4714 1
7449 4716 4725 1
7450 4727 4730 1
7451 4732 4738 1
7452 4740 4745 1
7453 4747 4751 1
7454 4753 4756 1
7455 4758 4767 1
7456 4769 4773 1
7457 4775 4784 1
7458 4786 4795 1
7459 4797 4807 1
7460 4809 4816 1
7461 4818 4823 1
7462 4825 4832 1
7463 4834 4837 1
7464 4839 4845 1
7465 4847 4849 1
7466 4851 4853 1
7467 4855 4858 1
7468 4860 4866 1
7469 4868 4874 1
7470 4876 4878 1
7471 4880 4882 1
7472 4884 4889 1
7473 4891 4896 1
7474 4898 4904 1
7475 4906 4911 1
7476 4913 4916 1
7477 4918 4923 1
7478 4925 4930 1
7479 4932 4935 1
7480 4937 4942 1
7481 4944 4951 1
7482 4953 4957 1
7483 4959 4966 1
7484 4968 4973 1
7485 4975 4980 1
7486 4982 4987 1
7487 4989 4996 1
7488 4998 5004 1
7489 5006 5011 1
7490 5013 5015 1
7491 5017 5021 1
7492 5023 5028 1
7493 5030 5033 1
7494 5035 5038 1
7495 5040 5046 1
7496 5048 5051 1
7497 5053 5056 1
7498 5058 5060 1
7499 5062 5068 1
7500 5070 5074 1
7501 5076 5082 1
7502 5084 5086 1
7503 5088 5097 1
7504 5099 5104 1
7505 5106 5109 1
7506 5111 5116 1
7507 5118 5124 1
7508 5126 5131 1
7509 5133 5138 1
7510 5140 5149 1
7511 5151 5154 1
7512 5156 5161 1
7513 5163 5169 1
7514 5171 5173 1
7515 5175 5178 1
7516 5180 5186 1
7517 5188 5192 1
7518 5194 5197 1
7519 5199 5211 1
7520 5213 5216 1
7521 5218 5224 1
7522 5226 5229 1
7523 5231 5233 1
7524 5235 5243 1
7525 5245 5252 1
7526 5254 5259 1
7527 5261 5264 1
7528 5266 5278 1
7529 5280 5282 1
7530 5284 5291 1
7531 5293 5297 1
7532 5299 5304 1
7533 5306 5315 1
7534 5317 5324 1
7535 5326 5331 1
7536 5333 5335 1
7537 5337 5340 1
7538 5342 5347 1
7539 5349 5354 1
7540 5356 5361 1
7541 5363 5368 1
7542 5370 5373 1
7543 5375 5380 1
7544 5382 5387 1
7545 5389 5396 1
7546 5398 5403 1
7547 5405 5410 1
7548 5412 5419 1
7549 5421 5426 1
7550 5428 5435 1
7551 5437 5443 1
7552 5445 5449 1
7553 5451 5458 1
7554 5460 5466 1
7555 5468 5473 1
7556 5475 5481 1
7557 5483 5485 1
7558 5487 5492 1
7559 5494 5503 1
7560 5505 5510 1
7561 5512 5521 1
7562 5523 5527 1
7563 5529 5538 1
7564 5540 5543 1
7565 5545 5550 1
7566 5552 5554 1
7567 5556 5562 1
7568 5564 5569 1
7569 5571 5576 1
7570 5578 5582 1
7571 5584 5590 1
7572 5592 5594 1
7573 5596 5598 1
7574 5600 5605 1
7575 5607 5612 1
7576 5614 5619 1
7577 5621 5628 1
7578 5630 5637 1
7579 5639 5645 1
7580 5647 5649 1
7581 5651 5657 1
7582 5659 5664 1
7583 5666 5672 1
7584 5674 5686 1
7585 5688 5700 1
7586 5702 5705 1
7587 5707 5712 1
7588 5714 5719 1
7589 5721 5727 1
7590 5729 5735 1
7591 5737 5743 1
7592 5745 5751 1
7593 5753 5755 1
7594 5757 5766 1
7595 5768 5775 1
7596 5777 5789 1
7597 5791 5793 1
7598 5795 5797 1
7599 5799 5802 1
7600 5804 5810 1
7601 5812 5819 1
7602 5821 5830 1
7603 5832 5837 1
7604 5839 5845 1
7605 5847 5850 1
7606 5852 5857 1
7607 5859 5866 1
7608 5868 5880 1
7609 5882 5889 1
7610 5891 5897 1
7611 5899 5902 1
7612 5904 5906 1
7613 5908 5914 1
7614 5916 5922 1
7615 5924 5933 1
7616 5935 5941 1
7617 5943 5951 1
7618 5953 5958 1
7619 5960 5969 1
7620 5971 5977 1
7621 5979 5985 1
7622 5987 5989 1
7623 5991 5997 1
7624 5999 6003 1
7625 6005 6008 1
7626 6010 6016 1
7627 6018 6023 1
7628 6025 6027 1
7629 6029 6036 1
7630 6038 6044 1
7631 6046 6048 1
7632 6050 6052 1
7633 6054 6061 1
7634 6063 6068 1
7635 6070 6076 1
7636 6078 6083 1
7637 6085 6090 1
7638 6092 6101 1
7639 6103 6108 1
7640 6110 6119 1
7641 6121 6126 1
7642 6128 6132 1
7643 6134 6137 1
7644 6139 6142 1
7645 6144 6150 1
7646 6152 6159 1
7647 6161 6168 1
7648 6170 6180 1
7649 6182 6184 1
7650 6186 6191 1
7651 6193 6199 1
7652 6201 6206 1
7653 6208 6214 1
7654 6216 6226 1
7655 6228 6233 1
7656 6235 6247 1
7657 6249 6253 1
7658 6255 6260 1
7659 6262 6268 1
7660 6270 6272 1
7661 6274 6281 1
7662 6283 6288 1
7663 6290 6295 1
7664 6297 6299 1
7665 6301 6307 1
7666 6309 6318 1
7667 6320 6325 1
7668 6327 6334 1
7669 6336 6341 1
7670 6343 6352 1
7671 6354 6363 1
7672 6365 6371 1
7673 6373 6375 1
7674 6377 6382 1
7675 6384 6396 1
7676 6398 6403 1
7677 6405 6411 1
7678 6413 6422 1
7679 6424 6426 1
7680 6428 6437 1
7681 6439 6452 1
7682 6454 6459 1
7683 6461 6468 1
7684 6470 6482 1
7685 6484 6487 1
7686 6489 6498 1
7687 6500 6506 1
7688 6508 6510 1
7689 6512 6518 1
7690 6520 6527 1
7691 6529 6538 1
7692 6540 6545 1
7693 6547 6553 1
7694 6555 6557 1
7695 6559 6566 1
7696 6568 6575 1
7697 6577 6582 1
7698 6584 6591 1
7699 6593 6599 1
7700 6601 6606 1
7701 6608 6612 1
7702 6614 6626 1
7703 6628 6637 1
7704 6639 6641 1
7705 6643 6650 1
7706 6652 6654 1
7707 6656 6661 1
7708 6663 6671 1
7709 6673 6680 1
7710 6682 6686 1
7711 6688 6698 1
7712 6700 6705 1
7713 6707 6713 1
7714 6715 6720 1
7715 6722 6724 1
7716 6726 6733 1
7717 6735 6737 1
7718 6739 6742 1
7719 6744 6753 1
7720 6755 6758 1
7721 6760 6762 1
7722 6764 6776 1
7723 6778 6787 1
7724 6789 6793 1
7725 6795 6801 1
7726 6803 6808 1
7727 6810 6816 1
7728 6818 6821 1
7729 6823 6830 1
7730 6832 6838 1
7731 6840 6846 1
7732 6848 6853 1
7733 6855 6862 1
7734 6864 6874 1
7735 6876 6881 1
7736 6883 6892 1
7737 6894 6899 1
7738 6901 6908 1
7739 6910 6917 1
7740 6919 6923 1
7741 6925 6927 1
7742 6929 6932 1
7743 6934 6943 1
7744 6945 6949 1
7745 6951 6953 1
7746 6955 6959 1
7747 6961 6970 1
7748 6972 6976 1
7749 6978 6981 1
7750 6983 6986 1
7751 6988 6994 1
7752 6996 7003 1
7753 7005 7011 1
7754 7013 7015 1
7755 7017 7019 1
7756 7021 7030 1
7757 7032 7037 1
7758 7039 7045 1
7759 7047 7054 1
7760 7056 7062 1
7761 7064 7068 1
7762 7070 7072 1
7763 7074 7080 1
7764 7082 7087 1
7765 7089 7098 1
7766 7100 7103 1
7767 7105 7111 1
7768 7113 7118 1
7769 7120 7125 1
7770 7127 7136 1
7771 7138 7143 1
7772 7145 7155 1
7773 7157 7161 1
7774 7163 7170 1
7775 7172 7178 1
7776 7180 7185 1
7777 7187 7193 1
7778 7195 7201 1
7779 7203 7206 1
7780 7208 7211 1
7781 7213 7216 1
7782 7218 7226 1
7783 7228 7237 1
7784 7239 7244 1
7785 7246 7252 1
7786 7254 7260 1
7787 7262 7269 1
7788 7271 7274 1
7789 7276 7282 1
7790 7284 7286 1
7791 7288 7297 1
7792 7299 7304 1
7793 7306 7316 1
7794 7318 7324 1
7795 7326 7336 1
7796 7338 7343 1
7797 7345 7351 1
7798 7353 7361 1
7799 7363 7366 1
7800 7368 7374 1
7801 7376 7385 1
7802 7387 7389 1
7803 7391 7396 1
7804 7398 7400 1
7805 7402 7407 1
7806 7409 7412 1
7807 7414 7417 1
7808 7419 7423 1
7809 7425 7427 1
7810 7429 7434 1
7811 7436 7438 1
7812 7440 7445 1
7813 7447 7453 1
7814 7455 7462 1
7815 7464 7477 1
7816 7479 7489 1
7817 7491 7500 1
7818 7502 7508 1
7819 7510 7517 1
7820 7519 7524 1
7821 7526 7535 1
7822 7537 7543 1
7823 7545 7548 1
7824 7550 7552 1
7825 7554 7563 1
7826 7565 7571 1
7827 7573 7579 1
7828 7581 7586 1
7829 7588 7594 1
7830 7596 7603 1
7831 7605 7610 1
7832 7612 7621 1
7833 7628 7629 1
7834 7628 7637 1
7835 7629 7630 1
7836 7629 7634 1
7837 7630 7631 1
7838 7630 7635 1
7839 7631 7632 1
7840 7631 7636 1
7841 7632 7633 1
7842 7632 7637 1
7843 7633 7638 1
7844 7639 7640 1
7845 7639 7645 1
7846 7640 7641 1
7847 7640 7646 1
7848 7640 7649 1
7849 7641 7642 1
7850 7641 7647 1
7851 7642 7643 1
7852 7642 7648 1
7853 7643 7644 1
7854 7643 7649 1
7855 7644 7650 1
7856 7628 7646 1
7857 7651 7652 1
7858 7651 7660 1
7859 7652 7653 1
7860 7652 7657 1
7861 7653 7654 1
7862 7653 7658 1
7863 7654 7655 1
7864 7654 7659 1
7865 7655 7656 1
7866 7655 7660 1
7867 7656 7661 1
7868 7662 7663 1
7869 7662 7668 1
7870 7663 7664 1
7871 7663 7669 1
7872 7663 7672 1
7873 7664 7665 1
7874 7664 7670 1
7875 7665 7666 1
7876 7665 7671 1
7877 7666 7667 1
7878 7666 7672 1
7879 7667 7673 1
7880 7651 7669 1
7881 7674 7675 1
7882 7674 7683 1
7883 7675 7676 1
7884 7675 7680 1
7885 7676 7677 1
7886 7676 7681 1
7887 7677 7678 1
7888 7677 7682 1
7889 7678 7679 1
7890 7678 7683 1
7891 7679 7684 1
7892 7685 7686 1
7893 7685 7691 1
7894 7686 7687 1
7895 7686 7692 1
7896 7686 7695 1
7897 7687 7688 1
7898 7687 7693 1
7899 7688 7689 1
7900 7688 7694 1
7901 7689 7690 1
7902 7689 7695 1
7903 7690 7696 1
7904 7674 7692 1
7905 7697 7698 2
7906 7697 7699 1
7907 7697 7700 1
7908 7701 7702 1
7909 7701 7703 2
7910 7701 7704 1
7911 7705 7706 2
7912 7705 7707 1
7913 7705 7708 1
7914 7709 7710 2
7915 7709 7711 1
7916 7709 7712 1
7917 7713 7714 1
7918 7713 7715 2
7919 7713 7716 1
7920 7720 7721 1
7921 7720 7722 1
7922 7721 7723 2
7923 7721 7724 1
7924 7722 7725 2
7925 7722 7726 1
@<TRIPOS>CRYSIN
138.241 138.241 127.568 90 90 90 1 1
