@<TRIPOS>MOLECULE
SER24
6 5
SMALL
USER_CHARGES


@<TRIPOS>ATOM
1 N -0.207000002264977 49.2980003356934 40.6749992370605 N 0.0 **** 0.0
2 CA 0.861000001430511 48.5320014953613 40.0279998779297 C 0.0 **** 0.0
3 C 0.481000006198883 47.0699996948242 39.9199981689453 C 0.0 **** 0.0
4 O 0.507000029087067 46.3440017700195 40.9090003967285 O 0.0 **** 0.0
5 CB 2.16499996185303 48.6650009155273 40.7949981689453 C 0.0 **** 0.0
6 OG 2.41300010681152 50.0200004577637 41.0940017700195 O 0.0 **** 0.0
@<TRIPOS>BOND
1 1 2 1
2 2 3 1
3 2 5 1
4 3 4 1
5 5 6 1
@<TRIPOS>MOLECULE
LEU25
8 7
SMALL
USER_CHARGES


@<TRIPOS>ATOM
1 N 0.140000000596046 46.6399993896484 38.7050018310547 N 0.0 **** 0.0
2 CA -0.559000015258789 45.382999420166 38.4980010986328 C 0.0 **** 0.0
3 C 0.237000003457069 44.3489990234375 37.7249984741211 C 0.0 **** 0.0
4 O -0.234999999403954 43.2159996032715 37.5820007324219 O 0.0 **** 0.0
5 CB -1.87800002098084 45.6279983520508 37.7540016174316 C 0.0 **** 0.0
6 CG -3.00600004196167 46.367000579834 38.4690017700195 C 0.0 **** 0.0
7 CD1 -2.59999990463257 47.7789993286133 38.9119987487793 C 0.0 **** 0.0
8 CD2 -4.2480001449585 46.431999206543 37.556999206543 C 0.0 **** 0.0
@<TRIPOS>BOND
1 1 2 1
2 2 5 1
3 2 3 1
4 3 4 1
5 5 6 1
6 6 7 1
7 6 8 1
@<TRIPOS>MOLECULE
GLU26
9 8
SMALL
USER_CHARGES


@<TRIPOS>ATOM
1 N 1.40299999713898 44.693000793457 37.1959991455078 N 0.0 **** 0.0
2 CA 2.13299989700317 43.7140007019043 36.4099998474121 C 0.0 **** 0.0
3 C 2.68499994277954 42.625 37.3300018310547 C 0.0 **** 0.0
4 O 2.97199988365173 42.8699989318848 38.5 O 0.0 **** 0.0
5 CB 3.25500011444092 44.3919982910156 35.6209983825684 C 0.0 **** 0.0
6 CG 4.4689998626709 44.8310012817383 36.4389991760254 C 0.0 **** 0.0
7 CD 4.38800001144409 46.2319984436035 36.9949989318848 C 0.0 **** 0.0
8 OE1 3.28299999237061 46.8139991760254 37.125 O 0.0 **** 0.0
9 OE2 5.49599981307983 46.7519989013672 37.2779998779297 O 0.0 **** 0.0
@<TRIPOS>BOND
1 1 2 1
2 2 3 1
3 2 5 1
4 3 4 1
5 5 6 1
6 6 7 1
7 7 8 1
8 7 9 1
@<TRIPOS>MOLECULE
LEU27
8 7
SMALL
USER_CHARGES


@<TRIPOS>ATOM
1 N 2.7960000038147 41.4090003967285 36.7929992675781 N 0.0 **** 0.0
2 CA 3.34800004959106 40.265998840332 37.5060005187988 C 0.0 **** 0.0
3 C 4.87099981307983 40.2519989013672 37.439998626709 C 0.0 **** 0.0
4 O 5.47900009155273 40.742000579834 36.484001159668 O 0.0 **** 0.0
5 CB 2.83100008964539 38.9580001831055 36.9099998474121 C 0.0 **** 0.0
6 CG 1.307000041008 38.7439994812012 36.9329986572266 C 0.0 **** 0.0
7 CD1 0.949999988079071 37.4150009155273 36.2690010070801 C 0.0 **** 0.0
8 CD2 0.746999979019165 38.7939987182617 38.3470001220703 C 0.0 **** 0.0
@<TRIPOS>BOND
1 1 2 1
2 2 5 1
3 2 3 1
4 3 4 1
5 5 6 1
6 6 7 1
7 6 8 1
@<TRIPOS>MOLECULE
GLY28
4 3
SMALL
USER_CHARGES


@<TRIPOS>ATOM
1 N 5.48000001907349 39.6860008239746 38.4809989929199 N 0.0 **** 0.0
2 CA 6.88199996948242 39.3230018615723 38.4679985046387 C 0.0 **** 0.0
3 C 7.85900020599365 40.4550018310547 38.6660003662109 C 0.0 **** 0.0
4 O 9.03299999237061 40.2890014648438 38.351001739502 O 0.0 **** 0.0
@<TRIPOS>BOND
1 1 2 1
2 2 3 1
3 3 4 1
@<TRIPOS>MOLECULE
ALA29
5 4
SMALL
USER_CHARGES


@<TRIPOS>ATOM
1 N 7.43200016021729 41.5870018005371 39.2280006408691 N 0.0 **** 0.0
2 CA 8.30900001525879 42.7569999694824 39.2599983215332 C 0.0 **** 0.0
3 C 9.48600006103516 42.5699996948242 40.2050018310547 C 0.0 **** 0.0
4 O 10.5520000457764 43.1559982299805 39.9860000610352 O 0.0 **** 0.0
5 CB 7.52299976348877 43.9990005493164 39.6769981384277 C 0.0 **** 0.0
@<TRIPOS>BOND
1 1 2 1
2 2 3 1
3 2 5 1
4 3 4 1
@<TRIPOS>MOLECULE
ALA30
5 4
SMALL
USER_CHARGES


@<TRIPOS>ATOM
1 N 9.30700016021729 41.7869987487793 41.2690010070801 N 0.0 **** 0.0
2 CA 10.3819999694824 41.601001739502 42.2350006103516 C 0.0 **** 0.0
3 C 11.4919996261597 40.7459983825684 41.6559982299805 C 0.0 **** 0.0
4 O 12.6669998168945 41.0919990539551 41.7809982299805 O 0.0 **** 0.0
5 CB 9.85000038146973 40.9620018005371 43.5149993896484 C 0.0 **** 0.0
@<TRIPOS>BOND
1 1 2 1
2 2 3 1
3 2 5 1
4 3 4 1
@<TRIPOS>MOLECULE
ASP31
8 7
SMALL
USER_CHARGES


@<TRIPOS>ATOM
1 N 11.1379995346069 39.6030006408691 41.0579986572266 N 0.0 **** 0.0
2 CA 12.1160001754761 38.8009986877441 40.3289985656738 C 0.0 **** 0.0
3 C 12.8680000305176 39.6570014953613 39.310001373291 C 0.0 **** 0.0
4 O 14.0950002670288 39.5740013122559 39.185001373291 O 0.0 **** 0.0
5 CB 11.4280004501343 37.6349983215332 39.6049995422363 C 0.0 **** 0.0
6 CG 11.2559995651245 36.3790016174316 40.4669990539551 C 0.0 **** 0.0
7 OD1 11.2840003967285 36.4580001831055 41.7229995727539 O 0.0 **** 0.0
8 OD2 11.076000213623 35.2980003356934 39.8409996032715 O 0.0 **** 0.0
@<TRIPOS>BOND
1 1 2 1
2 2 3 1
3 2 5 1
4 3 4 1
5 5 6 1
6 6 8 1
7 6 7 1
@<TRIPOS>MOLECULE
ILE32
8 7
SMALL
USER_CHARGES


@<TRIPOS>ATOM
1 N 12.1470003128052 40.4720001220703 38.5470008850098 N 0.0 **** 0.0
2 CA 12.8229999542236 41.2120018005371 37.4860000610352 C 0.0 **** 0.0
3 C 13.7170000076294 42.2770004272461 38.0900001525879 C 0.0 **** 0.0
4 O 14.8420000076294 42.4900016784668 37.6389999389648 O 0.0 **** 0.0
5 CB 11.8079996109009 41.7929992675781 36.492000579834 C 0.0 **** 0.0
6 CG1 11.3159999847412 40.6500015258789 35.5960006713867 C 0.0 **** 0.0
7 CG2 12.4329996109009 42.9099998474121 35.6269989013672 C 0.0 **** 0.0
8 CD1 10.1660003662109 41.0029983520508 34.7299995422363 C 0.0 **** 0.0
@<TRIPOS>BOND
1 1 2 1
2 2 3 1
3 2 5 1
4 3 4 1
5 5 7 1
6 5 6 1
7 6 8 1
@<TRIPOS>MOLECULE
GLN33
9 8
SMALL
USER_CHARGES


@<TRIPOS>ATOM
1 N 13.2620000839233 42.9029998779297 39.1730003356934 N 0.0 **** 0.0
2 CA 14.0959997177124 43.8940010070801 39.8300018310547 C 0.0 **** 0.0
3 C 15.414999961853 43.2820014953613 40.2890014648438 C 0.0 **** 0.0
4 O 16.4659996032715 43.9140014648438 40.1889991760254 O 0.0 **** 0.0
5 CB 13.3269996643066 44.4830017089844 41.0 C 0.0 **** 0.0
6 CG 13.8830003738403 45.7529983520508 41.5550003051758 C 0.0 **** 0.0
7 CD 13.0649995803833 46.2249984741211 42.7439994812012 C 0.0 **** 0.0
8 OE1 11.835000038147 46.0849990844727 42.7599983215332 O 0.0 **** 0.0
9 NE2 13.7419996261597 46.75 43.765998840332 N 0.0 **** 0.0
@<TRIPOS>BOND
1 1 2 1
2 2 3 1
3 2 5 1
4 3 4 1
5 5 6 1
6 6 7 1
7 7 8 1
8 7 9 1
@<TRIPOS>MOLECULE
ASP34
8 7
SMALL
USER_CHARGES


@<TRIPOS>ATOM
1 N 15.3809995651245 42.0449981689453 40.7779998779297 N 0.0 **** 0.0
2 CA 16.6189994812012 41.382999420166 41.1699981689453 C 0.0 **** 0.0
3 C 17.496000289917 41.132999420166 39.9560012817383 C 0.0 **** 0.0
4 O 18.7049999237061 41.3689994812012 39.9990005493164 O 0.0 **** 0.0
5 CB 16.3400001525879 40.0559997558594 41.9000015258789 C 0.0 **** 0.0
6 CG 17.6100006103516 39.1969985961914 42.0660018920898 C 0.0 **** 0.0
7 OD1 18.4109992980957 39.4959983825684 42.9879989624023 O 0.0 **** 0.0
8 OD2 17.818000793457 38.2249984741211 41.2910003662109 O 0.0 **** 0.0
@<TRIPOS>BOND
1 1 2 1
2 2 5 1
3 2 3 1
4 3 4 1
5 5 6 1
6 6 7 1
7 6 8 1
@<TRIPOS>MOLECULE
LEU35
8 7
SMALL
USER_CHARGES


@<TRIPOS>ATOM
1 N 16.9020004272461 40.6459999084473 38.8629989624023 N 0.0 **** 0.0
2 CA 17.6889991760254 40.3629989624023 37.6640014648438 C 0.0 **** 0.0
3 C 18.3360004425049 41.6180000305176 37.1020011901855 C 0.0 **** 0.0
4 O 19.4069995880127 41.5359992980957 36.4879989624023 O 0.0 **** 0.0
5 CB 16.8040008544922 39.7150001525879 36.5989990234375 C 0.0 **** 0.0
6 CG 16.3020000457764 38.3050003051758 36.9160003662109 C 0.0 **** 0.0
7 CD1 15.4899997711182 37.7960014343262 35.7109985351563 C 0.0 **** 0.0
8 CD2 17.4680004119873 37.3839988708496 37.2280006408691 C 0.0 **** 0.0
@<TRIPOS>BOND
1 1 2 1
2 2 5 1
3 2 3 1
4 3 4 1
5 5 6 1
6 6 8 1
7 6 7 1
@<TRIPOS>MOLECULE
GLU36
9 8
SMALL
USER_CHARGES


@<TRIPOS>ATOM
1 N 17.7369995117188 42.7729988098145 37.3409996032715 N 0.0 **** 0.0
2 CA 18.2479991912842 44.0439987182617 36.8429985046387 C 0.0 **** 0.0
3 C 19.2099990844727 44.6959991455078 37.818000793457 C 0.0 **** 0.0
4 O 19.7110004425049 45.7919998168945 37.5419998168945 O 0.0 **** 0.0
5 CB 17.0779991149902 44.9819984436035 36.5089988708496 C 0.0 **** 0.0
6 CG 16.1520004272461 44.3520011901855 35.4169998168945 C 0.0 **** 0.0
7 CD 15.1169996261597 45.3170013427734 34.7840003967285 C 0.0 **** 0.0
8 OE1 14.8269996643066 46.367000579834 35.3880004882813 O 0.0 **** 0.0
9 OE2 14.621000289917 45.0019989013672 33.6520004272461 O 0.0 **** 0.0
@<TRIPOS>BOND
1 1 2 1
2 2 5 1
3 2 3 1
4 3 4 1
5 5 6 1
6 6 7 1
7 7 9 1
8 7 8 1
@<TRIPOS>MOLECULE
SER37
6 5
SMALL
USER_CHARGES


@<TRIPOS>ATOM
1 N 19.5340003967285 44.0110015869141 38.9199981689453 N 0.0 **** 0.0
2 CA 20.4160003662109 44.5670013427734 39.9379997253418 C 0.0 **** 0.0
3 C 21.8379993438721 44.7249984741211 39.4169998168945 C 0.0 **** 0.0
4 O 22.3589992523193 43.859001159668 38.7120018005371 O 0.0 **** 0.0
5 CB 20.4190006256104 43.6580009460449 41.185001373291 C 0.0 **** 0.0
6 OG 21.5930004119873 43.8800010681152 41.9710006713867 O 0.0 **** 0.0
@<TRIPOS>BOND
1 1 2 1
2 2 3 1
3 2 5 1
4 3 4 1
5 5 6 1
@<TRIPOS>MOLECULE
PHE38
11 11
SMALL
USER_CHARGES


@<TRIPOS>ATOM
1 N 22.5219993591309 45.7910003662109 39.810001373291 N 0.0 **** 0.0
2 CA 23.9379997253418 46.0429992675781 39.4690017700195 C 0.0 **** 0.0
3 C 24.8619995117188 45.3769989013672 40.4749984741211 C 0.0 **** 0.0
4 O 26.0499992370605 45.4119987487793 40.2669982910156 O 0.0 **** 0.0
5 CB 24.2880001068115 47.5149993896484 39.6180000305176 C 0.0 **** 0.0
6 CG 23.5480003356934 48.4039993286133 38.6800003051758 C 0.0 **** 0.0
7 CD1 23.8740005493164 48.4119987487793 37.3470001220703 C 0.0 **** 0.0
8 CD2 22.5330009460449 49.2179985046387 39.1279983520508 C 0.0 **** 0.0
9 CE1 23.2000007629395 49.234001159668 36.4710006713867 C 0.0 **** 0.0
10 CE2 21.8570003509521 50.0320014953613 38.2470016479492 C 0.0 **** 0.0
11 CZ 22.17799949646 50.0200004577637 36.9189987182617 C 0.0 **** 0.0
@<TRIPOS>BOND
1 1 2 1
2 2 5 1
3 2 3 1
4 3 4 1
5 5 6 1
6 6 8 1
7 6 7 1
8 7 9 1
9 8 10 1
10 9 11 1
11 10 11 1
@<TRIPOS>MOLECULE
GLU39
9 8
SMALL
USER_CHARGES


@<TRIPOS>ATOM
1 N 24.3250007629395 44.8600006103516 41.5660018920898 N 0.0 **** 0.0
2 CA 25.1700000762939 44.3300018310547 42.6119995117188 C 0.0 **** 0.0
3 C 25.6900005340576 42.9519996643066 42.234001159668 C 0.0 **** 0.0
4 O 25.1259994506836 42.2439994812012 41.3880004882813 O 0.0 **** 0.0
5 CB 24.4060001373291 44.2470016479492 43.9199981689453 C 0.0 **** 0.0
6 CG 23.9440002441406 45.5849990844727 44.4269981384277 C 0.0 **** 0.0
7 CD 23.2329998016357 45.4560012817383 45.7509994506836 C 0.0 **** 0.0
8 OE1 22.3689994812012 44.5540008544922 45.8779983520508 O 0.0 **** 0.0
9 OE2 23.5590000152588 46.234001159668 46.6769981384277 O 0.0 **** 0.0
@<TRIPOS>BOND
1 1 2 1
2 2 3 1
3 2 5 1
4 3 4 1
5 5 6 1
6 6 7 1
7 7 9 1
8 7 8 1
@<TRIPOS>MOLECULE
ALA40
5 4
SMALL
USER_CHARGES


@<TRIPOS>ATOM
1 N 26.7970008850098 42.5810012817383 42.859001159668 N 0.0 **** 0.0
2 CA 27.2600002288818 41.2169990539551 42.693000793457 C 0.0 **** 0.0
3 C 26.2679996490479 40.2929992675781 43.4090003967285 C 0.0 **** 0.0
4 O 25.2390003204346 40.7249984741211 43.9090003967285 O 0.0 **** 0.0
5 CB 28.6889991760254 41.0989990234375 43.1910018920898 C 0.0 **** 0.0
@<TRIPOS>BOND
1 1 2 1
2 2 5 1
3 2 3 1
4 3 4 1
@<TRIPOS>MOLECULE
GLY41
4 3
SMALL
USER_CHARGES


@<TRIPOS>ATOM
1 N 26.5100002288818 39.0040016174316 43.4300003051758 N 0.0 **** 0.0
2 CA 25.5240001678467 38.1959991455078 44.1450004577637 C 0.0 **** 0.0
3 C 25.3430004119873 38.6370010375977 45.5919990539551 C 0.0 **** 0.0
4 O 26.1490001678467 39.4169998168945 46.0989990234375 O 0.0 **** 0.0
@<TRIPOS>BOND
1 1 2 1
2 2 3 1
3 3 4 1
@<TRIPOS>MOLECULE
ARG42
11 10
SMALL
USER_CHARGES


@<TRIPOS>ATOM
1 N 24.3110008239746 38.1609992980957 46.2729988098145 N 0.0 **** 0.0
2 CA 24.2059993743896 38.3759994506836 47.7080001831055 C 0.0 **** 0.0
3 C 24.3540000915527 37.060001373291 48.4700012207031 C 0.0 **** 0.0
4 O 24.0499992370605 35.9850006103516 47.9500007629395 O 0.0 **** 0.0
5 CB 22.8780002593994 39.0429992675781 48.0550003051758 C 0.0 **** 0.0
6 CG 21.6490001678467 38.2089996337891 47.7630004882813 C 0.0 **** 0.0
7 CD 20.3439998626709 38.8779983520508 48.3349990844727 C 0.0 **** 0.0
8 NE 19.1089992523193 38.1879997253418 47.9480018615723 N 0.0 **** 0.0
9 CZ 18.503999710083 38.3240013122559 46.7639999389648 C 0.0 **** 0.0
10 NH1 19.0069999694824 39.1189994812012 45.8250007629395 N 0.0 **** 0.0
11 NH2 17.3850002288818 37.6559982299805 46.5130004882813 N 0.0 **** 0.0
@<TRIPOS>BOND
1 1 2 1
2 2 5 1
3 2 3 1
4 3 4 1
5 5 6 1
6 6 7 1
7 7 8 1
8 8 9 1
9 9 10 1
10 9 11 1
@<TRIPOS>MOLECULE
GLY43
4 3
SMALL
USER_CHARGES


@<TRIPOS>ATOM
1 N 24.8279991149902 37.1609992980957 49.7190017700195 N 0.0 **** 0.0
2 CA 24.7870006561279 36.0660018920898 50.6769981384277 C 0.0 **** 0.0
3 C 25.9400005340576 35.0999984741211 50.6240005493164 C 0.0 **** 0.0
4 O 25.9409999847412 34.1180000305176 51.3759994506836 O 0.0 **** 0.0
@<TRIPOS>BOND
1 1 2 1
2 2 3 1
3 3 4 1
@<TRIPOS>MOLECULE
ALA44
5 4
SMALL
USER_CHARGES


@<TRIPOS>ATOM
1 N 26.9220008850098 35.3390007019043 49.7599983215332 N 0.0 **** 0.0
2 CA 27.9939994812012 34.3769989013672 49.5579986572266 C 0.0 **** 0.0
3 C 29.136999130249 34.6040000915527 50.5340003967285 C 0.0 **** 0.0
4 O 29.3589992523193 35.7120018005371 51.0309982299805 O 0.0 **** 0.0
5 CB 28.5179996490479 34.4529991149902 48.117000579834 C 0.0 **** 0.0
@<TRIPOS>BOND
1 1 2 1
2 2 5 1
3 2 3 1
4 3 4 1
@<TRIPOS>MOLECULE
LEU45
8 7
SMALL
USER_CHARGES


@<TRIPOS>ATOM
1 N 29.8589992523193 33.5219993591309 50.8089981079102 N 0.0 **** 0.0
2 CA 31.0739994049072 33.5929985046387 51.5890007019043 C 0.0 **** 0.0
3 C 32.1660003662109 34.3359985351563 50.8120002746582 C 0.0 **** 0.0
4 O 32.0690002441406 34.5289993286133 49.5929985046387 O 0.0 **** 0.0
5 CB 31.5499992370605 32.1879997253418 51.951000213623 C 0.0 **** 0.0
6 CG 30.6650009155273 31.4290008544922 52.939998626709 C 0.0 **** 0.0
7 CD1 30.9650001525879 29.9220008850098 52.9099998474121 C 0.0 **** 0.0
8 CD2 30.8910007476807 31.9200000762939 54.3450012207031 C 0.0 **** 0.0
@<TRIPOS>BOND
1 1 2 1
2 2 3 1
3 2 5 1
4 3 4 1
5 5 6 1
6 6 8 1
7 6 7 1
@<TRIPOS>MOLECULE
PRO46
7 7
SMALL
USER_CHARGES


@<TRIPOS>ATOM
1 N 33.2130012512207 34.7630004882813 51.5029983520508 N 0.0 **** 0.0
2 CA 34.318000793457 35.4469985961914 50.8289985656738 C 0.0 **** 0.0
3 C 34.9519996643066 34.5730018615723 49.7589988708496 C 0.0 **** 0.0
4 O 35.1360015869141 33.3479995727539 49.9189987182617 O 0.0 **** 0.0
5 CB 35.2980003356934 35.7439994812012 51.9700012207031 C 0.0 **** 0.0
6 CG 34.4379997253418 35.7350006103516 53.2280006408691 C 0.0 **** 0.0
7 CD 33.3880004882813 34.7140007019043 52.9669990539551 C 0.0 **** 0.0
@<TRIPOS>BOND
1 1 2 1
2 1 7 1
3 2 5 1
4 2 3 1
5 3 4 1
6 5 6 1
7 6 7 1
@<TRIPOS>MOLECULE
ALA47
5 4
SMALL
USER_CHARGES


@<TRIPOS>ATOM
1 N 35.2569999694824 35.2299995422363 48.648998260498 N 0.0 **** 0.0
2 CA 36.0019989013672 34.6220016479492 47.5670013427734 C 0.0 **** 0.0
3 C 37.3330001831055 34.0960006713867 48.0880012512207 C 0.0 **** 0.0
4 O 37.9780006408691 34.7410011291504 48.9169998168945 O 0.0 **** 0.0
5 CB 36.2379989624023 35.6559982299805 46.4720001220703 C 0.0 **** 0.0
@<TRIPOS>BOND
1 1 2 1
2 2 5 1
3 2 3 1
4 3 4 1
@<TRIPOS>MOLECULE
ARG48
11 10
SMALL
USER_CHARGES


@<TRIPOS>ATOM
1 N 37.7389984130859 32.931999206543 47.5890007019043 N 0.0 **** 0.0
2 CA 38.9389991760254 32.2430000305176 48.0730018615723 C 0.0 **** 0.0
3 C 39.4650001525879 31.3479995727539 46.9679985046387 C 0.0 **** 0.0
4 O 38.8800010681152 31.2630004882813 45.8779983520508 O 0.0 **** 0.0
5 CB 38.6240005493164 31.4290008544922 49.3370018005371 C 0.0 **** 0.0
6 CG 37.5970001220703 30.298999786377 49.0919990539551 C 0.0 **** 0.0
7 CD 37.7529983520508 29.2070007324219 50.1500015258789 C 0.0 **** 0.0
8 NE 36.7900009155273 28.1240005493164 49.9809989929199 N 0.0 **** 0.0
9 CZ 36.8740005493164 26.9419994354248 50.5929985046387 C 0.0 **** 0.0
10 NH1 37.8969993591309 26.6690006256104 51.4140014648438 N 0.0 **** 0.0
11 NH2 35.923999786377 26.0340003967285 50.3950004577637 N 0.0 **** 0.0
@<TRIPOS>BOND
1 1 2 1
2 2 5 1
3 2 3 1
4 3 4 1
5 5 6 1
6 6 7 1
7 7 8 1
8 8 9 1
9 9 10 1
10 9 11 1
@<TRIPOS>MOLECULE
ALA49
5 4
SMALL
USER_CHARGES


@<TRIPOS>ATOM
1 N 40.5870018005371 30.6790008544922 47.2379989624023 N 0.0 **** 0.0
2 CA 41.1389999389648 29.742000579834 46.2799987792969 C 0.0 **** 0.0
3 C 40.314998626709 28.4680004119873 46.2169990539551 C 0.0 **** 0.0
4 O 39.6520004272461 28.0830001831055 47.173999786377 O 0.0 **** 0.0
5 CB 42.5800018310547 29.375 46.6349983215332 C 0.0 **** 0.0
@<TRIPOS>BOND
1 1 2 1
2 2 5 1
3 2 3 1
4 3 4 1
@<TRIPOS>MOLECULE
TYR50
12 12
SMALL
USER_CHARGES


@<TRIPOS>ATOM
1 N 40.3390007019043 27.8379993438721 45.0519981384277 N 0.0 **** 0.0
2 CA 39.951000213623 26.4389991760254 44.9249992370605 C 0.0 **** 0.0
3 C 41.0830001831055 25.5739994049072 45.4790000915527 C 0.0 **** 0.0
4 O 42.2130012512207 25.6040000915527 44.9640007019043 O 0.0 **** 0.0
5 CB 39.6629981994629 26.125 43.4650001525879 C 0.0 **** 0.0
6 CG 39.2719993591309 24.7099990844727 43.1800003051758 C 0.0 **** 0.0
7 CD1 37.9860000610352 24.2700004577637 43.4370002746582 C 0.0 **** 0.0
8 CD2 40.1650009155273 23.8330001831055 42.5830001831055 C 0.0 **** 0.0
9 CE1 37.5960006713867 22.9669990539551 43.1520004272461 C 0.0 **** 0.0
10 CE2 39.7970008850098 22.5279998779297 42.2770004272461 C 0.0 **** 0.0
11 CZ 38.5040016174316 22.1040000915527 42.5589981079102 C 0.0 **** 0.0
12 OH 38.1240005493164 20.8129997253418 42.2620010375977 O 0.0 **** 0.0
@<TRIPOS>BOND
1 1 2 1
2 2 5 1
3 2 3 1
4 3 4 1
5 5 6 1
6 6 7 1
7 6 8 1
8 7 9 1
9 8 10 1
10 9 11 1
11 10 11 1
12 11 12 1
@<TRIPOS>MOLECULE
LEU51
8 7
SMALL
USER_CHARGES


@<TRIPOS>ATOM
1 N 40.7960014343262 24.8509998321533 46.5620002746582 N 0.0 **** 0.0
2 CA 41.7910003662109 24.0799999237061 47.2980003356934 C 0.0 **** 0.0
3 C 41.3720016479492 22.6189994812012 47.4339981079102 C 0.0 **** 0.0
4 O 40.2120018005371 22.306999206543 47.7379989624023 O 0.0 **** 0.0
5 CB 42.0110015869141 24.6870002746582 48.6959991455078 C 0.0 **** 0.0
6 CG 42.4080009460449 26.1720008850098 48.7229995727539 C 0.0 **** 0.0
7 CD1 42.2350006103516 26.7290000915527 50.1319999694824 C 0.0 **** 0.0
8 CD2 43.8470001220703 26.3500003814697 48.25 C 0.0 **** 0.0
@<TRIPOS>BOND
1 1 2 1
2 2 3 1
3 2 5 1
4 3 4 1
5 5 6 1
6 6 7 1
7 6 8 1
@<TRIPOS>MOLECULE
GLN52
9 8
SMALL
USER_CHARGES


@<TRIPOS>ATOM
1 N 42.3349990844727 21.7310009002686 47.2050018310547 N 0.0 **** 0.0
2 CA 42.2169990539551 20.32200050354 47.5439987182617 C 0.0 **** 0.0
3 C 42.3860015869141 20.1630001068115 49.0509986877441 C 0.0 **** 0.0
4 O 43.4749984741211 20.4029998779297 49.5859985351563 O 0.0 **** 0.0
5 CB 43.2840003967285 19.5069999694824 46.818000793457 C 0.0 **** 0.0
6 CG 43.3450012207031 19.7369995117188 45.3300018310547 C 0.0 **** 0.0
7 CD 42.0849990844727 19.2639999389648 44.6290016174316 C 0.0 **** 0.0
8 OE1 41.3279991149902 18.4500007629395 45.1809997558594 O 0.0 **** 0.0
9 NE2 41.8450012207031 19.7719993591309 43.4150009155273 N 0.0 **** 0.0
@<TRIPOS>BOND
1 1 2 1
2 2 5 1
3 2 3 1
4 3 4 1
5 5 6 1
6 6 7 1
7 7 9 1
8 7 8 1
@<TRIPOS>MOLECULE
SER53
6 5
SMALL
USER_CHARGES


@<TRIPOS>ATOM
1 N 41.3370018005371 19.7269992828369 49.7249984741211 N 0.0 **** 0.0
2 CA 41.3499984741211 19.5669994354248 51.173999786377 C 0.0 **** 0.0
3 C 40.9939994812012 18.1410007476807 51.5460014343262 C 0.0 **** 0.0
4 O 40.3759994506836 17.4190006256104 50.7589988708496 O 0.0 **** 0.0
5 CB 40.3450012207031 20.5240001678467 51.7960014343262 C 0.0 **** 0.0
6 OG 40.1570014953613 20.2759990692139 53.1430015563965 O 0.0 **** 0.0
@<TRIPOS>BOND
1 1 2 1
2 2 5 1
3 2 3 1
4 3 4 1
5 5 6 1
@<TRIPOS>MOLECULE
ASP54
8 7
SMALL
USER_CHARGES


@<TRIPOS>ATOM
1 N 41.375 17.7439994812012 52.7750015258789 N 0.0 **** 0.0
2 CA 40.9179992675781 16.492000579834 53.3479995727539 C 0.0 **** 0.0
3 C 39.5830001831055 16.6450004577637 54.0629997253418 C 0.0 **** 0.0
4 O 39.1100006103516 15.6999998092651 54.6870002746582 O 0.0 **** 0.0
5 CB 41.9799995422363 15.9130001068115 54.3009986877441 C 0.0 **** 0.0
6 CG 42.2490005493164 16.7880001068115 55.5139999389648 C 0.0 **** 0.0
7 OD1 41.5940017700195 17.8349990844727 55.6870002746582 O 0.0 **** 0.0
8 OD2 43.109001159668 16.3850002288818 56.3339996337891 O 0.0 **** 0.0
@<TRIPOS>BOND
1 1 2 1
2 2 5 1
3 2 3 1
4 3 4 1
5 5 6 1
6 6 7 1
7 6 8 1
@<TRIPOS>MOLECULE
ALA55
5 4
SMALL
USER_CHARGES


@<TRIPOS>ATOM
1 N 38.9580001831055 17.8110008239746 53.9749984741211 N 0.0 **** 0.0
2 CA 37.6469993591309 17.9669990539551 54.5820007324219 C 0.0 **** 0.0
3 C 36.6220016479492 17.1410007476807 53.8059997558594 C 0.0 **** 0.0
4 O 36.6790008544922 17.0860004425049 52.568000793457 O 0.0 **** 0.0
5 CB 37.2239990234375 19.4389991760254 54.5849990844727 C 0.0 **** 0.0
@<TRIPOS>BOND
1 1 2 1
2 2 3 1
3 2 5 1
4 3 4 1
@<TRIPOS>MOLECULE
PRO56
7 7
SMALL
USER_CHARGES


@<TRIPOS>ATOM
1 N 35.6479988098145 16.5410003662109 54.4879989624023 N 0.0 **** 0.0
2 CA 34.6030006408691 15.7849998474121 53.7890014648438 C 0.0 **** 0.0
3 C 33.9059982299805 16.6140003204346 52.7229995727539 C 0.0 **** 0.0
4 O 33.6730003356934 17.8209991455078 52.8769989013672 O 0.0 **** 0.0
5 CB 33.6370010375977 15.4060001373291 54.9080009460449 C 0.0 **** 0.0
6 CG 34.4930000305176 15.3520002365112 56.1459999084473 C 0.0 **** 0.0
7 CD 35.5540008544922 16.3980007171631 55.9480018615723 C 0.0 **** 0.0
@<TRIPOS>BOND
1 1 2 1
2 1 7 1
3 2 3 1
4 2 5 1
5 3 4 1
6 5 6 1
7 6 7 1
@<TRIPOS>MOLECULE
ARG57
11 10
SMALL
USER_CHARGES


@<TRIPOS>ATOM
1 N 33.5559997558594 15.9540004730225 51.6319999694824 N 0.0 **** 0.0
2 CA 32.8499984741211 16.6459999084473 50.5690002441406 C 0.0 **** 0.0
3 C 31.94700050354 15.6529998779297 49.8629989624023 C 0.0 **** 0.0
4 O 32.201000213623 14.4429998397827 49.8650016784668 O 0.0 **** 0.0
5 CB 33.8089981079102 17.3159999847412 49.5919990539551 C 0.0 **** 0.0
6 CG 34.818000793457 16.4169998168945 48.9589996337891 C 0.0 **** 0.0
7 CD 35.8810005187988 17.246000289917 48.193000793457 C 0.0 **** 0.0
8 NE 35.3610000610352 17.9330005645752 47.0110015869141 N 0.0 **** 0.0
9 CZ 35.0550003051758 17.3169994354248 45.8689994812012 C 0.0 **** 0.0
10 NH1 35.193000793457 15.9910001754761 45.7560005187988 N 0.0 **** 0.0
11 NH2 34.601001739502 18.0209999084473 44.8330001831055 N 0.0 **** 0.0
@<TRIPOS>BOND
1 1 2 1
2 2 5 1
3 2 3 1
4 3 4 1
5 5 6 1
6 6 7 1
7 7 8 1
8 8 9 1
9 9 10 1
10 9 11 1
@<TRIPOS>MOLECULE
LEU58
8 7
SMALL
USER_CHARGES


@<TRIPOS>ATOM
1 N 30.8589992523193 16.17799949646 49.3110008239746 N 0.0 **** 0.0
2 CA 29.875 15.3719997406006 48.6069984436035 C 0.0 **** 0.0
3 C 29.4839992523193 16.117000579834 47.3409996032715 C 0.0 **** 0.0
4 O 28.9389991760254 17.2259998321533 47.4210014343262 O 0.0 **** 0.0
5 CB 28.6459999084473 15.1230001449585 49.4729995727539 C 0.0 **** 0.0
6 CG 27.423999786377 14.5229997634888 48.7589988708496 C 0.0 **** 0.0
7 CD1 27.6900005340576 13.0530004501343 48.4630012512207 C 0.0 **** 0.0
8 CD2 26.1410007476807 14.701000213623 49.5900001525879 C 0.0 **** 0.0
@<TRIPOS>BOND
1 1 2 1
2 2 5 1
3 2 3 1
4 3 4 1
5 5 6 1
6 6 8 1
7 6 7 1
@<TRIPOS>MOLECULE
SER59
6 5
SMALL
USER_CHARGES


@<TRIPOS>ATOM
1 N 29.7819995880127 15.5299997329712 46.1809997558594 N 0.0 **** 0.0
2 CA 29.3330001831055 16.1159992218018 44.9249992370605 C 0.0 **** 0.0
3 C 27.8360004425049 15.8850002288818 44.7789993286133 C 0.0 **** 0.0
4 O 27.3560009002686 14.7690000534058 44.9669990539551 O 0.0 **** 0.0
5 CB 30.0790004730225 15.5050001144409 43.7470016479492 C 0.0 **** 0.0
6 OG 29.576000213623 16.0359992980957 42.5069999694824 O 0.0 **** 0.0
@<TRIPOS>BOND
1 1 2 1
2 2 5 1
3 2 3 1
4 3 4 1
5 5 6 1
@<TRIPOS>MOLECULE
LEU60
8 7
SMALL
USER_CHARGES


@<TRIPOS>ATOM
1 N 27.0949993133545 16.9419994354248 44.4710006713867 N 0.0 **** 0.0
2 CA 25.6720008850098 16.8209991455078 44.1679992675781 C 0.0 **** 0.0
3 C 25.4090003967285 16.6919994354248 42.6650009155273 C 0.0 **** 0.0
4 O 24.242000579834 16.6580009460449 42.242000579834 O 0.0 **** 0.0
5 CB 24.9169998168945 18.0170001983643 44.7599983215332 C 0.0 **** 0.0
6 CG 25.0540008544922 18.2129993438721 46.2840003967285 C 0.0 **** 0.0
7 CD1 24.1700000762939 19.371000289917 46.765998840332 C 0.0 **** 0.0
8 CD2 24.7339992523193 16.9519996643066 47.0719985961914 C 0.0 **** 0.0
@<TRIPOS>BOND
1 1 2 1
2 2 5 1
3 2 3 1
4 3 4 1
5 5 6 1
6 6 8 1
7 6 7 1
@<TRIPOS>MOLECULE
ASN61
8 7
SMALL
USER_CHARGES


@<TRIPOS>ATOM
1 N 26.4599990844727 16.6110000610352 41.8559989929199 N 0.0 **** 0.0
2 CA 26.2900009155273 16.371000289917 40.4259986877441 C 0.0 **** 0.0
3 C 25.4799995422363 15.1020002365112 40.2280006408691 C 0.0 **** 0.0
4 O 25.5620002746582 14.1770000457764 41.0200004577637 O 0.0 **** 0.0
5 CB 27.6439990997314 16.2059993743896 39.75 C 0.0 **** 0.0
6 CG 28.4909992218018 17.4500007629395 39.806999206543 C 0.0 **** 0.0
7 OD1 28.0750007629395 18.4990005493164 40.3059997558594 O 0.0 **** 0.0
8 ND2 29.7059993743896 17.3360004425049 39.2869987487793 N 0.0 **** 0.0
@<TRIPOS>BOND
1 1 2 1
2 2 3 1
3 2 5 1
4 3 4 1
5 5 6 1
6 6 7 1
7 6 8 1
@<TRIPOS>MOLECULE
GLY62
4 3
SMALL
USER_CHARGES


@<TRIPOS>ATOM
1 N 24.7119998931885 15.0459995269775 39.1580009460449 N 0.0 **** 0.0
2 CA 23.8819999694824 13.8830003738403 38.9119987487793 C 0.0 **** 0.0
3 C 22.5629997253418 14.3059997558594 38.3079986572266 C 0.0 **** 0.0
4 O 22.451000213623 15.3680000305176 37.7210006713867 O 0.0 **** 0.0
@<TRIPOS>BOND
1 1 2 1
2 2 3 1
3 3 4 1
@<TRIPOS>MOLECULE
GLU63
9 8
SMALL
USER_CHARGES


@<TRIPOS>ATOM
1 N 21.5440006256104 13.4750003814697 38.4599990844727 N 0.0 **** 0.0
2 CA 20.253999710083 13.7609996795654 37.8470001220703 C 0.0 **** 0.0
3 C 19.4479999542236 14.668999671936 38.7649993896484 C 0.0 **** 0.0
4 O 19.0790004730225 14.2679996490479 39.8709983825684 O 0.0 **** 0.0
5 CB 19.4820003509521 12.4700002670288 37.564998626709 C 0.0 **** 0.0
6 CG 18.1569995880127 12.6890001296997 36.8540000915527 C 0.0 **** 0.0
7 CD 17.2840003967285 11.4320001602173 36.8240013122559 C 0.0 **** 0.0
8 OE1 17.4780006408691 10.6009998321533 35.9099998474121 O 0.0 **** 0.0
9 OE2 16.4150009155273 11.2720003128052 37.7099990844727 O 0.0 **** 0.0
@<TRIPOS>BOND
1 1 2 1
2 2 5 1
3 2 3 1
4 3 4 1
5 5 6 1
6 6 7 1
7 7 8 1
8 7 9 1
@<TRIPOS>MOLECULE
TRP64
14 15
SMALL
USER_CHARGES


@<TRIPOS>ATOM
1 N 19.1790008544922 15.8809995651245 38.3030014038086 N 0.0 **** 0.0
2 CA 18.2929992675781 16.8020000457764 38.992000579834 C 0.0 **** 0.0
3 C 16.931999206543 16.8229999542236 38.3009986877441 C 0.0 **** 0.0
4 O 16.7259998321533 16.2089996337891 37.2540016174316 O 0.0 **** 0.0
5 CB 18.8850002288818 18.2169990539551 39.0200004577637 C 0.0 **** 0.0
6 CG 20.1700000762939 18.367000579834 39.8079986572266 C 0.0 **** 0.0
7 CD1 21.1560001373291 17.4330005645752 39.9640007019043 C 0.0 **** 0.0
8 CD2 20.6060009002686 19.5319995880127 40.5330009460449 C 0.0 **** 0.0
9 NE1 22.1730003356934 17.9449996948242 40.7270011901855 N 0.0 **** 0.0
10 CE2 21.8589992523193 19.2250003814697 41.0979995727539 C 0.0 **** 0.0
11 CE3 20.0520000457764 20.7919998168945 40.765998840332 C 0.0 **** 0.0
12 CZ2 22.5709991455078 20.128999710083 41.8639984130859 C 0.0 **** 0.0
13 CZ3 20.7590007781982 21.6909999847412 41.5379981994629 C 0.0 **** 0.0
14 CH2 22.011999130249 21.3549995422363 42.076000213623 C 0.0 **** 0.0
@<TRIPOS>BOND
1 1 2 1
2 2 3 1
3 2 5 1
4 3 4 1
5 5 6 1
6 6 7 1
7 6 8 1
8 7 9 1
9 8 11 1
10 8 10 1
11 9 10 1
12 10 12 1
13 11 13 1
14 12 14 1
15 13 14 1
@<TRIPOS>MOLECULE
GLN65
9 8
SMALL
USER_CHARGES


@<TRIPOS>ATOM
1 N 16.003999710083 17.5699996948242 38.8870010375977 N 0.0 **** 0.0
2 CA 14.7030000686646 17.8360004425049 38.2960014343262 C 0.0 **** 0.0
3 C 14.6850004196167 19.2789993286133 37.8040008544922 C 0.0 **** 0.0
4 O 15.2419996261597 20.1700000762939 38.4519996643066 O 0.0 **** 0.0
5 CB 13.5740003585815 17.6000003814697 39.3030014038086 C 0.0 **** 0.0
6 CG 13.4720001220703 16.132999420166 39.7569999694824 C 0.0 **** 0.0
7 CD 13.1840000152588 15.1829996109009 38.6080017089844 C 0.0 **** 0.0
8 OE1 12.2150001525879 15.3620004653931 37.8650016784668 O 0.0 **** 0.0
9 NE2 14.039999961853 14.1780004501343 38.439998626709 N 0.0 **** 0.0
@<TRIPOS>BOND
1 1 2 1
2 2 5 1
3 2 3 1
4 3 4 1
5 5 6 1
6 6 7 1
7 7 9 1
8 7 8 1
@<TRIPOS>MOLECULE
PHE66
11 11
SMALL
USER_CHARGES


@<TRIPOS>ATOM
1 N 14.0480003356934 19.4990005493164 36.6660003662109 N 0.0 **** 0.0
2 CA 14.1850004196167 20.7520008087158 35.9199981689453 C 0.0 **** 0.0
3 C 12.8529996871948 21.1630001068115 35.314998626709 C 0.0 **** 0.0
4 O 12.1389999389648 20.3360004425049 34.7490005493164 O 0.0 **** 0.0
5 CB 15.2180004119873 20.5960006713867 34.8129997253418 C 0.0 **** 0.0
6 CG 15.3319997787476 21.7779998779297 33.8950004577637 C 0.0 **** 0.0
7 CD1 16.1070003509521 22.8680000305176 34.234001159668 C 0.0 **** 0.0
8 CD2 14.6890001296997 21.7759990692139 32.6669998168945 C 0.0 **** 0.0
9 CE1 16.2280006408691 23.9409999847412 33.3619995117188 C 0.0 **** 0.0
10 CE2 14.8140001296997 22.8549995422363 31.8080005645752 C 0.0 **** 0.0
11 CZ 15.581000328064 23.9270000457764 32.1590003967285 C 0.0 **** 0.0
@<TRIPOS>BOND
1 1 2 1
2 2 3 1
3 2 5 1
4 3 4 1
5 5 6 1
6 6 7 1
7 6 8 1
8 7 9 1
9 8 10 1
10 9 11 1
11 10 11 1
@<TRIPOS>MOLECULE
ARG67
11 10
SMALL
USER_CHARGES


@<TRIPOS>ATOM
1 N 12.5450000762939 22.4540004730225 35.4199981689453 N 0.0 **** 0.0
2 CA 11.3599996566772 23.0470008850098 34.8199996948242 C 0.0 **** 0.0
3 C 11.7480001449585 24.3680000305176 34.181999206543 C 0.0 **** 0.0
4 O 12.4689998626709 25.1679992675781 34.7849998474121 O 0.0 **** 0.0
5 CB 10.2580003738403 23.2880001068115 35.8559989929199 C 0.0 **** 0.0
6 CG 9.15200042724609 24.2329998016357 35.3720016479492 C 0.0 **** 0.0
7 CD 8.07499980926514 24.4589996337891 36.4280014038086 C 0.0 **** 0.0
8 NE 8.52299976348877 25.3169994354248 37.5279998779297 N 0.0 **** 0.0
9 CZ 7.80000019073486 25.5639991760254 38.6139984130859 C 0.0 **** 0.0
10 NH1 6.59800004959106 25.0230007171631 38.7459983825684 N 0.0 **** 0.0
11 NH2 8.26799964904785 26.3519992828369 39.5670013427734 N 0.0 **** 0.0
@<TRIPOS>BOND
1 1 2 1
2 2 5 1
3 2 3 1
4 3 4 1
5 5 6 1
6 6 7 1
7 7 8 1
8 8 9 1
9 9 10 1
10 9 11 1
@<TRIPOS>MOLECULE
LEU68
8 7
SMALL
USER_CHARGES


@<TRIPOS>ATOM
1 N 11.2690000534058 24.6009998321533 32.9690017700195 N 0.0 **** 0.0
2 CA 11.6280002593994 25.7900009155273 32.2060012817383 C 0.0 **** 0.0
3 C 10.3979997634888 26.6630001068115 32.0309982299805 C 0.0 **** 0.0
4 O 9.34000015258789 26.1669998168945 31.6350002288818 O 0.0 **** 0.0
5 CB 12.1960000991821 25.3959999084473 30.8460006713867 C 0.0 **** 0.0
6 CG 12.6400003433228 26.5200004577637 29.9249992370605 C 0.0 **** 0.0
7 CD1 13.7440004348755 27.3159999847412 30.5729999542236 C 0.0 **** 0.0
8 CD2 13.0930004119873 25.9400005340576 28.5990009307861 C 0.0 **** 0.0
@<TRIPOS>BOND
1 1 2 1
2 2 3 1
3 2 5 1
4 3 4 1
5 5 6 1
6 6 7 1
7 6 8 1
@<TRIPOS>MOLECULE
SER69
6 5
SMALL
USER_CHARGES


@<TRIPOS>ATOM
1 N 10.53600025177 27.9580001831055 32.3339996337891 N 0.0 **** 0.0
2 CA 9.51099967956543 28.9489994049072 32.0559997558594 C 0.0 **** 0.0
3 C 10.0670003890991 29.9869995117188 31.0790004730225 C 0.0 **** 0.0
4 O 11.28600025177 30.2019996643066 31.0189990997314 O 0.0 **** 0.0
5 CB 9.02999973297119 29.6389999389648 33.3419990539551 C 0.0 **** 0.0
6 OG 8.48499965667725 28.7119998931885 34.2859992980957 O 0.0 **** 0.0
@<TRIPOS>BOND
1 1 2 1
2 2 5 1
3 2 3 1
4 3 4 1
5 5 6 1
@<TRIPOS>MOLECULE
PRO70
7 7
SMALL
USER_CHARGES


@<TRIPOS>ATOM
1 N 9.21399974822998 30.6259994506836 30.2730007171631 N 0.0 **** 0.0
2 CA 9.72399997711182 31.5380001068115 29.2350006103516 C 0.0 **** 0.0
3 C 10.1160001754761 32.9119987487793 29.7390003204346 C 0.0 **** 0.0
4 O 10.7530002593994 33.6559982299805 28.992000579834 O 0.0 **** 0.0
5 CB 8.54500007629395 31.632999420166 28.2469997406006 C 0.0 **** 0.0
6 CG 7.36700010299683 31.4379997253418 29.0610008239746 C 0.0 **** 0.0
7 CD 7.75500011444092 30.4489994049072 30.1690006256104 C 0.0 **** 0.0
@<TRIPOS>BOND
1 1 7 1
2 1 2 1
3 2 3 1
4 2 5 1
5 3 4 1
6 5 6 1
7 6 7 1
@<TRIPOS>MOLECULE
GLY71
4 3
SMALL
USER_CHARGES


@<TRIPOS>ATOM
1 N 9.75100040435791 33.2729988098145 30.9669990539551 N 0.0 **** 0.0
2 CA 10.1490001678467 34.5460014343262 31.5419998168945 C 0.0 **** 0.0
3 C 9.79699993133545 34.601001739502 33.0130004882813 C 0.0 **** 0.0
4 O 9.04100036621094 33.7709999084473 33.5180015563965 O 0.0 **** 0.0
@<TRIPOS>BOND
1 1 2 1
2 2 3 1
3 3 4 1
@<TRIPOS>MOLECULE
SER72
6 5
SMALL
USER_CHARGES


@<TRIPOS>ATOM
1 N 10.3369998931885 35.6230010986328 33.6949996948242 N 0.0 **** 0.0
2 CA 10.1190004348755 35.7480010986328 35.1389999389648 C 0.0 **** 0.0
3 C 8.64000034332275 35.8889999389648 35.4729995727539 C 0.0 **** 0.0
4 O 8.16699981689453 35.3450012207031 36.4809989929199 O 0.0 **** 0.0
5 CB 10.8719997406006 36.9539985656738 35.6990013122559 C 0.0 **** 0.0
6 OG 12.2589998245239 36.7639999389648 35.6100006103516 O 0.0 **** 0.0
@<TRIPOS>BOND
1 1 2 1
2 2 5 1
3 2 3 1
4 3 4 1
5 5 6 1
@<TRIPOS>MOLECULE
ARG73
11 10
SMALL
USER_CHARGES


@<TRIPOS>ATOM
1 N 7.89400005340576 36.6360015869141 34.6570014953613 N 0.0 **** 0.0
2 CA 6.51999998092651 36.9630012512207 35.0390014648438 C 0.0 **** 0.0
3 C 5.59899997711182 35.7569999694824 35.0340003967285 C 0.0 **** 0.0
4 O 4.50699996948242 35.8250007629395 35.6069984436035 O 0.0 **** 0.0
5 CB 5.94199991226196 38.0330009460449 34.1139984130859 C 0.0 **** 0.0
6 CG 6.79400014877319 39.2910003662109 34.048999786377 C 0.0 **** 0.0
7 CD 6.11199998855591 40.4129981994629 33.2939987182617 C 0.0 **** 0.0
8 NE 7.05700016021729 41.4539985656738 32.9000015258789 N 0.0 **** 0.0
9 CZ 7.38199996948242 42.507999420166 33.6450004577637 C 0.0 **** 0.0
10 NH1 6.87200021743774 42.6679992675781 34.867000579834 N 0.0 **** 0.0
11 NH2 8.26399993896484 43.382999420166 33.1879997253418 N 0.0 **** 0.0
@<TRIPOS>BOND
1 1 2 1
2 2 5 1
3 2 3 1
4 3 4 1
5 5 6 1
6 6 7 1
7 7 8 1
8 8 9 1
9 9 10 1
10 9 11 1
@<TRIPOS>MOLECULE
VAL74
7 6
SMALL
USER_CHARGES


@<TRIPOS>ATOM
1 N 6.00500011444092 34.6650009155273 34.398998260498 N 0.0 **** 0.0
2 CA 5.21199989318848 33.4490013122559 34.3330001831055 C 0.0 **** 0.0
3 C 5.90399980545044 32.2729988098145 34.9889984130859 C 0.0 **** 0.0
4 O 5.34700012207031 31.1709995269775 34.9980010986328 O 0.0 **** 0.0
5 CB 4.85099983215332 33.0970001220703 32.8790016174316 C 0.0 **** 0.0
6 CG1 4.01100015640259 34.2150001525879 32.2550010681152 C 0.0 **** 0.0
7 CG2 6.10900020599365 32.8720016479492 32.0660018920898 C 0.0 **** 0.0
@<TRIPOS>BOND
1 1 2 1
2 2 3 1
3 2 5 1
4 3 4 1
5 5 7 1
6 5 6 1
@<TRIPOS>MOLECULE
ALA75
5 4
SMALL
USER_CHARGES


@<TRIPOS>ATOM
1 N 7.10599994659424 32.4630012512207 35.5209999084473 N 0.0 **** 0.0
2 CA 7.76700019836426 31.4220008850098 36.2869987487793 C 0.0 **** 0.0
3 C 6.98400020599365 31.1959991455078 37.5789985656738 C 0.0 **** 0.0
4 O 6.76999998092651 32.1520004272461 38.3359985351563 O 0.0 **** 0.0
5 CB 9.20600032806396 31.8199996948242 36.5919990539551 C 0.0 **** 0.0
@<TRIPOS>BOND
1 1 2 1
2 2 5 1
3 2 3 1
4 3 4 1
@<TRIPOS>MOLECULE
PRO76
7 7
SMALL
USER_CHARGES


@<TRIPOS>ATOM
1 N 6.54400014877319 29.9759998321533 37.875 N 0.0 **** 0.0
2 CA 5.61700010299683 29.7859992980957 38.9889984130859 C 0.0 **** 0.0
3 C 6.2189998626709 30.1100006103516 40.3499984741211 C 0.0 **** 0.0
4 O 7.4060001373291 29.886999130249 40.6189994812012 O 0.0 **** 0.0
5 CB 5.25500011444092 28.3050003051758 38.8870010375977 C 0.0 **** 0.0
6 CG 5.40999984741211 28.0090007781982 37.4420013427734 C 0.0 **** 0.0
7 CD 6.61800003051758 28.7670001983643 37.0429992675781 C 0.0 **** 0.0
@<TRIPOS>BOND
1 1 7 1
2 1 2 1
3 2 3 1
4 2 5 1
5 3 4 1
6 5 6 1
7 6 7 1
@<TRIPOS>MOLECULE
ASP77
8 7
SMALL
USER_CHARGES


@<TRIPOS>ATOM
1 N 5.35900020599365 30.6380004882813 41.2140007019043 N 0.0 **** 0.0
2 CA 5.64300012588501 30.8360004425049 42.6319999694824 C 0.0 **** 0.0
3 C 4.88899993896484 29.7999992370605 43.4640007019043 C 0.0 **** 0.0
4 O 4.16200017929077 30.1280002593994 44.398998260498 O 0.0 **** 0.0
5 CB 5.2649998664856 32.2540016174316 43.0359992980957 C 0.0 **** 0.0
6 CG 5.60699987411499 32.5660018920898 44.4860000610352 C 0.0 **** 0.0
7 OD1 6.31799983978271 31.7600002288818 45.132999420166 O 0.0 **** 0.0
8 OD2 5.15100002288818 33.6230010986328 44.9830017089844 O 0.0 **** 0.0
@<TRIPOS>BOND
1 1 2 1
2 2 5 1
3 2 3 1
4 3 4 1
5 5 6 1
6 6 7 1
7 6 8 1
@<TRIPOS>MOLECULE
ASP78
8 7
SMALL
USER_CHARGES


@<TRIPOS>ATOM
1 N 5.05700016021729 28.5230007171631 43.1129989624023 N 0.0 **** 0.0
2 CA 4.17500019073486 27.4559993743896 43.560001373291 C 0.0 **** 0.0
3 C 4.80200004577637 26.5729999542236 44.648998260498 C 0.0 **** 0.0
4 O 4.41300010681152 25.4109992980957 44.806999206543 O 0.0 **** 0.0
5 CB 3.75300002098084 26.6119995117188 42.3580017089844 C 0.0 **** 0.0
6 CG 4.92600011825562 25.992000579834 41.6450004577637 C 0.0 **** 0.0
7 OD1 6.07299995422363 26.3929996490479 41.9099998474121 O 0.0 **** 0.0
8 OD2 4.7039999961853 25.0879993438721 40.8199996948242 O 0.0 **** 0.0
@<TRIPOS>BOND
1 1 2 1
2 2 3 1
3 2 5 1
4 3 4 1
5 5 6 1
6 6 8 1
7 6 7 1
@<TRIPOS>MOLECULE
GLY79
4 3
SMALL
USER_CHARGES


@<TRIPOS>ATOM
1 N 5.74900007247925 27.1100006103516 45.4199981689453 N 0.0 **** 0.0
2 CA 6.37400007247925 26.3610000610352 46.5019989013672 C 0.0 **** 0.0
3 C 7.26700019836426 25.2259998321533 46.0509986877441 C 0.0 **** 0.0
4 O 7.59499979019165 24.3409996032715 46.851001739502 O 0.0 **** 0.0
@<TRIPOS>BOND
1 1 2 1
2 2 3 1
3 3 4 1
@<TRIPOS>MOLECULE
TRP80
14 15
SMALL
USER_CHARGES


@<TRIPOS>ATOM
1 N 7.68800020217896 25.2320003509521 44.7859992980957 N 0.0 **** 0.0
2 CA 8.47799968719482 24.1259994506836 44.265998840332 C 0.0 **** 0.0
3 C 9.79399967193604 23.9370002746582 45.0110015869141 C 0.0 **** 0.0
4 O 10.3629999160767 22.8400001525879 44.9620018005371 O 0.0 **** 0.0
5 CB 8.76700019836426 24.3579998016357 42.7859992980957 C 0.0 **** 0.0
6 CG 9.56999969482422 25.5990009307861 42.5499992370605 C 0.0 **** 0.0
7 CD1 9.10700035095215 26.8840007781982 42.4959983825684 C 0.0 **** 0.0
8 CD2 10.9849996566772 25.6690006256104 42.3499984741211 C 0.0 **** 0.0
9 NE1 10.1529998779297 27.7530002593994 42.2639999389648 N 0.0 **** 0.0
10 CE2 11.3140001296997 27.0289993286133 42.1640014648438 C 0.0 **** 0.0
11 CE3 12.0010004043579 24.7129993438721 42.2970008850098 C 0.0 **** 0.0
12 CZ2 12.6169996261597 27.4500007629395 41.9440002441406 C 0.0 **** 0.0
13 CZ3 13.2910003662109 25.1310005187988 42.0800018310547 C 0.0 **** 0.0
14 CH2 13.5920000076294 26.4829998016357 41.9090003967285 C 0.0 **** 0.0
@<TRIPOS>BOND
1 1 2 1
2 2 3 1
3 2 5 1
4 3 4 1
5 5 6 1
6 6 8 1
7 6 7 1
8 7 9 1
9 8 11 1
10 8 10 1
11 9 10 1
12 10 12 1
13 11 13 1
14 12 14 1
15 13 14 1
@<TRIPOS>MOLECULE
GLN81
9 8
SMALL
USER_CHARGES


@<TRIPOS>ATOM
1 N 10.3059997558594 24.9759998321533 45.6809997558594 N 0.0 **** 0.0
2 CA 11.5869998931885 24.8400001525879 46.3689994812012 C 0.0 **** 0.0
3 C 11.5310001373291 23.8169994354248 47.4879989624023 C 0.0 **** 0.0
4 O 12.5780000686646 23.2819995880127 47.8779983520508 O 0.0 **** 0.0
5 CB 12.0319995880127 26.1860008239746 46.9230003356934 C 0.0 **** 0.0
6 CG 12.3439998626709 27.2299995422363 45.8370018005371 C 0.0 **** 0.0
7 CD 11.1389999389648 28.0820007324219 45.5379981994629 C 0.0 **** 0.0
8 OE1 10.0030002593994 27.632999420166 45.6949996948242 O 0.0 **** 0.0
9 NE2 11.3719997406006 29.3369998931885 45.1559982299805 N 0.0 **** 0.0
@<TRIPOS>BOND
1 1 2 1
2 2 5 1
3 2 3 1
4 3 4 1
5 5 6 1
6 6 7 1
7 7 8 1
8 7 9 1
@<TRIPOS>MOLECULE
LEU82
8 7
SMALL
USER_CHARGES


@<TRIPOS>ATOM
1 N 10.3409996032715 23.5429992675781 48.0149993896484 N 0.0 **** 0.0
2 CA 10.1780004501343 22.5109996795654 49.0309982299805 C 0.0 **** 0.0
3 C 10.2049999237061 21.1040000915527 48.4459991455078 C 0.0 **** 0.0
4 O 10.3360004425049 20.1380004882813 49.2039985656738 O 0.0 **** 0.0
5 CB 8.875 22.738000869751 49.8040008544922 C 0.0 **** 0.0
6 CG 8.92199993133545 23.9599990844727 50.7360000610352 C 0.0 **** 0.0
7 CD1 8.95499992370605 25.30299949646 49.992000579834 C 0.0 **** 0.0
8 CD2 7.73699998855591 23.9409999847412 51.689998626709 C 0.0 **** 0.0
@<TRIPOS>BOND
1 1 2 1
2 2 5 1
3 2 3 1
4 3 4 1
5 5 6 1
6 6 8 1
7 6 7 1
@<TRIPOS>MOLECULE
GLY83
4 3
SMALL
USER_CHARGES


@<TRIPOS>ATOM
1 N 10.0920000076294 20.9640007019043 47.1259994506836 N 0.0 **** 0.0
2 CA 10.3050003051758 19.6860008239746 46.4739990234375 C 0.0 **** 0.0
3 C 9.14799976348877 18.7220001220703 46.5379981994629 C 0.0 **** 0.0
4 O 9.32999992370605 17.5400009155273 46.2280006408691 O 0.0 **** 0.0
@<TRIPOS>BOND
1 1 2 1
2 2 3 1
3 3 4 1
@<TRIPOS>MOLECULE
GLU84
9 8
SMALL
USER_CHARGES


@<TRIPOS>ATOM
1 N 7.99300003051758 19.1959991455078 46.9900016784668 N 0.0 **** 0.0
2 CA 6.83900022506714 18.2779998779297 47.1389999389648 C 0.0 **** 0.0
3 C 5.77600002288818 18.6490001678467 46.1119995117188 C 0.0 **** 0.0
4 O 5.52400016784668 19.8490009307861 45.9500007629395 O 0.0 **** 0.0
5 CB 6.33400011062622 18.2840003967285 48.5789985656738 C 0.0 **** 0.0
6 CG 6.17999982833862 19.6660003662109 49.1570014953613 C 0.0 **** 0.0
7 CD 5.46700000762939 19.7089996337891 50.4949989318848 C 0.0 **** 0.0
8 OE1 4.95599985122681 18.6609992980957 50.9189987182617 O 0.0 **** 0.0
9 OE2 5.40700006484985 20.7859992980957 51.0909996032715 O 0.0 **** 0.0
@<TRIPOS>BOND
1 1 2 1
2 2 3 1
3 2 5 1
4 3 4 1
5 5 6 1
6 6 7 1
7 7 9 1
8 7 8 1
@<TRIPOS>MOLECULE
ALA85
5 4
SMALL
USER_CHARGES


@<TRIPOS>ATOM
1 N 5.15799999237061 17.6439990997314 45.4980010986328 N 0.0 **** 0.0
2 CA 4.09499979019165 17.9029998779297 44.5060005187988 C 0.0 **** 0.0
3 C 4.61399984359741 18.8080005645752 43.3930015563965 C 0.0 **** 0.0
4 O 4.0149998664856 19.8700008392334 43.1910018920898 O 0.0 **** 0.0
5 CB 2.90100002288818 18.5209999084473 45.1879997253418 C 0.0 **** 0.0
@<TRIPOS>BOND
1 1 2 1
2 2 3 1
3 2 5 1
4 3 4 1
@<TRIPOS>MOLECULE
LEU86
8 7
SMALL
USER_CHARGES


@<TRIPOS>ATOM
1 N 5.67600011825562 18.382999420166 42.7109985351563 N 0.0 **** 0.0
2 CA 6.27099990844727 19.1940002441406 41.6259994506836 C 0.0 **** 0.0
3 C 5.49100017547607 18.9669990539551 40.3359985351563 C 0.0 **** 0.0
4 O 5.51900005340576 17.8570003509521 39.8230018615723 O 0.0 **** 0.0
5 CB 7.69600009918213 18.7019996643066 41.3919982910156 C 0.0 **** 0.0
6 CG 8.67000007629395 18.8229999542236 42.5540008544922 C 0.0 **** 0.0
7 CD1 9.98999977111816 18.1800003051758 42.181999206543 C 0.0 **** 0.0
8 CD2 8.88399982452393 20.2709999084473 42.9379997253418 C 0.0 **** 0.0
@<TRIPOS>BOND
1 1 2 1
2 2 5 1
3 2 3 1
4 3 4 1
5 5 6 1
6 6 7 1
7 6 8 1
@<TRIPOS>MOLECULE
ASN87
8 7
SMALL
USER_CHARGES


@<TRIPOS>ATOM
1 N 4.90700006484985 20.0200004577637 39.7840003967285 N 0.0 **** 0.0
2 CA 4.19999980926514 19.8390007019043 38.4990005493164 C 0.0 **** 0.0
3 C 5.07000017166138 20.4629993438721 37.4259986877441 C 0.0 **** 0.0
4 O 5.44500017166138 21.6100006103516 37.6180000305176 O 0.0 **** 0.0
5 CB 2.8529999256134 20.55299949646 38.435001373291 C 0.0 **** 0.0
6 CG 2.65400004386902 21.5510005950928 39.5480003356934 C 0.0 **** 0.0
7 OD1 2.75699996948242 21.19700050354 40.7159996032715 O 0.0 **** 0.0
8 ND2 2.33299994468689 22.7840003967285 39.1969985961914 N 0.0 **** 0.0
@<TRIPOS>BOND
1 1 2 1
2 2 5 1
3 2 3 1
4 3 4 1
5 5 6 1
6 6 8 1
7 6 7 1
@<TRIPOS>MOLECULE
GLY88
4 3
SMALL
USER_CHARGES


@<TRIPOS>ATOM
1 N 5.32499980926514 19.7250003814697 36.351001739502 N 0.0 **** 0.0
2 CA 6.09499979019165 20.2649993896484 35.2249984741211 C 0.0 **** 0.0
3 C 7.59200000762939 20.0559997558594 35.3139991760254 C 0.0 **** 0.0
4 O 8.27600002288818 20.7220001220703 34.556999206543 O 0.0 **** 0.0
@<TRIPOS>BOND
1 1 2 1
2 2 3 1
3 3 4 1
@<TRIPOS>MOLECULE
PHE89
11 11
SMALL
USER_CHARGES


@<TRIPOS>ATOM
1 N 8.08300018310547 19.1919994354248 36.1980018615723 N 0.0 **** 0.0
2 CA 9.51599979400635 18.9740009307861 36.2820014953613 C 0.0 **** 0.0
3 C 9.89099979400635 17.6770000457764 35.5820007324219 C 0.0 **** 0.0
4 O 9.12800025939941 16.7110004425049 35.5639991760254 O 0.0 **** 0.0
5 CB 9.97000026702881 18.9209995269775 37.7350006103516 C 0.0 **** 0.0
6 CG 10.0740003585815 20.2639999389648 38.3740005493164 C 0.0 **** 0.0
7 CD1 8.9370002746582 20.943000793457 38.7760009765625 C 0.0 **** 0.0
8 CD2 11.3050003051758 20.8500003814697 38.5779991149902 C 0.0 **** 0.0
9 CE1 9.02700042724609 22.1870002746582 39.3769989013672 C 0.0 **** 0.0
10 CE2 11.4130001068115 22.0930004119873 39.1759986877441 C 0.0 **** 0.0
11 CZ 10.2720003128052 22.7649993896484 39.5769996643066 C 0.0 **** 0.0
@<TRIPOS>BOND
1 1 2 1
2 2 5 1
3 2 3 1
4 3 4 1
5 5 6 1
6 6 8 1
7 6 7 1
8 7 9 1
9 8 10 1
10 9 11 1
11 10 11 1
@<TRIPOS>MOLECULE
GLU90
9 8
SMALL
USER_CHARGES


@<TRIPOS>ATOM
1 N 11.0790004730225 17.6690006256104 34.9980010986328 N 0.0 **** 0.0
2 CA 11.6090002059937 16.4650001525879 34.3849983215332 C 0.0 **** 0.0
3 C 13.0909996032715 16.3810005187988 34.7150001525879 C 0.0 **** 0.0
4 O 13.706000328064 17.3610000610352 35.140998840332 O 0.0 **** 0.0
5 CB 11.3859996795654 16.4750003814697 32.8759994506836 C 0.0 **** 0.0
6 CG 12.0740003585815 17.6509990692139 32.2029991149902 C 0.0 **** 0.0
7 CD 11.6639995574951 17.8150005340576 30.7479991912842 C 0.0 **** 0.0
8 OE1 12.0799999237061 16.9689998626709 29.9220008850098 O 0.0 **** 0.0
9 OE2 10.914999961853 18.7770004272461 30.4440002441406 O 0.0 **** 0.0
@<TRIPOS>BOND
1 1 2 1
2 2 3 1
3 2 5 1
4 3 4 1
5 5 6 1
6 6 7 1
7 7 9 1
8 7 8 1
@<TRIPOS>MOLECULE
SER91
6 5
SMALL
USER_CHARGES


@<TRIPOS>ATOM
1 N 13.6660003662109 15.2019996643066 34.5149993896484 N 0.0 **** 0.0
2 CA 15.0520000457764 15.0059995651245 34.9090003967285 C 0.0 **** 0.0
3 C 16.0069999694824 15.7189998626709 33.9519996643066 C 0.0 **** 0.0
4 O 15.7430000305176 15.8570003509521 32.7560005187988 O 0.0 **** 0.0
5 CB 15.3839998245239 13.5190000534058 34.9630012512207 C 0.0 **** 0.0
6 OG 15.2720003128052 12.9490003585815 33.6809997558594 O 0.0 **** 0.0
@<TRIPOS>BOND
1 1 2 1
2 2 3 1
3 2 5 1
4 3 4 1
5 5 6 1
@<TRIPOS>MOLECULE
LEU92
8 7
SMALL
USER_CHARGES


@<TRIPOS>ATOM
1 N 17.1359996795654 16.1760005950928 34.4959983825684 N 0.0 **** 0.0
2 CA 18.132999420166 16.8689994812012 33.7210006713867 C 0.0 **** 0.0
3 C 19.4610004425049 16.6350002288818 34.4160003662109 C 0.0 **** 0.0
4 O 19.5389995574951 16.8199996948242 35.6469993591309 O 0.0 **** 0.0
5 CB 17.8659992218018 18.3759994506836 33.6199989318848 C 0.0 **** 0.0
6 CG 18.9200000762939 19.2600002288818 32.935001373291 C 0.0 **** 0.0
7 CD1 18.7520008087158 19.2810001373291 31.3980007171631 C 0.0 **** 0.0
8 CD2 18.8729991912842 20.6879997253418 33.4589996337891 C 0.0 **** 0.0
@<TRIPOS>BOND
1 1 2 1
2 2 5 1
3 2 3 1
4 3 4 1
5 5 6 1
6 6 7 1
7 6 8 1
@<TRIPOS>MOLECULE
PRO93
7 7
SMALL
USER_CHARGES


@<TRIPOS>ATOM
1 N 20.5100002288818 16.2549991607666 33.6879997253418 N 0.0 **** 0.0
2 CA 21.8269996643066 16.1590003967285 34.314998626709 C 0.0 **** 0.0
3 C 22.318000793457 17.5300006866455 34.7299995422363 C 0.0 **** 0.0
4 O 22.0779991149902 18.5249996185303 34.0460014343262 O 0.0 **** 0.0
5 CB 22.7000007629395 15.5609998703003 33.2120018005371 C 0.0 **** 0.0
6 CG 22.056999206543 16.0340003967285 31.9640007019043 C 0.0 **** 0.0
7 CD 20.5809993743896 15.951000213623 32.2569999694824 C 0.0 **** 0.0
@<TRIPOS>BOND
1 1 2 1
2 1 7 1
3 2 3 1
4 2 5 1
5 3 4 1
6 5 6 1
7 6 7 1
@<TRIPOS>MOLECULE
VAL94
7 6
SMALL
USER_CHARGES


@<TRIPOS>ATOM
1 N 22.9850006103516 17.5709991455078 35.8800010681152 N 0.0 **** 0.0
2 CA 23.6949996948242 18.7569999694824 36.3429985046387 C 0.0 **** 0.0
3 C 25.0860004425049 18.253999710083 36.7159996032715 C 0.0 **** 0.0
4 O 25.2019996643066 17.2630004882813 37.451000213623 O 0.0 **** 0.0
5 CB 22.9570007324219 19.423999786377 37.5120010375977 C 0.0 **** 0.0
6 CG1 23.798999786377 20.4799995422363 38.1949996948242 C 0.0 **** 0.0
7 CG2 21.681999206543 20.0319995880127 37.007999420166 C 0.0 **** 0.0
@<TRIPOS>BOND
1 1 2 1
2 2 3 1
3 2 5 1
4 3 4 1
5 5 6 1
6 5 7 1
@<TRIPOS>MOLECULE
PRO95
7 7
SMALL
USER_CHARGES


@<TRIPOS>ATOM
1 N 26.1669998168945 18.8780002593994 36.2309989929199 N 0.0 **** 0.0
2 CA 26.1620006561279 20.0970001220703 35.4370002746582 C 0.0 **** 0.0
3 C 25.6730003356934 19.9050006866455 33.9980010986328 C 0.0 **** 0.0
4 O 25.8390007019043 18.8330001831055 33.3959999084473 O 0.0 **** 0.0
5 CB 27.621000289917 20.5279998779297 35.4550018310547 C 0.0 **** 0.0
6 CG 28.3840007781982 19.2819995880127 35.6290016174316 C 0.0 **** 0.0
7 CD 27.5279998779297 18.3999996185303 36.4949989318848 C 0.0 **** 0.0
@<TRIPOS>BOND
1 1 7 1
2 1 2 1
3 2 3 1
4 2 5 1
5 3 4 1
6 5 6 1
7 6 7 1
@<TRIPOS>MOLECULE
SER96
6 5
SMALL
USER_CHARGES


@<TRIPOS>ATOM
1 N 25.0779991149902 20.9740009307861 33.4650001525879 N 0.0 **** 0.0
2 CA 24.5699996948242 20.9930000305176 32.1030006408691 C 0.0 **** 0.0
3 C 24.4680004119873 22.4209995269775 31.6049995422363 C 0.0 **** 0.0
4 O 24.3020000457764 23.3640003204346 32.3899993896484 O 0.0 **** 0.0
5 CB 23.2019996643066 20.3419990539551 32.0139999389648 C 0.0 **** 0.0
6 OG 22.2709999084473 20.9769992828369 32.8860015869141 O 0.0 **** 0.0
@<TRIPOS>BOND
1 1 2 1
2 2 5 1
3 2 3 1
4 3 4 1
5 5 6 1
@<TRIPOS>MOLECULE
SER97
6 5
SMALL
USER_CHARGES


@<TRIPOS>ATOM
1 N 24.4740009307861 22.5380001068115 30.2819995880127 N 0.0 **** 0.0
2 CA 24.0669994354248 23.7350006103516 29.5069999694824 C 0.0 **** 0.0
3 C 22.6830005645752 23.2910003662109 29.0580005645752 C 0.0 **** 0.0
4 O 22.628999710083 22.4549999237061 28.2059993743896 O 0.0 **** 0.0
5 CB 24.9699993133545 24.0550003051758 28.3589992523193 C 0.0 **** 0.0
6 OG 26.2350006103516 24.4599990844727 28.8129997253418 O 0.0 **** 0.0
@<TRIPOS>BOND
1 1 2 1
2 2 3 1
3 2 5 1
4 3 4 1
5 5 6 1
@<TRIPOS>MOLECULE
TRP98
14 15
SMALL
USER_CHARGES


@<TRIPOS>ATOM
1 N 21.6049995422363 23.8479995727539 29.5739994049072 N 0.0 **** 0.0
2 CA 20.3509998321533 23.1180000305176 29.3990001678467 C 0.0 **** 0.0
3 C 19.8349990844727 23.1459999084473 27.9559993743896 C 0.0 **** 0.0
4 O 19.1070003509521 22.2250003814697 27.5709991455078 O 0.0 **** 0.0
5 CB 19.2830009460449 23.5930004119873 30.4090003967285 C 0.0 **** 0.0
6 CG 18.5820007324219 24.9389991760254 30.1900005340576 C 0.0 **** 0.0
7 CD1 17.8470001220703 25.3339996337891 29.1009998321533 C 0.0 **** 0.0
8 CD2 18.5049991607666 26.0230007171631 31.1350002288818 C 0.0 **** 0.0
9 NE1 17.3509998321533 26.6149997711182 29.2999992370605 N 0.0 **** 0.0
10 CE2 17.738000869751 27.0459995269775 30.5429992675781 C 0.0 **** 0.0
11 CE3 19.0219993591309 26.2240009307861 32.4280014038086 C 0.0 **** 0.0
12 CZ2 17.4659996032715 28.246000289917 31.2000007629395 C 0.0 **** 0.0
13 CZ3 18.7670001983643 27.4179992675781 33.0670013427734 C 0.0 **** 0.0
14 CH2 17.992000579834 28.4179992675781 32.4539985656738 C 0.0 **** 0.0
@<TRIPOS>BOND
1 1 2 1
2 2 5 1
3 2 3 1
4 3 4 1
5 5 6 1
6 6 7 1
7 6 8 1
8 7 9 1
9 8 11 1
10 8 10 1
11 9 10 1
12 10 12 1
13 11 13 1
14 12 14 1
15 13 14 1
@<TRIPOS>MOLECULE
PRO99
7 7
SMALL
USER_CHARGES


@<TRIPOS>ATOM
1 N 20.1749992370605 24.1240005493164 27.1089992523193 N 0.0 **** 0.0
2 CA 19.7339992523193 24.0240001678467 25.7059993743896 C 0.0 **** 0.0
3 C 20.3999996185303 22.8899993896484 24.9270000457764 C 0.0 **** 0.0
4 O 19.9349994659424 22.5809993743896 23.8190002441406 O 0.0 **** 0.0
5 CB 20.0839996337891 25.4039993286133 25.1079998016357 C 0.0 **** 0.0
6 CG 20.1590003967285 26.3269996643066 26.2730007171631 C 0.0 **** 0.0
7 CD 20.7369995117188 25.4500007629395 27.3899993896484 C 0.0 **** 0.0
@<TRIPOS>BOND
1 1 7 1
2 1 2 1
3 2 5 1
4 2 3 1
5 3 4 1
6 5 6 1
7 6 7 1
@<TRIPOS>MOLECULE
MET100
8 7
SMALL
USER_CHARGES


@<TRIPOS>ATOM
1 N 21.4540004730225 22.2649993896484 25.4549999237061 N 0.0 **** 0.0
2 CA 22.0359992980957 21.0820007324219 24.8320007324219 C 0.0 **** 0.0
3 C 21.2180004119873 19.8239994049072 25.0830001831055 C 0.0 **** 0.0
4 O 21.5830001831055 18.7530002593994 24.5869998931885 O 0.0 **** 0.0
5 CB 23.4619998931885 20.878999710083 25.3400001525879 C 0.0 **** 0.0
6 CG 24.3390007019043 22.1380004882813 25.1529998779297 C 0.0 **** 0.0
7 SD 24.4820003509521 22.7040004730225 23.4440002441406 S 0.0 **** 0.0
8 CE 25.3959999084473 21.3159999847412 22.7759990692139 C 0.0 **** 0.0
@<TRIPOS>BOND
1 1 2 1
2 2 5 1
3 2 3 1
4 3 4 1
5 5 6 1
6 6 7 1
7 7 8 1
@<TRIPOS>MOLECULE
HIS101
10 10
SMALL
USER_CHARGES


@<TRIPOS>ATOM
1 N 20.1240005493164 19.9209995269775 25.8250007629395 N 0.0 **** 0.0
2 CA 19.3509998321533 18.7490005493164 26.2140007019043 C 0.0 **** 0.0
3 C 17.8819999694824 18.9290008544922 25.8619995117188 C 0.0 **** 0.0
4 O 17.0090007781982 18.3920001983643 26.5520000457764 O 0.0 **** 0.0
5 CB 19.5020008087158 18.4599990844727 27.7040004730225 C 0.0 **** 0.0
6 CG 20.9200000762939 18.2709999084473 28.1350002288818 C 0.0 **** 0.0
7 ND1 21.4720001220703 17.0310001373291 28.3560009002686 N 0.0 **** 0.0
8 CD2 21.9120006561279 19.1690006256104 28.3490009307861 C 0.0 **** 0.0
9 CE1 22.7350006103516 17.1730003356934 28.7119998931885 C 0.0 **** 0.0
10 NE2 23.0279998779297 18.4599990844727 28.7110004425049 N 0.0 **** 0.0
@<TRIPOS>BOND
1 1 2 1
2 2 3 1
3 2 5 1
4 3 4 1
5 5 6 1
6 6 7 1
7 6 8 1
8 7 9 1
9 8 10 1
10 9 10 1
@<TRIPOS>MOLECULE
GLY102
4 3
SMALL
USER_CHARGES


@<TRIPOS>ATOM
1 N 17.5979995727539 19.7119998931885 24.8199996948242 N 0.0 **** 0.0
2 CA 16.2569999694824 19.8610000610352 24.2999992370605 C 0.0 **** 0.0
3 C 15.4370002746582 20.9790000915527 24.9099998474121 C 0.0 **** 0.0
4 O 14.2559995651245 21.1229991912842 24.5599994659424 O 0.0 **** 0.0
@<TRIPOS>BOND
1 1 2 1
2 2 3 1
3 3 4 1
@<TRIPOS>MOLECULE
HIS103
10 10
SMALL
USER_CHARGES


@<TRIPOS>ATOM
1 N 16.0090007781982 21.7740001678467 25.8099994659424 N 0.0 **** 0.0
2 CA 15.2700004577637 22.818000793457 26.5100002288818 C 0.0 **** 0.0
3 C 15.6420001983643 24.1560001373291 25.8910007476807 C 0.0 **** 0.0
4 O 16.7110004425049 24.7150001525879 26.1639995574951 O 0.0 **** 0.0
5 CB 15.5640001296997 22.75 28.0020008087158 C 0.0 **** 0.0
6 CG 15.2299995422363 21.4249992370605 28.6030006408691 C 0.0 **** 0.0
7 ND1 16.1870002746582 20.4729995727539 28.8939990997314 N 0.0 **** 0.0
8 CD2 14.0369997024536 20.8780002593994 28.9309997558594 C 0.0 **** 0.0
9 CE1 15.5959997177124 19.4039993286133 29.3899993896484 C 0.0 **** 0.0
10 NE2 14.2930002212524 19.6229991912842 29.423999786377 N 0.0 **** 0.0
@<TRIPOS>BOND
1 1 2 1
2 2 5 1
3 2 3 1
4 3 4 1
5 5 6 1
6 6 7 1
7 6 8 1
8 7 9 1
9 8 10 1
10 9 10 1
@<TRIPOS>MOLECULE
GLY104
4 3
SMALL
USER_CHARGES


@<TRIPOS>ATOM
1 N 14.7600002288818 24.6639995574951 25.0410003662109 N 0.0 **** 0.0
2 CA 15.1239995956421 25.8239994049072 24.2469997406006 C 0.0 **** 0.0
3 C 16.1760005950928 25.4330005645752 23.2220001220703 C 0.0 **** 0.0
4 O 16.2880001068115 24.2749996185303 22.8110008239746 O 0.0 **** 0.0
@<TRIPOS>BOND
1 1 2 1
2 2 3 1
3 3 4 1
@<TRIPOS>MOLECULE
ALA105
5 4
SMALL
USER_CHARGES


@<TRIPOS>ATOM
1 N 17.0 26.4020004272461 22.8449993133545 N 0.0 **** 0.0
2 CA 17.9680004119873 26.1590003967285 21.7910003662109 C 0.0 **** 0.0
3 C 19.2210006713867 26.9790000915527 22.0370006561279 C 0.0 **** 0.0
4 O 19.1389999389648 28.0820007324219 22.5869998931885 O 0.0 **** 0.0
5 CB 17.3889999389648 26.5170001983643 20.4169998168945 C 0.0 **** 0.0
@<TRIPOS>BOND
1 1 2 1
2 2 3 1
3 2 5 1
4 3 4 1
@<TRIPOS>MOLECULE
PRO106
7 7
SMALL
USER_CHARGES


@<TRIPOS>ATOM
1 N 20.3840007781982 26.4820003509521 21.6259994506836 N 0.0 **** 0.0
2 CA 21.576000213623 27.3369998931885 21.5900001525879 C 0.0 **** 0.0
3 C 21.3509998321533 28.5149993896484 20.6590003967285 C 0.0 **** 0.0
4 O 20.5860004425049 28.4360008239746 19.6979999542236 O 0.0 **** 0.0
5 CB 22.6749992370605 26.4099998474121 21.0499992370605 C 0.0 **** 0.0
6 CG 22.132999420166 25.0069999694824 21.1889991760254 C 0.0 **** 0.0
7 CD 20.6429996490479 25.1389999389648 21.0930004119873 C 0.0 **** 0.0
@<TRIPOS>BOND
1 1 2 1
2 1 7 1
3 2 5 1
4 2 3 1
5 3 4 1
6 5 6 1
7 6 7 1
@<TRIPOS>MOLECULE
ALA107
5 4
SMALL
USER_CHARGES


@<TRIPOS>ATOM
1 N 22.0300006866455 29.6149997711182 20.9519996643066 N 0.0 **** 0.0
2 CA 21.951000213623 30.8010005950928 20.1119995117188 C 0.0 **** 0.0
3 C 23.3299999237061 31.4169998168945 20.0259990692139 C 0.0 **** 0.0
4 O 23.992000579834 31.6000003814697 21.0520000457764 O 0.0 **** 0.0
5 CB 20.9500007629395 31.8059997558594 20.6770000457764 C 0.0 **** 0.0
@<TRIPOS>BOND
1 1 2 1
2 2 3 1
3 2 5 1
4 3 4 1
@<TRIPOS>MOLECULE
TYR108
12 12
SMALL
USER_CHARGES


@<TRIPOS>ATOM
1 N 23.7810001373291 31.7259998321533 18.8150005340576 N 0.0 **** 0.0
2 CA 25.125 32.2620010375977 18.6310005187988 C 0.0 **** 0.0
3 C 25.0869998931885 33.6910018920898 18.1200008392334 C 0.0 **** 0.0
4 O 24.576000213623 33.9519996643066 17.0230007171631 O 0.0 **** 0.0
5 CB 25.9489994049072 31.4290008544922 17.6599998474121 C 0.0 **** 0.0
6 CG 27.2169990539551 32.1380004882813 17.2439994812012 C 0.0 **** 0.0
7 CD1 28.1490001678467 32.5309982299805 18.1909999847412 C 0.0 **** 0.0
8 CD2 27.4769992828369 32.4210014343262 15.9079999923706 C 0.0 **** 0.0
9 CE1 29.3150005340576 33.1829986572266 17.8269996643066 C 0.0 **** 0.0
10 CE2 28.6529998779297 33.0779991149902 15.5249996185303 C 0.0 **** 0.0
11 CZ 29.5599994659424 33.4539985656738 16.4979991912842 C 0.0 **** 0.0
12 OH 30.7180004119873 34.1030006408691 16.121000289917 O 0.0 **** 0.0
@<TRIPOS>BOND
1 1 2 1
2 2 5 1
3 2 3 1
4 3 4 1
5 5 6 1
6 6 7 1
7 6 8 1
8 7 9 1
9 8 10 1
10 9 11 1
11 10 11 1
12 11 12 1
@<TRIPOS>MOLECULE
THR109
7 6
SMALL
USER_CHARGES


@<TRIPOS>ATOM
1 N 25.6790008544922 34.6040000915527 18.8859996795654 N 0.0 **** 0.0
2 CA 26.0499992370605 35.9000015258789 18.3530006408691 C 0.0 **** 0.0
3 C 27.5069999694824 36.1549987792969 18.6720008850098 C 0.0 **** 0.0
4 O 28.056999206543 35.6360015869141 19.6560001373291 O 0.0 **** 0.0
5 CB 25.2250003814697 37.0810012817383 18.9150009155273 C 0.0 **** 0.0
6 OG1 25.6009998321533 37.3250007629395 20.2770004272461 O 0.0 **** 0.0
7 CG2 23.746000289917 36.8040008544922 18.8299999237061 C 0.0 **** 0.0
@<TRIPOS>BOND
1 1 2 1
2 2 5 1
3 2 3 1
4 3 4 1
5 5 7 1
6 5 6 1
@<TRIPOS>MOLECULE
ASN110
8 7
SMALL
USER_CHARGES


@<TRIPOS>ATOM
1 N 28.1219997406006 36.9620018005371 17.8209991455078 N 0.0 **** 0.0
2 CA 29.5139999389648 37.3530006408691 17.9909992218018 C 0.0 **** 0.0
3 C 29.6019992828369 38.6150016784668 18.8600006103516 C 0.0 **** 0.0
4 O 29.8990001678467 38.5330009460449 20.0590000152588 O 0.0 **** 0.0
5 CB 30.1439990997314 37.5499992370605 16.5949993133545 C 0.0 **** 0.0
6 CG 31.5869998931885 38.0719985961914 16.6599998474121 C 0.0 **** 0.0
7 OD1 32.1580009460449 38.2109985351563 17.7369995117188 O 0.0 **** 0.0
8 ND2 32.1599998474121 38.4020004272461 15.4930000305176 N 0.0 **** 0.0
@<TRIPOS>BOND
1 1 2 1
2 2 3 1
3 2 5 1
4 3 4 1
5 5 6 1
6 6 8 1
7 6 7 1
@<TRIPOS>MOLECULE
VAL111
7 6
SMALL
USER_CHARGES


@<TRIPOS>ATOM
1 N 29.3719997406006 39.7820014953613 18.2590007781982 N 0.0 **** 0.0
2 CA 29.3229999542236 41.0670013427734 18.9680004119873 C 0.0 **** 0.0
3 C 27.8910007476807 41.431999206543 19.3920001983643 C 0.0 **** 0.0
4 O 27.6539993286133 41.882999420166 20.5249996185303 O 0.0 **** 0.0
5 CB 29.9099998474121 42.1570014953613 18.0499992370605 C 0.0 **** 0.0
6 CG1 30.0319995880127 43.4910011291504 18.8020000457764 C 0.0 **** 0.0
7 CG2 31.2639999389648 41.7150001525879 17.4559993743896 C 0.0 **** 0.0
@<TRIPOS>BOND
1 1 2 1
2 2 5 1
3 2 3 1
4 3 4 1
5 5 7 1
6 5 6 1
@<TRIPOS>MOLECULE
GLN112
9 8
SMALL
USER_CHARGES


@<TRIPOS>ATOM
1 N 26.9400005340576 41.2360000610352 18.4839992523193 N 0.0 **** 0.0
2 CA 25.5550003051758 41.6559982299805 18.6849994659424 C 0.0 **** 0.0
3 C 25.0160007476807 41.1290016174316 20.0020008087158 C 0.0 **** 0.0
4 O 25.0869998931885 39.9389991760254 20.2689990997314 O 0.0 **** 0.0
5 CB 24.6429996490479 41.0989990234375 17.5869998931885 C 0.0 **** 0.0
6 CG 25.0580005645752 41.1990013122559 16.2150001525879 C 0.0 **** 0.0
7 CD 23.9769992828369 40.6119995117188 15.3090000152588 C 0.0 **** 0.0
8 OE1 22.9109992980957 41.2070007324219 15.1389999389648 O 0.0 **** 0.0
9 NE2 24.2290000915527 39.4189987182617 14.7749996185303 N 0.0 **** 0.0
@<TRIPOS>BOND
1 1 2 1
2 2 5 1
3 2 3 1
4 3 4 1
5 5 6 1
6 6 7 1
7 7 9 1
8 7 8 1
@<TRIPOS>MOLECULE
PHE113
11 11
SMALL
USER_CHARGES


@<TRIPOS>ATOM
1 N 24.3990001678467 41.9879989624023 20.7800006866455 N 0.0 **** 0.0
2 CA 23.5849990844727 41.4729995727539 21.8549995422363 C 0.0 **** 0.0
3 C 22.2889995574951 40.8940010070801 21.2789993286133 C 0.0 **** 0.0
4 O 21.7199993133545 41.4469985961914 20.3330001831055 O 0.0 **** 0.0
5 CB 23.2360000610352 42.5629997253418 22.8680000305176 C 0.0 **** 0.0
6 CG 24.3290004730225 42.9189987182617 23.7919998168945 C 0.0 **** 0.0
7 CD1 24.7000007629395 42.048999786377 24.826000213623 C 0.0 **** 0.0
8 CD2 24.9950008392334 44.1389999389648 23.6609992980957 C 0.0 **** 0.0
9 CE1 25.6830005645752 42.382999420166 25.6900005340576 C 0.0 **** 0.0
10 CE2 26.0109996795654 44.4729995727539 24.5559997558594 C 0.0 **** 0.0
11 CZ 26.3479995727539 43.6020011901855 25.5669994354248 C 0.0 **** 0.0
@<TRIPOS>BOND
1 1 2 1
2 2 5 1
3 2 3 1
4 3 4 1
5 5 6 1
6 6 8 1
7 6 7 1
8 7 9 1
9 8 10 1
10 9 11 1
11 10 11 1
@<TRIPOS>MOLECULE
PRO114
7 7
SMALL
USER_CHARGES


@<TRIPOS>ATOM
1 N 21.7719993591309 39.8059997558594 21.8470001220703 N 0.0 **** 0.0
2 CA 20.4969997406006 39.2529983520508 21.3689994812012 C 0.0 **** 0.0
3 C 19.2600002288818 39.8610000610352 22.0100002288818 C 0.0 **** 0.0
4 O 18.1590003967285 39.3390007019043 21.80299949646 O 0.0 **** 0.0
5 CB 20.6240005493164 37.7700004577637 21.7430000305176 C 0.0 **** 0.0
6 CG 21.5049991607666 37.7649993896484 22.9939994812012 C 0.0 **** 0.0
7 CD 22.4780006408691 38.9020004272461 22.7749996185303 C 0.0 **** 0.0
@<TRIPOS>BOND
1 1 7 1
2 1 2 1
3 2 3 1
4 2 5 1
5 3 4 1
6 5 6 1
7 6 7 1
@<TRIPOS>MOLECULE
PHE115
11 11
SMALL
USER_CHARGES


@<TRIPOS>ATOM
1 N 19.4200000762939 40.9710006713867 22.7250003814697 N 0.0 **** 0.0
2 CA 18.3330001831055 41.6780014038086 23.3719997406006 C 0.0 **** 0.0
3 C 18.6159992218018 43.1570014953613 23.17799949646 C 0.0 **** 0.0
4 O 19.7469997406006 43.5670013427734 22.8780002593994 O 0.0 **** 0.0
5 CB 18.2019996643066 41.2849998474121 24.8770008087158 C 0.0 **** 0.0
6 CG 19.5130004882813 41.193000793457 25.5729999542236 C 0.0 **** 0.0
7 CD1 20.2049999237061 42.3440017700195 25.8939990997314 C 0.0 **** 0.0
8 CD2 20.0979995727539 39.9550018310547 25.8349990844727 C 0.0 **** 0.0
9 CE1 21.4769992828369 42.2770004272461 26.4820003509521 C 0.0 **** 0.0
10 CE2 21.3680000305176 39.8730010986328 26.44700050354 C 0.0 **** 0.0
11 CZ 22.0510005950928 41.0219993591309 26.757999420166 C 0.0 **** 0.0
@<TRIPOS>BOND
1 1 2 1
2 2 3 1
3 2 5 1
4 3 4 1
5 5 6 1
6 6 7 1
7 6 8 1
8 7 9 1
9 8 10 1
10 9 11 1
11 10 11 1
@<TRIPOS>MOLECULE
ALA116
5 4
SMALL
USER_CHARGES


@<TRIPOS>ATOM
1 N 17.5620002746582 43.9490013122559 23.3010005950928 N 0.0 **** 0.0
2 CA 17.693000793457 45.3889999389648 23.2259998321533 C 0.0 **** 0.0
3 C 18.7180004119873 45.8720016479492 24.2430000305176 C 0.0 **** 0.0
4 O 18.8169994354248 45.3380012512207 25.3610000610352 O 0.0 **** 0.0
5 CB 16.3330001831055 46.0250015258789 23.4969997406006 C 0.0 **** 0.0
@<TRIPOS>BOND
1 1 2 1
2 2 5 1
3 2 3 1
4 3 4 1
@<TRIPOS>MOLECULE
VAL117
7 6
SMALL
USER_CHARGES


@<TRIPOS>ATOM
1 N 19.5109996795654 46.859001159668 23.8110008239746 N 0.0 **** 0.0
2 CA 20.625 47.4329986572266 24.621000289917 C 0.0 **** 0.0
3 C 20.07200050354 48.4990005493164 25.5690002441406 C 0.0 **** 0.0
4 O 20.3099994659424 49.6980018615723 25.3209991455078 O 0.0 **** 0.0
5 CB 21.7250003814697 48.0149993896484 23.7119998931885 C 0.0 **** 0.0
6 CG1 22.8020000457764 48.7280006408691 24.5149993896484 C 0.0 **** 0.0
7 CG2 22.3390007019043 46.9500007629395 22.8169994354248 C 0.0 **** 0.0
@<TRIPOS>BOND
1 1 2 1
2 2 3 1
3 2 5 1
4 3 4 1
5 5 7 1
6 5 6 1
@<TRIPOS>MOLECULE
GLU118
9 8
SMALL
USER_CHARGES


@<TRIPOS>ATOM
1 N 19.3929996490479 48.0610008239746 26.6319999694824 N 0.0 **** 0.0
2 CA 18.8439998626709 48.9889984130859 27.6539993286133 C 0.0 **** 0.0
3 C 19.2740001678467 48.4700012207031 29.0279998779297 C 0.0 **** 0.0
4 O 18.3959999084473 48.0439987182617 29.8050003051758 O 0.0 **** 0.0
5 CB 17.3199996948242 49.0579986572266 27.5440006256104 C 0.0 **** 0.0
6 CG 16.6389999389648 47.7159996032715 27.7439994812012 C 0.0 **** 0.0
7 CD 15.1230001449585 47.7569999694824 27.6550006866455 C 0.0 **** 0.0
8 OE1 14.5719995498657 48.8639984130859 27.488000869751 O 0.0 **** 0.0
9 OE2 14.4969997406006 46.6829986572266 27.7509994506836 O 0.0 **** 0.0
@<TRIPOS>BOND
1 1 2 1
2 2 5 1
3 2 3 1
4 3 4 1
5 5 6 1
6 6 7 1
7 7 9 1
8 7 8 1
@<TRIPOS>MOLECULE
PRO119
7 7
SMALL
USER_CHARGES


@<TRIPOS>ATOM
1 N 20.5830001831055 48.507999420166 29.3640003204346 N 0.0 **** 0.0
2 CA 21.0669994354248 48.0289993286133 30.6590003967285 C 0.0 **** 0.0
3 C 20.5659999847412 48.9640007019043 31.7670001983643 C 0.0 **** 0.0
4 O 20.5069999694824 50.1580009460449 31.5349998474121 O 0.0 **** 0.0
5 CB 22.5949993133545 48.117000579834 30.5349998474121 C 0.0 **** 0.0
6 CG 22.8169994354248 49.1910018920898 29.4930000305176 C 0.0 **** 0.0
7 CD 21.6639995574951 49.0299987792969 28.5249996185303 C 0.0 **** 0.0
@<TRIPOS>BOND
1 1 2 1
2 1 7 1
3 2 5 1
4 2 3 1
5 3 4 1
6 5 6 1
7 6 7 1
@<TRIPOS>MOLECULE
PRO120
7 7
SMALL
USER_CHARGES


@<TRIPOS>ATOM
1 N 20.2040004730225 48.451000213623 32.9620018005371 N 0.0 **** 0.0
2 CA 20.3430004119873 47.0299987792969 33.3359985351563 C 0.0 **** 0.0
3 C 19.1630001068115 46.1319999694824 32.9650001525879 C 0.0 **** 0.0
4 O 19.1119995117188 45.0830001831055 33.4609985351563 O 0.0 **** 0.0
5 CB 20.4050006866455 47.0690002441406 34.8540000915527 C 0.0 **** 0.0
6 CG 19.4790000915527 48.1730003356934 35.2000007629395 C 0.0 **** 0.0
7 CD 19.6490001678467 49.1800003051758 34.0880012512207 C 0.0 **** 0.0
@<TRIPOS>BOND
1 1 2 1
2 1 7 1
3 2 3 1
4 2 5 1
5 3 4 1
6 5 6 1
7 6 7 1
@<TRIPOS>MOLECULE
HIS121
10 10
SMALL
USER_CHARGES


@<TRIPOS>ATOM
1 N 18.2280006408691 46.6080017089844 32.1469993591309 N 0.0 **** 0.0
2 CA 16.9610004425049 45.9269981384277 31.8129997253418 C 0.0 **** 0.0
3 C 17.1459999084473 44.6599998474121 31.0060005187988 C 0.0 **** 0.0
4 O 17.9810009002686 44.6119995117188 30.1469993591309 O 0.0 **** 0.0
5 CB 16.0230007171631 46.9150009155273 31.1319999694824 C 0.0 **** 0.0
6 CG 15.8439998626709 48.1459999084473 31.9370002746582 C 0.0 **** 0.0
7 ND1 15.2399997711182 48.1279983520508 33.1479988098145 N 0.0 **** 0.0
8 CD2 16.2320003509521 49.4080009460449 31.7360000610352 C 0.0 **** 0.0
9 CE1 15.2419996261597 49.326000213623 33.6510009765625 C 0.0 **** 0.0
10 NE2 15.8420000076294 50.1220016479492 32.814998626709 N 0.0 **** 0.0
@<TRIPOS>BOND
1 1 2 1
2 2 5 1
3 2 3 1
4 3 4 1
5 5 6 1
6 6 7 1
7 6 8 1
8 7 9 1
9 8 10 1
10 9 10 1
@<TRIPOS>MOLECULE
VAL122
7 6
SMALL
USER_CHARGES


@<TRIPOS>ATOM
1 N 16.2880001068115 43.7070007324219 31.2770004272461 N 0.0 **** 0.0
2 CA 16.2819995880127 42.4049987792969 30.621000289917 C 0.0 **** 0.0
3 C 15.0290002822876 42.2540016174316 29.7600002288818 C 0.0 **** 0.0
4 O 13.9799995422363 42.8499984741211 30.056999206543 O 0.0 **** 0.0
5 CB 16.3850002288818 41.2550010681152 31.6450004577637 C 0.0 **** 0.0
6 CG1 17.6259994506836 41.4300003051758 32.5349998474121 C 0.0 **** 0.0
7 CG2 15.121000289917 41.1609992980957 32.5139999389648 C 0.0 **** 0.0
@<TRIPOS>BOND
1 1 2 1
2 2 3 1
3 2 5 1
4 3 4 1
5 5 7 1
6 5 6 1
@<TRIPOS>MOLECULE
PRO123
7 7
SMALL
USER_CHARGES


@<TRIPOS>ATOM
1 N 15.0970001220703 41.4729995727539 28.6909999847412 N 0.0 **** 0.0
2 CA 13.9259996414185 41.2630004882813 27.8299999237061 C 0.0 **** 0.0
3 C 12.8809995651245 40.4090003967285 28.5149993896484 C 0.0 **** 0.0
4 O 13.1459999084473 39.7249984741211 29.5020008087158 O 0.0 **** 0.0
5 CB 14.503999710083 40.5369987487793 26.628999710083 C 0.0 **** 0.0
6 CG 15.6820001602173 39.7750015258789 27.2140007019043 C 0.0 **** 0.0
7 CD 16.25 40.6570014953613 28.2830009460449 C 0.0 **** 0.0
@<TRIPOS>BOND
1 1 2 1
2 1 7 1
3 2 3 1
4 2 5 1
5 3 4 1
6 5 6 1
7 6 7 1
@<TRIPOS>MOLECULE
GLU124
9 8
SMALL
USER_CHARGES


@<TRIPOS>ATOM
1 N 11.6730003356934 40.4440002441406 27.9489994049072 N 0.0 **** 0.0
2 CA 10.5740003585815 39.6419982910156 28.4689998626709 C 0.0 **** 0.0
3 C 10.7670001983643 38.1590003967285 28.1849994659424 C 0.0 **** 0.0
4 O 10.3730001449585 37.3139991760254 28.996000289917 O 0.0 **** 0.0
5 CB 9.25599956512451 40.1080017089844 27.8600006103516 C 0.0 **** 0.0
6 CG 8.8730001449585 41.507999420166 28.2310009002686 C 0.0 **** 0.0
7 CD 8.59000015258789 41.681999206543 29.7210006713867 C 0.0 **** 0.0
8 OE1 8.0 40.7630004882813 30.3600006103516 O 0.0 **** 0.0
9 OE2 8.94099998474121 42.7690010070801 30.2450008392334 O 0.0 **** 0.0
@<TRIPOS>BOND
1 1 2 1
2 2 5 1
3 2 3 1
4 3 4 1
5 5 6 1
6 6 7 1
7 7 8 1
8 7 9 1
@<TRIPOS>MOLECULE
ALA125
5 4
SMALL
USER_CHARGES


@<TRIPOS>ATOM
1 N 11.2849998474121 37.8289985656738 27.007999420166 N 0.0 **** 0.0
2 CA 11.6300001144409 36.4570007324219 26.6539993286133 C 0.0 **** 0.0
3 C 12.9469995498657 36.1300010681152 27.3320007324219 C 0.0 **** 0.0
4 O 14.0200004577637 36.4710006713867 26.8339996337891 O 0.0 **** 0.0
5 CB 11.7279996871948 36.2960014343262 25.1450004577637 C 0.0 **** 0.0
@<TRIPOS>BOND
1 1 2 1
2 2 3 1
3 2 5 1
4 3 4 1
@<TRIPOS>MOLECULE
ASN126
8 7
SMALL
USER_CHARGES


@<TRIPOS>ATOM
1 N 12.8649997711182 35.4650001525879 28.4799995422363 N 0.0 **** 0.0
2 CA 14.039999961853 35.2210006713867 29.318000793457 C 0.0 **** 0.0
3 C 13.8929996490479 33.8610000610352 29.9820003509521 C 0.0 **** 0.0
4 O 13.2559995651245 33.7410011291504 31.0259990692139 O 0.0 **** 0.0
5 CB 14.2159996032715 36.3089981079102 30.3759994506836 C 0.0 **** 0.0
6 CG 15.5120000839233 36.1769981384277 31.1299991607666 C 0.0 **** 0.0
7 OD1 16.4080009460449 35.3919982910156 30.7509994506836 O 0.0 **** 0.0
8 ND2 15.6319999694824 36.9410018920898 32.1949996948242 N 0.0 **** 0.0
@<TRIPOS>BOND
1 1 2 1
2 2 3 1
3 2 5 1
4 3 4 1
5 5 6 1
6 6 8 1
7 6 7 1
@<TRIPOS>MOLECULE
PRO127
7 7
SMALL
USER_CHARGES


@<TRIPOS>ATOM
1 N 14.4659996032715 32.8199996948242 29.3929996490479 N 0.0 **** 0.0
2 CA 14.2770004272461 31.4669990539551 29.9099998474121 C 0.0 **** 0.0
3 C 14.6490001678467 31.3400001525879 31.3850002288818 C 0.0 **** 0.0
4 O 15.7480001449585 31.7070007324219 31.8010005950928 O 0.0 **** 0.0
5 CB 15.1979999542236 30.6389999389648 29.0160007476807 C 0.0 **** 0.0
6 CG 15.1549997329712 31.3799991607666 27.6809997558594 C 0.0 **** 0.0
7 CD 15.1029996871948 32.8320007324219 28.0540008544922 C 0.0 **** 0.0
@<TRIPOS>BOND
1 1 2 1
2 1 7 1
3 2 5 1
4 2 3 1
5 3 4 1
6 5 6 1
7 6 7 1
@<TRIPOS>MOLECULE
ILE128
8 7
SMALL
USER_CHARGES


@<TRIPOS>ATOM
1 N 13.71399974823 30.818000793457 32.1780014038086 N 0.0 **** 0.0
2 CA 13.8760004043579 30.6700000762939 33.6209983825684 C 0.0 **** 0.0
3 C 13.8900003433228 29.1730003356934 33.9150009155273 C 0.0 **** 0.0
4 O 12.871000289917 28.4890003204346 33.734001159668 O 0.0 **** 0.0
5 CB 12.7600002288818 31.3659992218018 34.4150009155273 C 0.0 **** 0.0
6 CG1 12.625 32.8489990234375 34.0299987792969 C 0.0 **** 0.0
7 CG2 13.0129995346069 31.2259998321533 35.9080009460449 C 0.0 **** 0.0
8 CD1 13.8570003509521 33.7000007629395 34.2799987792969 C 0.0 **** 0.0
@<TRIPOS>BOND
1 1 2 1
2 2 3 1
3 2 5 1
4 3 4 1
5 5 6 1
6 5 7 1
7 6 8 1
@<TRIPOS>MOLECULE
GLY129
4 3
SMALL
USER_CHARGES


@<TRIPOS>ATOM
1 N 15.0419998168945 28.6700000762939 34.3880004882813 N 0.0 **** 0.0
2 CA 15.1929998397827 27.253999710083 34.6780014038086 C 0.0 **** 0.0
3 C 15.206000328064 26.9330005645752 36.1629981994629 C 0.0 **** 0.0
4 O 16.1410007476807 27.3129997253418 36.8699989318848 O 0.0 **** 0.0
@<TRIPOS>BOND
1 1 2 1
2 2 3 1
3 3 4 1
@<TRIPOS>MOLECULE
ASP130
8 7
SMALL
USER_CHARGES


@<TRIPOS>ATOM
1 N 14.1789999008179 26.2360000610352 36.6479988098145 N 0.0 **** 0.0
2 CA 14.0989999771118 25.8479995727539 38.0509986877441 C 0.0 **** 0.0
3 C 14.7270002365112 24.4699993133545 38.2309989929199 C 0.0 **** 0.0
4 O 14.3470001220703 23.5170001983643 37.5410003662109 O 0.0 **** 0.0
5 CB 12.6470003128052 25.8430004119873 38.5250015258789 C 0.0 **** 0.0
6 CG 11.9980001449585 27.2180004119873 38.4379997253418 C 0.0 **** 0.0
7 OD1 12.7069997787476 28.2320003509521 38.5579986572266 O 0.0 **** 0.0
8 OD2 10.7679996490479 27.2870006561279 38.2610015869141 O 0.0 **** 0.0
@<TRIPOS>BOND
1 1 2 1
2 2 3 1
3 2 5 1
4 3 4 1
5 5 6 1
6 6 7 1
7 6 8 1
@<TRIPOS>MOLECULE
HIS131
10 10
SMALL
USER_CHARGES


@<TRIPOS>ATOM
1 N 15.6949996948242 24.3759994506836 39.1469993591309 N 0.0 **** 0.0
2 CA 16.4799995422363 23.1660003662109 39.3460006713867 C 0.0 **** 0.0
3 C 16.3150005340576 22.6879997253418 40.7820014953613 C 0.0 **** 0.0
4 O 16.4109992980957 23.4860000610352 41.7179985046387 O 0.0 **** 0.0
5 CB 17.9710006713867 23.4139995574951 39.0950012207031 C 0.0 **** 0.0
6 CG 18.3309993743896 23.7929992675781 37.6879997253418 C 0.0 **** 0.0
7 ND1 18.0090007781982 25.0139999389648 37.1380004882813 N 0.0 **** 0.0
8 CD2 19.0590000152588 23.1380004882813 36.7470016479492 C 0.0 **** 0.0
9 CE1 18.4829998016357 25.0779991149902 35.9080009460449 C 0.0 **** 0.0
10 NE2 19.1350002288818 23.9570007324219 35.6510009765625 N 0.0 **** 0.0
@<TRIPOS>BOND
1 1 2 1
2 2 5 1
3 2 3 1
4 3 4 1
5 5 6 1
6 6 8 1
7 6 7 1
8 7 9 1
9 8 10 1
10 9 10 1
@<TRIPOS>MOLECULE
LEU132
8 7
SMALL
USER_CHARGES


@<TRIPOS>ATOM
1 N 16.1159992218018 21.3819999694824 40.9599990844727 N 0.0 **** 0.0
2 CA 15.9010000228882 20.8229999542236 42.2809982299805 C 0.0 **** 0.0
3 C 16.5769996643066 19.4580001831055 42.390998840332 C 0.0 **** 0.0
4 O 16.5020008087158 18.6439990997314 41.4640007019043 O 0.0 **** 0.0
5 CB 14.3889999389648 20.7310009002686 42.5550003051758 C 0.0 **** 0.0
6 CG 14.048999786377 20.548999786377 44.0219993591309 C 0.0 **** 0.0
7 CD1 12.8699998855591 21.4190006256104 44.4080009460449 C 0.0 **** 0.0
8 CD2 13.7559995651245 19.1000003814697 44.2599983215332 C 0.0 **** 0.0
@<TRIPOS>BOND
1 1 2 1
2 2 3 1
3 2 5 1
4 3 4 1
5 5 6 1
6 6 7 1
7 6 8 1
@<TRIPOS>MOLECULE
VAL133
7 6
SMALL
USER_CHARGES


@<TRIPOS>ATOM
1 N 17.2569999694824 19.2140007019043 43.5250015258789 N 0.0 **** 0.0
2 CA 17.8059997558594 17.8969993591309 43.8330001831055 C 0.0 **** 0.0
3 C 17.6520004272461 17.6159992218018 45.3230018615723 C 0.0 **** 0.0
4 O 17.753999710083 18.5139999389648 46.1660003662109 O 0.0 **** 0.0
5 CB 19.2759990692139 17.7490005493164 43.4140014648438 C 0.0 **** 0.0
6 CG1 20.1709995269775 18.7849998474121 44.125 C 0.0 **** 0.0
7 CG2 19.757999420166 16.3110008239746 43.6430015563965 C 0.0 **** 0.0
@<TRIPOS>BOND
1 1 2 1
2 2 3 1
3 2 5 1
4 3 4 1
5 5 6 1
6 5 7 1
@<TRIPOS>MOLECULE
VAL134
7 6
SMALL
USER_CHARGES


@<TRIPOS>ATOM
1 N 17.3969993591309 16.3460006713867 45.6360015869141 N 0.0 **** 0.0
2 CA 17.2689990997314 15.8669996261597 47.0060005187988 C 0.0 **** 0.0
3 C 18.4939994812012 15.0209999084473 47.3079986572266 C 0.0 **** 0.0
4 O 18.8680000305176 14.1619997024536 46.5029983520508 O 0.0 **** 0.0
5 CB 15.9779996871948 15.0530004501343 47.1980018615723 C 0.0 **** 0.0
6 CG1 15.9209995269775 14.4779996871948 48.5960006713867 C 0.0 **** 0.0
7 CG2 14.753999710083 15.9320001602173 46.9599990844727 C 0.0 **** 0.0
@<TRIPOS>BOND
1 1 2 1
2 2 3 1
3 2 5 1
4 3 4 1
5 5 7 1
6 5 6 1
@<TRIPOS>MOLECULE
PHE135
11 11
SMALL
USER_CHARGES


@<TRIPOS>ATOM
1 N 19.1159992218018 15.2609996795654 48.4630012512207 N 0.0 **** 0.0
2 CA 20.3500003814697 14.5869998931885 48.8199996948242 C 0.0 **** 0.0
3 C 20.3910007476807 14.3549995422363 50.3209991455078 C 0.0 **** 0.0
4 O 19.6340007781982 14.956000328064 51.0919990539551 O 0.0 **** 0.0
5 CB 21.576000213623 15.3920001983643 48.3769989013672 C 0.0 **** 0.0
6 CG 21.757999420166 16.6879997253418 49.1100006103516 C 0.0 **** 0.0
7 CD1 21.0629997253418 17.826000213623 48.7200012207031 C 0.0 **** 0.0
8 CD2 22.6490001678467 16.7789993286133 50.1650009155273 C 0.0 **** 0.0
9 CE1 21.2390003204346 19.0240001678467 49.3790016174316 C 0.0 **** 0.0
10 CE2 22.8400001525879 17.9769992828369 50.8240013122559 C 0.0 **** 0.0
11 CZ 22.1270008087158 19.1049995422363 50.4220008850098 C 0.0 **** 0.0
@<TRIPOS>BOND
1 1 2 1
2 2 5 1
3 2 3 1
4 3 4 1
5 5 6 1
6 6 8 1
7 6 7 1
8 7 9 1
9 8 10 1
10 9 11 1
11 10 11 1
@<TRIPOS>MOLECULE
GLU136
9 8
SMALL
USER_CHARGES


@<TRIPOS>ATOM
1 N 21.2910003662109 13.46399974823 50.7190017700195 N 0.0 **** 0.0
2 CA 21.4780006408691 13.076000213623 52.1100006103516 C 0.0 **** 0.0
3 C 22.7880001068115 13.6429996490479 52.6339988708496 C 0.0 **** 0.0
4 O 23.818000793457 13.5659999847412 51.9609985351563 O 0.0 **** 0.0
5 CB 21.492000579834 11.5559997558594 52.2439994812012 C 0.0 **** 0.0
6 CG 20.1509990692139 10.9069995880127 51.9980010986328 C 0.0 **** 0.0
7 CD 19.3209991455078 10.7950000762939 53.2569999694824 C 0.0 **** 0.0
8 OE1 19.8439998626709 10.2869997024536 54.2709999084473 O 0.0 **** 0.0
9 OE2 18.1499996185303 11.2279996871948 53.2350006103516 O 0.0 **** 0.0
@<TRIPOS>BOND
1 1 2 1
2 2 5 1
3 2 3 1
4 3 4 1
5 5 6 1
6 6 7 1
7 7 8 1
8 7 9 1
@<TRIPOS>MOLECULE
ALA137
5 4
SMALL
USER_CHARGES


@<TRIPOS>ATOM
1 N 22.7549991607666 14.1909999847412 53.8440017700195 N 0.0 **** 0.0
2 CA 23.9419994354248 14.7670001983643 54.4710006713867 C 0.0 **** 0.0
3 C 24.2409992218018 14.0 55.757999420166 C 0.0 **** 0.0
4 O 23.4400005340576 14.0139999389648 56.7050018310547 O 0.0 **** 0.0
5 CB 23.7530002593994 16.261999130249 54.7480010986328 C 0.0 **** 0.0
@<TRIPOS>BOND
1 1 2 1
2 2 5 1
3 2 3 1
4 3 4 1
@<TRIPOS>MOLECULE
GLY138
4 3
SMALL
USER_CHARGES


@<TRIPOS>ATOM
1 N 25.3950004577637 13.326000213623 55.7859992980957 N 0.0 **** 0.0
2 CA 25.8050003051758 12.581000328064 56.9449996948242 C 0.0 **** 0.0
3 C 26.3500003814697 13.4770002365112 58.048999786377 C 0.0 **** 0.0
4 O 26.503999710083 14.6969995498657 57.8880004882813 O 0.0 **** 0.0
@<TRIPOS>BOND
1 1 2 1
2 2 3 1
3 3 4 1
@<TRIPOS>MOLECULE
PRO139
7 7
SMALL
USER_CHARGES


@<TRIPOS>ATOM
1 N 26.6790008544922 12.8620004653931 59.185001373291 N 0.0 **** 0.0
2 CA 27.0849990844727 13.6520004272461 60.359001159668 C 0.0 **** 0.0
3 C 28.3910007476807 14.3979997634888 60.1650009155273 C 0.0 **** 0.0
4 O 28.6350002288818 15.3850002288818 60.8740005493164 O 0.0 **** 0.0
5 CB 27.2000007629395 12.5930004119873 61.4690017700195 C 0.0 **** 0.0
6 CG 27.4669990539551 11.3179998397827 60.7410011291504 C 0.0 **** 0.0
7 CD 26.7369995117188 11.4160003662109 59.4300003051758 C 0.0 **** 0.0
@<TRIPOS>BOND
1 1 7 1
2 1 2 1
3 2 5 1
4 2 3 1
5 3 4 1
6 5 6 1
7 6 7 1
@<TRIPOS>MOLECULE
GLU140
9 8
SMALL
USER_CHARGES


@<TRIPOS>ATOM
1 N 29.2210006713867 13.9820003509521 59.2039985656738 N 0.0 **** 0.0
2 CA 30.4850006103516 14.6510000228882 58.9620018005371 C 0.0 **** 0.0
3 C 30.3059997558594 16.0559997558594 58.3819999694824 C 0.0 **** 0.0
4 O 31.2950000762939 16.7959995269775 58.2929992675781 O 0.0 **** 0.0
5 CB 31.3490009307861 13.789999961853 58.0299987792969 C 0.0 **** 0.0
6 CG 30.7970008850098 13.6169996261597 56.6230010986328 C 0.0 **** 0.0
7 CD 29.8059997558594 12.4770002365112 56.5069999694824 C 0.0 **** 0.0
8 OE1 29.3090000152588 12.0290002822876 57.5519981384277 O 0.0 **** 0.0
9 OE2 29.5139999389648 12.0480003356934 55.3650016784668 O 0.0 **** 0.0
@<TRIPOS>BOND
1 1 2 1
2 2 3 1
3 2 5 1
4 3 4 1
5 5 6 1
6 6 7 1
7 7 9 1
8 7 8 1
@<TRIPOS>MOLECULE
PHE141
11 11
SMALL
USER_CHARGES


@<TRIPOS>ATOM
1 N 29.0809993743896 16.4580001831055 58.0320014953613 N 0.0 **** 0.0
2 CA 28.8239994049072 17.7999992370605 57.5149993896484 C 0.0 **** 0.0
3 C 28.2490005493164 18.7299995422363 58.5740013122559 C 0.0 **** 0.0
4 O 27.7150001525879 19.7999992370605 58.2350006103516 O 0.0 **** 0.0
5 CB 27.9009990692139 17.7369995117188 56.2970008850098 C 0.0 **** 0.0
6 CG 28.5219993591309 17.0440006256104 55.1370010375977 C 0.0 **** 0.0
7 CD1 29.5259990692139 17.6639995574951 54.398998260498 C 0.0 **** 0.0
8 CD2 28.1340007781982 15.7629995346069 54.7900009155273 C 0.0 **** 0.0
9 CE1 30.1259994506836 17.011999130249 53.3409996032715 C 0.0 **** 0.0
10 CE2 28.7280006408691 15.1190004348755 53.7179985046387 C 0.0 **** 0.0
11 CZ 29.7229995727539 15.7489995956421 52.9949989318848 C 0.0 **** 0.0
@<TRIPOS>BOND
1 1 2 1
2 2 3 1
3 2 5 1
4 3 4 1
5 5 6 1
6 6 7 1
7 6 8 1
8 7 9 1
9 8 10 1
10 9 11 1
11 10 11 1
@<TRIPOS>MOLECULE
PHE142
11 11
SMALL
USER_CHARGES


@<TRIPOS>ATOM
1 N 28.3780002593994 18.3540000915527 59.8479995727539 N 0.0 **** 0.0
2 CA 27.8560009002686 19.1350002288818 60.9529991149902 C 0.0 **** 0.0
3 C 28.9260005950928 19.3050003051758 62.0180015563965 C 0.0 **** 0.0
4 O 29.761999130249 18.4220008850098 62.2060012817383 O 0.0 **** 0.0
5 CB 26.6140003204346 18.4549999237061 61.5429992675781 C 0.0 **** 0.0
6 CG 25.5470008850098 18.2530002593994 60.5260009765625 C 0.0 **** 0.0
7 CD1 25.5470008850098 17.1219997406006 59.7270011901855 C 0.0 **** 0.0
8 CD2 24.5970001220703 19.238000869751 60.2980003356934 C 0.0 **** 0.0
9 CE1 24.5820007324219 16.9540004730225 58.7470016479492 C 0.0 **** 0.0
10 CE2 23.632999420166 19.0799999237061 59.3139991760254 C 0.0 **** 0.0
11 CZ 23.625 17.943000793457 58.5429992675781 C 0.0 **** 0.0
@<TRIPOS>BOND
1 1 2 1
2 2 5 1
3 2 3 1
4 3 4 1
5 5 6 1
6 6 8 1
7 6 7 1
8 7 9 1
9 8 10 1
10 9 11 1
11 10 11 1
@<TRIPOS>MOLECULE
PRO143
7 7
SMALL
USER_CHARGES


@<TRIPOS>ATOM
1 N 28.9419994354248 20.4479999542236 62.7130012512207 N 0.0 **** 0.0
2 CA 27.9850006103516 21.5659999847412 62.6160011291504 C 0.0 **** 0.0
3 C 28.0690002441406 22.4440002441406 61.3540000915527 C 0.0 **** 0.0
4 O 27.0520000457764 23.0319995880127 61.0099983215332 O 0.0 **** 0.0
5 CB 28.3229999542236 22.4179992675781 63.8409996032715 C 0.0 **** 0.0
6 CG 29.7800006866455 22.0809993743896 64.1549987792969 C 0.0 **** 0.0
7 CD 29.8990001678467 20.6229991912842 63.8250007629395 C 0.0 **** 0.0
@<TRIPOS>BOND
1 1 7 1
2 1 2 1
3 2 5 1
4 2 3 1
5 3 4 1
6 5 6 1
7 6 7 1
@<TRIPOS>MOLECULE
HIS144
10 10
SMALL
USER_CHARGES


@<TRIPOS>ATOM
1 N 29.2180004119873 22.5319995880127 60.6839981079102 N 0.0 **** 0.0
2 CA 29.4389991760254 23.5499992370605 59.6570014953613 C 0.0 **** 0.0
3 C 29.7000007629395 22.9130001068115 58.3089981079102 C 0.0 **** 0.0
4 O 30.5149993896484 21.9890003204346 58.2019996643066 O 0.0 **** 0.0
5 CB 30.613000869751 24.4640007019043 60.0309982299805 C 0.0 **** 0.0
6 CG 30.3810005187988 25.2310009002686 61.2900009155273 C 0.0 **** 0.0
7 ND1 29.4029998779297 26.1959991455078 61.3969993591309 N 0.0 **** 0.0
8 CD2 30.9750003814697 25.1550006866455 62.5040016174316 C 0.0 **** 0.0
9 CE1 29.4139995574951 26.6889991760254 62.6209983825684 C 0.0 **** 0.0
10 NE2 30.3589992523193 26.0779991149902 63.310001373291 N 0.0 **** 0.0
@<TRIPOS>BOND
1 1 2 1
2 2 3 1
3 2 5 1
4 3 4 1
5 5 6 1
6 6 7 1
7 6 8 1
8 7 9 1
9 8 10 1
10 9 10 1
@<TRIPOS>MOLECULE
ALA145
5 4
SMALL
USER_CHARGES


@<TRIPOS>ATOM
1 N 29.0100002288818 23.4220008850098 57.2929992675781 N 0.0 **** 0.0
2 CA 29.253999710083 23.0470008850098 55.9049987792969 C 0.0 **** 0.0
3 C 28.9160003662109 24.2280006408691 55.0149993896484 C 0.0 **** 0.0
4 O 28.2880001068115 25.2000007629395 55.4469985961914 O 0.0 **** 0.0
5 CB 28.4309997558594 21.8169994354248 55.5089988708496 C 0.0 **** 0.0
@<TRIPOS>BOND
1 1 2 1
2 2 5 1
3 2 3 1
4 3 4 1
@<TRIPOS>MOLECULE
LEU146
8 7
SMALL
USER_CHARGES


@<TRIPOS>ATOM
1 N 29.3269996643066 24.1270008087158 53.742000579834 N 0.0 **** 0.0
2 CA 28.9389991760254 25.1019992828369 52.7360000610352 C 0.0 **** 0.0
3 C 28.5179996490479 24.3649997711182 51.4749984741211 C 0.0 **** 0.0
4 O 28.7919998168945 23.1679992675781 51.3040008544922 O 0.0 **** 0.0
5 CB 30.07200050354 26.0990009307861 52.4420013427734 C 0.0 **** 0.0
6 CG 31.3950004577637 25.5690002441406 51.8489990234375 C 0.0 **** 0.0
7 CD1 31.2630004882813 25.2350006103516 50.3689994812012 C 0.0 **** 0.0
8 CD2 32.5359992980957 26.6159992218018 52.0499992370605 C 0.0 **** 0.0
@<TRIPOS>BOND
1 1 2 1
2 2 5 1
3 2 3 1
4 3 4 1
5 5 6 1
6 6 7 1
7 6 8 1
@<TRIPOS>MOLECULE
LEU147
8 7
SMALL
USER_CHARGES


@<TRIPOS>ATOM
1 N 27.8309993743896 25.0939998626709 50.5970001220703 N 0.0 **** 0.0
2 CA 27.5230007171631 24.6340007781982 49.2519989013672 C 0.0 **** 0.0
3 C 28.2970008850098 25.4780006408691 48.2529983520508 C 0.0 **** 0.0
4 O 28.3110008239746 26.7099990844727 48.3479995727539 O 0.0 **** 0.0
5 CB 26.0209999084473 24.7099990844727 48.9720001220703 C 0.0 **** 0.0
6 CG 25.2150001525879 23.4950008392334 49.4360008239746 C 0.0 **** 0.0
7 CD1 23.7070007324219 23.7299995422363 49.2929992675781 C 0.0 **** 0.0
8 CD2 25.6140003204346 22.2430000305176 48.6730003356934 C 0.0 **** 0.0
@<TRIPOS>BOND
1 1 2 1
2 2 3 1
3 2 5 1
4 3 4 1
5 5 6 1
6 6 8 1
7 6 7 1
@<TRIPOS>MOLECULE
ARG148
11 10
SMALL
USER_CHARGES


@<TRIPOS>ATOM
1 N 28.9400005340576 24.8090000152588 47.2980003356934 N 0.0 **** 0.0
2 CA 29.8050003051758 25.4409999847412 46.3120002746582 C 0.0 **** 0.0
3 C 29.2360000610352 25.2590007781982 44.9090003967285 C 0.0 **** 0.0
4 O 28.8950004577637 24.1399993896484 44.5180015563965 O 0.0 **** 0.0
5 CB 31.2049999237061 24.8419990539551 46.3559989929199 C 0.0 **** 0.0
6 CG 32.148998260498 25.4200000762939 45.3170013427734 C 0.0 **** 0.0
7 CD 33.5050010681152 24.7689990997314 45.3810005187988 C 0.0 **** 0.0
8 NE 34.3370018005371 25.423999786377 44.3769989013672 N 0.0 **** 0.0
9 CZ 35.1539993286133 26.4529991149902 44.6100006103516 C 0.0 **** 0.0
10 NH1 35.3320007324219 26.92799949646 45.8499984741211 N 0.0 **** 0.0
11 NH2 35.8250007629395 26.9969997406006 43.5900001525879 N 0.0 **** 0.0
@<TRIPOS>BOND
1 1 2 1
2 2 5 1
3 2 3 1
4 3 4 1
5 5 6 1
6 6 7 1
7 7 8 1
8 8 9 1
9 9 11 1
10 9 10 1
@<TRIPOS>MOLECULE
PHE149
11 11
SMALL
USER_CHARGES


@<TRIPOS>ATOM
1 N 29.1660003662109 26.3540000915527 44.1559982299805 N 0.0 **** 0.0
2 CA 28.7229995727539 26.3549995422363 42.765998840332 C 0.0 **** 0.0
3 C 29.8540000915527 26.9050006866455 41.9150009155273 C 0.0 **** 0.0
4 O 30.2199993133545 28.0799999237061 42.0519981384277 O 0.0 **** 0.0
5 CB 27.4680004119873 27.2159996032715 42.5620002746582 C 0.0 **** 0.0
6 CG 26.2810001373291 26.7320003509521 43.3460006713867 C 0.0 **** 0.0
7 CD1 26.117000579834 27.1009998321533 44.6720008850098 C 0.0 **** 0.0
8 CD2 25.3430004119873 25.8929996490479 42.765998840332 C 0.0 **** 0.0
9 CE1 25.0450000762939 26.6200008392334 45.4140014648438 C 0.0 **** 0.0
10 CE2 24.2520008087158 25.4370002746582 43.4959983825684 C 0.0 **** 0.0
11 CZ 24.1089992523193 25.7940006256104 44.8199996948242 C 0.0 **** 0.0
@<TRIPOS>BOND
1 1 2 1
2 2 3 1
3 2 5 1
4 3 4 1
5 5 6 1
6 6 7 1
7 6 8 1
8 7 9 1
9 8 10 1
10 9 11 1
11 10 11 1
@<TRIPOS>MOLECULE
ASP150
8 7
SMALL
USER_CHARGES


@<TRIPOS>ATOM
1 N 30.3880004882813 26.0900001525879 41.0219993591309 N 0.0 **** 0.0
2 CA 31.5189990997314 26.568000793457 40.2290000915527 C 0.0 **** 0.0
3 C 31.121000289917 27.2430000305176 38.935001373291 C 0.0 **** 0.0
4 O 32.0040016174316 27.7830009460449 38.2529983520508 O 0.0 **** 0.0
5 CB 32.4879989624023 25.4260005950928 39.9729995727539 C 0.0 **** 0.0
6 CG 33.4589996337891 25.2549991607666 41.1380004882813 C 0.0 **** 0.0
7 OD1 34.2760009765625 26.1809997558594 41.3380012512207 O 0.0 **** 0.0
8 OD2 33.3580017089844 24.246000289917 41.8709983825684 O 0.0 **** 0.0
@<TRIPOS>BOND
1 1 2 1
2 2 3 1
3 2 5 1
4 3 4 1
5 5 6 1
6 6 8 1
7 6 7 1
@<TRIPOS>MOLECULE
GLY151
4 3
SMALL
USER_CHARGES


@<TRIPOS>ATOM
1 N 29.8349990844727 27.2730007171631 38.5999984741211 N 0.0 **** 0.0
2 CA 29.386999130249 28.1019992828369 37.4930000305176 C 0.0 **** 0.0
3 C 27.8980007171631 28.0300006866455 37.2319984436035 C 0.0 **** 0.0
4 O 27.3430004119873 26.92799949646 37.1230010986328 O 0.0 **** 0.0
@<TRIPOS>BOND
1 1 2 1
2 2 3 1
3 3 4 1
@<TRIPOS>MOLECULE
ILE152
8 7
SMALL
USER_CHARGES


@<TRIPOS>ATOM
1 N 27.2530002593994 29.19700050354 37.1110000610352 N 0.0 **** 0.0
2 CA 25.8400001525879 29.3190002441406 36.7519989013672 C 0.0 **** 0.0
3 C 25.6849994659424 30.4769992828369 35.7849998474121 C 0.0 **** 0.0
4 O 26.0219993591309 31.6159992218018 36.1240005493164 O 0.0 **** 0.0
5 CB 24.943000793457 29.5590000152588 37.9869995117188 C 0.0 **** 0.0
6 CG1 25.1560001373291 28.4529991149902 39.0270004272461 C 0.0 **** 0.0
7 CG2 23.4780006408691 29.6299991607666 37.5579986572266 C 0.0 **** 0.0
8 CD1 24.3619995117188 28.6940002441406 40.3600006103516 C 0.0 **** 0.0
@<TRIPOS>BOND
1 1 2 1
2 2 5 1
3 2 3 1
4 3 4 1
5 5 7 1
6 5 6 1
7 6 8 1
@<TRIPOS>MOLECULE
GLU153
9 8
SMALL
USER_CHARGES


@<TRIPOS>ATOM
1 N 25.1359996795654 30.2059993743896 34.5979995727539 N 0.0 **** 0.0
2 CA 24.94700050354 31.2229995727539 33.5579986572266 C 0.0 **** 0.0
3 C 23.4570007324219 31.5510005950928 33.4729995727539 C 0.0 **** 0.0
4 O 22.6760005950928 30.6669998168945 33.125 O 0.0 **** 0.0
5 CB 25.4340000152588 30.7140007019043 32.2019996643066 C 0.0 **** 0.0
6 CG 25.1840000152588 31.7220001220703 31.0739994049072 C 0.0 **** 0.0
7 CD 25.9139995574951 31.4169998168945 29.7859992980957 C 0.0 **** 0.0
8 OE1 27.0370006561279 30.8910007476807 29.8449993133545 O 0.0 **** 0.0
9 OE2 25.3729991912842 31.7649993896484 28.7029991149902 O 0.0 **** 0.0
@<TRIPOS>BOND
1 1 2 1
2 2 3 1
3 2 5 1
4 3 4 1
5 5 6 1
6 6 7 1
7 7 8 1
8 7 9 1
@<TRIPOS>MOLECULE
SER154
6 5
SMALL
USER_CHARGES


@<TRIPOS>ATOM
1 N 23.0450000762939 32.8030014038086 33.7550010681152 N 0.0 **** 0.0
2 CA 23.871000289917 33.9199981689453 34.2360000610352 C 0.0 **** 0.0
3 C 23.503999710083 34.3740005493164 35.6529998779297 C 0.0 **** 0.0
4 O 24.3169994354248 35.0219993591309 36.3129997253418 O 0.0 **** 0.0
5 CB 23.753999710083 35.1259994506836 33.3040008544922 C 0.0 **** 0.0
6 OG 22.5100002288818 35.7869987487793 33.439998626709 O 0.0 **** 0.0
@<TRIPOS>BOND
1 1 2 1
2 2 3 1
3 2 5 1
4 3 4 1
5 5 6 1
@<TRIPOS>MOLECULE
ALA155
5 4
SMALL
USER_CHARGES


@<TRIPOS>ATOM
1 N 22.2970008850098 34.0589981079102 36.1150016784668 N 0.0 **** 0.0
2 CA 21.8390007019043 34.5289993286133 37.4269981384277 C 0.0 **** 0.0
3 C 21.1200008392334 33.4199981689453 38.1829986572266 C 0.0 **** 0.0
4 O 20.0750007629395 32.9449996948242 37.742000579834 O 0.0 **** 0.0
5 CB 20.9139995574951 35.7389984130859 37.2480010986328 C 0.0 **** 0.0
@<TRIPOS>BOND
1 1 2 1
2 2 5 1
3 2 3 1
4 3 4 1
@<TRIPOS>MOLECULE
GLY156
4 3
SMALL
USER_CHARGES


@<TRIPOS>ATOM
1 N 21.6389999389648 33.0410003662109 39.3450012207031 N 0.0 **** 0.0
2 CA 21.0610008239746 31.9790000915527 40.1450004577637 C 0.0 **** 0.0
3 C 20.5480003356934 32.5519981384277 41.4529991149902 C 0.0 **** 0.0
4 O 21.1270008087158 33.4980010986328 41.9889984130859 O 0.0 **** 0.0
@<TRIPOS>BOND
1 1 2 1
2 2 3 1
3 3 4 1
@<TRIPOS>MOLECULE
THR157
7 6
SMALL
USER_CHARGES


@<TRIPOS>ATOM
1 N 19.4220008850098 32.0130004882813 41.9140014648438 N 0.0 **** 0.0
2 CA 18.9349994659424 32.1699981689453 43.2719993591309 C 0.0 **** 0.0
3 C 18.8819999694824 30.7830009460449 43.8919982910156 C 0.0 **** 0.0
4 O 18.3020000457764 29.867000579834 43.2970008850098 O 0.0 **** 0.0
5 CB 17.55299949646 32.8129997253418 43.2890014648438 C 0.0 **** 0.0
6 OG1 17.5839996337891 33.9990005493164 42.492000579834 O 0.0 **** 0.0
7 CG2 17.1590003967285 33.1720008850098 44.7099990844727 C 0.0 **** 0.0
@<TRIPOS>BOND
1 1 2 1
2 2 5 1
3 2 3 1
4 3 4 1
5 5 7 1
6 5 6 1
@<TRIPOS>MOLECULE
VAL158
7 6
SMALL
USER_CHARGES


@<TRIPOS>ATOM
1 N 19.4619998931885 30.6350002288818 45.0900001525879 N 0.0 **** 0.0
2 CA 19.6509990692139 29.3349990844727 45.7290000915527 C 0.0 **** 0.0
3 C 18.8549995422363 29.2819995880127 47.0260009765625 C 0.0 **** 0.0
4 O 18.9680004119873 30.1800003051758 47.8699989318848 O 0.0 **** 0.0
5 CB 21.1389999389648 29.0590000152588 46.0060005187988 C 0.0 **** 0.0
6 CG1 21.3549995422363 27.6550006866455 46.5579986572266 C 0.0 **** 0.0
7 CG2 21.9729995727539 29.2439994812012 44.7210006713867 C 0.0 **** 0.0
@<TRIPOS>BOND
1 1 2 1
2 2 5 1
3 2 3 1
4 3 4 1
5 5 6 1
6 5 7 1
@<TRIPOS>MOLECULE
TRP159
14 15
SMALL
USER_CHARGES


@<TRIPOS>ATOM
1 N 18.0629997253418 28.2210006713867 47.1780014038086 N 0.0 **** 0.0
2 CA 17.378999710083 27.8920001983643 48.4169998168945 C 0.0 **** 0.0
3 C 17.826000213623 26.5200004577637 48.9039993286133 C 0.0 **** 0.0
4 O 18.003999710083 25.5930004119873 48.1110000610352 O 0.0 **** 0.0
5 CB 15.8699998855591 27.8460006713867 48.2490005493164 C 0.0 **** 0.0
6 CG 15.2370004653931 29.1200008392334 47.818000793457 C 0.0 **** 0.0
7 CD1 14.6909999847412 30.0739994049072 48.6259994506836 C 0.0 **** 0.0
8 CD2 15.0550003051758 29.5820007324219 46.4679985046387 C 0.0 **** 0.0
9 NE1 14.1809997558594 31.0979995727539 47.8650016784668 N 0.0 **** 0.0
10 CE2 14.3979997634888 30.8269996643066 46.5410003662109 C 0.0 **** 0.0
11 CE3 15.3900003433228 29.068000793457 45.2109985351563 C 0.0 **** 0.0
12 CZ2 14.0559997558594 31.5580005645752 45.4090003967285 C 0.0 **** 0.0
13 CZ3 15.0500001907349 29.8050003051758 44.0769996643066 C 0.0 **** 0.0
14 CH2 14.3929996490479 31.0340003967285 44.1879997253418 C 0.0 **** 0.0
@<TRIPOS>BOND
1 1 2 1
2 2 3 1
3 2 5 1
4 3 4 1
5 5 6 1
6 6 8 1
7 6 7 1
8 7 9 1
9 8 10 1
10 8 11 1
11 9 10 1
12 10 12 1
13 11 13 1
14 12 14 1
15 13 14 1
@<TRIPOS>MOLECULE
LEU160
8 7
SMALL
USER_CHARGES


@<TRIPOS>ATOM
1 N 17.9489994049072 26.3759994506836 50.2150001525879 N 0.0 **** 0.0
2 CA 18.1609992980957 25.0809993743896 50.8479995727539 C 0.0 **** 0.0
3 C 17.0429992675781 24.8560009002686 51.851001739502 C 0.0 **** 0.0
4 O 16.82200050354 25.6879997253418 52.7400016784668 O 0.0 **** 0.0
5 CB 19.5230007171631 25.0240001678467 51.5229988098145 C 0.0 **** 0.0
6 CG 19.8649997711182 23.6900005340576 52.1949996948242 C 0.0 **** 0.0
7 CD1 19.9169998168945 22.55299949646 51.1730003356934 C 0.0 **** 0.0
8 CD2 21.1849994659424 23.798999786377 52.9830017089844 C 0.0 **** 0.0
@<TRIPOS>BOND
1 1 2 1
2 2 3 1
3 2 5 1
4 3 4 1
5 5 6 1
6 6 7 1
7 6 8 1
@<TRIPOS>MOLECULE
ASN161
8 7
SMALL
USER_CHARGES


@<TRIPOS>ATOM
1 N 16.3360004425049 23.7390003204346 51.7019996643066 N 0.0 **** 0.0
2 CA 15.164999961853 23.4340000152588 52.5229988098145 C 0.0 **** 0.0
3 C 14.2279996871948 24.632999420166 52.6319999694824 C 0.0 **** 0.0
4 O 13.673999786377 24.9200000762939 53.7029991149902 O 0.0 **** 0.0
5 CB 15.5839996337891 22.9449996948242 53.9109992980957 C 0.0 **** 0.0
6 CG 16.5170001983643 21.746000289917 53.8380012512207 C 0.0 **** 0.0
7 OD1 16.32200050354 20.8649997711182 53.0120010375977 O 0.0 **** 0.0
8 ND2 17.5459995269775 21.7199993133545 54.6829986572266 N 0.0 **** 0.0
@<TRIPOS>BOND
1 1 2 1
2 2 3 1
3 2 5 1
4 3 4 1
5 5 6 1
6 6 8 1
7 6 7 1
@<TRIPOS>MOLECULE
GLY162
4 3
SMALL
USER_CHARGES


@<TRIPOS>ATOM
1 N 14.0299997329712 25.3239994049072 51.5139999389648 N 0.0 **** 0.0
2 CA 13.1549997329712 26.4750003814697 51.4700012207031 C 0.0 **** 0.0
3 C 13.7650003433228 27.7600002288818 51.9710006713867 C 0.0 **** 0.0
4 O 13.1359996795654 28.8150005340576 51.8520011901855 O 0.0 **** 0.0
@<TRIPOS>BOND
1 1 2 1
2 2 3 1
3 3 4 1
@<TRIPOS>MOLECULE
VAL163
7 6
SMALL
USER_CHARGES


@<TRIPOS>ATOM
1 N 14.9700002670288 27.7150001525879 52.5009994506836 N 0.0 **** 0.0
2 CA 15.628999710083 28.8990001678467 53.0250015258789 C 0.0 **** 0.0
3 C 16.5069999694824 29.4759998321533 51.9269981384277 C 0.0 **** 0.0
4 O 17.3010005950928 28.7549991607666 51.3240013122559 O 0.0 **** 0.0
5 CB 16.4589996337891 28.548999786377 54.2690010070801 C 0.0 **** 0.0
6 CG1 17.1709995269775 29.7870006561279 54.798999786377 C 0.0 **** 0.0
7 CG2 15.5570001602173 27.9360008239746 55.326000213623 C 0.0 **** 0.0
@<TRIPOS>BOND
1 1 2 1
2 2 5 1
3 2 3 1
4 3 4 1
5 5 6 1
6 5 7 1
@<TRIPOS>MOLECULE
GLU164
9 8
SMALL
USER_CHARGES


@<TRIPOS>ATOM
1 N 16.3719997406006 30.7670001983643 51.6669998168945 N 0.0 **** 0.0
2 CA 17.1580009460449 31.3910007476807 50.6100006103516 C 0.0 **** 0.0
3 C 18.5809993743896 31.5949993133545 51.1189994812012 C 0.0 **** 0.0
4 O 18.7830009460449 32.1720008850098 52.1920013427734 O 0.0 **** 0.0
5 CB 16.5349998474121 32.7109985351563 50.1749992370605 C 0.0 **** 0.0
6 CG 17.2329998016357 33.3199996948242 48.9480018615723 C 0.0 **** 0.0
7 CD 16.8470001220703 34.7490005493164 48.7150001525879 C 0.0 **** 0.0
8 OE1 15.7329998016357 35.0089988708496 48.201000213623 O 0.0 **** 0.0
9 OE2 17.673999786377 35.609001159668 49.0769996643066 O 0.0 **** 0.0
@<TRIPOS>BOND
1 1 2 1
2 2 3 1
3 2 5 1
4 3 4 1
5 5 6 1
6 6 7 1
7 7 9 1
8 7 8 1
@<TRIPOS>MOLECULE
LEU165
8 7
SMALL
USER_CHARGES


@<TRIPOS>ATOM
1 N 19.5580005645752 31.0729999542236 50.3800010681152 N 0.0 **** 0.0
2 CA 20.9610004425049 31.298999786377 50.6959991455078 C 0.0 **** 0.0
3 C 21.4939994812012 32.5859985351563 50.060001373291 C 0.0 **** 0.0
4 O 22.2189998626709 33.3450012207031 50.7089996337891 O 0.0 **** 0.0
5 CB 21.7889995574951 30.0919990539551 50.2490005493164 C 0.0 **** 0.0
6 CG 21.3110008239746 28.7229995727539 50.7789993286133 C 0.0 **** 0.0
7 CD1 22.1940002441406 27.5599994659424 50.2610015869141 C 0.0 **** 0.0
8 CD2 21.2660007476807 28.7080001831055 52.2869987487793 C 0.0 **** 0.0
@<TRIPOS>BOND
1 1 2 1
2 2 5 1
3 2 3 1
4 3 4 1
5 5 6 1
6 6 8 1
7 6 7 1
@<TRIPOS>MOLECULE
GLY166
4 3
SMALL
USER_CHARGES


@<TRIPOS>ATOM
1 N 21.1299991607666 32.8709983825684 48.8190002441406 N 0.0 **** 0.0
2 CA 21.6550006866455 34.0470008850098 48.1529998779297 C 0.0 **** 0.0
3 C 21.5590000152588 33.8800010681152 46.6520004272461 C 0.0 **** 0.0
4 O 20.8080005645752 33.0379981994629 46.1570014953613 O 0.0 **** 0.0
@<TRIPOS>BOND
1 1 2 1
2 2 3 1
3 3 4 1
@<TRIPOS>MOLECULE
THR167
7 6
SMALL
USER_CHARGES


@<TRIPOS>ATOM
1 N 22.3239994049072 34.7130012512207 45.9490013122559 N 0.0 **** 0.0
2 CA 22.3090000152588 34.7560005187988 44.4939994812012 C 0.0 **** 0.0
3 C 23.7320003509521 34.7569999694824 43.9669990539551 C 0.0 **** 0.0
4 O 24.6889991760254 35.0439987182617 44.6940002441406 O 0.0 **** 0.0
5 CB 21.5960006713867 35.9949989318848 43.984001159668 C 0.0 **** 0.0
6 OG1 22.2830009460449 37.1539993286133 44.4650001525879 O 0.0 **** 0.0
7 CG2 20.1520004272461 36.0040016174316 44.4799995422363 C 0.0 **** 0.0
@<TRIPOS>BOND
1 1 2 1
2 2 3 1
3 2 5 1
4 3 4 1
5 5 6 1
6 5 7 1
@<TRIPOS>MOLECULE
THR168
7 6
SMALL
USER_CHARGES


@<TRIPOS>ATOM
1 N 23.8649997711182 34.4280014038086 42.6860008239746 N 0.0 **** 0.0
2 CA 25.1569995880127 34.3629989624023 42.0289993286133 C 0.0 **** 0.0
3 C 25.1580009460449 35.2700004577637 40.8110008239746 C 0.0 **** 0.0
4 O 24.1749992370605 35.3199996948242 40.0730018615723 O 0.0 **** 0.0
5 CB 25.4909992218018 32.9249992370605 41.601001739502 C 0.0 **** 0.0
6 OG1 24.5349998474121 32.4449996948242 40.6300010681152 O 0.0 **** 0.0
7 CG2 25.4750003814697 32.0379981994629 42.8009986877441 C 0.0 **** 0.0
@<TRIPOS>BOND
1 1 2 1
2 2 3 1
3 2 5 1
4 3 4 1
5 5 7 1
6 5 6 1
@<TRIPOS>MOLECULE
ARG169
11 10
SMALL
USER_CHARGES


@<TRIPOS>ATOM
1 N 26.2810001373291 35.9690017700195 40.609001159668 N 0.0 **** 0.0
2 CA 26.5450000762939 36.7750015258789 39.431999206543 C 0.0 **** 0.0
3 C 27.9990005493164 36.5260009765625 39.0820007324219 C 0.0 **** 0.0
4 O 28.8430004119873 36.3940010070801 39.984001159668 O 0.0 **** 0.0
5 CB 26.3159999847412 38.2949981689453 39.6430015563965 C 0.0 **** 0.0
6 CG 24.8950004577637 38.689998626709 39.9790000915527 C 0.0 **** 0.0
7 CD 23.9549999237061 38.4420013427734 38.7980003356934 C 0.0 **** 0.0
8 NE 22.5979995727539 38.9249992370605 39.0740013122559 N 0.0 **** 0.0
9 CZ 21.6480007171631 38.2459983825684 39.7109985351563 C 0.0 **** 0.0
10 NH1 21.8610000610352 37.0229988098145 40.1910018920898 N 0.0 **** 0.0
11 NH2 20.4619998931885 38.8059997558594 39.8629989624023 N 0.0 **** 0.0
@<TRIPOS>BOND
1 1 2 1
2 2 3 1
3 2 5 1
4 3 4 1
5 5 6 1
6 6 7 1
7 7 8 1
8 8 9 1
9 9 10 1
10 9 11 1
@<TRIPOS>MOLECULE
GLY170
4 3
SMALL
USER_CHARGES


@<TRIPOS>ATOM
1 N 28.2880001068115 36.4900016784668 37.7719993591309 N 0.0 **** 0.0
2 CA 29.5869998931885 36.0839996337891 37.2709999084473 C 0.0 **** 0.0
3 C 29.496000289917 34.6290016174316 36.8660011291504 C 0.0 **** 0.0
4 O 29.7490005493164 33.7229995727539 37.6809997558594 O 0.0 **** 0.0
@<TRIPOS>BOND
1 1 2 1
2 2 3 1
3 3 4 1
@<TRIPOS>MOLECULE
SER171
6 5
SMALL
USER_CHARGES


@<TRIPOS>ATOM
1 N 29.1580009460449 34.3959999084473 35.5880012512207 N 0.0 **** 0.0
2 CA 28.6790008544922 33.0769996643066 35.2000007629395 C 0.0 **** 0.0
3 C 29.7600002288818 32.0200004577637 35.2760009765625 C 0.0 **** 0.0
4 O 29.4599990844727 30.8579998016357 35.5610008239746 O 0.0 **** 0.0
5 CB 28.0869998931885 33.1450004577637 33.8009986877441 C 0.0 **** 0.0
6 OG 26.9440002441406 33.9830017089844 33.8079986572266 O 0.0 **** 0.0
@<TRIPOS>BOND
1 1 2 1
2 2 5 1
3 2 3 1
4 3 4 1
5 5 6 1
@<TRIPOS>MOLECULE
ARG172
11 10
SMALL
USER_CHARGES


@<TRIPOS>ATOM
1 N 31.007999420166 32.3959999084473 35.076000213623 N 0.0 **** 0.0
2 CA 32.1319999694824 31.4360008239746 35.0629997253418 C 0.0 **** 0.0
3 C 32.9230003356934 31.5259990692139 36.3680000305176 C 0.0 **** 0.0
4 O 34.0209999084473 31.05299949646 36.3819999694824 O 0.0 **** 0.0
5 CB 32.9770011901855 31.6690006256104 33.8129997253418 C 0.0 **** 0.0
6 CG 32.4300003051758 30.9930000305176 32.568000793457 C 0.0 **** 0.0
7 CD 31.0639991760254 31.4489994049072 32.0839996337891 C 0.0 **** 0.0
8 NE 31.0620002746582 32.8390007019043 31.6940002441406 N 0.0 **** 0.0
9 CZ 30.3059997558594 33.3680000305176 30.7569999694824 C 0.0 **** 0.0
10 NH1 30.4099998474121 34.648998260498 30.4850006103516 N 0.0 **** 0.0
11 NH2 29.4599990844727 32.6310005187988 30.0830001831055 N 0.0 **** 0.0
@<TRIPOS>BOND
1 1 2 1
2 2 5 1
3 2 3 1
4 3 4 1
5 5 6 1
6 6 7 1
7 7 8 1
8 8 9 1
9 9 11 1
10 9 10 1
@<TRIPOS>MOLECULE
LEU173
8 7
SMALL
USER_CHARGES


@<TRIPOS>ATOM
1 N 32.3429985046387 32.0950012207031 37.4169998168945 N 0.0 **** 0.0
2 CA 32.9939994812012 32.3079986572266 38.701000213623 C 0.0 **** 0.0
3 C 32.3339996337891 31.4419994354248 39.7599983215332 C 0.0 **** 0.0
4 O 31.1609992980957 31.07200050354 39.6479988098145 O 0.0 **** 0.0
5 CB 32.9329986572266 33.7809982299805 39.1069984436035 C 0.0 **** 0.0
6 CG 33.3549995422363 34.7799987792969 37.9959983825684 C 0.0 **** 0.0
7 CD1 33.2760009765625 36.189998626709 38.5289993286133 C 0.0 **** 0.0
8 CD2 34.7830009460449 34.5040016174316 37.4490013122559 C 0.0 **** 0.0
@<TRIPOS>BOND
1 1 2 1
2 2 3 1
3 2 5 1
4 3 4 1
5 5 6 1
6 6 8 1
7 6 7 1
@<TRIPOS>MOLECULE
ALA174
5 4
SMALL
USER_CHARGES


@<TRIPOS>ATOM
1 N 33.1049995422363 31.1119995117188 40.7869987487793 N 0.0 **** 0.0
2 CA 32.6139984130859 30.2719993591309 41.8740005493164 C 0.0 **** 0.0
3 C 31.9160003662109 31.1079998016357 42.939998626709 C 0.0 **** 0.0
4 O 32.3030014038086 32.2529983520508 43.2169990539551 O 0.0 **** 0.0
5 CB 33.757999420166 29.4750003814697 42.4990005493164 C 0.0 **** 0.0
@<TRIPOS>BOND
1 1 2 1
2 2 5 1
3 2 3 1
4 3 4 1
@<TRIPOS>MOLECULE
HIS175
10 10
SMALL
USER_CHARGES


@<TRIPOS>ATOM
1 N 30.863000869751 30.5170001983643 43.5260009765625 N 0.0 **** 0.0
2 CA 30.1879997253418 31.0410003662109 44.7070007324219 C 0.0 **** 0.0
3 C 30.0310001373291 29.9409999847412 45.7430000305176 C 0.0 **** 0.0
4 O 29.7830009460449 28.7819995880127 45.3919982910156 O 0.0 **** 0.0
5 CB 28.8250007629395 31.5909996032715 44.3440017700195 C 0.0 **** 0.0
6 CG 28.8969993591309 32.6959991455078 43.3580017089844 C 0.0 **** 0.0
7 ND1 29.128999710083 32.4770011901855 42.0209999084473 N 0.0 **** 0.0
8 CD2 28.8020000457764 34.0349998474121 43.5180015563965 C 0.0 **** 0.0
9 CE1 29.17799949646 33.6389999389648 41.3919982910156 C 0.0 **** 0.0
10 NE2 28.9790000915527 34.5999984741211 42.2770004272461 N 0.0 **** 0.0
@<TRIPOS>BOND
1 1 2 1
2 2 5 1
3 2 3 1
4 3 4 1
5 5 6 1
6 6 8 1
7 6 7 1
8 7 9 1
9 8 10 1
10 9 10 1
@<TRIPOS>MOLECULE
GLU176
9 8
SMALL
USER_CHARGES


@<TRIPOS>ATOM
1 N 30.1709995269775 30.3110008239746 47.0169982910156 N 0.0 **** 0.0
2 CA 29.931999206543 29.3880004882813 48.1160011291504 C 0.0 **** 0.0
3 C 28.988000869751 30.0240001678467 49.1240005493164 C 0.0 **** 0.0
4 O 29.1009998321533 31.2220001220703 49.4080009460449 O 0.0 **** 0.0
5 CB 31.2450008392334 29.0060005187988 48.814998626709 C 0.0 **** 0.0
6 CG 32.2060012817383 28.2210006713867 47.9290008544922 C 0.0 **** 0.0
7 CD 33.5270004272461 27.9370002746582 48.6209983825684 C 0.0 **** 0.0
8 OE1 34.0330009460449 28.8229999542236 49.3390007019043 O 0.0 **** 0.0
9 OE2 34.0530014038086 26.8199996948242 48.4490013122559 O 0.0 **** 0.0
@<TRIPOS>BOND
1 1 2 1
2 2 3 1
3 2 5 1
4 3 4 1
5 5 6 1
6 6 7 1
7 7 9 1
8 7 8 1
@<TRIPOS>MOLECULE
PHE177
11 11
SMALL
USER_CHARGES


@<TRIPOS>ATOM
1 N 28.0919990539551 29.2029991149902 49.6959991455078 N 0.0 **** 0.0
2 CA 27.0990009307861 29.6480007171631 50.6689987182617 C 0.0 **** 0.0
3 C 27.1749992370605 28.7740001678467 51.9109992980957 C 0.0 **** 0.0
4 O 27.1389999389648 27.5419998168945 51.8139991760254 O 0.0 **** 0.0
5 CB 25.6809997558594 29.6009998321533 50.0979995727539 C 0.0 **** 0.0
6 CG 25.511999130249 30.4349994659424 48.8639984130859 C 0.0 **** 0.0
7 CD1 25.1700000762939 31.7670001983643 48.9679985046387 C 0.0 **** 0.0
8 CD2 25.7509994506836 29.8990001678467 47.6059989929199 C 0.0 **** 0.0
9 CE1 25.0440006256104 32.560001373291 47.8479995727539 C 0.0 **** 0.0
10 CE2 25.6180000305176 30.6879997253418 46.4480018615723 C 0.0 **** 0.0
11 CZ 25.2569999694824 32.0219993591309 46.5769996643066 C 0.0 **** 0.0
@<TRIPOS>BOND
1 1 2 1
2 2 3 1
3 2 5 1
4 3 4 1
5 5 6 1
6 6 7 1
7 6 8 1
8 7 9 1
9 8 10 1
10 9 11 1
11 10 11 1
@<TRIPOS>MOLECULE
ASP178
8 7
SMALL
USER_CHARGES


@<TRIPOS>ATOM
1 N 27.2689990997314 29.42799949646 53.0670013427734 N 0.0 **** 0.0
2 CA 27.257999420166 28.7450008392334 54.3559989929199 C 0.0 **** 0.0
3 C 25.878999710083 28.1439990997314 54.5859985351563 C 0.0 **** 0.0
4 O 24.8610000610352 28.8299999237061 54.4529991149902 O 0.0 **** 0.0
5 CB 27.6159992218018 29.7479991912842 55.4469985961914 C 0.0 **** 0.0
6 CG 27.7719993591309 29.121000289917 56.8300018310547 C 0.0 **** 0.0
7 OD1 27.7810001373291 27.8780002593994 56.9830017089844 O 0.0 **** 0.0
8 OD2 27.8810005187988 29.9270000457764 57.773998260498 O 0.0 **** 0.0
@<TRIPOS>BOND
1 1 2 1
2 2 3 1
3 2 5 1
4 3 4 1
5 5 6 1
6 6 7 1
7 6 8 1
@<TRIPOS>MOLECULE
VAL179
7 6
SMALL
USER_CHARGES


@<TRIPOS>ATOM
1 N 25.8369998931885 26.8509998321533 54.8849983215332 N 0.0 **** 0.0
2 CA 24.5709991455078 26.1730003356934 55.1440010070801 C 0.0 **** 0.0
3 C 24.4340000152588 25.7600002288818 56.5919990539551 C 0.0 **** 0.0
4 O 23.4479999542236 25.1030006408691 56.951000213623 O 0.0 **** 0.0
5 CB 24.3859996795654 24.9570007324219 54.2140007019043 C 0.0 **** 0.0
6 CG1 24.2919998168945 25.4349994659424 52.7439994812012 C 0.0 **** 0.0
7 CG2 25.5209999084473 23.9710006713867 54.3759994506836 C 0.0 **** 0.0
@<TRIPOS>BOND
1 1 2 1
2 2 3 1
3 2 5 1
4 3 4 1
5 5 6 1
6 5 7 1
@<TRIPOS>MOLECULE
SER180
6 5
SMALL
USER_CHARGES


@<TRIPOS>ATOM
1 N 25.3840007781982 26.1410007476807 57.4389991760254 N 0.0 **** 0.0
2 CA 25.3159999847412 25.8320007324219 58.8580017089844 C 0.0 **** 0.0
3 C 23.9759998321533 26.261999130249 59.4189987182617 C 0.0 **** 0.0
4 O 23.5289993286133 27.3889999389648 59.1920013427734 O 0.0 **** 0.0
5 CB 26.443000793457 26.5580005645752 59.5839996337891 C 0.0 **** 0.0
6 OG 27.7029991149902 26.2180004119873 59.0550003051758 O 0.0 **** 0.0
@<TRIPOS>BOND
1 1 2 1
2 2 3 1
3 2 5 1
4 3 4 1
5 5 6 1
@<TRIPOS>MOLECULE
GLY181
4 3
SMALL
USER_CHARGES


@<TRIPOS>ATOM
1 N 23.3320007324219 25.3600006103516 60.148998260498 N 0.0 **** 0.0
2 CA 22.0400009155273 25.6590003967285 60.7229995727539 C 0.0 **** 0.0
3 C 20.8929996490479 25.6669998168945 59.7439994812012 C 0.0 **** 0.0
4 O 19.7630004882813 25.943000793457 60.1520004272461 O 0.0 **** 0.0
@<TRIPOS>BOND
1 1 2 1
2 2 3 1
3 3 4 1
@<TRIPOS>MOLECULE
ILE182
8 7
SMALL
USER_CHARGES


@<TRIPOS>ATOM
1 N 21.1420001983643 25.386999130249 58.4669990539551 N 0.0 **** 0.0
2 CA 20.0890007019043 25.2220001220703 57.4700012207031 C 0.0 **** 0.0
3 C 20.0709991455078 23.80299949646 56.9280014038086 C 0.0 **** 0.0
4 O 19.0149993896484 23.173999786377 56.8330001831055 O 0.0 **** 0.0
5 CB 20.2439994812012 26.2350006103516 56.3120002746582 C 0.0 **** 0.0
6 CG1 20.201000213623 27.6620006561279 56.8499984741211 C 0.0 **** 0.0
7 CG2 19.136999130249 26.0179996490479 55.2280006408691 C 0.0 **** 0.0
8 CD1 20.6110000610352 28.6959991455078 55.7960014343262 C 0.0 **** 0.0
@<TRIPOS>BOND
1 1 2 1
2 2 5 1
3 2 3 1
4 3 4 1
5 5 7 1
6 5 6 1
7 6 8 1
@<TRIPOS>MOLECULE
LEU183
8 7
SMALL
USER_CHARGES


@<TRIPOS>ATOM
1 N 21.2360000610352 23.2919998168945 56.5439987182617 N 0.0 **** 0.0
2 CA 21.3969993591309 21.8689994812012 56.2949981689453 C 0.0 **** 0.0
3 C 20.9200000762939 21.0639991760254 57.4959983825684 C 0.0 **** 0.0
4 O 21.2649993896484 21.375 58.6389999389648 O 0.0 **** 0.0
5 CB 22.8680000305176 21.5739994049072 56.0089988708496 C 0.0 **** 0.0
6 CG 23.2630004882813 20.1830005645752 55.5369987487793 C 0.0 **** 0.0
7 CD1 22.8159999847412 19.943000793457 54.0909996032715 C 0.0 **** 0.0
8 CD2 24.7689990997314 20.0359992980957 55.6650009155273 C 0.0 **** 0.0
@<TRIPOS>BOND
1 1 2 1
2 2 5 1
3 2 3 1
4 3 4 1
5 5 6 1
6 6 8 1
7 6 7 1
@<TRIPOS>MOLECULE
GLU184
9 8
SMALL
USER_CHARGES


@<TRIPOS>ATOM
1 N 20.1259994506836 20.0300006866455 57.2280006408691 N 0.0 **** 0.0
2 CA 19.6429996490479 19.1040000915527 58.2480010986328 C 0.0 **** 0.0
3 C 20.3150005340576 17.7569999694824 58.0579986572266 C 0.0 **** 0.0
4 O 20.57200050354 17.3299999237061 56.9249992370605 O 0.0 **** 0.0
5 CB 18.1299991607666 18.9200000762939 58.1710014343262 C 0.0 **** 0.0
6 CG 17.32200050354 20.1599998474121 58.484001159668 C 0.0 **** 0.0
7 CD 15.8420000076294 19.9769992828369 58.1360015869141 C 0.0 **** 0.0
8 OE1 15.3680000305176 18.8190002441406 58.1759986877441 O 0.0 **** 0.0
9 OE2 15.1540002822876 20.9750003814697 57.8110008239746 O 0.0 **** 0.0
@<TRIPOS>BOND
1 1 2 1
2 2 3 1
3 2 5 1
4 3 4 1
5 5 6 1
6 6 7 1
7 7 9 1
8 7 8 1
@<TRIPOS>MOLECULE
GLN185
9 8
SMALL
USER_CHARGES


@<TRIPOS>ATOM
1 N 20.621000289917 17.0930004119873 59.1660003662109 N 0.0 **** 0.0
2 CA 21.1429996490479 15.7399997711182 59.0740013122559 C 0.0 **** 0.0
3 C 20.1159992218018 14.8640003204346 58.3699989318848 C 0.0 **** 0.0
4 O 18.9260005950928 14.9069995880127 58.6870002746582 O 0.0 **** 0.0
5 CB 21.4720001220703 15.1960000991821 60.4679985046387 C 0.0 **** 0.0
6 CG 22.6200008392334 14.1850004196167 60.4410018920898 C 0.0 **** 0.0
7 CD 23.4230003356934 14.1459999084473 61.7379989624023 C 0.0 **** 0.0
8 OE1 23.576000213623 15.1549997329712 62.4339981079102 O 0.0 **** 0.0
9 NE2 23.92799949646 12.9729995727539 62.0699996948242 N 0.0 **** 0.0
@<TRIPOS>BOND
1 1 2 1
2 2 3 1
3 2 5 1
4 3 4 1
5 5 6 1
6 6 7 1
7 7 9 1
8 7 8 1
@<TRIPOS>MOLECULE
GLY186
4 3
SMALL
USER_CHARGES


@<TRIPOS>ATOM
1 N 20.5650005340576 14.1020002365112 57.3849983215332 N 0.0 **** 0.0
2 CA 19.6639995574951 13.2919998168945 56.5789985656738 C 0.0 **** 0.0
3 C 19.2719993591309 14.0120000839233 55.2890014648438 C 0.0 **** 0.0
4 O 20.1229991912842 14.5570001602173 54.5890007019043 O 0.0 **** 0.0
@<TRIPOS>BOND
1 1 2 1
2 2 3 1
3 3 4 1
@<TRIPOS>MOLECULE
GLU187
9 8
SMALL
USER_CHARGES


@<TRIPOS>ATOM
1 N 17.9780006408691 14.0200004577637 54.9900016784668 N 0.0 **** 0.0
2 CA 17.5240001678467 14.4840002059937 53.6910018920898 C 0.0 **** 0.0
3 C 17.4710006713867 16.0069999694824 53.6389999389648 C 0.0 **** 0.0
4 O 17.0650005340576 16.6690006256104 54.6049995422363 O 0.0 **** 0.0
5 CB 16.1509990692139 13.8950004577637 53.3950004577637 C 0.0 **** 0.0
6 CG 15.6700000762939 14.1180000305176 51.984001159668 C 0.0 **** 0.0
7 CD 14.2790002822876 13.543999671936 51.7729988098145 C 0.0 **** 0.0
8 OE1 14.173999786377 12.3179998397827 51.5419998168945 O 0.0 **** 0.0
9 OE2 13.2950000762939 14.3140001296997 51.8730010986328 O 0.0 **** 0.0
@<TRIPOS>BOND
1 1 2 1
2 2 3 1
3 2 5 1
4 3 4 1
5 5 6 1
6 6 7 1
7 7 8 1
8 7 9 1
@<TRIPOS>MOLECULE
ASN188
8 7
SMALL
USER_CHARGES


@<TRIPOS>ATOM
1 N 17.9029998779297 16.5580005645752 52.4980010986328 N 0.0 **** 0.0
2 CA 17.8579998016357 17.9829998016357 52.2290000915527 C 0.0 **** 0.0
3 C 17.3759994506836 18.1919994354248 50.8040008544922 C 0.0 **** 0.0
4 O 17.5559997558594 17.3299999237061 49.939998626709 O 0.0 **** 0.0
5 CB 19.2360000610352 18.6429996490479 52.4029998779297 C 0.0 **** 0.0
6 CG 19.69700050354 18.6399993896484 53.8489990234375 C 0.0 **** 0.0
7 OD1 19.4860000610352 19.6089992523193 54.5839996337891 O 0.0 **** 0.0
8 ND2 20.3229999542236 17.5429992675781 54.2680015563965 N 0.0 **** 0.0
@<TRIPOS>BOND
1 1 2 1
2 2 3 1
3 2 5 1
4 3 4 1
5 5 6 1
6 6 8 1
7 6 7 1
@<TRIPOS>MOLECULE
THR189
7 6
SMALL
USER_CHARGES


@<TRIPOS>ATOM
1 N 16.7950000762939 19.3610000610352 50.5540008544922 N 0.0 **** 0.0
2 CA 16.3169994354248 19.7259998321533 49.2200012207031 C 0.0 **** 0.0
3 C 16.9839992523193 21.0069999694824 48.7540016174316 C 0.0 **** 0.0
4 O 16.7870006561279 22.0639991760254 49.359001159668 O 0.0 **** 0.0
5 CB 14.8039999008179 19.9020004272461 49.226001739502 C 0.0 **** 0.0
6 OG1 14.2229995727539 18.6730003356934 49.6220016479492 O 0.0 **** 0.0
7 CG2 14.2740001678467 20.2910003662109 47.8440017700195 C 0.0 **** 0.0
@<TRIPOS>BOND
1 1 2 1
2 2 5 1
3 2 3 1
4 3 4 1
5 5 7 1
6 5 6 1
@<TRIPOS>MOLECULE
LEU190
8 7
SMALL
USER_CHARGES


@<TRIPOS>ATOM
1 N 17.7350006103516 20.9209995269775 47.6559982299805 N 0.0 **** 0.0
2 CA 18.4039993286133 22.0709991455078 47.076000213623 C 0.0 **** 0.0
3 C 17.6219997406006 22.5380001068115 45.8530006408691 C 0.0 **** 0.0
4 O 17.2910003662109 21.7299995422363 44.9799995422363 O 0.0 **** 0.0
5 CB 19.8470001220703 21.7220001220703 46.693000793457 C 0.0 **** 0.0
6 CG 20.6380004882813 22.7919998168945 45.9480018615723 C 0.0 **** 0.0
7 CD1 20.6690006256104 24.0629997253418 46.7439994812012 C 0.0 **** 0.0
8 CD2 22.068000793457 22.3010005950928 45.6419982910156 C 0.0 **** 0.0
@<TRIPOS>BOND
1 1 2 1
2 2 3 1
3 2 5 1
4 3 4 1
5 5 6 1
6 6 8 1
7 6 7 1
@<TRIPOS>MOLECULE
ALA191
5 4
SMALL
USER_CHARGES


@<TRIPOS>ATOM
1 N 17.3390007019043 23.8419990539551 45.7970008850098 N 0.0 **** 0.0
2 CA 16.5620002746582 24.4640007019043 44.734001159668 C 0.0 **** 0.0
3 C 17.3339996337891 25.6520004272461 44.1809997558594 C 0.0 **** 0.0
4 O 17.8150005340576 26.488000869751 44.951000213623 O 0.0 **** 0.0
5 CB 15.1999998092651 24.9330005645752 45.2560005187988 C 0.0 **** 0.0
@<TRIPOS>BOND
1 1 2 1
2 2 5 1
3 2 3 1
4 3 4 1
@<TRIPOS>MOLECULE
VAL192
7 6
SMALL
USER_CHARGES


@<TRIPOS>ATOM
1 N 17.4519996643066 25.7290000915527 42.851001739502 N 0.0 **** 0.0
2 CA 18.1650009155273 26.8159999847412 42.1959991455078 C 0.0 **** 0.0
3 C 17.318000793457 27.3040008544922 41.0299987792969 C 0.0 **** 0.0
4 O 17.0219993591309 26.5370006561279 40.1040000915527 O 0.0 **** 0.0
5 CB 19.5580005645752 26.3920001983643 41.7000007629395 C 0.0 **** 0.0
6 CG1 20.306999206543 27.5820007324219 41.1389999389648 C 0.0 **** 0.0
7 CG2 20.4029998779297 25.7740001678467 42.8219985961914 C 0.0 **** 0.0
@<TRIPOS>BOND
1 1 2 1
2 2 3 1
3 2 5 1
4 3 4 1
5 5 6 1
6 5 7 1
@<TRIPOS>MOLECULE
ARG193
11 10
SMALL
USER_CHARGES


@<TRIPOS>ATOM
1 N 16.943000793457 28.5779991149902 41.0610008239746 N 0.0 **** 0.0
2 CA 16.2900009155273 29.2229995727539 39.9280014038086 C 0.0 **** 0.0
3 C 17.3509998321533 29.9629993438721 39.1290016174316 C 0.0 **** 0.0
4 O 18.0939998626709 30.7859992980957 39.685001373291 O 0.0 **** 0.0
5 CB 15.2019996643066 30.19700050354 40.3689994812012 C 0.0 **** 0.0
6 CG 14.6409997940063 31.0599994659424 39.2330017089844 C 0.0 **** 0.0
7 CD 13.2489995956421 31.6509990692139 39.5540008544922 C 0.0 **** 0.0
8 NE 12.1840000152588 30.6580009460449 39.4249992370605 N 0.0 **** 0.0
9 CZ 10.8979997634888 30.871000289917 39.7140007019043 C 0.0 **** 0.0
10 NH1 10.496000289917 32.056999206543 40.1510009765625 N 0.0 **** 0.0
11 NH2 10.0100002288818 29.886999130249 39.5849990844727 N 0.0 **** 0.0
@<TRIPOS>BOND
1 1 2 1
2 2 5 1
3 2 3 1
4 3 4 1
5 5 6 1
6 6 7 1
7 7 8 1
8 8 9 1
9 9 11 1
10 9 10 1
@<TRIPOS>MOLECULE
VAL194
7 6
SMALL
USER_CHARGES


@<TRIPOS>ATOM
1 N 17.4249992370605 29.6700000762939 37.8359985351563 N 0.0 **** 0.0
2 CA 18.4650001525879 30.2140007019043 36.9799995422363 C 0.0 **** 0.0
3 C 17.8040008544922 31.0149993896484 35.8650016784668 C 0.0 **** 0.0
4 O 16.9930000305176 30.4790000915527 35.1049995422363 O 0.0 **** 0.0
5 CB 19.3570003509521 29.1009998321533 36.4080009460449 C 0.0 **** 0.0
6 CG1 20.423999786377 29.6840000152588 35.5069999694824 C 0.0 **** 0.0
7 CG2 20.0389995574951 28.3190002441406 37.5289993286133 C 0.0 **** 0.0
@<TRIPOS>BOND
1 1 2 1
2 2 5 1
3 2 3 1
4 3 4 1
5 5 7 1
6 5 6 1
@<TRIPOS>MOLECULE
ALA195
5 4
SMALL
USER_CHARGES


@<TRIPOS>ATOM
1 N 18.1609992980957 32.2910003662109 35.7509994506836 N 0.0 **** 0.0
2 CA 17.7099990844727 33.1139984130859 34.6370010375977 C 0.0 **** 0.0
3 C 18.8010005950928 33.1360015869141 33.5769996643066 C 0.0 **** 0.0
4 O 19.9689998626709 33.3880004882813 33.8919982910156 O 0.0 **** 0.0
5 CB 17.3880004882813 34.5400009155273 35.0970001220703 C 0.0 **** 0.0
@<TRIPOS>BOND
1 1 2 1
2 2 3 1
3 2 5 1
4 3 4 1
@<TRIPOS>MOLECULE
GLN196
9 8
SMALL
USER_CHARGES


@<TRIPOS>ATOM
1 N 18.4249992370605 32.8819999694824 32.3209991455078 N 0.0 **** 0.0
2 CA 19.4020004272461 32.9939994812012 31.2509994506836 C 0.0 **** 0.0
3 C 19.9969997406006 34.3969993591309 31.2159996032715 C 0.0 **** 0.0
4 O 21.2210006713867 34.5750007629395 31.25 O 0.0 **** 0.0
5 CB 18.7759990692139 32.6580009460449 29.8920001983643 C 0.0 **** 0.0
6 CG 19.7560005187988 32.9959983825684 28.7689990997314 C 0.0 **** 0.0
7 CD 19.3889999389648 32.4620018005371 27.4060001373291 C 0.0 **** 0.0
8 OE1 18.2609996795654 32.064998626709 27.1399993896484 O 0.0 **** 0.0
9 NE2 20.3770008087158 32.4370002746582 26.5310001373291 N 0.0 **** 0.0
@<TRIPOS>BOND
1 1 2 1
2 2 3 1
3 2 5 1
4 3 4 1
5 5 6 1
6 6 7 1
7 7 9 1
8 7 8 1
@<TRIPOS>MOLECULE
PHE197
11 11
SMALL
USER_CHARGES


@<TRIPOS>ATOM
1 N 19.136999130249 35.4109992980957 31.1119995117188 N 0.0 **** 0.0
2 CA 19.5750007629395 36.7900009155273 30.9829998016357 C 0.0 **** 0.0
3 C 19.3610000610352 37.5429992675781 32.2890014648438 C 0.0 **** 0.0
4 O 18.4220008850098 37.2820014953613 33.0540008544922 O 0.0 **** 0.0
5 CB 18.8379993438721 37.5279998779297 29.8719997406006 C 0.0 **** 0.0
6 CG 18.9820003509521 36.9029998779297 28.5030002593994 C 0.0 **** 0.0
7 CD1 20.2310009002686 36.7550010681152 27.8980007171631 C 0.0 **** 0.0
8 CD2 17.8579998016357 36.4790000915527 27.8059997558594 C 0.0 **** 0.0
9 CE1 20.3479995727539 36.1879997253418 26.6280002593994 C 0.0 **** 0.0
10 CE2 17.9799995422363 35.923999786377 26.5170001983643 C 0.0 **** 0.0
11 CZ 19.2189998626709 35.7709999084473 25.9389991760254 C 0.0 **** 0.0
@<TRIPOS>BOND
1 1 2 1
2 2 5 1
3 2 3 1
4 3 4 1
5 5 6 1
6 6 8 1
7 6 7 1
8 7 9 1
9 8 10 1
10 9 11 1
11 10 11 1
@<TRIPOS>MOLECULE
SER198
6 5
SMALL
USER_CHARGES


@<TRIPOS>ATOM
1 N 20.2600002288818 38.4879989624023 32.523998260498 N 0.0 **** 0.0
2 CA 20.2259998321533 39.351001739502 33.6920013427734 C 0.0 **** 0.0
3 C 21.0200004577637 40.5859985351563 33.3129997253418 C 0.0 **** 0.0
4 O 21.5219993591309 40.6889991760254 32.1969985961914 O 0.0 **** 0.0
5 CB 20.8050003051758 38.6520004272461 34.9150009155273 C 0.0 **** 0.0
6 OG 22.1679992675781 38.3460006713867 34.7070007324219 O 0.0 **** 0.0
@<TRIPOS>BOND
1 1 2 1
2 2 5 1
3 2 3 1
4 3 4 1
5 5 6 1
@<TRIPOS>MOLECULE
ALA199
5 4
SMALL
USER_CHARGES


@<TRIPOS>ATOM
1 N 21.1389999389648 41.5250015258789 34.2470016479492 N 0.0 **** 0.0
2 CA 22.0300006866455 42.6559982299805 34.0 C 0.0 **** 0.0
3 C 23.4409999847412 42.185001373291 33.6780014038086 C 0.0 **** 0.0
4 O 24.1580009460449 42.8320007324219 32.9039993286133 O 0.0 **** 0.0
5 CB 22.05299949646 43.5719985961914 35.2150001525879 C 0.0 **** 0.0
@<TRIPOS>BOND
1 1 2 1
2 2 3 1
3 2 5 1
4 3 4 1
@<TRIPOS>MOLECULE
ALA200
5 4
SMALL
USER_CHARGES


@<TRIPOS>ATOM
1 N 23.8610000610352 41.068000793457 34.2680015563965 N 0.0 **** 0.0
2 CA 25.2040004730225 40.5579986572266 34.0190010070801 C 0.0 **** 0.0
3 C 25.4379997253418 40.1860008239746 32.5519981384277 C 0.0 **** 0.0
4 O 26.5939998626709 40.1640014648438 32.1180000305176 O 0.0 **** 0.0
5 CB 25.4729995727539 39.3279991149902 34.8889999389648 C 0.0 **** 0.0
@<TRIPOS>BOND
1 1 2 1
2 2 5 1
3 2 3 1
4 3 4 1
@<TRIPOS>MOLECULE
SER201
6 5
SMALL
USER_CHARGES


@<TRIPOS>ATOM
1 N 24.3840007781982 39.851001739502 31.8059997558594 N 0.0 **** 0.0
2 CA 24.5419998168945 39.5719985961914 30.371000289917 C 0.0 **** 0.0
3 C 25.2369995117188 40.7159996032715 29.6380004882813 C 0.0 **** 0.0
4 O 25.9689998626709 40.4850006103516 28.6650009155273 O 0.0 **** 0.0
5 CB 23.1679992675781 39.3089981079102 29.7520008087158 C 0.0 **** 0.0
6 OG 22.5259990692139 38.2120018005371 30.371000289917 O 0.0 **** 0.0
@<TRIPOS>BOND
1 1 2 1
2 2 5 1
3 2 3 1
4 3 4 1
5 5 6 1
@<TRIPOS>MOLECULE
TYR202
12 12
SMALL
USER_CHARGES


@<TRIPOS>ATOM
1 N 25.0090007781982 41.9539985656738 30.056999206543 N 0.0 **** 0.0
2 CA 25.6340007781982 43.1380004882813 29.4389991760254 C 0.0 **** 0.0
3 C 27.1520004272461 43.0890007019043 29.5820007324219 C 0.0 **** 0.0
4 O 27.8080005645752 43.7599983215332 28.8390007019043 O 0.0 **** 0.0
5 CB 25.0860004425049 44.4179992675781 30.0520000457764 C 0.0 **** 0.0
6 CG 23.6760005950928 44.7190017700195 29.6439990997314 C 0.0 **** 0.0
7 CD1 23.4039993286133 45.2879981994629 28.4249992370605 C 0.0 **** 0.0
8 CD2 22.6180000305176 44.443000793457 30.4759998321533 C 0.0 **** 0.0
9 CE1 22.1189994812012 45.5960006713867 28.0520000457764 C 0.0 **** 0.0
10 CE2 21.3159999847412 44.7179985046387 30.1079998016357 C 0.0 **** 0.0
11 CZ 21.0629997253418 45.3059997558594 28.8850002288818 C 0.0 **** 0.0
12 OH 19.8010005950928 45.609001159668 28.5020008087158 O 0.0 **** 0.0
@<TRIPOS>BOND
1 1 2 1
2 2 5 1
3 2 3 1
4 3 4 1
5 5 6 1
6 6 8 1
7 6 7 1
8 7 9 1
9 8 10 1
10 9 11 1
11 10 11 1
12 11 12 1
@<TRIPOS>MOLECULE
VAL203
7 6
SMALL
USER_CHARGES


@<TRIPOS>ATOM
1 N 27.6700000762939 42.3349990844727 30.5459995269775 N 0.0 **** 0.0
2 CA 29.1119995117188 42.2589988708496 30.7490005493164 C 0.0 **** 0.0
3 C 29.6350002288818 40.8720016479492 30.4440002441406 C 0.0 **** 0.0
4 O 30.7789993286133 40.5660018920898 30.7749996185303 O 0.0 **** 0.0
5 CB 29.5109996795654 42.7220001220703 32.1669998168945 C 0.0 **** 0.0
6 CG1 29.0839996337891 44.1689987182617 32.3759994506836 C 0.0 **** 0.0
7 CG2 28.9160003662109 41.8219985961914 33.2649993896484 C 0.0 **** 0.0
@<TRIPOS>BOND
1 1 2 1
2 2 3 1
3 2 5 1
4 3 4 1
5 5 7 1
6 5 6 1
@<TRIPOS>MOLECULE
GLU204
9 8
SMALL
USER_CHARGES


@<TRIPOS>ATOM
1 N 28.8320007324219 40.0299987792969 29.7910003662109 N 0.0 **** 0.0
2 CA 29.2240009307861 38.6949996948242 29.3579998016357 C 0.0 **** 0.0
3 C 28.8950004577637 38.5089988708496 27.8659992218018 C 0.0 **** 0.0
4 O 28.1840000152588 37.5859985351563 27.4740009307861 O 0.0 **** 0.0
5 CB 28.5270004272461 37.6430015563965 30.2070007324219 C 0.0 **** 0.0
6 CG 28.9069995880127 37.7939987182617 31.6830005645752 C 0.0 **** 0.0
7 CD 28.2970008850098 36.7540016174316 32.6100006103516 C 0.0 **** 0.0
8 OE1 27.4729995727539 35.9329986572266 32.140998840332 O 0.0 **** 0.0
9 OE2 28.6879997253418 36.7519989013672 33.8170013427734 O 0.0 **** 0.0
@<TRIPOS>BOND
1 1 2 1
2 2 5 1
3 2 3 1
4 3 4 1
5 5 6 1
6 6 7 1
7 7 8 1
8 7 9 1
@<TRIPOS>MOLECULE
ASP205
8 7
SMALL
USER_CHARGES


@<TRIPOS>ATOM
1 N 29.3600006103516 39.4329986572266 27.0349998474121 N 0.0 **** 0.0
2 CA 29.0669994354248 39.4420013427734 25.5909996032715 C 0.0 **** 0.0
3 C 30.181999206543 38.7900009155273 24.7770004272461 C 0.0 **** 0.0
4 O 30.5240001678467 39.2610015869141 23.6700000762939 O 0.0 **** 0.0
5 CB 28.8279991149902 40.8660011291504 25.0900001525879 C 0.0 **** 0.0
6 CG 28.2479991912842 40.9080009460449 23.6439990997314 C 0.0 **** 0.0
7 OD1 27.5240001678467 39.9560012817383 23.2439994812012 O 0.0 **** 0.0
8 OD2 28.55299949646 41.8849983215332 22.9060001373291 O 0.0 **** 0.0
@<TRIPOS>BOND
1 1 2 1
2 2 3 1
3 2 5 1
4 3 4 1
5 5 6 1
6 6 8 1
7 6 7 1
@<TRIPOS>MOLECULE
GLN206
9 8
SMALL
USER_CHARGES


@<TRIPOS>ATOM
1 N 30.7759990692139 37.7200012207031 25.2959995269775 N 0.0 **** 0.0
2 CA 31.7870006561279 36.9729995727539 24.548999786377 C 0.0 **** 0.0
3 C 31.2189998626709 36.4339981079102 23.2320003509521 C 0.0 **** 0.0
4 O 30.0300006866455 36.0900001525879 23.1079998016357 O 0.0 **** 0.0
5 CB 32.3129997253418 35.8050003051758 25.3929996490479 C 0.0 **** 0.0
6 CG 33.148998260498 36.193000793457 26.6359996795654 C 0.0 **** 0.0
7 CD 32.3580017089844 36.4739990234375 27.9060001373291 C 0.0 **** 0.0
8 OE1 31.1280002593994 36.6030006408691 27.8889999389648 O 0.0 **** 0.0
9 NE2 33.0979995727539 36.6679992675781 29.0160007476807 N 0.0 **** 0.0
@<TRIPOS>BOND
1 1 2 1
2 2 5 1
3 2 3 1
4 3 4 1
5 5 6 1
6 6 7 1
7 7 8 1
8 7 9 1
@<TRIPOS>MOLECULE
ASP207
8 7
SMALL
USER_CHARGES


@<TRIPOS>ATOM
1 N 32.0960006713867 36.351001739502 22.2369995117188 N 0.0 **** 0.0
2 CA 31.7870006561279 35.7569999694824 20.9360008239746 C 0.0 **** 0.0
3 C 31.7630004882813 34.2280006408691 21.0919990539551 C 0.0 **** 0.0
4 O 32.7910003662109 33.564998626709 21.0170001983643 O 0.0 **** 0.0
5 CB 32.8320007324219 36.2200012207031 19.931999206543 C 0.0 **** 0.0
6 CG 32.7669982910156 35.4640007019043 18.6149997711182 C 0.0 **** 0.0
7 OD1 31.7019996643066 34.8779983520508 18.3390007019043 O 0.0 **** 0.0
8 OD2 33.7779998779297 35.4720001220703 17.8719997406006 O 0.0 **** 0.0
@<TRIPOS>BOND
1 1 2 1
2 2 3 1
3 2 5 1
4 3 4 1
5 5 6 1
6 6 7 1
7 6 8 1
@<TRIPOS>MOLECULE
MET208
8 7
SMALL
USER_CHARGES


@<TRIPOS>ATOM
1 N 30.5699996948242 33.6570014953613 21.306999206543 N 0.0 **** 0.0
2 CA 30.3799991607666 32.2439994812012 21.6679992675781 C 0.0 **** 0.0
3 C 28.8799991607666 31.9839992523193 21.7840003967285 C 0.0 **** 0.0
4 O 28.0930004119873 32.9169998168945 21.6180000305176 O 0.0 **** 0.0
5 CB 31.0909996032715 31.8910007476807 22.9820003509521 C 0.0 **** 0.0
6 CG 30.5170001983643 32.5559997558594 24.2199993133545 C 0.0 **** 0.0
7 SD 31.5400009155273 32.1619987487793 25.6770000457764 S 0.0 **** 0.0
8 CE 30.5370006561279 32.8580017089844 26.9890003204346 C 0.0 **** 0.0
@<TRIPOS>BOND
1 1 2 1
2 2 3 1
3 2 5 1
4 3 4 1
5 5 6 1
6 6 7 1
7 7 8 1
@<TRIPOS>MOLECULE
TRP209
14 15
SMALL
USER_CHARGES


@<TRIPOS>ATOM
1 N 28.4680004119873 30.7390003204346 22.0450000762939 N 0.0 **** 0.0
2 CA 27.0650005340576 30.4290008544922 22.2290000915527 C 0.0 **** 0.0
3 C 26.5550003051758 30.9950008392334 23.5480003356934 C 0.0 **** 0.0
4 O 27.2250003814697 30.8929996490479 24.5779991149902 O 0.0 **** 0.0
5 CB 26.8349990844727 28.9130001068115 22.2280006408691 C 0.0 **** 0.0
6 CG 27.1660003662109 28.2310009002686 20.9249992370605 C 0.0 **** 0.0
7 CD1 28.3379993438721 27.5779991149902 20.6019992828369 C 0.0 **** 0.0
8 CD2 26.3169994354248 28.1280002593994 19.7730007171631 C 0.0 **** 0.0
9 NE1 28.2569999694824 27.0860004425049 19.3290004730225 N 0.0 **** 0.0
10 CE2 27.0330009460449 27.4139995574951 18.7959995269775 C 0.0 **** 0.0
11 CE3 25.0130004882813 28.5629997253418 19.4820003509521 C 0.0 **** 0.0
12 CZ2 26.5009994506836 27.1299991607666 17.548999786377 C 0.0 **** 0.0
13 CZ3 24.4950008392334 28.3050003051758 18.2390003204346 C 0.0 **** 0.0
14 CH2 25.2320003509521 27.5830001831055 17.2830009460449 C 0.0 **** 0.0
@<TRIPOS>BOND
1 1 2 1
2 2 3 1
3 2 5 1
4 3 4 1
5 5 6 1
6 6 7 1
7 6 8 1
8 7 9 1
9 8 11 1
10 8 10 1
11 9 10 1
12 10 12 1
13 11 13 1
14 12 14 1
15 13 14 1
@<TRIPOS>MOLECULE
TRP210
14 15
SMALL
USER_CHARGES


@<TRIPOS>ATOM
1 N 25.3479995727539 31.5629997253418 23.5149993896484 N 0.0 **** 0.0
2 CA 24.5869998931885 31.8209991455078 24.7339992523193 C 0.0 **** 0.0
3 C 23.9969997406006 30.5 25.2399997711182 C 0.0 **** 0.0
4 O 23.181999206543 29.8759994506836 24.5550003051758 O 0.0 **** 0.0
5 CB 23.4820003509521 32.8569984436035 24.4820003509521 C 0.0 **** 0.0
6 CG 23.9790000915527 34.2190017700195 23.9979991912842 C 0.0 **** 0.0
7 CD1 24.1219997406006 34.6180000305176 22.6959991455078 C 0.0 **** 0.0
8 CD2 24.3700008392334 35.3499984741211 24.8050003051758 C 0.0 **** 0.0
9 NE1 24.6009998321533 35.9039993286133 22.6439990997314 N 0.0 **** 0.0
10 CE2 24.757999420166 36.3769989013672 23.9249992370605 C 0.0 **** 0.0
11 CE3 24.4330005645752 35.5870018005371 26.1860008239746 C 0.0 **** 0.0
12 CZ2 25.201000213623 37.6269989013672 24.3759994506836 C 0.0 **** 0.0
13 CZ3 24.8920001983643 36.8440017700195 26.6310005187988 C 0.0 **** 0.0
14 CH2 25.2649993896484 37.8300018310547 25.7290000915527 C 0.0 **** 0.0
@<TRIPOS>BOND
1 1 2 1
2 2 5 1
3 2 3 1
4 3 4 1
5 5 6 1
6 6 8 1
7 6 7 1
8 7 9 1
9 8 11 1
10 8 10 1
11 9 10 1
12 10 12 1
13 11 13 1
14 12 14 1
15 13 14 1
@<TRIPOS>MOLECULE
LEU211
8 7
SMALL
USER_CHARGES


@<TRIPOS>ATOM
1 N 24.4080009460449 30.0699996948242 26.4340000152588 N 0.0 **** 0.0
2 CA 24.007999420166 28.7770004272461 26.9860000610352 C 0.0 **** 0.0
3 C 23.75 28.9029998779297 28.4799995422363 C 0.0 **** 0.0
4 O 24.69700050354 28.8470001220703 29.2719993591309 O 0.0 **** 0.0
5 CB 25.0849990844727 27.7189998626709 26.7450008392334 C 0.0 **** 0.0
6 CG 25.3400001525879 27.3579998016357 25.2800006866455 C 0.0 **** 0.0
7 CD1 26.613000869751 26.5219993591309 25.201000213623 C 0.0 **** 0.0
8 CD2 24.1529998779297 26.6000003814697 24.7129993438721 C 0.0 **** 0.0
@<TRIPOS>BOND
1 1 2 1
2 2 3 1
3 2 5 1
4 3 4 1
5 5 6 1
6 6 8 1
7 6 7 1
@<TRIPOS>MOLECULE
PRO212
7 7
SMALL
USER_CHARGES


@<TRIPOS>ATOM
1 N 22.5009994506836 29.0839996337891 28.9020004272461 N 0.0 **** 0.0
2 CA 22.2029991149902 29.1030006408691 30.3339996337891 C 0.0 **** 0.0
3 C 22.3740005493164 27.7180004119873 30.9570007324219 C 0.0 **** 0.0
4 O 22.3040008544922 26.6800003051758 30.2840003967285 O 0.0 **** 0.0
5 CB 20.7350006103516 29.5450000762939 30.382999420166 C 0.0 **** 0.0
6 CG 20.1650009155273 29.0669994354248 29.0349998474121 C 0.0 **** 0.0
7 CD 21.3020000457764 29.2840003967285 28.0709991455078 C 0.0 **** 0.0
@<TRIPOS>BOND
1 1 2 1
2 1 7 1
3 2 5 1
4 2 3 1
5 3 4 1
6 5 6 1
7 6 7 1
@<TRIPOS>MOLECULE
GLY213
4 3
SMALL
USER_CHARGES


@<TRIPOS>ATOM
1 N 22.6219997406006 27.7099990844727 32.2550010681152 N 0.0 **** 0.0
2 CA 22.6119995117188 26.4529991149902 32.984001159668 C 0.0 **** 0.0
3 C 23.4969997406006 26.4930000305176 34.2150001525879 C 0.0 **** 0.0
4 O 24.2999992370605 27.4150009155273 34.4259986877441 O 0.0 **** 0.0
@<TRIPOS>BOND
1 1 2 1
2 2 3 1
3 3 4 1
@<TRIPOS>MOLECULE
ILE214
8 7
SMALL
USER_CHARGES


@<TRIPOS>ATOM
1 N 23.306999206543 25.4699993133545 35.0509986877441 N 0.0 **** 0.0
2 CA 24.2479991912842 25.1219997406006 36.1220016479492 C 0.0 **** 0.0
3 C 25.2590007781982 24.1909999847412 35.4570007324219 C 0.0 **** 0.0
4 O 25.076000213623 22.9769992828369 35.4090003967285 O 0.0 **** 0.0
5 CB 23.5459995269775 24.4650001525879 37.3120002746582 C 0.0 **** 0.0
6 CG1 22.3430004119873 25.3080005645752 37.773998260498 C 0.0 **** 0.0
7 CG2 24.5790004730225 24.2210006713867 38.4650001525879 C 0.0 **** 0.0
8 CD1 21.6200008392334 24.7649993896484 39.0709991455078 C 0.0 **** 0.0
@<TRIPOS>BOND
1 1 2 1
2 2 5 1
3 2 3 1
4 3 4 1
5 5 6 1
6 5 7 1
7 6 8 1
@<TRIPOS>MOLECULE
PHE215
11 11
SMALL
USER_CHARGES


@<TRIPOS>ATOM
1 N 26.3099994659424 24.7789993286133 34.8800010681152 N 0.0 **** 0.0
2 CA 27.1760005950928 24.0909996032715 33.9269981384277 C 0.0 **** 0.0
3 C 28.5069999694824 23.6560001373291 34.5270004272461 C 0.0 **** 0.0
4 O 29.3430004119873 23.1009998321533 33.8050003051758 O 0.0 **** 0.0
5 CB 27.4099998474121 24.9869995117188 32.681999206543 C 0.0 **** 0.0
6 CG 28.2439994812012 26.2029991149902 32.9679985046387 C 0.0 **** 0.0
7 CD1 27.6650009155273 27.3500003814697 33.5149993896484 C 0.0 **** 0.0
8 CD2 29.6100006103516 26.1900005340576 32.7379989624023 C 0.0 **** 0.0
9 CE1 28.42799949646 28.44700050354 33.8250007629395 C 0.0 **** 0.0
10 CE2 30.3850002288818 27.3150005340576 33.0309982299805 C 0.0 **** 0.0
11 CZ 29.7800006866455 28.4270000457764 33.5940017700195 C 0.0 **** 0.0
@<TRIPOS>BOND
1 1 2 1
2 2 3 1
3 2 5 1
4 3 4 1
5 5 6 1
6 6 8 1
7 6 7 1
8 7 9 1
9 8 10 1
10 9 11 1
11 10 11 1
@<TRIPOS>MOLECULE
ARG216
11 10
SMALL
USER_CHARGES


@<TRIPOS>ATOM
1 N 28.7229995727539 23.8659992218018 35.8330001831055 N 0.0 **** 0.0
2 CA 29.8659992218018 23.30299949646 36.5419998168945 C 0.0 **** 0.0
3 C 29.4029998779297 22.757999420166 37.8889999389648 C 0.0 **** 0.0
4 O 28.257999420166 22.943000793457 38.3050003051758 O 0.0 **** 0.0
5 CB 30.9820003509521 24.3309993743896 36.7620010375977 C 0.0 **** 0.0
6 CG 31.636999130249 24.8250007629395 35.4420013427734 C 0.0 **** 0.0
7 CD 32.7389984130859 25.7679996490479 35.7680015563965 C 0.0 **** 0.0
8 NE 33.4000015258789 26.318000793457 34.5880012512207 N 0.0 **** 0.0
9 CZ 33.9630012512207 27.5200004577637 34.5779991149902 C 0.0 **** 0.0
10 NH1 33.9570007324219 28.25 35.6940002441406 N 0.0 **** 0.0
11 NH2 34.5449981689453 27.9810009002686 33.476001739502 N 0.0 **** 0.0
@<TRIPOS>BOND
1 1 2 1
2 2 3 1
3 2 5 1
4 3 4 1
5 5 6 1
6 6 7 1
7 7 8 1
8 8 9 1
9 9 10 1
10 9 11 1
@<TRIPOS>MOLECULE
ASP217
8 7
SMALL
USER_CHARGES


@<TRIPOS>ATOM
1 N 30.3540000915527 22.1259994506836 38.568000793457 N 0.0 **** 0.0
2 CA 30.1100006103516 21.3020000457764 39.7369995117188 C 0.0 **** 0.0
3 C 29.2719993591309 22.0020008087158 40.7980003356934 C 0.0 **** 0.0
4 O 29.3859996795654 23.2070007324219 41.0309982299805 O 0.0 **** 0.0
5 CB 31.4309997558594 20.9139995574951 40.3769989013672 C 0.0 **** 0.0
6 CG 32.2550010681152 20.0170001983643 39.5229988098145 C 0.0 **** 0.0
7 OD1 31.7590007781982 18.988000869751 39.0550003051758 O 0.0 **** 0.0
8 OD2 33.4389991760254 20.3409996032715 39.3520011901855 O 0.0 **** 0.0
@<TRIPOS>BOND
1 1 2 1
2 2 5 1
3 2 3 1
4 3 4 1
5 5 6 1
6 6 8 1
7 6 7 1
@<TRIPOS>MOLECULE
VAL218
7 6
SMALL
USER_CHARGES


@<TRIPOS>ATOM
1 N 28.4850006103516 21.1909999847412 41.4970016479492 N 0.0 **** 0.0
2 CA 27.8150005340576 21.5739994049072 42.7299995422363 C 0.0 **** 0.0
3 C 28.3460006713867 20.6520004272461 43.806999206543 C 0.0 **** 0.0
4 O 28.2770004272461 19.4220008850098 43.6650009155273 O 0.0 **** 0.0
5 CB 26.2779998779297 21.4659996032715 42.6110000610352 C 0.0 **** 0.0
6 CG1 25.5900001525879 21.9750003814697 43.8740005493164 C 0.0 **** 0.0
7 CG2 25.7609996795654 22.2689990997314 41.4059982299805 C 0.0 **** 0.0
@<TRIPOS>BOND
1 1 2 1
2 2 5 1
3 2 3 1
4 3 4 1
5 5 7 1
6 5 6 1
@<TRIPOS>MOLECULE
THR219
7 6
SMALL
USER_CHARGES


@<TRIPOS>ATOM
1 N 28.8589992523193 21.2360000610352 44.8880004882813 N 0.0 **** 0.0
2 CA 29.5419998168945 20.4619998931885 45.9119987487793 C 0.0 **** 0.0
3 C 29.1259994506836 20.8959999084473 47.3089981079102 C 0.0 **** 0.0
4 O 29.0170001983643 22.0919990539551 47.5929985046387 O 0.0 **** 0.0
5 CB 31.0510005950928 20.6159992218018 45.7809982299805 C 0.0 **** 0.0
6 OG1 31.4179992675781 20.3540000915527 44.4370002746582 O 0.0 **** 0.0
7 CG2 31.7719993591309 19.636999130249 46.6879997253418 C 0.0 **** 0.0
@<TRIPOS>BOND
1 1 2 1
2 2 3 1
3 2 5 1
4 3 4 1
5 5 7 1
6 5 6 1
@<TRIPOS>MOLECULE
LEU220
8 7
SMALL
USER_CHARGES


@<TRIPOS>ATOM
1 N 28.9080009460449 19.9039993286133 48.173999786377 N 0.0 **** 0.0
2 CA 28.753999710083 20.1009998321533 49.6129989624023 C 0.0 **** 0.0
3 C 30.0909996032715 19.8099994659424 50.2840003967285 C 0.0 **** 0.0
4 O 30.6720008850098 18.7329998016357 50.0800018310547 O 0.0 **** 0.0
5 CB 27.6809997558594 19.1770000457764 50.1800003051758 C 0.0 **** 0.0
6 CG 27.4099998474121 19.2639999389648 51.693000793457 C 0.0 **** 0.0
7 CD1 26.7520008087158 20.5930004119873 52.0449981689453 C 0.0 **** 0.0
8 CD2 26.5510005950928 18.0869998931885 52.1829986572266 C 0.0 **** 0.0
@<TRIPOS>BOND
1 1 2 1
2 2 5 1
3 2 3 1
4 3 4 1
5 5 6 1
6 6 7 1
7 6 8 1
@<TRIPOS>MOLECULE
GLN221
9 8
SMALL
USER_CHARGES


@<TRIPOS>ATOM
1 N 30.5919990539551 20.7779998779297 51.0480003356934 N 0.0 **** 0.0
2 CA 31.8780002593994 20.6420001983643 51.7210006713867 C 0.0 **** 0.0
3 C 31.7070007324219 20.9099998474121 53.2050018310547 C 0.0 **** 0.0
4 O 31.2159996032715 21.9740009307861 53.6059989929199 O 0.0 **** 0.0
5 CB 32.9189987182617 21.6070003509521 51.1529998779297 C 0.0 **** 0.0
6 CG 34.3470001220703 21.2479991912842 51.5260009765625 C 0.0 **** 0.0
7 CD 35.367000579834 22.2919998168945 51.1040000915527 C 0.0 **** 0.0
8 OE1 35.0690002441406 23.4780006408691 51.0419998168945 O 0.0 **** 0.0
9 NE2 36.5779991149902 21.8509998321533 50.8230018615723 N 0.0 **** 0.0
@<TRIPOS>BOND
1 1 2 1
2 2 5 1
3 2 3 1
4 3 4 1
5 5 6 1
6 6 7 1
7 7 8 1
8 7 9 1
@<TRIPOS>MOLECULE
ALA222
5 4
SMALL
USER_CHARGES


@<TRIPOS>ATOM
1 N 32.1459999084473 19.9640007019043 54.0019989013672 N 0.0 **** 0.0
2 CA 32.2360000610352 20.1760005950928 55.4300003051758 C 0.0 **** 0.0
3 C 33.3110008239746 21.2129993438721 55.7120018005371 C 0.0 **** 0.0
4 O 34.3310012817383 21.2730007171631 55.0180015563965 O 0.0 **** 0.0
5 CB 32.5769996643066 18.8649997711182 56.1240005493164 C 0.0 **** 0.0
@<TRIPOS>BOND
1 1 2 1
2 2 3 1
3 2 5 1
4 3 4 1
@<TRIPOS>MOLECULE
ARG223
11 10
SMALL
USER_CHARGES


@<TRIPOS>ATOM
1 N 33.0859985351563 22.0230007171631 56.7569999694824 N 0.0 **** 0.0
2 CA 34.048999786377 23.0289993286133 57.2099990844727 C 0.0 **** 0.0
3 C 34.4099998474121 22.7220001220703 58.6599998474121 C 0.0 **** 0.0
4 O 33.8779983520508 23.3490009307861 59.5929985046387 O 0.0 **** 0.0
5 CB 33.4959983825684 24.4479999542236 57.0470008850098 C 0.0 **** 0.0
6 CG 32.9560012817383 24.7600002288818 55.6500015258789 C 0.0 **** 0.0
7 CD 33.9500007629395 24.4540004730225 54.5069999694824 C 0.0 **** 0.0
8 NE 35.2350006103516 25.1590003967285 54.6399993896484 N 0.0 **** 0.0
9 CZ 36.4410018920898 24.5799999237061 54.625 C 0.0 **** 0.0
10 NH1 36.5820007324219 23.2609996795654 54.4860000610352 N 0.0 **** 0.0
11 NH2 37.523998260498 25.3299999237061 54.7519989013672 N 0.0 **** 0.0
@<TRIPOS>BOND
1 1 2 1
2 2 5 1
3 2 3 1
4 3 4 1
5 5 6 1
6 6 7 1
7 7 8 1
8 8 9 1
9 9 11 1
10 9 10 1
@<TRIPOS>MOLECULE
PRO224
7 7
SMALL
USER_CHARGES


@<TRIPOS>ATOM
1 N 35.3009986877441 21.7479991912842 58.8849983215332 N 0.0 **** 0.0
2 CA 35.6969985961914 21.4020004272461 60.2550010681152 C 0.0 **** 0.0
3 C 36.2939987182617 22.5769996643066 61.0099983215332 C 0.0 **** 0.0
4 O 36.9560012817383 23.4400005340576 60.4389991760254 O 0.0 **** 0.0
5 CB 36.7470016479492 20.2929992675781 60.060001373291 C 0.0 **** 0.0
6 CG 36.5620002746582 19.8059997558594 58.6300010681152 C 0.0 **** 0.0
7 CD 35.9990005493164 20.9340000152588 57.8650016784668 C 0.0 **** 0.0
@<TRIPOS>BOND
1 1 7 1
2 1 2 1
3 2 5 1
4 2 3 1
5 3 4 1
6 5 6 1
7 6 7 1
@<TRIPOS>MOLECULE
ALA225
5 4
SMALL
USER_CHARGES


@<TRIPOS>ATOM
1 N 36.1230010986328 22.5380001068115 62.3390007019043 N 0.0 **** 0.0
2 CA 36.7270011901855 23.5330009460449 63.2109985351563 C 0.0 **** 0.0
3 C 38.242000579834 23.4720001220703 63.0870018005371 C 0.0 **** 0.0
4 O 38.8199996948242 22.4230003356934 62.8170013427734 O 0.0 **** 0.0
5 CB 36.2939987182617 23.2889995574951 64.677001953125 C 0.0 **** 0.0
@<TRIPOS>BOND
1 1 2 1
2 2 3 1
3 2 5 1
4 3 4 1
@<TRIPOS>MOLECULE
ALA226
5 4
SMALL
USER_CHARGES


@<TRIPOS>ATOM
1 N 38.890998840332 24.6149997711182 63.2589988708496 N 0.0 **** 0.0
2 CA 40.351001739502 24.6700000762939 63.2179985046387 C 0.0 **** 0.0
3 C 40.8629989624023 24.2689990997314 61.8460006713867 C 0.0 **** 0.0
4 O 41.8899993896484 23.5990009307861 61.7150001525879 O 0.0 **** 0.0
5 CB 40.9739990234375 23.7810001373291 64.2919998168945 C 0.0 **** 0.0
@<TRIPOS>BOND
1 1 2 1
2 2 5 1
3 2 3 1
4 3 4 1
@<TRIPOS>MOLECULE
GLY227
4 3
SMALL
USER_CHARGES


@<TRIPOS>ATOM
1 N 40.1110000610352 24.6529998779297 60.826000213623 N 0.0 **** 0.0
2 CA 40.4259986877441 24.3460006713867 59.4529991149902 C 0.0 **** 0.0
3 C 41.1539993286133 25.4780006408691 58.7750015258789 C 0.0 **** 0.0
4 O 41.7019996643066 26.3810005187988 59.4179992675781 O 0.0 **** 0.0
@<TRIPOS>BOND
1 1 2 1
2 2 3 1
3 3 4 1
@<TRIPOS>MOLECULE
ILE228
8 7
SMALL
USER_CHARGES


@<TRIPOS>ATOM
1 N 41.1520004272461 25.4260005950928 57.4449996948242 N 0.0 **** 0.0
2 CA 41.8339996337891 26.3850002288818 56.5960006713867 C 0.0 **** 0.0
3 C 40.8520011901855 26.8059997558594 55.5219993591309 C 0.0 **** 0.0
4 O 40.4210014343262 25.9689998626709 54.7239990234375 O 0.0 **** 0.0
5 CB 43.0880012512207 25.7800006866455 55.939998626709 C 0.0 **** 0.0
6 CG1 44.0670013427734 25.2740001678467 56.9980010986328 C 0.0 **** 0.0
7 CG2 43.75 26.7919998168945 55.0299987792969 C 0.0 **** 0.0
8 CD1 45.1749992370605 24.4009990692139 56.423999786377 C 0.0 **** 0.0
@<TRIPOS>BOND
1 1 2 1
2 2 3 1
3 2 5 1
4 3 4 1
5 5 6 1
6 5 7 1
7 6 8 1
@<TRIPOS>MOLECULE
ASP229
8 7
SMALL
USER_CHARGES


@<TRIPOS>ATOM
1 N 40.5130004882813 28.0909996032715 55.4749984741211 N 0.0 **** 0.0
2 CA 39.6549987792969 28.5590000152588 54.382999420166 C 0.0 **** 0.0
3 C 40.4379997253418 28.9549999237061 53.1419982910156 C 0.0 **** 0.0
4 O 40.0559997558594 28.5960006713867 52.0279998779297 O 0.0 **** 0.0
5 CB 38.7890014648438 29.7290000915527 54.8520011901855 C 0.0 **** 0.0
6 CG 37.757999420166 29.2959995269775 55.8800010681152 C 0.0 **** 0.0
7 OD1 37.3370018005371 28.1159992218018 55.8639984130859 O 0.0 **** 0.0
8 OD2 37.4049987792969 30.117000579834 56.7400016784668 O 0.0 **** 0.0
@<TRIPOS>BOND
1 1 2 1
2 2 3 1
3 2 5 1
4 3 4 1
5 5 6 1
6 6 8 1
7 6 7 1
@<TRIPOS>MOLECULE
ASP230
8 7
SMALL
USER_CHARGES


@<TRIPOS>ATOM
1 N 41.5419998168945 29.6669998168945 53.2869987487793 N 0.0 **** 0.0
2 CA 42.2430000305176 30.1280002593994 52.1030006408691 C 0.0 **** 0.0
3 C 43.7350006103516 29.943000793457 52.2879981994629 C 0.0 **** 0.0
4 O 44.2459983825684 29.9050006866455 53.4199981689453 O 0.0 **** 0.0
5 CB 41.9210014343262 31.5790004730225 51.7999992370605 C 0.0 **** 0.0
6 CG 42.1290016174316 31.9270000457764 50.3300018310547 C 0.0 **** 0.0
7 OD1 42.3219985961914 31.0330009460449 49.4819984436035 O 0.0 **** 0.0
8 OD2 42.0800018310547 33.1160011291504 50.0120010375977 O 0.0 **** 0.0
@<TRIPOS>BOND
1 1 2 1
2 2 3 1
3 2 5 1
4 3 4 1
5 5 6 1
6 6 8 1
7 6 7 1
@<TRIPOS>MOLECULE
VAL231
7 6
SMALL
USER_CHARGES


@<TRIPOS>ATOM
1 N 44.4179992675781 29.8090000152588 51.1570014953613 N 0.0 **** 0.0
2 CA 45.8660011291504 29.6630001068115 51.0979995727539 C 0.0 **** 0.0
3 C 46.3580017089844 30.5160007476807 49.9490013122559 C 0.0 **** 0.0
4 O 45.7290000915527 30.568000793457 48.8800010681152 O 0.0 **** 0.0
5 CB 46.2910003662109 28.1979999542236 50.8849983215332 C 0.0 **** 0.0
6 CG1 47.8019981384277 28.1089992523193 50.7089996337891 C 0.0 **** 0.0
7 CG2 45.8650016784668 27.3369998931885 52.0870018005371 C 0.0 **** 0.0
@<TRIPOS>BOND
1 1 2 1
2 2 5 1
3 2 3 1
4 3 4 1
5 5 6 1
6 5 7 1
@<TRIPOS>MOLECULE
PHE232
11 11
SMALL
USER_CHARGES


@<TRIPOS>ATOM
1 N 47.4980010986328 31.1669998168945 50.1500015258789 N 0.0 **** 0.0
2 CA 48.1370010375977 31.9449996948242 49.0880012512207 C 0.0 **** 0.0
3 C 49.6040000915527 31.5459995269775 49.0279998779297 C 0.0 **** 0.0
4 O 50.382999420166 31.9099998474121 49.9220008850098 O 0.0 **** 0.0
5 CB 47.9640007019043 33.4480018615723 49.3460006713867 C 0.0 **** 0.0
6 CG 48.2150001525879 34.3209991455078 48.1510009765625 C 0.0 **** 0.0
7 CD1 48.8009986877441 33.8129997253418 47.0209999084473 C 0.0 **** 0.0
8 CD2 47.8479995727539 35.6510009765625 48.1660003662109 C 0.0 **** 0.0
9 CE1 49.007999420166 34.6209983825684 45.9070014953613 C 0.0 **** 0.0
10 CE2 48.068000793457 36.4659996032715 47.0779991149902 C 0.0 **** 0.0
11 CZ 48.648998260498 35.9739990234375 45.9580001831055 C 0.0 **** 0.0
@<TRIPOS>BOND
1 1 2 1
2 2 3 1
3 2 5 1
4 3 4 1
5 5 6 1
6 6 8 1
7 6 7 1
8 7 9 1
9 8 10 1
10 9 11 1
11 10 11 1
@<TRIPOS>MOLECULE
VAL233
7 6
SMALL
USER_CHARGES


@<TRIPOS>ATOM
1 N 49.9599990844727 30.7740001678467 47.9930000305176 N 0.0 **** 0.0
2 CA 51.3250007629395 30.3279991149902 47.7470016479492 C 0.0 **** 0.0
3 C 52.1030006408691 31.4389991760254 47.0540008544922 C 0.0 **** 0.0
4 O 51.6829986572266 31.9519996643066 45.9980010986328 O 0.0 **** 0.0
5 CB 51.3339996337891 29.056999206543 46.8699989318848 C 0.0 **** 0.0
6 CG1 52.757999420166 28.6520004272461 46.5330009460449 C 0.0 **** 0.0
7 CG2 50.6059989929199 27.9050006866455 47.5419998168945 C 0.0 **** 0.0
@<TRIPOS>BOND
1 1 2 1
2 2 5 1
3 2 3 1
4 3 4 1
5 5 7 1
6 5 6 1
@<TRIPOS>MOLECULE
HIS234
10 10
SMALL
USER_CHARGES


@<TRIPOS>ATOM
1 N 53.2610015869141 31.7759990692139 47.6139984130859 N 0.0 **** 0.0
2 CA 54.2599983215332 32.6160011291504 46.9620018005371 C 0.0 **** 0.0
3 C 55.5270004272461 31.7859992980957 46.7960014343262 C 0.0 **** 0.0
4 O 56.1399993896484 31.3700008392334 47.7789993286133 O 0.0 **** 0.0
5 CB 54.5439987182617 33.867000579834 47.7770004272461 C 0.0 **** 0.0
6 CG 53.298999786377 34.5620002746582 48.234001159668 C 0.0 **** 0.0
7 ND1 52.6339988708496 35.4749984741211 47.4539985656738 N 0.0 **** 0.0
8 CD2 52.5660018920898 34.4259986877441 49.3569984436035 C 0.0 **** 0.0
9 CE1 51.5610008239746 35.9080009460449 48.0929985046387 C 0.0 **** 0.0
10 NE2 51.4959983825684 35.2809982299805 49.2519989013672 N 0.0 **** 0.0
@<TRIPOS>BOND
1 1 2 1
2 2 3 1
3 2 5 1
4 3 4 1
5 5 6 1
6 6 8 1
7 6 7 1
8 7 9 1
9 8 10 1
10 9 10 1
@<TRIPOS>MOLECULE
ALA235
5 4
SMALL
USER_CHARGES


@<TRIPOS>ATOM
1 N 55.9140014648438 31.5270004272461 45.5530014038086 N 0.0 **** 0.0
2 CA 57.048999786377 30.6439990997314 45.2859992980957 C 0.0 **** 0.0
3 C 57.8580017089844 31.2709999084473 44.1599998474121 C 0.0 **** 0.0
4 O 57.5779991149902 31.0450000762939 42.9830017089844 O 0.0 **** 0.0
5 CB 56.5769996643066 29.2520008087158 44.9440002441406 C 0.0 **** 0.0
@<TRIPOS>BOND
1 1 2 1
2 2 5 1
3 2 3 1
4 3 4 1
@<TRIPOS>MOLECULE
GLY236
4 3
SMALL
USER_CHARGES


@<TRIPOS>ATOM
1 N 58.8089981079102 32.1100006103516 44.5260009765625 N 0.0 **** 0.0
2 CA 59.6389999389648 32.7849998474121 43.5530014038086 C 0.0 **** 0.0
3 C 60.9329986572266 32.0019989013672 43.2820014953613 C 0.0 **** 0.0
4 O 61.2389984130859 31.0359992980957 43.9630012512207 O 0.0 **** 0.0
@<TRIPOS>BOND
1 1 2 1
2 2 3 1
3 3 4 1
@<TRIPOS>MOLECULE
TYR237
12 12
SMALL
USER_CHARGES


@<TRIPOS>ATOM
1 N 61.6500015258789 32.423999786377 42.242000579834 N 0.0 **** 0.0
2 CA 62.898998260498 31.7980003356934 41.8549995422363 C 0.0 **** 0.0
3 C 63.9440002441406 32.882999420166 41.6619987487793 C 0.0 **** 0.0
4 O 63.7319984436035 33.8190002441406 40.8810005187988 O 0.0 **** 0.0
5 CB 62.7190017700195 30.9720001220703 40.556999206543 C 0.0 **** 0.0
6 CG 63.9650001525879 30.2719993591309 40.109001159668 C 0.0 **** 0.0
7 CD1 64.5419998168945 29.257999420166 40.8930015563965 C 0.0 **** 0.0
8 CD2 64.588996887207 30.6299991607666 38.9210014343262 C 0.0 **** 0.0
9 CE1 65.6949996948242 28.6189994812012 40.4949989318848 C 0.0 **** 0.0
10 CE2 65.7529983520508 29.9969997406006 38.5200004577637 C 0.0 **** 0.0
11 CZ 66.286003112793 28.9850006103516 39.2919998168945 C 0.0 **** 0.0
12 OH 67.4359970092773 28.3619995117188 38.8899993896484 O 0.0 **** 0.0
@<TRIPOS>BOND
1 1 2 1
2 2 3 1
3 2 5 1
4 3 4 1
5 5 6 1
6 6 8 1
7 6 7 1
8 7 9 1
9 8 10 1
10 9 11 1
11 10 11 1
12 11 12 1
@<TRIPOS>MOLECULE
ASP238
8 7
SMALL
USER_CHARGES


@<TRIPOS>ATOM
1 N 65.088996887207 32.7280006408691 42.318000793457 N 0.0 **** 0.0
2 CA 66.2229995727539 33.6279983520508 42.1459999084473 C 0.0 **** 0.0
3 C 67.1380004882813 32.9700012207031 41.1279983520508 C 0.0 **** 0.0
4 O 67.8050003051758 31.9850006103516 41.4280014038086 O 0.0 **** 0.0
5 CB 66.9179992675781 33.8530006408691 43.4819984436035 C 0.0 **** 0.0
6 CG 68.1060028076172 34.8009986877441 43.3800010681152 C 0.0 **** 0.0
7 OD1 68.8059997558594 34.7879981994629 42.3300018310547 O 0.0 **** 0.0
8 OD2 68.3420028686523 35.5369987487793 44.3639984130859 O 0.0 **** 0.0
@<TRIPOS>BOND
1 1 2 1
2 2 3 1
3 2 5 1
4 3 4 1
5 5 6 1
6 6 8 1
7 6 7 1
@<TRIPOS>MOLECULE
HIS239
10 10
SMALL
USER_CHARGES


@<TRIPOS>ATOM
1 N 67.1259994506836 33.4580001831055 39.8880004882813 N 0.0 **** 0.0
2 CA 67.8629989624023 32.7430000305176 38.8580017089844 C 0.0 **** 0.0
3 C 69.3779983520508 32.9550018310547 38.9609985351563 C 0.0 **** 0.0
4 O 70.1279983520508 32.242000579834 38.2869987487793 O 0.0 **** 0.0
5 CB 67.3550033569336 33.1599998474121 37.4650001525879 C 0.0 **** 0.0
6 CG 67.4899978637695 34.6220016479492 37.2159996032715 C 0.0 **** 0.0
7 ND1 66.609001159668 35.5439987182617 37.7330017089844 N 0.0 **** 0.0
8 CD2 68.4499969482422 35.3289985656738 36.5750007629395 C 0.0 **** 0.0
9 CE1 67.0070037841797 36.7599983215332 37.4039993286133 C 0.0 **** 0.0
10 NE2 68.1220016479492 36.6559982299805 36.6959991455078 N 0.0 **** 0.0
@<TRIPOS>BOND
1 1 2 1
2 2 3 1
3 2 5 1
4 3 4 1
5 5 6 1
6 6 8 1
7 6 7 1
8 7 9 1
9 8 10 1
10 9 10 1
@<TRIPOS>MOLECULE
ILE240
8 7
SMALL
USER_CHARGES


@<TRIPOS>ATOM
1 N 69.8410034179688 33.9119987487793 39.7630004882813 N 0.0 **** 0.0
2 CA 71.2770004272461 34.0690002441406 39.9860000610352 C 0.0 **** 0.0
3 C 71.7900009155273 32.9749984741211 40.9179992675781 C 0.0 **** 0.0
4 O 72.7710037231445 32.2869987487793 40.6240005493164 O 0.0 **** 0.0
5 CB 71.5749969482422 35.4640007019043 40.5740013122559 C 0.0 **** 0.0
6 CG1 71.0019989013672 36.5629997253418 39.6800003051758 C 0.0 **** 0.0
7 CG2 73.0800018310547 35.6469993591309 40.8050003051758 C 0.0 **** 0.0
8 CD1 71.4909973144531 36.5250015258789 38.2789993286133 C 0.0 **** 0.0
@<TRIPOS>BOND
1 1 2 1
2 2 5 1
3 2 3 1
4 3 4 1
5 5 6 1
6 5 7 1
7 6 8 1
@<TRIPOS>MOLECULE
THR241
7 6
SMALL
USER_CHARGES


@<TRIPOS>ATOM
1 N 71.1240005493164 32.7939987182617 42.0470008850098 N 0.0 **** 0.0
2 CA 71.5849990844727 31.8619995117188 43.0660018920898 C 0.0 **** 0.0
3 C 70.9899978637695 30.4790000915527 42.931999206543 C 0.0 **** 0.0
4 O 71.5299987792969 29.5270004272461 43.5169982910156 O 0.0 **** 0.0
5 CB 71.2369995117188 32.3899993896484 44.4580001831055 C 0.0 **** 0.0
6 OG1 69.8119964599609 32.5110015869141 44.6069984436035 O 0.0 **** 0.0
7 CG2 71.8759994506836 33.75 44.6520004272461 C 0.0 **** 0.0
@<TRIPOS>BOND
1 1 2 1
2 2 5 1
3 2 3 1
4 3 4 1
5 5 6 1
6 5 7 1
@<TRIPOS>MOLECULE
GLY242
4 3
SMALL
USER_CHARGES


@<TRIPOS>ATOM
1 N 69.8730010986328 30.3500003814697 42.2179985046387 N 0.0 **** 0.0
2 CA 69.1729965209961 29.076000213623 42.1759986877441 C 0.0 **** 0.0
3 C 68.2720031738281 28.80299949646 43.3600006103516 C 0.0 **** 0.0
4 O 67.7300033569336 27.6989994049072 43.4589996337891 O 0.0 **** 0.0
@<TRIPOS>BOND
1 1 2 1
2 2 3 1
3 3 4 1
@<TRIPOS>MOLECULE
GLU243
9 8
SMALL
USER_CHARGES


@<TRIPOS>ATOM
1 N 68.072998046875 29.7730007171631 44.2400016784668 N 0.0 **** 0.0
2 CA 67.2249984741211 29.5849990844727 45.4129981994629 C 0.0 **** 0.0
3 C 65.7509994506836 29.7240009307861 45.0629997253418 C 0.0 **** 0.0
4 O 65.3720016479492 30.443000793457 44.1290016174316 O 0.0 **** 0.0
5 CB 67.5500030517578 30.6140003204346 46.4790000915527 C 0.0 **** 0.0
6 CG 68.9209976196289 30.5170001983643 47.1160011291504 C 0.0 **** 0.0
7 CD 69.2149963378906 31.7660007476807 47.9249992370605 C 0.0 **** 0.0
8 OE1 69.4520034790039 32.8209991455078 47.314998626709 O 0.0 **** 0.0
9 OE2 69.1559982299805 31.7150001525879 49.1679992675781 O 0.0 **** 0.0
@<TRIPOS>BOND
1 1 2 1
2 2 3 1
3 2 5 1
4 3 4 1
5 5 6 1
6 6 7 1
7 7 9 1
8 7 8 1
@<TRIPOS>MOLECULE
GLY244
4 3
SMALL
USER_CHARGES


@<TRIPOS>ATOM
1 N 64.9150009155273 29.0599994659424 45.8540000915527 N 0.0 **** 0.0
2 CA 63.4889984130859 29.3199996948242 45.8650016784668 C 0.0 **** 0.0
3 C 63.1870002746582 30.2970008850098 46.9860000610352 C 0.0 **** 0.0
4 O 63.8580017089844 30.2950000762939 48.0209999084473 O 0.0 **** 0.0
@<TRIPOS>BOND
1 1 2 1
2 2 3 1
3 3 4 1
@<TRIPOS>MOLECULE
ILE245
8 7
SMALL
USER_CHARGES


@<TRIPOS>ATOM
1 N 62.1910018920898 31.1529998779297 46.7649993896484 N 0.0 **** 0.0
2 CA 61.6910018920898 32.0610008239746 47.7879981994629 C 0.0 **** 0.0
3 C 60.2529983520508 31.6650009155273 48.056999206543 C 0.0 **** 0.0
4 O 59.3769989013672 31.8649997711182 47.1959991455078 O 0.0 **** 0.0
5 CB 61.7919998168945 33.5260009765625 47.3569984436035 C 0.0 **** 0.0
6 CG1 63.2430000305176 33.8499984741211 46.9799995422363 C 0.0 **** 0.0
7 CG2 61.3310012817383 34.431999206543 48.5069999694824 C 0.0 **** 0.0
8 CD1 63.3790016174316 34.6940002441406 45.7760009765625 C 0.0 **** 0.0
@<TRIPOS>BOND
1 1 2 1
2 2 5 1
3 2 3 1
4 3 4 1
5 5 6 1
6 5 7 1
7 6 8 1
@<TRIPOS>MOLECULE
LEU246
8 7
SMALL
USER_CHARGES


@<TRIPOS>ATOM
1 N 60.007999420166 31.1079998016357 49.2410011291504 N 0.0 **** 0.0
2 CA 58.742000579834 30.4710006713867 49.560001373291 C 0.0 **** 0.0
3 C 58.0670013427734 31.128999710083 50.7519989013672 C 0.0 **** 0.0
4 O 58.6839981079102 31.3199996948242 51.8160018920898 O 0.0 **** 0.0
5 CB 58.9309997558594 28.9979991912842 49.859001159668 C 0.0 **** 0.0
6 CG 57.6549987792969 28.2220001220703 50.1759986877441 C 0.0 **** 0.0
7 CD1 56.7869987487793 28.1399993896484 48.935001373291 C 0.0 **** 0.0
8 CD2 58.0369987487793 26.8449993133545 50.7229995727539 C 0.0 **** 0.0
@<TRIPOS>BOND
1 1 2 1
2 2 5 1
3 2 3 1
4 3 4 1
5 5 6 1
6 6 7 1
7 6 8 1
@<TRIPOS>MOLECULE
LYS247
9 8
SMALL
USER_CHARGES


@<TRIPOS>ATOM
1 N 56.7879981994629 31.4389991760254 50.5820007324219 N 0.0 **** 0.0
2 CA 55.935001373291 31.8150005340576 51.7050018310547 C 0.0 **** 0.0
3 C 54.5400009155273 31.3090000152588 51.4119987487793 C 0.0 **** 0.0
4 O 53.984001159668 31.6100006103516 50.3610000610352 O 0.0 **** 0.0
5 CB 55.9269981384277 33.3139991760254 51.9010009765625 C 0.0 **** 0.0
6 CG 54.8380012512207 33.7760009765625 52.8419990539551 C 0.0 **** 0.0
7 CD 55.1230010986328 35.1559982299805 53.3790016174316 C 0.0 **** 0.0
8 CE 54.6419982910156 36.2229995727539 52.5029983520508 C 0.0 **** 0.0
9 NZ 54.5040016174316 37.4630012512207 53.3330001831055 N 0.0 **** 0.0
@<TRIPOS>BOND
1 1 2 1
2 2 5 1
3 2 3 1
4 3 4 1
5 5 6 1
6 6 7 1
7 7 8 1
8 8 9 1
@<TRIPOS>MOLECULE
VAL248
7 6
SMALL
USER_CHARGES


@<TRIPOS>ATOM
1 N 53.9679985046387 30.5380001068115 52.3089981079102 N 0.0 **** 0.0
2 CA 52.6189994812012 30.0310001373291 52.1020011901855 C 0.0 **** 0.0
3 C 51.7410011291504 30.6730003356934 53.1660003662109 C 0.0 **** 0.0
4 O 51.9150009155273 30.4039993286133 54.3639984130859 O 0.0 **** 0.0
5 CB 52.5820007324219 28.4939994812012 52.1459999084473 C 0.0 **** 0.0
6 CG1 51.1310005187988 27.996000289917 52.0289993286133 C 0.0 **** 0.0
7 CG2 53.4010009765625 27.9260005950928 51.0040016174316 C 0.0 **** 0.0
@<TRIPOS>BOND
1 1 2 1
2 2 5 1
3 2 3 1
4 3 4 1
5 5 6 1
6 5 7 1
@<TRIPOS>MOLECULE
GLU249
9 8
SMALL
USER_CHARGES


@<TRIPOS>ATOM
1 N 50.8300018310547 31.5610008239746 52.7449989318848 N 0.0 **** 0.0
2 CA 49.8699989318848 32.1479988098145 53.6650009155273 C 0.0 **** 0.0
3 C 48.6660003662109 31.2189998626709 53.8170013427734 C 0.0 **** 0.0
4 O 48.2669982910156 30.5209999084473 52.8699989318848 O 0.0 **** 0.0
5 CB 49.4109992980957 33.5219993591309 53.1769981384277 C 0.0 **** 0.0
6 CG 50.5320014953613 34.5169982910156 52.9519996643066 C 0.0 **** 0.0
7 CD 50.0180015563965 35.851001739502 52.4620018005371 C 0.0 **** 0.0
8 OE1 49.7910003662109 36.0330009460449 51.2599983215332 O 0.0 **** 0.0
9 OE2 49.8089981079102 36.7190017700195 53.3089981079102 O 0.0 **** 0.0
@<TRIPOS>BOND
1 1 2 1
2 2 3 1
3 2 5 1
4 3 4 1
5 5 6 1
6 6 7 1
7 7 8 1
8 7 9 1
@<TRIPOS>MOLECULE
ALA250
5 4
SMALL
USER_CHARGES


@<TRIPOS>ATOM
1 N 48.1129989624023 31.1849994659424 55.0279998779297 N 0.0 **** 0.0
2 CA 46.9379997253418 30.3899993896484 55.3310012817383 C 0.0 **** 0.0
3 C 46.0289993286133 31.1940002441406 56.2379989624023 C 0.0 **** 0.0
4 O 46.4910011291504 31.8540000915527 57.1809997558594 O 0.0 **** 0.0
5 CB 47.3030014038086 29.0769996643066 56.0149993896484 C 0.0 **** 0.0
@<TRIPOS>BOND
1 1 2 1
2 2 5 1
3 2 3 1
4 3 4 1
@<TRIPOS>MOLECULE
SER251
6 5
SMALL
USER_CHARGES


@<TRIPOS>ATOM
1 N 44.734001159668 31.1119995117188 55.9930000305176 N 0.0 **** 0.0
2 CA 43.8089981079102 31.8920001983643 56.7960014343262 C 0.0 **** 0.0
3 C 42.5180015563965 31.128999710083 57.0019989013672 C 0.0 **** 0.0
4 O 42.2190017700195 30.1550006866455 56.3170013427734 O 0.0 **** 0.0
5 CB 43.5180015563965 33.2319984436035 56.1459999084473 C 0.0 **** 0.0
6 OG 42.8050003051758 33.0540008544922 54.9360008239746 O 0.0 **** 0.0
@<TRIPOS>BOND
1 1 2 1
2 2 5 1
3 2 3 1
4 3 4 1
5 5 6 1
@<TRIPOS>MOLECULE
ARG252
11 10
SMALL
USER_CHARGES


@<TRIPOS>ATOM
1 N 41.75 31.6159992218018 57.9690017700195 N 0.0 **** 0.0
2 CA 40.4720001220703 31.0499992370605 58.3419990539551 C 0.0 **** 0.0
3 C 39.6189994812012 32.2410011291504 58.734001159668 C 0.0 **** 0.0
4 O 40.0730018615723 33.0900001525879 59.5040016174316 O 0.0 **** 0.0
5 CB 40.648998260498 30.0480003356934 59.4990005493164 C 0.0 **** 0.0
6 CG 39.398998260498 29.3279991149902 59.931999206543 C 0.0 **** 0.0
7 CD 39.689998626709 28.2759990692139 61.0789985656738 C 0.0 **** 0.0
8 NE 40.5340003967285 28.7929992675781 62.1539993286133 N 0.0 **** 0.0
9 CZ 41.7350006103516 28.3269996643066 62.5050010681152 C 0.0 **** 0.0
10 NH1 42.2970008850098 27.2900009155273 61.8899993896484 N 0.0 **** 0.0
11 NH2 42.3740005493164 28.8929996490479 63.5279998779297 N 0.0 **** 0.0
@<TRIPOS>BOND
1 1 2 1
2 2 5 1
3 2 3 1
4 3 4 1
5 5 6 1
6 6 7 1
7 7 8 1
8 8 9 1
9 9 11 1
10 9 10 1
@<TRIPOS>MOLECULE
GLY253
4 3
SMALL
USER_CHARGES


@<TRIPOS>ATOM
1 N 38.4269981384277 32.3339996337891 58.1669998168945 N 0.0 **** 0.0
2 CA 37.5709991455078 33.4809989929199 58.390998840332 C 0.0 **** 0.0
3 C 38.2519989013672 34.7980003356934 58.068000793457 C 0.0 **** 0.0
4 O 37.9910011291504 35.8139991760254 58.7140007019043 O 0.0 **** 0.0
@<TRIPOS>BOND
1 1 2 1
2 2 3 1
3 3 4 1
@<TRIPOS>MOLECULE
GLY254
4 3
SMALL
USER_CHARGES


@<TRIPOS>ATOM
1 N 39.1240005493164 34.7960014343262 57.0719985961914 N 0.0 **** 0.0
2 CA 39.8330001831055 35.9879989624023 56.685001373291 C 0.0 **** 0.0
3 C 40.9780006408691 36.3899993896484 57.5890007019043 C 0.0 **** 0.0
4 O 41.5730018615723 37.4480018615723 57.3600006103516 O 0.0 **** 0.0
@<TRIPOS>BOND
1 1 2 1
2 2 3 1
3 3 4 1
@<TRIPOS>MOLECULE
GLN255
9 8
SMALL
USER_CHARGES


@<TRIPOS>ATOM
1 N 41.3300018310547 35.5800018310547 58.5870018005371 N 0.0 **** 0.0
2 CA 42.4379997253418 35.8930015563965 59.4809989929199 C 0.0 **** 0.0
3 C 43.5480003356934 34.8699989318848 59.3139991760254 C 0.0 **** 0.0
4 O 43.2910003662109 33.6640014648438 59.2239990234375 O 0.0 **** 0.0
5 CB 41.9910011291504 35.9080009460449 60.9539985656738 C 0.0 **** 0.0
6 CG 40.9720001220703 36.9900016784668 61.2669982910156 C 0.0 **** 0.0
7 CD 41.4729995727539 38.4020004272461 60.9550018310547 C 0.0 **** 0.0
8 OE1 41.1640014648438 38.9749984741211 59.9010009765625 O 0.0 **** 0.0
9 NE2 42.2439994812012 38.9710006713867 61.8759994506836 N 0.0 **** 0.0
@<TRIPOS>BOND
1 1 2 1
2 2 3 1
3 2 5 1
4 3 4 1
5 5 6 1
6 6 7 1
7 7 8 1
8 7 9 1
@<TRIPOS>MOLECULE
ALA256
5 4
SMALL
USER_CHARGES


@<TRIPOS>ATOM
1 N 44.7820014953613 35.3610000610352 59.2999992370605 N 0.0 **** 0.0
2 CA 45.9410018920898 34.4739990234375 59.2799987792969 C 0.0 **** 0.0
3 C 45.8919982910156 33.5250015258789 60.4609985351563 C 0.0 **** 0.0
4 O 45.5559997558594 33.9300003051758 61.5769996643066 O 0.0 **** 0.0
5 CB 47.2309989929199 35.2809982299805 59.3520011901855 C 0.0 **** 0.0
@<TRIPOS>BOND
1 1 2 1
2 2 5 1
3 2 3 1
4 3 4 1
@<TRIPOS>MOLECULE
ILE257
8 7
SMALL
USER_CHARGES


@<TRIPOS>ATOM
1 N 46.2820014953613 32.2669982910156 60.2299995422363 N 0.0 **** 0.0
2 CA 46.2379989624023 31.2479991912842 61.2700004577637 C 0.0 **** 0.0
3 C 47.5779991149902 30.5349998474121 61.3580017089844 C 0.0 **** 0.0
4 O 48.3969993591309 30.57200050354 60.4360008239746 O 0.0 **** 0.0
5 CB 45.1310005187988 30.2150001525879 61.0209999084473 C 0.0 **** 0.0
6 CG1 45.3390007019043 29.57200050354 59.6319999694824 C 0.0 **** 0.0
7 CG2 43.7750015258789 30.8770008087158 61.125 C 0.0 **** 0.0
8 CD1 44.6710014343262 28.25 59.4620018005371 C 0.0 **** 0.0
@<TRIPOS>BOND
1 1 2 1
2 2 3 1
3 2 5 1
4 3 4 1
5 5 7 1
6 5 6 1
7 6 8 1
@<TRIPOS>MOLECULE
ASP258
8 7
SMALL
USER_CHARGES


@<TRIPOS>ATOM
1 N 47.7690010070801 29.8600006103516 62.4869995117188 N 0.0 **** 0.0
2 CA 48.8720016479492 28.9260005950928 62.6720008850098 C 0.0 **** 0.0
3 C 48.6310005187988 27.7070007324219 61.8040008544922 C 0.0 **** 0.0
4 O 47.5830001831055 27.0620002746582 61.9129981994629 O 0.0 **** 0.0
5 CB 48.9570007324219 28.4640007019043 64.129997253418 C 0.0 **** 0.0
6 CG 49.2330017089844 29.5839996337891 65.1119995117188 C 0.0 **** 0.0
7 OD1 49.8979988098145 30.5709991455078 64.7399978637695 O 0.0 **** 0.0
8 OD2 48.8040008544922 29.4449996948242 66.2919998168945 O 0.0 **** 0.0
@<TRIPOS>BOND
1 1 2 1
2 2 5 1
3 2 3 1
4 3 4 1
5 5 6 1
6 6 7 1
7 6 8 1
@<TRIPOS>MOLECULE
ALA259
5 4
SMALL
USER_CHARGES


@<TRIPOS>ATOM
1 N 49.5989990234375 27.382999420166 60.9500007629395 N 0.0 **** 0.0
2 CA 49.5589981079102 26.1439990997314 60.1910018920898 C 0.0 **** 0.0
3 C 50.9879989624023 25.742000579834 59.8819999694824 C 0.0 **** 0.0
4 O 51.8899993896484 26.5790004730225 59.8499984741211 O 0.0 **** 0.0
5 CB 48.7490005493164 26.298999786377 58.8849983215332 C 0.0 **** 0.0
@<TRIPOS>BOND
1 1 2 1
2 2 3 1
3 2 5 1
4 3 4 1
@<TRIPOS>MOLECULE
VAL260
7 6
SMALL
USER_CHARGES


@<TRIPOS>ATOM
1 N 51.1920013427734 24.4659996032715 59.6049995422363 N 0.0 **** 0.0
2 CA 52.5130004882813 23.9529991149902 59.2620010375977 C 0.0 **** 0.0
3 C 52.5400009155273 23.6599998474121 57.7719993591309 C 0.0 **** 0.0
4 O 51.6069984436035 23.0450000762939 57.2470016479492 O 0.0 **** 0.0
5 CB 52.8610000610352 22.6909999847412 60.0800018310547 C 0.0 **** 0.0
6 CG1 51.8409996032715 21.6009998321533 59.8219985961914 C 0.0 **** 0.0
7 CG2 54.2840003967285 22.1900005340576 59.7280006408691 C 0.0 **** 0.0
@<TRIPOS>BOND
1 1 2 1
2 2 3 1
3 2 5 1
4 3 4 1
5 5 6 1
6 5 7 1
@<TRIPOS>MOLECULE
VAL261
7 6
SMALL
USER_CHARGES


@<TRIPOS>ATOM
1 N 53.5919990539551 24.1180000305176 57.0940017700195 N 0.0 **** 0.0
2 CA 53.8230018615723 23.8150005340576 55.6809997558594 C 0.0 **** 0.0
3 C 54.9140014648438 22.7679996490479 55.6150016784668 C 0.0 **** 0.0
4 O 55.9620018005371 22.923999786377 56.2519989013672 O 0.0 **** 0.0
5 CB 54.2470016479492 25.0690002441406 54.9109992980957 C 0.0 **** 0.0
6 CG1 54.4199981689453 24.7679996490479 53.4269981384277 C 0.0 **** 0.0
7 CG2 53.2200012207031 26.1830005645752 55.1230010986328 C 0.0 **** 0.0
@<TRIPOS>BOND
1 1 2 1
2 2 3 1
3 2 5 1
4 3 4 1
5 5 6 1
6 5 7 1
@<TRIPOS>MOLECULE
ARG262
11 10
SMALL
USER_CHARGES


@<TRIPOS>ATOM
1 N 54.6759986877441 21.693000793457 54.8730010986328 N 0.0 **** 0.0
2 CA 55.6809997558594 20.6520004272461 54.7080001831055 C 0.0 **** 0.0
3 C 55.9290008544922 20.4479999542236 53.2190017700195 C 0.0 **** 0.0
4 O 54.9780006408691 20.3379993438721 52.4420013427734 O 0.0 **** 0.0
5 CB 55.2350006103516 19.3610000610352 55.3699989318848 C 0.0 **** 0.0
6 CG 55.0929985046387 19.5139999389648 56.8769989013672 C 0.0 **** 0.0
7 CD 54.8940010070801 18.2019996643066 57.4879989624023 C 0.0 **** 0.0
8 NE 54.7820014953613 18.2520008087158 58.9539985656738 N 0.0 **** 0.0
9 CZ 53.6370010375977 18.3379993438721 59.617000579834 C 0.0 **** 0.0
10 NH1 52.4720001220703 18.4020004272461 58.9780006408691 N 0.0 **** 0.0
11 NH2 53.6539993286133 18.3700008392334 60.9370002746582 N 0.0 **** 0.0
@<TRIPOS>BOND
1 1 2 1
2 2 3 1
3 2 5 1
4 3 4 1
5 5 6 1
6 6 7 1
7 7 8 1
8 8 9 1
9 9 10 1
10 9 11 1
@<TRIPOS>MOLECULE
VAL263
7 6
SMALL
USER_CHARGES


@<TRIPOS>ATOM
1 N 57.1969985961914 20.4200000762939 52.8250007629395 N 0.0 **** 0.0
2 CA 57.5299987792969 20.1439990997314 51.4290008544922 C 0.0 **** 0.0
3 C 58.5499992370605 19.0189990997314 51.4370002746582 C 0.0 **** 0.0
4 O 59.7639999389648 19.2779998779297 51.4580001831055 O 0.0 **** 0.0
5 CB 58.0820007324219 21.3689994812012 50.7050018310547 C 0.0 **** 0.0
6 CG1 58.1559982299805 21.0639991760254 49.2470016479492 C 0.0 **** 0.0
7 CG2 57.1870002746582 22.5809993743896 50.9010009765625 C 0.0 **** 0.0
@<TRIPOS>BOND
1 1 2 1
2 2 5 1
3 2 3 1
4 3 4 1
5 5 7 1
6 5 6 1
@<TRIPOS>MOLECULE
PRO264
7 7
SMALL
USER_CHARGES


@<TRIPOS>ATOM
1 N 58.117000579834 17.7670001983643 51.4570007324219 N 0.0 **** 0.0
2 CA 59.0830001831055 16.681999206543 51.7140007019043 C 0.0 **** 0.0
3 C 60.2869987487793 16.6620006561279 50.7859992980957 C 0.0 **** 0.0
4 O 61.4020004272461 16.382999420166 51.2480010986328 O 0.0 **** 0.0
5 CB 58.2270011901855 15.4219999313354 51.5480003356934 C 0.0 **** 0.0
6 CG 56.8470001220703 15.8690004348755 52.0200004577637 C 0.0 **** 0.0
7 CD 56.7190017700195 17.2929992675781 51.4799995422363 C 0.0 **** 0.0
@<TRIPOS>BOND
1 1 7 1
2 1 2 1
3 2 5 1
4 2 3 1
5 3 4 1
6 5 6 1
7 6 7 1
@<TRIPOS>MOLECULE
GLU265
9 8
SMALL
USER_CHARGES


@<TRIPOS>ATOM
1 N 60.101001739502 16.9160003662109 49.4980010986328 N 0.0 **** 0.0
2 CA 61.201000213623 16.7210006713867 48.564998626709 C 0.0 **** 0.0
3 C 62.3019981384277 17.7409992218018 48.8129997253418 C 0.0 **** 0.0
4 O 63.4710006713867 17.4599990844727 48.5390014648438 O 0.0 **** 0.0
5 CB 60.6860008239746 16.8020000457764 47.1150016784668 C 0.0 **** 0.0
6 CG 61.7649993896484 16.6879997253418 46.0289993286133 C 0.0 **** 0.0
7 CD 61.1839981079102 16.6860008239746 44.6040000915527 C 0.0 **** 0.0
8 OE1 59.9379997253418 16.6529998779297 44.4420013427734 O 0.0 **** 0.0
9 OE2 61.976001739502 16.7390003204346 43.6349983215332 O 0.0 **** 0.0
@<TRIPOS>BOND
1 1 2 1
2 2 3 1
3 2 5 1
4 3 4 1
5 5 6 1
6 6 7 1
7 7 8 1
8 7 9 1
@<TRIPOS>MOLECULE
LEU266
8 7
SMALL
USER_CHARGES


@<TRIPOS>ATOM
1 N 61.9609985351563 18.9029998779297 49.3680000305176 N 0.0 **** 0.0
2 CA 62.9490013122559 19.9330005645752 49.6710014343262 C 0.0 **** 0.0
3 C 63.3619995117188 19.9489994049072 51.148998260498 C 0.0 **** 0.0
4 O 64.0810012817383 20.8640003204346 51.5769996643066 O 0.0 **** 0.0
5 CB 62.4090003967285 21.2940006256104 49.2480010986328 C 0.0 **** 0.0
6 CG 62.2400016784668 21.423999786377 47.7229995727539 C 0.0 **** 0.0
7 CD1 61.4539985656738 22.6690006256104 47.3810005187988 C 0.0 **** 0.0
8 CD2 63.6040000915527 21.4529991149902 47.0130004882813 C 0.0 **** 0.0
@<TRIPOS>BOND
1 1 2 1
2 2 5 1
3 2 3 1
4 3 4 1
5 5 6 1
6 6 8 1
7 6 7 1
@<TRIPOS>MOLECULE
ALA267
5 4
SMALL
USER_CHARGES


@<TRIPOS>ATOM
1 N 62.9090003967285 18.9680004119873 51.9249992370605 N 0.0 **** 0.0
2 CA 63.2859992980957 18.806999206543 53.3310012817383 C 0.0 **** 0.0
3 C 62.882999420166 20.0230007171631 54.1640014648438 C 0.0 **** 0.0
4 O 63.6209983825684 20.4540004730225 55.0550003051758 O 0.0 **** 0.0
5 CB 64.7910003662109 18.5109996795654 53.4720001220703 C 0.0 **** 0.0
@<TRIPOS>BOND
1 1 2 1
2 2 5 1
3 2 3 1
4 3 4 1
@<TRIPOS>MOLECULE
LEU268
8 7
SMALL
USER_CHARGES


@<TRIPOS>ATOM
1 N 61.6870002746582 20.55299949646 53.8899993896484 N 0.0 **** 0.0
2 CA 61.189998626709 21.7970008850098 54.4770011901855 C 0.0 **** 0.0
3 C 60.0410003662109 21.5160007476807 55.4379997253418 C 0.0 **** 0.0
4 O 59.0730018615723 20.8330001831055 55.0870018005371 O 0.0 **** 0.0
5 CB 60.6790008544922 22.7679996490479 53.398998260498 C 0.0 **** 0.0
6 CG 61.6059989929199 23.1420001983643 52.2490005493164 C 0.0 **** 0.0
7 CD1 60.9770011901855 24.2469997406006 51.382999420166 C 0.0 **** 0.0
8 CD2 62.9700012207031 23.548999786377 52.7239990234375 C 0.0 **** 0.0
@<TRIPOS>BOND
1 1 2 1
2 2 5 1
3 2 3 1
4 3 4 1
5 5 6 1
6 6 7 1
7 6 8 1
@<TRIPOS>MOLECULE
GLU269
9 8
SMALL
USER_CHARGES


@<TRIPOS>ATOM
1 N 60.132999420166 22.0809993743896 56.6380004882813 N 0.0 **** 0.0
2 CA 58.9949989318848 22.1709995269775 57.5429992675781 C 0.0 **** 0.0
3 C 59.0130004882813 23.5809993743896 58.0900001525879 C 0.0 **** 0.0
4 O 59.9360008239746 23.9529991149902 58.8359985351563 O 0.0 **** 0.0
5 CB 59.0810012817383 21.1299991607666 58.6590003967285 C 0.0 **** 0.0
6 CG 57.8709983825684 21.19700050354 59.6209983825684 C 0.0 **** 0.0
7 CD 57.7060012817383 19.9799995422363 60.4770011901855 C 0.0 **** 0.0
8 OE1 57.6619987487793 18.8479995727539 59.9389991760254 O 0.0 **** 0.0
9 OE2 57.648998260498 20.1569995880127 61.7120018005371 O 0.0 **** 0.0
@<TRIPOS>BOND
1 1 2 1
2 2 3 1
3 2 5 1
4 3 4 1
5 5 6 1
6 6 7 1
7 7 9 1
8 7 8 1
@<TRIPOS>MOLECULE
LEU270
8 7
SMALL
USER_CHARGES


@<TRIPOS>ATOM
1 N 58.0029983520508 24.3649997711182 57.742000579834 N 0.0 **** 0.0
2 CA 57.9860000610352 25.7630004882813 58.1240005493164 C 0.0 **** 0.0
3 C 56.5699996948242 26.181999206543 58.5009994506836 C 0.0 **** 0.0
4 O 55.5779991149902 25.503999710083 58.2070007324219 O 0.0 **** 0.0
5 CB 58.5219993591309 26.6770000457764 57.0120010375977 C 0.0 **** 0.0
6 CG 57.6650009155273 26.8579998016357 55.765998840332 C 0.0 **** 0.0
7 CD1 57.9830017089844 28.1569995880127 55.0379981994629 C 0.0 **** 0.0
8 CD2 57.8730010986328 25.6679992675781 54.8289985656738 C 0.0 **** 0.0
@<TRIPOS>BOND
1 1 2 1
2 2 3 1
3 2 5 1
4 3 4 1
5 5 6 1
6 6 7 1
7 6 8 1
@<TRIPOS>MOLECULE
ALA271
5 4
SMALL
USER_CHARGES


@<TRIPOS>ATOM
1 N 56.5060005187988 27.3299999237061 59.1570014953613 N 0.0 **** 0.0
2 CA 55.2410011291504 27.9120006561279 59.5540008544922 C 0.0 **** 0.0
3 C 54.5800018310547 28.6049995422363 58.3680000305176 C 0.0 **** 0.0
4 O 55.2470016479492 29.2660007476807 57.5709991455078 O 0.0 **** 0.0
5 CB 55.4580001831055 28.9190006256104 60.6749992370605 C 0.0 **** 0.0
@<TRIPOS>BOND
1 1 2 1
2 2 3 1
3 2 5 1
4 3 4 1
@<TRIPOS>MOLECULE
ALA272
5 4
SMALL
USER_CHARGES


@<TRIPOS>ATOM
1 N 53.2599983215332 28.4890003204346 58.2770004272461 N 0.0 **** 0.0
2 CA 52.5460014343262 29.3190002441406 57.3209991455078 C 0.0 **** 0.0
3 C 52.7430000305176 30.7740001678467 57.7099990844727 C 0.0 **** 0.0
4 O 52.7939987182617 31.1180000305176 58.8930015563965 O 0.0 **** 0.0
5 CB 51.0620002746582 28.951000213623 57.2820014953613 C 0.0 **** 0.0
@<TRIPOS>BOND
1 1 2 1
2 2 5 1
3 2 3 1
4 3 4 1
@<TRIPOS>MOLECULE
GLY273
4 3
SMALL
USER_CHARGES


@<TRIPOS>ATOM
1 N 52.9179992675781 31.6189994812012 56.7210006713867 N 0.0 **** 0.0
2 CA 53.0909996032715 33.0299987792969 56.9630012512207 C 0.0 **** 0.0
3 C 54.5149993896484 33.5379981994629 57.0110015869141 C 0.0 **** 0.0
4 O 54.7060012817383 34.7529983520508 57.1049995422363 O 0.0 **** 0.0
@<TRIPOS>BOND
1 1 2 1
2 2 3 1
3 3 4 1
@<TRIPOS>MOLECULE
THR274
7 6
SMALL
USER_CHARGES


@<TRIPOS>ATOM
1 N 55.5219993591309 32.6759986877441 56.923999786377 N 0.0 **** 0.0
2 CA 56.8979988098145 33.1500015258789 56.9900016784668 C 0.0 **** 0.0
3 C 57.609001159668 32.8569984436035 55.6809997558594 C 0.0 **** 0.0
4 O 57.4480018615723 31.7819995880127 55.0870018005371 O 0.0 **** 0.0
5 CB 57.6689987182617 32.5400009155273 58.1839981079102 C 0.0 **** 0.0
6 OG1 57.9550018310547 31.1599998474121 57.9490013122559 O 0.0 **** 0.0
7 CG2 56.8409996032715 32.6269989013672 59.4090003967285 C 0.0 **** 0.0
@<TRIPOS>BOND
1 1 2 1
2 2 3 1
3 2 5 1
4 3 4 1
5 5 6 1
6 5 7 1
@<TRIPOS>MOLECULE
GLU275
9 8
SMALL
USER_CHARGES


@<TRIPOS>ATOM
1 N 58.359001159668 33.8470001220703 55.2229995727539 N 0.0 **** 0.0
2 CA 59.1209983825684 33.726001739502 53.9930000305176 C 0.0 **** 0.0
3 C 60.4720001220703 33.0950012207031 54.2830009460449 C 0.0 **** 0.0
4 O 61.173999786377 33.5009994506836 55.2220001220703 O 0.0 **** 0.0
5 CB 59.3170013427734 35.0880012512207 53.3549995422363 C 0.0 **** 0.0
6 CG 59.9930000305176 34.9679985046387 51.9970016479492 C 0.0 **** 0.0
7 CD 60.1040000915527 36.2840003967285 51.2770004272461 C 0.0 **** 0.0
8 OE1 59.1240005493164 36.7029991149902 50.6220016479492 O 0.0 **** 0.0
9 OE2 61.1809997558594 36.9070014953613 51.3629989624023 O 0.0 **** 0.0
@<TRIPOS>BOND
1 1 2 1
2 2 5 1
3 2 3 1
4 3 4 1
5 5 6 1
6 6 7 1
7 7 9 1
8 7 8 1
@<TRIPOS>MOLECULE
VAL276
7 6
SMALL
USER_CHARGES


@<TRIPOS>ATOM
1 N 60.8400001525879 32.1059989929199 53.4700012207031 N 0.0 **** 0.0
2 CA 62.117000579834 31.4270000457764 53.6059989929199 C 0.0 **** 0.0
3 C 62.7980003356934 31.3589992523193 52.2439994812012 C 0.0 **** 0.0
4 O 62.1829986572266 31.548999786377 51.189998626709 O 0.0 **** 0.0
5 CB 61.9620018005371 30.0030002593994 54.189998626709 C 0.0 **** 0.0
6 CG1 61.298999786377 30.0629997253418 55.5670013427734 C 0.0 **** 0.0
7 CG2 61.1640014648438 29.113000869751 53.2379989624023 C 0.0 **** 0.0
@<TRIPOS>BOND
1 1 2 1
2 2 5 1
3 2 3 1
4 3 4 1
5 5 7 1
6 5 6 1
@<TRIPOS>MOLECULE
ARG277
11 10
SMALL
USER_CHARGES


@<TRIPOS>ATOM
1 N 64.0979995727539 31.1049995422363 52.298999786377 N 0.0 **** 0.0
2 CA 64.927001953125 30.9209995269775 51.1220016479492 C 0.0 **** 0.0
3 C 65.3399963378906 29.4559993743896 51.048999786377 C 0.0 **** 0.0
4 O 66.1139984130859 28.9750003814697 51.8800010681152 O 0.0 **** 0.0
5 CB 66.1490020751953 31.8290004730225 51.1660003662109 C 0.0 **** 0.0
6 CG 65.7939987182617 33.2919998168945 51.310001373291 C 0.0 **** 0.0
7 CD 67.0 34.1910018920898 51.0519981384277 C 0.0 **** 0.0
8 NE 67.4000015258789 34.1870002746582 49.6360015869141 N 0.0 **** 0.0
9 CZ 66.7590026855469 34.8429985046387 48.6749992370605 C 0.0 **** 0.0
10 NH1 65.6760025024414 35.5449981689453 48.9650001525879 N 0.0 **** 0.0
11 NH2 67.193000793457 34.7919998168945 47.4169998168945 N 0.0 **** 0.0
@<TRIPOS>BOND
1 1 2 1
2 2 3 1
3 2 5 1
4 3 4 1
5 5 6 1
6 6 7 1
7 7 8 1
8 8 9 1
9 9 10 1
10 9 11 1
@<TRIPOS>MOLECULE
VAL278
7 6
SMALL
USER_CHARGES


@<TRIPOS>ATOM
1 N 64.8550033569336 28.7660007476807 50.0250015258789 N 0.0 **** 0.0
2 CA 65.1740036010742 27.3729991912842 49.8030014038086 C 0.0 **** 0.0
3 C 66.4879989624023 27.3349990844727 49.0289993286133 C 0.0 **** 0.0
4 O 66.5989990234375 27.9669990539551 47.9609985351563 O 0.0 **** 0.0
5 CB 64.0510025024414 26.6539993286133 49.0410003662109 C 0.0 **** 0.0
6 CG1 64.370002746582 25.1490001678467 48.9480018615723 C 0.0 **** 0.0
7 CG2 62.6720008850098 26.8929996490479 49.7249984741211 C 0.0 **** 0.0
@<TRIPOS>BOND
1 1 2 1
2 2 3 1
3 2 5 1
4 3 4 1
5 5 7 1
6 5 6 1
@<TRIPOS>MOLECULE
PRO279
7 7
SMALL
USER_CHARGES


@<TRIPOS>ATOM
1 N 67.495002746582 26.5979995727539 49.4939994812012 N 0.0 **** 0.0
2 CA 68.838996887207 26.7630004882813 48.9169998168945 C 0.0 **** 0.0
3 C 68.9349975585938 26.4419994354248 47.4469985961914 C 0.0 **** 0.0
4 O 69.6750030517578 27.1140003204346 46.7150001525879 O 0.0 **** 0.0
5 CB 69.6859970092773 25.7980003356934 49.7599983215332 C 0.0 **** 0.0
6 CG 68.995002746582 25.7099990844727 51.0180015563965 C 0.0 **** 0.0
7 CD 67.5410003662109 25.8519992828369 50.7620010375977 C 0.0 **** 0.0
@<TRIPOS>BOND
1 1 2 1
2 1 7 1
3 2 5 1
4 2 3 1
5 3 4 1
6 5 6 1
7 6 7 1
@<TRIPOS>MOLECULE
ALA280
5 4
SMALL
USER_CHARGES


@<TRIPOS>ATOM
1 N 68.2509994506836 25.4029998779297 46.9930000305176 N 0.0 **** 0.0
2 CA 68.265998840332 25.0820007324219 45.576000213623 C 0.0 **** 0.0
3 C 66.8980026245117 24.5240001678467 45.2360000610352 C 0.0 **** 0.0
4 O 66.3809967041016 23.6509990692139 45.9420013427734 O 0.0 **** 0.0
5 CB 69.3840026855469 24.0799999237061 45.2270011901855 C 0.0 **** 0.0
@<TRIPOS>BOND
1 1 2 1
2 2 3 1
3 2 5 1
4 3 4 1
@<TRIPOS>MOLECULE
VAL281
7 6
SMALL
USER_CHARGES


@<TRIPOS>ATOM
1 N 66.2949981689453 25.0610008239746 44.2000007629395 N 0.0 **** 0.0
2 CA 65.0770034790039 24.4890003204346 43.6669998168945 C 0.0 **** 0.0
3 C 65.2710037231445 24.363000869751 42.1650009155273 C 0.0 **** 0.0
4 O 66.0830001831055 25.0669994354248 41.5579986572266 O 0.0 **** 0.0
5 CB 63.810001373291 25.3250007629395 43.9780006408691 C 0.0 **** 0.0
6 CG1 63.5979995727539 25.4750003814697 45.4910011291504 C 0.0 **** 0.0
7 CG2 63.8819999694824 26.6809997558594 43.3160018920898 C 0.0 **** 0.0
@<TRIPOS>BOND
1 1 2 1
2 2 5 1
3 2 3 1
4 3 4 1
5 5 7 1
6 5 6 1
@<TRIPOS>MOLECULE
GLU282
9 8
SMALL
USER_CHARGES


@<TRIPOS>ATOM
1 N 64.5309982299805 23.4400005340576 41.5830001831055 N 0.0 **** 0.0
2 CA 64.4359970092773 23.3369998931885 40.1310005187988 C 0.0 **** 0.0
3 C 63.2490005493164 24.1639995574951 39.6609992980957 C 0.0 **** 0.0
4 O 62.117000579834 23.8889999389648 40.0870018005371 O 0.0 **** 0.0
5 CB 64.2789993286133 21.8819999694824 39.7229995727539 C 0.0 **** 0.0
6 CG 65.5299987792969 21.0510005950928 40.0169982910156 C 0.0 **** 0.0
7 CD 65.3639984130859 19.568000793457 39.673999786377 C 0.0 **** 0.0
8 OE1 64.5530014038086 19.2150001525879 38.806999206543 O 0.0 **** 0.0
9 OE2 66.0439987182617 18.7450008392334 40.2799987792969 O 0.0 **** 0.0
@<TRIPOS>BOND
1 1 2 1
2 2 5 1
3 2 3 1
4 3 4 1
5 5 6 1
6 6 7 1
7 7 8 1
8 7 9 1
@<TRIPOS>MOLECULE
PRO283
7 7
SMALL
USER_CHARGES


@<TRIPOS>ATOM
1 N 63.4519996643066 25.1770000457764 38.8170013427734 N 0.0 **** 0.0
2 CA 62.3790016174316 26.1189994812012 38.5180015563965 C 0.0 **** 0.0
3 C 61.3339996337891 25.5499992370605 37.5740013122559 C 0.0 **** 0.0
4 O 61.6220016479492 24.7259998321533 36.6969985961914 O 0.0 **** 0.0
5 CB 63.1230010986328 27.2880001068115 37.8610000610352 C 0.0 **** 0.0
6 CG 64.3040008544922 26.6399993896484 37.1920013427734 C 0.0 **** 0.0
7 CD 64.7190017700195 25.5690002441406 38.1699981689453 C 0.0 **** 0.0
@<TRIPOS>BOND
1 1 2 1
2 1 7 1
3 2 5 1
4 2 3 1
5 3 4 1
6 5 6 1
7 6 7 1
@<TRIPOS>MOLECULE
TRP284
14 15
SMALL
USER_CHARGES


@<TRIPOS>ATOM
1 N 60.1189994812012 26.0550003051758 37.7379989624023 N 0.0 **** 0.0
2 CA 58.992000579834 25.7280006408691 36.875 C 0.0 **** 0.0
3 C 59.0029983520508 26.5970001220703 35.625 C 0.0 **** 0.0
4 O 59.1450004577637 27.826000213623 35.7140007019043 O 0.0 **** 0.0
5 CB 57.6749992370605 25.9330005645752 37.6419982910156 C 0.0 **** 0.0
6 CG 56.4370002746582 25.4710006713867 36.8790016174316 C 0.0 **** 0.0
7 CD1 55.7770004272461 24.2849998474121 37.0349998474121 C 0.0 **** 0.0
8 CD2 55.7519989013672 26.1730003356934 35.8300018310547 C 0.0 **** 0.0
9 NE1 54.7400016784668 24.1919994354248 36.1339988708496 N 0.0 **** 0.0
10 CE2 54.6949996948242 25.3409996032715 35.3919982910156 C 0.0 **** 0.0
11 CE3 55.9230003356934 27.4109992980957 35.2299995422363 C 0.0 **** 0.0
12 CZ2 53.8300018310547 25.7040004730225 34.3730010986328 C 0.0 **** 0.0
13 CZ3 55.0660018920898 27.7749996185303 34.2179985046387 C 0.0 **** 0.0
14 CH2 54.0219993591309 26.9179992675781 33.7980003356934 C 0.0 **** 0.0
@<TRIPOS>BOND
1 1 2 1
2 2 5 1
3 2 3 1
4 3 4 1
5 5 6 1
6 6 7 1
7 6 8 1
8 7 9 1
9 8 10 1
10 8 11 1
11 9 10 1
12 10 12 1
13 11 13 1
14 12 14 1
15 13 14 1
@<TRIPOS>MOLECULE
SER285
6 5
SMALL
USER_CHARGES


@<TRIPOS>ATOM
1 N 58.818000793457 25.9589996337891 34.4620018005371 N 0.0 **** 0.0
2 CA 58.4850006103516 26.6280002593994 33.2029991149902 C 0.0 **** 0.0
3 C 57.5279998779297 25.7409992218018 32.4199981689453 C 0.0 **** 0.0
4 O 57.3849983215332 24.5550003051758 32.7099990844727 O 0.0 **** 0.0
5 CB 59.7379989624023 26.8889999389648 32.3540000915527 C 0.0 **** 0.0
6 OG 60.3310012817383 25.628999710083 32.0069999694824 O 0.0 **** 0.0
@<TRIPOS>BOND
1 1 2 1
2 2 5 1
3 2 3 1
4 3 4 1
5 5 6 1
@<TRIPOS>MOLECULE
ALA286
5 4
SMALL
USER_CHARGES


@<TRIPOS>ATOM
1 N 56.9379997253418 26.2870006561279 31.3470001220703 N 0.0 **** 0.0
2 CA 56.1319999694824 25.4360008239746 30.4839992523193 C 0.0 **** 0.0
3 C 56.9720001220703 24.3150005340576 29.8850002288818 C 0.0 **** 0.0
4 O 56.4589996337891 23.2099990844727 29.6420001983643 O 0.0 **** 0.0
5 CB 55.4799995422363 26.2660007476807 29.3819999694824 C 0.0 **** 0.0
@<TRIPOS>BOND
1 1 2 1
2 2 3 1
3 2 5 1
4 3 4 1
@<TRIPOS>MOLECULE
GLU287
9 8
SMALL
USER_CHARGES


@<TRIPOS>ATOM
1 N 58.2649993896484 24.5769996643066 29.6319999694824 N 0.0 **** 0.0
2 CA 59.1279983520508 23.5480003356934 29.05299949646 C 0.0 **** 0.0
3 C 59.4500007629395 22.4740009307861 30.0739994049072 C 0.0 **** 0.0
4 O 59.5099983215332 21.2800006866455 29.738000869751 O 0.0 **** 0.0
5 CB 60.4280014038086 24.1700000762939 28.5109996795654 C 0.0 **** 0.0
6 CG 60.2060012817383 25.0459995269775 27.3129997253418 C 0.0 **** 0.0
7 CD 61.4039993286133 25.9220008850098 26.94700050354 C 0.0 **** 0.0
8 OE1 62.5089988708496 25.6679992675781 27.4780006408691 O 0.0 **** 0.0
9 OE2 61.2029991149902 26.8780002593994 26.128999710083 O 0.0 **** 0.0
@<TRIPOS>BOND
1 1 2 1
2 2 3 1
3 2 5 1
4 3 4 1
5 5 6 1
6 6 7 1
7 7 8 1
8 7 9 1
@<TRIPOS>MOLECULE
VAL288
7 6
SMALL
USER_CHARGES


@<TRIPOS>ATOM
1 N 59.701000213623 22.8780002593994 31.3129997253418 N 0.0 **** 0.0
2 CA 60.109001159668 21.9540004730225 32.3600006103516 C 0.0 **** 0.0
3 C 59.2369995117188 22.2649993896484 33.576000213623 C 0.0 **** 0.0
4 O 59.6419982910156 23.05299949646 34.4519996643066 O 0.0 **** 0.0
5 CB 61.6069984436035 22.0699996948242 32.6749992370605 C 0.0 **** 0.0
6 CG1 61.9900016784668 20.9890003204346 33.6749992370605 C 0.0 **** 0.0
7 CG2 62.4420013427734 21.9669990539551 31.3920001983643 C 0.0 **** 0.0
@<TRIPOS>BOND
1 1 2 1
2 2 5 1
3 2 3 1
4 3 4 1
5 5 7 1
6 5 6 1
@<TRIPOS>MOLECULE
PRO289
7 7
SMALL
USER_CHARGES


@<TRIPOS>ATOM
1 N 58.0130004882813 21.6979999542236 33.6440010070801 N 0.0 **** 0.0
2 CA 57.0190010070801 22.0909996032715 34.6609992980957 C 0.0 **** 0.0
3 C 57.2379989624023 21.3880004882813 35.9980010986328 C 0.0 **** 0.0
4 O 56.3889999389648 20.632999420166 36.5029983520508 O 0.0 **** 0.0
5 CB 55.6949996948242 21.7169990539551 33.9790000915527 C 0.0 **** 0.0
6 CG 56.0270004272461 20.5480003356934 33.1290016174316 C 0.0 **** 0.0
7 CD 57.4309997558594 20.8120002746582 32.6119995117188 C 0.0 **** 0.0
@<TRIPOS>BOND
1 1 2 1
2 1 7 1
3 2 5 1
4 2 3 1
5 3 4 1
6 5 6 1
7 6 7 1
@<TRIPOS>MOLECULE
LYS290
9 8
SMALL
USER_CHARGES


@<TRIPOS>ATOM
1 N 58.4189987182617 21.6009998321533 36.564998626709 N 0.0 **** 0.0
2 CA 58.7470016479492 21.0209999084473 37.8709983825684 C 0.0 **** 0.0
3 C 57.7820014953613 21.4979991912842 38.943000793457 C 0.0 **** 0.0
4 O 57.6230010986328 22.7000007629395 39.1730003356934 O 0.0 **** 0.0
5 CB 60.1769981384277 21.3840007781982 38.2680015563965 C 0.0 **** 0.0
6 CG 60.5940017700195 20.8649997711182 39.6669998168945 C 0.0 **** 0.0
7 CD 60.6549987792969 19.3339996337891 39.7449989318848 C 0.0 **** 0.0
8 CE 61.2280006408691 18.886999130249 41.0589981079102 C 0.0 **** 0.0
9 NZ 61.2490005493164 17.4090003967285 41.1380004882813 N 0.0 **** 0.0
@<TRIPOS>BOND
1 1 2 1
2 2 5 1
3 2 3 1
4 3 4 1
5 5 6 1
6 6 7 1
7 7 8 1
8 8 9 1
@<TRIPOS>MOLECULE
LEU291
8 7
SMALL
USER_CHARGES


@<TRIPOS>ATOM
1 N 57.1969985961914 20.5470008850098 39.6529998779297 N 0.0 **** 0.0
2 CA 56.273998260498 20.8209991455078 40.7439994812012 C 0.0 **** 0.0
3 C 56.6940002441406 20.0370006561279 41.9700012207031 C 0.0 **** 0.0
4 O 57.0169982910156 18.8519992828369 41.8810005187988 O 0.0 **** 0.0
5 CB 54.8470001220703 20.423999786377 40.3759994506836 C 0.0 **** 0.0
6 CG 54.1980018615723 21.2269992828369 39.2630004882813 C 0.0 **** 0.0
7 CD1 52.9099998474121 20.5629997253418 38.8400001525879 C 0.0 **** 0.0
8 CD2 53.9220008850098 22.673999786377 39.7249984741211 C 0.0 **** 0.0
@<TRIPOS>BOND
1 1 2 1
2 2 3 1
3 2 5 1
4 3 4 1
5 5 6 1
6 6 7 1
7 6 8 1
@<TRIPOS>MOLECULE
TYR292
12 12
SMALL
USER_CHARGES


@<TRIPOS>ATOM
1 N 56.6570014953613 20.6900005340576 43.1209983825684 N 0.0 **** 0.0
2 CA 56.9339981079102 20.0370006561279 44.3950004577637 C 0.0 **** 0.0
3 C 55.6440010070801 19.8330001831055 45.1689987182617 C 0.0 **** 0.0
4 O 54.9029998779297 20.7859992980957 45.3930015563965 O 0.0 **** 0.0
5 CB 57.8950004577637 20.878999710083 45.2220001220703 C 0.0 **** 0.0
6 CG 59.2509994506836 21.0699996948242 44.5880012512207 C 0.0 **** 0.0
7 CD1 60.2750015258789 20.17799949646 44.8450012207031 C 0.0 **** 0.0
8 CD2 59.4980010986328 22.1359996795654 43.7280006408691 C 0.0 **** 0.0
9 CE1 61.515998840332 20.3449993133545 44.2859992980957 C 0.0 **** 0.0
10 CE2 60.7729988098145 22.3199996948242 43.1720008850098 C 0.0 **** 0.0
11 CZ 61.7639999389648 21.4060001373291 43.4580001831055 C 0.0 **** 0.0
12 OH 63.0419998168945 21.5100002288818 42.943000793457 O 0.0 **** 0.0
@<TRIPOS>BOND
1 1 2 1
2 2 3 1
3 2 5 1
4 3 4 1
5 5 6 1
6 6 7 1
7 6 8 1
8 7 9 1
9 8 10 1
10 9 11 1
11 10 11 1
12 11 12 1
@<TRIPOS>MOLECULE
GLU293
9 8
SMALL
USER_CHARGES


@<TRIPOS>ATOM
1 N 55.3959999084473 18.6060009002686 45.6110000610352 N 0.0 **** 0.0
2 CA 54.2050018310547 18.3460006713867 46.4059982299805 C 0.0 **** 0.0
3 C 54.3849983215332 18.9459991455078 47.7900009155273 C 0.0 **** 0.0
4 O 55.476001739502 18.8889999389648 48.3810005187988 O 0.0 **** 0.0
5 CB 53.9199981689453 16.8409996032715 46.5410003662109 C 0.0 **** 0.0
6 CG 53.7379989624023 16.113000869751 45.2089996337891 C 0.0 **** 0.0
7 CD 52.5299987792969 16.5909996032715 44.3959999084473 C 0.0 **** 0.0
8 OE1 51.431999206543 16.7099990844727 44.9770011901855 O 0.0 **** 0.0
9 OE2 52.6769981384277 16.8439998626709 43.1669998168945 O 0.0 **** 0.0
@<TRIPOS>BOND
1 1 2 1
2 2 3 1
3 2 5 1
4 3 4 1
5 5 6 1
6 6 7 1
7 7 8 1
8 7 9 1
@<TRIPOS>MOLECULE
ALA294
5 4
SMALL
USER_CHARGES


@<TRIPOS>ATOM
1 N 53.306999206543 19.5240001678467 48.2900009155273 N 0.0 **** 0.0
2 CA 53.3409996032715 20.1840000152588 49.5999984741211 C 0.0 **** 0.0
3 C 51.9739990234375 20.0890007019043 50.2610015869141 C 0.0 **** 0.0
4 O 51.0340003967285 19.7040004730225 49.617000579834 O 0.0 **** 0.0
5 CB 53.7770004272461 21.6100006103516 49.4609985351563 C 0.0 **** 0.0
@<TRIPOS>BOND
1 1 2 1
2 2 5 1
3 2 3 1
4 3 4 1
@<TRIPOS>MOLECULE
ALA295
5 4
SMALL
USER_CHARGES


@<TRIPOS>ATOM
1 N 51.9539985656738 20.3519992828369 51.5559997558594 N 0.0 **** 0.0
2 CA 50.6969985961914 20.3579998016357 52.314998626709 C 0.0 **** 0.0
3 C 50.7980003356934 21.4629993438721 53.3499984741211 C 0.0 **** 0.0
4 O 51.8639984130859 21.673999786377 53.8610000610352 O 0.0 **** 0.0
5 CB 50.492000579834 19.0270004272461 52.9720001220703 C 0.0 **** 0.0
@<TRIPOS>BOND
1 1 2 1
2 2 3 1
3 2 5 1
4 3 4 1
@<TRIPOS>MOLECULE
VAL296
7 6
SMALL
USER_CHARGES


@<TRIPOS>ATOM
1 N 49.6980018615723 22.1420001983643 53.6080017089844 N 0.0 **** 0.0
2 CA 49.6699981689453 23.1590003967285 54.6860008239746 C 0.0 **** 0.0
3 C 48.5870018005371 22.6480007171631 55.6310005187988 C 0.0 **** 0.0
4 O 47.484001159668 22.4330005645752 55.1920013427734 O 0.0 **** 0.0
5 CB 49.4620018005371 24.5860004425049 54.1539993286133 C 0.0 **** 0.0
6 CG1 48.4049987792969 24.6480007171631 53.0870018005371 C 0.0 **** 0.0
7 CG2 49.2360000610352 25.5930004119873 55.2649993896484 C 0.0 **** 0.0
@<TRIPOS>BOND
1 1 2 1
2 2 5 1
3 2 3 1
4 3 4 1
5 5 6 1
6 5 7 1
@<TRIPOS>MOLECULE
SER297
6 5
SMALL
USER_CHARGES


@<TRIPOS>ATOM
1 N 48.9490013122559 22.4549999237061 56.8919982910156 N 0.0 **** 0.0
2 CA 48.0289993286133 21.7569999694824 57.8110008239746 C 0.0 **** 0.0
3 C 47.7389984130859 22.5440006256104 59.0800018310547 C 0.0 **** 0.0
4 O 48.640998840332 23.1119995117188 59.6360015869141 O 0.0 **** 0.0
5 CB 48.6389999389648 20.4349994659424 58.185001373291 C 0.0 **** 0.0
6 OG 48.8899993896484 19.6450004577637 57.048999786377 O 0.0 **** 0.0
@<TRIPOS>BOND
1 1 2 1
2 2 3 1
3 2 5 1
4 3 4 1
5 5 6 1
@<TRIPOS>MOLECULE
ALA298
5 4
SMALL
USER_CHARGES


@<TRIPOS>ATOM
1 N 46.4720001220703 22.5939998626709 59.4360008239746 N 0.0 **** 0.0
2 CA 46.0470008850098 23.0550003051758 60.7449989318848 C 0.0 **** 0.0
3 C 45.4770011901855 21.8560009002686 61.4990005493164 C 0.0 **** 0.0
4 O 45.4169998168945 20.7409992218018 60.9729995727539 O 0.0 **** 0.0
5 CB 45.0369987487793 24.2019996643066 60.6040000915527 C 0.0 **** 0.0
@<TRIPOS>BOND
1 1 2 1
2 2 3 1
3 2 5 1
4 3 4 1
@<TRIPOS>MOLECULE
ALA299
5 4
SMALL
USER_CHARGES


@<TRIPOS>ATOM
1 N 45.0690002441406 22.076000213623 62.7490005493164 N 0.0 **** 0.0
2 CA 44.576000213623 20.9589996337891 63.5460014343262 C 0.0 **** 0.0
3 C 43.4259986877441 20.2360000610352 62.8540000915527 C 0.0 **** 0.0
4 O 43.3170013427734 19.0100002288818 62.9490013122559 O 0.0 **** 0.0
5 CB 44.132999420166 21.431999206543 64.9449996948242 C 0.0 **** 0.0
@<TRIPOS>BOND
1 1 2 1
2 2 3 1
3 2 5 1
4 3 4 1
@<TRIPOS>MOLECULE
GLY300
4 3
SMALL
USER_CHARGES


@<TRIPOS>ATOM
1 N 42.5439987182617 20.9650001525879 62.1769981384277 N 0.0 **** 0.0
2 CA 41.3110008239746 20.3500003814697 61.7220001220703 C 0.0 **** 0.0
3 C 41.1879997253418 20.1389999389648 60.2229995727539 C 0.0 **** 0.0
4 O 40.1660003662109 19.6240005493164 59.7550010681152 O 0.0 **** 0.0
@<TRIPOS>BOND
1 1 2 1
2 2 3 1
3 3 4 1
@<TRIPOS>MOLECULE
GLU301
9 8
SMALL
USER_CHARGES


@<TRIPOS>ATOM
1 N 42.2050018310547 20.5310001373291 59.4529991149902 N 0.0 **** 0.0
2 CA 42.1150016784668 20.4330005645752 58.0040016174316 C 0.0 **** 0.0
3 C 43.5089988708496 20.5450000762939 57.4070014953613 C 0.0 **** 0.0
4 O 44.3470001220703 21.2950000762939 57.9199981689453 O 0.0 **** 0.0
5 CB 41.2109985351563 21.5389995574951 57.4440002441406 C 0.0 **** 0.0
6 CG 40.8330001831055 21.4029998779297 55.939998626709 C 0.0 **** 0.0
7 CD 39.7939987182617 22.4419994354248 55.5009994506836 C 0.0 **** 0.0
8 OE1 39.3919982910156 23.2840003967285 56.3359985351563 O 0.0 **** 0.0
9 OE2 39.3460006713867 22.4029998779297 54.3279991149902 O 0.0 **** 0.0
@<TRIPOS>BOND
1 1 2 1
2 2 5 1
3 2 3 1
4 3 4 1
5 5 6 1
6 6 7 1
7 7 8 1
8 7 9 1
@<TRIPOS>MOLECULE
SER302
6 5
SMALL
USER_CHARGES


@<TRIPOS>ATOM
1 N 43.7449989318848 19.8099994659424 56.3089981079102 N 0.0 **** 0.0
2 CA 45.0050010681152 19.8169994354248 55.5810012817383 C 0.0 **** 0.0
3 C 44.7220001220703 20.0480003356934 54.0999984741211 C 0.0 **** 0.0
4 O 43.7840003967285 19.4680004119873 53.5439987182617 O 0.0 **** 0.0
5 CB 45.7400016784668 18.4939994812012 55.7999992370605 C 0.0 **** 0.0
6 OG 47.0009994506836 18.5389995574951 55.1720008850098 O 0.0 **** 0.0
@<TRIPOS>BOND
1 1 2 1
2 2 5 1
3 2 3 1
4 3 4 1
5 5 6 1
@<TRIPOS>MOLECULE
VAL303
7 6
SMALL
USER_CHARGES


@<TRIPOS>ATOM
1 N 45.523998260498 20.9139995574951 53.4780006408691 N 0.0 **** 0.0
2 CA 45.3730010986328 21.2880001068115 52.0750007629395 C 0.0 **** 0.0
3 C 46.5830001831055 20.7810001373291 51.3139991760254 C 0.0 **** 0.0
4 O 47.7280006408691 20.988000869751 51.7389984130859 O 0.0 **** 0.0
5 CB 45.2319984436035 22.8129997253418 51.9389991760254 C 0.0 **** 0.0
6 CG1 45.4440002441406 23.2830009460449 50.4930000305176 C 0.0 **** 0.0
7 CG2 43.8800010681152 23.2940006256104 52.4770011901855 C 0.0 **** 0.0
@<TRIPOS>BOND
1 1 2 1
2 2 3 1
3 2 5 1
4 3 4 1
5 5 6 1
6 5 7 1
@<TRIPOS>MOLECULE
ALA304
5 4
SMALL
USER_CHARGES


@<TRIPOS>ATOM
1 N 46.3440017700195 20.1630001068115 50.1679992675781 N 0.0 **** 0.0
2 CA 47.4150009155273 19.6229991912842 49.3440017700195 C 0.0 **** 0.0
3 C 47.7060012817383 20.5879993438721 48.1920013427734 C 0.0 **** 0.0
4 O 46.7760009765625 21.0690002441406 47.5400009155273 O 0.0 **** 0.0
5 CB 47.0260009765625 18.238000869751 48.8170013427734 C 0.0 **** 0.0
@<TRIPOS>BOND
1 1 2 1
2 2 3 1
3 2 5 1
4 3 4 1
@<TRIPOS>MOLECULE
LEU305
8 7
SMALL
USER_CHARGES


@<TRIPOS>ATOM
1 N 48.9889984130859 20.8810005187988 47.9589996337891 N 0.0 **** 0.0
2 CA 49.3950004577637 21.8840007781982 46.9809989929199 C 0.0 **** 0.0
3 C 50.4679985046387 21.3190002441406 46.0769996643066 C 0.0 **** 0.0
4 O 51.2270011901855 20.4389991760254 46.4739990234375 O 0.0 **** 0.0
5 CB 49.9720001220703 23.1259994506836 47.6520004272461 C 0.0 **** 0.0
6 CG 49.0900001525879 23.8360004425049 48.6679992675781 C 0.0 **** 0.0
7 CD1 49.9440002441406 24.7639999389648 49.5379981994629 C 0.0 **** 0.0
8 CD2 48.0359992980957 24.6019992828369 47.9309997558594 C 0.0 **** 0.0
@<TRIPOS>BOND
1 1 2 1
2 2 5 1
3 2 3 1
4 3 4 1
5 5 6 1
6 6 7 1
7 6 8 1
@<TRIPOS>MOLECULE
GLN306
9 8
SMALL
USER_CHARGES


@<TRIPOS>ATOM
1 N 50.5369987487793 21.8530006408691 44.8540000915527 N 0.0 **** 0.0
2 CA 51.6780014038086 21.6280002593994 43.976001739502 C 0.0 **** 0.0
3 C 52.3610000610352 22.9619998931885 43.7430000305176 C 0.0 **** 0.0
4 O 51.7330017089844 23.9060001373291 43.2620010375977 O 0.0 **** 0.0
5 CB 51.2439994812012 20.9899997711182 42.6570014953613 C 0.0 **** 0.0
6 CG 50.6450004577637 19.6000003814697 42.8359985351563 C 0.0 **** 0.0
7 CD 50.3009986877441 18.9610004425049 41.492000579834 C 0.0 **** 0.0
8 OE1 49.5519981384277 19.5219993591309 40.7050018310547 O 0.0 **** 0.0
9 NE2 50.882999420166 17.7910003662109 41.2169990539551 N 0.0 **** 0.0
@<TRIPOS>BOND
1 1 2 1
2 2 3 1
3 2 5 1
4 3 4 1
5 5 6 1
6 6 7 1
7 7 9 1
8 7 8 1
@<TRIPOS>MOLECULE
ILE307
8 7
SMALL
USER_CHARGES


@<TRIPOS>ATOM
1 N 53.6279983520508 23.056999206543 44.1059989929199 N 0.0 **** 0.0
2 CA 54.3170013427734 24.3390007019043 44.1160011291504 C 0.0 **** 0.0
3 C 55.306999206543 24.3430004119873 42.9589996337891 C 0.0 **** 0.0
4 O 56.1749992370605 23.4699993133545 42.8810005187988 O 0.0 **** 0.0
5 CB 55.0320014953613 24.5830001831055 45.4500007629395 C 0.0 **** 0.0
6 CG1 54.007999420166 24.6809997558594 46.5719985961914 C 0.0 **** 0.0
7 CG2 55.8580017089844 25.8460006713867 45.4020004272461 C 0.0 **** 0.0
8 CD1 54.5740013122559 24.7900009155273 47.9780006408691 C 0.0 **** 0.0
@<TRIPOS>BOND
1 1 2 1
2 2 3 1
3 2 5 1
4 3 4 1
5 5 6 1
6 5 7 1
7 6 8 1
@<TRIPOS>MOLECULE
GLY308
4 3
SMALL
USER_CHARGES


@<TRIPOS>ATOM
1 N 55.1790008544922 25.3290004730225 42.0699996948242 N 0.0 **** 0.0
2 CA 56.1809997558594 25.5590000152588 41.056999206543 C 0.0 **** 0.0
3 C 56.8769989013672 26.863000869751 41.3429985046387 C 0.0 **** 0.0
4 O 56.2200012207031 27.8969993591309 41.4939994812012 O 0.0 **** 0.0
@<TRIPOS>BOND
1 1 2 1
2 2 3 1
3 3 4 1
@<TRIPOS>MOLECULE
PHE309
11 11
SMALL
USER_CHARGES


@<TRIPOS>ATOM
1 N 58.193000793457 26.8360004425049 41.4659996032715 N 0.0 **** 0.0
2 CA 58.9440002441406 28.0429992675781 41.773998260498 C 0.0 **** 0.0
3 C 59.2550010681152 28.7490005493164 40.4650001525879 C 0.0 **** 0.0
4 O 59.9259986877441 28.1760005950928 39.6139984130859 O 0.0 **** 0.0
5 CB 60.2379989624023 27.6979999542236 42.4980010986328 C 0.0 **** 0.0
6 CG 60.0439987182617 27.1919994354248 43.8779983520508 C 0.0 **** 0.0
7 CD1 59.8289985656738 25.8439998626709 44.1129989624023 C 0.0 **** 0.0
8 CD2 60.0839996337891 28.0550003051758 44.9469985961914 C 0.0 **** 0.0
9 CE1 59.6629981994629 25.3740005493164 45.4070014953613 C 0.0 **** 0.0
10 CE2 59.9129981994629 27.5769996643066 46.2529983520508 C 0.0 **** 0.0
11 CZ 59.6920013427734 26.2509994506836 46.4580001831055 C 0.0 **** 0.0
@<TRIPOS>BOND
1 1 2 1
2 2 5 1
3 2 3 1
4 3 4 1
5 5 6 1
6 6 8 1
7 6 7 1
8 7 9 1
9 8 10 1
10 9 11 1
11 10 11 1
@<TRIPOS>MOLECULE
ARG310
11 10
SMALL
USER_CHARGES


@<TRIPOS>ATOM
1 N 58.7980003356934 29.9890003204346 40.3269996643066 N 0.0 **** 0.0
2 CA 59.0929985046387 30.7700004577637 39.1399993896484 C 0.0 **** 0.0
3 C 58.7890014648438 32.2190017700195 39.4599990844727 C 0.0 **** 0.0
4 O 57.8380012512207 32.5139999389648 40.189998626709 O 0.0 **** 0.0
5 CB 58.2840003967285 30.2709999084473 37.9440002441406 C 0.0 **** 0.0
6 CG 56.7550010681152 30.2719993591309 38.109001159668 C 0.0 **** 0.0
7 CD 56.1150016784668 31.4810009002686 37.5029983520508 C 0.0 **** 0.0
8 NE 54.6650009155273 31.576000213623 37.7569999694824 N 0.0 **** 0.0
9 CZ 54.109001159668 32.2680015563965 38.7410011291504 C 0.0 **** 0.0
10 NH1 54.8779983520508 32.9129981994629 39.6199989318848 N 0.0 **** 0.0
11 NH2 52.7840003967285 32.298999786377 38.8639984130859 N 0.0 **** 0.0
@<TRIPOS>BOND
1 1 2 1
2 2 3 1
3 2 5 1
4 3 4 1
5 5 6 1
6 6 7 1
7 7 8 1
8 8 9 1
9 9 10 1
10 9 11 1
@<TRIPOS>MOLECULE
SER311
6 5
SMALL
USER_CHARGES


@<TRIPOS>ATOM
1 N 59.5890007019043 33.1199989318848 38.9119987487793 N 0.0 **** 0.0
2 CA 59.3580017089844 34.5470008850098 39.0550003051758 C 0.0 **** 0.0
3 C 59.1910018920898 35.1769981384277 37.685001373291 C 0.0 **** 0.0
4 O 59.8330001831055 34.7610015869141 36.7140007019043 O 0.0 **** 0.0
5 CB 60.4910011291504 35.1940002441406 39.7960014343262 C 0.0 **** 0.0
6 OG 60.4869995117188 34.7459983825684 41.1440010070801 O 0.0 **** 0.0
@<TRIPOS>BOND
1 1 2 1
2 2 5 1
3 2 3 1
4 3 4 1
5 5 6 1
@<TRIPOS>MOLECULE
ILE312
8 7
SMALL
USER_CHARGES


@<TRIPOS>ATOM
1 N 58.3240013122559 36.1829986572266 37.6189994812012 N 0.0 **** 0.0
2 CA 57.9790000915527 36.8709983825684 36.3790016174316 C 0.0 **** 0.0
3 C 58.4220008850098 38.3059997558594 36.5349998474121 C 0.0 **** 0.0
4 O 58.1949996948242 38.9220008850098 37.5830001831055 O 0.0 **** 0.0
5 CB 56.4640007019043 36.8110008239746 36.117000579834 C 0.0 **** 0.0
6 CG1 55.9669990539551 35.3629989624023 36.1510009765625 C 0.0 **** 0.0
7 CG2 56.1110000610352 37.4860000610352 34.8089981079102 C 0.0 **** 0.0
8 CD1 54.5219993591309 35.2099990844727 36.6020011901855 C 0.0 **** 0.0
@<TRIPOS>BOND
1 1 2 1
2 2 5 1
3 2 3 1
4 3 4 1
5 5 6 1
6 5 7 1
7 6 8 1
@<TRIPOS>MOLECULE
ALA313
5 4
SMALL
USER_CHARGES


@<TRIPOS>ATOM
1 N 59.068000793457 38.8359985351563 35.5139999389648 N 0.0 **** 0.0
2 CA 59.5439987182617 40.2080001831055 35.5750007629395 C 0.0 **** 0.0
3 C 59.4710006713867 40.8359985351563 34.1920013427734 C 0.0 **** 0.0
4 O 59.6949996948242 40.173999786377 33.1790008544922 O 0.0 **** 0.0
5 CB 60.9700012207031 40.2529983520508 36.0870018005371 C 0.0 **** 0.0
@<TRIPOS>BOND
1 1 2 1
2 2 3 1
3 2 5 1
4 3 4 1
@<TRIPOS>MOLECULE
ILE314
8 7
SMALL
USER_CHARGES


@<TRIPOS>ATOM
1 N 59.1749992370605 42.1269989013672 34.1599998474121 N 0.0 **** 0.0
2 CA 59.2649993896484 42.9150009155273 32.9389991760254 C 0.0 **** 0.0
3 C 60.4830017089844 43.814998626709 33.0530014038086 C 0.0 **** 0.0
4 O 60.6220016479492 44.5690002441406 34.0110015869141 O 0.0 **** 0.0
5 CB 57.9790000915527 43.701000213623 32.7029991149902 C 0.0 **** 0.0
6 CG1 56.8720016479492 42.6619987487793 32.3969993591309 C 0.0 **** 0.0
7 CG2 58.1870002746582 44.7270011901855 31.5650005340576 C 0.0 **** 0.0
8 CD1 55.5419998168945 43.1599998474121 32.5929985046387 C 0.0 **** 0.0
@<TRIPOS>BOND
1 1 2 1
2 2 5 1
3 2 3 1
4 3 4 1
5 5 7 1
6 5 6 1
7 6 8 1
@<TRIPOS>MOLECULE
GLU315
9 8
SMALL
USER_CHARGES


@<TRIPOS>ATOM
1 N 61.3919982910156 43.681999206543 32.1030006408691 N 0.0 **** 0.0
2 CA 62.701000213623 44.306999206543 32.1650009155273 C 0.0 **** 0.0
3 C 63.1629981994629 44.5559997558594 30.7399997711182 C 0.0 **** 0.0
4 O 63.0769996643066 43.6549987792969 29.9020004272461 O 0.0 **** 0.0
5 CB 63.6609992980957 43.3800010681152 32.9150009155273 C 0.0 **** 0.0
6 CG 65.1029968261719 43.5209999084473 32.6259994506836 C 0.0 **** 0.0
7 CD 65.9580001831055 42.6399993896484 33.560001373291 C 0.0 **** 0.0
8 OE1 66.1660003662109 43.0270004272461 34.7290000915527 O 0.0 **** 0.0
9 OE2 66.4039993286133 41.5550003051758 33.1279983520508 O 0.0 **** 0.0
@<TRIPOS>BOND
1 1 2 1
2 2 5 1
3 2 3 1
4 3 4 1
5 5 6 1
6 6 7 1
7 7 8 1
8 7 9 1
@<TRIPOS>MOLECULE
ASP316
8 7
SMALL
USER_CHARGES


@<TRIPOS>ATOM
1 N 63.6290016174316 45.773998260498 30.4720001220703 N 0.0 **** 0.0
2 CA 64.1529998779297 46.1290016174316 29.1520004272461 C 0.0 **** 0.0
3 C 63.1370010375977 45.8139991760254 28.0629997253418 C 0.0 **** 0.0
4 O 63.4749984741211 45.3160018920898 26.9890003204346 O 0.0 **** 0.0
5 CB 65.4769973754883 45.4150009155273 28.8759994506836 C 0.0 **** 0.0
6 CG 66.5279998779297 45.6870002746582 29.9559993743896 C 0.0 **** 0.0
7 OD1 66.5449981689453 46.8019981384277 30.5139999389648 O 0.0 **** 0.0
8 OD2 67.3349990844727 44.7770004272461 30.2469997406006 O 0.0 **** 0.0
@<TRIPOS>BOND
1 1 2 1
2 2 5 1
3 2 3 1
4 3 4 1
5 5 6 1
6 6 7 1
7 6 8 1
@<TRIPOS>MOLECULE
ALA317
5 4
SMALL
USER_CHARGES


@<TRIPOS>ATOM
1 N 61.8699989318848 46.109001159668 28.3470001220703 N 0.0 **** 0.0
2 CA 60.7840003967285 45.9459991455078 27.3729991912842 C 0.0 **** 0.0
3 C 60.601001739502 44.4900016784668 26.9650001525879 C 0.0 **** 0.0
4 O 60.1469993591309 44.1910018920898 25.8500003814697 O 0.0 **** 0.0
5 CB 61.0149993896484 46.8339996337891 26.1350002288818 C 0.0 **** 0.0
@<TRIPOS>BOND
1 1 2 1
2 2 3 1
3 2 5 1
4 3 4 1
@<TRIPOS>MOLECULE
GLN318
9 8
SMALL
USER_CHARGES


@<TRIPOS>ATOM
1 N 60.9189987182617 43.5779991149902 27.8850002288818 N 0.0 **** 0.0
2 CA 60.7840003967285 42.1450004577637 27.6760005950928 C 0.0 **** 0.0
3 C 60.0400009155273 41.4910011291504 28.8409996032715 C 0.0 **** 0.0
4 O 60.2270011901855 41.8450012207031 30.007999420166 O 0.0 **** 0.0
5 CB 62.1389999389648 41.4830017089844 27.5319995880127 C 0.0 **** 0.0
6 CG 62.9300003051758 41.8889999389648 26.2759990692139 C 0.0 **** 0.0
7 CD 64.3740005493164 41.4910011291504 26.3759994506836 C 0.0 **** 0.0
8 OE1 64.7099990844727 40.3170013427734 26.4020004272461 O 0.0 **** 0.0
9 NE2 65.2460021972656 42.4850006103516 26.4790000915527 N 0.0 **** 0.0
@<TRIPOS>BOND
1 1 2 1
2 2 5 1
3 2 3 1
4 3 4 1
5 5 6 1
6 6 7 1
7 7 9 1
8 7 8 1
@<TRIPOS>MOLECULE
PHE319
11 11
SMALL
USER_CHARGES


@<TRIPOS>ATOM
1 N 59.2239990234375 40.5089988708496 28.5009994506836 N 0.0 **** 0.0
2 CA 58.5149993896484 39.6660003662109 29.4459991455078 C 0.0 **** 0.0
3 C 59.3839988708496 38.4560012817383 29.7670001983643 C 0.0 **** 0.0
4 O 59.6209983825684 37.6119995117188 28.9009990692139 O 0.0 **** 0.0
5 CB 57.1959991455078 39.2140007019043 28.8479995727539 C 0.0 **** 0.0
6 CG 56.2869987487793 38.5309982299805 29.8570003509521 C 0.0 **** 0.0
7 CD1 56.3870010375977 37.1759986877441 30.0960006713867 C 0.0 **** 0.0
8 CD2 55.3380012512207 39.2599983215332 30.5259990692139 C 0.0 **** 0.0
9 CE1 55.5439987182617 36.5349998474121 31.0090007781982 C 0.0 **** 0.0
10 CE2 54.4650001525879 38.6360015869141 31.4489994049072 C 0.0 **** 0.0
11 CZ 54.5900001525879 37.2569999694824 31.6679992675781 C 0.0 **** 0.0
@<TRIPOS>BOND
1 1 2 1
2 2 3 1
3 2 5 1
4 3 4 1
5 5 6 1
6 6 8 1
7 6 7 1
8 7 9 1
9 8 10 1
10 9 11 1
11 10 11 1
@<TRIPOS>MOLECULE
LYS320
9 8
SMALL
USER_CHARGES


@<TRIPOS>ATOM
1 N 59.8610000610352 38.3800010681152 31.007999420166 N 0.0 **** 0.0
2 CA 60.8190002441406 37.3650016784668 31.4060001373291 C 0.0 **** 0.0
3 C 60.2389984130859 36.4580001831055 32.4819984436035 C 0.0 **** 0.0
4 O 59.5499992370605 36.9090003967285 33.3959999084473 O 0.0 **** 0.0
5 CB 62.1129989624023 38.015998840332 31.9130001068115 C 0.0 **** 0.0
6 CG 62.8330001831055 38.8320007324219 30.8479995727539 C 0.0 **** 0.0
7 CD 64.193000793457 39.3240013122559 31.318000793457 C 0.0 **** 0.0
8 CE 64.8970031738281 40.1339988708496 30.2329998016357 C 0.0 **** 0.0
9 NZ 66.2689971923828 40.5620002746582 30.6730003356934 N 0.0 **** 0.0
@<TRIPOS>BOND
1 1 2 1
2 2 3 1
3 2 5 1
4 3 4 1
5 5 6 1
6 6 7 1
7 7 8 1
8 8 9 1
@<TRIPOS>MOLECULE
VAL321
7 6
SMALL
USER_CHARGES


@<TRIPOS>ATOM
1 N 60.5530014038086 35.181999206543 32.3839988708496 N 0.0 **** 0.0
2 CA 60.3160018920898 34.2280006408691 33.4490013122559 C 0.0 **** 0.0
3 C 61.6609992980957 33.6360015869141 33.8619995117188 C 0.0 **** 0.0
4 O 62.4580001831055 33.2239990234375 33.007999420166 O 0.0 **** 0.0
5 CB 59.3419990539551 33.1389999389648 32.984001159668 C 0.0 **** 0.0
6 CG1 59.2050018310547 32.056999206543 34.0369987487793 C 0.0 **** 0.0
7 CG2 57.9930000305176 33.7770004272461 32.6300010681152 C 0.0 **** 0.0
@<TRIPOS>BOND
1 1 2 1
2 2 5 1
3 2 3 1
4 3 4 1
5 5 7 1
6 5 6 1
@<TRIPOS>MOLECULE
ASN322
8 7
SMALL
USER_CHARGES


@<TRIPOS>ATOM
1 N 61.9220008850098 33.6279983520508 35.1609992980957 N 0.0 **** 0.0
2 CA 63.1440010070801 33.0480003356934 35.7019996643066 C 0.0 **** 0.0
3 C 64.375 33.6349983215332 35.0449981689453 C 0.0 **** 0.0
4 O 65.3840026855469 32.9480018615723 34.8079986572266 O 0.0 **** 0.0
5 CB 63.0960006713867 31.5410003662109 35.5769996643066 C 0.0 **** 0.0
6 CG 61.9150009155273 30.9540004730225 36.3479995727539 C 0.0 **** 0.0
7 OD1 61.4309997558594 31.5669994354248 37.3129997253418 O 0.0 **** 0.0
8 ND2 61.451000213623 29.7859992980957 35.9440002441406 N 0.0 **** 0.0
@<TRIPOS>BOND
1 1 2 1
2 2 5 1
3 2 3 1
4 3 4 1
5 5 6 1
6 6 8 1
7 6 7 1
@<TRIPOS>MOLECULE
GLY323
4 3
SMALL
USER_CHARGES


@<TRIPOS>ATOM
1 N 64.3050003051758 34.9379997253418 34.7669982910156 N 0.0 **** 0.0
2 CA 65.4540023803711 35.6440010070801 34.3019981384277 C 0.0 **** 0.0
3 C 65.6350021362305 35.632999420166 32.7900009155273 C 0.0 **** 0.0
4 O 66.5879974365234 36.2459983825684 32.306999206543 O 0.0 **** 0.0
@<TRIPOS>BOND
1 1 2 1
2 2 3 1
3 3 4 1
@<TRIPOS>MOLECULE
ARG324
11 10
SMALL
USER_CHARGES


@<TRIPOS>ATOM
1 N 64.7429962158203 34.9679985046387 32.0379981994629 N 0.0 **** 0.0
2 CA 64.8830032348633 34.8349990844727 30.5909996032715 C 0.0 **** 0.0
3 C 63.6240005493164 35.2869987487793 29.875 C 0.0 **** 0.0
4 O 62.5069999694824 34.9970016479492 30.3059997558594 O 0.0 **** 0.0
5 CB 65.1829986572266 33.398998260498 30.2070007324219 C 0.0 **** 0.0
6 CG 66.4940032958984 32.9519996643066 30.818000793457 C 0.0 **** 0.0
7 CD 66.859001159668 31.6000003814697 30.3880004882813 C 0.0 **** 0.0
8 NE 67.786003112793 30.9659996032715 31.326000213623 N 0.0 **** 0.0
9 CZ 68.2990036010742 29.753999710083 31.1560001373291 C 0.0 **** 0.0
10 NH1 67.9909973144531 29.048999786377 30.0729999542236 N 0.0 **** 0.0
11 NH2 69.1279983520508 29.2600002288818 32.0709991455078 N 0.0 **** 0.0
@<TRIPOS>BOND
1 1 2 1
2 2 3 1
3 2 5 1
4 3 4 1
5 5 6 1
6 6 7 1
7 7 8 1
8 8 9 1
9 9 11 1
10 9 10 1
@<TRIPOS>MOLECULE
ARG325
11 10
SMALL
USER_CHARGES


@<TRIPOS>ATOM
1 N 63.8269996643066 35.9900016784668 28.7689990997314 N 0.0 **** 0.0
2 CA 62.7379989624023 36.2830009460449 27.8579998016357 C 0.0 **** 0.0
3 C 62.1720008850098 34.976001739502 27.3330001831055 C 0.0 **** 0.0
4 O 62.9259986877441 34.0800018310547 26.9479999542236 O 0.0 **** 0.0
5 CB 63.25 37.140998840332 26.6919994354248 C 0.0 **** 0.0
6 CG 62.2109985351563 37.3639984130859 25.5939998626709 C 0.0 **** 0.0
7 CD 62.810001373291 38.1629981994629 24.4669990539551 C 0.0 **** 0.0
8 NE 63.806999206543 37.4140014648438 23.6959991455078 N 0.0 **** 0.0
9 CZ 65.1389999389648 37.5719985961914 23.7259998321533 C 0.0 **** 0.0
10 NH1 65.7350006103516 38.4599990844727 24.5200004577637 N 0.0 **** 0.0
11 NH2 65.8980026245117 36.8110008239746 22.9400005340576 N 0.0 **** 0.0
@<TRIPOS>BOND
1 1 2 1
2 2 5 1
3 2 3 1
4 3 4 1
5 5 6 1
6 6 7 1
7 7 8 1
8 8 9 1
9 9 11 1
10 9 10 1
@<TRIPOS>MOLECULE
ILE326
8 7
SMALL
USER_CHARGES


@<TRIPOS>ATOM
1 N 60.8470001220703 34.8549995422363 27.3099994659424 N 0.0 **** 0.0
2 CA 60.2290000915527 33.6510009765625 26.757999420166 C 0.0 **** 0.0
3 C 59.492000579834 34.0 25.4710006713867 C 0.0 **** 0.0
4 O 59.1220016479492 35.1370010375977 25.2280006408691 O 0.0 **** 0.0
5 CB 59.2709999084473 32.9790000915527 27.7569999694824 C 0.0 **** 0.0
6 CG1 58.1669998168945 33.9659996032715 28.1630001068115 C 0.0 **** 0.0
7 CG2 60.0439987182617 32.4630012512207 28.9820003509521 C 0.0 **** 0.0
8 CD1 57.0340003967285 33.3390007019043 28.9479999542236 C 0.0 **** 0.0
@<TRIPOS>BOND
1 1 2 1
2 2 5 1
3 2 3 1
4 3 4 1
5 5 6 1
6 5 7 1
7 6 8 1
@<TRIPOS>MOLECULE
LEU327
8 7
SMALL
USER_CHARGES


@<TRIPOS>ATOM
1 N 59.2459983825684 32.9780006408691 24.6609992980957 N 0.0 **** 0.0
2 CA 58.4199981689453 33.1069984436035 23.4640007019043 C 0.0 **** 0.0
3 C 57.125 32.3339996337891 23.6949996948242 C 0.0 **** 0.0
4 O 57.1539993286133 31.1189994812012 23.923999786377 O 0.0 **** 0.0
5 CB 59.1710014343262 32.5859985351563 22.2329998016357 C 0.0 **** 0.0
6 CG 58.3209991455078 32.5540008544922 20.9589996337891 C 0.0 **** 0.0
7 CD1 57.7900009155273 33.9469985961914 20.6410007476807 C 0.0 **** 0.0
8 CD2 59.1679992675781 32.0289993286133 19.8090000152588 C 0.0 **** 0.0
@<TRIPOS>BOND
1 1 2 1
2 2 5 1
3 2 3 1
4 3 4 1
5 5 6 1
6 6 8 1
7 6 7 1
@<TRIPOS>MOLECULE
LEU328
8 7
SMALL
USER_CHARGES


@<TRIPOS>ATOM
1 N 56.0040016174316 33.0499992370605 23.6580009460449 N 0.0 **** 0.0
2 CA 54.689998626709 32.4620018005371 23.8439998626709 C 0.0 **** 0.0
3 C 54.2080001831055 31.8810005187988 22.5209999084473 C 0.0 **** 0.0
4 O 54.0839996337891 32.6119995117188 21.5249996185303 O 0.0 **** 0.0
5 CB 53.7179985046387 33.5190010070801 24.3330001831055 C 0.0 **** 0.0
6 CG 54.0919990539551 34.1640014648438 25.6700000762939 C 0.0 **** 0.0
7 CD1 53.2109985351563 35.3380012512207 25.9780006408691 C 0.0 **** 0.0
8 CD2 53.9490013122559 33.1160011291504 26.7520008087158 C 0.0 **** 0.0
@<TRIPOS>BOND
1 1 2 1
2 2 3 1
3 2 5 1
4 3 4 1
5 5 6 1
6 6 7 1
7 6 8 1
@<TRIPOS>MOLECULE
ARG329
11 10
SMALL
USER_CHARGES


@<TRIPOS>ATOM
1 N 53.992000579834 30.5729999542236 22.5109996795654 N 0.0 **** 0.0
2 CA 53.4850006103516 29.8150005340576 21.3560009002686 C 0.0 **** 0.0
3 C 52.0660018920898 29.3980007171631 21.7390003204346 C 0.0 **** 0.0
4 O 51.8460006713867 28.2999992370605 22.2569999694824 O 0.0 **** 0.0
5 CB 54.3889999389648 28.5790004730225 21.0830001831055 C 0.0 **** 0.0
6 CG 55.8889999389648 28.8409996032715 20.9839992523193 C 0.0 **** 0.0
7 CD 56.7169990539551 27.5400009155273 21.076000213623 C 0.0 **** 0.0
8 NE 58.1080017089844 27.8339996337891 21.4379997253418 N 0.0 **** 0.0
9 CZ 59.0699996948242 28.0960006713867 20.5699996948242 C 0.0 **** 0.0
10 NH1 58.8310012817383 28.0470008850098 19.2800006866455 N 0.0 **** 0.0
11 NH2 60.2840003967285 28.3799991607666 20.9909992218018 N 0.0 **** 0.0
@<TRIPOS>BOND
1 1 2 1
2 2 5 1
3 2 3 1
4 3 4 1
5 5 6 1
6 6 7 1
7 7 8 1
8 8 9 1
9 9 10 1
10 9 11 1
@<TRIPOS>MOLECULE
GLY330
4 3
SMALL
USER_CHARGES


@<TRIPOS>ATOM
1 N 51.1110000610352 30.3020000457764 21.5389995574951 N 0.0 **** 0.0
2 CA 49.8409996032715 30.2199993133545 22.2259998321533 C 0.0 **** 0.0
3 C 48.5880012512207 29.9540004730225 21.4249992370605 C 0.0 **** 0.0
4 O 48.5410003662109 30.1009998321533 20.1900005340576 O 0.0 **** 0.0
@<TRIPOS>BOND
1 1 2 1
2 2 3 1
3 3 4 1
@<TRIPOS>MOLECULE
VAL331
7 6
SMALL
USER_CHARGES


@<TRIPOS>ATOM
1 N 47.5470008850098 29.5639991760254 22.1550006866455 N 0.0 **** 0.0
2 CA 46.1870002746582 29.5279998779297 21.617000579834 C 0.0 **** 0.0
3 C 45.2089996337891 30.113000869751 22.6219997406006 C 0.0 **** 0.0
4 O 45.4329986572266 30.0809993743896 23.8409996032715 O 0.0 **** 0.0
5 CB 45.7410011291504 28.1060009002686 21.2450008392334 C 0.0 **** 0.0
6 CG1 46.6510009765625 27.5319995880127 20.1650009155273 C 0.0 **** 0.0
7 CG2 45.7200012207031 27.2150001525879 22.4780006408691 C 0.0 **** 0.0
@<TRIPOS>BOND
1 1 2 1
2 2 3 1
3 2 5 1
4 3 4 1
5 5 6 1
6 5 7 1
@<TRIPOS>MOLECULE
ASN332
8 7
SMALL
USER_CHARGES


@<TRIPOS>ATOM
1 N 44.1030006408691 30.6240005493164 22.0979995727539 N 0.0 **** 0.0
2 CA 42.9529991149902 31.0340003967285 22.8980007171631 C 0.0 **** 0.0
3 C 42.0270004272461 29.8400001525879 23.05299949646 C 0.0 **** 0.0
4 O 41.4830017089844 29.3509998321533 22.068000793457 O 0.0 **** 0.0
5 CB 42.1730003356934 32.1549987792969 22.2250003814697 C 0.0 **** 0.0
6 CG 42.8520011901855 33.4900016784668 22.3419990539551 C 0.0 **** 0.0
7 OD1 42.6549987792969 34.2140007019043 23.3229999542236 O 0.0 **** 0.0
8 ND2 43.6599998474121 33.8310012817383 21.3320007324219 N 0.0 **** 0.0
@<TRIPOS>BOND
1 1 2 1
2 2 3 1
3 2 5 1
4 3 4 1
5 5 6 1
6 6 7 1
7 6 8 1
@<TRIPOS>MOLECULE
ARG333
11 10
SMALL
USER_CHARGES


@<TRIPOS>ATOM
1 N 41.7929992675781 29.42799949646 24.3040008544922 N 0.0 **** 0.0
2 CA 40.976001739502 28.2679996490479 24.6399993896484 C 0.0 **** 0.0
3 C 39.6440010070801 28.7099990844727 25.2280006408691 C 0.0 **** 0.0
4 O 39.5870018005371 29.1690006256104 26.378999710083 O 0.0 **** 0.0
5 CB 41.6949996948242 27.3780002593994 25.6450004577637 C 0.0 **** 0.0
6 CG 40.8680000305176 26.1450004577637 26.0739994049072 C 0.0 **** 0.0
7 CD 41.515998840332 25.4150009155273 27.2169990539551 C 0.0 **** 0.0
8 NE 40.7669982910156 24.2290000915527 27.6089992523193 N 0.0 **** 0.0
9 CZ 39.9589996337891 24.1490001678467 28.6630001068115 C 0.0 **** 0.0
10 NH1 39.757999420166 25.1879997253418 29.4669990539551 N 0.0 **** 0.0
11 NH2 39.3629989624023 23.0060005187988 28.9209995269775 N 0.0 **** 0.0
@<TRIPOS>BOND
1 1 2 1
2 2 5 1
3 2 3 1
4 3 4 1
5 5 6 1
6 6 7 1
7 7 8 1
8 8 9 1
9 9 10 1
10 9 11 1
@<TRIPOS>MOLECULE
HIS334
10 10
SMALL
USER_CHARGES


@<TRIPOS>ATOM
1 N 38.576000213623 28.5139999389648 24.4699993133545 N 0.0 **** 0.0
2 CA 37.2200012207031 28.5009994506836 25.0149993896484 C 0.0 **** 0.0
3 C 36.882999420166 27.1310005187988 25.5739994049072 C 0.0 **** 0.0
4 O 37.5029983520508 26.1310005187988 25.2210006713867 O 0.0 **** 0.0
5 CB 36.201000213623 28.8309993743896 23.931999206543 C 0.0 **** 0.0
6 CG 35.8440017700195 30.2789993286133 23.8490009307861 C 0.0 **** 0.0
7 ND1 34.9830017089844 30.8799991607666 24.7409992218018 N 0.0 **** 0.0
8 CD2 36.1980018615723 31.2360000610352 22.9619998931885 C 0.0 **** 0.0
9 CE1 34.8370018005371 32.1539993286133 24.4179992675781 C 0.0 **** 0.0
10 NE2 35.5769996643066 32.4000015258789 23.3540000915527 N 0.0 **** 0.0
@<TRIPOS>BOND
1 1 2 1
2 2 3 1
3 2 5 1
4 3 4 1
5 5 6 1
6 6 8 1
7 6 7 1
8 7 9 1
9 8 10 1
10 9 10 1
@<TRIPOS>MOLECULE
GLU335
9 8
SMALL
USER_CHARGES


@<TRIPOS>ATOM
1 N 35.8349990844727 27.0790004730225 26.4080009460449 N 0.0 **** 0.0
2 CA 35.2929992675781 25.8190002441406 26.8910007476807 C 0.0 **** 0.0
3 C 34.0369987487793 25.503999710083 26.1009998321533 C 0.0 **** 0.0
4 O 33.0139999389648 26.1900005340576 26.2199993133545 O 0.0 **** 0.0
5 CB 35.0349998474121 25.8719997406006 28.3950004577637 C 0.0 **** 0.0
6 CG 36.390998840332 25.82200050354 29.1140003204346 C 0.0 **** 0.0
7 CD 36.3460006713867 25.8010005950928 30.6319999694824 C 0.0 **** 0.0
8 OE1 35.3549995422363 26.2959995269775 31.2129993438721 O 0.0 **** 0.0
9 OE2 37.3339996337891 25.298999786377 31.2140007019043 O 0.0 **** 0.0
@<TRIPOS>BOND
1 1 2 1
2 2 5 1
3 2 3 1
4 3 4 1
5 5 6 1
6 6 7 1
7 7 9 1
8 7 8 1
@<TRIPOS>MOLECULE
HIS336
10 10
SMALL
USER_CHARGES


@<TRIPOS>ATOM
1 N 34.1310005187988 24.4710006713867 25.2779998779297 N 0.0 **** 0.0
2 CA 33.0270004272461 24.0699996948242 24.4409999847412 C 0.0 **** 0.0
3 C 33.0970001220703 22.5860004425049 24.1849994659424 C 0.0 **** 0.0
4 O 34.1790008544922 22.0259990692139 24.0240001678467 O 0.0 **** 0.0
5 CB 33.0379981994629 24.7830009460449 23.1060009002686 C 0.0 **** 0.0
6 CG 31.8999996185303 24.3810005187988 22.2329998016357 C 0.0 **** 0.0
7 ND1 30.6149997711182 24.798999786377 22.4820003509521 N 0.0 **** 0.0
8 CD2 31.8349990844727 23.5709991455078 21.1480007171631 C 0.0 **** 0.0
9 CE1 29.8090000152588 24.3050003051758 21.5550003051758 C 0.0 **** 0.0
10 NE2 30.5230007171631 23.5510005950928 20.7399997711182 N 0.0 **** 0.0
@<TRIPOS>BOND
1 1 2 1
2 2 3 1
3 2 5 1
4 3 4 1
5 5 6 1
6 6 7 1
7 6 8 1
8 7 9 1
9 8 10 1
10 9 10 1
@<TRIPOS>MOLECULE
HIS337
10 10
SMALL
USER_CHARGES


@<TRIPOS>ATOM
1 N 31.9220008850098 21.9799995422363 24.1040000915527 N 0.0 **** 0.0
2 CA 31.7700004577637 20.5960006713867 23.7630004882813 C 0.0 **** 0.0
3 C 30.5809993743896 20.5020008087158 22.8040008544922 C 0.0 **** 0.0
4 O 29.5200004577637 21.0909996032715 23.0799999237061 O 0.0 **** 0.0
5 CB 31.5440006256104 19.7299995422363 24.9899997711182 C 0.0 **** 0.0
6 CG 31.5470008850098 18.2749996185303 24.6889991760254 C 0.0 **** 0.0
7 ND1 30.4500007629395 17.6270008087158 24.173999786377 N 0.0 **** 0.0
8 CD2 32.5250015258789 17.3460006713867 24.7959995269775 C 0.0 **** 0.0
9 CE1 30.738000869751 16.3439998626709 24.0160007476807 C 0.0 **** 0.0
10 NE2 31.9939994812012 16.1520004272461 24.382999420166 N 0.0 **** 0.0
@<TRIPOS>BOND
1 1 2 1
2 2 3 1
3 2 5 1
4 3 4 1
5 5 6 1
6 6 8 1
7 6 7 1
8 7 9 1
9 8 10 1
10 9 10 1
@<TRIPOS>MOLECULE
PRO338
7 7
SMALL
USER_CHARGES


@<TRIPOS>ATOM
1 N 30.7110004425049 19.7759990692139 21.6900005340576 N 0.0 **** 0.0
2 CA 29.6620006561279 19.8209991455078 20.6569995880127 C 0.0 **** 0.0
3 C 28.3549995422363 19.1620006561279 21.0769996643066 C 0.0 **** 0.0
4 O 27.3269996643066 19.3659992218018 20.4220008850098 O 0.0 **** 0.0
5 CB 30.3010005950928 19.0729999542236 19.4769992828369 C 0.0 **** 0.0
6 CG 31.2490005493164 18.1019992828369 20.1299991607666 C 0.0 **** 0.0
7 CD 31.8020000457764 18.863000869751 21.3209991455078 C 0.0 **** 0.0
@<TRIPOS>BOND
1 1 2 1
2 1 7 1
3 2 3 1
4 2 5 1
5 3 4 1
6 5 6 1
7 6 7 1
@<TRIPOS>MOLECULE
ARG339
11 10
SMALL
USER_CHARGES


@<TRIPOS>ATOM
1 N 28.3530006408691 18.3600006103516 22.1350002288818 N 0.0 **** 0.0
2 CA 27.1040000915527 17.8229999542236 22.6189994812012 C 0.0 **** 0.0
3 C 26.7229995727539 18.3040008544922 24.0049991607666 C 0.0 **** 0.0
4 O 25.5440006256104 18.2369995117188 24.3449993133545 O 0.0 **** 0.0
5 CB 27.1520004272461 16.2849998474121 22.5690002441406 C 0.0 **** 0.0
6 CG 27.1229991912842 15.7930002212524 21.0970001220703 C 0.0 **** 0.0
7 CD 27.5510005950928 14.3459997177124 20.9069995880127 C 0.0 **** 0.0
8 NE 28.9650001525879 14.1450004577637 21.253999710083 N 0.0 **** 0.0
9 CZ 30.0090007781982 14.5019998550415 20.4990005493164 C 0.0 **** 0.0
10 NH1 29.8379993438721 15.0909996032715 19.3159999847412 N 0.0 **** 0.0
11 NH2 31.238000869751 14.2650003433228 20.9389991760254 N 0.0 **** 0.0
@<TRIPOS>BOND
1 1 2 1
2 2 5 1
3 2 3 1
4 3 4 1
5 5 6 1
6 6 7 1
7 7 8 1
8 8 9 1
9 9 10 1
10 9 11 1
@<TRIPOS>MOLECULE
LEU340
8 7
SMALL
USER_CHARGES


@<TRIPOS>ATOM
1 N 27.6599998474121 18.8099994659424 24.7940006256104 N 0.0 **** 0.0
2 CA 27.3759994506836 19.2110004425049 26.1669998168945 C 0.0 **** 0.0
3 C 27.5200004577637 20.7119998931885 26.4209995269775 C 0.0 **** 0.0
4 O 27.3090000152588 21.1520004272461 27.5580005645752 O 0.0 **** 0.0
5 CB 28.2859992980957 18.4400005340576 27.1350002288818 C 0.0 **** 0.0
6 CG 28.1630001068115 16.9090003967285 27.0930004119873 C 0.0 **** 0.0
7 CD1 29.1949996948242 16.246000289917 27.9869995117188 C 0.0 **** 0.0
8 CD2 26.757999420166 16.4459991455078 27.5009994506836 C 0.0 **** 0.0
@<TRIPOS>BOND
1 1 2 1
2 2 3 1
3 2 5 1
4 3 4 1
5 5 6 1
6 6 8 1
7 6 7 1
@<TRIPOS>MOLECULE
GLY341
4 3
SMALL
USER_CHARGES


@<TRIPOS>ATOM
1 N 27.8920001983643 21.5009994506836 25.4150009155273 N 0.0 **** 0.0
2 CA 27.9169998168945 22.9500007629395 25.55299949646 C 0.0 **** 0.0
3 C 29.125 23.4409999847412 26.3320007324219 C 0.0 **** 0.0
4 O 30.2689990997314 23.1469993591309 25.9659996032715 O 0.0 **** 0.0
@<TRIPOS>BOND
1 1 2 1
2 2 3 1
3 3 4 1
@<TRIPOS>MOLECULE
ARG342
11 10
SMALL
USER_CHARGES


@<TRIPOS>ATOM
1 N 28.886999130249 24.1119995117188 27.44700050354 N 0.0 **** 0.0
2 CA 29.9729995727539 24.6679992675781 28.2859992980957 C 0.0 **** 0.0
3 C 30.5389995574951 23.6040000915527 29.2310009002686 C 0.0 **** 0.0
4 O 31.5139999389648 23.8910007476807 29.8929996490479 O 0.0 **** 0.0
5 CB 29.5189990997314 25.9039993286133 29.0540008544922 C 0.0 **** 0.0
6 CG 30.5949993133545 26.9659996032715 29.1690006256104 C 0.0 **** 0.0
7 CD 30.6079998016357 27.8719997406006 27.9599990844727 C 0.0 **** 0.0
8 NE 29.5230007171631 28.8120002746582 28.05299949646 N 0.0 **** 0.0
9 CZ 28.9209995269775 29.3640003204346 27.0289993286133 C 0.0 **** 0.0
10 NH1 27.943000793457 30.2159996032715 27.2339992523193 N 0.0 **** 0.0
11 NH2 29.3010005950928 29.0769996643066 25.8080005645752 N 0.0 **** 0.0
@<TRIPOS>BOND
1 1 2 1
2 2 5 1
3 2 3 1
4 3 4 1
5 5 6 1
6 6 7 1
7 7 8 1
8 8 9 1
9 9 10 1
10 9 11 1
@<TRIPOS>MOLECULE
VAL343
7 6
SMALL
USER_CHARGES


@<TRIPOS>ATOM
1 N 29.923999786377 22.4290008544922 29.298999786377 N 0.0 **** 0.0
2 CA 30.4160003662109 21.3309993743896 30.1240005493164 C 0.0 **** 0.0
3 C 31.4529991149902 20.5769996643066 29.298999786377 C 0.0 **** 0.0
4 O 31.117000579834 19.9790000915527 28.2609996795654 O 0.0 **** 0.0
5 CB 29.2689990997314 20.4069995880127 30.5459995269775 C 0.0 **** 0.0
6 CG1 29.7749996185303 19.253999710083 31.382999420166 C 0.0 **** 0.0
7 CG2 28.2059993743896 21.1849994659424 31.2910003662109 C 0.0 **** 0.0
@<TRIPOS>BOND
1 1 2 1
2 2 5 1
3 2 3 1
4 3 4 1
5 5 6 1
6 5 7 1
@<TRIPOS>MOLECULE
VAL344
7 6
SMALL
USER_CHARGES


@<TRIPOS>ATOM
1 N 32.7159996032715 20.632999420166 29.7210006713867 N 0.0 **** 0.0
2 CA 33.7849998474121 19.9309997558594 29.0200004577637 C 0.0 **** 0.0
3 C 34.2309989929199 18.7660007476807 29.9069995880127 C 0.0 **** 0.0
4 O 34.8790016174316 18.988000869751 30.9360008239746 O 0.0 **** 0.0
5 CB 34.9560012817383 20.8619995117188 28.6700000762939 C 0.0 **** 0.0
6 CG1 35.9679985046387 20.1079998016357 27.8309993743896 C 0.0 **** 0.0
7 CG2 34.4589996337891 22.125 27.9050006866455 C 0.0 **** 0.0
@<TRIPOS>BOND
1 1 2 1
2 2 3 1
3 2 5 1
4 3 4 1
5 5 6 1
6 5 7 1
@<TRIPOS>MOLECULE
PRO345
7 7
SMALL
USER_CHARGES


@<TRIPOS>ATOM
1 N 33.9440002441406 17.5249996185303 29.5450000762939 N 0.0 **** 0.0
2 CA 34.382999420166 16.3990001678467 30.3819999694824 C 0.0 **** 0.0
3 C 35.8849983215332 16.4120006561279 30.6350002288818 C 0.0 **** 0.0
4 O 36.6800003051758 16.8090000152588 29.7870006561279 O 0.0 **** 0.0
5 CB 33.9589996337891 15.1619997024536 29.576000213623 C 0.0 **** 0.0
6 CG 32.7589988708496 15.6319999694824 28.7450008392334 C 0.0 **** 0.0
7 CD 33.1199989318848 17.0909996032715 28.3929996490479 C 0.0 **** 0.0
@<TRIPOS>BOND
1 1 2 1
2 1 7 1
3 2 5 1
4 2 3 1
5 3 4 1
6 5 6 1
7 6 7 1
@<TRIPOS>MOLECULE
ARG346
11 10
SMALL
USER_CHARGES


@<TRIPOS>ATOM
1 N 36.2779998779297 15.9300003051758 31.8229999542236 N 0.0 **** 0.0
2 CA 37.6829986572266 16.011999130249 32.2130012512207 C 0.0 **** 0.0
3 C 38.5820007324219 15.2720003128052 31.2189998626709 C 0.0 **** 0.0
4 O 39.6710014343262 15.7569999694824 30.8840007781982 O 0.0 **** 0.0
5 CB 37.8800010681152 15.4569997787476 33.6300010681152 C 0.0 **** 0.0
6 CG 39.3240013122559 15.5290002822876 34.0970001220703 C 0.0 **** 0.0
7 CD 39.4710006713867 14.9340000152588 35.4869995117188 C 0.0 **** 0.0
8 NE 40.875 14.9139995574951 35.867000579834 N 0.0 **** 0.0
9 CZ 41.5190010070801 15.9589996337891 36.3680000305176 C 0.0 **** 0.0
10 NH1 40.8800010681152 17.0979995727539 36.5859985351563 N 0.0 **** 0.0
11 NH2 42.8040008544922 15.8489999771118 36.6720008850098 N 0.0 **** 0.0
@<TRIPOS>BOND
1 1 2 1
2 2 3 1
3 2 5 1
4 3 4 1
5 5 6 1
6 6 7 1
7 7 8 1
8 8 9 1
9 9 11 1
10 9 10 1
@<TRIPOS>MOLECULE
ASP347
8 7
SMALL
USER_CHARGES


@<TRIPOS>ATOM
1 N 38.1419982910156 14.1059999465942 30.7280006408691 N 0.0 **** 0.0
2 CA 38.9650001525879 13.3420000076294 29.7880001068115 C 0.0 **** 0.0
3 C 39.1689987182617 14.0920000076294 28.4769992828369 C 0.0 **** 0.0
4 O 40.2050018310547 13.9259996414185 27.8250007629395 O 0.0 **** 0.0
5 CB 38.3429985046387 11.9680004119873 29.5090007781982 C 0.0 **** 0.0
6 CG 36.9980010986328 12.0550003051758 28.8050003051758 C 0.0 **** 0.0
7 OD1 36.2519989013672 13.0220003128052 29.0270004272461 O 0.0 **** 0.0
8 OD2 36.673999786377 11.1350002288818 28.0289993286133 O 0.0 **** 0.0
@<TRIPOS>BOND
1 1 2 1
2 2 5 1
3 2 3 1
4 3 4 1
5 5 6 1
6 6 7 1
7 6 8 1
@<TRIPOS>MOLECULE
VAL348
7 6
SMALL
USER_CHARGES


@<TRIPOS>ATOM
1 N 38.1949996948242 14.9099998474121 28.0750007629395 N 0.0 **** 0.0
2 CA 38.3650016784668 15.7510004043579 26.8929996490479 C 0.0 **** 0.0
3 C 39.3730010986328 16.8540000915527 27.1690006256104 C 0.0 **** 0.0
4 O 40.2070007324219 17.17799949646 26.3120002746582 O 0.0 **** 0.0
5 CB 37.0029983520508 16.326000213623 26.4650001525879 C 0.0 **** 0.0
6 CG1 37.1559982299805 17.3579998016357 25.3390007019043 C 0.0 **** 0.0
7 CG2 36.0830001831055 15.1890001296997 26.0440006256104 C 0.0 **** 0.0
@<TRIPOS>BOND
1 1 2 1
2 2 5 1
3 2 3 1
4 3 4 1
5 5 6 1
6 5 7 1
@<TRIPOS>MOLECULE
VAL349
7 6
SMALL
USER_CHARGES


@<TRIPOS>ATOM
1 N 39.2960014343262 17.4689998626709 28.3570003509521 N 0.0 **** 0.0
2 CA 40.2830009460449 18.4619998931885 28.75 C 0.0 **** 0.0
3 C 41.6809997558594 17.863000869751 28.7189998626709 C 0.0 **** 0.0
4 O 42.617000579834 18.451000213623 28.1520004272461 O 0.0 **** 0.0
5 CB 39.9640007019043 19.0410003662109 30.1410007476807 C 0.0 **** 0.0
6 CG1 41.0130004882813 20.1119995117188 30.5179996490479 C 0.0 **** 0.0
7 CG2 38.5690002441406 19.6889991760254 30.1350002288818 C 0.0 **** 0.0
@<TRIPOS>BOND
1 1 2 1
2 2 5 1
3 2 3 1
4 3 4 1
5 5 7 1
6 5 6 1
@<TRIPOS>MOLECULE
GLU350
9 8
SMALL
USER_CHARGES


@<TRIPOS>ATOM
1 N 41.8639984130859 16.7099990844727 29.3700008392334 N 0.0 **** 0.0
2 CA 43.1969985961914 16.1259994506836 29.4249992370605 C 0.0 **** 0.0
3 C 43.7070007324219 15.8290004730225 28.0270004272461 C 0.0 **** 0.0
4 O 44.8569984436035 16.1490001678467 27.6989994049072 O 0.0 **** 0.0
5 CB 43.1959991455078 14.8610000610352 30.2870006561279 C 0.0 **** 0.0
6 CG 42.9539985656738 15.1599998474121 31.7399997711182 C 0.0 **** 0.0
7 CD 43.1100006103516 13.9280004501343 32.6339988708496 C 0.0 **** 0.0
8 OE1 42.1829986572266 13.0939998626709 32.6829986572266 O 0.0 **** 0.0
9 OE2 44.173999786377 13.7959995269775 33.2610015869141 O 0.0 **** 0.0
@<TRIPOS>BOND
1 1 2 1
2 2 5 1
3 2 3 1
4 3 4 1
5 5 6 1
6 6 7 1
7 7 9 1
8 7 8 1
@<TRIPOS>MOLECULE
ALA351
5 4
SMALL
USER_CHARGES


@<TRIPOS>ATOM
1 N 42.8520011901855 15.2370004653931 27.1870002746582 N 0.0 **** 0.0
2 CA 43.242000579834 14.8889999389648 25.8279991149902 C 0.0 **** 0.0
3 C 43.5859985351563 16.1280002593994 25.003999710083 C 0.0 **** 0.0
4 O 44.5559997558594 16.1159992218018 24.238000869751 O 0.0 **** 0.0
5 CB 42.1269989013672 14.0939998626709 25.1420001983643 C 0.0 **** 0.0
@<TRIPOS>BOND
1 1 2 1
2 2 3 1
3 2 5 1
4 3 4 1
@<TRIPOS>MOLECULE
GLU352
9 8
SMALL
USER_CHARGES


@<TRIPOS>ATOM
1 N 42.7970008850098 17.2040004730225 25.1140003204346 N 0.0 **** 0.0
2 CA 43.0740013122559 18.3640003204346 24.2600002288818 C 0.0 **** 0.0
3 C 44.3349990844727 19.0890007019043 24.7029991149902 C 0.0 **** 0.0
4 O 45.0470008850098 19.6599998474121 23.8700008392334 O 0.0 **** 0.0
5 CB 41.8899993896484 19.3500003814697 24.2110004425049 C 0.0 **** 0.0
6 CG 41.6590003967285 20.2199993133545 25.4589996337891 C 0.0 **** 0.0
7 CD 40.4959983825684 21.1959991455078 25.3040008544922 C 0.0 **** 0.0
8 OE1 39.9500007629395 21.3500003814697 24.1849994659424 O 0.0 **** 0.0
9 OE2 40.1380004882813 21.8369998931885 26.3090000152588 O 0.0 **** 0.0
@<TRIPOS>BOND
1 1 2 1
2 2 3 1
3 2 5 1
4 3 4 1
5 5 6 1
6 6 7 1
7 7 8 1
8 7 9 1
@<TRIPOS>MOLECULE
LEU353
8 7
SMALL
USER_CHARGES


@<TRIPOS>ATOM
1 N 44.6370010375977 19.1019992828369 26.0009994506836 N 0.0 **** 0.0
2 CA 45.890998840332 19.7089996337891 26.4249992370605 C 0.0 **** 0.0
3 C 47.0870018005371 18.9020004272461 25.9309997558594 C 0.0 **** 0.0
4 O 48.0989990234375 19.4759998321533 25.5249996185303 O 0.0 **** 0.0
5 CB 45.9070014953613 19.8460006713867 27.94700050354 C 0.0 **** 0.0
6 CG 44.8499984741211 20.7830009460449 28.5030002593994 C 0.0 **** 0.0
7 CD1 44.8899993896484 20.8080005645752 30.0610008239746 C 0.0 **** 0.0
8 CD2 45.0270004272461 22.136999130249 27.9750003814697 C 0.0 **** 0.0
@<TRIPOS>BOND
1 1 2 1
2 2 5 1
3 2 3 1
4 3 4 1
5 5 6 1
6 6 8 1
7 6 7 1
@<TRIPOS>MOLECULE
ARG354
11 10
SMALL
USER_CHARGES


@<TRIPOS>ATOM
1 N 46.9990005493164 17.576000213623 25.9759998321533 N 0.0 **** 0.0
2 CA 48.0519981384277 16.753999710083 25.3850002288818 C 0.0 **** 0.0
3 C 48.1790008544922 17.0109996795654 23.8810005187988 C 0.0 **** 0.0
4 O 49.2809982299805 17.0849990844727 23.3409996032715 O 0.0 **** 0.0
5 CB 47.7680015563965 15.2810001373291 25.6529998779297 C 0.0 **** 0.0
6 CG 47.8870010375977 14.9300003051758 27.132999420166 C 0.0 **** 0.0
7 CD 47.9869995117188 13.3830003738403 27.3729991912842 C 0.0 **** 0.0
8 NE 46.7630004882813 12.6850004196167 26.9300003051758 N 0.0 **** 0.0
9 CZ 45.6800003051758 12.4899997711182 27.6909999847412 C 0.0 **** 0.0
10 NH1 45.6619987487793 12.9209995269775 28.9489994049072 N 0.0 **** 0.0
11 NH2 44.6110000610352 11.8610000610352 27.2019996643066 N 0.0 **** 0.0
@<TRIPOS>BOND
1 1 2 1
2 2 5 1
3 2 3 1
4 3 4 1
5 5 6 1
6 6 7 1
7 7 8 1
8 8 9 1
9 9 11 1
10 9 10 1
@<TRIPOS>MOLECULE
LEU355
8 7
SMALL
USER_CHARGES


@<TRIPOS>ATOM
1 N 47.0550003051758 17.1439990997314 23.1959991455078 N 0.0 **** 0.0
2 CA 47.0779991149902 17.4799995422363 21.7759990692139 C 0.0 **** 0.0
3 C 47.7879981994629 18.8099994659424 21.5249996185303 C 0.0 **** 0.0
4 O 48.5499992370605 18.9479999542236 20.5590000152588 O 0.0 **** 0.0
5 CB 45.6419982910156 17.5100002288818 21.2569999694824 C 0.0 **** 0.0
6 CG 45.4990005493164 17.576000213623 19.7369995117188 C 0.0 **** 0.0
7 CD1 46.0579986572266 16.3120002746582 19.1030006408691 C 0.0 **** 0.0
8 CD2 44.0470008850098 17.7929992675781 19.3120002746582 C 0.0 **** 0.0
@<TRIPOS>BOND
1 1 2 1
2 2 3 1
3 2 5 1
4 3 4 1
5 5 6 1
6 6 8 1
7 6 7 1
@<TRIPOS>MOLECULE
MET356
8 7
SMALL
USER_CHARGES


@<TRIPOS>ATOM
1 N 47.5349998474121 19.8059997558594 22.3700008392334 N 0.0 **** 0.0
2 CA 48.234001159668 21.0790004730225 22.246000289917 C 0.0 **** 0.0
3 C 49.7379989624023 20.8969993591309 22.3889999389648 C 0.0 **** 0.0
4 O 50.5130004882813 21.375 21.556999206543 O 0.0 **** 0.0
5 CB 47.7369995117188 22.0669994354248 23.3010005950928 C 0.0 **** 0.0
6 CG 46.3089981079102 22.4939994812012 23.1569995880127 C 0.0 **** 0.0
7 SD 45.9370002746582 23.7000007629395 24.4659996032715 S 0.0 **** 0.0
8 CE 44.1769981384277 24.003999710083 24.2119998931885 C 0.0 **** 0.0
@<TRIPOS>BOND
1 1 2 1
2 2 3 1
3 2 5 1
4 3 4 1
5 5 6 1
6 6 7 1
7 7 8 1
@<TRIPOS>MOLECULE
LYS357
9 8
SMALL
USER_CHARGES


@<TRIPOS>ATOM
1 N 50.1759986877441 20.2569999694824 23.4769992828369 N 0.0 **** 0.0
2 CA 51.6030006408691 19.9519996643066 23.6340007781982 C 0.0 **** 0.0
3 C 52.1710014343262 19.2259998321533 22.42799949646 C 0.0 **** 0.0
4 O 53.3139991760254 19.4759998321533 22.0189990997314 O 0.0 **** 0.0
5 CB 51.8390007019043 19.0930004119873 24.8719997406006 C 0.0 **** 0.0
6 CG 51.451000213623 19.8190002441406 26.1940002441406 C 0.0 **** 0.0
7 CD 52.3699989318848 21.0130004882813 26.5429992675781 C 0.0 **** 0.0
8 CE 53.7229995727539 20.5540008544922 27.0709991455078 C 0.0 **** 0.0
9 NZ 54.5960006713867 21.69700050354 27.5550003051758 N 0.0 **** 0.0
@<TRIPOS>BOND
1 1 2 1
2 2 3 1
3 2 5 1
4 3 4 1
5 5 6 1
6 6 7 1
7 7 8 1
8 8 9 1
@<TRIPOS>MOLECULE
GLN358
9 8
SMALL
USER_CHARGES


@<TRIPOS>ATOM
1 N 51.4119987487793 18.2789993286133 21.8840007781982 N 0.0 **** 0.0
2 CA 51.8310012817383 17.5330009460449 20.7110004425049 C 0.0 **** 0.0
3 C 51.9169998168945 18.3950004577637 19.4629993438721 C 0.0 **** 0.0
4 O 52.5110015869141 17.9519996643066 18.4750003814697 O 0.0 **** 0.0
5 CB 50.8689994812012 16.3799991607666 20.4599990844727 C 0.0 **** 0.0
6 CG 50.9949989318848 15.2559995651245 21.4589996337891 C 0.0 **** 0.0
7 CD 49.8349990844727 14.2950000762939 21.3729991912842 C 0.0 **** 0.0
8 OE1 49.0699996948242 14.3050003051758 20.4169998168945 O 0.0 **** 0.0
9 NE2 49.689998626709 13.4589996337891 22.3990001678467 N 0.0 **** 0.0
@<TRIPOS>BOND
1 1 2 1
2 2 3 1
3 2 5 1
4 3 4 1
5 5 6 1
6 6 7 1
7 7 8 1
8 7 9 1
@<TRIPOS>MOLECULE
HIS359
10 10
SMALL
USER_CHARGES


@<TRIPOS>ATOM
1 N 51.3540000915527 19.6019992828369 19.4890003204346 N 0.0 **** 0.0
2 CA 51.4879989624023 20.5279998779297 18.3859996795654 C 0.0 **** 0.0
3 C 52.3269996643066 21.7390003204346 18.7789993286133 C 0.0 **** 0.0
4 O 52.2470016479492 22.80299949646 18.1459999084473 O 0.0 **** 0.0
5 CB 50.1069984436035 20.8920001983643 17.8379993438721 C 0.0 **** 0.0
6 CG 49.4900016784668 19.7530002593994 17.07200050354 C 0.0 **** 0.0
7 ND1 48.9059982299805 18.6720008850098 17.6940002441406 N 0.0 **** 0.0
8 CD2 49.4459991455078 19.4790000915527 15.7419996261597 C 0.0 **** 0.0
9 CE1 48.5190010070801 17.7889995574951 16.7830009460449 C 0.0 **** 0.0
10 NE2 48.8370018005371 18.253999710083 15.5920000076294 N 0.0 **** 0.0
@<TRIPOS>BOND
1 1 2 1
2 2 5 1
3 2 3 1
4 3 4 1
5 5 6 1
6 6 7 1
7 6 8 1
8 7 9 1
9 8 10 1
10 9 10 1
@<TRIPOS>MOLECULE
ASN360
8 7
SMALL
USER_CHARGES


@<TRIPOS>ATOM
1 N 53.2029991149902 21.5450000762939 19.7719993591309 N 0.0 **** 0.0
2 CA 54.2649993896484 22.4750003814697 20.1800003051758 C 0.0 **** 0.0
3 C 53.7509994506836 23.7210006713867 20.878999710083 C 0.0 **** 0.0
4 O 54.5449981689453 24.6399993896484 21.1630001068115 O 0.0 **** 0.0
5 CB 55.1469993591309 22.8689994812012 18.9860000610352 C 0.0 **** 0.0
6 CG 55.9900016784668 21.6949996948242 18.4729995727539 C 0.0 **** 0.0
7 OD1 56.431999206543 20.8309993743896 19.238000869751 O 0.0 **** 0.0
8 ND2 56.2299995422363 21.6730003356934 17.1660003662109 N 0.0 **** 0.0
@<TRIPOS>BOND
1 1 2 1
2 2 3 1
3 2 5 1
4 3 4 1
5 5 6 1
6 6 8 1
7 6 7 1
@<TRIPOS>MOLECULE
ILE361
8 7
SMALL
USER_CHARGES


@<TRIPOS>ATOM
1 N 52.4609985351563 23.7700004577637 21.2290000915527 N 0.0 **** 0.0
2 CA 51.9010009765625 24.8969993591309 21.9720001220703 C 0.0 **** 0.0
3 C 52.4729995727539 24.9150009155273 23.3840007781982 C 0.0 **** 0.0
4 O 52.6599998474121 23.8659992218018 24.0020008087158 O 0.0 **** 0.0
5 CB 50.3650016784668 24.7730007171631 21.9650001525879 C 0.0 **** 0.0
6 CG1 49.8380012512207 25.0389995574951 20.5400009155273 C 0.0 **** 0.0
7 CG2 49.7200012207031 25.7150001525879 22.992000579834 C 0.0 **** 0.0
8 CD1 48.4790000915527 24.3990001678467 20.2520008087158 C 0.0 **** 0.0
@<TRIPOS>BOND
1 1 2 1
2 2 3 1
3 2 5 1
4 3 4 1
5 5 7 1
6 5 6 1
7 6 8 1
@<TRIPOS>MOLECULE
ASN362
8 7
SMALL
USER_CHARGES


@<TRIPOS>ATOM
1 N 52.806999206543 26.1100006103516 23.8850002288818 N 0.0 **** 0.0
2 CA 53.3190002441406 26.2479991912842 25.242000579834 C 0.0 **** 0.0
3 C 52.5439987182617 27.2749996185303 26.0480003356934 C 0.0 **** 0.0
4 O 52.9329986572266 27.5620002746582 27.193000793457 O 0.0 **** 0.0
5 CB 54.8110008239746 26.6119995117188 25.2670001983643 C 0.0 **** 0.0
6 CG 55.0810012817383 28.0559997558594 24.8349990844727 C 0.0 **** 0.0
7 OD1 54.1749992370605 28.8500003814697 24.6119995117188 O 0.0 **** 0.0
8 ND2 56.3470001220703 28.3810005187988 24.7019996643066 N 0.0 **** 0.0
@<TRIPOS>BOND
1 1 2 1
2 2 5 1
3 2 3 1
4 3 4 1
5 5 6 1
6 6 8 1
7 6 7 1
@<TRIPOS>MOLECULE
ALA363
5 4
SMALL
USER_CHARGES


@<TRIPOS>ATOM
1 N 51.4570007324219 27.8150005340576 25.5069999694824 N 0.0 **** 0.0
2 CA 50.7620010375977 28.8999996185303 26.1900005340576 C 0.0 **** 0.0
3 C 49.2799987792969 28.8969993591309 25.8309993743896 C 0.0 **** 0.0
4 O 48.8849983215332 28.5249996185303 24.7140007019043 O 0.0 **** 0.0
5 CB 51.3919982910156 30.2409992218018 25.8470001220703 C 0.0 **** 0.0
@<TRIPOS>BOND
1 1 2 1
2 2 5 1
3 2 3 1
4 3 4 1
@<TRIPOS>MOLECULE
ILE364
8 7
SMALL
USER_CHARGES


@<TRIPOS>ATOM
1 N 48.4580001831055 29.257999420166 26.826000213623 N 0.0 **** 0.0
2 CA 47.0009994506836 29.298999786377 26.7019996643066 C 0.0 **** 0.0
3 C 46.4630012512207 30.5879993438721 27.3059997558594 C 0.0 **** 0.0
4 O 46.7680015563965 30.9099998474121 28.4650001525879 O 0.0 **** 0.0
5 CB 46.3400001525879 28.1030006408691 27.4069995880127 C 0.0 **** 0.0
6 CG1 46.8549995422363 26.8059997558594 26.8010005950928 C 0.0 **** 0.0
7 CG2 44.8219985961914 28.2210006713867 27.3509998321533 C 0.0 **** 0.0
8 CD1 46.4160003662109 25.5669994354248 27.57200050354 C 0.0 **** 0.0
@<TRIPOS>BOND
1 1 2 1
2 2 3 1
3 2 5 1
4 3 4 1
5 5 6 1
6 5 7 1
7 6 8 1
@<TRIPOS>MOLECULE
ARG365
11 10
SMALL
USER_CHARGES


@<TRIPOS>ATOM
1 N 45.5820007324219 31.2630004882813 26.5659999847412 N 0.0 **** 0.0
2 CA 44.7519989013672 32.3339996337891 27.0990009307861 C 0.0 **** 0.0
3 C 43.3400001525879 31.7959995269775 27.3129997253418 C 0.0 **** 0.0
4 O 42.7560005187988 31.1809997558594 26.4039993286133 O 0.0 **** 0.0
5 CB 44.7400016784668 33.5330009460449 26.1650009155273 C 0.0 **** 0.0
6 CG 43.7120018005371 34.6240005493164 26.5109996795654 C 0.0 **** 0.0
7 CD 44.0040016174316 35.8499984741211 25.7509994506836 C 0.0 **** 0.0
8 NE 43.0909996032715 36.9690017700195 26.007999420166 N 0.0 **** 0.0
9 CZ 42.3240013122559 37.5390014648438 25.0820007324219 C 0.0 **** 0.0
10 NH1 42.326000213623 37.0779991149902 23.8299999237061 N 0.0 **** 0.0
11 NH2 41.5750007629395 38.5859985351563 25.3999996185303 N 0.0 **** 0.0
@<TRIPOS>BOND
1 1 2 1
2 2 3 1
3 2 5 1
4 3 4 1
5 5 6 1
6 6 7 1
7 7 8 1
8 8 9 1
9 9 11 1
10 9 10 1
@<TRIPOS>MOLECULE
THR366
7 6
SMALL
USER_CHARGES


@<TRIPOS>ATOM
1 N 42.8170013427734 31.9659996032715 28.5259990692139 N 0.0 **** 0.0
2 CA 41.4809989929199 31.451000213623 28.8589992523193 C 0.0 **** 0.0
3 C 40.435001373291 32.4620018005371 28.3740005493164 C 0.0 **** 0.0
4 O 39.8160018920898 33.2229995727539 29.1180000305176 O 0.0 **** 0.0
5 CB 41.3699989318848 31.121000289917 30.3530006408691 C 0.0 **** 0.0
6 OG1 41.3580017089844 32.3079986572266 31.1469993591309 O 0.0 **** 0.0
7 CG2 42.5449981689453 30.2490005493164 30.818000793457 C 0.0 **** 0.0
@<TRIPOS>BOND
1 1 2 1
2 2 5 1
3 2 3 1
4 3 4 1
5 5 7 1
6 5 6 1
@<TRIPOS>MOLECULE
SER367
6 5
SMALL
USER_CHARGES


@<TRIPOS>ATOM
1 N 40.2639999389648 32.4729995727539 27.0459995269775 N 0.0 **** 0.0
2 CA 39.318000793457 33.3720016479492 26.4249992370605 C 0.0 **** 0.0
3 C 37.8969993591309 32.9410018920898 26.7689990997314 C 0.0 **** 0.0
4 O 37.5470008850098 31.7919998168945 26.5179996490479 O 0.0 **** 0.0
5 CB 39.5089988708496 33.3300018310547 24.9109992980957 C 0.0 **** 0.0
6 OG 39.5439987182617 31.9750003814697 24.4209995269775 O 0.0 **** 0.0
@<TRIPOS>BOND
1 1 2 1
2 2 3 1
3 2 5 1
4 3 4 1
5 5 6 1
@<TRIPOS>MOLECULE
HIS368
10 10
SMALL
USER_CHARGES


@<TRIPOS>ATOM
1 N 37.0509986877441 33.8300018310547 27.3090000152588 N 0.0 **** 0.0
2 CA 37.351001739502 35.140998840332 27.9139995574951 C 0.0 **** 0.0
3 C 36.6769981384277 35.1220016479492 29.3080005645752 C 0.0 **** 0.0
4 O 35.7410011291504 35.8880004882813 29.5939998626709 O 0.0 **** 0.0
5 CB 36.8199996948242 36.2960014343262 27.1070003509521 C 0.0 **** 0.0
6 CG 37.3339996337891 36.3610000610352 25.6919994354248 C 0.0 **** 0.0
7 ND1 38.648998260498 36.6510009765625 25.382999420166 N 0.0 **** 0.0
8 CD2 36.6990013122559 36.1879997253418 24.507999420166 C 0.0 **** 0.0
9 CE1 38.798999786377 36.6469993591309 24.0590000152588 C 0.0 **** 0.0
10 NE2 37.6349983215332 36.3520011901855 23.507999420166 N 0.0 **** 0.0
@<TRIPOS>BOND
1 1 2 1
2 2 5 1
3 2 3 1
4 3 4 1
5 5 6 1
6 6 8 1
7 6 7 1
8 7 9 1
9 8 10 1
10 9 10 1
@<TRIPOS>MOLECULE
TYR369
12 12
SMALL
USER_CHARGES


@<TRIPOS>ATOM
1 N 37.1380004882813 34.1949996948242 30.1389999389648 N 0.0 **** 0.0
2 CA 36.5870018005371 33.9119987487793 31.4589996337891 C 0.0 **** 0.0
3 C 37.4189987182617 32.8320007324219 32.1080017089844 C 0.0 **** 0.0
4 O 38.1180000305176 32.0880012512207 31.4080009460449 O 0.0 **** 0.0
5 CB 35.1290016174316 33.4570007324219 31.3570003509521 C 0.0 **** 0.0
6 CG 34.9300003051758 32.4589996337891 30.2569999694824 C 0.0 **** 0.0
7 CD1 35.3219985961914 31.1299991607666 30.4120006561279 C 0.0 **** 0.0
8 CD2 34.4059982299805 32.859001159668 29.0219993591309 C 0.0 **** 0.0
9 CE1 35.1590003967285 30.2180004119873 29.3799991607666 C 0.0 **** 0.0
10 CE2 34.2290000915527 31.9640007019043 28.0020008087158 C 0.0 **** 0.0
11 CZ 34.6319999694824 30.6550006866455 28.1630001068115 C 0.0 **** 0.0
12 OH 34.5009994506836 29.7789993286133 27.1280002593994 O 0.0 **** 0.0
@<TRIPOS>BOND
1 1 2 1
2 2 3 1
3 2 5 1
4 3 4 1
5 5 6 1
6 6 7 1
7 6 8 1
8 7 9 1
9 8 10 1
10 9 11 1
11 10 11 1
12 11 12 1
@<TRIPOS>MOLECULE
PRO370
7 7
SMALL
USER_CHARGES


@<TRIPOS>ATOM
1 N 37.351001739502 32.6629981994629 33.435001373291 N 0.0 **** 0.0
2 CA 38.109001159668 31.6200008392334 34.056999206543 C 0.0 **** 0.0
3 C 37.6119995117188 30.2730007171631 33.5810012817383 C 0.0 **** 0.0
4 O 36.4049987792969 30.0809993743896 33.4049987792969 O 0.0 **** 0.0
5 CB 37.8450012207031 31.8299999237061 35.5579986572266 C 0.0 **** 0.0
6 CG 37.617000579834 33.3089981079102 35.6510009765625 C 0.0 **** 0.0
7 CD 36.814998626709 33.6180000305176 34.4300003051758 C 0.0 **** 0.0
@<TRIPOS>BOND
1 1 7 1
2 1 2 1
3 2 5 1
4 2 3 1
5 3 4 1
6 5 6 1
7 6 7 1
@<TRIPOS>MOLECULE
PRO371
7 7
SMALL
USER_CHARGES


@<TRIPOS>ATOM
1 N 38.4939994812012 29.3199996948242 33.3950004577637 N 0.0 **** 0.0
2 CA 38.0890007019043 27.9740009307861 33.0050010681152 C 0.0 **** 0.0
3 C 37.5340003967285 27.2169990539551 34.1980018615723 C 0.0 **** 0.0
4 O 37.5099983215332 27.7150001525879 35.326000213623 O 0.0 **** 0.0
5 CB 39.398998260498 27.3549995422363 32.523998260498 C 0.0 **** 0.0
6 CG 40.4140014648438 27.9790000915527 33.4309997558594 C 0.0 **** 0.0
7 CD 39.935001373291 29.4150009155273 33.6259994506836 C 0.0 **** 0.0
@<TRIPOS>BOND
1 1 2 1
2 1 7 1
3 2 5 1
4 2 3 1
5 3 4 1
6 5 6 1
7 6 7 1
@<TRIPOS>MOLECULE
HIS372
10 10
SMALL
USER_CHARGES


@<TRIPOS>ATOM
1 N 37.1100006103516 25.9820003509521 33.939998626709 N 0.0 **** 0.0
2 CA 36.810001373291 25.0729999542236 35.0379981994629 C 0.0 **** 0.0
3 C 37.9690017700195 25.0559997558594 36.0279998779297 C 0.0 **** 0.0
4 O 39.1349983215332 25.0359992980957 35.609001159668 O 0.0 **** 0.0
5 CB 36.556999206543 23.6669998168945 34.4980010986328 C 0.0 **** 0.0
6 CG 36.023998260498 22.7059993743896 35.5200004577637 C 0.0 **** 0.0
7 ND1 36.8050003051758 22.1730003356934 36.5229988098145 N 0.0 **** 0.0
8 CD2 34.7830009460449 22.1870002746582 35.6879997253418 C 0.0 **** 0.0
9 CE1 36.0620002746582 21.3680000305176 37.265998840332 C 0.0 **** 0.0
10 NE2 34.8330001831055 21.3619995117188 36.7789993286133 N 0.0 **** 0.0
@<TRIPOS>BOND
1 1 2 1
2 2 5 1
3 2 3 1
4 3 4 1
5 5 6 1
6 6 8 1
7 6 7 1
8 7 9 1
9 8 10 1
10 9 10 1
@<TRIPOS>MOLECULE
PRO373
7 7
SMALL
USER_CHARGES


@<TRIPOS>ATOM
1 N 37.6990013122559 25.0179996490479 37.3470001220703 N 0.0 **** 0.0
2 CA 38.810001373291 25.1450004577637 38.3009986877441 C 0.0 **** 0.0
3 C 39.8499984741211 24.0450000762939 38.1800003051758 C 0.0 **** 0.0
4 O 41.0099983215332 24.2730007171631 38.5530014038086 O 0.0 **** 0.0
5 CB 38.117000579834 25.1089992523193 39.6780014038086 C 0.0 **** 0.0
6 CG 36.7449989318848 24.4790000915527 39.4329986572266 C 0.0 **** 0.0
7 CD 36.3849983215332 24.9540004730225 38.0120010375977 C 0.0 **** 0.0
@<TRIPOS>BOND
1 1 7 1
2 1 2 1
3 2 5 1
4 2 3 1
5 3 4 1
6 5 6 1
7 6 7 1
@<TRIPOS>MOLECULE
GLN374
15 19
SMALL
USER_CHARGES


@<TRIPOS>ATOM
1 N 39.3940010070801 22.8929996490479 37.7379989624023 N 0.0 **** 0.0
2 CA 40.3650016784668 21.7099990844727 37.5069999694824 C 0.0 **** 0.0
3 CA 40.3580017089844 21.7800006866455 37.523998260498 C 0.0 **** 0.0
4 C 41.443000793457 21.8950004577637 36.3919982910156 C 0.0 **** 0.0
5 O 42.5139999389648 21.2099990844727 36.2159996032715 O 0.0 **** 0.0
6 CB 39.5589981079102 20.4629993438721 37.1129989624023 C 0.0 **** 0.0
7 CB 39.6370010375977 20.4340000152588 37.5309982299805 C 0.0 **** 0.0
8 CG 39.0970001220703 20.3840007781982 35.5859985351563 C 0.0 **** 0.0
9 CG 39.0369987487793 20.0990009307861 38.8899993896484 C 0.0 **** 0.0
10 CD 38.1640014648438 19.1760005950928 35.3219985961914 C 0.0 **** 0.0
11 CD 39.9770011901855 19.3770008087158 39.8240013122559 C 0.0 **** 0.0
12 OE1 38.3419990539551 18.1259994506836 35.9210014343262 O 0.0 **** 0.0
13 OE1 41.0909996032715 19.8169994354248 40.0960006713867 O 0.0 **** 0.0
14 NE2 37.1730003356934 19.3409996032715 34.4599990844727 N 0.0 **** 0.0
15 NE2 39.5260009765625 18.2439994812012 40.3300018310547 N 0.0 **** 0.0
@<TRIPOS>BOND
1 1 2 1
2 1 3 1
3 2 3 1
4 2 4 1
5 2 6 1
6 2 7 1
7 3 4 1
8 3 6 1
9 3 7 1
10 4 5 1
11 6 7 1
12 6 8 1
13 7 9 1
14 8 10 1
15 9 11 1
16 10 14 1
17 10 12 1
18 11 13 1
19 11 15 1
@<TRIPOS>MOLECULE
PHE375
11 11
SMALL
USER_CHARGES


@<TRIPOS>ATOM
1 N 41.148998260498 22.8939990997314 35.5359992980957 N 0.0 **** 0.0
2 CA 42.0699996948242 23.1319999694824 34.4329986572266 C 0.0 **** 0.0
3 C 43.435001373291 23.5610008239746 34.9389991760254 C 0.0 **** 0.0
4 O 44.4599990844727 23.2110004425049 34.3499984741211 O 0.0 **** 0.0
5 CB 41.4809989929199 24.2089996337891 33.5139999389648 C 0.0 **** 0.0
6 CG 42.431999206543 24.757999420166 32.523998260498 C 0.0 **** 0.0
7 CD1 42.5180015563965 24.2180004119873 31.242000579834 C 0.0 **** 0.0
8 CD2 43.2060012817383 25.8570003509521 32.8489990234375 C 0.0 **** 0.0
9 CE1 43.3680000305176 24.753999710083 30.3229999542236 C 0.0 **** 0.0
10 CE2 44.0550003051758 26.3990001678467 31.94700050354 C 0.0 **** 0.0
11 CZ 44.1539993286133 25.8589992523193 30.673999786377 C 0.0 **** 0.0
@<TRIPOS>BOND
1 1 2 1
2 2 3 1
3 2 5 1
4 3 4 1
5 5 6 1
6 6 7 1
7 6 8 1
8 7 9 1
9 8 10 1
10 9 11 1
11 10 11 1
@<TRIPOS>MOLECULE
LEU376
8 7
SMALL
USER_CHARGES


@<TRIPOS>ATOM
1 N 43.4669990539551 24.3299999237061 36.0330009460449 N 0.0 **** 0.0
2 CA 44.7029991149902 24.9750003814697 36.4599990844727 C 0.0 **** 0.0
3 C 45.7869987487793 23.9549999237061 36.810001373291 C 0.0 **** 0.0
4 O 46.9459991455078 24.1270008087158 36.4309997558594 O 0.0 **** 0.0
5 CB 44.4259986877441 25.8920001983643 37.6580009460449 C 0.0 **** 0.0
6 CG 43.8250007629395 27.2590007781982 37.3050003051758 C 0.0 **** 0.0
7 CD1 44.7859992980957 28.0279998779297 36.3919982910156 C 0.0 **** 0.0
8 CD2 42.4309997558594 27.1319999694824 36.6860008239746 C 0.0 **** 0.0
@<TRIPOS>BOND
1 1 2 1
2 2 5 1
3 2 3 1
4 3 4 1
5 5 6 1
6 6 7 1
7 6 8 1
@<TRIPOS>MOLECULE
ALA377
5 4
SMALL
USER_CHARGES


@<TRIPOS>ATOM
1 N 45.4469985961914 22.9080009460449 37.576000213623 N 0.0 **** 0.0
2 CA 46.4560012817383 21.9069995880127 37.951000213623 C 0.0 **** 0.0
3 C 46.9650001525879 21.1299991607666 36.7290000915527 C 0.0 **** 0.0
4 O 48.1370010375977 20.7320003509521 36.6839981079102 O 0.0 **** 0.0
5 CB 45.882999420166 20.9489994049072 39.0 C 0.0 **** 0.0
@<TRIPOS>BOND
1 1 2 1
2 2 3 1
3 2 5 1
4 3 4 1
@<TRIPOS>MOLECULE
LEU378
8 7
SMALL
USER_CHARGES


@<TRIPOS>ATOM
1 N 46.1100006103516 20.9090003967285 35.7280006408691 N 0.0 **** 0.0
2 CA 46.5719985961914 20.2849998474121 34.4830017089844 C 0.0 **** 0.0
3 C 47.5800018310547 21.1690006256104 33.7490005493164 C 0.0 **** 0.0
4 O 48.5540008544922 20.6639995574951 33.173999786377 O 0.0 **** 0.0
5 CB 45.375 19.9990005493164 33.5900001525879 C 0.0 **** 0.0
6 CG 44.4249992370605 18.9580001831055 34.1829986572266 C 0.0 **** 0.0
7 CD1 43.1459999084473 18.8950004577637 33.3629989624023 C 0.0 **** 0.0
8 CD2 45.1199989318848 17.5979995727539 34.2179985046387 C 0.0 **** 0.0
@<TRIPOS>BOND
1 1 2 1
2 2 3 1
3 2 5 1
4 3 4 1
5 5 6 1
6 6 8 1
7 6 7 1
@<TRIPOS>MOLECULE
ALA379
5 4
SMALL
USER_CHARGES


@<TRIPOS>ATOM
1 N 47.3370018005371 22.4829998016357 33.7130012512207 N 0.0 **** 0.0
2 CA 48.2820014953613 23.4099998474121 33.0950012207031 C 0.0 **** 0.0
3 C 49.6059989929199 23.4659996032715 33.8540000915527 C 0.0 **** 0.0
4 O 50.6860008239746 23.5100002288818 33.2389984130859 O 0.0 **** 0.0
5 CB 47.6580009460449 24.7970008850098 33.007999420166 C 0.0 **** 0.0
@<TRIPOS>BOND
1 1 2 1
2 2 5 1
3 2 3 1
4 3 4 1
@<TRIPOS>MOLECULE
ASP380
8 7
SMALL
USER_CHARGES


@<TRIPOS>ATOM
1 N 49.5449981689453 23.4979991912842 35.1969985961914 N 0.0 **** 0.0
2 CA 50.7569999694824 23.3680000305176 36.0089988708496 C 0.0 **** 0.0
3 C 51.5419998168945 22.1149997711182 35.6510009765625 C 0.0 **** 0.0
4 O 52.7830009460449 22.128999710083 35.6150016784668 O 0.0 **** 0.0
5 CB 50.4049987792969 23.2399997711182 37.4869995117188 C 0.0 **** 0.0
6 CG 49.8089981079102 24.4820003509521 38.0979995727539 C 0.0 **** 0.0
7 OD1 49.8050003051758 25.5459995269775 37.4669990539551 O 0.0 **** 0.0
8 OD2 49.3790016174316 24.3649997711182 39.3009986877441 O 0.0 **** 0.0
@<TRIPOS>BOND
1 1 2 1
2 2 5 1
3 2 3 1
4 3 4 1
5 5 6 1
6 6 7 1
7 6 8 1
@<TRIPOS>MOLECULE
GLN381
9 8
SMALL
USER_CHARGES


@<TRIPOS>ATOM
1 N 50.8339996337891 20.9930000305176 35.5040016174316 N 0.0 **** 0.0
2 CA 51.4830017089844 19.6959991455078 35.3479995727539 C 0.0 **** 0.0
3 C 52.0369987487793 19.488000869751 33.935001373291 C 0.0 **** 0.0
4 O 53.1689987182617 19.0209999084473 33.7620010375977 O 0.0 **** 0.0
5 CB 50.4860000610352 18.6079998016357 35.6879997253418 C 0.0 **** 0.0
6 CG 50.1349983215332 18.5629997253418 37.1949996948242 C 0.0 **** 0.0
7 CD 48.818000793457 17.8530006408691 37.4449996948242 C 0.0 **** 0.0
8 OE1 48.2290000915527 17.2679996490479 36.5250015258789 O 0.0 **** 0.0
9 NE2 48.3440017700195 17.9060001373291 38.6769981384277 N 0.0 **** 0.0
@<TRIPOS>BOND
1 1 2 1
2 2 3 1
3 2 5 1
4 3 4 1
5 5 6 1
6 6 7 1
7 7 8 1
8 7 9 1
@<TRIPOS>MOLECULE
LEU382
8 7
SMALL
USER_CHARGES


@<TRIPOS>ATOM
1 N 51.2389984130859 19.7649993896484 32.9259986877441 N 0.0 **** 0.0
2 CA 51.6839981079102 19.5330009460449 31.5419998168945 C 0.0 **** 0.0
3 C 52.5859985351563 20.6550006866455 31.0370006561279 C 0.0 **** 0.0
4 O 53.4440002441406 20.4209995269775 30.1770000457764 O 0.0 **** 0.0
5 CB 50.4669990539551 19.3700008392334 30.617000579834 C 0.0 **** 0.0
6 CG 49.6220016479492 18.1200008392334 30.9060001373291 C 0.0 **** 0.0
7 CD1 48.3470001220703 18.1340007781982 30.0470008850098 C 0.0 **** 0.0
8 CD2 50.3979988098145 16.8910007476807 30.6599998474121 C 0.0 **** 0.0
@<TRIPOS>BOND
1 1 2 1
2 2 3 1
3 2 5 1
4 3 4 1
5 5 6 1
6 6 7 1
7 6 8 1
@<TRIPOS>MOLECULE
GLY383
4 3
SMALL
USER_CHARGES


@<TRIPOS>ATOM
1 N 52.4179992675781 21.8549995422363 31.5699996948242 N 0.0 **** 0.0
2 CA 53.2779998779297 22.9780006408691 31.2639999389648 C 0.0 **** 0.0
3 C 52.7560005187988 23.882999420166 30.1790008544922 C 0.0 **** 0.0
4 O 53.0299987792969 23.6429996490479 28.996000289917 O 0.0 **** 0.0
@<TRIPOS>BOND
1 1 2 1
2 2 3 1
3 3 4 1
@<TRIPOS>MOLECULE
PHE384
11 11
SMALL
USER_CHARGES


@<TRIPOS>ATOM
1 N 52.0120010375977 24.9139995574951 30.576000213623 N 0.0 **** 0.0
2 CA 51.5779991149902 26.0069999694824 29.7119998931885 C 0.0 **** 0.0
3 C 51.7280006408691 27.3050003051758 30.4769992828369 C 0.0 **** 0.0
4 O 51.4620018005371 27.3560009002686 31.6800003051758 O 0.0 **** 0.0
5 CB 50.1240005493164 25.8939990997314 29.2789993286133 C 0.0 **** 0.0
6 CG 49.7939987182617 24.6389999389648 28.5249996185303 C 0.0 **** 0.0
7 CD1 49.9020004272461 24.5970001220703 27.1420001983643 C 0.0 **** 0.0
8 CD2 49.3499984741211 23.5090007781982 29.1849994659424 C 0.0 **** 0.0
9 CE1 49.5909996032715 23.4419994354248 26.4379997253418 C 0.0 **** 0.0
10 CE2 49.0250015258789 22.3579998016357 28.4720001220703 C 0.0 **** 0.0
11 CZ 49.1510009765625 22.3369998931885 27.0860004425049 C 0.0 **** 0.0
@<TRIPOS>BOND
1 1 2 1
2 2 5 1
3 2 3 1
4 3 4 1
5 5 6 1
6 6 7 1
7 6 8 1
8 7 9 1
9 8 10 1
10 9 11 1
11 10 11 1
@<TRIPOS>MOLECULE
TYR385
12 12
SMALL
USER_CHARGES


@<TRIPOS>ATOM
1 N 52.1790008544922 28.3430004119873 29.7910003662109 N 0.0 **** 0.0
2 CA 52.0730018615723 29.701000213623 30.2889995574951 C 0.0 **** 0.0
3 C 50.6310005187988 30.1569995880127 30.0970001220703 C 0.0 **** 0.0
4 O 50.1559982299805 30.2059993743896 28.9669990539551 O 0.0 **** 0.0
5 CB 53.0309982299805 30.625 29.5319995880127 C 0.0 **** 0.0
6 CG 54.4860000610352 30.1959991455078 29.5669994354248 C 0.0 **** 0.0
7 CD1 55.2120018005371 30.1709995269775 30.7830009460449 C 0.0 **** 0.0
8 CD2 55.1380004882813 29.818000793457 28.4060001373291 C 0.0 **** 0.0
9 CE1 56.5279998779297 29.7709999084473 30.8090000152588 C 0.0 **** 0.0
10 CE2 56.4500007629395 29.431999206543 28.4230003356934 C 0.0 **** 0.0
11 CZ 57.1539993286133 29.4120006561279 29.6350002288818 C 0.0 **** 0.0
12 OH 58.476001739502 29.0209999084473 29.6830005645752 O 0.0 **** 0.0
@<TRIPOS>BOND
1 1 2 1
2 2 3 1
3 2 5 1
4 3 4 1
5 5 6 1
6 6 7 1
7 6 8 1
8 7 9 1
9 8 10 1
10 9 11 1
11 10 11 1
12 11 12 1
@<TRIPOS>MOLECULE
VAL386
7 6
SMALL
USER_CHARGES


@<TRIPOS>ATOM
1 N 49.9370002746582 30.4930000305176 31.1900005340576 N 0.0 **** 0.0
2 CA 48.5040016174316 30.7870006561279 31.1439990997314 C 0.0 **** 0.0
3 C 48.257999420166 32.2719993591309 31.3689994812012 C 0.0 **** 0.0
4 O 48.7900009155273 32.8720016479492 32.3160018920898 O 0.0 **** 0.0
5 CB 47.7270011901855 29.943000793457 32.1720008850098 C 0.0 **** 0.0
6 CG1 46.2639999389648 30.32200050354 32.1809997558594 C 0.0 **** 0.0
7 CG2 47.8460006713867 28.4740009307861 31.8400001525879 C 0.0 **** 0.0
@<TRIPOS>BOND
1 1 2 1
2 2 5 1
3 2 3 1
4 3 4 1
5 5 6 1
6 5 7 1
@<TRIPOS>MOLECULE
VAL387
7 6
SMALL
USER_CHARGES


@<TRIPOS>ATOM
1 N 47.4410018920898 32.8559989929199 30.4990005493164 N 0.0 **** 0.0
2 CA 46.8530006408691 34.1730003356934 30.6860008239746 C 0.0 **** 0.0
3 C 45.4480018615723 33.8959999084473 31.201000213623 C 0.0 **** 0.0
4 O 44.5820007324219 33.4000015258789 30.4619998931885 O 0.0 **** 0.0
5 CB 46.8349990844727 35.0029983520508 29.3939990997314 C 0.0 **** 0.0
6 CG1 46.1300010681152 36.3520011901855 29.6389999389648 C 0.0 **** 0.0
7 CG2 48.2669982910156 35.242000579834 28.8859996795654 C 0.0 **** 0.0
@<TRIPOS>BOND
1 1 2 1
2 2 5 1
3 2 3 1
4 3 4 1
5 5 7 1
6 5 6 1
@<TRIPOS>MOLECULE
LEU388
8 7
SMALL
USER_CHARGES


@<TRIPOS>ATOM
1 N 45.2529983520508 34.0960006713867 32.4980010986328 N 0.0 **** 0.0
2 CA 43.9900016784668 33.7910003662109 33.2070007324219 C 0.0 **** 0.0
3 C 43.1279983520508 35.0499992370605 33.1469993591309 C 0.0 **** 0.0
4 O 43.4630012512207 36.0180015563965 33.7729988098145 O 0.0 **** 0.0
5 CB 44.3190002441406 33.3629989624023 34.6370010375977 C 0.0 **** 0.0
6 CG 43.2620010375977 32.5250015258789 35.3380012512207 C 0.0 **** 0.0
7 CD1 41.9669990539551 33.2799987792969 35.4739990234375 C 0.0 **** 0.0
8 CD2 43.0299987792969 31.2110004425049 34.6240005493164 C 0.0 **** 0.0
@<TRIPOS>BOND
1 1 2 1
2 2 3 1
3 2 5 1
4 3 4 1
5 5 6 1
6 6 7 1
7 6 8 1
@<TRIPOS>MOLECULE
GLU389
9 8
SMALL
USER_CHARGES


@<TRIPOS>ATOM
1 N 42.0320014953613 34.9690017700195 32.4210014343262 N 0.0 **** 0.0
2 CA 41.2299995422363 36.1279983520508 32.0880012512207 C 0.0 **** 0.0
3 C 39.9189987182617 36.181999206543 32.8559989929199 C 0.0 **** 0.0
4 O 39.1689987182617 35.2120018005371 32.8860015869141 O 0.0 **** 0.0
5 CB 40.9669990539551 36.1360015869141 30.5739994049072 C 0.0 **** 0.0
6 CG 40.4049987792969 37.4480018615723 30.0739994049072 C 0.0 **** 0.0
7 CD 40.7350006103516 37.6349983215332 28.5709991455078 C 0.0 **** 0.0
8 OE1 41.8139991760254 38.2029991149902 28.2469997406006 O 0.0 **** 0.0
9 OE2 39.935001373291 37.1679992675781 27.7600002288818 O 0.0 **** 0.0
@<TRIPOS>BOND
1 1 2 1
2 2 3 1
3 2 5 1
4 3 4 1
5 5 6 1
6 6 7 1
7 7 8 1
8 7 9 1
@<TRIPOS>MOLECULE
CYS390
6 5
SMALL
USER_CHARGES


@<TRIPOS>ATOM
1 N 39.6150016784668 37.3610000610352 33.390998840332 N 0.0 **** 0.0
2 CA 38.3889999389648 37.6049995422363 34.1119995117188 C 0.0 **** 0.0
3 C 37.2130012512207 37.5349998474121 33.1430015563965 C 0.0 **** 0.0
4 O 37.3429985046387 37.8160018920898 31.9489994049072 O 0.0 **** 0.0
5 CB 38.4580001831055 38.9780006408691 34.7879981994629 C 0.0 **** 0.0
6 SG 37.023998260498 39.4599990844727 35.7210006713867 S 0.0 **** 0.0
@<TRIPOS>BOND
1 1 2 1
2 2 5 1
3 2 3 1
4 3 4 1
5 5 6 1
@<TRIPOS>MOLECULE
ASP391
8 7
SMALL
USER_CHARGES


@<TRIPOS>ATOM
1 N 36.060001373291 37.1510009765625 33.6829986572266 N 0.0 **** 0.0
2 CA 34.7690010070801 37.0629997253418 32.9850006103516 C 0.0 **** 0.0
3 C 34.2029991149902 38.4669990539551 32.818000793457 C 0.0 **** 0.0
4 O 33.4199981689453 38.9589996337891 33.6310005187988 O 0.0 **** 0.0
5 CB 33.8320007324219 36.1590003967285 33.7910003662109 C 0.0 **** 0.0
6 CG 32.6209983825684 35.6720008850098 33.007999420166 C 0.0 **** 0.0
7 OD1 32.3219985961914 36.1940002441406 31.8959999084473 O 0.0 **** 0.0
8 OD2 31.9689998626709 34.7459983825684 33.5110015869141 O 0.0 **** 0.0
@<TRIPOS>BOND
1 1 2 1
2 2 3 1
3 2 5 1
4 3 4 1
5 5 6 1
6 6 7 1
7 6 8 1
@<TRIPOS>MOLECULE
LEU392
8 7
SMALL
USER_CHARGES


@<TRIPOS>ATOM
1 N 34.6240005493164 39.1419982910156 31.753999710083 N 0.0 **** 0.0
2 CA 34.1430015563965 40.4990005493164 31.4720001220703 C 0.0 **** 0.0
3 C 34.2620010375977 40.8009986877441 29.9780006408691 C 0.0 **** 0.0
4 O 35.3699989318848 40.7430000305176 29.42799949646 O 0.0 **** 0.0
5 CB 34.9410018920898 41.507999420166 32.2709999084473 C 0.0 **** 0.0
6 CG 34.6529998779297 42.9729995727539 31.8929996490479 C 0.0 **** 0.0
7 CD1 33.1559982299805 43.2949981689453 32.0390014648438 C 0.0 **** 0.0
8 CD2 35.4970016479492 43.9199981689453 32.7459983825684 C 0.0 **** 0.0
@<TRIPOS>BOND
1 1 2 1
2 2 5 1
3 2 3 1
4 3 4 1
5 5 6 1
6 6 8 1
7 6 7 1
@<TRIPOS>MOLECULE
GLU393
9 8
SMALL
USER_CHARGES


@<TRIPOS>ATOM
1 N 33.1570014953613 41.1889991760254 29.3360004425049 N 0.0 **** 0.0
2 CA 33.2140007019043 41.6020011901855 27.9220008850098 C 0.0 **** 0.0
3 C 31.9650001525879 42.4049987792969 27.621000289917 C 0.0 **** 0.0
4 O 30.8549995422363 41.9020004272461 27.8190002441406 O 0.0 **** 0.0
5 CB 33.3400001525879 40.3959999084473 26.9549999237061 C 0.0 **** 0.0
6 CG 33.3250007629395 40.875 25.4720001220703 C 0.0 **** 0.0
7 CD 34.0029983520508 39.9609985351563 24.4689998626709 C 0.0 **** 0.0
8 OE1 34.5699996948242 38.9129981994629 24.8379993438721 O 0.0 **** 0.0
9 OE2 33.9480018615723 40.3289985656738 23.2810001373291 O 0.0 **** 0.0
@<TRIPOS>BOND
1 1 2 1
2 2 3 1
3 2 5 1
4 3 4 1
5 5 6 1
6 6 7 1
7 7 8 1
8 7 9 1
@<TRIPOS>MOLECULE
THR394
7 6
SMALL
USER_CHARGES


@<TRIPOS>ATOM
1 N 32.1459999084473 43.6510009765625 27.1469993591309 N 0.0 **** 0.0
2 CA 31.0459995269775 44.5769996643066 26.8850002288818 C 0.0 **** 0.0
3 C 31.003999710083 44.9889984130859 25.4080009460449 C 0.0 **** 0.0
4 O 30.4990005493164 46.0559997558594 25.0650005340576 O 0.0 **** 0.0
5 CB 31.1550006866455 45.8120002746582 27.7670001983643 C 0.0 **** 0.0
6 OG1 32.3930015563965 46.4609985351563 27.5100002288818 O 0.0 **** 0.0
7 CG2 31.0389995574951 45.423999786377 29.2789993286133 C 0.0 **** 0.0
@<TRIPOS>BOND
1 1 2 1
2 2 5 1
3 2 3 1
4 3 4 1
5 5 6 1
6 5 7 1
@<TRIPOS>MOLECULE
HIS395
10 10
SMALL
USER_CHARGES


@<TRIPOS>ATOM
1 N 31.511999130249 44.0999984741211 24.5480003356934 N 0.0 **** 0.0
2 CA 31.8229999542236 44.3959999084473 23.1399993896484 C 0.0 **** 0.0
3 C 30.6490001678467 45.0190010070801 22.4029998779297 C 0.0 **** 0.0
4 O 30.8349990844727 45.8969993591309 21.5389995574951 O 0.0 **** 0.0
5 CB 32.2400016784668 43.0960006713867 22.4409999847412 C 0.0 **** 0.0
6 CG 32.9939994812012 43.298999786377 21.1560001373291 C 0.0 **** 0.0
7 ND1 33.4469985961914 42.2400016784668 20.3899993896484 N 0.0 **** 0.0
8 CD2 33.3810005187988 44.423999786377 20.5090007781982 C 0.0 **** 0.0
9 CE1 34.0820007324219 42.7099990844727 19.3269996643066 C 0.0 **** 0.0
10 NE2 34.0559997558594 44.0320014953613 19.3759994506836 N 0.0 **** 0.0
@<TRIPOS>BOND
1 1 2 1
2 2 5 1
3 2 3 1
4 3 4 1
5 5 6 1
6 6 8 1
7 6 7 1
8 7 9 1
9 8 10 1
10 9 10 1
@<TRIPOS>MOLECULE
GLY396
4 3
SMALL
USER_CHARGES


@<TRIPOS>ATOM
1 N 29.4330005645752 44.556999206543 22.6919994354248 N 0.0 **** 0.0
2 CA 28.2759990692139 45.0519981384277 21.9650001525879 C 0.0 **** 0.0
3 C 27.9169998168945 46.4990005493164 22.2560005187988 C 0.0 **** 0.0
4 O 26.9650001525879 46.9970016479492 21.6499996185303 O 0.0 **** 0.0
@<TRIPOS>BOND
1 1 2 1
2 2 3 1
3 3 4 1
@<TRIPOS>MOLECULE
PHE397
11 11
SMALL
USER_CHARGES


@<TRIPOS>ATOM
1 N 28.6009998321533 47.1699981689453 23.1669998168945 N 0.0 **** 0.0
2 CA 28.4489994049072 48.625 23.3439998626709 C 0.0 **** 0.0
3 C 29.2549991607666 49.3849983215332 22.2889995574951 C 0.0 **** 0.0
4 O 29.0149993896484 50.5429992675781 22.1399993896484 O 0.0 **** 0.0
5 CB 28.871000289917 49.0139999389648 24.75 C 0.0 **** 0.0
6 CG 27.8460006713867 48.6069984436035 25.7590007781982 C 0.0 **** 0.0
7 CD1 27.8540000915527 47.359001159668 26.3439998626709 C 0.0 **** 0.0
8 CD2 26.8090000152588 49.4519996643066 26.0319995880127 C 0.0 **** 0.0
9 CE1 26.8759994506836 46.9980010986328 27.2430000305176 C 0.0 **** 0.0
10 CE2 25.8309993743896 49.0940017700195 26.9179992675781 C 0.0 **** 0.0
11 CZ 25.8570003509521 47.8639984130859 27.5179996490479 C 0.0 **** 0.0
@<TRIPOS>BOND
1 1 2 1
2 2 3 1
3 2 5 1
4 3 4 1
5 5 6 1
6 6 8 1
7 6 7 1
8 7 9 1
9 8 10 1
10 9 11 1
11 10 11 1
@<TRIPOS>MOLECULE
GLU398
9 8
SMALL
USER_CHARGES


@<TRIPOS>ATOM
1 N 30.1709995269775 48.7449989318848 21.5769996643066 N 0.0 **** 0.0
2 CA 31.0109996795654 49.4679985046387 20.625 C 0.0 **** 0.0
3 C 30.1840000152588 50.1370010375977 19.5330009460449 C 0.0 **** 0.0
4 O 30.5109996795654 51.2389984130859 19.0909996032715 O 0.0 **** 0.0
5 CB 32.0390014648438 48.5320014953613 19.992000579834 C 0.0 **** 0.0
6 CG 33.0429992675781 49.2709999084473 19.1590003967285 C 0.0 **** 0.0
7 CD 34.2089996337891 48.4059982299805 18.7129993438721 C 0.0 **** 0.0
8 OE1 33.9819984436035 47.1990013122559 18.4449996948242 O 0.0 **** 0.0
9 OE2 35.3460006713867 48.9449996948242 18.617000579834 O 0.0 **** 0.0
@<TRIPOS>BOND
1 1 2 1
2 2 3 1
3 2 5 1
4 3 4 1
5 5 6 1
6 6 7 1
7 7 9 1
8 7 8 1
@<TRIPOS>MOLECULE
SER399
6 5
SMALL
USER_CHARGES


@<TRIPOS>ATOM
1 N 29.0909996032715 49.507999420166 19.1030006408691 N 0.0 **** 0.0
2 CA 28.3980007171631 50.0279998779297 17.9300003051758 C 0.0 **** 0.0
3 C 27.6770000457764 51.3390007019043 18.2220001220703 C 0.0 **** 0.0
4 O 27.2549991607666 52.0149993896484 17.2800006866455 O 0.0 **** 0.0
5 CB 27.3999996185303 49.0009994506836 17.4160003662109 C 0.0 **** 0.0
6 OG 26.382999420166 48.8279991149902 18.3579998016357 O 0.0 **** 0.0
@<TRIPOS>BOND
1 1 2 1
2 2 5 1
3 2 3 1
4 3 4 1
5 5 6 1
@<TRIPOS>MOLECULE
ALA400
5 4
SMALL
USER_CHARGES


@<TRIPOS>ATOM
1 N 27.5289993286133 51.7150001525879 19.4990005493164 N 0.0 **** 0.0
2 CA 26.9799995422363 53.0139999389648 19.8740005493164 C 0.0 **** 0.0
3 C 28.0650005340576 53.9259986877441 20.4230003356934 C 0.0 **** 0.0
4 O 27.7999992370605 54.7789993286133 21.2830009460449 O 0.0 **** 0.0
5 CB 25.867000579834 52.8419990539551 20.9009990692139 C 0.0 **** 0.0
@<TRIPOS>BOND
1 1 2 1
2 2 3 1
3 2 5 1
4 3 4 1
@<TRIPOS>MOLECULE
GLY401
4 3
SMALL
USER_CHARGES


@<TRIPOS>ATOM
1 N 29.2970008850098 53.7229995727539 19.9619998931885 N 0.0 **** 0.0
2 CA 30.3969993591309 54.5369987487793 20.4309997558594 C 0.0 **** 0.0
3 C 30.6860008239746 54.3310012817383 21.9060001373291 C 0.0 **** 0.0
4 O 31.1590003967285 55.2569999694824 22.5639991760254 O 0.0 **** 0.0
@<TRIPOS>BOND
1 1 2 1
2 2 3 1
3 3 4 1
@<TRIPOS>MOLECULE
TRP402
14 15
SMALL
USER_CHARGES


@<TRIPOS>ATOM
1 N 30.367000579834 53.1450004577637 22.4440002441406 N 0.0 **** 0.0
2 CA 30.5440006256104 52.7639999389648 23.8549995422363 C 0.0 **** 0.0
3 C 29.6959991455078 53.5820007324219 24.8059997558594 C 0.0 **** 0.0
4 O 29.9409999847412 53.5610008239746 26.0230007171631 O 0.0 **** 0.0
5 CB 32.015998840332 52.8330001831055 24.2919998168945 C 0.0 **** 0.0
6 CG 32.9039993286133 51.9819984436035 23.44700050354 C 0.0 **** 0.0
7 CD1 33.6469993591309 52.3759994506836 22.3610000610352 C 0.0 **** 0.0
8 CD2 33.1339988708496 50.5789985656738 23.6070003509521 C 0.0 **** 0.0
9 NE1 34.314998626709 51.2890014648438 21.8390007019043 N 0.0 **** 0.0
10 CE2 34.0349998474121 50.1870002746582 22.6100006103516 C 0.0 **** 0.0
11 CE3 32.6619987487793 49.6150016784668 24.5100002288818 C 0.0 **** 0.0
12 CZ2 34.4630012512207 48.8860015869141 22.4759998321533 C 0.0 **** 0.0
13 CZ3 33.1180000305176 48.314998626709 24.3810005187988 C 0.0 **** 0.0
14 CH2 33.9970016479492 47.9679985046387 23.375 C 0.0 **** 0.0
@<TRIPOS>BOND
1 1 2 1
2 2 3 1
3 2 5 1
4 3 4 1
5 5 6 1
6 6 8 1
7 6 7 1
8 7 9 1
9 8 10 1
10 8 11 1
11 9 10 1
12 10 12 1
13 11 13 1
14 12 14 1
15 13 14 1
@<TRIPOS>MOLECULE
ALA403
5 4
SMALL
USER_CHARGES


@<TRIPOS>ATOM
1 N 28.6700000762939 54.2729988098145 24.306999206543 N 0.0 **** 0.0
2 CA 27.6840000152588 54.8479995727539 25.2129993438721 C 0.0 **** 0.0
3 C 27.0979995727539 53.773998260498 26.117000579834 C 0.0 **** 0.0
4 O 26.7910003662109 52.648998260498 25.6879997253418 O 0.0 **** 0.0
5 CB 26.5470008850098 55.5349998474121 24.443000793457 C 0.0 **** 0.0
@<TRIPOS>BOND
1 1 2 1
2 2 3 1
3 2 5 1
4 3 4 1
@<TRIPOS>MOLECULE
GLN404
9 8
SMALL
USER_CHARGES


@<TRIPOS>ATOM
1 N 26.9459991455078 54.076000213623 27.4200000762939 N 0.0 **** 0.0
2 CA 26.3780002593994 53.234001159668 28.4969997406006 C 0.0 **** 0.0
3 C 27.2880001068115 52.0340003967285 28.7859992980957 C 0.0 **** 0.0
4 O 26.8150005340576 51.1539993286133 29.4489994049072 O 0.0 **** 0.0
5 CB 24.9370002746582 52.8009986877441 28.2339992523193 C 0.0 **** 0.0
6 CG 24.0330009460449 53.9179992675781 27.7479991912842 C 0.0 **** 0.0
7 CD 22.621000289917 53.4220008850098 27.628999710083 C 0.0 **** 0.0
8 OE1 22.1049995422363 53.2109985351563 26.5520000457764 O 0.0 **** 0.0
9 NE2 22.007999420166 53.1780014038086 28.757999420166 N 0.0 **** 0.0
@<TRIPOS>BOND
1 1 2 1
2 2 5 1
3 2 3 1
4 3 4 1
5 5 6 1
6 6 7 1
7 7 8 1
8 7 9 1
@<TRIPOS>MOLECULE
ASN405
8 7
SMALL
USER_CHARGES


@<TRIPOS>ATOM
1 N 28.5349998474121 52.0719985961914 28.3430004119873 N 0.0 **** 0.0
2 CA 29.4419994354248 50.9269981384277 28.5729999542236 C 0.0 **** 0.0
3 C 29.5540008544922 50.7130012512207 30.0799999237061 C 0.0 **** 0.0
4 O 29.9720001220703 51.5900001525879 30.7509994506836 O 0.0 **** 0.0
5 CB 30.8400001525879 51.2350006103516 28.0389995574951 C 0.0 **** 0.0
6 CG 31.8010005950928 50.0709991455078 28.1399993896484 C 0.0 **** 0.0
7 OD1 31.3899993896484 48.9669990539551 28.382999420166 O 0.0 **** 0.0
8 ND2 33.0709991455078 50.3240013122559 27.9300003051758 N 0.0 **** 0.0
@<TRIPOS>BOND
1 1 2 1
2 2 5 1
3 2 3 1
4 3 4 1
5 5 6 1
6 6 7 1
7 6 8 1
@<TRIPOS>MOLECULE
PRO406
7 7
SMALL
USER_CHARGES


@<TRIPOS>ATOM
1 N 29.32200050354 49.4980010986328 30.5900001525879 N 0.0 **** 0.0
2 CA 29.4619998931885 49.2109985351563 32.0139999389648 C 0.0 **** 0.0
3 C 30.8680000305176 49.4550018310547 32.5719985961914 C 0.0 **** 0.0
4 O 30.9759998321533 49.810001373291 33.6879997253418 O 0.0 **** 0.0
5 CB 29.0659999847412 47.7449989318848 32.1100006103516 C 0.0 **** 0.0
6 CG 28.1159992218018 47.5769996643066 30.9780006408691 C 0.0 **** 0.0
7 CD 28.7029991149902 48.4129981994629 29.8700008392334 C 0.0 **** 0.0
@<TRIPOS>BOND
1 1 7 1
2 1 2 1
3 2 3 1
4 2 5 1
5 3 4 1
6 5 6 1
7 6 7 1
@<TRIPOS>MOLECULE
SER407
6 5
SMALL
USER_CHARGES


@<TRIPOS>ATOM
1 N 31.8950004577637 49.2779998779297 31.7549991607666 N 0.0 **** 0.0
2 CA 33.2859992980957 49.4630012512207 32.2099990844727 C 0.0 **** 0.0
3 C 33.5149993896484 50.8849983215332 32.7319984436035 C 0.0 **** 0.0
4 O 34.4199981689453 51.0530014038086 33.4860000610352 O 0.0 **** 0.0
5 CB 34.2529983520508 49.0880012512207 31.1280002593994 C 0.0 **** 0.0
6 OG 33.9230003356934 47.8370018005371 30.5960006713867 O 0.0 **** 0.0
@<TRIPOS>BOND
1 1 2 1
2 2 5 1
3 2 3 1
4 3 4 1
5 5 6 1
@<TRIPOS>MOLECULE
ASP408
8 7
SMALL
USER_CHARGES


@<TRIPOS>ATOM
1 N 32.75 51.8699989318848 32.2700004577637 N 0.0 **** 0.0
2 CA 32.9360008239746 53.2529983520508 32.7150001525879 C 0.0 **** 0.0
3 C 31.7409992218018 53.7789993286133 33.4910011291504 C 0.0 **** 0.0
4 O 31.6439990997314 54.9910011291504 33.7109985351563 O 0.0 **** 0.0
5 CB 33.2439994812012 54.185001373291 31.5230007171631 C 0.0 **** 0.0
6 CG 33.9309997558594 55.4640007019043 31.9540004730225 C 0.0 **** 0.0
7 OD1 34.7789993286133 55.4309997558594 32.8759994506836 O 0.0 **** 0.0
8 OD2 33.6430015563965 56.5089988708496 31.3880004882813 O 0.0 **** 0.0
@<TRIPOS>BOND
1 1 2 1
2 2 5 1
3 2 3 1
4 3 4 1
5 5 6 1
6 6 7 1
7 6 8 1
@<TRIPOS>MOLECULE
ASP409
8 7
SMALL
USER_CHARGES


@<TRIPOS>ATOM
1 N 30.8530006408691 52.9090003967285 33.9580001831055 N 0.0 **** 0.0
2 CA 29.6410007476807 53.3699989318848 34.6199989318848 C 0.0 **** 0.0
3 C 29.806999206543 53.1479988098145 36.1150016784668 C 0.0 **** 0.0
4 O 29.9720001220703 51.9980010986328 36.5439987182617 O 0.0 **** 0.0
5 CB 28.4220008850098 52.6160011291504 34.0979995727539 C 0.0 **** 0.0
6 CG 27.1340007781982 52.9900016784668 34.7700004577637 C 0.0 **** 0.0
7 OD1 27.117000579834 53.5460014343262 35.8959999084473 O 0.0 **** 0.0
8 OD2 26.0909996032715 52.6730003356934 34.1539993286133 O 0.0 **** 0.0
@<TRIPOS>BOND
1 1 2 1
2 2 5 1
3 2 3 1
4 3 4 1
5 5 6 1
6 6 8 1
7 6 7 1
@<TRIPOS>MOLECULE
PRO410
7 7
SMALL
USER_CHARGES


@<TRIPOS>ATOM
1 N 29.8190002441406 54.193000793457 36.9280014038086 N 0.0 **** 0.0
2 CA 30.0100002288818 53.9889984130859 38.3699989318848 C 0.0 **** 0.0
3 C 29.0849990844727 52.9599990844727 38.984001159668 C 0.0 **** 0.0
4 O 29.4720001220703 52.3199996948242 39.9630012512207 O 0.0 **** 0.0
5 CB 29.7280006408691 55.3810005187988 38.9500007629395 C 0.0 **** 0.0
6 CG 29.9640007019043 56.3160018920898 37.8419990539551 C 0.0 **** 0.0
7 CD 29.6030006408691 55.6059989929199 36.5960006713867 C 0.0 **** 0.0
@<TRIPOS>BOND
1 1 7 1
2 1 2 1
3 2 3 1
4 2 5 1
5 3 4 1
6 5 6 1
7 6 7 1
@<TRIPOS>MOLECULE
GLN411
9 8
SMALL
USER_CHARGES


@<TRIPOS>ATOM
1 N 27.8549995422363 52.8040008544922 38.4809989929199 N 0.0 **** 0.0
2 CA 26.9549999237061 51.8380012512207 39.1119995117188 C 0.0 **** 0.0
3 C 27.5020008087158 50.4070014953613 39.0610008239746 C 0.0 **** 0.0
4 O 27.1140003204346 49.5800018310547 39.898998260498 O 0.0 **** 0.0
5 CB 25.5820007324219 51.8870010375977 38.4529991149902 C 0.0 **** 0.0
6 CG 24.8969993591309 53.2509994506836 38.5610008239746 C 0.0 **** 0.0
7 CD 23.3819999694824 53.1669998168945 38.5359992980957 C 0.0 **** 0.0
8 OE1 22.7859992980957 53.1100006103516 37.4669990539551 O 0.0 **** 0.0
9 NE2 22.7479991912842 53.1679992675781 39.7270011901855 N 0.0 **** 0.0
@<TRIPOS>BOND
1 1 2 1
2 2 3 1
3 2 5 1
4 3 4 1
5 5 6 1
6 6 7 1
7 7 9 1
8 7 8 1
@<TRIPOS>MOLECULE
TRP412
14 15
SMALL
USER_CHARGES


@<TRIPOS>ATOM
1 N 28.3470001220703 50.0979995727539 38.0900001525879 N 0.0 **** 0.0
2 CA 28.9220008850098 48.7519989013672 37.8790016174316 C 0.0 **** 0.0
3 C 30.2520008087158 48.5120010375977 38.5989990234375 C 0.0 **** 0.0
4 O 30.7670001983643 47.4290008544922 38.4440002441406 O 0.0 **** 0.0
5 CB 29.0919990539551 48.5940017700195 36.3779983520508 C 0.0 **** 0.0
6 CG 27.8290004730225 48.2949981689453 35.6559982299805 C 0.0 **** 0.0
7 CD1 26.9419994354248 49.1399993896484 35.0730018615723 C 0.0 **** 0.0
8 CD2 27.30299949646 46.9930000305176 35.4690017700195 C 0.0 **** 0.0
9 NE1 25.9270000457764 48.4459991455078 34.4980010986328 N 0.0 **** 0.0
10 CE2 26.1299991607666 47.1209983825684 34.7169990539551 C 0.0 **** 0.0
11 CE3 27.761999130249 45.7389984130859 35.8359985351563 C 0.0 **** 0.0
12 CZ2 25.3719997406006 46.0260009765625 34.3650016784668 C 0.0 **** 0.0
13 CZ3 27.0240001678467 44.6580009460449 35.4720001220703 C 0.0 **** 0.0
14 CH2 25.8589992523193 44.8129997253418 34.7560005187988 C 0.0 **** 0.0
@<TRIPOS>BOND
1 1 2 1
2 2 5 1
3 2 3 1
4 3 4 1
5 5 6 1
6 6 7 1
7 6 8 1
8 7 9 1
9 8 11 1
10 8 10 1
11 9 10 1
12 10 12 1
13 11 13 1
14 12 14 1
15 13 14 1
@<TRIPOS>MOLECULE
GLU413
9 8
SMALL
USER_CHARGES


@<TRIPOS>ATOM
1 N 30.7660007476807 49.435001373291 39.3899993896484 N 0.0 **** 0.0
2 CA 32.0880012512207 49.2290000915527 39.9780006408691 C 0.0 **** 0.0
3 C 32.1380004882813 47.9830017089844 40.8629989624023 C 0.0 **** 0.0
4 O 33.0229988098145 47.1310005187988 40.7050018310547 O 0.0 **** 0.0
5 CB 32.5279998779297 50.4599990844727 40.7750015258789 C 0.0 **** 0.0
6 CG 33.9959983825684 50.3499984741211 41.2439994812012 C 0.0 **** 0.0
7 CD 34.4420013427734 51.4860000610352 42.1339988708496 C 0.0 **** 0.0
8 OE1 33.992000579834 52.6160011291504 41.9529991149902 O 0.0 **** 0.0
9 OE2 35.2350006103516 51.2389984130859 43.0519981384277 O 0.0 **** 0.0
@<TRIPOS>BOND
1 1 2 1
2 2 5 1
3 2 3 1
4 3 4 1
5 5 6 1
6 6 7 1
7 7 8 1
8 7 9 1
@<TRIPOS>MOLECULE
ASP414
8 7
SMALL
USER_CHARGES


@<TRIPOS>ATOM
1 N 31.2119998931885 47.8660011291504 41.8219985961914 N 0.0 **** 0.0
2 CA 31.2609996795654 46.7299995422363 42.7369995117188 C 0.0 **** 0.0
3 C 31.1459999084473 45.4029998779297 41.9869995117188 C 0.0 **** 0.0
4 O 31.8129997253418 44.4300003051758 42.3499984741211 O 0.0 **** 0.0
5 CB 30.1439990997314 46.826000213623 43.7820014953613 C 0.0 **** 0.0
6 CG 30.386999130249 47.9129981994629 44.7939987182617 C 0.0 **** 0.0
7 OD1 31.5209999084473 48.4309997558594 44.8769989013672 O 0.0 **** 0.0
8 OD2 29.42799949646 48.2620010375977 45.484001159668 O 0.0 **** 0.0
@<TRIPOS>BOND
1 1 2 1
2 2 3 1
3 2 5 1
4 3 4 1
5 5 6 1
6 6 7 1
7 6 8 1
@<TRIPOS>MOLECULE
ALA415
5 4
SMALL
USER_CHARGES


@<TRIPOS>ATOM
1 N 30.2560005187988 45.3279991149902 40.9879989624023 N 0.0 **** 0.0
2 CA 30.0960006713867 44.0970001220703 40.2070007324219 C 0.0 **** 0.0
3 C 31.3840007781982 43.6990013122559 39.4819984436035 C 0.0 **** 0.0
4 O 31.7199993133545 42.5050010681152 39.3979988098145 O 0.0 **** 0.0
5 CB 28.9850006103516 44.2540016174316 39.1749992370605 C 0.0 **** 0.0
@<TRIPOS>BOND
1 1 2 1
2 2 5 1
3 2 3 1
4 3 4 1
@<TRIPOS>MOLECULE
LEU416
8 7
SMALL
USER_CHARGES


@<TRIPOS>ATOM
1 N 32.0709991455078 44.673999786377 38.8819999694824 N 0.0 **** 0.0
2 CA 33.257999420166 44.3810005187988 38.0880012512207 C 0.0 **** 0.0
3 C 34.4739990234375 44.1049995422363 38.9799995422363 C 0.0 **** 0.0
4 O 35.2680015563965 43.1990013122559 38.693000793457 O 0.0 **** 0.0
5 CB 33.5200004577637 45.5320014953613 37.1259994506836 C 0.0 **** 0.0
6 CG 32.9770011901855 45.2779998779297 35.6959991455078 C 0.0 **** 0.0
7 CD1 31.5090007781982 44.935001373291 35.681999206543 C 0.0 **** 0.0
8 CD2 33.2649993896484 46.4819984436035 34.7919998168945 C 0.0 **** 0.0
@<TRIPOS>BOND
1 1 2 1
2 2 5 1
3 2 3 1
4 3 4 1
5 5 6 1
6 6 7 1
7 6 8 1
@<TRIPOS>MOLECULE
VAL417
7 6
SMALL
USER_CHARGES


@<TRIPOS>ATOM
1 N 34.6119995117188 44.8289985656738 40.0970001220703 N 0.0 **** 0.0
2 CA 35.6790008544922 44.4770011901855 41.0349998474121 C 0.0 **** 0.0
3 C 35.4389991760254 43.0830001831055 41.6199989318848 C 0.0 **** 0.0
4 O 36.375 42.2910003662109 41.7999992370605 O 0.0 **** 0.0
5 CB 35.7910003662109 45.5530014038086 42.125 C 0.0 **** 0.0
6 CG1 36.7430000305176 45.1069984436035 43.2649993896484 C 0.0 **** 0.0
7 CG2 36.234001159668 46.8849983215332 41.5190010070801 C 0.0 **** 0.0
@<TRIPOS>BOND
1 1 2 1
2 2 3 1
3 2 5 1
4 3 4 1
5 5 7 1
6 5 6 1
@<TRIPOS>MOLECULE
ASP418
8 7
SMALL
USER_CHARGES


@<TRIPOS>ATOM
1 N 34.1780014038086 42.7430000305176 41.8889999389648 N 0.0 **** 0.0
2 CA 33.8759994506836 41.4020004272461 42.382999420166 C 0.0 **** 0.0
3 C 34.3040008544922 40.3250007629395 41.3889999389648 C 0.0 **** 0.0
4 O 34.8269996643066 39.2799987792969 41.7809982299805 O 0.0 **** 0.0
5 CB 32.3819999694824 41.2809982299805 42.6870002746582 C 0.0 **** 0.0
6 CG 32.0419998168945 39.9679985046387 43.3849983215332 C 0.0 **** 0.0
7 OD1 32.3549995422363 39.8400001525879 44.5919990539551 O 0.0 **** 0.0
8 OD2 31.5219993591309 39.0419998168945 42.7130012512207 O 0.0 **** 0.0
@<TRIPOS>BOND
1 1 2 1
2 2 5 1
3 2 3 1
4 3 4 1
5 5 6 1
6 6 7 1
7 6 8 1
@<TRIPOS>MOLECULE
ARG419
11 10
SMALL
USER_CHARGES


@<TRIPOS>ATOM
1 N 34.0740013122559 40.5439987182617 40.0960006713867 N 0.0 **** 0.0
2 CA 34.4770011901855 39.5460014343262 39.1150016784668 C 0.0 **** 0.0
3 C 35.9819984436035 39.3349990844727 39.1629981994629 C 0.0 **** 0.0
4 O 36.4729995727539 38.1980018615723 39.132999420166 O 0.0 **** 0.0
5 CB 34.0419998168945 39.9770011901855 37.7019996643066 C 0.0 **** 0.0
6 CG 32.5449981689453 39.8660011291504 37.4309997558594 C 0.0 **** 0.0
7 CD 32.0139999389648 40.6110000610352 36.1539993286133 C 0.0 **** 0.0
8 NE 30.5860004425049 40.3390007019043 36.0610008239746 N 0.0 **** 0.0
9 CZ 30.0349998474121 39.3250007629395 35.390998840332 C 0.0 **** 0.0
10 NH1 30.7679996490479 38.5250015258789 34.6119995117188 N 0.0 **** 0.0
11 NH2 28.7189998626709 39.1080017089844 35.5060005187988 N 0.0 **** 0.0
@<TRIPOS>BOND
1 1 2 1
2 2 3 1
3 2 5 1
4 3 4 1
5 5 6 1
6 6 7 1
7 7 8 1
8 8 9 1
9 9 10 1
10 9 11 1
@<TRIPOS>MOLECULE
MET420
8 7
SMALL
USER_CHARGES


@<TRIPOS>ATOM
1 N 36.734001159668 40.4309997558594 39.2239990234375 N 0.0 **** 0.0
2 CA 38.185001373291 40.318000793457 39.2400016784668 C 0.0 **** 0.0
3 C 38.6590003967285 39.6609992980957 40.5169982910156 C 0.0 **** 0.0
4 O 39.5750007629395 38.8320007324219 40.4930000305176 O 0.0 **** 0.0
5 CB 38.8199996948242 41.6980018615723 39.1030006408691 C 0.0 **** 0.0
6 CG 40.2849998474121 41.6469993591309 38.742000579834 C 0.0 **** 0.0
7 SD 40.4529991149902 41.0289993286133 37.0320014953613 S 0.0 **** 0.0
8 CE 42.0929985046387 40.3810005187988 37.1040000915527 C 0.0 **** 0.0
@<TRIPOS>BOND
1 1 2 1
2 2 3 1
3 2 5 1
4 3 4 1
5 5 6 1
6 6 7 1
7 7 8 1
@<TRIPOS>MOLECULE
ARG421
11 10
SMALL
USER_CHARGES


@<TRIPOS>ATOM
1 N 38.0519981384277 40.0309982299805 41.648998260498 N 0.0 **** 0.0
2 CA 38.4080009460449 39.4090003967285 42.923999786377 C 0.0 **** 0.0
3 C 38.1809997558594 37.9029998779297 42.8919982910156 C 0.0 **** 0.0
4 O 39.0670013427734 37.1139984130859 43.2680015563965 O 0.0 **** 0.0
5 CB 37.6110000610352 40.0660018920898 44.0589981079102 C 0.0 **** 0.0
6 CG 37.7809982299805 39.4049987792969 45.4809989929199 C 0.0 **** 0.0
7 CD 37.2070007324219 40.2910003662109 46.5789985656738 C 0.0 **** 0.0
8 NE 35.8139991760254 40.5779991149902 46.3139991760254 N 0.0 **** 0.0
9 CZ 35.2799987792969 41.7949981689453 46.2519989013672 C 0.0 **** 0.0
10 NH1 35.9959983825684 42.8889999389648 46.5060005187988 N 0.0 **** 0.0
11 NH2 33.9959983825684 41.9220008850098 45.9560012817383 N 0.0 **** 0.0
@<TRIPOS>BOND
1 1 2 1
2 2 3 1
3 2 5 1
4 3 4 1
5 5 6 1
6 6 7 1
7 7 8 1
8 8 9 1
9 9 11 1
10 9 10 1
@<TRIPOS>MOLECULE
ARG422
11 10
SMALL
USER_CHARGES


@<TRIPOS>ATOM
1 N 36.9980010986328 37.4669990539551 42.443000793457 N 0.0 **** 0.0
2 CA 36.7669982910156 36.0299987792969 42.4080009460449 C 0.0 **** 0.0
3 C 37.726001739502 35.3489990234375 41.439998626709 C 0.0 **** 0.0
4 O 38.242000579834 34.2610015869141 41.7210006713867 O 0.0 **** 0.0
5 CB 35.3199996948242 35.75 42.048999786377 C 0.0 **** 0.0
6 CG 34.3549995422363 36.2470016479492 43.0740013122559 C 0.0 **** 0.0
7 CD 32.9420013427734 35.7760009765625 42.7960014343262 C 0.0 **** 0.0
8 NE 31.9969997406006 36.375 43.7309989929199 N 0.0 **** 0.0
9 CZ 31.806999206543 35.939998626709 44.9690017700195 C 0.0 **** 0.0
10 NH1 32.4480018615723 34.8639984130859 45.4160003662109 N 0.0 **** 0.0
11 NH2 30.943000793457 36.556999206543 45.75 N 0.0 **** 0.0
@<TRIPOS>BOND
1 1 2 1
2 2 3 1
3 2 5 1
4 3 4 1
5 5 6 1
6 6 7 1
7 7 8 1
8 8 9 1
9 9 10 1
10 9 11 1
@<TRIPOS>MOLECULE
THR423
7 6
SMALL
USER_CHARGES


@<TRIPOS>ATOM
1 N 38.0110015869141 36.0 40.3040008544922 N 0.0 **** 0.0
2 CA 38.9490013122559 35.4529991149902 39.3380012512207 C 0.0 **** 0.0
3 C 40.3059997558594 35.2190017700195 39.9879989624023 C 0.0 **** 0.0
4 O 40.8699989318848 34.1180000305176 39.9199981689453 O 0.0 **** 0.0
5 CB 39.0880012512207 36.4220008850098 38.1360015869141 C 0.0 **** 0.0
6 OG1 37.8790016174316 36.435001373291 37.3899993896484 O 0.0 **** 0.0
7 CG2 40.2039985656738 36.0089988708496 37.2270011901855 C 0.0 **** 0.0
@<TRIPOS>BOND
1 1 2 1
2 2 3 1
3 2 5 1
4 3 4 1
5 5 7 1
6 5 6 1
@<TRIPOS>MOLECULE
VAL424
7 6
SMALL
USER_CHARGES


@<TRIPOS>ATOM
1 N 40.867000579834 36.2700004577637 40.5769996643066 N 0.0 **** 0.0
2 CA 42.2099990844727 36.189998626709 41.1459999084473 C 0.0 **** 0.0
3 C 42.2299995422363 35.2200012207031 42.3219985961914 C 0.0 **** 0.0
4 O 43.1370010375977 34.3860015869141 42.435001373291 O 0.0 **** 0.0
5 CB 42.6949996948242 37.5919990539551 41.568000793457 C 0.0 **** 0.0
6 CG1 43.9609985351563 37.5299987792969 42.3959999084473 C 0.0 **** 0.0
7 CG2 42.9379997253418 38.4480018615723 40.3300018310547 C 0.0 **** 0.0
@<TRIPOS>BOND
1 1 2 1
2 2 5 1
3 2 3 1
4 3 4 1
5 5 6 1
6 5 7 1
@<TRIPOS>MOLECULE
GLU425
9 8
SMALL
USER_CHARGES


@<TRIPOS>ATOM
1 N 41.2599983215332 35.3339996337891 43.2389984130859 N 0.0 **** 0.0
2 CA 41.3250007629395 34.4959983825684 44.4469985961914 C 0.0 **** 0.0
3 C 41.2820014953613 33.0139999389648 44.0970001220703 C 0.0 **** 0.0
4 O 41.9480018615723 32.2019996643066 44.7360000610352 O 0.0 **** 0.0
5 CB 40.2089996337891 34.8460006713867 45.4360008239746 C 0.0 **** 0.0
6 CG 40.2669982910156 36.2379989624023 45.9809989929199 C 0.0 **** 0.0
7 CD 41.476001739502 36.5309982299805 46.8720016479492 C 0.0 **** 0.0
8 OE1 42.2220001220703 35.601001739502 47.2669982910156 O 0.0 **** 0.0
9 OE2 41.6839981079102 37.7099990844727 47.1769981384277 O 0.0 **** 0.0
@<TRIPOS>BOND
1 1 2 1
2 2 5 1
3 2 3 1
4 3 4 1
5 5 6 1
6 6 7 1
7 7 9 1
8 7 8 1
@<TRIPOS>MOLECULE
ARG426
11 10
SMALL
USER_CHARGES


@<TRIPOS>ATOM
1 N 40.5099983215332 32.625 43.0810012817383 N 0.0 **** 0.0
2 CA 40.3549995422363 31.1879997253418 42.8230018615723 C 0.0 **** 0.0
3 C 41.6780014038086 30.5389995574951 42.4269981384277 C 0.0 **** 0.0
4 O 41.9939994812012 29.4330005645752 42.8759994506836 O 0.0 **** 0.0
5 CB 39.3129997253418 30.9270000457764 41.7229995727539 C 0.0 **** 0.0
6 CG 38.7789993286133 29.4969997406006 41.8089981079102 C 0.0 **** 0.0
7 CD 37.9010009765625 29.1219997406006 40.5970001220703 C 0.0 **** 0.0
8 NE 38.7309989929199 29.0559997558594 39.4070014953613 N 0.0 **** 0.0
9 CZ 38.3030014038086 28.7959995269775 38.1730003356934 C 0.0 **** 0.0
10 NH1 37.015998840332 28.5470008850098 37.9029998779297 N 0.0 **** 0.0
11 NH2 39.1889991760254 28.8199996948242 37.1969985961914 N 0.0 **** 0.0
@<TRIPOS>BOND
1 1 2 1
2 2 5 1
3 2 3 1
4 3 4 1
5 5 6 1
6 6 7 1
7 7 8 1
8 8 9 1
9 9 11 1
10 9 10 1
@<TRIPOS>MOLECULE
ASP427
8 7
SMALL
USER_CHARGES


@<TRIPOS>ATOM
1 N 42.4550018310547 31.1989994049072 41.5690002441406 N 0.0 **** 0.0
2 CA 43.5349998474121 30.5419998168945 40.8440017700195 C 0.0 **** 0.0
3 C 44.9129981994629 31.0699996948242 41.2239990234375 C 0.0 **** 0.0
4 O 45.9029998779297 30.7259998321533 40.5699996948242 O 0.0 **** 0.0
5 CB 43.2910003662109 30.7080001831055 39.3460006713867 C 0.0 **** 0.0
6 CG 42.0279998779297 29.9950008392334 38.8759994506836 C 0.0 **** 0.0
7 OD1 41.5670013427734 29.068000793457 39.564998626709 O 0.0 **** 0.0
8 OD2 41.515998840332 30.3360004425049 37.7680015563965 O 0.0 **** 0.0
@<TRIPOS>BOND
1 1 2 1
2 2 3 1
3 2 5 1
4 3 4 1
5 5 6 1
6 6 7 1
7 6 8 1
@<TRIPOS>MOLECULE
LYS428
9 8
SMALL
USER_CHARGES


@<TRIPOS>ATOM
1 N 45.007999420166 31.8540000915527 42.2929992675781 N 0.0 **** 0.0
2 CA 46.2369995117188 32.5769996643066 42.5999984741211 C 0.0 **** 0.0
3 C 47.4059982299805 31.6849994659424 42.9949989318848 C 0.0 **** 0.0
4 O 48.5390014648438 32.1809997558594 43.0419998168945 O 0.0 **** 0.0
5 CB 45.9539985656738 33.5839996337891 43.726001739502 C 0.0 **** 0.0
6 CG 45.4029998779297 32.9189987182617 44.9780006408691 C 0.0 **** 0.0
7 CD 45.1699981689453 33.9090003967285 46.076000213623 C 0.0 **** 0.0
8 CE 44.6230010986328 33.2760009765625 47.3390007019043 C 0.0 **** 0.0
9 NZ 43.1419982910156 33.0279998779297 47.257999420166 N 0.0 **** 0.0
@<TRIPOS>BOND
1 1 2 1
2 2 3 1
3 2 5 1
4 3 4 1
5 5 6 1
6 6 7 1
7 7 8 1
8 8 9 1
@<TRIPOS>MOLECULE
ASN429
8 7
SMALL
USER_CHARGES


@<TRIPOS>ATOM
1 N 47.1800003051758 30.3990001678467 43.2910003662109 N 0.0 **** 0.0
2 CA 48.25 29.511999130249 43.7400016784668 C 0.0 **** 0.0
3 C 48.9710006713867 28.7660007476807 42.6279983520508 C 0.0 **** 0.0
4 O 49.8889999389648 27.9990005493164 42.935001373291 O 0.0 **** 0.0
5 CB 47.6780014038086 28.5030002593994 44.7439994812012 C 0.0 **** 0.0
6 CG 47.201000213623 29.1849994659424 45.9970016479492 C 0.0 **** 0.0
7 OD1 47.7290000915527 30.2399997711182 46.3680000305176 O 0.0 **** 0.0
8 ND2 46.181999206543 28.636999130249 46.6220016479492 N 0.0 **** 0.0
@<TRIPOS>BOND
1 1 2 1
2 2 5 1
3 2 3 1
4 3 4 1
5 5 6 1
6 6 7 1
7 6 8 1
@<TRIPOS>MOLECULE
HIS430
10 10
SMALL
USER_CHARGES


@<TRIPOS>ATOM
1 N 48.6150016784668 28.988000869751 41.3580017089844 N 0.0 **** 0.0
2 CA 49.0750007629395 28.1450004577637 40.2599983215332 C 0.0 **** 0.0
3 C 50.2379989624023 28.7819995880127 39.5110015869141 C 0.0 **** 0.0
4 O 50.1269989013672 29.8980007171631 38.9799995422363 O 0.0 **** 0.0
5 CB 47.9080009460449 27.8199996948242 39.3349990844727 C 0.0 **** 0.0
6 CG 46.9049987792969 26.9270000457764 39.9949989318848 C 0.0 **** 0.0
7 ND1 47.0800018310547 25.5629997253418 40.0800018310547 N 0.0 **** 0.0
8 CD2 45.7589988708496 27.2029991149902 40.6629981994629 C 0.0 **** 0.0
9 CE1 46.0719985961914 25.0300006866455 40.7589988708496 C 0.0 **** 0.0
10 NE2 45.2610015869141 26.0049991607666 41.1380004882813 N 0.0 **** 0.0
@<TRIPOS>BOND
1 1 2 1
2 2 5 1
3 2 3 1
4 3 4 1
5 5 6 1
6 6 8 1
7 6 7 1
8 7 9 1
9 8 10 1
10 9 10 1
@<TRIPOS>MOLECULE
ALA431
5 4
SMALL
USER_CHARGES


@<TRIPOS>ATOM
1 N 51.359001159668 28.05299949646 39.4850006103516 N 0.0 **** 0.0
2 CA 52.5480003356934 28.5130004882813 38.7890014648438 C 0.0 **** 0.0
3 C 52.2840003967285 28.798999786377 37.3089981079102 C 0.0 **** 0.0
4 O 52.9109992980957 29.7040004730225 36.742000579834 O 0.0 **** 0.0
5 CB 53.6730003356934 27.4799995422363 38.9249992370605 C 0.0 **** 0.0
@<TRIPOS>BOND
1 1 2 1
2 2 5 1
3 2 3 1
4 3 4 1
@<TRIPOS>MOLECULE
SER432
6 5
SMALL
USER_CHARGES


@<TRIPOS>ATOM
1 N 51.3680000305176 28.0550003051758 36.6699981689453 N 0.0 **** 0.0
2 CA 51.1240005493164 28.2509994506836 35.2360000610352 C 0.0 **** 0.0
3 C 50.5200004577637 29.6159992218018 34.9370002746582 C 0.0 **** 0.0
4 O 50.701000213623 30.1429996490479 33.8269996643066 O 0.0 **** 0.0
5 CB 50.2200012207031 27.1459999084473 34.6759986877441 C 0.0 **** 0.0
6 OG 48.9710006713867 27.1110000610352 35.3359985351563 O 0.0 **** 0.0
@<TRIPOS>BOND
1 1 2 1
2 2 5 1
3 2 3 1
4 3 4 1
5 5 6 1
@<TRIPOS>MOLECULE
VAL433
7 6
SMALL
USER_CHARGES


@<TRIPOS>ATOM
1 N 49.8160018920898 30.2129993438721 35.890998840332 N 0.0 **** 0.0
2 CA 49.2550010681152 31.5419998168945 35.6389999389648 C 0.0 **** 0.0
3 C 50.3950004577637 32.560001373291 35.6839981079102 C 0.0 **** 0.0
4 O 50.9630012512207 32.818000793457 36.7459983825684 O 0.0 **** 0.0
5 CB 48.1459999084473 31.8980007171631 36.632999420166 C 0.0 **** 0.0
6 CG1 47.5660018920898 33.3269996643066 36.3429985046387 C 0.0 **** 0.0
7 CG2 47.0169982910156 30.9150009155273 36.5509986877441 C 0.0 **** 0.0
@<TRIPOS>BOND
1 1 2 1
2 2 3 1
3 2 5 1
4 3 4 1
5 5 6 1
6 5 7 1
@<TRIPOS>MOLECULE
VAL434
7 6
SMALL
USER_CHARGES


@<TRIPOS>ATOM
1 N 50.7179985046387 33.1619987487793 34.5429992675781 N 0.0 **** 0.0
2 CA 51.7879981994629 34.1570014953613 34.4700012207031 C 0.0 **** 0.0
3 C 51.2789993286133 35.5589981079102 34.1730003356934 C 0.0 **** 0.0
4 O 52.056999206543 36.5270004272461 34.298999786377 O 0.0 **** 0.0
5 CB 52.8730010986328 33.7599983215332 33.4360008239746 C 0.0 **** 0.0
6 CG1 53.5060005187988 32.4029998779297 33.7869987487793 C 0.0 **** 0.0
7 CG2 52.3419990539551 33.6920013427734 32.0229988098145 C 0.0 **** 0.0
@<TRIPOS>BOND
1 1 2 1
2 2 3 1
3 2 5 1
4 3 4 1
5 5 7 1
6 5 6 1
@<TRIPOS>MOLECULE
MET435
8 7
SMALL
USER_CHARGES


@<TRIPOS>ATOM
1 N 50.007999420166 35.7169990539551 33.8380012512207 N 0.0 **** 0.0
2 CA 49.3969993591309 37.0390014648438 33.7130012512207 C 0.0 **** 0.0
3 C 47.9360008239746 36.9570007324219 34.1100006103516 C 0.0 **** 0.0
4 O 47.2709999084473 35.9659996032715 33.814998626709 O 0.0 **** 0.0
5 CB 49.4550018310547 37.5979995727539 32.2649993896484 C 0.0 **** 0.0
6 CG 50.7620010375977 38.2210006713867 31.8570003509521 C 0.0 **** 0.0
7 SD 50.7190017700195 38.7830009460449 30.1030006408691 S 0.0 **** 0.0
8 CE 51.3409996032715 37.3170013427734 29.326000213623 C 0.0 **** 0.0
@<TRIPOS>BOND
1 1 2 1
2 2 3 1
3 2 5 1
4 3 4 1
5 5 6 1
6 6 7 1
7 7 8 1
@<TRIPOS>MOLECULE
TRP436
14 15
SMALL
USER_CHARGES


@<TRIPOS>ATOM
1 N 47.4449996948242 38.0139999389648 34.7360000610352 N 0.0 **** 0.0
2 CA 46.0219993591309 38.2070007324219 34.9620018005371 C 0.0 **** 0.0
3 C 45.5009994506836 39.1220016479492 33.8660011291504 C 0.0 **** 0.0
4 O 46.0979995727539 40.1609992980957 33.6100006103516 O 0.0 **** 0.0
5 CB 45.7330017089844 38.8680000305176 36.2980003356934 C 0.0 **** 0.0
6 CG 46.0849990844727 38.1069984436035 37.5419998168945 C 0.0 **** 0.0
7 CD1 46.9900016784668 38.4910011291504 38.4939994812012 C 0.0 **** 0.0
8 CD2 45.5610008239746 36.8559989929199 37.9659996032715 C 0.0 **** 0.0
9 NE1 47.0550003051758 37.5499992370605 39.4939994812012 N 0.0 **** 0.0
10 CE2 46.1759986877441 36.5379981994629 39.1949996948242 C 0.0 **** 0.0
11 CE3 44.6290016174316 35.9679985046387 37.4370002746582 C 0.0 **** 0.0
12 CZ2 45.8870010375977 35.3709983825684 39.8930015563965 C 0.0 **** 0.0
13 CZ3 44.3320007324219 34.798999786377 38.1500015258789 C 0.0 **** 0.0
14 CH2 44.9690017700195 34.5169982910156 39.3610000610352 C 0.0 **** 0.0
@<TRIPOS>BOND
1 1 2 1
2 2 3 1
3 2 5 1
4 3 4 1
5 5 6 1
6 6 8 1
7 6 7 1
8 7 9 1
9 8 11 1
10 8 10 1
11 9 10 1
12 10 12 1
13 11 13 1
14 12 14 1
15 13 14 1
@<TRIPOS>MOLECULE
SER437
6 5
SMALL
USER_CHARGES


@<TRIPOS>ATOM
1 N 44.390998840332 38.7550010681152 33.2459983825684 N 0.0 **** 0.0
2 CA 43.7470016479492 39.617000579834 32.2690010070801 C 0.0 **** 0.0
3 C 42.4259986877441 40.1510009765625 32.8139991760254 C 0.0 **** 0.0
4 O 41.632999420166 39.3969993591309 33.3919982910156 O 0.0 **** 0.0
5 CB 43.5499992370605 38.8849983215332 30.951000213623 C 0.0 **** 0.0
6 OG 42.9410018920898 39.7569999694824 29.9869995117188 O 0.0 **** 0.0
@<TRIPOS>BOND
1 1 2 1
2 2 3 1
3 2 5 1
4 3 4 1
5 5 6 1
@<TRIPOS>MOLECULE
LEU438
8 7
SMALL
USER_CHARGES


@<TRIPOS>ATOM
1 N 42.1959991455078 41.4550018310547 32.6129989624023 N 0.0 **** 0.0
2 CA 41.0180015563965 42.1319999694824 33.1689987182617 C 0.0 **** 0.0
3 C 39.7169990539551 41.7430000305176 32.4799995422363 C 0.0 **** 0.0
4 O 38.6389999389648 41.9690017700195 33.0429992675781 O 0.0 **** 0.0
5 CB 41.181999206543 43.6450004577637 33.0620002746582 C 0.0 **** 0.0
6 CG 42.4140014648438 44.3040008544922 33.7050018310547 C 0.0 **** 0.0
7 CD1 42.3530006408691 45.826000213623 33.5069999694824 C 0.0 **** 0.0
8 CD2 42.4819984436035 43.9939994812012 35.1959991455078 C 0.0 **** 0.0
@<TRIPOS>BOND
1 1 2 1
2 2 3 1
3 2 5 1
4 3 4 1
5 5 6 1
6 6 8 1
7 6 7 1
@<TRIPOS>MOLECULE
GLY439
4 3
SMALL
USER_CHARGES


@<TRIPOS>ATOM
1 N 39.7910003662109 41.2150001525879 31.2569999694824 N 0.0 **** 0.0
2 CA 38.6269989013672 40.9230003356934 30.4599990844727 C 0.0 **** 0.0
3 C 38.9879989624023 41.0699996948242 28.9869995117188 C 0.0 **** 0.0
4 O 40.1539993286133 40.9869995117188 28.6140003204346 O 0.0 **** 0.0
@<TRIPOS>BOND
1 1 2 1
2 2 3 1
3 3 4 1
@<TRIPOS>MOLECULE
ASN440
8 7
SMALL
USER_CHARGES


@<TRIPOS>ATOM
1 N 37.9770011901855 41.3120002746582 28.1580009460449 N 0.0 **** 0.0
2 CA 38.1689987182617 41.3310012817383 26.7180004119873 C 0.0 **** 0.0
3 C 37.1689987182617 42.273998260498 26.0510005950928 C 0.0 **** 0.0
4 O 35.9790000915527 42.2190017700195 26.3680000305176 O 0.0 **** 0.0
5 CB 38.0309982299805 39.9029998779297 26.1420001983643 C 0.0 **** 0.0
6 CG 38.326000213623 39.867000579834 24.6359996795654 C 0.0 **** 0.0
7 OD1 39.4500007629395 40.1609992980957 24.2129993438721 O 0.0 **** 0.0
8 ND2 37.3240013122559 39.5 23.8330001831055 N 0.0 **** 0.0
@<TRIPOS>BOND
1 1 2 1
2 2 3 1
3 2 5 1
4 3 4 1
5 5 6 1
6 6 7 1
7 6 8 1
@<TRIPOS>MOLECULE
GLN441
9 8
SMALL
USER_CHARGES


@<TRIPOS>ATOM
1 N 37.6479988098145 43.1240005493164 25.1380004882813 N 0.0 **** 0.0
2 CA 36.8079986572266 44.0019989013672 24.3269996643066 C 0.0 **** 0.0
3 C 35.7070007324219 44.6529998779297 25.1560001373291 C 0.0 **** 0.0
4 O 34.515998840332 44.5460014343262 24.882999420166 O 0.0 **** 0.0
5 CB 36.2519989013672 43.2319984436035 23.1280002593994 C 0.0 **** 0.0
6 CG 37.3800010681152 42.5880012512207 22.2870006561279 C 0.0 **** 0.0
7 CD 36.8979988098145 41.8709983825684 21.0060005187988 C 0.0 **** 0.0
8 OE1 37.1790008544922 42.326000213623 19.9249992370605 O 0.0 **** 0.0
9 NE2 36.1940002441406 40.7150001525879 21.1520004272461 N 0.0 **** 0.0
@<TRIPOS>BOND
1 1 2 1
2 2 3 1
3 2 5 1
4 3 4 1
5 5 6 1
6 6 7 1
7 7 8 1
8 7 9 1
@<TRIPOS>MOLECULE
ALA442
5 4
SMALL
USER_CHARGES


@<TRIPOS>ATOM
1 N 36.148998260498 45.3419990539551 26.2159996032715 N 0.0 **** 0.0
2 CA 35.2379989624023 45.9949989318848 27.1480007171631 C 0.0 **** 0.0
3 C 35.4720001220703 47.4980010986328 27.1580009460449 C 0.0 **** 0.0
4 O 35.0120010375977 48.201000213623 28.0639991760254 O 0.0 **** 0.0
5 CB 35.3959999084473 45.382999420166 28.5429992675781 C 0.0 **** 0.0
@<TRIPOS>BOND
1 1 2 1
2 2 3 1
3 2 5 1
4 3 4 1
@<TRIPOS>MOLECULE
GLY443
4 3
SMALL
USER_CHARGES


@<TRIPOS>ATOM
1 N 36.1800003051758 48.0110015869141 26.1529998779297 N 0.0 **** 0.0
2 CA 36.4000015258789 49.4519996643066 26.0820007324219 C 0.0 **** 0.0
3 C 37.3839988708496 49.9370002746582 27.128999710083 C 0.0 **** 0.0
4 O 38.1969985961914 49.1870002746582 27.6580009460449 O 0.0 **** 0.0
@<TRIPOS>BOND
1 1 2 1
2 2 3 1
3 3 4 1
@<TRIPOS>MOLECULE
THR444
7 6
SMALL
USER_CHARGES


@<TRIPOS>ATOM
1 N 37.3139991760254 51.2319984436035 27.4090003967285 N 0.0 **** 0.0
2 CA 38.0940017700195 51.8380012512207 28.4769992828369 C 0.0 **** 0.0
3 C 37.1640014648438 52.3580017089844 29.5639991760254 C 0.0 **** 0.0
4 O 36.0270004272461 52.7439994812012 29.2980003356934 O 0.0 **** 0.0
5 CB 38.9129981994629 53.0050010681152 27.9869995117188 C 0.0 **** 0.0
6 OG1 38.0060005187988 54.0449981689453 27.6439990997314 O 0.0 **** 0.0
7 CG2 39.6759986877441 52.648998260498 26.7749996185303 C 0.0 **** 0.0
@<TRIPOS>BOND
1 1 2 1
2 2 5 1
3 2 3 1
4 3 4 1
5 5 7 1
6 5 6 1
@<TRIPOS>MOLECULE
GLY445
4 3
SMALL
USER_CHARGES


@<TRIPOS>ATOM
1 N 37.6319999694824 52.3899993896484 30.7910003662109 N 0.0 **** 0.0
2 CA 36.7620010375977 52.9860000610352 31.7759990692139 C 0.0 **** 0.0
3 C 37.273998260498 52.8269996643066 33.1920013427734 C 0.0 **** 0.0
4 O 38.1790008544922 52.0519981384277 33.4819984436035 O 0.0 **** 0.0
@<TRIPOS>BOND
1 1 2 1
2 2 3 1
3 3 4 1
@<TRIPOS>MOLECULE
ARG446
11 10
SMALL
USER_CHARGES


@<TRIPOS>ATOM
1 N 36.6370010375977 53.5900001525879 34.0789985656738 N 0.0 **** 0.0
2 CA 37.1380004882813 53.7070007324219 35.451000213623 C 0.0 **** 0.0
3 C 37.0470008850098 52.3950004577637 36.2109985351563 C 0.0 **** 0.0
4 O 37.8349990844727 52.1609992980957 37.1370010375977 O 0.0 **** 0.0
5 CB 36.3530006408691 54.7970008850098 36.1800003051758 C 0.0 **** 0.0
6 CG 34.8600006103516 54.4959983825684 36.3199996948242 C 0.0 **** 0.0
7 CD 34.0620002746582 55.7919998168945 36.632999420166 C 0.0 **** 0.0
8 NE 33.8450012207031 56.5740013122559 35.4049987792969 N 0.0 **** 0.0
9 CZ 33.1839981079102 57.726001739502 35.3320007324219 C 0.0 **** 0.0
10 NH1 32.6669998168945 58.2879981994629 36.4259986877441 N 0.0 **** 0.0
11 NH2 33.0449981689453 58.318000793457 34.1580009460449 N 0.0 **** 0.0
@<TRIPOS>BOND
1 1 2 1
2 2 5 1
3 2 3 1
4 3 4 1
5 5 6 1
6 6 7 1
7 7 8 1
8 8 9 1
9 9 11 1
10 9 10 1
@<TRIPOS>MOLECULE
ASN447
8 7
SMALL
USER_CHARGES


@<TRIPOS>ATOM
1 N 36.0859985351563 51.5320014953613 35.8549995422363 N 0.0 **** 0.0
2 CA 35.9459991455078 50.2599983215332 36.5470008850098 C 0.0 **** 0.0
3 C 37.0610008239746 49.2929992675781 36.1809997558594 C 0.0 **** 0.0
4 O 37.4630012512207 48.484001159668 37.0279998779297 O 0.0 **** 0.0
5 CB 34.5779991149902 49.6510009765625 36.2589988708496 C 0.0 **** 0.0
6 CG 33.4570007324219 50.507999420166 36.7900009155273 C 0.0 **** 0.0
7 OD1 33.632999420166 51.242000579834 37.7700004577637 O 0.0 **** 0.0
8 ND2 32.2849998474121 50.4179992675781 36.1609992980957 N 0.0 **** 0.0
@<TRIPOS>BOND
1 1 2 1
2 2 3 1
3 2 5 1
4 3 4 1
5 5 6 1
6 6 8 1
7 6 7 1
@<TRIPOS>MOLECULE
LEU448
8 7
SMALL
USER_CHARGES


@<TRIPOS>ATOM
1 N 37.5589981079102 49.3470001220703 34.9329986572266 N 0.0 **** 0.0
2 CA 38.734001159668 48.5639991760254 34.5789985656738 C 0.0 **** 0.0
3 C 39.9570007324219 49.0429992675781 35.359001159668 C 0.0 **** 0.0
4 O 40.7809982299805 48.234001159668 35.8019981384277 O 0.0 **** 0.0
5 CB 39.0050010681152 48.6459999084473 33.056999206543 C 0.0 **** 0.0
6 CG 37.9599990844727 47.9109992980957 32.2319984436035 C 0.0 **** 0.0
7 CD1 37.8769989013672 48.4770011901855 30.8199996948242 C 0.0 **** 0.0
8 CD2 38.2840003967285 46.4160003662109 32.193000793457 C 0.0 **** 0.0
@<TRIPOS>BOND
1 1 2 1
2 2 3 1
3 2 5 1
4 3 4 1
5 5 6 1
6 6 8 1
7 6 7 1
@<TRIPOS>MOLECULE
ALA449
5 4
SMALL
USER_CHARGES


@<TRIPOS>ATOM
1 N 40.1069984436035 50.3520011901855 35.5089988708496 N 0.0 **** 0.0
2 CA 41.1749992370605 50.8800010681152 36.3540000915527 C 0.0 **** 0.0
3 C 41.0449981689453 50.3689994812012 37.7809982299805 C 0.0 **** 0.0
4 O 42.0429992675781 49.9959983825684 38.4000015258789 O 0.0 **** 0.0
5 CB 41.1580009460449 52.4160003662109 36.3310012817383 C 0.0 **** 0.0
@<TRIPOS>BOND
1 1 2 1
2 2 3 1
3 2 5 1
4 3 4 1
@<TRIPOS>MOLECULE
ALA450
5 4
SMALL
USER_CHARGES


@<TRIPOS>ATOM
1 N 39.8139991760254 50.3230018615723 38.3079986572266 N 0.0 **** 0.0
2 CA 39.5870018005371 49.8059997558594 39.6549987792969 C 0.0 **** 0.0
3 C 39.9739990234375 48.3310012817383 39.7550010681152 C 0.0 **** 0.0
4 O 40.601001739502 47.9099998474121 40.7439994812012 O 0.0 **** 0.0
5 CB 38.1209983825684 50.015998840332 40.0610008239746 C 0.0 **** 0.0
@<TRIPOS>BOND
1 1 2 1
2 2 3 1
3 2 5 1
4 3 4 1
@<TRIPOS>MOLECULE
MET451
8 7
SMALL
USER_CHARGES


@<TRIPOS>ATOM
1 N 39.632999420166 47.5449981689453 38.7299995422363 N 0.0 **** 0.0
2 CA 39.9809989929199 46.1269989013672 38.7210006713867 C 0.0 **** 0.0
3 C 41.4910011291504 45.9370002746582 38.6910018920898 C 0.0 **** 0.0
4 O 42.0299987792969 45.0449981689453 39.3650016784668 O 0.0 **** 0.0
5 CB 39.3580017089844 45.4189987182617 37.5120010375977 C 0.0 **** 0.0
6 CG 37.8330001831055 45.3839988708496 37.4770011901855 C 0.0 **** 0.0
7 SD 37.1599998474121 45.0120010375977 35.8520011901855 S 0.0 **** 0.0
8 CE 37.431999206543 43.2509994506836 35.7569999694824 C 0.0 **** 0.0
@<TRIPOS>BOND
1 1 2 1
2 2 3 1
3 2 5 1
4 3 4 1
5 5 6 1
6 6 7 1
7 7 8 1
@<TRIPOS>MOLECULE
SER452
6 5
SMALL
USER_CHARGES


@<TRIPOS>ATOM
1 N 42.1780014038086 46.7480010986328 37.8790016174316 N 0.0 **** 0.0
2 CA 43.6339988708496 46.6940002441406 37.818000793457 C 0.0 **** 0.0
3 C 44.2439994812012 47.0429992675781 39.1780014038086 C 0.0 **** 0.0
4 O 45.1349983215332 46.3419990539551 39.6699981689453 O 0.0 **** 0.0
5 CB 44.1360015869141 47.6469993591309 36.7490005493164 C 0.0 **** 0.0
6 OG 45.5429992675781 47.6479988098145 36.7350006103516 O 0.0 **** 0.0
@<TRIPOS>BOND
1 1 2 1
2 2 5 1
3 2 3 1
4 3 4 1
5 5 6 1
@<TRIPOS>MOLECULE
ARG453
11 10
SMALL
USER_CHARGES


@<TRIPOS>ATOM
1 N 43.7890014648438 48.1310005187988 39.7809982299805 N 0.0 **** 0.0
2 CA 44.3530006408691 48.5400009155273 41.0740013122559 C 0.0 **** 0.0
3 C 44.1629981994629 47.4690017700195 42.1339988708496 C 0.0 **** 0.0
4 O 45.0660018920898 47.2309989929199 42.9539985656738 O 0.0 **** 0.0
5 CB 43.7270011901855 49.8489990234375 41.5419998168945 C 0.0 **** 0.0
6 CG 44.1710014343262 51.0620002746582 40.7630004882813 C 0.0 **** 0.0
7 CD 43.7900009155273 52.3689994812012 41.4850006103516 C 0.0 **** 0.0
8 NE 42.3419990539551 52.4830017089844 41.7140007019043 N 0.0 **** 0.0
9 CZ 41.4700012207031 53.0229988098145 40.8520011901855 C 0.0 **** 0.0
10 NH1 41.8759994506836 53.5330009460449 39.7000007629395 N 0.0 **** 0.0
11 NH2 40.1790008544922 53.068000793457 41.1650009155273 N 0.0 **** 0.0
@<TRIPOS>BOND
1 1 2 1
2 2 5 1
3 2 3 1
4 3 4 1
5 5 6 1
6 6 7 1
7 7 8 1
8 8 9 1
9 9 11 1
10 9 10 1
@<TRIPOS>MOLECULE
TRP454
14 15
SMALL
USER_CHARGES


@<TRIPOS>ATOM
1 N 42.9790000915527 46.8460006713867 42.1619987487793 N 0.0 **** 0.0
2 CA 42.7080001831055 45.806999206543 43.1450004577637 C 0.0 **** 0.0
3 C 43.6809997558594 44.6479988098145 42.9620018005371 C 0.0 **** 0.0
4 O 44.2360000610352 44.0999984741211 43.9300003051758 O 0.0 **** 0.0
5 CB 41.2459983825684 45.3310012817383 42.9959983825684 C 0.0 **** 0.0
6 CG 40.8849983215332 44.3569984436035 44.0320014953613 C 0.0 **** 0.0
7 CD1 40.2919998168945 44.625 45.2369995117188 C 0.0 **** 0.0
8 CD2 41.1640014648438 42.9519996643066 44.0260009765625 C 0.0 **** 0.0
9 NE1 40.1749992370605 43.4669990539551 45.9739990234375 N 0.0 **** 0.0
10 CE2 40.7029991149902 42.4290008544922 45.2550010681152 C 0.0 **** 0.0
11 CE3 41.7439994812012 42.0830001831055 43.1020011901855 C 0.0 **** 0.0
12 CZ2 40.8219985961914 41.0670013427734 45.5940017700195 C 0.0 **** 0.0
13 CZ3 41.8549995422363 40.7270011901855 43.4329986572266 C 0.0 **** 0.0
14 CH2 41.3930015563965 40.2389984130859 44.6749992370605 C 0.0 **** 0.0
@<TRIPOS>BOND
1 1 2 1
2 2 5 1
3 2 3 1
4 3 4 1
5 5 6 1
6 6 7 1
7 6 8 1
8 7 9 1
9 8 10 1
10 8 11 1
11 9 10 1
12 10 12 1
13 11 13 1
14 12 14 1
15 13 14 1
@<TRIPOS>MOLECULE
THR455
7 6
SMALL
USER_CHARGES


@<TRIPOS>ATOM
1 N 43.9049987792969 44.2760009765625 41.7029991149902 N 0.0 **** 0.0
2 CA 44.734001159668 43.1300010681152 41.3680000305176 C 0.0 **** 0.0
3 C 46.1980018615723 43.4020004272461 41.6790008544922 C 0.0 **** 0.0
4 O 46.8689994812012 42.5410003662109 42.2550010681152 O 0.0 **** 0.0
5 CB 44.5639991760254 42.7589988708496 39.882999420166 C 0.0 **** 0.0
6 OG1 43.1860008239746 42.4710006713867 39.5900001525879 O 0.0 **** 0.0
7 CG2 45.4210014343262 41.5320014953613 39.5390014648438 C 0.0 **** 0.0
@<TRIPOS>BOND
1 1 2 1
2 2 3 1
3 2 5 1
4 3 4 1
5 5 6 1
6 5 7 1
@<TRIPOS>MOLECULE
LYS456
15 24
SMALL
USER_CHARGES


@<TRIPOS>ATOM
1 N 46.7159996032715 44.5929985046387 41.3190002441406 N 0.0 **** 0.0
2 CA 48.117000579834 44.9059982299805 41.6119995117188 C 0.0 **** 0.0
3 CA 48.1150016784668 44.9090003967285 41.6119995117188 C 0.0 **** 0.0
4 C 48.375 44.9210014343262 43.1139984130859 C 0.0 **** 0.0
5 O 49.4630012512207 44.5400009155273 43.5620002746582 O 0.0 **** 0.0
6 CB 48.5200004577637 46.257999420166 41.0209999084473 C 0.0 **** 0.0
7 CB 48.5019989013672 46.2610015869141 41.0120010375977 C 0.0 **** 0.0
8 CG 48.4790000915527 46.3390007019043 39.4980010986328 C 0.0 **** 0.0
9 CG 48.4410018920898 46.2949981689453 39.4910011291504 C 0.0 **** 0.0
10 CD 49.4410018920898 45.3790016174316 38.7879981994629 C 0.0 **** 0.0
11 CD 49.2330017089844 47.4710006713867 38.8919982910156 C 0.0 **** 0.0
12 CE 50.8930015563965 45.6839981079102 39.0229988098145 C 0.0 **** 0.0
13 CE 49.048999786377 47.5750007629395 37.4029998779297 C 0.0 **** 0.0
14 NZ 51.6959991455078 44.7620010375977 38.2070007324219 N 0.0 **** 0.0
15 NZ 50.1699981689453 48.3330001831055 36.7729988098145 N 0.0 **** 0.0
@<TRIPOS>BOND
1 1 2 1
2 1 3 1
3 2 3 1
4 2 6 1
5 2 7 1
6 2 4 1
7 3 6 1
8 3 7 1
9 3 4 1
10 4 5 1
11 6 7 1
12 6 8 1
13 6 9 1
14 7 8 1
15 7 9 1
16 8 9 1
17 8 11 1
18 8 10 1
19 9 11 1
20 9 10 1
21 10 12 1
22 11 13 1
23 12 14 1
24 13 15 1
@<TRIPOS>MOLECULE
ASP457
8 7
SMALL
USER_CHARGES


@<TRIPOS>ATOM
1 N 47.3979988098145 45.4029998779297 43.9000015258789 N 0.0 **** 0.0
2 CA 47.5330009460449 45.4109992980957 45.3540000915527 C 0.0 **** 0.0
3 C 47.5040016174316 43.9949989318848 45.9109992980957 C 0.0 **** 0.0
4 O 48.3059997558594 43.640998840332 46.7690010070801 O 0.0 **** 0.0
5 CB 46.4140014648438 46.2379989624023 45.9669990539551 C 0.0 **** 0.0
6 CG 46.3629989624023 46.1119995117188 47.4690017700195 C 0.0 **** 0.0
7 OD1 47.1959991455078 46.7750015258789 48.1180000305176 O 0.0 **** 0.0
8 OD2 45.5190010070801 45.3240013122559 47.9720001220703 O 0.0 **** 0.0
@<TRIPOS>BOND
1 1 2 1
2 2 5 1
3 2 3 1
4 3 4 1
5 5 6 1
6 6 7 1
7 6 8 1
@<TRIPOS>MOLECULE
ARG458
11 10
SMALL
USER_CHARGES


@<TRIPOS>ATOM
1 N 46.6119995117188 43.1619987487793 45.4039993286133 N 0.0 **** 0.0
2 CA 46.4179992675781 41.8470001220703 45.9809989929199 C 0.0 **** 0.0
3 C 47.5369987487793 40.8919982910156 45.5979995727539 C 0.0 **** 0.0
4 O 47.9609985351563 40.0709991455078 46.4220008850098 O 0.0 **** 0.0
5 CB 45.0810012817383 41.2719993591309 45.515998840332 C 0.0 **** 0.0
6 CG 44.8129997253418 39.8489990234375 46.015998840332 C 0.0 **** 0.0
7 CD 44.6860008239746 39.8040008544922 47.5149993896484 C 0.0 **** 0.0
8 NE 44.226001739502 38.4910011291504 47.9889984130859 N 0.0 **** 0.0
9 CZ 44.7680015563965 37.7939987182617 48.9799995422363 C 0.0 **** 0.0
10 NH1 45.8139991760254 38.2649993896484 49.6640014648438 N 0.0 **** 0.0
11 NH2 44.2430000305176 36.6020011901855 49.2960014343262 N 0.0 **** 0.0
@<TRIPOS>BOND
1 1 2 1
2 2 3 1
3 2 5 1
4 3 4 1
5 5 6 1
6 6 7 1
7 7 8 1
8 8 9 1
9 9 11 1
10 9 10 1
@<TRIPOS>MOLECULE
ASP459
8 7
SMALL
USER_CHARGES


@<TRIPOS>ATOM
1 N 47.9620018005371 40.923999786377 44.3320007324219 N 0.0 **** 0.0
2 CA 48.9290008544922 39.9640007019043 43.7890014648438 C 0.0 **** 0.0
3 C 49.8919982910156 40.6800003051758 42.8569984436035 C 0.0 **** 0.0
4 O 49.7709999084473 40.609001159668 41.625 O 0.0 **** 0.0
5 CB 48.2430000305176 38.8530006408691 43.0110015869141 C 0.0 **** 0.0
6 CG 49.2369995117188 37.818000793457 42.5069999694824 C 0.0 **** 0.0
7 OD1 50.3740005493164 37.7859992980957 43.0470008850098 O 0.0 **** 0.0
8 OD2 48.890998840332 37.0499992370605 41.5950012207031 O 0.0 **** 0.0
@<TRIPOS>BOND
1 1 2 1
2 2 3 1
3 2 5 1
4 3 4 1
5 5 6 1
6 6 8 1
7 6 7 1
@<TRIPOS>MOLECULE
PRO460
7 7
SMALL
USER_CHARGES


@<TRIPOS>ATOM
1 N 50.898998260498 41.351001739502 43.4119987487793 N 0.0 **** 0.0
2 CA 51.9129981994629 41.9900016784668 42.5639991760254 C 0.0 **** 0.0
3 C 52.8079986572266 41.0120010375977 41.8230018615723 C 0.0 **** 0.0
4 O 53.6310005187988 41.4609985351563 41.0219993591309 O 0.0 **** 0.0
5 CB 52.7290000915527 42.8310012817383 43.5709991455078 C 0.0 **** 0.0
6 CG 52.4560012817383 42.2820014953613 44.8969993591309 C 0.0 **** 0.0
7 CD 51.1100006103516 41.6160011291504 44.8540000915527 C 0.0 **** 0.0
@<TRIPOS>BOND
1 1 7 1
2 1 2 1
3 2 3 1
4 2 5 1
5 3 4 1
6 5 6 1
7 6 7 1
@<TRIPOS>MOLECULE
SER461
6 5
SMALL
USER_CHARGES


@<TRIPOS>ATOM
1 N 52.6689987182617 39.6969985961914 42.023998260498 N 0.0 **** 0.0
2 CA 53.5999984741211 38.757999420166 41.4099998474121 C 0.0 **** 0.0
3 C 53.3279991149902 38.4889984130859 39.9339981079102 C 0.0 **** 0.0
4 O 54.1710014343262 37.8540000915527 39.2779998779297 O 0.0 **** 0.0
5 CB 53.5999984741211 37.4220008850098 42.1559982299805 C 0.0 **** 0.0
6 OG 52.4410018920898 36.6259994506836 41.9059982299805 O 0.0 **** 0.0
@<TRIPOS>BOND
1 1 2 1
2 2 5 1
3 2 3 1
4 3 4 1
5 5 6 1
@<TRIPOS>MOLECULE
ARG462
11 10
SMALL
USER_CHARGES


@<TRIPOS>ATOM
1 N 52.1790008544922 38.9160003662109 39.4059982299805 N 0.0 **** 0.0
2 CA 51.8250007629395 38.609001159668 38.0180015563965 C 0.0 **** 0.0
3 C 51.4599990844727 39.8860015869141 37.273998260498 C 0.0 **** 0.0
4 O 50.6080017089844 40.648998260498 37.7459983825684 O 0.0 **** 0.0
5 CB 50.6570014953613 37.6269989013672 37.9490013122559 C 0.0 **** 0.0
6 CG 50.9729995727539 36.2299995422363 38.4860000610352 C 0.0 **** 0.0
7 CD 49.6879997253418 35.4980010986328 38.7509994506836 C 0.0 **** 0.0
8 NE 49.8740005493164 34.0950012207031 39.0870018005371 N 0.0 **** 0.0
9 CZ 49.6870002746582 33.5999984741211 40.2900009155273 C 0.0 **** 0.0
10 NH1 49.3269996643066 34.4020004272461 41.3030014038086 N 0.0 **** 0.0
11 NH2 49.8650016784668 32.2970008850098 40.4710006713867 N 0.0 **** 0.0
@<TRIPOS>BOND
1 1 2 1
2 2 3 1
3 2 5 1
4 3 4 1
5 5 6 1
6 6 7 1
7 7 8 1
8 8 9 1
9 9 11 1
10 9 10 1
@<TRIPOS>MOLECULE
PRO463
7 7
SMALL
USER_CHARGES


@<TRIPOS>ATOM
1 N 52.0410003662109 40.1269989013672 36.0880012512207 N 0.0 **** 0.0
2 CA 51.6790008544922 41.310001373291 35.3030014038086 C 0.0 **** 0.0
3 C 50.2150001525879 41.3079986572266 34.8559989929199 C 0.0 **** 0.0
4 O 49.5890007019043 40.2599983215332 34.7039985656738 O 0.0 **** 0.0
5 CB 52.6119995117188 41.2229995727539 34.0929985046387 C 0.0 **** 0.0
6 CG 53.7890014648438 40.4620018005371 34.5839996337891 C 0.0 **** 0.0
7 CD 53.2430000305176 39.4550018310547 35.5690002441406 C 0.0 **** 0.0
@<TRIPOS>BOND
1 1 2 1
2 1 7 1
3 2 5 1
4 2 3 1
5 3 4 1
6 5 6 1
7 6 7 1
@<TRIPOS>MOLECULE
ILE464
8 7
SMALL
USER_CHARGES


@<TRIPOS>ATOM
1 N 49.6910018920898 42.5009994506836 34.617000579834 N 0.0 **** 0.0
2 CA 48.2960014343262 42.6920013427734 34.2519989013672 C 0.0 **** 0.0
3 C 48.2120018005371 42.8779983520508 32.734001159668 C 0.0 **** 0.0
4 O 48.9939994812012 43.6349983215332 32.1450004577637 O 0.0 **** 0.0
5 CB 47.6809997558594 43.9059982299805 34.9739990234375 C 0.0 **** 0.0
6 CG1 47.7949981689453 43.7589988708496 36.5130004882813 C 0.0 **** 0.0
7 CG2 46.2280006408691 44.1419982910156 34.5060005187988 C 0.0 **** 0.0
8 CD1 47.1980018615723 42.5379981994629 37.0369987487793 C 0.0 **** 0.0
@<TRIPOS>BOND
1 1 2 1
2 2 5 1
3 2 3 1
4 3 4 1
5 5 7 1
6 5 6 1
7 6 8 1
@<TRIPOS>MOLECULE
HIS465
10 10
SMALL
USER_CHARGES


@<TRIPOS>ATOM
1 N 47.2700004577637 42.181999206543 32.1220016479492 N 0.0 **** 0.0
2 CA 46.9970016479492 42.226001739502 30.6849994659424 C 0.0 **** 0.0
3 C 45.5849990844727 42.7669982910156 30.4589996337891 C 0.0 **** 0.0
4 O 44.6539993286133 42.3479995727539 31.1499996185303 O 0.0 **** 0.0
5 CB 47.1069984436035 40.8059997558594 30.1189994812012 C 0.0 **** 0.0
6 CG 46.5950012207031 40.6609992980957 28.7169990539551 C 0.0 **** 0.0
7 ND1 45.257999420166 40.4949989318848 28.4080009460449 N 0.0 **** 0.0
8 CD2 47.2569999694824 40.6629981994629 27.5359992980957 C 0.0 **** 0.0
9 CE1 45.1240005493164 40.4269981384277 27.0890007019043 C 0.0 **** 0.0
10 NE2 46.3170013427734 40.5229988098145 26.5410003662109 N 0.0 **** 0.0
@<TRIPOS>BOND
1 1 2 1
2 2 3 1
3 2 5 1
4 3 4 1
5 5 6 1
6 6 8 1
7 6 7 1
8 7 9 1
9 8 10 1
10 9 10 1
@<TRIPOS>MOLECULE
TYR466
12 12
SMALL
USER_CHARGES


@<TRIPOS>ATOM
1 N 45.4169998168945 43.6559982299805 29.4740009307861 N 0.0 **** 0.0
2 CA 44.0900001525879 44.0400009155273 28.9839992523193 C 0.0 **** 0.0
3 C 44.2620010375977 44.7589988708496 27.6490001678467 C 0.0 **** 0.0
4 O 44.773998260498 45.8819999694824 27.6100006103516 O 0.0 **** 0.0
5 CB 43.351001739502 44.9210014343262 29.9699993133545 C 0.0 **** 0.0
6 CG 42.0279998779297 45.3530006408691 29.431999206543 C 0.0 **** 0.0
7 CD1 41.0660018920898 44.4280014038086 29.0729999542236 C 0.0 **** 0.0
8 CD2 41.7369995117188 46.693000793457 29.2679996490479 C 0.0 **** 0.0
9 CE1 39.8520011901855 44.8209991455078 28.5300006866455 C 0.0 **** 0.0
10 CE2 40.5009994506836 47.1020011901855 28.7430000305176 C 0.0 **** 0.0
11 CZ 39.5849990844727 46.140998840332 28.3519992828369 C 0.0 **** 0.0
12 OH 38.3680000305176 46.5480003356934 27.8390007019043 O 0.0 **** 0.0
@<TRIPOS>BOND
1 1 2 1
2 2 5 1
3 2 3 1
4 3 4 1
5 5 6 1
6 6 7 1
7 6 8 1
8 7 9 1
9 8 10 1
10 9 11 1
11 10 11 1
12 11 12 1
@<TRIPOS>MOLECULE
GLU467
9 8
SMALL
USER_CHARGES


@<TRIPOS>ATOM
1 N 43.8409996032715 44.1150016784668 26.5520000457764 N 0.0 **** 0.0
2 CA 43.9679985046387 44.7070007324219 25.2310009002686 C 0.0 **** 0.0
3 C 43.0099983215332 45.8730010986328 25.0020008087158 C 0.0 **** 0.0
4 O 43.2960014343262 46.7330017089844 24.1520004272461 O 0.0 **** 0.0
5 CB 43.7369995117188 43.6209983825684 24.1790008544922 C 0.0 **** 0.0
6 CG 43.7270011901855 44.1279983520508 22.6949996948242 C 0.0 **** 0.0
7 CD 42.3870010375977 44.7070007324219 22.2369995117188 C 0.0 **** 0.0
8 OE1 41.367000579834 44.5069999694824 22.9300003051758 O 0.0 **** 0.0
9 OE2 42.3800010681152 45.3779983520508 21.1639995574951 O 0.0 **** 0.0
@<TRIPOS>BOND
1 1 2 1
2 2 5 1
3 2 3 1
4 3 4 1
5 5 6 1
6 6 7 1
7 7 8 1
8 7 9 1
@<TRIPOS>MOLECULE
GLY468
4 3
SMALL
USER_CHARGES


@<TRIPOS>ATOM
1 N 41.8959999084473 45.9360008239746 25.742000579834 N 0.0 **** 0.0
2 CA 40.7830009460449 46.7999992370605 25.3540000915527 C 0.0 **** 0.0
3 C 41.0620002746582 48.2840003967285 25.4150009155273 C 0.0 **** 0.0
4 O 40.314998626709 49.0620002746582 24.7849998474121 O 0.0 **** 0.0
@<TRIPOS>BOND
1 1 2 1
2 2 3 1
3 3 4 1
@<TRIPOS>MOLECULE
ASP469
8 7
SMALL
USER_CHARGES


@<TRIPOS>ATOM
1 N 42.1240005493164 48.7080001831055 26.1439990997314 N 0.0 **** 0.0
2 CA 42.5139999389648 50.1279983520508 26.2630004882813 C 0.0 **** 0.0
3 C 43.9140014648438 50.2859992980957 25.6560001373291 C 0.0 **** 0.0
4 O 44.9119987487793 49.9189987182617 26.2800006866455 O 0.0 **** 0.0
5 CB 42.492000579834 50.5519981384277 27.7469997406006 C 0.0 **** 0.0
6 CG 43.132999420166 51.9150009155273 28.0090007781982 C 0.0 **** 0.0
7 OD1 43.3089981079102 52.734001159668 27.0820007324219 O 0.0 **** 0.0
8 OD2 43.4379997253418 52.1829986572266 29.2040004730225 O 0.0 **** 0.0
@<TRIPOS>BOND
1 1 2 1
2 2 3 1
3 2 5 1
4 3 4 1
5 5 6 1
6 6 7 1
7 6 8 1
@<TRIPOS>MOLECULE
TRP470
14 15
SMALL
USER_CHARGES


@<TRIPOS>ATOM
1 N 44.0069999694824 50.7789993286133 24.4209995269775 N 0.0 **** 0.0
2 CA 45.298999786377 50.7540016174316 23.7479991912842 C 0.0 **** 0.0
3 C 46.326000213623 51.6590003967285 24.4130001068115 C 0.0 **** 0.0
4 O 47.5299987792969 51.423999786377 24.2600002288818 O 0.0 **** 0.0
5 CB 45.1199989318848 51.1269989013672 22.2639999389648 C 0.0 **** 0.0
6 CG 44.3499984741211 50.1139984130859 21.5049991607666 C 0.0 **** 0.0
7 CD1 43.7210006713867 49.0009994506836 21.996000289917 C 0.0 **** 0.0
8 CD2 44.1399993896484 50.1069984436035 20.0939998626709 C 0.0 **** 0.0
9 NE1 43.1209983825684 48.3059997558594 20.9650001525879 N 0.0 **** 0.0
10 CE2 43.3699989318848 48.9640007019043 19.7900009155273 C 0.0 **** 0.0
11 CE3 44.5369987487793 50.9560012817383 19.0610008239746 C 0.0 **** 0.0
12 CZ2 42.9770011901855 48.6520004272461 18.492000579834 C 0.0 **** 0.0
13 CZ3 44.1479988098145 50.6459999084473 17.7600002288818 C 0.0 **** 0.0
14 CH2 43.375 49.4910011291504 17.496000289917 C 0.0 **** 0.0
@<TRIPOS>BOND
1 1 2 1
2 2 5 1
3 2 3 1
4 3 4 1
5 5 6 1
6 6 8 1
7 6 7 1
8 7 9 1
9 8 10 1
10 8 11 1
11 9 10 1
12 10 12 1
13 11 13 1
14 12 14 1
15 13 14 1
@<TRIPOS>MOLECULE
SER471
6 5
SMALL
USER_CHARGES


@<TRIPOS>ATOM
1 N 45.8860015869141 52.6790008544922 25.1620006561279 N 0.0 **** 0.0
2 CA 46.8199996948242 53.5320014953613 25.882999420166 C 0.0 **** 0.0
3 C 47.6240005493164 52.7459983825684 26.9190006256104 C 0.0 **** 0.0
4 O 48.6879997253418 53.2130012512207 27.3460006713867 O 0.0 **** 0.0
5 CB 46.0519981384277 54.6839981079102 26.5650005340576 C 0.0 **** 0.0
6 OG 45.4990005493164 54.2669982910156 27.7940006256104 O 0.0 **** 0.0
@<TRIPOS>BOND
1 1 2 1
2 2 3 1
3 2 5 1
4 3 4 1
5 5 6 1
@<TRIPOS>MOLECULE
SER472
6 5
SMALL
USER_CHARGES


@<TRIPOS>ATOM
1 N 47.1319999694824 51.5740013122559 27.3339996337891 N 0.0 **** 0.0
2 CA 47.8269996643066 50.6920013427734 28.2730007171631 C 0.0 **** 0.0
3 C 48.0620002746582 51.3549995422363 29.625 C 0.0 **** 0.0
4 O 48.9809989929199 50.9809989929199 30.3649997711182 O 0.0 **** 0.0
5 CB 49.1389999389648 50.1870002746582 27.6609992980957 C 0.0 **** 0.0
6 OG 48.8460006713867 49.5890007019043 26.4020004272461 O 0.0 **** 0.0
@<TRIPOS>BOND
1 1 2 1
2 2 5 1
3 2 3 1
4 3 4 1
5 5 6 1
@<TRIPOS>MOLECULE
GLU473
9 8
SMALL
USER_CHARGES


@<TRIPOS>ATOM
1 N 47.1720008850098 52.2760009765625 29.9969997406006 N 0.0 **** 0.0
2 CA 47.3740005493164 53.056999206543 31.2070007324219 C 0.0 **** 0.0
3 C 47.4039993286133 52.1780014038086 32.4640007019043 C 0.0 **** 0.0
4 O 48.1669998168945 52.4449996948242 33.4000015258789 O 0.0 **** 0.0
5 CB 46.2770004272461 54.1269989013672 31.3309993743896 C 0.0 **** 0.0
6 CG 46.4930000305176 55.0229988098145 32.4990005493164 C 0.0 **** 0.0
7 CD 45.5379981994629 56.1940002441406 32.4799995422363 C 0.0 **** 0.0
8 OE1 44.5979995727539 56.2000007629395 31.6630001068115 O 0.0 **** 0.0
9 OE2 45.7169990539551 57.0859985351563 33.2929992675781 O 0.0 **** 0.0
@<TRIPOS>BOND
1 1 2 1
2 2 5 1
3 2 3 1
4 3 4 1
5 5 6 1
6 6 7 1
7 7 9 1
8 7 8 1
@<TRIPOS>MOLECULE
HIS474
10 10
SMALL
USER_CHARGES


@<TRIPOS>ATOM
1 N 46.6030006408691 51.1209983825684 32.5040016174316 N 0.0 **** 0.0
2 CA 46.4440002441406 50.3339996337891 33.7179985046387 C 0.0 **** 0.0
3 C 46.9640007019043 48.9220008850098 33.5849990844727 C 0.0 **** 0.0
4 O 46.5400009155273 48.0509986877441 34.3530006408691 O 0.0 **** 0.0
5 CB 44.9770011901855 50.3079986572266 34.1150016784668 C 0.0 **** 0.0
6 CG 44.3889999389648 51.6749992370605 34.201000213623 C 0.0 **** 0.0
7 ND1 44.8790016174316 52.6230010986328 35.0629997253418 N 0.0 **** 0.0
8 CD2 43.4160003662109 52.2770004272461 33.4879989624023 C 0.0 **** 0.0
9 CE1 44.2000007629395 53.7470016479492 34.9099998474121 C 0.0 **** 0.0
10 NE2 43.2999992370605 53.560001373291 33.9679985046387 N 0.0 **** 0.0
@<TRIPOS>BOND
1 1 2 1
2 2 5 1
3 2 3 1
4 3 4 1
5 5 6 1
6 6 7 1
7 6 8 1
8 7 9 1
9 8 10 1
10 9 10 1
@<TRIPOS>MOLECULE
VAL475
7 6
SMALL
USER_CHARGES


@<TRIPOS>ATOM
1 N 47.9059982299805 48.6790008544922 32.6599998474121 N 0.0 **** 0.0
2 CA 48.4300003051758 47.3520011901855 32.4230003356934 C 0.0 **** 0.0
3 C 49.9449996948242 47.382999420166 32.4599990844727 C 0.0 **** 0.0
4 O 50.5709991455078 48.431999206543 32.5340003967285 O 0.0 **** 0.0
5 CB 47.9480018615723 46.7610015869141 31.0739994049072 C 0.0 **** 0.0
6 CG1 46.4129981994629 46.5660018920898 31.0960006713867 C 0.0 **** 0.0
7 CG2 48.375 47.6380004882813 29.8999996185303 C 0.0 **** 0.0
@<TRIPOS>BOND
1 1 2 1
2 2 3 1
3 2 5 1
4 3 4 1
5 5 7 1
6 5 6 1
@<TRIPOS>MOLECULE
ASP476
8 7
SMALL
USER_CHARGES


@<TRIPOS>ATOM
1 N 50.5279998779297 46.193000793457 32.3769989013672 N 0.0 **** 0.0
2 CA 51.9720001220703 46.0219993591309 32.4249992370605 C 0.0 **** 0.0
3 C 52.5639991760254 45.5270004272461 31.1110000610352 C 0.0 **** 0.0
4 O 53.7939987182617 45.564998626709 30.9589996337891 O 0.0 **** 0.0
5 CB 52.3440017700195 45.0429992675781 33.5499992370605 C 0.0 **** 0.0
6 CG 51.8400001525879 45.515998840332 34.8979988098145 C 0.0 **** 0.0
7 OD1 52.0340003967285 46.7109985351563 35.2050018310547 O 0.0 **** 0.0
8 OD2 51.1990013122559 44.7039985656738 35.5950012207031 O 0.0 **** 0.0
@<TRIPOS>BOND
1 1 2 1
2 2 3 1
3 2 5 1
4 3 4 1
5 5 6 1
6 6 7 1
7 6 8 1
@<TRIPOS>MOLECULE
VAL477
7 6
SMALL
USER_CHARGES


@<TRIPOS>ATOM
1 N 51.7319984436035 45.0589981079102 30.193000793457 N 0.0 **** 0.0
2 CA 52.1469993591309 44.6290016174316 28.8500003814697 C 0.0 **** 0.0
3 C 51.2550010681152 45.3540000915527 27.867000579834 C 0.0 **** 0.0
4 O 50.1189994812012 45.7200012207031 28.1860008239746 O 0.0 **** 0.0
5 CB 52.0929985046387 43.0940017700195 28.6100006103516 C 0.0 **** 0.0
6 CG1 52.9889984130859 42.3800010681152 29.6119995117188 C 0.0 **** 0.0
7 CG2 50.6370010375977 42.5130004882813 28.6860008239746 C 0.0 **** 0.0
@<TRIPOS>BOND
1 1 2 1
2 2 3 1
3 2 5 1
4 3 4 1
5 5 7 1
6 5 6 1
@<TRIPOS>MOLECULE
TYR478
12 12
SMALL
USER_CHARGES


@<TRIPOS>ATOM
1 N 51.7960014343262 45.6119995117188 26.6609992980957 N 0.0 **** 0.0
2 CA 51.0229988098145 46.1940002441406 25.5709991455078 C 0.0 **** 0.0
3 C 50.4710006713867 45.0270004272461 24.7639999389648 C 0.0 **** 0.0
4 O 51.2369995117188 44.2099990844727 24.2469997406006 O 0.0 **** 0.0
5 CB 51.8959999084473 47.1360015869141 24.738000869751 C 0.0 **** 0.0
6 CG 51.2589988708496 47.7620010375977 23.5049991607666 C 0.0 **** 0.0
7 CD1 49.8839988708496 47.9480018615723 23.4050006866455 C 0.0 **** 0.0
8 CD2 52.0509986877441 48.1990013122559 22.4549999237061 C 0.0 **** 0.0
9 CE1 49.3219985961914 48.5139999389648 22.3050003051758 C 0.0 **** 0.0
10 CE2 51.4869995117188 48.7620010375977 21.3120002746582 C 0.0 **** 0.0
11 CZ 50.125 48.9280014038086 21.2409992218018 C 0.0 **** 0.0
12 OH 49.5050010681152 49.4739990234375 20.1100006103516 O 0.0 **** 0.0
@<TRIPOS>BOND
1 1 2 1
2 2 5 1
3 2 3 1
4 3 4 1
5 5 6 1
6 6 8 1
7 6 7 1
8 7 9 1
9 8 10 1
10 9 11 1
11 10 11 1
12 11 12 1
@<TRIPOS>MOLECULE
SER479
6 5
SMALL
USER_CHARGES


@<TRIPOS>ATOM
1 N 49.1419982910156 44.923999786377 24.7070007324219 N 0.0 **** 0.0
2 CA 48.4580001831055 43.8219985961914 24.0429992675781 C 0.0 **** 0.0
3 C 47.5989990234375 44.3540000915527 22.9050006866455 C 0.0 **** 0.0
4 O 46.8979988098145 45.3650016784668 23.048999786377 O 0.0 **** 0.0
5 CB 47.6020011901855 43.0400009155273 25.0009994506836 C 0.0 **** 0.0
6 OG 47.0110015869141 41.9850006103516 24.3090000152588 O 0.0 **** 0.0
@<TRIPOS>BOND
1 1 2 1
2 2 5 1
3 2 3 1
4 3 4 1
5 5 6 1
@<TRIPOS>MOLECULE
ARG480
11 10
SMALL
USER_CHARGES


@<TRIPOS>ATOM
1 N 47.6949996948242 43.6910018920898 21.7439994812012 N 0.0 **** 0.0
2 CA 46.7929992675781 43.9599990844727 20.6270008087158 C 0.0 **** 0.0
3 C 46.2519989013672 42.6389999389648 20.0699996948242 C 0.0 **** 0.0
4 O 46.8019981384277 41.5509986877441 20.3010005950928 O 0.0 **** 0.0
5 CB 47.4990005493164 44.7690010070801 19.5109996795654 C 0.0 **** 0.0
6 CG 47.9070014953613 46.201000213623 19.9109992980957 C 0.0 **** 0.0
7 CD 46.7550010681152 47.2159996032715 19.8700008392334 C 0.0 **** 0.0
8 NE 46.2589988708496 47.2029991149902 18.5100002288818 N 0.0 **** 0.0
9 CZ 46.8849983215332 47.8009986877441 17.4979991912842 C 0.0 **** 0.0
10 NH1 47.9620018005371 48.5419998168945 17.7360000610352 N 0.0 **** 0.0
11 NH2 46.4469985961914 47.6699981689453 16.238000869751 N 0.0 **** 0.0
@<TRIPOS>BOND
1 1 2 1
2 2 5 1
3 2 3 1
4 3 4 1
5 5 6 1
6 6 7 1
7 7 8 1
8 8 9 1
9 9 10 1
10 9 11 1
@<TRIPOS>MOLECULE
MET481
8 7
SMALL
USER_CHARGES


@<TRIPOS>ATOM
1 N 45.181999206543 42.7459983825684 19.2779998779297 N 0.0 **** 0.0
2 CA 44.625 41.6150016784668 18.548999786377 C 0.0 **** 0.0
3 C 44.5750007629395 41.9459991455078 17.0590000152588 C 0.0 **** 0.0
4 O 44.0800018310547 43.0180015563965 16.6499996185303 O 0.0 **** 0.0
5 CB 43.2270011901855 41.2210006713867 19.0450000762939 C 0.0 **** 0.0
6 CG 42.1990013122559 42.3110008239746 19.0540008544922 C 0.0 **** 0.0
7 SD 40.5779991149902 41.6959991455078 19.6520004272461 S 0.0 **** 0.0
8 CE 40.9500007629395 41.3390007019043 21.3589992523193 C 0.0 **** 0.0
@<TRIPOS>BOND
1 1 2 1
2 2 3 1
3 2 5 1
4 3 4 1
5 5 6 1
6 6 7 1
7 7 8 1
@<TRIPOS>MOLECULE
TYR482
12 12
SMALL
USER_CHARGES


@<TRIPOS>ATOM
1 N 45.1319999694824 41.0419998168945 16.2679996490479 N 0.0 **** 0.0
2 CA 45.0859985351563 41.1100006103516 14.7919998168945 C 0.0 **** 0.0
3 C 45.8230018615723 42.3240013122559 14.2320003509521 C 0.0 **** 0.0
4 O 45.5909996032715 42.7060012817383 13.0860004425049 O 0.0 **** 0.0
5 CB 43.6419982910156 41.0849990844727 14.2720003128052 C 0.0 **** 0.0
6 CG 42.8269996643066 39.9980010986328 14.9549999237061 C 0.0 **** 0.0
7 CD1 43.0859985351563 38.6580009460449 14.6999998092651 C 0.0 **** 0.0
8 CD2 41.851001739502 40.3269996643066 15.8950004577637 C 0.0 **** 0.0
9 CE1 42.3800010681152 37.648998260498 15.3360004425049 C 0.0 **** 0.0
10 CE2 41.1319999694824 39.3499984741211 16.5459995269775 C 0.0 **** 0.0
11 CZ 41.3889999389648 38.0099983215332 16.2569999694824 C 0.0 **** 0.0
12 OH 40.6800003051758 37.0089988708496 16.9039993286133 O 0.0 **** 0.0
@<TRIPOS>BOND
1 1 2 1
2 2 5 1
3 2 3 1
4 3 4 1
5 5 6 1
6 6 8 1
7 6 7 1
8 7 9 1
9 8 10 1
10 9 11 1
11 10 11 1
12 11 12 1
@<TRIPOS>MOLECULE
ALA483
5 4
SMALL
USER_CHARGES


@<TRIPOS>ATOM
1 N 46.7599983215332 42.9000015258789 14.9750003814697 N 0.0 **** 0.0
2 CA 47.6510009765625 43.8779983520508 14.3640003204346 C 0.0 **** 0.0
3 C 48.3759994506836 43.2080001831055 13.2069997787476 C 0.0 **** 0.0
4 O 48.7789993286133 42.0460014343262 13.3070001602173 O 0.0 **** 0.0
5 CB 48.6510009765625 44.4210014343262 15.3730001449585 C 0.0 **** 0.0
@<TRIPOS>BOND
1 1 2 1
2 2 5 1
3 2 3 1
4 3 4 1
@<TRIPOS>MOLECULE
SER484
6 5
SMALL
USER_CHARGES


@<TRIPOS>ATOM
1 N 48.5320014953613 43.9459991455078 12.1110000610352 N 0.0 **** 0.0
2 CA 49.1430015563965 43.3969993591309 10.9130001068115 C 0.0 **** 0.0
3 C 50.5880012512207 43.0110015869141 11.1929998397827 C 0.0 **** 0.0
4 O 51.2089996337891 43.4910011291504 12.125 O 0.0 **** 0.0
5 CB 49.1339988708496 44.4189987182617 9.77200031280518 C 0.0 **** 0.0
6 OG 49.9630012512207 45.5169982910156 10.1510000228882 O 0.0 **** 0.0
@<TRIPOS>BOND
1 1 2 1
2 2 5 1
3 2 3 1
4 3 4 1
5 5 6 1
@<TRIPOS>MOLECULE
GLN485
9 8
SMALL
USER_CHARGES


@<TRIPOS>ATOM
1 N 51.1279983520508 42.1660003662109 10.3149995803833 N 0.0 **** 0.0
2 CA 52.5509986877441 41.859001159668 10.3649997711182 C 0.0 **** 0.0
3 C 53.3930015563965 43.1319999694824 10.3000001907349 C 0.0 **** 0.0
4 O 54.3759994506836 43.2729988098145 11.0299997329712 O 0.0 **** 0.0
5 CB 52.9059982299805 40.898998260498 9.22500038146973 C 0.0 **** 0.0
6 CG 52.2879981994629 39.523998260498 9.39400005340576 C 0.0 **** 0.0
7 CD 50.923999786377 39.367000579834 8.70400047302246 C 0.0 **** 0.0
8 OE1 50.1920013427734 40.3359985351563 8.49600028991699 O 0.0 **** 0.0
9 NE2 50.5979995727539 38.1389999389648 8.32400035858154 N 0.0 **** 0.0
@<TRIPOS>BOND
1 1 2 1
2 2 3 1
3 2 5 1
4 3 4 1
5 5 6 1
6 6 7 1
7 7 8 1
8 7 9 1
@<TRIPOS>MOLECULE
ALA486
5 4
SMALL
USER_CHARGES


@<TRIPOS>ATOM
1 N 53.0229988098145 44.0610008239746 9.43000030517578 N 0.0 **** 0.0
2 CA 53.7400016784668 45.3349990844727 9.33399963378906 C 0.0 **** 0.0
3 C 53.7309989929199 46.0859985351563 10.664999961853 C 0.0 **** 0.0
4 O 54.7680015563965 46.5830001831055 11.125 O 0.0 **** 0.0
5 CB 53.1220016479492 46.1910018920898 8.2189998626709 C 0.0 **** 0.0
@<TRIPOS>BOND
1 1 2 1
2 2 5 1
3 2 3 1
4 3 4 1
@<TRIPOS>MOLECULE
GLU487
9 8
SMALL
USER_CHARGES


@<TRIPOS>ATOM
1 N 52.5559997558594 46.2229995727539 11.2869997024536 N 0.0 **** 0.0
2 CA 52.5250015258789 46.9710006713867 12.5380001068115 C 0.0 **** 0.0
3 C 53.2929992675781 46.2309989929199 13.6239995956421 C 0.0 **** 0.0
4 O 53.9770011901855 46.8499984741211 14.4409999847412 O 0.0 **** 0.0
5 CB 51.0839996337891 47.2719993591309 12.9680004119873 C 0.0 **** 0.0
6 CG 51.0740013122559 48.2060012817383 14.2180004119873 C 0.0 **** 0.0
7 CD 49.7000007629395 48.6240005493164 14.7519998550415 C 0.0 **** 0.0
8 OE1 48.6580009460449 48.0880012512207 14.2760000228882 O 0.0 **** 0.0
9 OE2 49.689998626709 49.4959983825684 15.6560001373291 O 0.0 **** 0.0
@<TRIPOS>BOND
1 1 2 1
2 2 5 1
3 2 3 1
4 3 4 1
5 5 6 1
6 6 7 1
7 7 9 1
8 7 8 1
@<TRIPOS>MOLECULE
THR488
7 6
SMALL
USER_CHARGES


@<TRIPOS>ATOM
1 N 53.2270011901855 44.9029998779297 13.6300001144409 N 0.0 **** 0.0
2 CA 53.984001159668 44.1459999084473 14.6090002059937 C 0.0 **** 0.0
3 C 55.4809989929199 44.4070014953613 14.4519996643066 C 0.0 **** 0.0
4 O 56.2179985046387 44.5149993896484 15.4519996643066 O 0.0 **** 0.0
5 CB 53.6450004577637 42.6650009155273 14.456000328064 C 0.0 **** 0.0
6 OG1 52.2610015869141 42.4819984436035 14.7530002593994 O 0.0 **** 0.0
7 CG2 54.4640007019043 41.8199996948242 15.3859996795654 C 0.0 **** 0.0
@<TRIPOS>BOND
1 1 2 1
2 2 3 1
3 2 5 1
4 3 4 1
5 5 7 1
6 5 6 1
@<TRIPOS>MOLECULE
ALA489
5 4
SMALL
USER_CHARGES


@<TRIPOS>ATOM
1 N 55.9459991455078 44.5349998474121 13.1940002441406 N 0.0 **** 0.0
2 CA 57.3639984130859 44.7750015258789 12.9540004730225 C 0.0 **** 0.0
3 C 57.7760009765625 46.1419982910156 13.4650001525879 C 0.0 **** 0.0
4 O 58.8790016174316 46.3079986572266 14.0050001144409 O 0.0 **** 0.0
5 CB 57.6860008239746 44.632999420166 11.4530000686646 C 0.0 **** 0.0
@<TRIPOS>BOND
1 1 2 1
2 2 3 1
3 2 5 1
4 3 4 1
@<TRIPOS>MOLECULE
LEU490
8 7
SMALL
USER_CHARGES


@<TRIPOS>ATOM
1 N 56.9039993286133 47.1349983215332 13.326000213623 N 0.0 **** 0.0
2 CA 57.1790008544922 48.4480018615723 13.9069995880127 C 0.0 **** 0.0
3 C 57.2369995117188 48.3709983825684 15.4320001602173 C 0.0 **** 0.0
4 O 58.1139984130859 48.9570007324219 16.0750007629395 O 0.0 **** 0.0
5 CB 56.0970001220703 49.431999206543 13.4799995422363 C 0.0 **** 0.0
6 CG 55.9269981384277 49.701000213623 11.9739999771118 C 0.0 **** 0.0
7 CD1 54.8839988708496 50.7929992675781 11.7690000534058 C 0.0 **** 0.0
8 CD2 57.2430000305176 50.1110000610352 11.3669996261597 C 0.0 **** 0.0
@<TRIPOS>BOND
1 1 2 1
2 2 5 1
3 2 3 1
4 3 4 1
5 5 6 1
6 6 7 1
7 6 8 1
@<TRIPOS>MOLECULE
ILE491
8 7
SMALL
USER_CHARGES


@<TRIPOS>ATOM
1 N 56.2599983215332 47.7039985656738 16.0319995880127 N 0.0 **** 0.0
2 CA 56.2560005187988 47.5979995727539 17.4780006408691 C 0.0 **** 0.0
3 C 57.4939994812012 46.8489990234375 17.92799949646 C 0.0 **** 0.0
4 O 58.1399993896484 47.2140007019043 18.9169998168945 O 0.0 **** 0.0
5 CB 54.9609985351563 46.9080009460449 17.9379997253418 C 0.0 **** 0.0
6 CG1 53.7779998779297 47.826000213623 17.6800003051758 C 0.0 **** 0.0
7 CG2 55.0610008239746 46.5349998474121 19.4270000457764 C 0.0 **** 0.0
8 CD1 52.5089988708496 47.109001159668 17.7520008087158 C 0.0 **** 0.0
@<TRIPOS>BOND
1 1 2 1
2 2 5 1
3 2 3 1
4 3 4 1
5 5 6 1
6 5 7 1
7 6 8 1
@<TRIPOS>MOLECULE
GLY492
4 3
SMALL
USER_CHARGES


@<TRIPOS>ATOM
1 N 57.867000579834 45.8019981384277 17.1870002746582 N 0.0 **** 0.0
2 CA 59.0369987487793 45.0419998168945 17.5790004730225 C 0.0 **** 0.0
3 C 60.273998260498 45.9010009765625 17.628999710083 C 0.0 **** 0.0
4 O 61.1529998779297 45.6949996948242 18.4659996032715 O 0.0 **** 0.0
@<TRIPOS>BOND
1 1 2 1
2 2 3 1
3 3 4 1
@<TRIPOS>MOLECULE
GLN493
9 8
SMALL
USER_CHARGES


@<TRIPOS>ATOM
1 N 60.3580017089844 46.8810005187988 16.7450008392334 N 0.0 **** 0.0
2 CA 61.507999420166 47.7649993896484 16.6800003051758 C 0.0 **** 0.0
3 C 61.3549995422363 48.9799995422363 17.5669994354248 C 0.0 **** 0.0
4 O 62.2809982299805 49.798999786377 17.6389999389648 O 0.0 **** 0.0
5 CB 61.7490005493164 48.1940002441406 15.2259998321533 C 0.0 **** 0.0
6 CG 62.1500015258789 47.0260009765625 14.3870000839233 C 0.0 **** 0.0
7 CD 62.2200012207031 47.4059982299805 12.9259996414185 C 0.0 **** 0.0
8 OE1 63.2449989318848 47.8650016784668 12.4630002975464 O 0.0 **** 0.0
9 NE2 61.1059989929199 47.2700004577637 12.2189998626709 N 0.0 **** 0.0
@<TRIPOS>BOND
1 1 2 1
2 2 5 1
3 2 3 1
4 3 4 1
5 5 6 1
6 6 7 1
7 7 9 1
8 7 8 1
@<TRIPOS>MOLECULE
GLY494
4 3
SMALL
USER_CHARGES


@<TRIPOS>ATOM
1 N 60.2210006713867 49.1100006103516 18.25 N 0.0 **** 0.0
2 CA 59.9990005493164 50.2270011901855 19.1469993591309 C 0.0 **** 0.0
3 C 59.7589988708496 51.5429992675781 18.4659996032715 C 0.0 **** 0.0
4 O 60.0439987182617 52.5929985046387 19.0540008544922 O 0.0 **** 0.0
@<TRIPOS>BOND
1 1 2 1
2 2 3 1
3 3 4 1
@<TRIPOS>MOLECULE
ILE495
8 7
SMALL
USER_CHARGES


@<TRIPOS>ATOM
1 N 59.2439994812012 51.523998260498 17.2299995422363 N 0.0 **** 0.0
2 CA 59.1189994812012 52.7280006408691 16.4330005645752 C 0.0 **** 0.0
3 C 57.6759986877441 52.9690017700195 15.9879999160767 C 0.0 **** 0.0
4 O 57.4309997558594 53.673999786377 14.9849996566772 O 0.0 **** 0.0
5 CB 60.0670013427734 52.6689987182617 15.2200002670288 C 0.0 **** 0.0
6 CG1 59.7039985656738 51.5089988708496 14.3059997558594 C 0.0 **** 0.0
7 CG2 61.523998260498 52.5340003967285 15.7080001831055 C 0.0 **** 0.0
8 CD1 60.640998840332 51.3440017700195 13.048999786377 C 0.0 **** 0.0
@<TRIPOS>BOND
1 1 2 1
2 2 3 1
3 2 5 1
4 3 4 1
5 5 7 1
6 5 6 1
7 6 8 1
@<TRIPOS>MOLECULE
GLU496
9 8
SMALL
USER_CHARGES


@<TRIPOS>ATOM
1 N 56.7200012207031 52.4109992980957 16.7199993133545 N 0.0 **** 0.0
2 CA 55.3219985961914 52.6380004882813 16.4109992980957 C 0.0 **** 0.0
3 C 54.9529991149902 54.0950012207031 16.7189998626709 C 0.0 **** 0.0
4 O 55.7019996643066 54.8050003051758 17.4009990692139 O 0.0 **** 0.0
5 CB 54.435001373291 51.6629981994629 17.17799949646 C 0.0 **** 0.0
6 CG 54.3120002746582 51.8779983520508 18.7210006713867 C 0.0 **** 0.0
7 CD 55.451000213623 51.2690010070801 19.548999786377 C 0.0 **** 0.0
8 OE1 56.4869995117188 50.859001159668 18.9790000915527 O 0.0 **** 0.0
9 OE2 55.318000793457 51.2799987792969 20.8040008544922 O 0.0 **** 0.0
@<TRIPOS>BOND
1 1 2 1
2 2 3 1
3 2 5 1
4 3 4 1
5 5 6 1
6 6 7 1
7 7 9 1
8 7 8 1
@<TRIPOS>MOLECULE
PRO497
7 7
SMALL
USER_CHARGES


@<TRIPOS>ATOM
1 N 53.8380012512207 54.5859985351563 16.1720008850098 N 0.0 **** 0.0
2 CA 53.4560012817383 55.9879989624023 16.4060001373291 C 0.0 **** 0.0
3 C 53.148998260498 56.2449989318848 17.8759994506836 C 0.0 **** 0.0
4 O 52.6780014038086 55.3650016784668 18.5949993133545 O 0.0 **** 0.0
5 CB 52.2019996643066 56.148998260498 15.5509996414185 C 0.0 **** 0.0
6 CG 52.3209991455078 55.0810012817383 14.4829998016357 C 0.0 **** 0.0
7 CD 52.9539985656738 53.9189987182617 15.201000213623 C 0.0 **** 0.0
@<TRIPOS>BOND
1 1 7 1
2 1 2 1
3 2 5 1
4 2 3 1
5 3 4 1
6 5 6 1
7 6 7 1
@<TRIPOS>MOLECULE
ALA498
5 4
SMALL
USER_CHARGES


@<TRIPOS>ATOM
1 N 53.435001373291 57.4630012512207 18.3199996948242 N 0.0 **** 0.0
2 CA 53.3380012512207 57.7789993286133 19.738000869751 C 0.0 **** 0.0
3 C 51.890998840332 57.9990005493164 20.1490001678467 C 0.0 **** 0.0
4 O 51.0639991760254 58.4739990234375 19.3719997406006 O 0.0 **** 0.0
5 CB 54.1319999694824 59.0429992675781 20.0659999847412 C 0.0 **** 0.0
@<TRIPOS>BOND
1 1 2 1
2 2 5 1
3 2 3 1
4 3 4 1
@<TRIPOS>MOLECULE
LEU499
8 7
SMALL
USER_CHARGES


@<TRIPOS>ATOM
1 N 51.5919990539551 57.6430015563965 21.3920001983643 N 0.0 **** 0.0
2 CA 50.3950004577637 58.1469993591309 22.0520000457764 C 0.0 **** 0.0
3 C 50.4620018005371 59.6710014343262 22.1959991455078 C 0.0 **** 0.0
4 O 51.5359992980957 60.2610015869141 22.2880001068115 O 0.0 **** 0.0
5 CB 50.2439994812012 57.492000579834 23.4330005645752 C 0.0 **** 0.0
6 CG 50.0149993896484 55.9749984741211 23.3819999694824 C 0.0 **** 0.0
7 CD1 50.0149993896484 55.3129997253418 24.7910003662109 C 0.0 **** 0.0
8 CD2 48.726001739502 55.7109985351563 22.6550006866455 C 0.0 **** 0.0
@<TRIPOS>BOND
1 1 2 1
2 2 3 1
3 2 5 1
4 3 4 1
5 5 6 1
6 6 8 1
7 6 7 1
@<TRIPOS>MOLECULE
ASN500
8 7
SMALL
USER_CHARGES


@<TRIPOS>ATOM
1 N 49.2919998168945 60.3129997253418 22.2150001525879 N 0.0 **** 0.0
2 CA 49.2560005187988 61.7680015563965 22.4050006866455 C 0.0 **** 0.0
3 C 49.8520011901855 62.1790008544922 23.7299995422363 C 0.0 **** 0.0
4 O 50.4580001831055 63.2449989318848 23.8439998626709 O 0.0 **** 0.0
5 CB 47.8269996643066 62.2830009460449 22.3229999542236 C 0.0 **** 0.0
6 CG 47.2540016174316 62.1349983215332 20.9489994049072 C 0.0 **** 0.0
7 OD1 47.9659996032715 62.2709999084473 19.951000213623 O 0.0 **** 0.0
8 ND2 45.9599990844727 61.8400001525879 20.8780002593994 N 0.0 **** 0.0
@<TRIPOS>BOND
1 1 2 1
2 2 3 1
3 2 5 1
4 3 4 1
5 5 6 1
6 6 8 1
7 6 7 1
@<TRIPOS>MOLECULE
ASP501
8 7
SMALL
USER_CHARGES


@<TRIPOS>ATOM
1 N 49.6430015563965 61.3740005493164 24.7549991607666 N 0.0 **** 0.0
2 CA 50.1230010986328 61.648998260498 26.0990009307861 C 0.0 **** 0.0
3 C 51.5519981384277 61.1440010070801 26.2310009002686 C 0.0 **** 0.0
4 O 51.7910003662109 59.9440002441406 26.2049999237061 O 0.0 **** 0.0
5 CB 49.201000213623 60.9570007324219 27.0960006713867 C 0.0 **** 0.0
6 CG 49.5369987487793 61.2680015563965 28.5300006866455 C 0.0 **** 0.0
7 OD1 50.7080001831055 61.1619987487793 28.9599990844727 O 0.0 **** 0.0
8 OD2 48.5820007324219 61.6030006408691 29.2439994812012 O 0.0 **** 0.0
@<TRIPOS>BOND
1 1 2 1
2 2 3 1
3 2 5 1
4 3 4 1
5 5 6 1
6 6 8 1
7 6 7 1
@<TRIPOS>MOLECULE
ALA502
5 4
SMALL
USER_CHARGES


@<TRIPOS>ATOM
1 N 52.5040016174316 62.0519981384277 26.3889999389648 N 0.0 **** 0.0
2 CA 53.9070014953613 61.6479988098145 26.3880004882813 C 0.0 **** 0.0
3 C 54.2350006103516 60.6949996948242 27.5240001678467 C 0.0 **** 0.0
4 O 55.0690002441406 59.7939987182617 27.3619995117188 O 0.0 **** 0.0
5 CB 54.8089981079102 62.8790016174316 26.4780006408691 C 0.0 **** 0.0
@<TRIPOS>BOND
1 1 2 1
2 2 3 1
3 2 5 1
4 3 4 1
@<TRIPOS>MOLECULE
ALA503
5 4
SMALL
USER_CHARGES


@<TRIPOS>ATOM
1 N 53.6440010070801 60.9059982299805 28.7040004730225 N 0.0 **** 0.0
2 CA 53.939998626709 60.0110015869141 29.82200050354 C 0.0 **** 0.0
3 C 53.3880004882813 58.617000579834 29.5580005645752 C 0.0 **** 0.0
4 O 54.0499992370605 57.6139984130859 29.8500003814697 O 0.0 **** 0.0
5 CB 53.3660011291504 60.560001373291 31.1189994812012 C 0.0 **** 0.0
@<TRIPOS>BOND
1 1 2 1
2 2 3 1
3 2 5 1
4 3 4 1
@<TRIPOS>MOLECULE
LEU504
8 7
SMALL
USER_CHARGES


@<TRIPOS>ATOM
1 N 52.1689987182617 58.5289993286133 29.0209999084473 N 0.0 **** 0.0
2 CA 51.6459999084473 57.2099990844727 28.6940002441406 C 0.0 **** 0.0
3 C 52.4169998168945 56.5849990844727 27.5510005950928 C 0.0 **** 0.0
4 O 52.6380004882813 55.3730010986328 27.55299949646 O 0.0 **** 0.0
5 CB 50.1730003356934 57.2789993286133 28.3470001220703 C 0.0 **** 0.0
6 CG 49.2490005493164 57.673999786377 29.507999420166 C 0.0 **** 0.0
7 CD1 47.7879981994629 57.5279998779297 29.0370006561279 C 0.0 **** 0.0
8 CD2 49.5089988708496 56.8440017700195 30.7630004882813 C 0.0 **** 0.0
@<TRIPOS>BOND
1 1 2 1
2 2 3 1
3 2 5 1
4 3 4 1
5 5 6 1
6 6 7 1
7 6 8 1
@<TRIPOS>MOLECULE
ASP505
8 7
SMALL
USER_CHARGES


@<TRIPOS>ATOM
1 N 52.882999420166 57.3969993591309 26.6000003814697 N 0.0 **** 0.0
2 CA 53.6699981689453 56.826000213623 25.511999130249 C 0.0 **** 0.0
3 C 54.9729995727539 56.234001159668 26.0289993286133 C 0.0 **** 0.0
4 O 55.3320007324219 55.1059989929199 25.6770000457764 O 0.0 **** 0.0
5 CB 53.9529991149902 57.8650016784668 24.4190006256104 C 0.0 **** 0.0
6 CG 54.5989990234375 57.2190017700195 23.2080001831055 C 0.0 **** 0.0
7 OD1 53.8819999694824 56.4889984130859 22.4769992828369 O 0.0 **** 0.0
8 OD2 55.8250007629395 57.3790016174316 23.0389995574951 O 0.0 **** 0.0
@<TRIPOS>BOND
1 1 2 1
2 2 3 1
3 2 5 1
4 3 4 1
5 5 6 1
6 6 7 1
7 6 8 1
@<TRIPOS>MOLECULE
ALA506
5 4
SMALL
USER_CHARGES


@<TRIPOS>ATOM
1 N 55.7080001831055 56.9860000610352 26.8570003509521 N 0.0 **** 0.0
2 CA 56.9379997253418 56.451000213623 27.4349994659424 C 0.0 **** 0.0
3 C 56.6829986572266 55.132999420166 28.1679992675781 C 0.0 **** 0.0
4 O 57.4630012512207 54.181999206543 28.0270004272461 O 0.0 **** 0.0
5 CB 57.576000213623 57.4729995727539 28.3920001983643 C 0.0 **** 0.0
@<TRIPOS>BOND
1 1 2 1
2 2 3 1
3 2 5 1
4 3 4 1
@<TRIPOS>MOLECULE
ARG507
19 30
SMALL
USER_CHARGES


@<TRIPOS>ATOM
1 N 55.6139984130859 55.0629997253418 28.9699993133545 N 0.0 **** 0.0
2 CA 55.2830009460449 53.8209991455078 29.6679992675781 C 0.0 **** 0.0
3 CA 55.2960014343262 53.8190002441406 29.6660003662109 C 0.0 **** 0.0
4 C 55.0629997253418 52.6769981384277 28.6800003051758 C 0.0 **** 0.0
5 O 55.5950012207031 51.5719985961914 28.8509998321533 O 0.0 **** 0.0
6 CB 54.0250015258789 54.0060005187988 30.5249996185303 C 0.0 **** 0.0
7 CB 54.0629997253418 54.0110015869141 30.5480003356934 C 0.0 **** 0.0
8 CG 54.2089996337891 54.7919998168945 31.8339996337891 C 0.0 **** 0.0
9 CG 54.257999420166 54.9720001220703 31.7140007019043 C 0.0 **** 0.0
10 CD 52.9589996337891 54.6669998168945 32.7330017089844 C 0.0 **** 0.0
11 CD 52.9560012817383 55.1349983215332 32.4809989929199 C 0.0 **** 0.0
12 NE 52.7680015563965 53.2830009460449 33.2039985656738 N 0.0 **** 0.0
13 NE 53.0099983215332 56.2060012817383 33.4519996643066 N 0.0 **** 0.0
14 CZ 51.8959999084473 52.3940010070801 32.7120018005371 C 0.0 **** 0.0
15 CZ 51.9679985046387 56.5839996337891 34.1790008544922 C 0.0 **** 0.0
16 NH1 51.076000213623 52.7080001831055 31.6860008239746 N 0.0 **** 0.0
17 NH1 50.7949981689453 55.9749984741211 34.0439987182617 N 0.0 **** 0.0
18 NH2 51.8540000915527 51.1749992370605 33.2690010070801 N 0.0 **** 0.0
19 NH2 52.1030006408691 57.5639991760254 35.0400009155273 N 0.0 **** 0.0
@<TRIPOS>BOND
1 1 2 1
2 1 3 1
3 2 3 1
4 2 6 1
5 2 7 1
6 2 4 1
7 3 6 1
8 3 7 1
9 3 4 1
10 4 5 1
11 6 7 1
12 6 8 1
13 6 9 1
14 7 8 1
15 7 9 1
16 8 9 1
17 8 10 1
18 8 11 1
19 9 10 1
20 9 11 1
21 10 12 1
22 10 11 1
23 10 13 1
24 11 13 1
25 12 14 1
26 13 15 1
27 14 18 1
28 14 16 1
29 15 17 1
30 15 19 1
@<TRIPOS>MOLECULE
ARG508
11 10
SMALL
USER_CHARGES


@<TRIPOS>ATOM
1 N 54.2599983215332 52.9169998168945 27.6520004272461 N 0.0 **** 0.0
2 CA 53.9090003967285 51.8279991149902 26.7339992523193 C 0.0 **** 0.0
3 C 55.1049995422363 51.4039993286133 25.8880004882813 C 0.0 **** 0.0
4 O 55.2760009765625 50.2159996032715 25.5890007019043 O 0.0 **** 0.0
5 CB 52.7439994812012 52.2330017089844 25.8209991455078 C 0.0 **** 0.0
6 CG 52.1080017089844 51.0429992675781 25.136999130249 C 0.0 **** 0.0
7 CD 50.8860015869141 51.4480018615723 24.2859992980957 C 0.0 **** 0.0
8 NE 51.3009986877441 52.2000007629395 23.1049995422363 N 0.0 **** 0.0
9 CZ 50.5320014953613 52.4720001220703 22.0620002746582 C 0.0 **** 0.0
10 NH1 49.2560005187988 52.1040000915527 22.0540008544922 N 0.0 **** 0.0
11 NH2 51.0620002746582 53.101001739502 20.9869995117188 N 0.0 **** 0.0
@<TRIPOS>BOND
1 1 2 1
2 2 5 1
3 2 3 1
4 3 4 1
5 5 6 1
6 6 7 1
7 7 8 1
8 8 9 1
9 9 10 1
10 9 11 1
@<TRIPOS>MOLECULE
ARG509
11 10
SMALL
USER_CHARGES


@<TRIPOS>ATOM
1 N 55.9410018920898 52.3530006408691 25.4890003204346 N 0.0 **** 0.0
2 CA 57.1049995422363 51.9930000305176 24.6830005645752 C 0.0 **** 0.0
3 C 58.0820007324219 51.1399993896484 25.4720001220703 C 0.0 **** 0.0
4 O 58.8600006103516 50.3959999084473 24.875 O 0.0 **** 0.0
5 CB 57.7789993286133 53.265998840332 24.1529998779297 C 0.0 **** 0.0
6 CG 58.0810012817383 53.2350006103516 22.6550006866455 C 0.0 **** 0.0
7 CD 58.5830001831055 54.5989990234375 22.173999786377 C 0.0 **** 0.0
8 NE 57.5120010375977 55.4059982299805 21.625 N 0.0 **** 0.0
9 CZ 56.9850006103516 55.2099990844727 20.4139995574951 C 0.0 **** 0.0
10 NH1 57.4020004272461 54.2169990539551 19.6389999389648 N 0.0 **** 0.0
11 NH2 56.0200004577637 55.9959983825684 19.9769992828369 N 0.0 **** 0.0
@<TRIPOS>BOND
1 1 2 1
2 2 3 1
3 2 5 1
4 3 4 1
5 5 6 1
6 6 7 1
7 7 8 1
8 8 9 1
9 9 11 1
10 9 10 1
@<TRIPOS>MOLECULE
ALA510
5 4
SMALL
USER_CHARGES


@<TRIPOS>ATOM
1 N 58.0180015563965 51.1790008544922 26.7870006561279 N 0.0 **** 0.0
2 CA 58.8489990234375 50.3400001525879 27.6280002593994 C 0.0 **** 0.0
3 C 58.185001373291 49.0190010070801 27.9969997406006 C 0.0 **** 0.0
4 O 58.7550010681152 48.2569999694824 28.7940006256104 O 0.0 **** 0.0
5 CB 59.2109985351563 51.0880012512207 28.9109992980957 C 0.0 **** 0.0
@<TRIPOS>BOND
1 1 2 1
2 2 3 1
3 2 5 1
4 3 4 1
@<TRIPOS>MOLECULE
MET511
8 7
SMALL
USER_CHARGES


@<TRIPOS>ATOM
1 N 56.9990005493164 48.7439994812012 27.4650001525879 N 0.0 **** 0.0
2 CA 56.3219985961914 47.4749984741211 27.7070007324219 C 0.0 **** 0.0
3 C 56.673999786377 46.4589996337891 26.6410007476807 C 0.0 **** 0.0
4 O 56.8390007019043 46.8129997253418 25.4710006713867 O 0.0 **** 0.0
5 CB 54.8089981079102 47.6559982299805 27.7210006713867 C 0.0 **** 0.0
6 CG 54.2610015869141 48.4710006713867 28.8640003204346 C 0.0 **** 0.0
7 SD 52.4620018005371 48.5830001831055 28.7840003967285 S 0.0 **** 0.0
8 CE 52.2159996032715 49.8499984741211 30.0739994049072 C 0.0 **** 0.0
@<TRIPOS>BOND
1 1 2 1
2 2 3 1
3 2 5 1
4 3 4 1
5 5 6 1
6 6 7 1
7 7 8 1
@<TRIPOS>MOLECULE
PRO512
7 7
SMALL
USER_CHARGES


@<TRIPOS>ATOM
1 N 56.7470016479492 45.1790008544922 27.0100002288818 N 0.0 **** 0.0
2 CA 56.7540016174316 44.1310005187988 25.996000289917 C 0.0 **** 0.0
3 C 55.3800010681152 44.0029983520508 25.3619995117188 C 0.0 **** 0.0
4 O 54.3800010681152 44.4529991149902 25.9120006561279 O 0.0 **** 0.0
5 CB 57.1370010375977 42.8849983215332 26.7779998779297 C 0.0 **** 0.0
6 CG 56.6699981689453 43.1339988708496 28.1639995574951 C 0.0 **** 0.0
7 CD 56.7519989013672 44.6349983215332 28.3859996795654 C 0.0 **** 0.0
@<TRIPOS>BOND
1 1 7 1
2 1 2 1
3 2 3 1
4 2 5 1
5 3 4 1
6 5 6 1
7 6 7 1
@<TRIPOS>MOLECULE
PHE513
11 11
SMALL
USER_CHARGES


@<TRIPOS>ATOM
1 N 55.3479995727539 43.398998260498 24.1669998168945 N 0.0 **** 0.0
2 CA 54.1650009155273 43.4020004272461 23.3120002746582 C 0.0 **** 0.0
3 C 53.6860008239746 41.9869995117188 23.0209999084473 C 0.0 **** 0.0
4 O 54.4620018005371 41.1389999389648 22.5960006713867 O 0.0 **** 0.0
5 CB 54.4490013122559 44.1129989624023 21.9780006408691 C 0.0 **** 0.0
6 CG 53.298999786377 44.0470008850098 21.0270004272461 C 0.0 **** 0.0
7 CD1 52.2039985656738 44.8769989013672 21.1989994049072 C 0.0 **** 0.0
8 CD2 53.3199996948242 43.1769981384277 19.9559993743896 C 0.0 **** 0.0
9 CE1 51.1339988708496 44.8139991760254 20.298999786377 C 0.0 **** 0.0
10 CE2 52.257999420166 43.1040000915527 19.0750007629395 C 0.0 **** 0.0
11 CZ 51.1769981384277 43.931999206543 19.2439994812012 C 0.0 **** 0.0
@<TRIPOS>BOND
1 1 2 1
2 2 5 1
3 2 3 1
4 3 4 1
5 5 6 1
6 6 8 1
7 6 7 1
8 7 9 1
9 8 10 1
10 9 11 1
11 10 11 1
@<TRIPOS>MOLECULE
VAL514
7 6
SMALL
USER_CHARGES


@<TRIPOS>ATOM
1 N 52.4000015258789 41.7330017089844 23.2089996337891 N 0.0 **** 0.0
2 CA 51.8349990844727 40.4169998168945 22.931999206543 C 0.0 **** 0.0
3 C 50.6360015869141 40.5620002746582 21.9950008392334 C 0.0 **** 0.0
4 O 49.8489990234375 41.507999420166 22.1009998321533 O 0.0 **** 0.0
5 CB 51.4269981384277 39.7029991149902 24.2439994812012 C 0.0 **** 0.0
6 CG1 50.3409996032715 40.5029983520508 25.0109996795654 C 0.0 **** 0.0
7 CG2 50.9550018310547 38.3050003051758 23.9580001831055 C 0.0 **** 0.0
@<TRIPOS>BOND
1 1 2 1
2 2 3 1
3 2 5 1
4 3 4 1
5 5 6 1
6 5 7 1
@<TRIPOS>MOLECULE
LEU515
8 7
SMALL
USER_CHARGES


@<TRIPOS>ATOM
1 N 50.4799995422363 39.6150016784668 21.0909996032715 N 0.0 **** 0.0
2 CA 49.2369995117188 39.4939994812012 20.3110008239746 C 0.0 **** 0.0
3 C 48.3400001525879 38.5139999389648 21.0540008544922 C 0.0 **** 0.0
4 O 48.5449981689453 37.2929992675781 20.9990005493164 O 0.0 **** 0.0
5 CB 49.5069999694824 39.0379981994629 18.8759994506836 C 0.0 **** 0.0
6 CG 50.1780014038086 40.0950012207031 17.9899997711182 C 0.0 **** 0.0
7 CD1 50.7960014343262 39.5340003967285 16.701000213623 C 0.0 **** 0.0
8 CD2 49.1889991760254 41.1800003051758 17.6159992218018 C 0.0 **** 0.0
@<TRIPOS>BOND
1 1 2 1
2 2 3 1
3 2 5 1
4 3 4 1
5 5 6 1
6 6 8 1
7 6 7 1
@<TRIPOS>MOLECULE
CYS516
6 5
SMALL
USER_CHARGES


@<TRIPOS>ATOM
1 N 47.3289985656738 39.0349998474121 21.7409992218018 N 0.0 **** 0.0
2 CA 46.4609985351563 38.1479988098145 22.4850006103516 C 0.0 **** 0.0
3 C 45.5719985961914 37.3349990844727 21.5739994049072 C 0.0 **** 0.0
4 O 45.0839996337891 36.2890014648438 22.0170001983643 O 0.0 **** 0.0
5 CB 45.5979995727539 38.9140014648438 23.503999710083 C 0.0 **** 0.0
6 SG 44.4869995117188 40.1500015258789 22.8910007476807 S 0.0 **** 0.0
@<TRIPOS>BOND
1 1 2 1
2 2 3 1
3 2 5 1
4 3 4 1
5 5 6 1
@<TRIPOS>MOLECULE
GLU517
9 8
SMALL
USER_CHARGES


@<TRIPOS>ATOM
1 N 45.3409996032715 37.8120002746582 20.3379993438721 N 0.0 **** 0.0
2 CA 44.6380004882813 37.064998626709 19.3040008544922 C 0.0 **** 0.0
3 C 45.3219985961914 37.4220008850098 17.9909992218018 C 0.0 **** 0.0
4 O 45.5919990539551 38.5989990234375 17.7530002593994 O 0.0 **** 0.0
5 CB 43.1389999389648 37.4210014343262 19.2560005187988 C 0.0 **** 0.0
6 CG 42.4830017089844 37.3170013427734 20.6299991607666 C 0.0 **** 0.0
7 CD 40.9780006408691 37.6749992370605 20.6490001678467 C 0.0 **** 0.0
8 OE1 40.3310012817383 37.7039985656738 19.5779991149902 O 0.0 **** 0.0
9 OE2 40.4490013122559 37.8720016479492 21.7700004577637 O 0.0 **** 0.0
@<TRIPOS>BOND
1 1 2 1
2 2 5 1
3 2 3 1
4 3 4 1
5 5 6 1
6 6 7 1
7 7 8 1
8 7 9 1
@<TRIPOS>MOLECULE
TYR518
12 12
SMALL
USER_CHARGES


@<TRIPOS>ATOM
1 N 45.6440010070801 36.4269981384277 17.1749992370605 N 0.0 **** 0.0
2 CA 46.1809997558594 36.693000793457 15.8409996032715 C 0.0 **** 0.0
3 C 45.9519996643066 35.4500007629395 14.9689998626709 C 0.0 **** 0.0
4 O 45.4309997558594 34.423999786377 15.4250001907349 O 0.0 **** 0.0
5 CB 47.6640014648438 37.1269989013672 15.918999671936 C 0.0 **** 0.0
6 CG 48.6679992675781 36.023998260498 15.951000213623 C 0.0 **** 0.0
7 CD1 48.6100006103516 35.0320014953613 16.9169998168945 C 0.0 **** 0.0
8 CD2 49.6920013427734 35.9679985046387 15.0319995880127 C 0.0 **** 0.0
9 CE1 49.5279998779297 33.9809989929199 16.931999206543 C 0.0 **** 0.0
10 CE2 50.6209983825684 34.898998260498 15.0340003967285 C 0.0 **** 0.0
11 CZ 50.5169982910156 33.9220008850098 16.003999710083 C 0.0 **** 0.0
12 OH 51.3919982910156 32.8330001831055 16.0440006256104 O 0.0 **** 0.0
@<TRIPOS>BOND
1 1 2 1
2 2 5 1
3 2 3 1
4 3 4 1
5 5 6 1
6 6 8 1
7 6 7 1
8 7 9 1
9 8 10 1
10 9 11 1
11 10 11 1
12 11 12 1
@<TRIPOS>MOLECULE
VAL519
7 6
SMALL
USER_CHARGES


@<TRIPOS>ATOM
1 N 46.2900009155273 35.5970001220703 13.6870002746582 N 0.0 **** 0.0
2 CA 46.1150016784668 34.6150016784668 12.6059999465942 C 0.0 **** 0.0
3 C 44.8219985961914 33.8269996643066 12.7799997329712 C 0.0 **** 0.0
4 O 44.8129997253418 32.5999984741211 12.9519996643066 O 0.0 **** 0.0
5 CB 47.3349990844727 33.6949996948242 12.4519996643066 C 0.0 **** 0.0
6 CG1 48.5270004272461 34.5309982299805 11.9670000076294 C 0.0 **** 0.0
7 CG2 47.6430015563965 32.9650001525879 13.7250003814697 C 0.0 **** 0.0
@<TRIPOS>BOND
1 1 2 1
2 2 5 1
3 2 3 1
4 3 4 1
5 5 6 1
6 5 7 1
@<TRIPOS>MOLECULE
HIS520
10 10
SMALL
USER_CHARGES


@<TRIPOS>ATOM
1 N 43.7280006408691 34.5639991760254 12.6969995498657 N 0.0 **** 0.0
2 CA 42.3819999694824 34.0299987792969 12.8210000991821 C 0.0 **** 0.0
3 C 42.2130012512207 32.7830009460449 11.9770002365112 C 0.0 **** 0.0
4 O 42.4160003662109 32.8089981079102 10.7440004348755 O 0.0 **** 0.0
5 CB 41.4210014343262 35.1300010681152 12.3909997940063 C 0.0 **** 0.0
6 CG 40.007999420166 34.9379997253418 12.8380002975464 C 0.0 **** 0.0
7 ND1 39.0289993286133 34.4749984741211 11.9829998016357 N 0.0 **** 0.0
8 CD2 39.3899993896484 35.2190017700195 14.0100002288818 C 0.0 **** 0.0
9 CE1 37.8699989318848 34.4609985351563 12.625 C 0.0 **** 0.0
10 NE2 38.0639991760254 34.9029998779297 13.8540000915527 N 0.0 **** 0.0
@<TRIPOS>BOND
1 1 2 1
2 2 5 1
3 2 3 1
4 3 4 1
5 5 6 1
6 6 7 1
7 6 8 1
8 7 9 1
9 8 10 1
10 9 10 1
@<TRIPOS>MOLECULE
ALA521
5 4
SMALL
USER_CHARGES


@<TRIPOS>ATOM
1 N 41.8419990539551 31.6860008239746 12.6309995651245 N 0.0 **** 0.0
2 CA 41.9580001831055 30.3549995422363 12.0459995269775 C 0.0 **** 0.0
3 C 40.6479988098145 29.8479995727539 11.4720001220703 C 0.0 **** 0.0
4 O 40.3650016784668 28.6520004272461 11.5050001144409 O 0.0 **** 0.0
5 CB 42.4990005493164 29.3859996795654 13.0749998092651 C 0.0 **** 0.0
@<TRIPOS>BOND
1 1 2 1
2 2 5 1
3 2 3 1
4 3 4 1
@<TRIPOS>MOLECULE
MET522
8 7
SMALL
USER_CHARGES


@<TRIPOS>ATOM
1 N 39.8419990539551 30.7299995422363 10.8999996185303 N 0.0 **** 0.0
2 CA 38.5470008850098 30.3419990539551 10.3760004043579 C 0.0 **** 0.0
3 C 38.6570014953613 29.753999710083 8.96199989318848 C 0.0 **** 0.0
4 O 39.1990013122559 30.3999996185303 8.05700016021729 O 0.0 **** 0.0
5 CB 37.6450004577637 31.5590000152588 10.3730001449585 C 0.0 **** 0.0
6 CG 36.2099990844727 31.2399997711182 9.99499988555908 C 0.0 **** 0.0
7 SD 35.3370018005371 32.7960014343262 10.0209999084473 S 0.0 **** 0.0
8 CE 33.7140007019043 32.2350006103516 9.53400039672852 C 0.0 **** 0.0
@<TRIPOS>BOND
1 1 2 1
2 2 5 1
3 2 3 1
4 3 4 1
5 5 6 1
6 6 7 1
7 7 8 1
@<TRIPOS>MOLECULE
GLY523
4 3
SMALL
USER_CHARGES


@<TRIPOS>ATOM
1 N 38.1590003967285 28.5259990692139 8.78699970245361 N 0.0 **** 0.0
2 CA 38.0839996337891 27.9220008850098 7.45599985122681 C 0.0 **** 0.0
3 C 39.4630012512207 27.6340007781982 6.89900016784668 C 0.0 **** 0.0
4 O 40.4269981384277 27.371000289917 7.63199996948242 O 0.0 **** 0.0
@<TRIPOS>BOND
1 1 2 1
2 2 3 1
3 3 4 1
@<TRIPOS>MOLECULE
ASN524
8 7
SMALL
USER_CHARGES


@<TRIPOS>ATOM
1 N 39.5589981079102 27.6879997253418 5.57000017166138 N 0.0 **** 0.0
2 CA 40.8390007019043 27.4869995117188 4.90799999237061 C 0.0 **** 0.0
3 C 41.818000793457 28.57200050354 5.33300018310547 C 0.0 **** 0.0
4 O 41.6100006103516 29.7439994812012 5.02199983596802 O 0.0 **** 0.0
5 CB 40.6500015258789 27.4869995117188 3.38100004196167 C 0.0 **** 0.0
6 CG 41.8790016174316 27.0189990997314 2.6470000743866 C 0.0 **** 0.0
7 OD1 42.9819984436035 27.0480003356934 3.18400001525879 O 0.0 **** 0.0
8 ND2 41.7099990844727 26.6410007476807 1.40900003910065 N 0.0 **** 0.0
@<TRIPOS>BOND
1 1 2 1
2 2 3 1
3 2 5 1
4 3 4 1
5 5 6 1
6 6 7 1
7 6 8 1
@<TRIPOS>MOLECULE
GLY525
4 3
SMALL
USER_CHARGES


@<TRIPOS>ATOM
1 N 42.8540000915527 28.1949996948242 6.08900022506714 N 0.0 **** 0.0
2 CA 43.8289985656738 29.1040000915527 6.61600017547607 C 0.0 **** 0.0
3 C 44.3489990234375 28.55299949646 7.93699979782104 C 0.0 **** 0.0
4 O 44.1580009460449 27.3719997406006 8.22999954223633 O 0.0 **** 0.0
@<TRIPOS>BOND
1 1 2 1
2 2 3 1
3 3 4 1
@<TRIPOS>MOLECULE
PRO526
7 7
SMALL
USER_CHARGES


@<TRIPOS>ATOM
1 N 44.9959983825684 29.386999130249 8.75399971008301 N 0.0 **** 0.0
2 CA 45.2750015258789 30.8020000457764 8.49199962615967 C 0.0 **** 0.0
3 C 46.556999206543 31.003999710083 7.68300008773804 C 0.0 **** 0.0
4 O 47.5540008544922 30.2900009155273 7.875 O 0.0 **** 0.0
5 CB 45.4290008544922 31.386999130249 9.88899993896484 C 0.0 **** 0.0
6 CG 45.9790000915527 30.253999710083 10.7040004730225 C 0.0 **** 0.0
7 CD 45.390998840332 29.0069999694824 10.1379995346069 C 0.0 **** 0.0
@<TRIPOS>BOND
1 1 2 1
2 1 7 1
3 2 3 1
4 2 5 1
5 3 4 1
6 5 6 1
7 6 7 1
@<TRIPOS>MOLECULE
GLY527
4 3
SMALL
USER_CHARGES


@<TRIPOS>ATOM
1 N 46.5180015563965 31.9689998626709 6.77099990844727 N 0.0 **** 0.0
2 CA 47.7070007324219 32.3569984436035 6.03700017929077 C 0.0 **** 0.0
3 C 48.484001159668 33.4480018615723 6.75299978256226 C 0.0 **** 0.0
4 O 47.9739990234375 34.1510009765625 7.62799978256226 O 0.0 **** 0.0
@<TRIPOS>BOND
1 1 2 1
2 2 3 1
3 3 4 1
@<TRIPOS>MOLECULE
GLY528
4 3
SMALL
USER_CHARGES


@<TRIPOS>ATOM
1 N 49.757999420166 33.5660018920898 6.39900016784668 N 0.0 **** 0.0
2 CA 50.6020011901855 34.5950012207031 6.95300006866455 C 0.0 **** 0.0
3 C 51.2039985656738 34.2910003662109 8.30700016021729 C 0.0 **** 0.0
4 O 51.7140007019043 35.2029991149902 8.94699954986572 O 0.0 **** 0.0
@<TRIPOS>BOND
1 1 2 1
2 2 3 1
3 3 4 1
@<TRIPOS>MOLECULE
MET529
8 7
SMALL
USER_CHARGES


@<TRIPOS>ATOM
1 N 51.1590003967285 33.048999786377 8.76700019836426 N 0.0 **** 0.0
2 CA 51.7080001831055 32.7389984130859 10.08899974823 C 0.0 **** 0.0
3 C 53.2220001220703 32.8779983520508 10.1149997711182 C 0.0 **** 0.0
4 O 53.7869987487793 33.2540016174316 11.1450004577637 O 0.0 **** 0.0
5 CB 51.3520011901855 31.3150005340576 10.5279998779297 C 0.0 **** 0.0
6 CG 49.9020004272461 31.1410007476807 10.9580001831055 C 0.0 **** 0.0
7 SD 49.632999420166 29.4619998931885 11.5959997177124 S 0.0 **** 0.0
8 CE 49.4869995117188 28.4549999237061 10.1359996795654 C 0.0 **** 0.0
@<TRIPOS>BOND
1 1 2 1
2 2 5 1
3 2 3 1
4 3 4 1
5 5 6 1
6 6 7 1
7 7 8 1
@<TRIPOS>MOLECULE
SER530
6 5
SMALL
USER_CHARGES


@<TRIPOS>ATOM
1 N 53.9000015258789 32.5309982299805 9.01599979400635 N 0.0 **** 0.0
2 CA 55.3619995117188 32.5519981384277 9.03899955749512 C 0.0 **** 0.0
3 C 55.8819999694824 33.9650001525879 9.20600032806396 C 0.0 **** 0.0
4 O 56.923999786377 34.1730003356934 9.83199977874756 O 0.0 **** 0.0
5 CB 55.9309997558594 31.9519996643066 7.74900007247925 C 0.0 **** 0.0
6 OG 55.6119995117188 30.5750007629395 7.66300010681152 O 0.0 **** 0.0
@<TRIPOS>BOND
1 1 2 1
2 2 5 1
3 2 3 1
4 3 4 1
5 5 6 1
@<TRIPOS>MOLECULE
GLU531
9 8
SMALL
USER_CHARGES


@<TRIPOS>ATOM
1 N 55.2019996643066 34.939998626709 8.60200023651123 N 0.0 **** 0.0
2 CA 55.6910018920898 36.3110008239746 8.6540002822876 C 0.0 **** 0.0
3 C 55.6310005187988 36.8680000305176 10.0749998092651 C 0.0 **** 0.0
4 O 56.5519981384277 37.564998626709 10.5129995346069 O 0.0 **** 0.0
5 CB 54.9090003967285 37.1730003356934 7.66800022125244 C 0.0 **** 0.0
6 CG 55.3079986572266 36.9039993286133 6.21700000762939 C 0.0 **** 0.0
7 CD 54.6539993286133 35.6720008850098 5.59100008010864 C 0.0 **** 0.0
8 OE1 53.7879981994629 35.0139999389648 6.20699977874756 O 0.0 **** 0.0
9 OE2 55.0169982910156 35.3639984130859 4.42000007629395 O 0.0 **** 0.0
@<TRIPOS>BOND
1 1 2 1
2 2 5 1
3 2 3 1
4 3 4 1
5 5 6 1
6 6 7 1
7 7 8 1
8 7 9 1
@<TRIPOS>MOLECULE
TYR532
12 12
SMALL
USER_CHARGES


@<TRIPOS>ATOM
1 N 54.5789985656738 36.5579986572266 10.8290004730225 N 0.0 **** 0.0
2 CA 54.5800018310547 36.9169998168945 12.2480001449585 C 0.0 **** 0.0
3 C 55.7060012817383 36.2070007324219 12.996000289917 C 0.0 **** 0.0
4 O 56.3790016174316 36.8019981384277 13.8540000915527 O 0.0 **** 0.0
5 CB 53.25 36.5439987182617 12.9029998779297 C 0.0 **** 0.0
6 CG 52.0620002746582 37.4090003967285 12.5989999771118 C 0.0 **** 0.0
7 CD1 51.935001373291 38.648998260498 13.1890001296997 C 0.0 **** 0.0
8 CD2 51.0299987792969 36.9589996337891 11.7709999084473 C 0.0 **** 0.0
9 CE1 50.818000793457 39.4360008239746 12.9779996871948 C 0.0 **** 0.0
10 CE2 49.9259986877441 37.757999420166 11.5240001678467 C 0.0 **** 0.0
11 CZ 49.8310012817383 38.9879989624023 12.1499996185303 C 0.0 **** 0.0
12 OH 48.7210006713867 39.7900009155273 11.9460000991821 O 0.0 **** 0.0
@<TRIPOS>BOND
1 1 2 1
2 2 5 1
3 2 3 1
4 3 4 1
5 5 6 1
6 6 7 1
7 6 8 1
8 7 9 1
9 8 10 1
10 9 11 1
11 10 11 1
12 11 12 1
@<TRIPOS>MOLECULE
GLN533
9 8
SMALL
USER_CHARGES


@<TRIPOS>ATOM
1 N 55.8769989013672 34.9070014953613 12.7440004348755 N 0.0 **** 0.0
2 CA 56.8110008239746 34.1349983215332 13.5590000152588 C 0.0 **** 0.0
3 C 58.2290000915527 34.6399993896484 13.3900003433228 C 0.0 **** 0.0
4 O 58.9900016784668 34.6940002441406 14.3520002365112 O 0.0 **** 0.0
5 CB 56.7350006103516 32.6640014648438 13.1929998397827 C 0.0 **** 0.0
6 CG 57.2799987792969 31.738000869751 14.2399997711182 C 0.0 **** 0.0
7 CD 56.4360008239746 31.742000579834 15.5100002288818 C 0.0 **** 0.0
8 OE1 55.2360000610352 32.0400009155273 15.4720001220703 O 0.0 **** 0.0
9 NE2 57.0639991760254 31.42799949646 16.6480007171631 N 0.0 **** 0.0
@<TRIPOS>BOND
1 1 2 1
2 2 3 1
3 2 5 1
4 3 4 1
5 5 6 1
6 6 7 1
7 7 8 1
8 7 9 1
@<TRIPOS>MOLECULE
ALA534
5 4
SMALL
USER_CHARGES


@<TRIPOS>ATOM
1 N 58.6040000915527 35.0040016174316 12.1680002212524 N 0.0 **** 0.0
2 CA 59.9329986572266 35.5550003051758 11.9490003585815 C 0.0 **** 0.0
3 C 60.1479988098145 36.8120002746582 12.7980003356934 C 0.0 **** 0.0
4 O 61.2470016479492 37.0439987182617 13.3109998703003 O 0.0 **** 0.0
5 CB 60.1300010681152 35.8489990234375 10.4619998931885 C 0.0 **** 0.0
@<TRIPOS>BOND
1 1 2 1
2 2 5 1
3 2 3 1
4 3 4 1
@<TRIPOS>MOLECULE
LEU535
8 7
SMALL
USER_CHARGES


@<TRIPOS>ATOM
1 N 59.1059989929199 37.6319999694824 12.9739999771118 N 0.0 **** 0.0
2 CA 59.2550010681152 38.8190002441406 13.7980003356934 C 0.0 **** 0.0
3 C 59.4080009460449 38.443000793457 15.2700004577637 C 0.0 **** 0.0
4 O 60.257999420166 39.0060005187988 15.9820003509521 O 0.0 **** 0.0
5 CB 58.0559997558594 39.7389984130859 13.6149997711182 C 0.0 **** 0.0
6 CG 57.8629989624023 40.265998840332 12.1759996414185 C 0.0 **** 0.0
7 CD1 56.4809989929199 40.9720001220703 12.0270004272461 C 0.0 **** 0.0
8 CD2 59.0190010070801 41.2060012817383 11.7810001373291 C 0.0 **** 0.0
@<TRIPOS>BOND
1 1 2 1
2 2 5 1
3 2 3 1
4 3 4 1
5 5 6 1
6 6 7 1
7 6 8 1
@<TRIPOS>MOLECULE
PHE536
11 11
SMALL
USER_CHARGES


@<TRIPOS>ATOM
1 N 58.564998626709 37.5149993896484 15.7449998855591 N 0.0 **** 0.0
2 CA 58.6730003356934 37.0369987487793 17.132999420166 C 0.0 **** 0.0
3 C 60.0900001525879 36.5909996032715 17.4330005645752 C 0.0 **** 0.0
4 O 60.6069984436035 36.8269996643066 18.5310001373291 O 0.0 **** 0.0
5 CB 57.726001739502 35.8580017089844 17.3920001983643 C 0.0 **** 0.0
6 CG 56.2569999694824 36.1720008850098 17.2779998779297 C 0.0 **** 0.0
7 CD1 55.7779998779297 37.4679985046387 17.3269996643066 C 0.0 **** 0.0
8 CD2 55.3619995117188 35.1389999389648 17.1159992218018 C 0.0 **** 0.0
9 CE1 54.4189987182617 37.7130012512207 17.2150001525879 C 0.0 **** 0.0
10 CE2 54.023998260498 35.3699989318848 17.0020008087158 C 0.0 **** 0.0
11 CZ 53.5410003662109 36.6580009460449 17.0620002746582 C 0.0 **** 0.0
@<TRIPOS>BOND
1 1 2 1
2 2 3 1
3 2 5 1
4 3 4 1
5 5 6 1
6 6 7 1
7 6 8 1
8 7 9 1
9 8 10 1
10 9 11 1
11 10 11 1
@<TRIPOS>MOLECULE
GLU537
9 8
SMALL
USER_CHARGES


@<TRIPOS>ATOM
1 N 60.7470016479492 35.9469985961914 16.4669990539551 N 0.0 **** 0.0
2 CA 62.0859985351563 35.4259986877441 16.7169990539551 C 0.0 **** 0.0
3 C 63.1310005187988 36.5270004272461 16.6650009155273 C 0.0 **** 0.0
4 O 64.125 36.4599990844727 17.382999420166 O 0.0 **** 0.0
5 CB 62.4309997558594 34.314998626709 15.7040004730225 C 0.0 **** 0.0
6 CG 61.7430000305176 32.9949989318848 15.9739999771118 C 0.0 **** 0.0
7 CD 62.3489990234375 32.2389984130859 17.1919994354248 C 0.0 **** 0.0
8 OE1 63.398998260498 32.6769981384277 17.7129993438721 O 0.0 **** 0.0
9 OE2 61.7879981994629 31.2049999237061 17.6159992218018 O 0.0 **** 0.0
@<TRIPOS>BOND
1 1 2 1
2 2 5 1
3 2 3 1
4 3 4 1
5 5 6 1
6 6 7 1
7 7 8 1
8 7 9 1
@<TRIPOS>MOLECULE
LYS538
9 8
SMALL
USER_CHARGES


@<TRIPOS>ATOM
1 N 62.8899993896484 37.5639991760254 15.8859996795654 N 0.0 **** 0.0
2 CA 63.8759994506836 38.6180000305176 15.6639995574951 C 0.0 **** 0.0
3 C 63.8779983520508 39.6629981994629 16.7789993286133 C 0.0 **** 0.0
4 O 64.9359970092773 40.1809997558594 17.1359996795654 O 0.0 **** 0.0
5 CB 63.5999984741211 39.2859992980957 14.3070001602173 C 0.0 **** 0.0
6 CG 64.5790023803711 40.3699989318848 13.9320001602173 C 0.0 **** 0.0
7 CD 64.4459991455078 40.7939987182617 12.4630002975464 C 0.0 **** 0.0
8 CE 65.6429977416992 41.6699981689453 12.0520000457764 C 0.0 **** 0.0
9 NZ 65.4789962768555 42.234001159668 10.6789999008179 N 0.0 **** 0.0
@<TRIPOS>BOND
1 1 2 1
2 2 5 1
3 2 3 1
4 3 4 1
5 5 6 1
6 6 7 1
7 7 8 1
8 8 9 1
@<TRIPOS>MOLECULE
TYR539
12 12
SMALL
USER_CHARGES


@<TRIPOS>ATOM
1 N 62.7120018005371 40.007999420166 17.326000213623 N 0.0 **** 0.0
2 CA 62.6030006408691 41.1839981079102 18.17799949646 C 0.0 **** 0.0
3 C 62.2789993286133 40.7779998779297 19.613000869751 C 0.0 **** 0.0
4 O 61.1940002441406 40.2309989929199 19.8759994506836 O 0.0 **** 0.0
5 CB 61.5429992675781 42.1430015563965 17.6429996490479 C 0.0 **** 0.0
6 CG 61.9329986572266 42.6949996948242 16.2810001373291 C 0.0 **** 0.0
7 CD1 63.1020011901855 43.4329986572266 16.1399993896484 C 0.0 **** 0.0
8 CD2 61.1580009460449 42.4780006408691 15.1440000534058 C 0.0 **** 0.0
9 CE1 63.5009994506836 43.9010009765625 14.9259996414185 C 0.0 **** 0.0
10 CE2 61.5509986877441 42.9850006103516 13.9160003662109 C 0.0 **** 0.0
11 CZ 62.7210006713867 43.6949996948242 13.8280000686646 C 0.0 **** 0.0
12 OH 63.140998840332 44.2179985046387 12.6479997634888 O 0.0 **** 0.0
@<TRIPOS>BOND
1 1 2 1
2 2 5 1
3 2 3 1
4 3 4 1
5 5 6 1
6 6 8 1
7 6 7 1
8 7 9 1
9 8 10 1
10 9 11 1
11 10 11 1
12 11 12 1
@<TRIPOS>MOLECULE
PRO540
7 7
SMALL
USER_CHARGES


@<TRIPOS>ATOM
1 N 63.1749992370605 41.060001373291 20.5610008239746 N 0.0 **** 0.0
2 CA 62.9210014343262 40.6599998474121 21.9549999237061 C 0.0 **** 0.0
3 C 61.6860008239746 41.2869987487793 22.5690002441406 C 0.0 **** 0.0
4 O 61.0769996643066 40.6699981689453 23.4500007629395 O 0.0 **** 0.0
5 CB 64.1920013427734 41.1220016479492 22.6790008544922 C 0.0 **** 0.0
6 CG 65.2529983520508 41.0699996948242 21.6639995574951 C 0.0 **** 0.0
7 CD 64.5690002441406 41.4879989624023 20.3659992218018 C 0.0 **** 0.0
@<TRIPOS>BOND
1 1 7 1
2 1 2 1
3 2 5 1
4 2 3 1
5 3 4 1
6 5 6 1
7 6 7 1
@<TRIPOS>MOLECULE
ARG541
11 10
SMALL
USER_CHARGES


@<TRIPOS>ATOM
1 N 61.314998626709 42.5009994506836 22.1700000762939 N 0.0 **** 0.0
2 CA 60.1049995422363 43.1049995422363 22.7199993133545 C 0.0 **** 0.0
3 C 58.8650016784668 42.2939987182617 22.3880004882813 C 0.0 **** 0.0
4 O 57.8720016479492 42.3919982910156 23.1000003814697 O 0.0 **** 0.0
5 CB 59.9370002746582 44.5369987487793 22.1919994354248 C 0.0 **** 0.0
6 CG 58.7649993896484 45.2779998779297 22.8199996948242 C 0.0 **** 0.0
7 CD 58.5839996337891 46.6399993896484 22.2329998016357 C 0.0 **** 0.0
8 NE 57.5149993896484 47.4059982299805 22.8490009307861 N 0.0 **** 0.0
9 CZ 56.9210014343262 48.4589996337891 22.3059997558594 C 0.0 **** 0.0
10 NH1 57.2280006408691 48.8559989929199 21.1000003814697 N 0.0 **** 0.0
11 NH2 55.9720001220703 49.1040000915527 22.9689998626709 N 0.0 **** 0.0
@<TRIPOS>BOND
1 1 2 1
2 2 5 1
3 2 3 1
4 3 4 1
5 5 6 1
6 6 7 1
7 7 8 1
8 8 9 1
9 9 11 1
10 9 10 1
@<TRIPOS>MOLECULE
LEU542
8 7
SMALL
USER_CHARGES


@<TRIPOS>ATOM
1 N 58.9000015258789 41.4780006408691 21.3470001220703 N 0.0 **** 0.0
2 CA 57.7169990539551 40.7070007324219 20.9559993743896 C 0.0 **** 0.0
3 C 57.6430015563965 39.439998626709 21.7910003662109 C 0.0 **** 0.0
4 O 58.5369987487793 38.5979995727539 21.7320003509521 O 0.0 **** 0.0
5 CB 57.7639999389648 40.3769989013672 19.4580001831055 C 0.0 **** 0.0
6 CG 57.8110008239746 41.5859985351563 18.5349998474121 C 0.0 **** 0.0
7 CD1 57.8040008544922 41.1769981384277 17.0389995574951 C 0.0 **** 0.0
8 CD2 56.6380004882813 42.5540008544922 18.7689990997314 C 0.0 **** 0.0
@<TRIPOS>BOND
1 1 2 1
2 2 5 1
3 2 3 1
4 3 4 1
5 5 6 1
6 6 7 1
7 6 8 1
@<TRIPOS>MOLECULE
MET543
8 7
SMALL
USER_CHARGES


@<TRIPOS>ATOM
1 N 56.5589981079102 39.3019981384277 22.5540008544922 N 0.0 **** 0.0
2 CA 56.3629989624023 38.148998260498 23.42799949646 C 0.0 **** 0.0
3 C 55.8610000610352 36.9420013427734 22.6760005950928 C 0.0 **** 0.0
4 O 55.9370002746582 35.818000793457 23.1940002441406 O 0.0 **** 0.0
5 CB 55.3419990539551 38.4910011291504 24.5100002288818 C 0.0 **** 0.0
6 CG 55.7709999084473 39.6520004272461 25.4169998168945 C 0.0 **** 0.0
7 SD 54.4620018005371 40.3800010681152 26.4099998474121 S 0.0 **** 0.0
8 CE 53.7879981994629 38.9150009155273 27.1979999542236 C 0.0 **** 0.0
@<TRIPOS>BOND
1 1 2 1
2 2 3 1
3 2 5 1
4 3 4 1
5 5 6 1
6 6 7 1
7 7 8 1
@<TRIPOS>MOLECULE
GLY544
4 3
SMALL
USER_CHARGES


@<TRIPOS>ATOM
1 N 55.3409996032715 37.132999420166 21.4780006408691 N 0.0 **** 0.0
2 CA 54.6500015258789 36.0670013427734 20.7689990997314 C 0.0 **** 0.0
3 C 53.1679992675781 36.3489990234375 20.6240005493164 C 0.0 **** 0.0
4 O 52.7109985351563 37.484001159668 20.6399993896484 O 0.0 **** 0.0
@<TRIPOS>BOND
1 1 2 1
2 2 3 1
3 3 4 1
@<TRIPOS>MOLECULE
GLY545
4 3
SMALL
USER_CHARGES


@<TRIPOS>ATOM
1 N 52.4029998779297 35.2589988708496 20.4680004119873 N 0.0 **** 0.0
2 CA 50.9939994812012 35.4300003051758 20.201000213623 C 0.0 **** 0.0
3 C 50.1730003356934 34.181999206543 20.423999786377 C 0.0 **** 0.0
4 O 50.6920013427734 33.0639991760254 20.507999420166 O 0.0 **** 0.0
@<TRIPOS>BOND
1 1 2 1
2 2 3 1
3 3 4 1
@<TRIPOS>MOLECULE
PHE546
11 11
SMALL
USER_CHARGES


@<TRIPOS>ATOM
1 N 48.8650016784668 34.4090003967285 20.5480003356934 N 0.0 **** 0.0
2 CA 47.8790016174316 33.3790016174316 20.8129997253418 C 0.0 **** 0.0
3 C 46.923999786377 33.3230018615723 19.6319999694824 C 0.0 **** 0.0
4 O 46.1809997558594 34.2820014953613 19.3899993896484 O 0.0 **** 0.0
5 CB 47.0820007324219 33.6749992370605 22.0990009307861 C 0.0 **** 0.0
6 CG 47.9160003662109 33.7150001525879 23.3509998321533 C 0.0 **** 0.0
7 CD1 48.6749992370605 34.8190002441406 23.6539993286133 C 0.0 **** 0.0
8 CD2 47.9249992370605 32.6399993896484 24.2189998626709 C 0.0 **** 0.0
9 CE1 49.4309997558594 34.8689994812012 24.8299999237061 C 0.0 **** 0.0
10 CE2 48.6879997253418 32.6730003356934 25.382999420166 C 0.0 **** 0.0
11 CZ 49.431999206543 33.7929992675781 25.6849994659424 C 0.0 **** 0.0
@<TRIPOS>BOND
1 1 2 1
2 2 3 1
3 2 5 1
4 3 4 1
5 5 6 1
6 6 7 1
7 6 8 1
8 7 9 1
9 8 10 1
10 9 11 1
11 10 11 1
@<TRIPOS>MOLECULE
VAL547
7 6
SMALL
USER_CHARGES


@<TRIPOS>ATOM
1 N 46.9179992675781 32.189998626709 18.9290008544922 N 0.0 **** 0.0
2 CA 46.0369987487793 32.0260009765625 17.7810001373291 C 0.0 **** 0.0
3 C 44.5950012207031 32.132999420166 18.2329998016357 C 0.0 **** 0.0
4 O 44.2220001220703 31.6060009002686 19.2910003662109 O 0.0 **** 0.0
5 CB 46.2939987182617 30.6749992370605 17.0970001220703 C 0.0 **** 0.0
6 CG1 45.306999206543 30.4909992218018 15.9320001602173 C 0.0 **** 0.0
7 CG2 47.7700004577637 30.5709991455078 16.6200008392334 C 0.0 **** 0.0
@<TRIPOS>BOND
1 1 2 1
2 2 3 1
3 2 5 1
4 3 4 1
5 5 7 1
6 5 6 1
@<TRIPOS>MOLECULE
TRP548
14 15
SMALL
USER_CHARGES


@<TRIPOS>ATOM
1 N 43.7939987182617 32.7770004272461 17.4009990692139 N 0.0 **** 0.0
2 CA 42.3269996643066 32.7589988708496 17.5580005645752 C 0.0 **** 0.0
3 C 41.7949981689453 31.7520008087158 16.5429992675781 C 0.0 **** 0.0
4 O 41.8810005187988 32.0410003662109 15.3859996795654 O 0.0 **** 0.0
5 CB 41.6469993591309 34.1150016784668 17.3689994812012 C 0.0 **** 0.0
6 CG 40.2249984741211 33.9459991455078 17.7679996490479 C 0.0 **** 0.0
7 CD1 39.1959991455078 33.5130004882813 16.9950008392334 C 0.0 **** 0.0
8 CD2 39.7309989929199 33.9809989929199 19.1049995422363 C 0.0 **** 0.0
9 NE1 38.0820007324219 33.326000213623 17.7490005493164 N 0.0 **** 0.0
10 CE2 38.375 33.625 19.0450000762939 C 0.0 **** 0.0
11 CE3 40.2939987182617 34.2929992675781 20.3390007019043 C 0.0 **** 0.0
12 CZ2 37.5789985656738 33.5940017700195 20.1770000457764 C 0.0 **** 0.0
13 CZ3 39.5029983520508 34.2519989013672 21.4559993743896 C 0.0 **** 0.0
14 CH2 38.1640014648438 33.9010009765625 21.3740005493164 C 0.0 **** 0.0
@<TRIPOS>BOND
1 1 2 1
2 2 5 1
3 2 3 1
4 3 4 1
5 5 6 1
6 6 7 1
7 6 8 1
8 7 9 1
9 8 10 1
10 8 11 1
11 9 10 1
12 10 12 1
13 11 13 1
14 12 14 1
15 13 14 1
@<TRIPOS>MOLECULE
GLU549
9 8
SMALL
USER_CHARGES


@<TRIPOS>ATOM
1 N 41.2700004577637 30.6200008392334 16.9890003204346 N 0.0 **** 0.0
2 CA 41.2729988098145 30.113000869751 18.3600006103516 C 0.0 **** 0.0
3 C 41.5169982910156 28.6149997711182 18.326000213623 C 0.0 **** 0.0
4 O 41.5410003662109 28.0060005187988 17.2719993591309 O 0.0 **** 0.0
5 CB 39.9500007629395 30.3640003204346 19.0809993743896 C 0.0 **** 0.0
6 CG 38.742000579834 29.6660003662109 18.4150009155273 C 0.0 **** 0.0
7 CD 37.4280014038086 29.9260005950928 19.1620006561279 C 0.0 **** 0.0
8 OE1 37.4029998779297 29.6620006561279 20.367000579834 O 0.0 **** 0.0
9 OE2 36.4160003662109 30.3530006408691 18.5610008239746 O 0.0 **** 0.0
@<TRIPOS>BOND
1 1 2 1
2 2 5 1
3 2 3 1
4 3 4 1
5 5 6 1
6 6 7 1
7 7 8 1
8 7 9 1
@<TRIPOS>MOLECULE
TRP550
14 15
SMALL
USER_CHARGES


@<TRIPOS>ATOM
1 N 41.6800003051758 28.0270004272461 19.5109996795654 N 0.0 **** 0.0
2 CA 41.9099998474121 26.5790004730225 19.5830001831055 C 0.0 **** 0.0
3 C 40.7960014343262 25.7910003662109 18.9099998474121 C 0.0 **** 0.0
4 O 41.060001373291 24.9640007019043 18.0149993896484 O 0.0 **** 0.0
5 CB 42.0820007324219 26.1650009155273 21.0429992675781 C 0.0 **** 0.0
6 CG 42.1059989929199 24.6830005645752 21.2900009155273 C 0.0 **** 0.0
7 CD1 41.2190017700195 23.9599990844727 22.0520000457764 C 0.0 **** 0.0
8 CD2 43.0750007629395 23.75 20.8139991760254 C 0.0 **** 0.0
9 NE1 41.5880012512207 22.6310005187988 22.0739994049072 N 0.0 **** 0.0
10 CE2 42.7089996337891 22.4769992828369 21.30299949646 C 0.0 **** 0.0
11 CE3 44.2019996643066 23.8560009002686 19.9909992218018 C 0.0 **** 0.0
12 CZ2 43.443000793457 21.3379993438721 21.0270004272461 C 0.0 **** 0.0
13 CZ3 44.923999786377 22.7210006713867 19.7019996643066 C 0.0 **** 0.0
14 CH2 44.5419998168945 21.4750003814697 20.2220001220703 C 0.0 **** 0.0
@<TRIPOS>BOND
1 1 2 1
2 2 5 1
3 2 3 1
4 3 4 1
5 5 6 1
6 6 8 1
7 6 7 1
8 7 9 1
9 8 11 1
10 8 10 1
11 9 10 1
12 10 12 1
13 11 13 1
14 12 14 1
15 13 14 1
@<TRIPOS>MOLECULE
LEU551
8 7
SMALL
USER_CHARGES


@<TRIPOS>ATOM
1 N 39.5460014343262 26.0049991607666 19.3120002746582 N 0.0 **** 0.0
2 CA 38.4990005493164 25.1240005493164 18.8229999542236 C 0.0 **** 0.0
3 C 37.3689994812012 25.8430004119873 18.0979995727539 C 0.0 **** 0.0
4 O 37.0379981994629 26.9979991912842 18.3729991912842 O 0.0 **** 0.0
5 CB 37.9049987792969 24.2639999389648 19.9370002746582 C 0.0 **** 0.0
6 CG 37.5789985656738 24.8799991607666 21.2900009155273 C 0.0 **** 0.0
7 CD1 36.3800010681152 25.8209991455078 21.1700000762939 C 0.0 **** 0.0
8 CD2 37.2719993591309 23.7749996185303 22.2709999084473 C 0.0 **** 0.0
@<TRIPOS>BOND
1 1 2 1
2 2 3 1
3 2 5 1
4 3 4 1
5 5 6 1
6 6 7 1
7 6 8 1
@<TRIPOS>MOLECULE
GLU552
9 8
SMALL
USER_CHARGES


@<TRIPOS>ATOM
1 N 36.8120002746582 25.1140003204346 17.1299991607666 N 0.0 **** 0.0
2 CA 35.5379981994629 25.4629993438721 16.5259990692139 C 0.0 **** 0.0
3 C 34.4339981079102 25.1079998016357 17.5060005187988 C 0.0 **** 0.0
4 O 34.4329986572266 24.0160007476807 18.0729999542236 O 0.0 **** 0.0
5 CB 35.3320007324219 24.6630001068115 15.2390003204346 C 0.0 **** 0.0
6 CG 36.3089981079102 24.9249992370605 14.0989999771118 C 0.0 **** 0.0
7 CD 36.0410003662109 24.0450000762939 12.8830003738403 C 0.0 **** 0.0
8 OE1 35.2089996337891 23.1040000915527 12.9919996261597 O 0.0 **** 0.0
9 OE2 36.6559982299805 24.2980003356934 11.8179998397827 O 0.0 **** 0.0
@<TRIPOS>BOND
1 1 2 1
2 2 5 1
3 2 3 1
4 3 4 1
5 5 6 1
6 6 7 1
7 7 8 1
8 7 9 1
@<TRIPOS>MOLECULE
HIS553
10 10
SMALL
USER_CHARGES


@<TRIPOS>ATOM
1 N 33.4700012207031 26.0069999694824 17.6870002746582 N 0.0 **** 0.0
2 CA 32.3310012817383 25.6949996948242 18.556999206543 C 0.0 **** 0.0
3 C 31.1879997253418 25.0429992675781 17.7889995574951 C 0.0 **** 0.0
4 O 30.0249996185303 25.4050006866455 17.9799995422363 O 0.0 **** 0.0
5 CB 31.8090000152588 26.9449996948242 19.2660007476807 C 0.0 **** 0.0
6 CG 32.8370018005371 27.7549991607666 20.0009994506836 C 0.0 **** 0.0
7 ND1 32.5550003051758 28.367000579834 21.2049999237061 N 0.0 **** 0.0
8 CD2 34.1160011291504 28.1000003814697 19.6940002441406 C 0.0 **** 0.0
9 CE1 33.617000579834 29.0470008850098 21.6110000610352 C 0.0 **** 0.0
10 NE2 34.5810012817383 28.8980007171631 20.7169990539551 N 0.0 **** 0.0
@<TRIPOS>BOND
1 1 2 1
2 2 3 1
3 2 5 1
4 3 4 1
5 5 6 1
6 6 7 1
7 6 8 1
8 7 9 1
9 8 10 1
10 9 10 1
@<TRIPOS>MOLECULE
GLY554
4 3
SMALL
USER_CHARGES


@<TRIPOS>ATOM
1 N 31.4540004730225 24.0930004119873 16.8990001678467 N 0.0 **** 0.0
2 CA 30.367000579834 23.3959999084473 16.253999710083 C 0.0 **** 0.0
3 C 29.5 22.6679992675781 17.257999420166 C 0.0 **** 0.0
4 O 29.9720001220703 22.2040004730225 18.3050003051758 O 0.0 **** 0.0
@<TRIPOS>BOND
1 1 2 1
2 2 3 1
3 3 4 1
@<TRIPOS>MOLECULE
ILE555
8 7
SMALL
USER_CHARGES


@<TRIPOS>ATOM
1 N 28.2150001525879 22.5559997558594 16.9230003356934 N 0.0 **** 0.0
2 CA 27.2600002288818 21.8010005950928 17.7220001220703 C 0.0 **** 0.0
3 C 26.7269992828369 20.6730003356934 16.8640003204346 C 0.0 **** 0.0
4 O 26.1520004272461 20.9150009155273 15.8009996414185 O 0.0 **** 0.0
5 CB 26.1259994506836 22.6860008239746 18.2530002593994 C 0.0 **** 0.0
6 CG1 26.7019996643066 23.617000579834 19.3369998931885 C 0.0 **** 0.0
7 CG2 24.9930000305176 21.8020000457764 18.826000213623 C 0.0 **** 0.0
8 CD1 25.6870002746582 24.5370006561279 20.0389995574951 C 0.0 **** 0.0
@<TRIPOS>BOND
1 1 2 1
2 2 5 1
3 2 3 1
4 3 4 1
5 5 7 1
6 5 6 1
7 6 8 1
@<TRIPOS>MOLECULE
THR556
7 6
SMALL
USER_CHARGES


@<TRIPOS>ATOM
1 N 26.9020004272461 19.4389991760254 17.3379993438721 N 0.0 **** 0.0
2 CA 26.4689998626709 18.2830009460449 16.5790004730225 C 0.0 **** 0.0
3 C 24.9629993438721 18.326000213623 16.3430004119873 C 0.0 **** 0.0
4 O 24.1770000457764 18.4629993438721 17.2880001068115 O 0.0 **** 0.0
5 CB 26.8120002746582 16.992000579834 17.3169994354248 C 0.0 **** 0.0
6 OG1 28.2059993743896 16.9409999847412 17.6159992218018 O 0.0 **** 0.0
7 CG2 26.443000793457 15.8000001907349 16.4680004119873 C 0.0 **** 0.0
@<TRIPOS>BOND
1 1 2 1
2 2 3 1
3 2 5 1
4 3 4 1
5 5 6 1
6 5 7 1
@<TRIPOS>MOLECULE
VAL557
7 6
SMALL
USER_CHARGES


@<TRIPOS>ATOM
1 N 24.5860004425049 18.1299991607666 15.0869998931885 N 0.0 **** 0.0
2 CA 23.1639995574951 18.0629997253418 14.6579999923706 C 0.0 **** 0.0
3 C 22.9680004119873 16.8199996948242 13.7869997024536 C 0.0 **** 0.0
4 O 23.9270000457764 16.3150005340576 13.253999710083 O 0.0 **** 0.0
5 CB 22.6889991760254 19.3419990539551 13.9479999542236 C 0.0 **** 0.0
6 CG1 22.6809997558594 20.5310001373291 14.878999710083 C 0.0 **** 0.0
7 CG2 23.5 19.6509990692139 12.7170000076294 C 0.0 **** 0.0
@<TRIPOS>BOND
1 1 2 1
2 2 5 1
3 2 3 1
4 3 4 1
5 5 7 1
6 5 6 1
@<TRIPOS>MOLECULE
SER558
6 5
SMALL
USER_CHARGES


@<TRIPOS>ATOM
1 N 21.7220001220703 16.4009990692139 13.6230001449585 N 0.0 **** 0.0
2 CA 21.3689994812012 15.2019996643066 12.8199996948242 C 0.0 **** 0.0
3 C 20.5310001373291 15.5880002975464 11.5959997177124 C 0.0 **** 0.0
4 O 19.6189994812012 16.3990001678467 11.7239999771118 O 0.0 **** 0.0
5 CB 20.6200008392334 14.2279996871948 13.6660003662109 C 0.0 **** 0.0
6 OG 21.3689994812012 13.918999671936 14.826000213623 O 0.0 **** 0.0
@<TRIPOS>BOND
1 1 2 1
2 2 5 1
3 2 3 1
4 3 4 1
5 5 6 1
@<TRIPOS>MOLECULE
THR559
7 6
SMALL
USER_CHARGES


@<TRIPOS>ATOM
1 N 20.8400001525879 14.9809999465942 10.4549999237061 N 0.0 **** 0.0
2 CA 20.0259990692139 15.1719999313354 9.22500038146973 C 0.0 **** 0.0
3 C 18.9270000457764 14.0830001831055 9.22200012207031 C 0.0 **** 0.0
4 O 18.7959995269775 13.3599996566772 10.2379999160767 O 0.0 **** 0.0
5 CB 20.9580001831055 15.4630002975464 8.03699970245361 C 0.0 **** 0.0
6 OG1 20.5650005340576 16.6240005493164 7.30200004577637 O 0.0 **** 0.0
7 CG2 21.2180004119873 14.2889995574951 7.12400007247925 C 0.0 **** 0.0
@<TRIPOS>BOND
1 1 2 1
2 2 5 1
3 2 3 1
4 3 4 1
5 5 6 1
6 5 7 1
@<TRIPOS>MOLECULE
ALA560
5 4
SMALL
USER_CHARGES


@<TRIPOS>ATOM
1 N 18.2259998321533 13.9399995803833 8.08899974822998 N 0.0 **** 0.0
2 CA 17.0890007019043 13.0030002593994 7.8899998664856 C 0.0 **** 0.0
3 C 17.4930000305176 11.5290002822876 8.03600025177002 C 0.0 **** 0.0
4 O 16.7770004272461 10.8050003051758 8.73700046539307 O 0.0 **** 0.0
5 CB 16.4500007629395 13.2629995346069 6.55600023269653 C 0.0 **** 0.0
@<TRIPOS>BOND
1 1 2 1
2 2 3 1
3 2 5 1
4 3 4 1
@<TRIPOS>MOLECULE
ASP561
8 7
SMALL
USER_CHARGES


@<TRIPOS>ATOM
1 N 18.6180000305176 11.1090002059937 7.44500017166138 N 0.0 **** 0.0
2 CA 19.0319995880127 9.68099975585938 7.53499984741211 C 0.0 **** 0.0
3 C 19.9039993286133 9.48799991607666 8.77299976348877 C 0.0 **** 0.0
4 O 20.4909992218018 8.40900039672852 8.92199993133545 O 0.0 **** 0.0
5 CB 19.6900005340576 9.12800025939941 6.26599979400635 C 0.0 **** 0.0
6 CG 19.5289993286133 7.61399984359741 6.11100006103516 C 0.0 **** 0.0
7 OD1 18.9309997558594 6.98099994659424 7.01100015640259 O 0.0 **** 0.0
8 OD2 19.9790000915527 7.06899976730347 5.08699989318848 O 0.0 **** 0.0
@<TRIPOS>BOND
1 1 2 1
2 2 3 1
3 2 5 1
4 3 4 1
5 5 6 1
6 6 8 1
7 6 7 1
@<TRIPOS>MOLECULE
GLY562
4 3
SMALL
USER_CHARGES


@<TRIPOS>ATOM
1 N 19.8859996795654 10.456000328064 9.68599987030029 N 0.0 **** 0.0
2 CA 20.7369995117188 10.3190002441406 10.8780002593994 C 0.0 **** 0.0
3 C 22.1900005340576 10.5579996109009 10.5249996185303 C 0.0 **** 0.0
4 O 23.0559997558594 9.89799976348877 11.1099996566772 O 0.0 **** 0.0
@<TRIPOS>BOND
1 1 2 1
2 2 3 1
3 3 4 1
@<TRIPOS>MOLECULE
VAL563
7 6
SMALL
USER_CHARGES


@<TRIPOS>ATOM
1 N 22.4309997558594 11.3330001831055 9.47000026702881 N 0.0 **** 0.0
2 CA 23.8269996643066 11.7489995956421 9.1569995880127 C 0.0 **** 0.0
3 C 24.17799949646 12.8039999008179 10.2119998931885 C 0.0 **** 0.0
4 O 23.3020000457764 13.5959997177124 10.5450000762939 O 0.0 **** 0.0
5 CB 23.9300003051758 12.3459997177124 7.74599981307983 C 0.0 **** 0.0
6 CG1 25.375 12.3610000610352 7.28700017929077 C 0.0 **** 0.0
7 CG2 23.0450000762939 11.6029996871948 6.75799989700317 C 0.0 **** 0.0
@<TRIPOS>BOND
1 1 2 1
2 2 5 1
3 2 3 1
4 3 4 1
5 5 6 1
6 5 7 1
@<TRIPOS>MOLECULE
ASP564
8 7
SMALL
USER_CHARGES


@<TRIPOS>ATOM
1 N 25.4160003662109 12.8339996337891 10.6829996109009 N 0.0 **** 0.0
2 CA 25.7959995269775 13.8159999847412 11.7250003814697 C 0.0 **** 0.0
3 C 26.6709995269775 14.9020004272461 11.1009998321533 C 0.0 **** 0.0
4 O 27.5240001678467 14.5640001296997 10.2950000762939 O 0.0 **** 0.0
5 CB 26.556999206543 13.1180000305176 12.8459997177124 C 0.0 **** 0.0
6 CG 25.6730003356934 12.5459995269775 13.9289999008179 C 0.0 **** 0.0
7 OD1 24.4559993743896 12.5920000076294 13.7749996185303 O 0.0 **** 0.0
8 OD2 26.2240009307861 12.1029996871948 14.923999786377 O 0.0 **** 0.0
@<TRIPOS>BOND
1 1 2 1
2 2 3 1
3 2 5 1
4 3 4 1
5 5 6 1
6 6 7 1
7 6 8 1
@<TRIPOS>MOLECULE
HIS565
10 10
SMALL
USER_CHARGES


@<TRIPOS>ATOM
1 N 26.4400005340576 16.1580009460449 11.4709997177124 N 0.0 **** 0.0
2 CA 27.2670001983643 17.2530002593994 10.9989995956421 C 0.0 **** 0.0
3 C 27.2220001220703 18.3419990539551 12.0590000152588 C 0.0 **** 0.0
4 O 26.3969993591309 18.298999786377 12.9750003814697 O 0.0 **** 0.0
5 CB 26.7800006866455 17.7660007476807 9.63500022888184 C 0.0 **** 0.0
6 CG 25.4370002746582 18.4309997558594 9.67899990081787 C 0.0 **** 0.0
7 ND1 25.2889995574951 19.8040008544922 9.74600028991699 N 0.0 **** 0.0
8 CD2 24.1849994659424 17.9150009155273 9.68200016021729 C 0.0 **** 0.0
9 CE1 23.9990005493164 20.1009998321533 9.77400016784668 C 0.0 **** 0.0
10 NE2 23.3110008239746 18.9729995727539 9.73799991607666 N 0.0 **** 0.0
@<TRIPOS>BOND
1 1 2 1
2 2 5 1
3 2 3 1
4 3 4 1
5 5 6 1
6 6 8 1
7 6 7 1
8 7 9 1
9 8 10 1
10 9 10 1
@<TRIPOS>MOLECULE
TYR566
12 12
SMALL
USER_CHARGES


@<TRIPOS>ATOM
1 N 28.1319999694824 19.2999992370605 11.9589996337891 N 0.0 **** 0.0
2 CA 28.1399993896484 20.3999996185303 12.9119997024536 C 0.0 **** 0.0
3 C 27.2229995727539 21.5189990997314 12.4259996414185 C 0.0 **** 0.0
4 O 27.2059993743896 21.8479995727539 11.2399997711182 O 0.0 **** 0.0
5 CB 29.5590000152588 20.9400005340576 13.1230001449585 C 0.0 **** 0.0
6 CG 30.5139999389648 19.9540004730225 13.7449998855591 C 0.0 **** 0.0
7 CD1 30.3010005950928 19.4790000915527 15.0369997024536 C 0.0 **** 0.0
8 CD2 31.6459999084473 19.5209999084473 13.0609998703003 C 0.0 **** 0.0
9 CE1 31.1949996948242 18.5869998931885 15.6280002593994 C 0.0 **** 0.0
10 CE2 32.5470008850098 18.6299991607666 13.6400003433228 C 0.0 **** 0.0
11 CZ 32.3129997253418 18.1679992675781 14.914999961853 C 0.0 **** 0.0
12 OH 33.2000007629395 17.2929992675781 15.4820003509521 O 0.0 **** 0.0
@<TRIPOS>BOND
1 1 2 1
2 2 3 1
3 2 5 1
4 3 4 1
5 5 6 1
6 6 8 1
7 6 7 1
8 7 9 1
9 8 10 1
10 9 11 1
11 10 11 1
12 11 12 1
@<TRIPOS>MOLECULE
GLY567
4 3
SMALL
USER_CHARGES


@<TRIPOS>ATOM
1 N 26.4610004425049 22.0970001220703 13.3540000915527 N 0.0 **** 0.0
2 CA 25.7250003814697 23.3129997253418 13.1029996871948 C 0.0 **** 0.0
3 C 26.4360008239746 24.5370006561279 13.6590003967285 C 0.0 **** 0.0
4 O 27.3449993133545 24.4290008544922 14.4849996566772 O 0.0 **** 0.0
@<TRIPOS>BOND
1 1 2 1
2 2 3 1
3 3 4 1
@<TRIPOS>MOLECULE
TYR568
12 12
SMALL
USER_CHARGES


@<TRIPOS>ATOM
1 N 26.0090007781982 25.7129993438721 13.201000213623 N 0.0 **** 0.0
2 CA 26.5860004425049 26.9729995727539 13.6599998474121 C 0.0 **** 0.0
3 C 25.4659996032715 28.0130004882813 13.7729997634888 C 0.0 **** 0.0
4 O 24.2770004272461 27.6860008239746 13.7819995880127 O 0.0 **** 0.0
5 CB 27.7390003204346 27.3969993591309 12.7279996871948 C 0.0 **** 0.0
6 CG 27.4120006561279 27.3390007019043 11.2279996871948 C 0.0 **** 0.0
7 CD1 26.5219993591309 28.2280006408691 10.664999961853 C 0.0 **** 0.0
8 CD2 28.0249996185303 26.4150009155273 10.3950004577637 C 0.0 **** 0.0
9 CE1 26.2250003814697 28.19700050354 9.29800033569336 C 0.0 **** 0.0
10 CE2 27.7399997711182 26.3659992218018 9.01000022888184 C 0.0 **** 0.0
11 CZ 26.8439998626709 27.2600002288818 8.47599983215332 C 0.0 **** 0.0
12 OH 26.5650005340576 27.2140007019043 7.09800004959106 O 0.0 **** 0.0
@<TRIPOS>BOND
1 1 2 1
2 2 5 1
3 2 3 1
4 3 4 1
5 5 6 1
6 6 7 1
7 6 8 1
8 7 9 1
9 8 10 1
10 9 11 1
11 10 11 1
12 11 12 1
@<TRIPOS>MOLECULE
GLY569
4 3
SMALL
USER_CHARGES


@<TRIPOS>ATOM
1 N 25.8500003814697 29.2810001373291 13.878999710083 N 0.0 **** 0.0
2 CA 24.8929996490479 30.3570003509521 14.0629997253418 C 0.0 **** 0.0
3 C 23.7880001068115 30.3519992828369 13.0290002822876 C 0.0 **** 0.0
4 O 24.0629997253418 30.2369995117188 11.8330001831055 O 0.0 **** 0.0
@<TRIPOS>BOND
1 1 2 1
2 2 3 1
3 3 4 1
@<TRIPOS>MOLECULE
GLY570
4 3
SMALL
USER_CHARGES


@<TRIPOS>ATOM
1 N 22.5370006561279 30.4680004119873 13.4770002365112 N 0.0 **** 0.0
2 CA 21.3920001983643 30.4500007629395 12.5930004119873 C 0.0 **** 0.0
3 C 20.7959995269775 29.076000213623 12.3610000610352 C 0.0 **** 0.0
4 O 19.6450004577637 28.9810009002686 11.9289999008179 O 0.0 **** 0.0
@<TRIPOS>BOND
1 1 2 1
2 2 3 1
3 3 4 1
@<TRIPOS>MOLECULE
ASP571
8 7
SMALL
USER_CHARGES


@<TRIPOS>ATOM
1 N 21.5429992675781 28.0130004882813 12.6339998245239 N 0.0 **** 0.0
2 CA 21.0319995880127 26.6499996185303 12.4949998855591 C 0.0 **** 0.0
3 C 20.0639991760254 26.257999420166 13.6040000915527 C 0.0 **** 0.0
4 O 19.5109996795654 25.1520004272461 13.5649995803833 O 0.0 **** 0.0
5 CB 22.2019996643066 25.6620006561279 12.4530000686646 C 0.0 **** 0.0
6 CG 22.9990005493164 25.7779998779297 11.1639995574951 C 0.0 **** 0.0
7 OD1 22.4109992980957 26.2360000610352 10.1750001907349 O 0.0 **** 0.0
8 OD2 24.193000793457 25.4169998168945 11.1330003738403 O 0.0 **** 0.0
@<TRIPOS>BOND
1 1 2 1
2 2 3 1
3 2 5 1
4 3 4 1
5 5 6 1
6 6 7 1
7 6 8 1
@<TRIPOS>MOLECULE
PHE572
11 11
SMALL
USER_CHARGES


@<TRIPOS>ATOM
1 N 19.8309993743896 27.136999130249 14.5749998092651 N 0.0 **** 0.0
2 CA 18.9729995727539 26.8339996337891 15.7110004425049 C 0.0 **** 0.0
3 C 17.8519992828369 27.8519992828369 15.8459997177124 C 0.0 **** 0.0
4 O 17.3290004730225 28.0739994049072 16.9360008239746 O 0.0 **** 0.0
5 CB 19.8159999847412 26.7490005493164 16.9890003204346 C 0.0 **** 0.0
6 CG 20.8719997406006 25.7040004730225 16.9020004272461 C 0.0 **** 0.0
7 CD1 20.5750007629395 24.3859996795654 17.1900005340576 C 0.0 **** 0.0
8 CD2 22.1420001983643 26.0289993286133 16.4340000152588 C 0.0 **** 0.0
9 CE1 21.5400009155273 23.4090003967285 17.0690002441406 C 0.0 **** 0.0
10 CE2 23.1280002593994 25.056999206543 16.298999786377 C 0.0 **** 0.0
11 CZ 22.8379993438721 23.7469997406006 16.6140003204346 C 0.0 **** 0.0
@<TRIPOS>BOND
1 1 2 1
2 2 3 1
3 2 5 1
4 3 4 1
5 5 6 1
6 6 7 1
7 6 8 1
8 7 9 1
9 8 10 1
10 9 11 1
11 10 11 1
@<TRIPOS>MOLECULE
GLY573
4 3
SMALL
USER_CHARGES


@<TRIPOS>ATOM
1 N 17.4689998626709 28.4669990539551 14.7320003509521 N 0.0 **** 0.0
2 CA 16.3129997253418 29.3269996643066 14.7290000915527 C 0.0 **** 0.0
3 C 16.5450000762939 30.7189998626709 15.2559995651245 C 0.0 **** 0.0
4 O 15.5780000686646 31.4659996032715 15.4099998474121 O 0.0 **** 0.0
@<TRIPOS>BOND
1 1 2 1
2 2 3 1
3 3 4 1
@<TRIPOS>MOLECULE
GLU574
9 8
SMALL
USER_CHARGES


@<TRIPOS>ATOM
1 N 17.7900009155273 31.1180000305176 15.4910001754761 N 0.0 **** 0.0
2 CA 18.0330009460449 32.4389991760254 16.048999786377 C 0.0 **** 0.0
3 C 17.4820003509521 33.5180015563965 15.1350002288818 C 0.0 **** 0.0
4 O 17.6399993896484 33.4609985351563 13.9119997024536 O 0.0 **** 0.0
5 CB 19.5219993591309 32.6889991760254 16.2530002593994 C 0.0 **** 0.0
6 CG 20.1879997253418 31.6520004272461 17.1159992218018 C 0.0 **** 0.0
7 CD 20.8819999694824 30.6159992218018 16.2810001373291 C 0.0 **** 0.0
8 OE1 20.1949996948242 29.9969997406006 15.4350004196167 O 0.0 **** 0.0
9 OE2 22.1070003509521 30.443000793457 16.4529991149902 O 0.0 **** 0.0
@<TRIPOS>BOND
1 1 2 1
2 2 5 1
3 2 3 1
4 3 4 1
5 5 6 1
6 6 7 1
7 7 8 1
8 7 9 1
@<TRIPOS>MOLECULE
GLU575
9 8
SMALL
USER_CHARGES


@<TRIPOS>ATOM
1 N 16.8649997711182 34.5229988098145 15.7620000839233 N 0.0 **** 0.0
2 CA 16.4689998626709 35.7540016174316 15.0860004425049 C 0.0 **** 0.0
3 C 17.67799949646 36.6080017089844 14.701000213623 C 0.0 **** 0.0
4 O 17.6700000762939 37.2639999389648 13.6529998779297 O 0.0 **** 0.0
5 CB 15.5450000762939 36.5550003051758 16.003999710083 C 0.0 **** 0.0
6 CG 15.3219995498657 38.0120010375977 15.6129999160767 C 0.0 **** 0.0
7 CD 14.7729997634888 38.8300018310547 16.7819995880127 C 0.0 **** 0.0
8 OE1 15.5670003890991 39.4329986572266 17.5879993438721 O 0.0 **** 0.0
9 OE2 13.5319995880127 38.8240013122559 16.8990001678467 O 0.0 **** 0.0
@<TRIPOS>BOND
1 1 2 1
2 2 5 1
3 2 3 1
4 3 4 1
5 5 6 1
6 6 7 1
7 7 8 1
8 7 9 1
@<TRIPOS>MOLECULE
VAL576
7 6
SMALL
USER_CHARGES


@<TRIPOS>ATOM
1 N 18.6790008544922 36.7000007629395 15.5749998092651 N 0.0 **** 0.0
2 CA 19.9330005645752 37.3699989318848 15.2419996261597 C 0.0 **** 0.0
3 C 21.0709991455078 36.435001373291 15.6059999465942 C 0.0 **** 0.0
4 O 21.0629997253418 35.7840003967285 16.6580009460449 O 0.0 **** 0.0
5 CB 20.1000003814697 38.7490005493164 15.9250001907349 C 0.0 **** 0.0
6 CG1 18.8560009002686 39.6209983825684 15.6929998397827 C 0.0 **** 0.0
7 CG2 20.3560009002686 38.6189994812012 17.3549995422363 C 0.0 **** 0.0
@<TRIPOS>BOND
1 1 2 1
2 2 3 1
3 2 5 1
4 3 4 1
5 5 6 1
6 5 7 1
@<TRIPOS>MOLECULE
HIS577
10 10
SMALL
USER_CHARGES


@<TRIPOS>ATOM
1 N 22.0450000762939 36.3629989624023 14.7189998626709 N 0.0 **** 0.0
2 CA 23.136999130249 35.4249992370605 14.8809995651245 C 0.0 **** 0.0
3 C 24.2679996490479 35.8650016784668 13.9689998626709 C 0.0 **** 0.0
4 O 24.1149997711182 36.773998260498 13.1440000534058 O 0.0 **** 0.0
5 CB 22.6879997253418 34.0120010375977 14.53600025177 C 0.0 **** 0.0
6 CG 22.2870006561279 33.8569984436035 13.0950002670288 C 0.0 **** 0.0
7 ND1 23.2029991149902 33.6209983825684 12.0920000076294 N 0.0 **** 0.0
8 CD2 21.0750007629395 33.9570007324219 12.4860000610352 C 0.0 **** 0.0
9 CE1 22.57200050354 33.5499992370605 10.9320001602173 C 0.0 **** 0.0
10 NE2 21.2830009460449 33.765998840332 11.1400003433228 N 0.0 **** 0.0
@<TRIPOS>BOND
1 1 2 1
2 2 5 1
3 2 3 1
4 3 4 1
5 5 6 1
6 6 7 1
7 6 8 1
8 7 9 1
9 8 10 1
10 9 10 1
@<TRIPOS>MOLECULE
ASP578
8 7
SMALL
USER_CHARGES


@<TRIPOS>ATOM
1 N 25.3990001678467 35.185001373291 14.1070003509521 N 0.0 **** 0.0
2 CA 26.5590000152588 35.5089988708496 13.2969999313354 C 0.0 **** 0.0
3 C 27.0909996032715 34.2919998168945 12.5380001068115 C 0.0 **** 0.0
4 O 28.2709999084473 34.2410011291504 12.1829996109009 O 0.0 **** 0.0
5 CB 27.6229991912842 36.1650009155273 14.1719999313354 C 0.0 **** 0.0
6 CG 27.2119998931885 37.560001373291 14.5869998931885 C 0.0 **** 0.0
7 OD1 27.3880004882813 38.4659996032715 13.7390003204346 O 0.0 **** 0.0
8 OD2 26.6480007171631 37.734001159668 15.7119998931885 O 0.0 **** 0.0
@<TRIPOS>BOND
1 1 2 1
2 2 3 1
3 2 5 1
4 3 4 1
5 5 6 1
6 6 8 1
7 6 7 1
@<TRIPOS>MOLECULE
GLY579
4 3
SMALL
USER_CHARGES


@<TRIPOS>ATOM
1 N 26.2169990539551 33.3359985351563 12.2340002059937 N 0.0 **** 0.0
2 CA 26.548999786377 32.3330001831055 11.2320003509521 C 0.0 **** 0.0
3 C 27.7099990844727 31.4559993743896 11.6549997329712 C 0.0 **** 0.0
4 O 27.8159999847412 31.0330009460449 12.8149995803833 O 0.0 **** 0.0
@<TRIPOS>BOND
1 1 2 1
2 2 3 1
3 3 4 1
@<TRIPOS>MOLECULE
ASN580
8 7
SMALL
USER_CHARGES


@<TRIPOS>ATOM
1 N 28.6060009002686 31.1599998474121 10.706000328064 N 0.0 **** 0.0
2 CA 29.6679992675781 30.2089996337891 10.9879999160767 C 0.0 **** 0.0
3 C 30.9109992980957 30.8700008392334 11.6009998321533 C 0.0 **** 0.0
4 O 31.9750003814697 30.2549991607666 11.6339998245239 O 0.0 **** 0.0
5 CB 30.0149993896484 29.4139995574951 9.72299957275391 C 0.0 **** 0.0
6 CG 30.9080009460449 30.1720008850098 8.7790002822876 C 0.0 **** 0.0
7 OD1 30.7950000762939 31.3929996490479 8.6269998550415 O 0.0 **** 0.0
8 ND2 31.8279991149902 29.443000793457 8.14900016784668 N 0.0 **** 0.0
@<TRIPOS>BOND
1 1 2 1
2 2 3 1
3 2 5 1
4 3 4 1
5 5 6 1
6 6 8 1
7 6 7 1
@<TRIPOS>MOLECULE
PHE581
11 11
SMALL
USER_CHARGES


@<TRIPOS>ATOM
1 N 30.7819995880127 32.0849990844727 12.1330003738403 N 0.0 **** 0.0
2 CA 31.9050006866455 32.7480010986328 12.7790002822876 C 0.0 **** 0.0
3 C 32.2910003662109 32.0719985961914 14.0830001831055 C 0.0 **** 0.0
4 O 33.382999420166 32.310001373291 14.6000003814697 O 0.0 **** 0.0
5 CB 31.5450000762939 34.2210006713867 13.0100002288818 C 0.0 **** 0.0
6 CG 32.7109985351563 35.1269989013672 12.9359998703003 C 0.0 **** 0.0
7 CD1 33.273998260498 35.4099998474121 11.7290000915527 C 0.0 **** 0.0
8 CD2 33.2849998474121 35.6479988098145 14.0989999771118 C 0.0 **** 0.0
9 CE1 34.3530006408691 36.2080001831055 11.6239995956421 C 0.0 **** 0.0
10 CE2 34.4020004272461 36.4889984130859 14.003999710083 C 0.0 **** 0.0
11 CZ 34.9370002746582 36.7509994506836 12.7600002288818 C 0.0 **** 0.0
@<TRIPOS>BOND
1 1 2 1
2 2 3 1
3 2 5 1
4 3 4 1
5 5 6 1
6 6 8 1
7 6 7 1
8 7 9 1
9 8 10 1
10 9 11 1
11 10 11 1
@<TRIPOS>MOLECULE
VAL582
7 6
SMALL
USER_CHARGES


@<TRIPOS>ATOM
1 N 31.4580001831055 31.1660003662109 14.5600004196167 N 0.0 **** 0.0
2 CA 31.7600002288818 30.3959999084473 15.7910003662109 C 0.0 **** 0.0
3 C 32.6030006408691 29.1809997558594 15.4079999923706 C 0.0 **** 0.0
4 O 33.1720008850098 28.5970001220703 16.2950000762939 O 0.0 **** 0.0
5 CB 30.4890003204346 30.0130004882813 16.5590000152588 C 0.0 **** 0.0
6 CG1 29.9220008850098 28.6959991455078 16.0830001831055 C 0.0 **** 0.0
7 CG2 30.7509994506836 29.9939994812012 18.0440006256104 C 0.0 **** 0.0
@<TRIPOS>BOND
1 1 2 1
2 2 3 1
3 2 5 1
4 3 4 1
5 5 6 1
6 5 7 1
@<TRIPOS>MOLECULE
THR583
7 6
SMALL
USER_CHARGES


@<TRIPOS>ATOM
1 N 32.6660003662109 28.8250007629395 14.1260004043579 N 0.0 **** 0.0
2 CA 33.5289993286133 27.7269992828369 13.6969995498657 C 0.0 **** 0.0
3 C 34.7879981994629 28.3320007324219 13.0640001296997 C 0.0 **** 0.0
4 O 34.9140014648438 28.4729995727539 11.8489999771118 O 0.0 **** 0.0
5 CB 32.7719993591309 26.7840003967285 12.7679996490479 C 0.0 **** 0.0
6 OG1 32.2360000610352 27.5209999084473 11.6379995346069 O 0.0 **** 0.0
7 CG2 31.6149997711182 26.1270008087158 13.5279998779297 C 0.0 **** 0.0
@<TRIPOS>BOND
1 1 2 1
2 2 3 1
3 2 5 1
4 3 4 1
5 5 7 1
6 5 6 1
@<TRIPOS>MOLECULE
ASP584
8 7
SMALL
USER_CHARGES


@<TRIPOS>ATOM
1 N 35.7400016784668 28.6860008239746 13.9300003051758 N 0.0 **** 0.0
2 CA 36.9160003662109 29.4899997711182 13.5799999237061 C 0.0 **** 0.0
3 C 38.1730003356934 28.9720001220703 14.2819995880127 C 0.0 **** 0.0
4 O 39.0099983215332 29.7549991607666 14.7419996261597 O 0.0 **** 0.0
5 CB 36.6699981689453 30.9710006713867 13.9280004501343 C 0.0 **** 0.0
6 CG 36.3959999084473 31.1940002441406 15.3950004577637 C 0.0 **** 0.0
7 OD1 36.3129997253418 30.1989994049072 16.1459999084473 O 0.0 **** 0.0
8 OD2 36.2630004882813 32.3559989929199 15.7969999313354 O 0.0 **** 0.0
@<TRIPOS>BOND
1 1 2 1
2 2 3 1
3 2 5 1
4 3 4 1
5 5 6 1
6 6 8 1
7 6 7 1
@<TRIPOS>MOLECULE
GLY585
4 3
SMALL
USER_CHARGES


@<TRIPOS>ATOM
1 N 38.3230018615723 27.6480007171631 14.3730001449585 N 0.0 **** 0.0
2 CA 39.3339996337891 27.0359992980957 15.2110004425049 C 0.0 **** 0.0
3 C 40.3580017089844 26.201000213623 14.4519996643066 C 0.0 **** 0.0
4 O 40.1910018920898 25.882999420166 13.2690000534058 O 0.0 **** 0.0
@<TRIPOS>BOND
1 1 2 1
2 2 3 1
3 3 4 1
@<TRIPOS>MOLECULE
LEU586
8 7
SMALL
USER_CHARGES


@<TRIPOS>ATOM
1 N 41.4720001220703 25.9209995269775 15.1560001373291 N 0.0 **** 0.0
2 CA 42.5359992980957 25.0130004882813 14.710000038147 C 0.0 **** 0.0
3 C 42.117000579834 23.5480003356934 14.7670001983643 C 0.0 **** 0.0
4 O 42.7099990844727 22.7169990539551 14.0590000152588 O 0.0 **** 0.0
5 CB 43.7910003662109 25.2129993438721 15.585000038147 C 0.0 **** 0.0
6 CG 44.4389991760254 26.617000579834 15.5270004272461 C 0.0 **** 0.0
7 CD1 45.4550018310547 26.8020000457764 16.621000289917 C 0.0 **** 0.0
8 CD2 45.0769996643066 26.7329998016357 14.1350002288818 C 0.0 **** 0.0
@<TRIPOS>BOND
1 1 2 1
2 2 5 1
3 2 3 1
4 3 4 1
5 5 6 1
6 6 7 1
7 6 8 1
@<TRIPOS>MOLECULE
VAL587
7 6
SMALL
USER_CHARGES


@<TRIPOS>ATOM
1 N 41.117000579834 23.2110004425049 15.5819997787476 N 0.0 **** 0.0
2 CA 40.5750007629395 21.8589992523193 15.6780004501343 C 0.0 **** 0.0
3 C 39.0589981079102 21.9540004730225 15.6129999160767 C 0.0 **** 0.0
4 O 38.4700012207031 22.9759998321533 15.9549999237061 O 0.0 **** 0.0
5 CB 40.9970016479492 21.1070003509521 16.9659996032715 C 0.0 **** 0.0
6 CG1 42.5139999389648 21.1089992523193 17.1219997406006 C 0.0 **** 0.0
7 CG2 40.3839988708496 21.6889991760254 18.2280006408691 C 0.0 **** 0.0
@<TRIPOS>BOND
1 1 2 1
2 2 3 1
3 2 5 1
4 3 4 1
5 5 6 1
6 5 7 1
@<TRIPOS>MOLECULE
ASP588
8 7
SMALL
USER_CHARGES


@<TRIPOS>ATOM
1 N 38.4199981689453 20.871000289917 15.1680002212524 N 0.0 **** 0.0
2 CA 36.9690017700195 20.9150009155273 15.168999671936 C 0.0 **** 0.0
3 C 36.4900016784668 20.6830005645752 16.6000003814697 C 0.0 **** 0.0
4 O 37.2929992675781 20.55299949646 17.5340003967285 O 0.0 **** 0.0
5 CB 36.3730010986328 19.9489994049072 14.128999710083 C 0.0 **** 0.0
6 CG 36.4640007019043 18.4689998626709 14.5069999694824 C 0.0 **** 0.0
7 OD1 36.7159996032715 18.1180000305176 15.6789999008179 O 0.0 **** 0.0
8 OD2 36.2410011291504 17.6280002593994 13.5880002975464 O 0.0 **** 0.0
@<TRIPOS>BOND
1 1 2 1
2 2 3 1
3 2 5 1
4 3 4 1
5 5 6 1
6 6 7 1
7 6 8 1
@<TRIPOS>MOLECULE
ALA589
5 4
SMALL
USER_CHARGES


@<TRIPOS>ATOM
1 N 35.1710014343262 20.701000213623 16.7889995574951 N 0.0 **** 0.0
2 CA 34.6139984130859 20.6219997406006 18.1480007171631 C 0.0 **** 0.0
3 C 34.9029998779297 19.2800006866455 18.8050003051758 C 0.0 **** 0.0
4 O 34.8050003051758 19.1660003662109 20.0310001373291 O 0.0 **** 0.0
5 CB 33.1069984436035 20.8640003204346 18.1089992523193 C 0.0 **** 0.0
@<TRIPOS>BOND
1 1 2 1
2 2 3 1
3 2 5 1
4 3 4 1
@<TRIPOS>MOLECULE
ASP590
8 7
SMALL
USER_CHARGES


@<TRIPOS>ATOM
1 N 35.2150001525879 18.2609996795654 18.0170001983643 N 0.0 **** 0.0
2 CA 35.6220016479492 16.9629993438721 18.5429992675781 C 0.0 **** 0.0
3 C 37.140998840332 16.8199996948242 18.5919990539551 C 0.0 **** 0.0
4 O 37.6549987792969 15.710000038147 18.7859992980957 O 0.0 **** 0.0
5 CB 34.9700012207031 15.8559999465942 17.7250003814697 C 0.0 **** 0.0
6 CG 33.5250015258789 15.5989999771118 18.1749992370605 C 0.0 **** 0.0
7 OD1 33.3349990844727 14.9790000915527 19.2479991912842 O 0.0 **** 0.0
8 OD2 32.5890007019043 16.0909996032715 17.5259990692139 O 0.0 **** 0.0
@<TRIPOS>BOND
1 1 2 1
2 2 3 1
3 2 5 1
4 3 4 1
5 5 6 1
6 6 8 1
7 6 7 1
@<TRIPOS>MOLECULE
ARG591
11 10
SMALL
USER_CHARGES


@<TRIPOS>ATOM
1 N 37.8549995422363 17.9330005645752 18.4659996032715 N 0.0 **** 0.0
2 CA 39.3030014038086 18.0230007171631 18.6319999694824 C 0.0 **** 0.0
3 C 40.068000793457 17.3290004730225 17.5020008087158 C 0.0 **** 0.0
4 O 41.2360000610352 16.9589996337891 17.6749992370605 O 0.0 **** 0.0
5 CB 39.7529983520508 17.5009994506836 20.0160007476807 C 0.0 **** 0.0
6 CG 39.6450004577637 18.5590000152588 21.1060009002686 C 0.0 **** 0.0
7 CD 38.193000793457 18.9780006408691 21.451000213623 C 0.0 **** 0.0
8 NE 38.1339988708496 19.8360004425049 22.628999710083 N 0.0 **** 0.0
9 CZ 37.0200004577637 20.3250007629395 23.1650009155273 C 0.0 **** 0.0
10 NH1 35.8400001525879 20.0860004425049 22.6340007781982 N 0.0 **** 0.0
11 NH2 37.0830001831055 21.0690002441406 24.2430000305176 N 0.0 **** 0.0
@<TRIPOS>BOND
1 1 2 1
2 2 3 1
3 2 5 1
4 3 4 1
5 5 6 1
6 6 7 1
7 7 8 1
8 8 9 1
9 9 10 1
10 9 11 1
@<TRIPOS>MOLECULE
ARG592
11 10
SMALL
USER_CHARGES


@<TRIPOS>ATOM
1 N 39.4449996948242 17.1749992370605 16.32200050354 N 0.0 **** 0.0
2 CA 40.1710014343262 16.7140007019043 15.1370000839233 C 0.0 **** 0.0
3 C 40.943000793457 17.875 14.5010004043579 C 0.0 **** 0.0
4 O 40.3540000915527 18.92799949646 14.2349996566772 O 0.0 **** 0.0
5 CB 39.1990013122559 16.1110000610352 14.1029996871948 C 0.0 **** 0.0
6 CG 38.4889984130859 14.8800001144409 14.6379995346069 C 0.0 **** 0.0
7 CD 37.5769996643066 14.2360000610352 13.6070003509521 C 0.0 **** 0.0
8 NE 36.3240013122559 14.9729995727539 13.5459995269775 N 0.0 **** 0.0
9 CZ 35.1399993896484 14.5190000534058 13.9449996948242 C 0.0 **** 0.0
10 NH1 35.0120010375977 13.2930002212524 14.4180002212524 N 0.0 **** 0.0
11 NH2 34.0730018615723 15.298999786377 13.8470001220703 N 0.0 **** 0.0
@<TRIPOS>BOND
1 1 2 1
2 2 3 1
3 2 5 1
4 3 4 1
5 5 6 1
6 6 7 1
7 7 8 1
8 8 9 1
9 9 11 1
10 9 10 1
@<TRIPOS>MOLECULE
PRO593
7 7
SMALL
USER_CHARGES


@<TRIPOS>ATOM
1 N 42.2490005493164 17.746000289917 14.2690000534058 N 0.0 **** 0.0
2 CA 42.9799995422363 18.8409996032715 13.7309999465942 C 0.0 **** 0.0
3 C 42.5169982910156 19.3360004425049 12.3649997711182 C 0.0 **** 0.0
4 O 42.1940002441406 18.5620002746582 11.5509996414185 O 0.0 **** 0.0
5 CB 44.3860015869141 18.2649993896484 13.548999786377 C 0.0 **** 0.0
6 CG 44.4799995422363 17.201000213623 14.585000038147 C 0.0 **** 0.0
7 CD 43.0859985351563 16.628999710083 14.6450004577637 C 0.0 **** 0.0
@<TRIPOS>BOND
1 1 2 1
2 1 7 1
3 2 5 1
4 2 3 1
5 3 4 1
6 5 6 1
7 6 7 1
@<TRIPOS>MOLECULE
ARG594
11 10
SMALL
USER_CHARGES


@<TRIPOS>ATOM
1 N 42.3639984130859 20.6429996490479 12.2379999160767 N 0.0 **** 0.0
2 CA 42.2939987182617 21.2490005493164 10.923999786377 C 0.0 **** 0.0
3 C 43.6990013122559 21.3999996185303 10.3520002365112 C 0.0 **** 0.0
4 O 44.6829986572266 21.4150009155273 11.0939998626709 O 0.0 **** 0.0
5 CB 41.6220016479492 22.6140003204346 10.9860000610352 C 0.0 **** 0.0
6 CG 40.1829986572266 22.6030006408691 11.5159997940063 C 0.0 **** 0.0
7 CD 39.3089981079102 21.7369995117188 10.664999961853 C 0.0 **** 0.0
8 NE 37.8810005187988 21.9090003967285 10.9169998168945 N 0.0 **** 0.0
9 CZ 36.9749984741211 20.988000869751 10.6230001449585 C 0.0 **** 0.0
10 NH1 37.3520011901855 19.8419990539551 10.0539999008179 N 0.0 **** 0.0
11 NH2 35.7060012817383 21.2040004730225 10.9029998779297 N 0.0 **** 0.0
@<TRIPOS>BOND
1 1 2 1
2 2 3 1
3 2 5 1
4 3 4 1
5 5 6 1
6 6 7 1
7 7 8 1
8 8 9 1
9 9 10 1
10 9 11 1
@<TRIPOS>MOLECULE
PRO595
7 7
SMALL
USER_CHARGES


@<TRIPOS>ATOM
1 N 43.8170013427734 21.5189990997314 9.03400039672852 N 0.0 **** 0.0
2 CA 45.1389999389648 21.7649993896484 8.42899990081787 C 0.0 **** 0.0
3 C 45.8849983215332 22.9230003356934 9.07800006866455 C 0.0 **** 0.0
4 O 47.117000579834 22.8570003509521 9.22500038146973 O 0.0 **** 0.0
5 CB 44.7970008850098 22.0440006256104 6.95499992370605 C 0.0 **** 0.0
6 CG 43.5089988708496 21.2830009460449 6.70100021362305 C 0.0 **** 0.0
7 CD 42.75 21.3530006408691 8.03699970245361 C 0.0 **** 0.0
@<TRIPOS>BOND
1 1 7 1
2 1 2 1
3 2 3 1
4 2 5 1
5 3 4 1
6 5 6 1
7 6 7 1
@<TRIPOS>MOLECULE
GLY596
4 3
SMALL
USER_CHARGES


@<TRIPOS>ATOM
1 N 45.1640014648438 23.9750003814697 9.51799964904785 N 0.0 **** 0.0
2 CA 45.8230018615723 25.0909996032715 10.1700000762939 C 0.0 **** 0.0
3 C 46.6269989013672 24.67799949646 11.3900003433228 C 0.0 **** 0.0
4 O 47.689998626709 25.2329998016357 11.6429996490479 O 0.0 **** 0.0
@<TRIPOS>BOND
1 1 2 1
2 2 3 1
3 3 4 1
@<TRIPOS>MOLECULE
LEU597
8 7
SMALL
USER_CHARGES


@<TRIPOS>ATOM
1 N 46.1730003356934 23.6639995574951 12.1260004043579 N 0.0 **** 0.0
2 CA 46.939998626709 23.2140007019043 13.2840003967285 C 0.0 **** 0.0
3 C 48.2050018310547 22.4860000610352 12.8610000610352 C 0.0 **** 0.0
4 O 49.2540016174316 22.6469993591309 13.4799995422363 O 0.0 **** 0.0
5 CB 46.0940017700195 22.3129997253418 14.1719999313354 C 0.0 **** 0.0
6 CG 46.8279991149902 21.7590007781982 15.3999996185303 C 0.0 **** 0.0
7 CD1 47.2319984436035 22.9249992370605 16.3250007629395 C 0.0 **** 0.0
8 CD2 45.9659996032715 20.7819995880127 16.1439990997314 C 0.0 **** 0.0
@<TRIPOS>BOND
1 1 2 1
2 2 5 1
3 2 3 1
4 3 4 1
5 5 6 1
6 6 7 1
7 6 8 1
@<TRIPOS>MOLECULE
LEU598
8 7
SMALL
USER_CHARGES


@<TRIPOS>ATOM
1 N 48.1269989013672 21.693000793457 11.7980003356934 N 0.0 **** 0.0
2 CA 49.310001373291 21.0020008087158 11.3109998703003 C 0.0 **** 0.0
3 C 50.3479995727539 22.0009994506836 10.8249998092651 C 0.0 **** 0.0
4 O 51.556999206543 21.8020000457764 11.0389995574951 O 0.0 **** 0.0
5 CB 48.923999786377 20.0389995574951 10.1929998397827 C 0.0 **** 0.0
6 CG 47.7019996643066 19.1940002441406 10.5069999694824 C 0.0 **** 0.0
7 CD1 47.3800010681152 18.3290004730225 9.31599998474121 C 0.0 **** 0.0
8 CD2 47.9490013122559 18.3519992828369 11.7250003814697 C 0.0 **** 0.0
@<TRIPOS>BOND
1 1 2 1
2 2 5 1
3 2 3 1
4 3 4 1
5 5 6 1
6 6 8 1
7 6 7 1
@<TRIPOS>MOLECULE
ASP599
8 7
SMALL
USER_CHARGES


@<TRIPOS>ATOM
1 N 49.8959999084473 23.0990009307861 10.1929998397827 N 0.0 **** 0.0
2 CA 50.8330001831055 24.1450004577637 9.77499961853027 C 0.0 **** 0.0
3 C 51.3870010375977 24.9050006866455 10.9879999160767 C 0.0 **** 0.0
4 O 52.5970001220703 25.1340007781982 11.0939998626709 O 0.0 **** 0.0
5 CB 50.1689987182617 25.128999710083 8.81400012969971 C 0.0 **** 0.0
6 CG 49.8839988708496 24.5179996490479 7.43900012969971 C 0.0 **** 0.0
7 OD1 50.5069999694824 23.4850006103516 7.11800003051758 O 0.0 **** 0.0
8 OD2 49.0449981689453 25.0930004119873 6.7020001411438 O 0.0 **** 0.0
@<TRIPOS>BOND
1 1 2 1
2 2 3 1
3 2 5 1
4 3 4 1
5 5 6 1
6 6 8 1
7 6 7 1
@<TRIPOS>MOLECULE
PHE600
11 11
SMALL
USER_CHARGES


@<TRIPOS>ATOM
1 N 50.5169982910156 25.2639999389648 11.9300003051758 N 0.0 **** 0.0
2 CA 50.9459991455078 25.992000579834 13.1319999694824 C 0.0 **** 0.0
3 C 51.9900016784668 25.2119998931885 13.9219999313354 C 0.0 **** 0.0
4 O 53.0 25.7889995574951 14.3439998626709 O 0.0 **** 0.0
5 CB 49.7200012207031 26.30299949646 13.9809999465942 C 0.0 **** 0.0
6 CG 50.0069999694824 27.1310005187988 15.2150001525879 C 0.0 **** 0.0
7 CD1 50.6180000305176 28.3680000305176 15.121000289917 C 0.0 **** 0.0
8 CD2 49.5919990539551 26.7029991149902 16.4419994354248 C 0.0 **** 0.0
9 CE1 50.8370018005371 29.1469993591309 16.2339992523193 C 0.0 **** 0.0
10 CE2 49.8059997558594 27.4780006408691 17.568000793457 C 0.0 **** 0.0
11 CZ 50.4539985656738 28.6849994659424 17.4629993438721 C 0.0 **** 0.0
@<TRIPOS>BOND
1 1 2 1
2 2 3 1
3 2 5 1
4 3 4 1
5 5 6 1
6 6 8 1
7 6 7 1
8 7 9 1
9 8 10 1
10 9 11 1
11 10 11 1
@<TRIPOS>MOLECULE
LYS601
9 8
SMALL
USER_CHARGES


@<TRIPOS>ATOM
1 N 51.7900009155273 23.9020004272461 14.0939998626709 N 0.0 **** 0.0
2 CA 52.7820014953613 23.0960006713867 14.7930002212524 C 0.0 **** 0.0
3 C 54.1710014343262 23.3379993438721 14.2309999465942 C 0.0 **** 0.0
4 O 55.1570014953613 23.4540004730225 14.9829998016357 O 0.0 **** 0.0
5 CB 52.4329986572266 21.5990009307861 14.7069997787476 C 0.0 **** 0.0
6 CG 53.5369987487793 20.7059993743896 15.2670001983643 C 0.0 **** 0.0
7 CD 53.1940002441406 19.2369995117188 15.2690000534058 C 0.0 **** 0.0
8 CE 54.3269996643066 18.3999996185303 15.8970003128052 C 0.0 **** 0.0
9 NZ 54.0779991149902 16.9209995269775 15.7440004348755 N 0.0 **** 0.0
@<TRIPOS>BOND
1 1 2 1
2 2 5 1
3 2 3 1
4 3 4 1
5 5 6 1
6 6 7 1
7 7 8 1
8 8 9 1
@<TRIPOS>MOLECULE
LYS602
9 8
SMALL
USER_CHARGES


@<TRIPOS>ATOM
1 N 54.2639999389648 23.367000579834 12.9099998474121 N 0.0 **** 0.0
2 CA 55.5419998168945 23.5599994659424 12.2349996566772 C 0.0 **** 0.0
3 C 56.0540008544922 24.9839992523193 12.3999996185303 C 0.0 **** 0.0
4 O 57.242000579834 25.193000793457 12.664999961853 O 0.0 **** 0.0
5 CB 55.3959999084473 23.2059993743896 10.7480001449585 C 0.0 **** 0.0
6 CG 56.5750007629395 23.5919990539551 9.88500022888184 C 0.0 **** 0.0
7 CD 57.8300018310547 22.8409996032715 10.2810001373291 C 0.0 **** 0.0
8 CE 58.939998626709 23.132999420166 9.26000022888184 C 0.0 **** 0.0
9 NZ 60.1590003967285 22.3729991912842 9.52499961853027 N 0.0 **** 0.0
@<TRIPOS>BOND
1 1 2 1
2 2 3 1
3 2 5 1
4 3 4 1
5 5 6 1
6 6 7 1
7 7 8 1
8 8 9 1
@<TRIPOS>MOLECULE
VAL603
7 6
SMALL
USER_CHARGES


@<TRIPOS>ATOM
1 N 55.1769981384277 25.9729995727539 12.2510004043579 N 0.0 **** 0.0
2 CA 55.5820007324219 27.3700008392334 12.3839998245239 C 0.0 **** 0.0
3 C 56.2410011291504 27.617000579834 13.746000289917 C 0.0 **** 0.0
4 O 57.2610015869141 28.3209991455078 13.8500003814697 O 0.0 **** 0.0
5 CB 54.3610000610352 28.2759990692139 12.1730003356934 C 0.0 **** 0.0
6 CG1 54.6539993286133 29.757999420166 12.5659999847412 C 0.0 **** 0.0
7 CG2 53.8720016479492 28.2250003814697 10.6829996109009 C 0.0 **** 0.0
@<TRIPOS>BOND
1 1 2 1
2 2 3 1
3 2 5 1
4 3 4 1
5 5 6 1
6 5 7 1
@<TRIPOS>MOLECULE
ILE604
8 7
SMALL
USER_CHARGES


@<TRIPOS>ATOM
1 N 55.6510009765625 27.0799999237061 14.8149995803833 N 0.0 **** 0.0
2 CA 56.1599998474121 27.3269996643066 16.173999786377 C 0.0 **** 0.0
3 C 57.1020011901855 26.2199993133545 16.6560001373291 C 0.0 **** 0.0
4 O 57.3950004577637 26.1499996185303 17.8530006408691 O 0.0 **** 0.0
5 CB 55.0200004577637 27.5179996490479 17.1830005645752 C 0.0 **** 0.0
6 CG1 54.1399993896484 26.2700004577637 17.2310009002686 C 0.0 **** 0.0
7 CG2 54.2089996337891 28.7900009155273 16.8519992828369 C 0.0 **** 0.0
8 CD1 53.173999786377 26.2320003509521 18.3780002593994 C 0.0 **** 0.0
@<TRIPOS>BOND
1 1 2 1
2 2 3 1
3 2 5 1
4 3 4 1
5 5 7 1
6 5 6 1
7 6 8 1
@<TRIPOS>MOLECULE
GLU605
9 8
SMALL
USER_CHARGES


@<TRIPOS>ATOM
1 N 57.6059989929199 25.3649997711182 15.7650003433228 N 0.0 **** 0.0
2 CA 58.4459991455078 24.2600002288818 16.2479991912842 C 0.0 **** 0.0
3 C 59.6259994506836 24.8199996948242 17.0419998168945 C 0.0 **** 0.0
4 O 60.2200012207031 25.8279991149902 16.6499996185303 O 0.0 **** 0.0
5 CB 58.9420013427734 23.3589992523193 15.0830001831055 C 0.0 **** 0.0
6 CG 59.898998260498 23.992000579834 14.1020002365112 C 0.0 **** 0.0
7 CD 60.2169990539551 23.0909996032715 12.8929996490479 C 0.0 **** 0.0
8 OE1 59.8580017089844 21.875 12.8929996490479 O 0.0 **** 0.0
9 OE2 60.8170013427734 23.625 11.9370002746582 O 0.0 **** 0.0
@<TRIPOS>BOND
1 1 2 1
2 2 5 1
3 2 3 1
4 3 4 1
5 5 6 1
6 6 7 1
7 7 8 1
8 7 9 1
@<TRIPOS>MOLECULE
PRO606
7 7
SMALL
USER_CHARGES


@<TRIPOS>ATOM
1 N 59.9809989929199 24.2110004425049 18.17799949646 N 0.0 **** 0.0
2 CA 60.9669990539551 24.8239994049072 19.0809993743896 C 0.0 **** 0.0
3 C 62.4269981384277 24.5739994049072 18.7220001220703 C 0.0 **** 0.0
4 O 63.3129997253418 25.0729999542236 19.4440002441406 O 0.0 **** 0.0
5 CB 60.632999420166 24.1590003967285 20.4130001068115 C 0.0 **** 0.0
6 CG 60.2490005493164 22.7810001373291 19.9909992218018 C 0.0 **** 0.0
7 CD 59.3810005187988 23.003999710083 18.7779998779297 C 0.0 **** 0.0
@<TRIPOS>BOND
1 1 2 1
2 1 7 1
3 2 3 1
4 2 5 1
5 3 4 1
6 5 6 1
7 6 7 1
@<TRIPOS>MOLECULE
LEU607
8 7
SMALL
USER_CHARGES


@<TRIPOS>ATOM
1 N 62.6889991760254 23.7929992675781 17.6669998168945 N 0.0 **** 0.0
2 CA 64.0179977416992 23.5610008239746 17.1240005493164 C 0.0 **** 0.0
3 C 63.9949989318848 23.9069995880127 15.6450004577637 C 0.0 **** 0.0
4 O 62.9819984436035 23.6790008544922 14.9670000076294 O 0.0 **** 0.0
5 CB 64.4440002441406 22.0979995727539 17.2609996795654 C 0.0 **** 0.0
6 CG 64.2949981689453 21.4559993743896 18.6229991912842 C 0.0 **** 0.0
7 CD1 64.6470031738281 19.9759998321533 18.4990005493164 C 0.0 **** 0.0
8 CD2 65.2040023803711 22.1520004272461 19.5919990539551 C 0.0 **** 0.0
@<TRIPOS>BOND
1 1 2 1
2 2 5 1
3 2 3 1
4 3 4 1
5 5 6 1
6 6 7 1
7 6 8 1
@<TRIPOS>MOLECULE
ARG608
11 10
SMALL
USER_CHARGES


@<TRIPOS>ATOM
1 N 65.0940017700195 24.4540004730225 15.1540002822876 N 0.0 **** 0.0
2 CA 65.2620010375977 24.7250003814697 13.7299995422363 C 0.0 **** 0.0
3 C 66.3300018310547 23.7800006866455 13.1990003585815 C 0.0 **** 0.0
4 O 67.4540023803711 23.7590007781982 13.7110004425049 O 0.0 **** 0.0
5 CB 65.6389999389648 26.17799949646 13.4919996261597 C 0.0 **** 0.0
6 CG 65.4599990844727 26.632999420166 12.0369997024536 C 0.0 **** 0.0
7 CD 66.0719985961914 28.0240001678467 11.8059997558594 C 0.0 **** 0.0
8 NE 67.5309982299805 27.9810009002686 11.9820003509521 N 0.0 **** 0.0
9 CZ 68.2809982299805 28.9659996032715 12.4779996871948 C 0.0 **** 0.0
10 NH1 67.7160034179688 30.1040000915527 12.8640003204346 N 0.0 **** 0.0
11 NH2 69.6039962768555 28.8059997558594 12.5909996032715 N 0.0 **** 0.0
@<TRIPOS>BOND
1 1 2 1
2 2 5 1
3 2 3 1
4 3 4 1
5 5 6 1
6 6 7 1
7 7 8 1
8 8 9 1
9 9 10 1
10 9 11 1
@<TRIPOS>MOLECULE
ILE609
8 7
SMALL
USER_CHARGES


@<TRIPOS>ATOM
1 N 65.9769973754883 23.0259990692139 12.16100025177 N 0.0 **** 0.0
2 CA 66.8420028686523 22.0289993286133 11.53600025177 C 0.0 **** 0.0
3 C 66.9990005493164 22.4220008850098 10.081000328064 C 0.0 **** 0.0
4 O 66.0419998168945 22.3190002441406 9.30399990081787 O 0.0 **** 0.0
5 CB 66.2490005493164 20.6219997406006 11.6350002288818 C 0.0 **** 0.0
6 CG1 66.1790008544922 20.1770000457764 13.0959997177124 C 0.0 **** 0.0
7 CG2 67.052001953125 19.6380004882813 10.793999671936 C 0.0 **** 0.0
8 CD1 65.318000793457 18.9169998168945 13.2770004272461 C 0.0 **** 0.0
@<TRIPOS>BOND
1 1 2 1
2 2 3 1
3 2 5 1
4 3 4 1
5 5 7 1
6 5 6 1
7 6 8 1
@<TRIPOS>MOLECULE
ASP610
8 7
SMALL
USER_CHARGES


@<TRIPOS>ATOM
1 N 68.1880035400391 22.8610000610352 9.70899963378906 N 0.0 **** 0.0
2 CA 68.4779968261719 23.2849998474121 8.34000015258789 C 0.0 **** 0.0
3 C 69.4339981079102 22.2670001983643 7.72800016403198 C 0.0 **** 0.0
4 O 70.6230010986328 22.2360000610352 8.06700038909912 O 0.0 **** 0.0
5 CB 69.0820007324219 24.681999206543 8.29899978637695 C 0.0 **** 0.0
6 CG 68.0759963989258 25.7560005187988 8.67000007629395 C 0.0 **** 0.0
7 OD1 66.9189987182617 25.6940002441406 8.19699954986572 O 0.0 **** 0.0
8 OD2 68.4459991455078 26.6590003967285 9.45199966430664 O 0.0 **** 0.0
@<TRIPOS>BOND
1 1 2 1
2 2 3 1
3 2 5 1
4 3 4 1
5 5 6 1
6 6 7 1
7 6 8 1
@<TRIPOS>MOLECULE
VAL611
7 6
SMALL
USER_CHARGES


@<TRIPOS>ATOM
1 N 68.9179992675781 21.4680004119873 6.80100011825562 N 0.0 **** 0.0
2 CA 69.681999206543 20.363000869751 6.23400020599365 C 0.0 **** 0.0
3 C 70.572998046875 20.8759994506836 5.11199998855591 C 0.0 **** 0.0
4 O 70.1050033569336 21.5709991455078 4.20499992370605 O 0.0 **** 0.0
5 CB 68.7440032958984 19.2679996490479 5.71299982070923 C 0.0 **** 0.0
6 CG1 69.5869979858398 18.1219997406006 5.0789999961853 C 0.0 **** 0.0
7 CG2 67.8310012817383 18.7520008087158 6.83799982070923 C 0.0 **** 0.0
@<TRIPOS>BOND
1 1 2 1
2 2 3 1
3 2 5 1
4 3 4 1
5 5 7 1
6 5 6 1
@<TRIPOS>MOLECULE
ALA612
5 4
SMALL
USER_CHARGES


@<TRIPOS>ATOM
1 N 71.8399963378906 20.4720001220703 5.13399982452393 N 0.0 **** 0.0
2 CA 72.7939987182617 20.8910007476807 4.11499977111816 C 0.0 **** 0.0
3 C 72.3860015869141 20.4069995880127 2.73300004005432 C 0.0 **** 0.0
4 O 72.0080032348633 19.2490005493164 2.54900002479553 O 0.0 **** 0.0
5 CB 74.1869964599609 20.3330001831055 4.41699981689453 C 0.0 **** 0.0
@<TRIPOS>BOND
1 1 2 1
2 2 3 1
3 2 5 1
4 3 4 1
@<TRIPOS>MOLECULE
ARG613
11 10
SMALL
USER_CHARGES


@<TRIPOS>ATOM
1 N 72.5550003051758 21.2840003967285 1.74100005626678 N 0.0 **** 0.0
2 CA 72.2730026245117 20.9139995574951 0.35699999332428 C 0.0 **** 0.0
3 C 73.0390014648438 19.6639995574951 -0.0649999976158142 C 0.0 **** 0.0
4 O 72.5279998779297 18.8479995727539 -0.847000002861023 O 0.0 **** 0.0
5 CB 72.6190032958984 22.0970001220703 -0.552999973297119 C 0.0 **** 0.0
6 CG 72.5960006713867 21.8040008544922 -2.05900001525879 C 0.0 **** 0.0
7 CD 71.1760025024414 21.8320007324219 -2.59699988365173 C 0.0 **** 0.0
8 NE 71.0970001220703 21.3050003051758 -3.96300005912781 N 0.0 **** 0.0
9 CZ 70.0640029907227 21.4909992218018 -4.78399991989136 C 0.0 **** 0.0
10 NH1 69.0090026855469 22.2040004730225 -4.38399982452393 N 0.0 **** 0.0
11 NH2 70.0950012207031 20.9689998626709 -6.00899982452393 N 0.0 **** 0.0
@<TRIPOS>BOND
1 1 2 1
2 2 5 1
3 2 3 1
4 3 4 1
5 5 6 1
6 6 7 1
7 7 8 1
8 8 9 1
9 9 10 1
10 9 11 1
@<TRIPOS>MOLECULE
ASP614
8 7
SMALL
USER_CHARGES


@<TRIPOS>ATOM
1 N 74.2809982299805 19.5179996490479 0.384999990463257 N 0.0 **** 0.0
2 CA 75.0839996337891 18.363000869751 -0.0140000004321337 C 0.0 **** 0.0
3 C 74.8649978637695 17.1389999389648 0.882000029087067 C 0.0 **** 0.0
4 O 75.5530014038086 16.1189994812012 0.703999996185303 O 0.0 **** 0.0
5 CB 76.5739974975586 18.7240009307861 -0.0309999994933605 C 0.0 **** 0.0
6 CG 77.0749969482422 19.1630001068115 1.31700003147125 C 0.0 **** 0.0
7 OD1 76.3199996948242 19.0310001373291 2.28699994087219 O 0.0 **** 0.0
8 OD2 78.2330017089844 19.621000289917 1.41700005531311 O 0.0 **** 0.0
@<TRIPOS>BOND
1 1 2 1
2 2 5 1
3 2 3 1
4 3 4 1
5 5 6 1
6 6 8 1
7 6 7 1
@<TRIPOS>MOLECULE
TRP615
14 15
SMALL
USER_CHARGES


@<TRIPOS>ATOM
1 N 73.9309997558594 17.2159996032715 1.82799994945526 N 0.0 **** 0.0
2 CA 73.5059967041016 16.0849990844727 2.65100002288818 C 0.0 **** 0.0
3 C 74.5960006713867 15.6079998016357 3.59200000762939 C 0.0 **** 0.0
4 O 74.5449981689453 14.460000038147 4.06799983978271 O 0.0 **** 0.0
5 CB 73.0110015869141 14.9040002822876 1.79900002479553 C 0.0 **** 0.0
6 CG 71.7429962158203 15.1750001907349 1.08299994468689 C 0.0 **** 0.0
7 CD1 71.1969985961914 16.4120006561279 0.788999974727631 C 0.0 **** 0.0
8 CD2 70.8270034790039 14.1969995498657 0.564999997615814 C 0.0 **** 0.0
9 NE1 70.0100021362305 16.2479991912842 0.123999997973442 N 0.0 **** 0.0
10 CE2 69.765998840332 14.9049997329712 -0.0500000007450581 C 0.0 **** 0.0
11 CE3 70.8099975585938 12.7950000762939 0.542999982833862 C 0.0 **** 0.0
12 CZ2 68.693000793457 14.2629995346069 -0.656000018119812 C 0.0 **** 0.0
13 CZ3 69.7419967651367 12.1490001678467 -0.0879999995231628 C 0.0 **** 0.0
14 CH2 68.6910018920898 12.8950004577637 -0.667999982833862 C 0.0 **** 0.0
@<TRIPOS>BOND
1 1 2 1
2 2 3 1
3 2 5 1
4 3 4 1
5 5 6 1
6 6 7 1
7 6 8 1
8 7 9 1
9 8 11 1
10 8 10 1
11 9 10 1
12 10 12 1
13 11 13 1
14 12 14 1
15 13 14 1
@<TRIPOS>MOLECULE
THR616
7 6
SMALL
USER_CHARGES


@<TRIPOS>ATOM
1 N 75.5800018310547 16.4669990539551 3.88800001144409 N 0.0 **** 0.0
2 CA 76.6549987792969 16.0799999237061 4.80000019073486 C 0.0 **** 0.0
3 C 76.286003112793 16.3050003051758 6.25400018692017 C 0.0 **** 0.0
4 O 76.9700012207031 15.7749996185303 7.13500022888184 O 0.0 **** 0.0
5 CB 77.943000793457 16.8659992218018 4.49499988555908 C 0.0 **** 0.0
6 OG1 77.6600036621094 18.2730007171631 4.54699993133545 O 0.0 **** 0.0
7 CG2 78.4810028076172 16.5170001983643 3.11299991607666 C 0.0 **** 0.0
@<TRIPOS>BOND
1 1 2 1
2 2 3 1
3 2 5 1
4 3 4 1
5 5 6 1
6 5 7 1
@<TRIPOS>MOLECULE
GLY617
4 3
SMALL
USER_CHARGES


@<TRIPOS>ATOM
1 N 75.2369995117188 17.0769996643066 6.52400016784668 N 0.0 **** 0.0
2 CA 74.879997253418 17.3780002593994 7.89300012588501 C 0.0 **** 0.0
3 C 73.75 18.3799991607666 7.93100023269653 C 0.0 **** 0.0
4 O 73.1569976806641 18.7180004119873 6.89400005340576 O 0.0 **** 0.0
@<TRIPOS>BOND
1 1 2 1
2 2 3 1
3 3 4 1
@<TRIPOS>MOLECULE
PHE618
11 11
SMALL
USER_CHARGES


@<TRIPOS>ATOM
1 N 73.5059967041016 18.8910007476807 9.13700008392334 N 0.0 **** 0.0
2 CA 72.4359970092773 19.8490009307861 9.34700012207031 C 0.0 **** 0.0
3 C 72.8410034179688 20.8110008239746 10.4409999847412 C 0.0 **** 0.0
4 O 73.5849990844727 20.4610004425049 11.3640003204346 O 0.0 **** 0.0
5 CB 71.0979995727539 19.1730003356934 9.6870002746582 C 0.0 **** 0.0
6 CG 71.1240005493164 18.306999206543 10.9099998474121 C 0.0 **** 0.0
7 CD1 71.5709991455078 16.9990005493164 10.8330001831055 C 0.0 **** 0.0
8 CD2 70.6380004882813 18.7959995269775 12.128999710083 C 0.0 **** 0.0
9 CE1 71.556999206543 16.1889991760254 11.9359998703003 C 0.0 **** 0.0
10 CE2 70.6190032958984 17.988000869751 13.2629995346069 C 0.0 **** 0.0
11 CZ 71.0849990844727 16.6900005340576 13.1789999008179 C 0.0 **** 0.0
@<TRIPOS>BOND
1 1 2 1
2 2 3 1
3 2 5 1
4 3 4 1
5 5 6 1
6 6 7 1
7 6 8 1
8 7 9 1
9 8 10 1
10 9 11 1
11 10 11 1
@<TRIPOS>MOLECULE
THR619
7 6
SMALL
USER_CHARGES


@<TRIPOS>ATOM
1 N 72.3580017089844 22.0319995880127 10.3170003890991 N 0.0 **** 0.0
2 CA 72.4789962768555 23.0179996490479 11.3730001449585 C 0.0 **** 0.0
3 C 71.2819976806641 22.8929996490479 12.293999671936 C 0.0 **** 0.0
4 O 70.1510009765625 22.7129993438721 11.8339996337891 O 0.0 **** 0.0
5 CB 72.5479965209961 24.4220008850098 10.7650003433228 C 0.0 **** 0.0
6 OG1 73.7630004882813 24.4979991912842 10.0050001144409 O 0.0 **** 0.0
7 CG2 72.5319976806641 25.5130004882813 11.835000038147 C 0.0 **** 0.0
@<TRIPOS>BOND
1 1 2 1
2 2 5 1
3 2 3 1
4 3 4 1
5 5 6 1
6 5 7 1
@<TRIPOS>MOLECULE
LEU620
8 7
SMALL
USER_CHARGES


@<TRIPOS>ATOM
1 N 71.5380020141602 23.0160007476807 13.5950002670288 N 0.0 **** 0.0
2 CA 70.5149993896484 22.7870006561279 14.6020002365112 C 0.0 **** 0.0
3 C 70.5139999389648 23.9750003814697 15.543999671936 C 0.0 **** 0.0
4 O 71.5370025634766 24.2709999084473 16.1720008850098 O 0.0 **** 0.0
5 CB 70.7779998779297 21.4829998016357 15.3489999771118 C 0.0 **** 0.0
6 CG 69.9769973754883 21.2590007781982 16.6350002288818 C 0.0 **** 0.0
7 CD1 68.4990005493164 21.1200008392334 16.3010005950928 C 0.0 **** 0.0
8 CD2 70.4869995117188 20.0240001678467 17.3430004119873 C 0.0 **** 0.0
@<TRIPOS>BOND
1 1 2 1
2 2 3 1
3 2 5 1
4 3 4 1
5 5 6 1
6 6 7 1
7 6 8 1
@<TRIPOS>MOLECULE
ARG621
11 10
SMALL
USER_CHARGES


@<TRIPOS>ATOM
1 N 69.3939971923828 24.6679992675781 15.6129999160767 N 0.0 **** 0.0
2 CA 69.2170028686523 25.7430000305176 16.57200050354 C 0.0 **** 0.0
3 C 68.181999206543 25.3120002746582 17.5960006713867 C 0.0 **** 0.0
4 O 67.0759963989258 24.8910007476807 17.2390003204346 O 0.0 **** 0.0
5 CB 68.7740020751953 27.0450000762939 15.9169998168945 C 0.0 **** 0.0
6 CG 68.5869979858398 28.1310005187988 16.9659996032715 C 0.0 **** 0.0
7 CD 68.5169982910156 29.5249996185303 16.3530006408691 C 0.0 **** 0.0
8 NE 68.7089996337891 30.5349998474121 17.3939990997314 N 0.0 **** 0.0
9 CZ 67.7600021362305 30.9540004730225 18.2229995727539 C 0.0 **** 0.0
10 NH1 66.5149993896484 30.4589996337891 18.1439990997314 N 0.0 **** 0.0
11 NH2 68.068000793457 31.8770008087158 19.1350002288818 N 0.0 **** 0.0
@<TRIPOS>BOND
1 1 2 1
2 2 5 1
3 2 3 1
4 3 4 1
5 5 6 1
6 6 7 1
7 7 8 1
8 8 9 1
9 9 10 1
10 9 11 1
@<TRIPOS>MOLECULE
ASN622
8 7
SMALL
USER_CHARGES


@<TRIPOS>ATOM
1 N 68.5419998168945 25.4249992370605 18.867000579834 N 0.0 **** 0.0
2 CA 67.6070022583008 25.1639995574951 19.9529991149902 C 0.0 **** 0.0
3 C 66.8789978027344 26.4729995727539 20.2639999389648 C 0.0 **** 0.0
4 O 67.4710006713867 27.4039993286133 20.818000793457 O 0.0 **** 0.0
5 CB 68.3479995727539 24.6280002593994 21.1690006256104 C 0.0 **** 0.0
6 CG 67.4189987182617 24.3680000305176 22.3330001831055 C 0.0 **** 0.0
7 OD1 66.1890029907227 24.5279998779297 22.2180004119873 O 0.0 **** 0.0
8 ND2 67.9869995117188 23.9599990844727 23.4529991149902 N 0.0 **** 0.0
@<TRIPOS>BOND
1 1 2 1
2 2 5 1
3 2 3 1
4 3 4 1
5 5 6 1
6 6 8 1
7 6 7 1
@<TRIPOS>MOLECULE
GLY623
4 3
SMALL
USER_CHARGES


@<TRIPOS>ATOM
1 N 65.6019973754883 26.5380001068115 19.9039993286133 N 0.0 **** 0.0
2 CA 64.7890014648438 27.7189998626709 20.113000869751 C 0.0 **** 0.0
3 C 64.0589981079102 27.757999420166 21.4400005340576 C 0.0 **** 0.0
4 O 63.3370018005371 28.7150001525879 21.7189998626709 O 0.0 **** 0.0
@<TRIPOS>BOND
1 1 2 1
2 2 3 1
3 3 4 1
@<TRIPOS>MOLECULE
GLN624
9 8
SMALL
USER_CHARGES


@<TRIPOS>ATOM
1 N 64.2220001220703 26.7409992218018 22.2740001678467 N 0.0 **** 0.0
2 CA 63.5929985046387 26.761999130249 23.5879993438721 C 0.0 **** 0.0
3 C 64.2389984130859 27.8229999542236 24.4519996643066 C 0.0 **** 0.0
4 O 65.3550033569336 28.2789993286133 24.19700050354 O 0.0 **** 0.0
5 CB 63.7270011901855 25.3999996185303 24.2590007781982 C 0.0 **** 0.0
6 CG 62.9860000610352 24.2959995269775 23.5419998168945 C 0.0 **** 0.0
7 CD 63.3699989318848 22.9069995880127 24.0380001068115 C 0.0 **** 0.0
8 OE1 62.5610008239746 22.2159996032715 24.6679992675781 O 0.0 **** 0.0
9 NE2 64.6029968261719 22.4759998321533 23.7269992828369 N 0.0 **** 0.0
@<TRIPOS>BOND
1 1 2 1
2 2 3 1
3 2 5 1
4 3 4 1
5 5 6 1
6 6 7 1
7 7 8 1
8 7 9 1
@<TRIPOS>MOLECULE
ASP625
8 7
SMALL
USER_CHARGES


@<TRIPOS>ATOM
1 N 63.5390014648438 28.1909999847412 25.5270004272461 N 0.0 **** 0.0
2 CA 64.0439987182617 29.2180004119873 26.4179992675781 C 0.0 **** 0.0
3 C 64.8249969482422 28.6270008087158 27.5970001220703 C 0.0 **** 0.0
4 O 65.7320022583008 29.2910003662109 28.128999710083 O 0.0 **** 0.0
5 CB 62.8639984130859 30.0520000457764 26.9050006866455 C 0.0 **** 0.0
6 CG 62.148998260498 30.7329998016357 25.7689990997314 C 0.0 **** 0.0
7 OD1 62.8520011901855 31.3209991455078 24.8980007171631 O 0.0 **** 0.0
8 OD2 60.9039993286133 30.673999786377 25.7639999389648 O 0.0 **** 0.0
@<TRIPOS>BOND
1 1 2 1
2 2 5 1
3 2 3 1
4 3 4 1
5 5 6 1
6 6 8 1
7 6 7 1
@<TRIPOS>MOLECULE
PHE626
11 11
SMALL
USER_CHARGES


@<TRIPOS>ATOM
1 N 64.504997253418 27.4009990692139 27.9979991912842 N 0.0 **** 0.0
2 CA 65.1119995117188 26.8190002441406 29.2019996643066 C 0.0 **** 0.0
3 C 65.7269973754883 25.4540004730225 28.9580001831055 C 0.0 **** 0.0
4 O 66.8280029296875 25.1989994049072 29.4400005340576 O 0.0 **** 0.0
5 CB 64.0820007324219 26.7169990539551 30.3519992828369 C 0.0 **** 0.0
6 CG 63.4599990844727 28.0319995880127 30.6860008239746 C 0.0 **** 0.0
7 CD1 64.193000793457 29.0300006866455 31.306999206543 C 0.0 **** 0.0
8 CD2 62.1679992675781 28.2900009155273 30.326000213623 C 0.0 **** 0.0
9 CE1 63.6080017089844 30.2800006866455 31.5990009307861 C 0.0 **** 0.0
10 CE2 61.5900001525879 29.5209999084473 30.6000003814697 C 0.0 **** 0.0
11 CZ 62.3209991455078 30.507999420166 31.2409992218018 C 0.0 **** 0.0
@<TRIPOS>BOND
1 1 2 1
2 2 5 1
3 2 3 1
4 3 4 1
5 5 6 1
6 6 8 1
7 6 7 1
8 7 9 1
9 8 10 1
10 9 11 1
11 10 11 1
@<TRIPOS>MOLECULE
ALA627
5 4
SMALL
USER_CHARGES


@<TRIPOS>ATOM
1 N 65.0500030517578 24.5809993743896 28.2310009002686 N 0.0 **** 0.0
2 CA 65.536003112793 23.2169990539551 28.068000793457 C 0.0 **** 0.0
3 C 66.6179962158203 23.132999420166 26.9899997711182 C 0.0 **** 0.0
4 O 66.6340026855469 23.9120006561279 26.0319995880127 O 0.0 **** 0.0
5 CB 64.3769989013672 22.2900009155273 27.7189998626709 C 0.0 **** 0.0
@<TRIPOS>BOND
1 1 2 1
2 2 3 1
3 2 5 1
4 3 4 1
@<TRIPOS>MOLECULE
ASP628
8 7
SMALL
USER_CHARGES


@<TRIPOS>ATOM
1 N 67.5439987182617 22.1720008850098 27.1690006256104 N 0.0 **** 0.0
2 CA 68.4940032958984 21.8229999542236 26.121000289917 C 0.0 **** 0.0
3 C 67.8280029296875 20.8159999847412 25.1919994354248 C 0.0 **** 0.0
4 O 66.5930023193359 20.7089996337891 25.1959991455078 O 0.0 **** 0.0
5 CB 69.8190002441406 21.3010005950928 26.7119998931885 C 0.0 **** 0.0
6 CG 69.6750030517578 19.9619998931885 27.451000213623 C 0.0 **** 0.0
7 OD1 68.6029968261719 19.3139991760254 27.3910007476807 O 0.0 **** 0.0
8 OD2 70.6719970703125 19.5639991760254 28.1110000610352 O 0.0 **** 0.0
@<TRIPOS>BOND
1 1 2 1
2 2 3 1
3 2 5 1
4 3 4 1
5 5 6 1
6 6 8 1
7 6 7 1
@<TRIPOS>MOLECULE
THR629
7 6
SMALL
USER_CHARGES


@<TRIPOS>ATOM
1 N 68.6050033569336 20.1319999694824 24.3519992828369 N 0.0 **** 0.0
2 CA 68.0410003662109 19.2049999237061 23.3729991912842 C 0.0 **** 0.0
3 C 68.1029968261719 17.7479991912842 23.8339996337891 C 0.0 **** 0.0
4 O 67.8529968261719 16.8460006713867 23.0189990997314 O 0.0 **** 0.0
5 CB 68.7519989013672 19.3390007019043 22.0090007781982 C 0.0 **** 0.0
6 OG1 70.1760025024414 19.2040004730225 22.173999786377 O 0.0 **** 0.0
7 CG2 68.4660034179688 20.6800003051758 21.3999996185303 C 0.0 **** 0.0
@<TRIPOS>BOND
1 1 2 1
2 2 5 1
3 2 3 1
4 3 4 1
5 5 6 1
6 5 7 1
@<TRIPOS>MOLECULE
SER630
6 5
SMALL
USER_CHARGES


@<TRIPOS>ATOM
1 N 68.3789978027344 17.4909992218018 25.1270008087158 N 0.0 **** 0.0
2 CA 68.588996887207 16.1140003204346 25.5799999237061 C 0.0 **** 0.0
3 C 67.3099975585938 15.2790002822876 25.5440006256104 C 0.0 **** 0.0
4 O 67.4029998779297 14.0509996414185 25.5160007476807 O 0.0 **** 0.0
5 CB 69.2080001831055 16.0849990844727 26.996000289917 C 0.0 **** 0.0
6 OG 68.390998840332 16.7810001373291 27.9130001068115 O 0.0 **** 0.0
@<TRIPOS>BOND
1 1 2 1
2 2 3 1
3 2 5 1
4 3 4 1
5 5 6 1
@<TRIPOS>MOLECULE
ALA631
5 4
SMALL
USER_CHARGES


@<TRIPOS>ATOM
1 N 66.1259994506836 15.8870000839233 25.5020008087158 N 0.0 **** 0.0
2 CA 64.9100036621094 15.0740003585815 25.4200000762939 C 0.0 **** 0.0
3 C 64.6669998168945 14.460000038147 24.0429992675781 C 0.0 **** 0.0
4 O 63.7760009765625 13.6059999465942 23.9050006866455 O 0.0 **** 0.0
5 CB 63.6870002746582 15.9219999313354 25.8090000152588 C 0.0 **** 0.0
@<TRIPOS>BOND
1 1 2 1
2 2 3 1
3 2 5 1
4 3 4 1
@<TRIPOS>MOLECULE
PHE632
11 11
SMALL
USER_CHARGES


@<TRIPOS>ATOM
1 N 65.4469985961914 14.831000328064 23.0400009155273 N 0.0 **** 0.0
2 CA 65.1640014648438 14.4809999465942 21.6660003662109 C 0.0 **** 0.0
3 C 66.1380004882813 13.4320001602173 21.1609992980957 C 0.0 **** 0.0
4 O 67.306999206543 13.3900003433228 21.5639991760254 O 0.0 **** 0.0
5 CB 65.2529983520508 15.706000328064 20.7870006561279 C 0.0 **** 0.0
6 CG 64.3919982910156 16.8500003814697 21.2759990692139 C 0.0 **** 0.0
7 CD1 63.0209999084473 16.69700050354 21.3649997711182 C 0.0 **** 0.0
8 CD2 64.9570007324219 18.0510005950928 21.6599998474121 C 0.0 **** 0.0
9 CE1 62.2099990844727 17.7339992523193 21.8290004730225 C 0.0 **** 0.0
10 CE2 64.161003112793 19.1030006408691 22.1259994506836 C 0.0 **** 0.0
11 CZ 62.7830009460449 18.9449996948242 22.2169990539551 C 0.0 **** 0.0
@<TRIPOS>BOND
1 1 2 1
2 2 5 1
3 2 3 1
4 3 4 1
5 5 6 1
6 6 7 1
7 6 8 1
8 7 9 1
9 8 10 1
10 9 11 1
11 10 11 1
@<TRIPOS>MOLECULE
SER633
6 5
SMALL
USER_CHARGES


@<TRIPOS>ATOM
1 N 65.6289978027344 12.6029996871948 20.2530002593994 N 0.0 **** 0.0
2 CA 66.4240036010742 11.7159996032715 19.4209995269775 C 0.0 **** 0.0
3 C 66.3980026245117 12.2819995880127 18.0160007476807 C 0.0 **** 0.0
4 O 65.3310012817383 12.6660003662109 17.5200004577637 O 0.0 **** 0.0
5 CB 65.8529968261719 10.3030004501343 19.4249992370605 C 0.0 **** 0.0
6 OG 66.4619979858398 9.50399971008301 18.4139995574951 O 0.0 **** 0.0
@<TRIPOS>BOND
1 1 2 1
2 2 5 1
3 2 3 1
4 3 4 1
5 5 6 1
@<TRIPOS>MOLECULE
PHE634
11 11
SMALL
USER_CHARGES


@<TRIPOS>ATOM
1 N 67.5579986572266 12.3500003814697 17.3859996795654 N 0.0 **** 0.0
2 CA 67.6869964599609 12.956000328064 16.0669994354248 C 0.0 **** 0.0
3 C 67.8109970092773 11.8450002670288 15.0310001373291 C 0.0 **** 0.0
4 O 68.7330017089844 11.0340003967285 15.0950002670288 O 0.0 **** 0.0
5 CB 68.8779983520508 13.918999671936 16.0470008850098 C 0.0 **** 0.0
6 CG 68.6510009765625 15.1400003433228 16.8880004882813 C 0.0 **** 0.0
7 CD1 68.0370025634766 16.2549991607666 16.3390007019043 C 0.0 **** 0.0
8 CD2 68.9739990234375 15.1560001373291 18.2360000610352 C 0.0 **** 0.0
9 CE1 67.7730026245117 17.382999420166 17.0949993133545 C 0.0 **** 0.0
10 CE2 68.7330017089844 16.2639999389648 19.0090007781982 C 0.0 **** 0.0
11 CZ 68.1139984130859 17.4080009460449 18.4379997253418 C 0.0 **** 0.0
@<TRIPOS>BOND
1 1 2 1
2 2 5 1
3 2 3 1
4 3 4 1
5 5 6 1
6 6 8 1
7 6 7 1
8 7 9 1
9 8 10 1
10 9 11 1
11 10 11 1
@<TRIPOS>MOLECULE
ARG635
11 10
SMALL
USER_CHARGES


@<TRIPOS>ATOM
1 N 66.8639984130859 11.8090000152588 14.0930004119873 N 0.0 **** 0.0
2 CA 66.7249984741211 10.7279996871948 13.1350002288818 C 0.0 **** 0.0
3 C 66.8460006713867 11.3030004501343 11.7390003204346 C 0.0 **** 0.0
4 O 66.4720001220703 12.4540004730225 11.5030002593994 O 0.0 **** 0.0
5 CB 65.3679962158203 10.0179996490479 13.28600025177 C 0.0 **** 0.0
6 CG 65.1920013427734 9.48900032043457 14.6990003585815 C 0.0 **** 0.0
7 CD 63.9970016479492 8.56999969482422 14.8959999084473 C 0.0 **** 0.0
8 NE 63.923999786377 8.13700008392334 16.3110008239746 N 0.0 **** 0.0
9 CZ 62.9150009155273 7.45599985122681 16.8579998016357 C 0.0 **** 0.0
10 NH1 61.8569984436035 7.10200023651123 16.1299991607666 N 0.0 **** 0.0
11 NH2 62.9599990844727 7.13199996948242 18.1429996490479 N 0.0 **** 0.0
@<TRIPOS>BOND
1 1 2 1
2 2 5 1
3 2 3 1
4 3 4 1
5 5 6 1
6 6 7 1
7 7 8 1
8 8 9 1
9 9 11 1
10 9 10 1
@<TRIPOS>MOLECULE
TYR636
12 12
SMALL
USER_CHARGES


@<TRIPOS>ATOM
1 N 67.3990020751953 10.5109996795654 10.8299999237061 N 0.0 **** 0.0
2 CA 67.4459991455078 10.8859996795654 9.43000030517578 C 0.0 **** 0.0
3 C 66.818000793457 9.77000045776367 8.61499977111816 C 0.0 **** 0.0
4 O 66.8759994506836 8.58800029754639 8.98700046539307 O 0.0 **** 0.0
5 CB 68.8769989013672 11.1520004272461 8.9370002746582 C 0.0 **** 0.0
6 CG 69.7990036010742 9.95800018310547 9.02200031280518 C 0.0 **** 0.0
7 CD1 70.4570007324219 9.67099952697754 10.2069997787476 C 0.0 **** 0.0
8 CD2 70.0110015869141 9.11200046539307 7.92500019073486 C 0.0 **** 0.0
9 CE1 71.3130035400391 8.57999992370605 10.3140001296997 C 0.0 **** 0.0
10 CE2 70.8740005493164 8.00699996948242 8.0310001373291 C 0.0 **** 0.0
11 CZ 71.5149993896484 7.76200008392334 9.23799991607666 C 0.0 **** 0.0
12 OH 72.3779983520508 6.68100023269653 9.41100025177002 O 0.0 **** 0.0
@<TRIPOS>BOND
1 1 2 1
2 2 5 1
3 2 3 1
4 3 4 1
5 5 6 1
6 6 8 1
7 6 7 1
8 7 9 1
9 8 10 1
10 9 11 1
11 10 11 1
12 11 12 1
@<TRIPOS>MOLECULE
GLU637
9 8
SMALL
USER_CHARGES


@<TRIPOS>ATOM
1 N 66.2149963378906 10.1520004272461 7.48999977111816 N 0.0 **** 0.0
2 CA 65.7969970703125 9.15799999237061 6.52299976348877 C 0.0 **** 0.0
3 C 65.9469985961914 9.73799991607666 5.12400007247925 C 0.0 **** 0.0
4 O 65.6750030517578 10.9169998168945 4.89200019836426 O 0.0 **** 0.0
5 CB 64.3519973754883 8.70400047302246 6.74499988555908 C 0.0 **** 0.0
6 CG 63.9830017089844 7.4980001449585 5.83599996566772 C 0.0 **** 0.0
7 CD 62.5810012817383 6.98000001907349 6.0770001411438 C 0.0 **** 0.0
8 OE1 61.6199989318848 7.70300006866455 5.72499990463257 O 0.0 **** 0.0
9 OE2 62.4440002441406 5.86399984359741 6.63100004196167 O 0.0 **** 0.0
@<TRIPOS>BOND
1 1 2 1
2 2 5 1
3 2 3 1
4 3 4 1
5 5 6 1
6 6 7 1
7 7 9 1
8 7 8 1
@<TRIPOS>MOLECULE
VAL638
7 6
SMALL
USER_CHARGES


@<TRIPOS>ATOM
1 N 66.4020004272461 8.89999961853027 4.21099996566772 N 0.0 **** 0.0
2 CA 66.431999206543 9.20699977874756 2.78999996185303 C 0.0 **** 0.0
3 C 65.3270034790039 8.39500045776367 2.13499999046326 C 0.0 **** 0.0
4 O 65.2699966430664 7.17199993133545 2.30299997329712 O 0.0 **** 0.0
5 CB 67.7949981689453 8.85599994659424 2.17600011825562 C 0.0 **** 0.0
6 CG1 67.786003112793 9.08699989318848 0.653999984264374 C 0.0 **** 0.0
7 CG2 68.9020004272461 9.65999984741211 2.84699988365173 C 0.0 **** 0.0
@<TRIPOS>BOND
1 1 2 1
2 2 3 1
3 2 5 1
4 3 4 1
5 5 6 1
6 5 7 1
@<TRIPOS>MOLECULE
GLU639
9 8
SMALL
USER_CHARGES


@<TRIPOS>ATOM
1 N 64.4499969482422 9.06099987030029 1.39499998092651 N 0.0 **** 0.0
2 CA 63.3849983215332 8.37100028991699 0.685999989509583 C 0.0 **** 0.0
3 C 63.4630012512207 8.66399955749512 -0.805999994277954 C 0.0 **** 0.0
4 O 63.8380012512207 9.77099990844727 -1.21399998664856 O 0.0 **** 0.0
5 CB 62.0219993591309 8.80000019073486 1.21899998188019 C 0.0 **** 0.0
6 CG 60.8930015563965 7.89599990844727 0.740000009536743 C 0.0 **** 0.0
7 CD 59.5299987792969 8.3730001449585 1.19900000095367 C 0.0 **** 0.0
8 OE1 59.4700012207031 9.33699989318848 1.99300003051758 O 0.0 **** 0.0
9 OE2 58.5229988098145 7.76900005340576 0.75900000333786 O 0.0 **** 0.0
@<TRIPOS>BOND
1 1 2 1
2 2 5 1
3 2 3 1
4 3 4 1
5 5 6 1
6 6 7 1
7 7 8 1
8 7 9 1
@<TRIPOS>MOLECULE
ALA640
5 4
SMALL
USER_CHARGES


@<TRIPOS>ATOM
1 N 63.0919990539551 7.6560001373291 -1.61199998855591 N 0.0 **** 0.0
2 CA 63.0050010681152 7.79500007629395 -3.06100010871887 C 0.0 **** 0.0
3 C 61.6910018920898 7.19000005722046 -3.54200005531311 C 0.0 **** 0.0
4 O 60.8549995422363 6.74399995803833 -2.74600005149841 O 0.0 **** 0.0
5 CB 64.1859970092773 7.13299989700317 -3.76500010490417 C 0.0 **** 0.0
@<TRIPOS>BOND
1 1 2 1
2 2 3 1
3 2 5 1
4 3 4 1
@<TRIPOS>MOLECULE
ASP641
8 7
SMALL
USER_CHARGES


@<TRIPOS>ATOM
1 N 61.5069999694824 7.18699979782104 -4.86800003051758 N 0.0 **** 0.0
2 CA 60.2729988098145 6.67500019073486 -5.45300006866455 C 0.0 **** 0.0
3 C 59.931999206543 5.28499984741211 -4.9229998588562 C 0.0 **** 0.0
4 O 58.7770004272461 5.00899982452393 -4.57999992370605 O 0.0 **** 0.0
5 CB 60.3979988098145 6.66099977493286 -6.97599983215332 C 0.0 **** 0.0
6 CG 61.7709999084473 6.22399997711182 -7.44000005722046 C 0.0 **** 0.0
7 OD1 62.4360008239746 5.44999980926514 -6.71000003814697 O 0.0 **** 0.0
8 OD2 62.1959991455078 6.68300008773804 -8.52200031280518 O 0.0 **** 0.0
@<TRIPOS>BOND
1 1 2 1
2 2 3 1
3 2 5 1
4 3 4 1
5 5 6 1
6 6 8 1
7 6 7 1
@<TRIPOS>MOLECULE
GLY642
4 3
SMALL
USER_CHARGES


@<TRIPOS>ATOM
1 N 60.9230003356934 4.40399980545044 -4.83199977874756 N 0.0 **** 0.0
2 CA 60.6990013122559 3.06100010871887 -4.33199977874756 C 0.0 **** 0.0
3 C 60.632999420166 2.92000007629395 -2.82299995422363 C 0.0 **** 0.0
4 O 60.5349998474121 1.79799997806549 -2.31699991226196 O 0.0 **** 0.0
@<TRIPOS>BOND
1 1 2 1
2 2 3 1
3 3 4 1
@<TRIPOS>MOLECULE
GLY643
4 3
SMALL
USER_CHARGES


@<TRIPOS>ATOM
1 N 60.6889991760254 4.01700019836426 -2.08500003814697 N 0.0 **** 0.0
2 CA 60.6279983520508 3.98000001907349 -0.643999993801117 C 0.0 **** 0.0
3 C 61.9339981079102 4.39900016784668 0.00499999988824129 C 0.0 **** 0.0
4 O 62.7879981994629 5.05600023269653 -0.59799998998642 O 0.0 **** 0.0
@<TRIPOS>BOND
1 1 2 1
2 2 3 1
3 3 4 1
@<TRIPOS>MOLECULE
ALA644
5 4
SMALL
USER_CHARGES


@<TRIPOS>ATOM
1 N 62.0880012512207 3.98900008201599 1.26499998569489 N 0.0 **** 0.0
2 CA 63.2140007019043 4.42199993133545 2.0789999961853 C 0.0 **** 0.0
3 C 64.495002746582 3.75999999046326 1.60500001907349 C 0.0 **** 0.0
4 O 64.5319976806641 2.55100011825562 1.35199999809265 O 0.0 **** 0.0
5 CB 62.9620018005371 4.08900022506714 3.54699993133545 C 0.0 **** 0.0
@<TRIPOS>BOND
1 1 2 1
2 2 3 1
3 2 5 1
4 3 4 1
@<TRIPOS>MOLECULE
LEU645
8 7
SMALL
USER_CHARGES


@<TRIPOS>ATOM
1 N 65.5469970703125 4.55900001525879 1.46300005912781 N 0.0 **** 0.0
2 CA 66.8290023803711 4.04899978637695 1.00300002098084 C 0.0 **** 0.0
3 C 67.8629989624023 3.95099997520447 2.10899996757507 C 0.0 **** 0.0
4 O 68.8130035400391 3.17700004577637 1.97800004482269 O 0.0 **** 0.0
5 CB 67.4039993286133 4.94899988174438 -0.0970000028610229 C 0.0 **** 0.0
6 CG 66.5849990844727 5.03999996185303 -1.38999998569489 C 0.0 **** 0.0
7 CD1 67.1740036010742 6.10400009155273 -2.30399990081787 C 0.0 **** 0.0
8 CD2 66.5599975585938 3.7260000705719 -2.08500003814697 C 0.0 **** 0.0
@<TRIPOS>BOND
1 1 2 1
2 2 3 1
3 2 5 1
4 3 4 1
5 5 6 1
6 6 7 1
7 6 8 1
@<TRIPOS>MOLECULE
ASP646
8 7
SMALL
USER_CHARGES


@<TRIPOS>ATOM
1 N 67.7129974365234 4.72700023651123 3.17000007629395 N 0.0 **** 0.0
2 CA 68.693000793457 4.7810001373291 4.24499988555908 C 0.0 **** 0.0
3 C 68.036003112793 5.51800012588501 5.39099979400635 C 0.0 **** 0.0
4 O 67.1539993286133 6.35500001907349 5.18499994277954 O 0.0 **** 0.0
5 CB 69.9820022583008 5.49900007247925 3.7960000038147 C 0.0 **** 0.0
6 CG 71.1849975585938 5.24200010299683 4.72900009155273 C 0.0 **** 0.0
7 OD1 71.1330032348633 4.31099987030029 5.56599998474121 O 0.0 **** 0.0
8 OD2 72.1989974975586 5.97100019454956 4.60699987411499 O 0.0 **** 0.0
@<TRIPOS>BOND
1 1 2 1
2 2 5 1
3 2 3 1
4 3 4 1
5 5 6 1
6 6 8 1
7 6 7 1
@<TRIPOS>MOLECULE
GLY647
4 3
SMALL
USER_CHARGES


@<TRIPOS>ATOM
1 N 68.447998046875 5.18699979782104 6.60099983215332 N 0.0 **** 0.0
2 CA 67.9130020141602 5.90799999237061 7.73899984359741 C 0.0 **** 0.0
3 C 68.6890029907227 5.51800012588501 8.97700023651123 C 0.0 **** 0.0
4 O 69.4380035400391 4.54500007629395 8.9689998626709 O 0.0 **** 0.0
@<TRIPOS>BOND
1 1 2 1
2 2 3 1
3 3 4 1
@<TRIPOS>MOLECULE
GLY648
4 3
SMALL
USER_CHARGES


@<TRIPOS>ATOM
1 N 68.4980010986328 6.28999996185303 10.0389995574951 N 0.0 **** 0.0
2 CA 69.1869964599609 5.9980001449585 11.2840003967285 C 0.0 **** 0.0
3 C 69.0690002441406 7.16400003433228 12.2410001754761 C 0.0 **** 0.0
4 O 68.2750015258789 8.08399963378906 12.0459995269775 O 0.0 **** 0.0
@<TRIPOS>BOND
1 1 2 1
2 2 3 1
3 3 4 1
@<TRIPOS>MOLECULE
THR649
7 6
SMALL
USER_CHARGES


@<TRIPOS>ATOM
1 N 69.8669967651367 7.09499979019165 13.2959995269775 N 0.0 **** 0.0
2 CA 69.9160003662109 8.14900016784668 14.2969999313354 C 0.0 **** 0.0
3 C 71.3290023803711 8.69200038909912 14.3559999465942 C 0.0 **** 0.0
4 O 72.2829971313477 8.04199981689453 13.9200000762939 O 0.0 **** 0.0
5 CB 69.5299987792969 7.61299991607666 15.6730003356934 C 0.0 **** 0.0
6 OG1 70.4550018310547 6.57200002670288 15.9820003509521 O 0.0 **** 0.0
7 CG2 68.1539993286133 7.00799989700317 15.6470003128052 C 0.0 **** 0.0
@<TRIPOS>BOND
1 1 2 1
2 2 3 1
3 2 5 1
4 3 4 1
5 5 6 1
6 5 7 1
@<TRIPOS>MOLECULE
VAL650
7 6
SMALL
USER_CHARGES


@<TRIPOS>ATOM
1 N 71.463996887207 9.87100028991699 14.9329996109009 N 0.0 **** 0.0
2 CA 72.7720031738281 10.4829998016357 15.081000328064 C 0.0 **** 0.0
3 C 72.8509979248047 11.1049995422363 16.4659996032715 C 0.0 **** 0.0
4 O 71.8740005493164 11.6750001907349 16.9559993743896 O 0.0 **** 0.0
5 CB 73.0220031738281 11.5270004272461 13.9799995422363 C 0.0 **** 0.0
6 CG1 71.9329986572266 12.5640001296997 13.9969997406006 C 0.0 **** 0.0
7 CG2 74.3710021972656 12.1700000762939 14.1579999923706 C 0.0 **** 0.0
@<TRIPOS>BOND
1 1 2 1
2 2 3 1
3 2 5 1
4 3 4 1
5 5 6 1
6 5 7 1
@<TRIPOS>MOLECULE
ASP651
8 7
SMALL
USER_CHARGES


@<TRIPOS>ATOM
1 N 74.0319976806641 11.0430002212524 17.0550003051758 N 0.0 **** 0.0
2 CA 74.2730026245117 11.5790004730225 18.3920001983643 C 0.0 **** 0.0
3 C 74.5189971923828 13.076000213623 18.3020000457764 C 0.0 **** 0.0
4 O 75.3610000610352 13.5229997634888 17.5170001983643 O 0.0 **** 0.0
5 CB 75.4789962768555 10.8879995346069 19.0100002288818 C 0.0 **** 0.0
6 CG 75.8550033569336 11.4720001220703 20.3729991912842 C 0.0 **** 0.0
7 OD1 74.9369964599609 11.826000213623 21.1399993896484 O 0.0 **** 0.0
8 OD2 77.0709991455078 11.5200004577637 20.673999786377 O 0.0 **** 0.0
@<TRIPOS>BOND
1 1 2 1
2 2 5 1
3 2 3 1
4 3 4 1
5 5 6 1
6 6 7 1
7 6 8 1
@<TRIPOS>MOLECULE
VAL652
7 6
SMALL
USER_CHARGES


@<TRIPOS>ATOM
1 N 73.7880020141602 13.8439998626709 19.0990009307861 N 0.0 **** 0.0
2 CA 73.9010009765625 15.2969999313354 19.1439990997314 C 0.0 **** 0.0
3 C 74.2249984741211 15.6940002441406 20.5830001831055 C 0.0 **** 0.0
4 O 73.3789978027344 15.5340003967285 21.4729995727539 O 0.0 **** 0.0
5 CB 72.6100006103516 15.9799995422363 18.6909999847412 C 0.0 **** 0.0
6 CG1 72.7249984741211 17.5009994506836 18.8680000305176 C 0.0 **** 0.0
7 CG2 72.2720031738281 15.5959997177124 17.1909999847412 C 0.0 **** 0.0
@<TRIPOS>BOND
1 1 2 1
2 2 3 1
3 2 5 1
4 3 4 1
5 5 7 1
6 5 6 1
@<TRIPOS>MOLECULE
ALA653
5 4
SMALL
USER_CHARGES


@<TRIPOS>ATOM
1 N 75.4290008544922 16.2180004119873 20.8209991455078 N 0.0 **** 0.0
2 CA 75.7289962768555 16.742000579834 22.1550006866455 C 0.0 **** 0.0
3 C 74.6920013427734 17.7999992370605 22.5230007171631 C 0.0 **** 0.0
4 O 74.3160018920898 18.6060009002686 21.6639995574951 O 0.0 **** 0.0
5 CB 77.1279983520508 17.3460006713867 22.1889991760254 C 0.0 **** 0.0
@<TRIPOS>BOND
1 1 2 1
2 2 3 1
3 2 5 1
4 3 4 1
@<TRIPOS>MOLECULE
PRO654
7 7
SMALL
USER_CHARGES


@<TRIPOS>ATOM
1 N 74.1829986572266 17.8169994354248 23.7630004882813 N 0.0 **** 0.0
2 CA 73.0439987182617 18.7059993743896 24.0709991455078 C 0.0 **** 0.0
3 C 73.3290023803711 20.1599998474121 23.7310009002686 C 0.0 **** 0.0
4 O 74.3430023193359 20.7269992828369 24.1420001983643 O 0.0 **** 0.0
5 CB 72.8420028686523 18.5289993286133 25.5799999237061 C 0.0 **** 0.0
6 CG 73.5019989013672 17.2569999694824 25.9099998474121 C 0.0 **** 0.0
7 CD 74.5459976196289 16.9650001525879 24.9139995574951 C 0.0 **** 0.0
@<TRIPOS>BOND
1 1 7 1
2 1 2 1
3 2 5 1
4 2 3 1
5 3 4 1
6 5 6 1
7 6 7 1
@<TRIPOS>MOLECULE
VAL655
7 6
SMALL
USER_CHARGES


@<TRIPOS>ATOM
1 N 72.4089965820313 20.7759990692139 22.996000289917 N 0.0 **** 0.0
2 CA 72.5439987182617 22.1630001068115 22.6000003814697 C 0.0 **** 0.0
3 C 71.7919998168945 23.0279998779297 23.6070003509521 C 0.0 **** 0.0
4 O 70.6100006103516 22.8059997558594 23.8810005187988 O 0.0 **** 0.0
5 CB 72.0029983520508 22.3770008087158 21.181999206543 C 0.0 **** 0.0
6 CG1 72.1569976806641 23.8239994049072 20.7719993591309 C 0.0 **** 0.0
7 CG2 72.7119979858398 21.4290008544922 20.1860008239746 C 0.0 **** 0.0
@<TRIPOS>BOND
1 1 2 1
2 2 3 1
3 2 5 1
4 3 4 1
5 5 6 1
6 5 7 1
@<TRIPOS>MOLECULE
ALA656
5 4
SMALL
USER_CHARGES


@<TRIPOS>ATOM
1 N 72.4660034179688 24.0410003662109 24.1310005187988 N 0.0 **** 0.0
2 CA 71.838996887207 24.9050006866455 25.1259994506836 C 0.0 **** 0.0
3 C 70.693000793457 25.7159996032715 24.5020008087158 C 0.0 **** 0.0
4 O 70.6910018920898 25.9810009002686 23.2950000762939 O 0.0 **** 0.0
5 CB 72.8669967651367 25.8570003509521 25.7049999237061 C 0.0 **** 0.0
@<TRIPOS>BOND
1 1 2 1
2 2 5 1
3 2 3 1
4 3 4 1
@<TRIPOS>MOLECULE
PRO657
7 7
SMALL
USER_CHARGES


@<TRIPOS>ATOM
1 N 69.7210006713867 26.1609992980957 25.3110008239746 N 0.0 **** 0.0
2 CA 68.6660003662109 27.0100002288818 24.7569999694824 C 0.0 **** 0.0
3 C 69.2679977416992 28.2549991607666 24.1159992218018 C 0.0 **** 0.0
4 O 70.2089996337891 28.8470001220703 24.6410007476807 O 0.0 **** 0.0
5 CB 67.7900009155273 27.3479995727539 25.9820003509521 C 0.0 **** 0.0
6 CG 68.6039962768555 27.0779991149902 27.1539993286133 C 0.0 **** 0.0
7 CD 69.5490036010742 25.9599990844727 26.7679996490479 C 0.0 **** 0.0
@<TRIPOS>BOND
1 1 2 1
2 1 7 1
3 2 3 1
4 2 5 1
5 3 4 1
6 5 6 1
7 6 7 1
@<TRIPOS>MOLECULE
GLN658
9 8
SMALL
USER_CHARGES


@<TRIPOS>ATOM
1 N 68.7220001220703 28.6280002593994 22.9549999237061 N 0.0 **** 0.0
2 CA 69.129997253418 29.7929992675781 22.1809997558594 C 0.0 **** 0.0
3 C 70.5100021362305 29.6399993896484 21.5650005340576 C 0.0 **** 0.0
4 O 71.0879974365234 30.6240005493164 21.0909996032715 O 0.0 **** 0.0
5 CB 69.068000793457 31.0860004425049 23.007999420166 C 0.0 **** 0.0
6 CG 67.6669998168945 31.378999710083 23.5699996948242 C 0.0 **** 0.0
7 CD 66.6360015869141 31.5510005950928 22.4869995117188 C 0.0 **** 0.0
8 OE1 66.7160034179688 32.4799995422363 21.7099990844727 O 0.0 **** 0.0
9 NE2 65.6650009155273 30.6520004272461 22.4209995269775 N 0.0 **** 0.0
@<TRIPOS>BOND
1 1 2 1
2 2 5 1
3 2 3 1
4 3 4 1
5 5 6 1
6 6 7 1
7 7 8 1
8 7 9 1
@<TRIPOS>MOLECULE
SER659
6 5
SMALL
USER_CHARGES


@<TRIPOS>ATOM
1 N 71.0329971313477 28.4260005950928 21.5049991607666 N 0.0 **** 0.0
2 CA 72.3130035400391 28.1760005950928 20.8799991607666 C 0.0 **** 0.0
3 C 72.1179962158203 27.3190002441406 19.6389999389648 C 0.0 **** 0.0
4 O 71.0299987792969 26.8129997253418 19.3659992218018 O 0.0 **** 0.0
5 CB 73.2630004882813 27.4899997711182 21.8589992523193 C 0.0 **** 0.0
6 OG 73.4800033569336 28.3449993133545 22.9780006408691 O 0.0 **** 0.0
@<TRIPOS>BOND
1 1 2 1
2 2 3 1
3 2 5 1
4 3 4 1
5 5 6 1
@<TRIPOS>MOLECULE
GLU660
9 8
SMALL
USER_CHARGES


@<TRIPOS>ATOM
1 N 73.2009963989258 27.1259994506836 18.8969993591309 N 0.0 **** 0.0
2 CA 73.0970001220703 26.3080005645752 17.701000213623 C 0.0 **** 0.0
3 C 74.3960037231445 25.5499992370605 17.4869995117188 C 0.0 **** 0.0
4 O 75.4100036621094 25.8059997558594 18.1319999694824 O 0.0 **** 0.0
5 CB 72.7070007324219 27.1469993591309 16.4860000610352 C 0.0 **** 0.0
6 CG 73.6500015258789 28.2070007324219 16.1049995422363 C 0.0 **** 0.0
7 CD 73.2360000610352 28.8689994812012 14.7819995880127 C 0.0 **** 0.0
8 OE1 72.2730026245117 29.6690006256104 14.7740001678467 O 0.0 **** 0.0
9 OE2 73.8550033569336 28.5559997558594 13.7410001754761 O 0.0 **** 0.0
@<TRIPOS>BOND
1 1 2 1
2 2 3 1
3 2 5 1
4 3 4 1
5 5 6 1
6 6 7 1
7 7 8 1
8 7 9 1
@<TRIPOS>MOLECULE
THR661
7 6
SMALL
USER_CHARGES


@<TRIPOS>ATOM
1 N 74.3270034790039 24.5510005950928 16.6200008392334 N 0.0 **** 0.0
2 CA 75.5039978027344 23.7569999694824 16.3150005340576 C 0.0 **** 0.0
3 C 75.3190002441406 23.1889991760254 14.9139995574951 C 0.0 **** 0.0
4 O 74.2600021362305 23.3430004119873 14.293999671936 O 0.0 **** 0.0
5 CB 75.7259979248047 22.6749992370605 17.3649997711182 C 0.0 **** 0.0
6 OG1 77.0350036621094 22.1060009002686 17.1940002441406 O 0.0 **** 0.0
7 CG2 74.6829986572266 21.5839996337891 17.2560005187988 C 0.0 **** 0.0
@<TRIPOS>BOND
1 1 2 1
2 2 3 1
3 2 5 1
4 3 4 1
5 5 7 1
6 5 6 1
@<TRIPOS>MOLECULE
VAL662
7 6
SMALL
USER_CHARGES


@<TRIPOS>ATOM
1 N 76.375 22.5620002746582 14.4069995880127 N 0.0 **** 0.0
2 CA 76.318000793457 21.8740005493164 13.1230001449585 C 0.0 **** 0.0
3 C 76.5579986572266 20.4020004272461 13.4010000228882 C 0.0 **** 0.0
4 O 77.4980010986328 20.0459995269775 14.1169996261597 O 0.0 **** 0.0
5 CB 77.3270034790039 22.4300003051758 12.1020002365112 C 0.0 **** 0.0
6 CG1 77.2149963378906 21.6609992980957 10.7729997634888 C 0.0 **** 0.0
7 CG2 77.0579986572266 23.8999996185303 11.8360004425049 C 0.0 **** 0.0
@<TRIPOS>BOND
1 1 2 1
2 2 5 1
3 2 3 1
4 3 4 1
5 5 6 1
6 5 7 1
@<TRIPOS>MOLECULE
VAL663
7 6
SMALL
USER_CHARGES


@<TRIPOS>ATOM
1 N 75.6740036010742 19.5580005645752 12.8850002288818 N 0.0 **** 0.0
2 CA 75.6920013427734 18.128999710083 13.1379995346069 C 0.0 **** 0.0
3 C 76.0189971923828 17.4330005645752 11.8339996337891 C 0.0 **** 0.0
4 O 75.3600006103516 17.6690006256104 10.8210000991821 O 0.0 **** 0.0
5 CB 74.3479995727539 17.6229991912842 13.6840000152588 C 0.0 **** 0.0
6 CG1 74.4540023803711 16.1200008392334 13.960000038147 C 0.0 **** 0.0
7 CG2 73.9440002441406 18.4060001373291 14.9650001525879 C 0.0 **** 0.0
@<TRIPOS>BOND
1 1 2 1
2 2 5 1
3 2 3 1
4 3 4 1
5 5 6 1
6 5 7 1
@<TRIPOS>MOLECULE
GLU664
9 8
SMALL
USER_CHARGES


@<TRIPOS>ATOM
1 N 77.0329971313477 16.5900001525879 11.8680000305176 N 0.0 **** 0.0
2 CA 77.4339981079102 15.8140001296997 10.71399974823 C 0.0 **** 0.0
3 C 76.5370025634766 14.5900001525879 10.6129999160767 C 0.0 **** 0.0
4 O 76.2070007324219 13.9700002670288 11.6269998550415 O 0.0 **** 0.0
5 CB 78.8970031738281 15.4029998779297 10.8769998550415 C 0.0 **** 0.0
6 CG 79.5449981689453 14.9069995880127 9.63599967956543 C 0.0 **** 0.0
7 CD 80.931999206543 14.335000038147 9.90499973297119 C 0.0 **** 0.0
8 OE1 81.4710006713867 14.5620002746582 11.0159997940063 O 0.0 **** 0.0
9 OE2 81.4779968261719 13.6560001373291 9.0 O 0.0 **** 0.0
@<TRIPOS>BOND
1 1 2 1
2 2 5 1
3 2 3 1
4 3 4 1
5 5 6 1
6 6 7 1
7 7 8 1
8 7 9 1
@<TRIPOS>MOLECULE
LEU665
8 7
SMALL
USER_CHARGES


@<TRIPOS>ATOM
1 N 76.0950012207031 14.2659997940063 9.38099956512451 N 0.0 **** 0.0
2 CA 75.3730010986328 13.0279998779297 9.14000034332275 C 0.0 **** 0.0
3 C 76.3359985351563 11.914999961853 8.75899982452393 C 0.0 **** 0.0
4 O 77.4179992675781 12.168999671936 8.22900009155273 O 0.0 **** 0.0
5 CB 74.3539962768555 13.2189998626709 8.01900005340576 C 0.0 **** 0.0
6 CG 73.1709976196289 14.0900001525879 8.44699954986572 C 0.0 **** 0.0
7 CD1 72.4069976806641 14.5319995880127 7.21000003814697 C 0.0 **** 0.0
8 CD2 72.2529983520508 13.3400001525879 9.41199970245361 C 0.0 **** 0.0
@<TRIPOS>BOND
1 1 2 1
2 2 5 1
3 2 3 1
4 3 4 1
5 5 6 1
6 6 8 1
7 6 7 1
@<TRIPOS>MOLECULE
PRO666
7 7
SMALL
USER_CHARGES


@<TRIPOS>ATOM
1 N 75.9499969482422 10.6630001068115 8.96300029754639 N 0.0 **** 0.0
2 CA 76.8150024414063 9.5649995803833 8.54800033569336 C 0.0 **** 0.0
3 C 77.140998840332 9.68900012969971 7.06599998474121 C 0.0 **** 0.0
4 O 76.3509979248047 10.2080001831055 6.27099990844727 O 0.0 **** 0.0
5 CB 75.9759979248047 8.31900024414063 8.8439998626709 C 0.0 **** 0.0
6 CG 75.0559997558594 8.75100040435791 9.94099998474121 C 0.0 **** 0.0
7 CD 74.7279968261719 10.1859998703003 9.62600040435791 C 0.0 **** 0.0
@<TRIPOS>BOND
1 1 2 1
2 1 7 1
3 2 5 1
4 2 3 1
5 3 4 1
6 5 6 1
7 6 7 1
@<TRIPOS>MOLECULE
GLY667
4 3
SMALL
USER_CHARGES


@<TRIPOS>ATOM
1 N 78.3290023803711 9.21000003814697 6.71000003814697 N 0.0 **** 0.0
2 CA 78.8040008544922 9.34000015258789 5.33599996566772 C 0.0 **** 0.0
3 C 77.9250030517578 8.66399955749512 4.30600023269653 C 0.0 **** 0.0
4 O 77.9010009765625 9.07800006866455 3.14199995994568 O 0.0 **** 0.0
@<TRIPOS>BOND
1 1 2 1
2 2 3 1
3 3 4 1
@<TRIPOS>MOLECULE
SER668
6 5
SMALL
USER_CHARGES


@<TRIPOS>ATOM
1 N 77.2480010986328 7.57600021362305 4.68800020217896 N 0.0 **** 0.0
2 CA 76.3659973144531 6.88199996948242 3.75300002098084 C 0.0 **** 0.0
3 C 75.3440017700195 7.8289999961853 3.12199997901917 C 0.0 **** 0.0
4 O 74.9739990234375 7.65899991989136 1.95200002193451 O 0.0 **** 0.0
5 CB 75.6460037231445 5.74900007247925 4.47800016403198 C 0.0 **** 0.0
6 OG 74.8690032958984 6.24900007247925 5.55999994277954 O 0.0 **** 0.0
@<TRIPOS>BOND
1 1 2 1
2 2 5 1
3 2 3 1
4 3 4 1
5 5 6 1
@<TRIPOS>MOLECULE
VAL669
7 6
SMALL
USER_CHARGES


@<TRIPOS>ATOM
1 N 74.8980026245117 8.83100032806396 3.86400008201599 N 0.0 **** 0.0
2 CA 73.8239974975586 9.70400047302246 3.39100003242493 C 0.0 **** 0.0
3 C 74.3150024414063 10.5710000991821 2.23499989509583 C 0.0 **** 0.0
4 O 73.7379989624023 10.5699996948242 1.14600002765656 O 0.0 **** 0.0
5 CB 73.2900009155273 10.5570001602173 4.55299997329712 C 0.0 **** 0.0
6 CG1 72.2730026245117 11.5769996643066 4.05499982833862 C 0.0 **** 0.0
7 CG2 72.6589965820313 9.6540002822876 5.61100006103516 C 0.0 **** 0.0
@<TRIPOS>BOND
1 1 2 1
2 2 5 1
3 2 3 1
4 3 4 1
5 5 6 1
6 5 7 1
@<TRIPOS>MOLECULE
ALA670
5 4
SMALL
USER_CHARGES


@<TRIPOS>ATOM
1 N 75.4219970703125 11.2650003433228 2.44099998474121 N 0.0 **** 0.0
2 CA 76.0250015258789 12.1149997711182 1.39400005340576 C 0.0 **** 0.0
3 C 76.4520034790039 11.2440004348755 0.212999999523163 C 0.0 **** 0.0
4 O 76.2829971313477 11.6669998168945 -0.917999982833862 O 0.0 **** 0.0
5 CB 77.1859970092773 12.8830003738403 1.9539999961853 C 0.0 **** 0.0
@<TRIPOS>BOND
1 1 2 1
2 2 5 1
3 2 3 1
4 3 4 1
@<TRIPOS>MOLECULE
ALA671
5 4
SMALL
USER_CHARGES


@<TRIPOS>ATOM
1 N 76.943000793457 10.0340003967285 0.486999988555908 N 0.0 **** 0.0
2 CA 77.3769989013672 9.10700035095215 -0.579999983310699 C 0.0 **** 0.0
3 C 76.1800003051758 8.76399993896484 -1.45000004768372 C 0.0 **** 0.0
4 O 76.3119964599609 8.7519998550415 -2.65799999237061 O 0.0 **** 0.0
5 CB 77.9580001831055 7.85900020599365 0.0219999998807907 C 0.0 **** 0.0
@<TRIPOS>BOND
1 1 2 1
2 2 3 1
3 2 5 1
4 3 4 1
@<TRIPOS>MOLECULE
LEU672
8 7
SMALL
USER_CHARGES


@<TRIPOS>ATOM
1 N 75.0380020141602 8.53299999237061 -0.823000013828278 N 0.0 **** 0.0
2 CA 73.7910003662109 8.24499988555908 -1.55200004577637 C 0.0 **** 0.0
3 C 73.4499969482422 9.4689998626709 -2.40799999237061 C 0.0 **** 0.0
4 O 73.0899963378906 9.28800010681152 -3.55200004577637 O 0.0 **** 0.0
5 CB 72.7399978637695 7.97399997711182 -0.486999988555908 C 0.0 **** 0.0
6 CG 71.4970016479492 7.24100017547607 -0.941999971866608 C 0.0 **** 0.0
7 CD1 71.8600006103516 6.16300010681152 -1.92299997806549 C 0.0 **** 0.0
8 CD2 70.7919998168945 6.64300012588501 0.254000008106232 C 0.0 **** 0.0
@<TRIPOS>BOND
1 1 2 1
2 2 5 1
3 2 3 1
4 3 4 1
5 5 6 1
6 6 7 1
7 6 8 1
@<TRIPOS>MOLECULE
ALA673
5 4
SMALL
USER_CHARGES


@<TRIPOS>ATOM
1 N 73.6149978637695 10.6770000457764 -1.87699997425079 N 0.0 **** 0.0
2 CA 73.3430023193359 11.9060001373291 -2.65000009536743 C 0.0 **** 0.0
3 C 74.3099975585938 12.0059995651245 -3.83200001716614 C 0.0 **** 0.0
4 O 73.8629989624023 12.3140001296997 -4.9210000038147 O 0.0 **** 0.0
5 CB 73.5009994506836 13.1000003814697 -1.75100004673004 C 0.0 **** 0.0
@<TRIPOS>BOND
1 1 2 1
2 2 3 1
3 2 5 1
4 3 4 1
@<TRIPOS>MOLECULE
ALA674
5 4
SMALL
USER_CHARGES


@<TRIPOS>ATOM
1 N 75.5859985351563 11.7119998931885 -3.60500001907349 N 0.0 **** 0.0
2 CA 76.6220016479492 11.7969999313354 -4.65700006484985 C 0.0 **** 0.0
3 C 76.338996887207 10.8109998703003 -5.78399991989136 C 0.0 **** 0.0
4 O 76.5699996948242 11.1630001068115 -6.92700004577637 O 0.0 **** 0.0
5 CB 77.9830017089844 11.5710000991821 -4.06699991226196 C 0.0 **** 0.0
@<TRIPOS>BOND
1 1 2 1
2 2 5 1
3 2 3 1
4 3 4 1
@<TRIPOS>MOLECULE
GLY675
4 3
SMALL
USER_CHARGES


@<TRIPOS>ATOM
1 N 75.8450012207031 9.62600040435791 -5.4539999961853 N 0.0 **** 0.0
2 CA 75.5999984741211 8.58500003814697 -6.46000003814697 C 0.0 **** 0.0
3 C 74.2969970703125 8.75699996948242 -7.2020001411438 C 0.0 **** 0.0
4 O 74.0540008544922 7.98799991607666 -8.12100028991699 O 0.0 **** 0.0
@<TRIPOS>BOND
1 1 2 1
2 2 3 1
3 3 4 1
@<TRIPOS>MOLECULE
LEU676
8 7
SMALL
USER_CHARGES


@<TRIPOS>ATOM
1 N 73.463996887207 9.70600032806396 -6.7979998588562 N 0.0 **** 0.0
2 CA 72.1470031738281 9.82900047302246 -7.45900011062622 C 0.0 **** 0.0
3 C 72.3130035400391 10.2279996871948 -8.92099952697754 C 0.0 **** 0.0
4 O 73.0270004272461 11.1890001296997 -9.18299961090088 O 0.0 **** 0.0
5 CB 71.3349990844727 10.8879995346069 -6.71799993515015 C 0.0 **** 0.0
6 CG 70.7249984741211 10.4200000762939 -5.4060001373291 C 0.0 **** 0.0
7 CD1 69.927001953125 11.5389995574951 -4.77099990844727 C 0.0 **** 0.0
8 CD2 69.8720016479492 9.1870002746582 -5.61100006103516 C 0.0 **** 0.0
@<TRIPOS>BOND
1 1 2 1
2 2 3 1
3 2 5 1
4 3 4 1
5 5 6 1
6 6 8 1
7 6 7 1
@<TRIPOS>MOLECULE
SER677
6 5
SMALL
USER_CHARGES


@<TRIPOS>ATOM
1 N 71.6389999389648 9.48799991607666 -9.80599975585938 N 0.0 **** 0.0
2 CA 71.6230010986328 9.78800010681152 -11.2559995651245 C 0.0 **** 0.0
3 C 70.8399963378906 11.0830001831055 -11.4060001373291 C 0.0 **** 0.0
4 O 69.8420028686523 11.2309999465942 -10.6969995498657 O 0.0 **** 0.0
5 CB 70.9649963378906 8.68099975585938 -12.0030002593994 C 0.0 **** 0.0
6 OG 69.6620025634766 8.46199989318848 -11.503999710083 O 0.0 **** 0.0
@<TRIPOS>BOND
1 1 2 1
2 2 3 1
3 2 5 1
4 3 4 1
5 5 6 1
@<TRIPOS>MOLECULE
ASP678
8 7
SMALL
USER_CHARGES


@<TRIPOS>ATOM
1 N 71.2259979248047 11.9490003585815 -12.335000038147 N 0.0 **** 0.0
2 CA 70.5309982299805 13.2589998245239 -12.4370002746582 C 0.0 **** 0.0
3 C 69.0500030517578 13.1020002365112 -12.7950000762939 C 0.0 **** 0.0
4 O 68.6910018920898 12.1630001068115 -13.5249996185303 O 0.0 **** 0.0
5 CB 71.3399963378906 14.2779998779297 -13.2329998016357 C 0.0 **** 0.0
6 CG 72.3779983520508 14.9549999237061 -12.3620004653931 C 0.0 **** 0.0
7 OD1 72.0199966430664 15.3430004119873 -11.2309999465942 O 0.0 **** 0.0
8 OD2 73.5350036621094 15.0649995803833 -12.8050003051758 O 0.0 **** 0.0
@<TRIPOS>BOND
1 1 2 1
2 2 5 1
3 2 3 1
4 3 4 1
5 5 6 1
6 6 8 1
7 6 7 1
@<TRIPOS>MOLECULE
GLY679
4 3
SMALL
USER_CHARGES


@<TRIPOS>ATOM
1 N 68.2259979248047 13.9479999542236 -12.1780004501343 N 0.0 **** 0.0
2 CA 66.7710037231445 13.9790000915527 -12.3999996185303 C 0.0 **** 0.0
3 C 66.0090026855469 12.9689998626709 -11.5690002441406 C 0.0 **** 0.0
4 O 64.7809982299805 12.9429998397827 -11.6809997558594 O 0.0 **** 0.0
@<TRIPOS>BOND
1 1 2 1
2 2 3 1
3 3 4 1
@<TRIPOS>MOLECULE
ARG680
11 10
SMALL
USER_CHARGES


@<TRIPOS>ATOM
1 N 66.6999969482422 12.1549997329712 -10.7779998779297 N 0.0 **** 0.0
2 CA 65.9739990234375 11.2239999771118 -9.92199993133545 C 0.0 **** 0.0
3 C 65.6230010986328 11.9029998779297 -8.60400009155273 C 0.0 **** 0.0
4 O 66.5350036621094 12.2969999313354 -7.87200021743774 O 0.0 **** 0.0
5 CB 66.8040008544922 9.99100017547607 -9.63199996948242 C 0.0 **** 0.0
6 CG 66.0510025024414 8.98900032043457 -8.78400039672852 C 0.0 **** 0.0
7 CD 66.9349975585938 7.85599994659424 -8.32499980926514 C 0.0 **** 0.0
8 NE 66.1439971923828 6.85300016403198 -7.61499977111816 N 0.0 **** 0.0
9 CZ 66.6449966430664 5.91300010681152 -6.81500005722046 C 0.0 **** 0.0
10 NH1 67.9629974365234 5.8289999961853 -6.60400009155273 N 0.0 **** 0.0
11 NH2 65.818000793457 5.05200004577637 -6.22300004959106 N 0.0 **** 0.0
@<TRIPOS>BOND
1 1 2 1
2 2 5 1
3 2 3 1
4 3 4 1
5 5 6 1
6 6 7 1
7 7 8 1
8 8 9 1
9 9 11 1
10 9 10 1
@<TRIPOS>MOLECULE
PRO681
7 7
SMALL
USER_CHARGES


@<TRIPOS>ATOM
1 N 64.3399963378906 12.0229997634888 -8.24699974060059 N 0.0 **** 0.0
2 CA 63.9879989624023 12.7170000076294 -6.9980001449585 C 0.0 **** 0.0
3 C 64.3259963989258 11.8959999084473 -5.76300001144409 C 0.0 **** 0.0
4 O 64.1529998779297 10.6750001907349 -5.72599983215332 O 0.0 **** 0.0
5 CB 62.4749984741211 12.9309997558594 -7.12599992752075 C 0.0 **** 0.0
6 CG 62.015998840332 11.7969999313354 -7.97599983215332 C 0.0 **** 0.0
7 CD 63.1440010070801 11.5120000839233 -8.94400024414063 C 0.0 **** 0.0
@<TRIPOS>BOND
1 1 7 1
2 1 2 1
3 2 5 1
4 2 3 1
5 3 4 1
6 5 6 1
7 6 7 1
@<TRIPOS>MOLECULE
ALA682
5 4
SMALL
USER_CHARGES


@<TRIPOS>ATOM
1 N 64.7939987182617 12.5869998931885 -4.73000001907349 N 0.0 **** 0.0
2 CA 65.0920028686523 11.9449996948242 -3.45900011062622 C 0.0 **** 0.0
3 C 64.9919967651367 13.0069999694824 -2.37599992752075 C 0.0 **** 0.0
4 O 65.2880020141602 14.1770000457764 -2.62100005149841 O 0.0 **** 0.0
5 CB 66.4860000610352 11.289999961853 -3.46399998664856 C 0.0 **** 0.0
@<TRIPOS>BOND
1 1 2 1
2 2 5 1
3 2 3 1
4 3 4 1
@<TRIPOS>MOLECULE
VAL683
7 6
SMALL
USER_CHARGES


@<TRIPOS>ATOM
1 N 64.5670013427734 12.5989999771118 -1.18400001525879 N 0.0 **** 0.0
2 CA 64.2679977416992 13.5290002822876 -0.101999998092651 C 0.0 **** 0.0
3 C 64.9980010986328 13.0539999008179 1.14199995994568 C 0.0 **** 0.0
4 O 64.7939987182617 11.9160003662109 1.57000005245209 O 0.0 **** 0.0
5 CB 62.7610015869141 13.6090002059937 0.185000002384186 C 0.0 **** 0.0
6 CG1 62.4729995727539 14.5299997329712 1.34899997711182 C 0.0 **** 0.0
7 CG2 61.9850006103516 14.0480003356934 -1.0809999704361 C 0.0 **** 0.0
@<TRIPOS>BOND
1 1 2 1
2 2 5 1
3 2 3 1
4 3 4 1
5 5 6 1
6 5 7 1
@<TRIPOS>MOLECULE
LEU684
8 7
SMALL
USER_CHARGES


@<TRIPOS>ATOM
1 N 65.8259963989258 13.9219999313354 1.72000002861023 N 0.0 **** 0.0
2 CA 66.4560012817383 13.6730003356934 3.01900005340576 C 0.0 **** 0.0
3 C 65.6910018920898 14.456000328064 4.06799983978271 C 0.0 **** 0.0
4 O 65.568000793457 15.6809997558594 3.96000003814697 O 0.0 **** 0.0
5 CB 67.9229965209961 14.0939998626709 3.00600004196167 C 0.0 **** 0.0
6 CG 68.5859985351563 14.1909999847412 4.39499998092651 C 0.0 **** 0.0
7 CD1 68.5429992675781 12.8430004119873 5.09100008010864 C 0.0 **** 0.0
8 CD2 70.0329971313477 14.6840000152588 4.22700023651123 C 0.0 **** 0.0
@<TRIPOS>BOND
1 1 2 1
2 2 5 1
3 2 3 1
4 3 4 1
5 5 6 1
6 6 8 1
7 6 7 1
@<TRIPOS>MOLECULE
THR685
7 6
SMALL
USER_CHARGES


@<TRIPOS>ATOM
1 N 65.1760025024414 13.7550001144409 5.07299995422363 N 0.0 **** 0.0
2 CA 64.4550018310547 14.3640003204346 6.18599987030029 C 0.0 **** 0.0
3 C 65.2239990234375 14.0970001220703 7.47700023651123 C 0.0 **** 0.0
4 O 65.6019973754883 12.9580001831055 7.74700021743774 O 0.0 **** 0.0
5 CB 63.023998260498 13.7930002212524 6.28200006484985 C 0.0 **** 0.0
6 OG1 62.3339996337891 13.9650001525879 5.02199983596802 O 0.0 **** 0.0
7 CG2 62.242000579834 14.4659996032715 7.35500001907349 C 0.0 **** 0.0
@<TRIPOS>BOND
1 1 2 1
2 2 5 1
3 2 3 1
4 3 4 1
5 5 6 1
6 5 7 1
@<TRIPOS>MOLECULE
VAL686
7 6
SMALL
USER_CHARGES


@<TRIPOS>ATOM
1 N 65.4769973754883 15.1479997634888 8.24899959564209 N 0.0 **** 0.0
2 CA 66.0599975585938 15.0299997329712 9.58300018310547 C 0.0 **** 0.0
3 C 64.9830017089844 15.4370002746582 10.5679998397827 C 0.0 **** 0.0
4 O 64.3479995727539 16.4839992523193 10.3959999084473 O 0.0 **** 0.0
5 CB 67.3190002441406 15.9049997329712 9.72900009155273 C 0.0 **** 0.0
6 CG1 67.8379974365234 15.8839998245239 11.1579999923706 C 0.0 **** 0.0
7 CG2 68.4089965820313 15.4259996414185 8.74400043487549 C 0.0 **** 0.0
@<TRIPOS>BOND
1 1 2 1
2 2 3 1
3 2 5 1
4 3 4 1
5 5 6 1
6 5 7 1
@<TRIPOS>MOLECULE
ARG687
11 10
SMALL
USER_CHARGES


@<TRIPOS>ATOM
1 N 64.7740020751953 14.6230001449585 11.6000003814697 N 0.0 **** 0.0
2 CA 63.6539993286133 14.8159999847412 12.5069999694824 C 0.0 **** 0.0
3 C 64.1449966430664 14.7740001678467 13.9399995803833 C 0.0 **** 0.0
4 O 65.0329971313477 13.996000289917 14.2770004272461 O 0.0 **** 0.0
5 CB 62.5979995727539 13.7379999160767 12.3360004425049 C 0.0 **** 0.0
6 CG 62.1399993896484 13.5790004730225 10.8850002288818 C 0.0 **** 0.0
7 CD 60.9720001220703 12.6230001449585 10.7760000228882 C 0.0 **** 0.0
8 NE 61.2290000915527 11.335000038147 11.3839998245239 N 0.0 **** 0.0
9 CZ 60.4389991760254 10.75 12.2779998779297 C 0.0 **** 0.0
10 NH1 59.3050003051758 11.3280000686646 12.6840000152588 N 0.0 **** 0.0
11 NH2 60.7840003967285 9.56099987030029 12.7550001144409 N 0.0 **** 0.0
@<TRIPOS>BOND
1 1 2 1
2 2 3 1
3 2 5 1
4 3 4 1
5 5 6 1
6 6 7 1
7 7 8 1
8 8 9 1
9 9 10 1
10 9 11 1
@<TRIPOS>MOLECULE
ALA688
5 4
SMALL
USER_CHARGES


@<TRIPOS>ATOM
1 N 63.5460014343262 15.6020002365112 14.7700004577637 N 0.0 **** 0.0
2 CA 63.7729988098145 15.5710000991821 16.2059993743896 C 0.0 **** 0.0
3 C 62.515998840332 14.9930000305176 16.8239994049072 C 0.0 **** 0.0
4 O 61.4259986877441 15.5719995498657 16.6650009155273 O 0.0 **** 0.0
5 CB 64.0719985961914 16.9699993133545 16.7259998321533 C 0.0 **** 0.0
@<TRIPOS>BOND
1 1 2 1
2 2 5 1
3 2 3 1
4 3 4 1
@<TRIPOS>MOLECULE
VAL689
7 6
SMALL
USER_CHARGES


@<TRIPOS>ATOM
1 N 62.6459999084473 13.831000328064 17.4619998931885 N 0.0 **** 0.0
2 CA 61.5200004577637 13.1669998168945 18.1060009002686 C 0.0 **** 0.0
3 C 61.8139991760254 12.9919996261597 19.5919990539551 C 0.0 **** 0.0
4 O 62.9729995727539 13.0340003967285 20.0330009460449 O 0.0 **** 0.0
5 CB 61.2280006408691 11.8120002746582 17.4409999847412 C 0.0 **** 0.0
6 CG1 61.0480003356934 12.0129995346069 15.923999786377 C 0.0 **** 0.0
7 CG2 62.306999206543 10.7969999313354 17.7229995727539 C 0.0 **** 0.0
@<TRIPOS>BOND
1 1 2 1
2 2 5 1
3 2 3 1
4 3 4 1
5 5 7 1
6 5 6 1
@<TRIPOS>MOLECULE
LEU690
8 7
SMALL
USER_CHARGES


@<TRIPOS>ATOM
1 N 60.757999420166 12.7229995727539 20.367000579834 N 0.0 **** 0.0
2 CA 60.9550018310547 12.4130001068115 21.7819995880127 C 0.0 **** 0.0
3 C 61.7150001525879 11.1040000915527 21.9080009460449 C 0.0 **** 0.0
4 O 61.3040008544922 10.0780000686646 21.3430004119873 O 0.0 **** 0.0
5 CB 59.632999420166 12.3090000152588 22.5219993591309 C 0.0 **** 0.0
6 CG 58.8320007324219 13.6230001449585 22.6270008087158 C 0.0 **** 0.0
7 CD1 57.5950012207031 13.3450002670288 23.4519996643066 C 0.0 **** 0.0
8 CD2 59.6300010681152 14.7659997940063 23.2749996185303 C 0.0 **** 0.0
@<TRIPOS>BOND
1 1 2 1
2 2 5 1
3 2 3 1
4 3 4 1
5 5 6 1
6 6 7 1
7 6 8 1
@<TRIPOS>MOLECULE
GLY691
4 3
SMALL
USER_CHARGES


@<TRIPOS>ATOM
1 N 62.8359985351563 11.1569995880127 22.6219997406006 N 0.0 **** 0.0
2 CA 63.5950012207031 9.96300029754639 22.9130001068115 C 0.0 **** 0.0
3 C 62.9300003051758 9.05599975585938 23.9260005950928 C 0.0 **** 0.0
4 O 63.2060012817383 7.85200023651123 23.9389991760254 O 0.0 **** 0.0
@<TRIPOS>BOND
1 1 2 1
2 2 3 1
3 3 4 1
@<TRIPOS>MOLECULE
ALA692
5 4
SMALL
USER_CHARGES


@<TRIPOS>ATOM
1 N 62.0499992370605 9.5959997177124 24.75 N 0.0 **** 0.0
2 CA 61.3549995422363 8.82199954986572 25.7679996490479 C 0.0 **** 0.0
3 C 59.9480018615723 9.37399959564209 25.9309997558594 C 0.0 **** 0.0
4 O 59.6679992675781 10.5179996490479 25.5629997253418 O 0.0 **** 0.0
5 CB 62.0929985046387 8.87100028991699 27.113000869751 C 0.0 **** 0.0
@<TRIPOS>BOND
1 1 2 1
2 2 3 1
3 2 5 1
4 3 4 1
@<TRIPOS>MOLECULE
ASP693
8 7
SMALL
USER_CHARGES


@<TRIPOS>ATOM
1 N 59.0559997558594 8.54300022125244 26.4729995727539 N 0.0 **** 0.0
2 CA 57.7169990539551 9.00899982452393 26.806999206543 C 0.0 **** 0.0
3 C 57.7840003967285 10.253999710083 27.6809997558594 C 0.0 **** 0.0
4 O 58.5890007019043 10.3489999771118 28.6119995117188 O 0.0 **** 0.0
5 CB 56.9459991455078 7.93300008773804 27.5620002746582 C 0.0 **** 0.0
6 CG 56.5820007324219 6.74499988555908 26.7159996032715 C 0.0 **** 0.0
7 OD1 56.8959999084473 6.71600008010864 25.5020008087158 O 0.0 **** 0.0
8 OD2 55.9690017700195 5.82299995422363 27.2970008850098 O 0.0 **** 0.0
@<TRIPOS>BOND
1 1 2 1
2 2 5 1
3 2 3 1
4 3 4 1
5 5 6 1
6 6 8 1
7 6 7 1
@<TRIPOS>MOLECULE
SER694
6 5
SMALL
USER_CHARGES


@<TRIPOS>ATOM
1 N 56.9199981689453 11.210000038147 27.3850002288818 N 0.0 **** 0.0
2 CA 56.6790008544922 12.3439998626709 28.2569999694824 C 0.0 **** 0.0
3 C 55.2760009765625 12.2209997177124 28.8400001525879 C 0.0 **** 0.0
4 O 54.548999786377 11.2670001983643 28.5809993743896 O 0.0 **** 0.0
5 CB 56.8320007324219 13.6709995269775 27.496000289917 C 0.0 **** 0.0
6 OG 55.6949996948242 13.8479995727539 26.6700000762939 O 0.0 **** 0.0
@<TRIPOS>BOND
1 1 2 1
2 2 5 1
3 2 3 1
4 3 4 1
5 5 6 1
@<TRIPOS>MOLECULE
ALA695
5 4
SMALL
USER_CHARGES


@<TRIPOS>ATOM
1 N 54.890998840332 13.2279996871948 29.6189994812012 N 0.0 **** 0.0
2 CA 53.5359992980957 13.2700004577637 30.1569995880127 C 0.0 **** 0.0
3 C 52.4900016784668 13.4700002670288 29.0709991455078 C 0.0 **** 0.0
4 O 51.3110008239746 13.1730003356934 29.2950000762939 O 0.0 **** 0.0
5 CB 53.431999206543 14.3970003128052 31.1800003051758 C 0.0 **** 0.0
@<TRIPOS>BOND
1 1 2 1
2 2 3 1
3 2 5 1
4 3 4 1
@<TRIPOS>MOLECULE
TRP696
14 15
SMALL
USER_CHARGES


@<TRIPOS>ATOM
1 N 52.8930015563965 13.956000328064 27.8959999084473 N 0.0 **** 0.0
2 CA 51.943000793457 14.4250001907349 26.8999996185303 C 0.0 **** 0.0
3 C 52.056999206543 13.7019996643066 25.5620002746582 C 0.0 **** 0.0
4 O 51.2330017089844 13.9490003585815 24.67799949646 O 0.0 **** 0.0
5 CB 52.0919990539551 15.9449996948242 26.7059993743896 C 0.0 **** 0.0
6 CG 53.4710006713867 16.4200000762939 26.6100006103516 C 0.0 **** 0.0
7 CD1 54.2649993896484 16.8139991760254 27.6399993896484 C 0.0 **** 0.0
8 CD2 54.2569999694824 16.548999786377 25.4230003356934 C 0.0 **** 0.0
9 NE1 55.5060005187988 17.1900005340576 27.1709995269775 N 0.0 **** 0.0
10 CE2 55.5200004577637 17.0279998779297 25.8099994659424 C 0.0 **** 0.0
11 CE3 54.0099983215332 16.306999206543 24.0620002746582 C 0.0 **** 0.0
12 CZ2 56.5250015258789 17.2840003967285 24.9009990692139 C 0.0 **** 0.0
13 CZ3 55.0200004577637 16.5510005950928 23.1550006866455 C 0.0 **** 0.0
14 CH2 56.2669982910156 17.0380001068115 23.5839996337891 C 0.0 **** 0.0
@<TRIPOS>BOND
1 1 2 1
2 2 5 1
3 2 3 1
4 3 4 1
5 5 6 1
6 6 7 1
7 6 8 1
8 7 9 1
9 8 11 1
10 8 10 1
11 9 10 1
12 10 12 1
13 11 13 1
14 12 14 1
15 13 14 1
@<TRIPOS>MOLECULE
ALA697
5 4
SMALL
USER_CHARGES


@<TRIPOS>ATOM
1 N 53.0169982910156 12.7910003662109 25.4060001373291 N 0.0 **** 0.0
2 CA 53.1549987792969 12.0100002288818 24.181999206543 C 0.0 **** 0.0
3 C 54.1510009765625 10.8760004043579 24.4209995269775 C 0.0 **** 0.0
4 O 54.8959999084473 10.8680000305176 25.4120006561279 O 0.0 **** 0.0
5 CB 53.6069984436035 12.8769998550415 23.0030002593994 C 0.0 **** 0.0
@<TRIPOS>BOND
1 1 2 1
2 2 3 1
3 2 5 1
4 3 4 1
@<TRIPOS>MOLECULE
ASP698
8 7
SMALL
USER_CHARGES


@<TRIPOS>ATOM
1 N 54.1699981689453 9.92599964141846 23.4860000610352 N 0.0 **** 0.0
2 CA 55.0429992675781 8.76599979400635 23.5869998931885 C 0.0 **** 0.0
3 C 56.3680000305176 9.01599979400635 22.8729991912842 C 0.0 **** 0.0
4 O 56.4970016479492 9.91100025177002 22.0289993286133 O 0.0 **** 0.0
5 CB 54.3660011291504 7.51999998092651 23.0009994506836 C 0.0 **** 0.0
6 CG 53.1769981384277 7.04400014877319 23.8339996337891 C 0.0 **** 0.0
7 OD1 53.0929985046387 7.41499996185303 25.0340003967285 O 0.0 **** 0.0
8 OD2 52.3390007019043 6.28499984741211 23.2940006256104 O 0.0 **** 0.0
@<TRIPOS>BOND
1 1 2 1
2 2 3 1
3 2 5 1
4 3 4 1
5 5 6 1
6 6 8 1
7 6 7 1
@<TRIPOS>MOLECULE
ALA699
5 4
SMALL
USER_CHARGES


@<TRIPOS>ATOM
1 N 57.3660011291504 8.21500015258789 23.2390003204346 N 0.0 **** 0.0
2 CA 58.6469993591309 8.23400020599365 22.5510005950928 C 0.0 **** 0.0
3 C 58.4179992675781 8.10400009155273 21.0499992370605 C 0.0 **** 0.0
4 O 57.5410003662109 7.36100006103516 20.5939998626709 O 0.0 **** 0.0
5 CB 59.5460014343262 7.09000015258789 23.0540008544922 C 0.0 **** 0.0
@<TRIPOS>BOND
1 1 2 1
2 2 5 1
3 2 3 1
4 3 4 1
@<TRIPOS>MOLECULE
GLY700
4 3
SMALL
USER_CHARGES


@<TRIPOS>ATOM
1 N 59.2080001831055 8.8459997177124 20.2749996185303 N 0.0 **** 0.0
2 CA 59.0309982299805 8.8769998550415 18.8320007324219 C 0.0 **** 0.0
3 C 58.1100006103516 9.96100044250488 18.3460006713867 C 0.0 **** 0.0
4 O 58.0670013427734 10.2229995727539 17.1399993896484 O 0.0 **** 0.0
@<TRIPOS>BOND
1 1 2 1
2 2 3 1
3 3 4 1
@<TRIPOS>MOLECULE
HIS701
10 10
SMALL
USER_CHARGES


@<TRIPOS>ATOM
1 N 57.3849983215332 10.621000289917 19.2369995117188 N 0.0 **** 0.0
2 CA 56.576000213623 11.7469997406006 18.8150005340576 C 0.0 **** 0.0
3 C 57.4560012817383 12.8199996948242 18.181999206543 C 0.0 **** 0.0
4 O 58.4609985351563 13.2480001449585 18.7569999694824 O 0.0 **** 0.0
5 CB 55.8240013122559 12.3420000076294 19.992000579834 C 0.0 **** 0.0
6 CG 55.1640014648438 13.6400003433228 19.6560001373291 C 0.0 **** 0.0
7 ND1 53.9630012512207 13.7089996337891 18.9820003509521 N 0.0 **** 0.0
8 CD2 55.5699996948242 14.9169998168945 19.8299999237061 C 0.0 **** 0.0
9 CE1 53.6440010070801 14.9709997177124 18.7779998779297 C 0.0 **** 0.0
10 NE2 54.5970001220703 15.7250003814697 19.2950000762939 N 0.0 **** 0.0
@<TRIPOS>BOND
1 1 2 1
2 2 3 1
3 2 5 1
4 3 4 1
5 5 6 1
6 6 8 1
7 6 7 1
8 7 9 1
9 8 10 1
10 9 10 1
@<TRIPOS>MOLECULE
GLU702
9 8
SMALL
USER_CHARGES


@<TRIPOS>ATOM
1 N 57.0390014648438 13.2950000762939 17.0219993591309 N 0.0 **** 0.0
2 CA 57.8370018005371 14.2449998855591 16.2639999389648 C 0.0 **** 0.0
3 C 57.6020011901855 15.6669998168945 16.7530002593994 C 0.0 **** 0.0
4 O 56.4560012817383 16.132999420166 16.8229999542236 O 0.0 **** 0.0
5 CB 57.4900016784668 14.1300001144409 14.7740001678467 C 0.0 **** 0.0
6 CG 58.2970008850098 15.0419998168945 13.8839998245239 C 0.0 **** 0.0
7 CD 57.8520011901855 14.9350004196167 12.4440002441406 C 0.0 **** 0.0
8 OE1 56.7229995727539 15.3339996337891 12.1470003128052 O 0.0 **** 0.0
9 OE2 58.6110000610352 14.4119997024536 11.6219997406006 O 0.0 **** 0.0
@<TRIPOS>BOND
1 1 2 1
2 2 5 1
3 2 3 1
4 3 4 1
5 5 6 1
6 6 7 1
7 7 8 1
8 7 9 1
@<TRIPOS>MOLECULE
VAL703
7 6
SMALL
USER_CHARGES


@<TRIPOS>ATOM
1 N 58.6920013427734 16.3810005187988 17.0219993591309 N 0.0 **** 0.0
2 CA 58.6360015869141 17.7639999389648 17.4869995117188 C 0.0 **** 0.0
3 C 59.0750007629395 18.753999710083 16.4060001373291 C 0.0 **** 0.0
4 O 58.4480018615723 19.8010005950928 16.2329998016357 O 0.0 **** 0.0
5 CB 59.4910011291504 17.9050006866455 18.7600002288818 C 0.0 **** 0.0
6 CG1 59.7410011291504 19.3719997406006 19.1399993896484 C 0.0 **** 0.0
7 CG2 58.806999206543 17.1550006866455 19.9169998168945 C 0.0 **** 0.0
@<TRIPOS>BOND
1 1 2 1
2 2 5 1
3 2 3 1
4 3 4 1
5 5 6 1
6 5 7 1
@<TRIPOS>MOLECULE
ALA704
5 4
SMALL
USER_CHARGES


@<TRIPOS>ATOM
1 N 60.1559982299805 18.4529991149902 15.6780004501343 N 0.0 **** 0.0
2 CA 60.6949996948242 19.3619995117188 14.6820001602173 C 0.0 **** 0.0
3 C 61.2799987792969 18.5559997558594 13.5190000534058 C 0.0 **** 0.0
4 O 61.6129989624023 17.371000289917 13.6560001373291 O 0.0 **** 0.0
5 CB 61.7639999389648 20.2800006866455 15.2810001373291 C 0.0 **** 0.0
@<TRIPOS>BOND
1 1 2 1
2 2 5 1
3 2 3 1
4 3 4 1
@<TRIPOS>MOLECULE
TRP705
14 15
SMALL
USER_CHARGES


@<TRIPOS>ATOM
1 N 61.4210014343262 19.2129993438721 12.3739995956421 N 0.0 **** 0.0
2 CA 62.0110015869141 18.5170001983643 11.2379999160767 C 0.0 **** 0.0
3 C 62.5610008239746 19.5170001983643 10.2329998016357 C 0.0 **** 0.0
4 O 62.1790008544922 20.6959991455078 10.2229995727539 O 0.0 **** 0.0
5 CB 60.984001159668 17.5900001525879 10.5609998703003 C 0.0 **** 0.0
6 CG 59.7089996337891 18.2689990997314 10.1120004653931 C 0.0 **** 0.0
7 CD1 58.5349998474121 18.3689994812012 10.8179998397827 C 0.0 **** 0.0
8 CD2 59.4749984741211 18.9340000152588 8.86400032043457 C 0.0 **** 0.0
9 NE1 57.6069984436035 19.048999786377 10.0880002975464 N 0.0 **** 0.0
10 CE2 58.1559982299805 19.4200000762939 8.89200019836426 C 0.0 **** 0.0
11 CE3 60.257999420166 19.173999786377 7.73299980163574 C 0.0 **** 0.0
12 CZ2 57.6030006408691 20.1219997406006 7.83400011062622 C 0.0 **** 0.0
13 CZ3 59.7169990539551 19.8549995422363 6.67999982833862 C 0.0 **** 0.0
14 CH2 58.3930015563965 20.3339996337891 6.73199987411499 C 0.0 **** 0.0
@<TRIPOS>BOND
1 1 2 1
2 2 5 1
3 2 3 1
4 3 4 1
5 5 6 1
6 6 7 1
7 6 8 1
8 7 9 1
9 8 10 1
10 8 11 1
11 9 10 1
12 10 12 1
13 11 13 1
14 12 14 1
15 13 14 1
@<TRIPOS>MOLECULE
GLY706
4 3
SMALL
USER_CHARGES


@<TRIPOS>ATOM
1 N 63.439998626709 19.0009994506836 9.36100006103516 N 0.0 **** 0.0
2 CA 63.9500007629395 19.7569999694824 8.22999954223633 C 0.0 **** 0.0
3 C 64.2819976806641 18.806999206543 7.10400009155273 C 0.0 **** 0.0
4 O 64.5429992675781 17.6229991912842 7.3270001411438 O 0.0 **** 0.0
@<TRIPOS>BOND
1 1 2 1
2 2 3 1
3 3 4 1
@<TRIPOS>MOLECULE
GLN707
9 8
SMALL
USER_CHARGES


@<TRIPOS>ATOM
1 N 64.3059997558594 19.3449993133545 5.87799978256226 N 0.0 **** 0.0
2 CA 64.5110015869141 18.507999420166 4.70100021362305 C 0.0 **** 0.0
3 C 65.4570007324219 19.1639995574951 3.71399998664856 C 0.0 **** 0.0
4 O 65.568000793457 20.3899993896484 3.65400004386902 O 0.0 **** 0.0
5 CB 63.2080001831055 18.2390003204346 3.94899988174438 C 0.0 **** 0.0
6 CG 62.173999786377 17.4860000610352 4.72800016403198 C 0.0 **** 0.0
7 CD 60.9169998168945 17.2310009002686 3.92499995231628 C 0.0 **** 0.0
8 OE1 60.2910003662109 18.1620006561279 3.41100001335144 O 0.0 **** 0.0
9 NE2 60.5349998474121 15.9659996032715 3.80999994277954 N 0.0 **** 0.0
@<TRIPOS>BOND
1 1 2 1
2 2 5 1
3 2 3 1
4 3 4 1
5 5 6 1
6 6 7 1
7 7 8 1
8 7 9 1
@<TRIPOS>MOLECULE
SER708
6 5
SMALL
USER_CHARGES


@<TRIPOS>ATOM
1 N 66.0849990844727 18.3190002441406 2.88899993896484 N 0.0 **** 0.0
2 CA 66.7399978637695 18.7439994812012 1.66299998760223 C 0.0 **** 0.0
3 C 66.265998840332 17.8379993438721 0.537999987602234 C 0.0 **** 0.0
4 O 66.3320007324219 16.6119995117188 0.675000011920929 O 0.0 **** 0.0
5 CB 68.2730026245117 18.6700000762939 1.79900002479553 C 0.0 **** 0.0
6 OG 68.8830032348633 18.923999786377 0.524999976158142 O 0.0 **** 0.0
@<TRIPOS>BOND
1 1 2 1
2 2 3 1
3 2 5 1
4 3 4 1
5 5 6 1
@<TRIPOS>MOLECULE
VAL709
7 6
SMALL
USER_CHARGES


@<TRIPOS>ATOM
1 N 65.8089981079102 18.4330005645752 -0.569999992847443 N 0.0 **** 0.0
2 CA 65.177001953125 17.7029991149902 -1.65699994564056 C 0.0 **** 0.0
3 C 66.0770034790039 17.7859992980957 -2.88299989700317 C 0.0 **** 0.0
4 O 66.5080032348633 18.8770008087158 -3.27099990844727 O 0.0 **** 0.0
5 CB 63.7820014953613 18.2700004577637 -1.97899997234344 C 0.0 **** 0.0
6 CG1 63.1870002746582 17.568000793457 -3.19099998474121 C 0.0 **** 0.0
7 CG2 62.8559989929199 18.1529998779297 -0.790000021457672 C 0.0 **** 0.0
@<TRIPOS>BOND
1 1 2 1
2 2 5 1
3 2 3 1
4 3 4 1
5 5 7 1
6 5 6 1
@<TRIPOS>MOLECULE
ARG710
11 10
SMALL
USER_CHARGES


@<TRIPOS>ATOM
1 N 66.3430023193359 16.6450004577637 -3.49799990653992 N 0.0 **** 0.0
2 CA 66.9209976196289 16.6040000915527 -4.83699989318848 C 0.0 **** 0.0
3 C 65.7539978027344 16.5249996185303 -5.80100011825562 C 0.0 **** 0.0
4 O 65.0619964599609 15.5050001144409 -5.86199998855591 O 0.0 **** 0.0
5 CB 67.8610000610352 15.4160003662109 -5.00299978256226 C 0.0 **** 0.0
6 CG 69.0879974365234 15.4949998855591 -4.1399998664856 C 0.0 **** 0.0
7 CD 69.8629989624023 16.7639999389648 -4.38700008392334 C 0.0 **** 0.0
8 NE 70.9729995727539 16.9120006561279 -3.4539999961853 N 0.0 **** 0.0
9 CZ 72.1480026245117 16.318000793457 -3.59699988365173 C 0.0 **** 0.0
10 NH1 72.3820037841797 15.5100002288818 -4.63299989700317 N 0.0 **** 0.0
11 NH2 73.0910034179688 16.5389995574951 -2.71199989318848 N 0.0 **** 0.0
@<TRIPOS>BOND
1 1 2 1
2 2 3 1
3 2 5 1
4 3 4 1
5 5 6 1
6 6 7 1
7 7 8 1
8 8 9 1
9 9 10 1
10 9 11 1
@<TRIPOS>MOLECULE
GLU711
9 8
SMALL
USER_CHARGES


@<TRIPOS>ATOM
1 N 65.5090026855469 17.6270008087158 -6.50299978256226 N 0.0 **** 0.0
2 CA 64.2949981689453 17.7789993286133 -7.27400016784668 C 0.0 **** 0.0
3 C 64.3499984741211 16.9179992675781 -8.53299999237061 C 0.0 **** 0.0
4 O 65.4219970703125 16.7000007629395 -9.09700012207031 O 0.0 **** 0.0
5 CB 64.1050033569336 19.2390003204346 -7.6729998588562 C 0.0 **** 0.0
6 CG 63.8460006713867 20.1630001068115 -6.51300001144409 C 0.0 **** 0.0
7 CD 62.492000579834 19.9050006866455 -5.89499998092651 C 0.0 **** 0.0
8 OE1 61.6940002441406 19.1830005645752 -6.52600002288818 O 0.0 **** 0.0
9 OE2 62.2270011901855 20.4160003662109 -4.78299999237061 O 0.0 **** 0.0
@<TRIPOS>BOND
1 1 2 1
2 2 3 1
3 2 5 1
4 3 4 1
5 5 6 1
6 6 7 1
7 7 8 1
8 7 9 1
@<TRIPOS>MOLECULE
PRO712
7 7
SMALL
USER_CHARGES


@<TRIPOS>ATOM
1 N 63.2050018310547 16.4400005340576 -9.00500011444092 N 0.0 **** 0.0
2 CA 63.173999786377 15.798999786377 -10.3249998092651 C 0.0 **** 0.0
3 C 63.3779983520508 16.8299999237061 -11.418999671936 C 0.0 **** 0.0
4 O 62.9449996948242 17.9769992828369 -11.3030004501343 O 0.0 **** 0.0
5 CB 61.7719993591309 15.1789999008179 -10.3879995346069 C 0.0 **** 0.0
6 CG 60.9389991760254 16.0629997253418 -9.50399971008301 C 0.0 **** 0.0
7 CD 61.8619995117188 16.5270004272461 -8.39999961853027 C 0.0 **** 0.0
@<TRIPOS>BOND
1 1 7 1
2 1 2 1
3 2 5 1
4 2 3 1
5 3 4 1
6 5 6 1
7 6 7 1
@<TRIPOS>MOLECULE
GLY713
4 3
SMALL
USER_CHARGES


@<TRIPOS>ATOM
1 N 64.0579986572266 16.4179992675781 -12.4779996871948 N 0.0 **** 0.0
2 CA 64.2109985351563 17.2880001068115 -13.6260004043579 C 0.0 **** 0.0
3 C 62.875 17.6650009155273 -14.2360000610352 C 0.0 **** 0.0
4 O 61.8549995422363 16.996000289917 -14.0539999008179 O 0.0 **** 0.0
@<TRIPOS>BOND
1 1 2 1
2 2 3 1
3 3 4 1
@<TRIPOS>MOLECULE
ALA714
5 4
SMALL
USER_CHARGES


@<TRIPOS>ATOM
1 N 62.8779983520508 18.7509994506836 -15.0010004043579 N 0.0 **** 0.0
2 CA 61.6189994812012 19.1550006866455 -15.6549997329712 C 0.0 **** 0.0
3 C 61.2190017700195 17.9950008392334 -16.55299949646 C 0.0 **** 0.0
4 O 62.0979995727539 17.3500003814697 -17.0939998626709 O 0.0 **** 0.0
5 CB 61.8279991149902 20.3959999084473 -16.4669990539551 C 0.0 **** 0.0
@<TRIPOS>BOND
1 1 2 1
2 2 5 1
3 2 3 1
4 3 4 1
@<TRIPOS>MOLECULE
PRO715
7 7
SMALL
USER_CHARGES


@<TRIPOS>ATOM
1 N 59.9210014343262 17.7059993743896 -16.7240009307861 N 0.0 **** 0.0
2 CA 59.492000579834 16.6070003509521 -17.5699996948242 C 0.0 **** 0.0
3 C 59.8129997253418 17.0620002746582 -18.996000289917 C 0.0 **** 0.0
4 O 59.6119995117188 18.1879997253418 -19.3199996948242 O 0.0 **** 0.0
5 CB 57.9830017089844 16.6219997406006 -17.3500003814697 C 0.0 **** 0.0
6 CG 57.7029991149902 18.0820007324219 -17.1979999542236 C 0.0 **** 0.0
7 CD 58.8059997558594 18.5219993591309 -16.2649993896484 C 0.0 **** 0.0
@<TRIPOS>BOND
1 1 7 1
2 1 2 1
3 2 5 1
4 2 3 1
5 3 4 1
6 5 6 1
7 6 7 1
@<TRIPOS>MOLECULE
VAL716
7 6
SMALL
USER_CHARGES


@<TRIPOS>ATOM
1 N 60.3019981384277 16.1609992980957 -19.8250007629395 N 0.0 **** 0.0
2 CA 60.6720008850098 16.6119995117188 -21.1909999847412 C 0.0 **** 0.0
3 C 59.4729995727539 16.3479995727539 -22.1000003814697 C 0.0 **** 0.0
4 O 58.9560012817383 15.2270002365112 -22.1079998016357 O 0.0 **** 0.0
5 CB 61.9710006713867 15.9200000762939 -21.6310005187988 C 0.0 **** 0.0
6 CG1 61.8330001831055 14.4130001068115 -21.5629997253418 C 0.0 **** 0.0
7 CG2 62.4500007629395 16.3939990997314 -22.9869995117188 C 0.0 **** 0.0
@<TRIPOS>BOND
1 1 2 1
2 2 5 1
3 2 3 1
4 3 4 1
5 5 6 1
6 5 7 1
@<TRIPOS>MOLECULE
PRO717
7 7
SMALL
USER_CHARGES


@<TRIPOS>ATOM
1 N 58.9850006103516 17.3560009002686 -22.8360004425049 N 0.0 **** 0.0
2 CA 57.8030014038086 17.181999206543 -23.6620006561279 C 0.0 **** 0.0
3 C 58.101001739502 16.1529998779297 -24.7549991607666 C 0.0 **** 0.0
4 O 59.148998260498 16.2019996643066 -25.3010005950928 O 0.0 **** 0.0
5 CB 57.5670013427734 18.5820007324219 -24.2269992828369 C 0.0 **** 0.0
6 CG 58.9169998168945 19.2320003509521 -24.1730003356934 C 0.0 **** 0.0
7 CD 59.5620002746582 18.6760005950928 -22.9260005950928 C 0.0 **** 0.0
@<TRIPOS>BOND
1 1 2 1
2 1 7 1
3 2 5 1
4 2 3 1
5 3 4 1
6 5 6 1
7 6 7 1
@<TRIPOS>MOLECULE
PRO718
7 7
SMALL
USER_CHARGES


@<TRIPOS>ATOM
1 N 57.1640014648438 15.25 -25.0900001525879 N 0.0 **** 0.0
2 CA 57.3899993896484 14.2180004119873 -26.0830001831055 C 0.0 **** 0.0
3 C 57.5699996948242 14.7480001449585 -27.5030002593994 C 0.0 **** 0.0
4 O 57.1370010375977 15.8030004501343 -27.7950000762939 O 0.0 **** 0.0
5 CB 56.117000579834 13.3719997406006 -26.0659999847412 C 0.0 **** 0.0
6 CG 55.076000213623 14.3020000457764 -25.5230007171631 C 0.0 **** 0.0
7 CD 55.826000213623 15.168999671936 -24.5419998168945 C 0.0 **** 0.0
@<TRIPOS>BOND
1 1 7 1
2 1 2 1
3 2 5 1
4 2 3 1
5 3 4 1
6 5 6 1
7 6 7 1
@<TRIPOS>MOLECULE
ALA719
5 4
SMALL
USER_CHARGES


@<TRIPOS>ATOM
1 N 58.2799987792969 13.9829998016357 -28.3239994049072 N 0.0 **** 0.0
2 CA 58.4959983825684 14.3780002593994 -29.7290000915527 C 0.0 **** 0.0
3 C 57.1339988708496 14.3800001144409 -30.4130001068115 C 0.0 **** 0.0
4 O 56.3800010681152 13.4309997558594 -30.2450008392334 O 0.0 **** 0.0
5 CB 59.423999786377 13.3859996795654 -30.375 C 0.0 **** 0.0
@<TRIPOS>BOND
1 1 2 1
2 2 3 1
3 2 5 1
4 3 4 1
@<TRIPOS>MOLECULE
PRO720
7 7
SMALL
USER_CHARGES


@<TRIPOS>ATOM
1 N 56.7809982299805 15.4209995269775 -31.173999786377 N 0.0 **** 0.0
2 CA 55.4679985046387 15.456000328064 -31.8360004425049 C 0.0 **** 0.0
3 C 55.5349998474121 14.7309999465942 -33.1710014343262 C 0.0 **** 0.0
4 O 55.556999206543 15.3319997787476 -34.2509994506836 O 0.0 **** 0.0
5 CB 55.2169990539551 16.9570007324219 -31.9869995117188 C 0.0 **** 0.0
6 CG 56.5929985046387 17.5279998779297 -32.1759986877441 C 0.0 **** 0.0
7 CD 57.5690002441406 16.6280002593994 -31.4729995727539 C 0.0 **** 0.0
@<TRIPOS>BOND
1 1 2 1
2 1 7 1
3 2 3 1
4 2 5 1
5 3 4 1
6 5 6 1
7 6 7 1
@<TRIPOS>MOLECULE
VAL721
7 6
SMALL
USER_CHARGES


@<TRIPOS>ATOM
1 N 55.601001739502 13.4040002822876 -33.076000213623 N 0.0 **** 0.0
2 CA 55.7719993591309 12.5550003051758 -34.2449989318848 C 0.0 **** 0.0
3 C 54.4700012207031 11.9130001068115 -34.681999206543 C 0.0 **** 0.0
4 O 54.4389991760254 11.2840003967285 -35.75 O 0.0 **** 0.0
5 CB 56.8320007324219 11.4619998931885 -33.9910011291504 C 0.0 **** 0.0
6 CG1 58.1520004272461 12.1029996871948 -33.6290016174316 C 0.0 **** 0.0
7 CG2 56.3790016174316 10.4879999160767 -32.882999420166 C 0.0 **** 0.0
@<TRIPOS>BOND
1 1 2 1
2 2 5 1
3 2 3 1
4 3 4 1
5 5 6 1
6 5 7 1
@<TRIPOS>MOLECULE
GLU722
9 8
SMALL
USER_CHARGES


@<TRIPOS>ATOM
1 N 53.3940010070801 12.03600025177 -33.8880004882813 N 0.0 **** 0.0
2 CA 52.0859985351563 11.6070003509521 -34.3559989929199 C 0.0 **** 0.0
3 C 51.4049987792969 12.7510004043579 -35.1040000915527 C 0.0 **** 0.0
4 O 51.4949989318848 13.9130001068115 -34.6860008239746 O 0.0 **** 0.0
5 CB 51.201000213623 11.1669998168945 -33.1980018615723 C 0.0 **** 0.0
6 CG 51.5970001220703 9.86999988555908 -32.5289993286133 C 0.0 **** 0.0
7 CD 51.4659996032715 8.69799995422363 -33.4490013122559 C 0.0 **** 0.0
8 OE1 50.3870010375977 8.53699970245361 -34.0719985961914 O 0.0 **** 0.0
9 OE2 52.4609985351563 7.95300006866455 -33.5610008239746 O 0.0 **** 0.0
@<TRIPOS>BOND
1 1 2 1
2 2 3 1
3 2 5 1
4 3 4 1
5 5 6 1
6 6 7 1
7 7 8 1
8 7 9 1
@<TRIPOS>MOLECULE
PRO723
7 7
SMALL
USER_CHARGES


@<TRIPOS>ATOM
1 N 50.7200012207031 12.4549999237061 -36.2039985656738 N 0.0 **** 0.0
2 CA 49.9490013122559 13.4739999771118 -36.9070014953613 C 0.0 **** 0.0
3 C 48.5190010070801 13.5059995651245 -36.3810005187988 C 0.0 **** 0.0
4 O 48.076000213623 12.6190004348755 -35.648998260498 O 0.0 **** 0.0
5 CB 49.9889984130859 12.9689998626709 -38.3610000610352 C 0.0 **** 0.0
6 CG 49.898998260498 11.4770002365112 -38.1879997253418 C 0.0 **** 0.0
7 CD 50.5839996337891 11.1450004577637 -36.8639984130859 C 0.0 **** 0.0
@<TRIPOS>BOND
1 1 2 1
2 1 7 1
3 2 3 1
4 2 5 1
5 3 4 1
6 5 6 1
7 6 7 1
@<TRIPOS>MOLECULE
VAL724
7 6
SMALL
USER_CHARGES


@<TRIPOS>ATOM
1 N 47.7900009155273 14.5290002822876 -36.8059997558594 N 0.0 **** 0.0
2 CA 46.375 14.6440000534058 -36.4679985046387 C 0.0 **** 0.0
3 C 45.5460014343262 13.8369998931885 -37.4630012512207 C 0.0 **** 0.0
4 O 45.6380004882813 14.0340003967285 -38.685001373291 O 0.0 **** 0.0
5 CB 45.9440002441406 16.1180000305176 -36.4280014038086 C 0.0 **** 0.0
6 CG1 44.4410018920898 16.2439994812012 -36.2089996337891 C 0.0 **** 0.0
7 CG2 46.7140007019043 16.8549995422363 -35.298999786377 C 0.0 **** 0.0
@<TRIPOS>BOND
1 1 2 1
2 2 5 1
3 2 3 1
4 3 4 1
5 5 6 1
6 5 7 1
@<TRIPOS>MOLECULE
GLN725
9 8
SMALL
USER_CHARGES


@<TRIPOS>ATOM
1 N 44.7449989318848 12.9069995880127 -36.9410018920898 N 0.0 **** 0.0
2 CA 43.8019981384277 12.1459999084473 -37.7540016174316 C 0.0 **** 0.0
3 C 42.4560012817383 12.8570003509521 -37.7330017089844 C 0.0 **** 0.0
4 O 41.8889999389648 13.081000328064 -36.6619987487793 O 0.0 **** 0.0
5 CB 43.6430015563965 10.7290000915527 -37.2220001220703 C 0.0 **** 0.0
6 CG 44.7540016174316 9.78999996185303 -37.6049995422363 C 0.0 **** 0.0
7 CD 44.3919982910156 8.35099983215332 -37.3209991455078 C 0.0 **** 0.0
8 OE1 44.0589981079102 8.00399971008301 -36.1809997558594 O 0.0 **** 0.0
9 NE2 44.431999206543 7.50299978256226 -38.3639984130859 N 0.0 **** 0.0
@<TRIPOS>BOND
1 1 2 1
2 2 3 1
3 2 5 1
4 3 4 1
5 5 6 1
6 6 7 1
7 7 8 1
8 7 9 1
@<TRIPOS>MOLECULE
VAL726
7 6
SMALL
USER_CHARGES


@<TRIPOS>ATOM
1 N 41.9280014038086 13.1840000152588 -38.9090003967285 N 0.0 **** 0.0
2 CA 40.7270011901855 14.0019998550415 -39.0209999084473 C 0.0 **** 0.0
3 C 39.5550003051758 13.1219997406006 -39.4169998168945 C 0.0 **** 0.0
4 O 39.6040000915527 12.4479999542236 -40.4490013122559 O 0.0 **** 0.0
5 CB 40.9099998474121 15.125 -40.0509986877441 C 0.0 **** 0.0
6 CG1 39.6139984130859 15.9429998397827 -40.189998626709 C 0.0 **** 0.0
7 CG2 42.1080017089844 15.9910001754761 -39.6749992370605 C 0.0 **** 0.0
@<TRIPOS>BOND
1 1 2 1
2 2 3 1
3 2 5 1
4 3 4 1
5 5 7 1
6 5 6 1
@<TRIPOS>MOLECULE
GLN727
9 8
SMALL
USER_CHARGES


@<TRIPOS>ATOM
1 N 38.4910011291504 13.1660003662109 -38.6290016174316 N 0.0 **** 0.0
2 CA 37.2210006713867 12.5679998397827 -39.0040016174316 C 0.0 **** 0.0
3 C 36.1520004272461 13.6459999084473 -39.0750007629395 C 0.0 **** 0.0
4 O 36.4010009765625 14.826000213623 -38.810001373291 O 0.0 **** 0.0
5 CB 36.8129997253418 11.4750003814697 -38.0229988098145 C 0.0 **** 0.0
6 CG 37.6800003051758 10.25 -38.1209983825684 C 0.0 **** 0.0
7 CD 37.125 9.0959997177124 -37.3289985656738 C 0.0 **** 0.0
8 OE1 36.7519989013672 8.06400012969971 -37.8959999084473 O 0.0 **** 0.0
9 NE2 37.0660018920898 9.25699996948242 -36.0029983520508 N 0.0 **** 0.0
@<TRIPOS>BOND
1 1 2 1
2 2 3 1
3 2 5 1
4 3 4 1
5 5 6 1
6 6 7 1
7 7 8 1
8 7 9 1
@<TRIPOS>MOLECULE
ASP728
8 7
SMALL
USER_CHARGES


@<TRIPOS>ATOM
1 N 34.9440002441406 13.2209997177124 -39.4360008239746 N 0.0 **** 0.0
2 CA 33.859001159668 14.1700000762939 -39.6220016479492 C 0.0 **** 0.0
3 C 33.7210006713867 15.081000328064 -38.4090003967285 C 0.0 **** 0.0
4 O 33.8120002746582 16.3040008544922 -38.5320014953613 O 0.0 **** 0.0
5 CB 32.5550003051758 13.4350004196167 -39.8839988708496 C 0.0 **** 0.0
6 CG 32.4070014953613 13.0159997940063 -41.3300018310547 C 0.0 **** 0.0
7 OD1 33.3709983825684 13.1829996109009 -42.1129989624023 O 0.0 **** 0.0
8 OD2 31.3139991760254 12.5270004272461 -41.6780014038086 O 0.0 **** 0.0
@<TRIPOS>BOND
1 1 2 1
2 2 5 1
3 2 3 1
4 3 4 1
5 5 6 1
6 6 7 1
7 6 8 1
@<TRIPOS>MOLECULE
SER729
6 5
SMALL
USER_CHARGES


@<TRIPOS>ATOM
1 N 33.4959983825684 14.496000289917 -37.226001739502 N 0.0 **** 0.0
2 CA 33.1959991455078 15.2690000534058 -36.0260009765625 C 0.0 **** 0.0
3 C 34.2929992675781 15.2209997177124 -34.9710006713867 C 0.0 **** 0.0
4 O 34.2319984436035 15.9870004653931 -34.0009994506836 O 0.0 **** 0.0
5 CB 31.8850002288818 14.7760000228882 -35.3979988098145 C 0.0 **** 0.0
6 OG 31.9680004119873 13.4020004272461 -35.0909996032715 O 0.0 **** 0.0
@<TRIPOS>BOND
1 1 2 1
2 2 5 1
3 2 3 1
4 3 4 1
5 5 6 1
@<TRIPOS>MOLECULE
GLU730
9 8
SMALL
USER_CHARGES


@<TRIPOS>ATOM
1 N 35.2949981689453 14.3649997711182 -35.1380004882813 N 0.0 **** 0.0
2 CA 36.3450012207031 14.1789999008179 -34.1559982299805 C 0.0 **** 0.0
3 C 37.7019996643066 14.3199996948242 -34.8170013427734 C 0.0 **** 0.0
4 O 37.8549995422363 14.1579999923706 -36.0299987792969 O 0.0 **** 0.0
5 CB 36.2599983215332 12.7980003356934 -33.4939994812012 C 0.0 **** 0.0
6 CG 35.0699996948242 12.6180000305176 -32.5870018005371 C 0.0 **** 0.0
7 CD 34.8569984436035 11.173999786377 -32.1969985961914 C 0.0 **** 0.0
8 OE1 35.2050018310547 10.2810001373291 -33.0029983520508 O 0.0 **** 0.0
9 OE2 34.3349990844727 10.9320001602173 -31.0869998931885 O 0.0 **** 0.0
@<TRIPOS>BOND
1 1 2 1
2 2 3 1
3 2 5 1
4 3 4 1
5 5 6 1
6 6 7 1
7 7 8 1
8 7 9 1
@<TRIPOS>MOLECULE
LEU731
8 7
SMALL
USER_CHARGES


@<TRIPOS>ATOM
1 N 38.6870002746582 14.6070003509521 -33.9850006103516 N 0.0 **** 0.0
2 CA 40.0870018005371 14.5329999923706 -34.3499984741211 C 0.0 **** 0.0
3 C 40.7789993286133 13.5799999237061 -33.3919982910156 C 0.0 **** 0.0
4 O 40.4140014648438 13.4930000305176 -32.2130012512207 O 0.0 **** 0.0
5 CB 40.7709999084473 15.8990001678467 -34.2709999084473 C 0.0 **** 0.0
6 CG 40.1030006408691 17.0650005340576 -34.984001159668 C 0.0 **** 0.0
7 CD1 40.875 18.363000869751 -34.6889991760254 C 0.0 **** 0.0
8 CD2 40.0299987792969 16.7770004272461 -36.4710006713867 C 0.0 **** 0.0
@<TRIPOS>BOND
1 1 2 1
2 2 5 1
3 2 3 1
4 3 4 1
5 5 6 1
6 6 7 1
7 6 8 1
@<TRIPOS>MOLECULE
THR732
7 6
SMALL
USER_CHARGES


@<TRIPOS>ATOM
1 N 41.7960014343262 12.878999710083 -33.8839988708496 N 0.0 **** 0.0
2 CA 42.5960006713867 12.039999961853 -33.0069999694824 C 0.0 **** 0.0
3 C 44.060001373291 12.4230003356934 -33.1419982910156 C 0.0 **** 0.0
4 O 44.5509986877441 12.6879997253418 -34.2430000305176 O 0.0 **** 0.0
5 CB 42.3699989318848 10.5679998397827 -33.3170013427734 C 0.0 **** 0.0
6 OG1 40.9830017089844 10.2700004577637 -33.1180000305176 O 0.0 **** 0.0
7 CG2 43.2029991149902 9.67800045013428 -32.3899993896484 C 0.0 **** 0.0
@<TRIPOS>BOND
1 1 2 1
2 2 3 1
3 2 5 1
4 3 4 1
5 5 6 1
6 5 7 1
@<TRIPOS>MOLECULE
LEU733
8 7
SMALL
USER_CHARGES


@<TRIPOS>ATOM
1 N 44.7430000305176 12.4980001449585 -32.0019989013672 N 0.0 **** 0.0
2 CA 46.1759986877441 12.7729997634888 -31.9890003204346 C 0.0 **** 0.0
3 C 46.7729988098145 11.8140001296997 -30.9659996032715 C 0.0 **** 0.0
4 O 46.6829986572266 12.0430002212524 -29.753999710083 O 0.0 **** 0.0
5 CB 46.4749984741211 14.2340002059937 -31.6639995574951 C 0.0 **** 0.0
6 CG 47.9620018005371 14.6160001754761 -31.5979995727539 C 0.0 **** 0.0
7 CD1 48.6699981689453 14.2889995574951 -32.923999786377 C 0.0 **** 0.0
8 CD2 48.1660003662109 16.0739994049072 -31.2479991912842 C 0.0 **** 0.0
@<TRIPOS>BOND
1 1 2 1
2 2 5 1
3 2 3 1
4 3 4 1
5 5 6 1
6 6 8 1
7 6 7 1
@<TRIPOS>MOLECULE
GLY734
4 3
SMALL
USER_CHARGES


@<TRIPOS>ATOM
1 N 47.3569984436035 10.7250003814697 -31.4629993438721 N 0.0 **** 0.0
2 CA 47.8040008544922 9.65499973297119 -30.6100006103516 C 0.0 **** 0.0
3 C 46.6730003356934 9.17500019073486 -29.7189998626709 C 0.0 **** 0.0
4 O 45.6119995117188 8.76299953460693 -30.1989994049072 O 0.0 **** 0.0
@<TRIPOS>BOND
1 1 2 1
2 2 3 1
3 3 4 1
@<TRIPOS>MOLECULE
PRO735
7 7
SMALL
USER_CHARGES


@<TRIPOS>ATOM
1 N 46.859001159668 9.24499988555908 -28.4029998779297 N 0.0 **** 0.0
2 CA 45.8440017700195 8.72999954223633 -27.4729995727539 C 0.0 **** 0.0
3 C 44.7039985656738 9.68099975585938 -27.1219997406006 C 0.0 **** 0.0
4 O 43.8279991149902 9.28499984741211 -26.3430004119873 O 0.0 **** 0.0
5 CB 46.6780014038086 8.42199993133545 -26.2269992828369 C 0.0 **** 0.0
6 CG 47.8059997558594 9.40999984741211 -26.2719993591309 C 0.0 **** 0.0
7 CD 48.1030006408691 9.63899993896484 -27.7189998626709 C 0.0 **** 0.0
@<TRIPOS>BOND
1 1 2 1
2 1 7 1
3 2 3 1
4 2 5 1
5 3 4 1
6 5 6 1
7 6 7 1
@<TRIPOS>MOLECULE
VAL736
11 20
SMALL
USER_CHARGES


@<TRIPOS>ATOM
1 N 44.6389999389648 10.8830003738403 -27.6800003051758 N 0.0 **** 0.0
2 CA 43.6220016479492 11.8520002365112 -27.2919998168945 C 0.0 **** 0.0
3 CA 43.6380004882813 11.8760004043579 -27.30299949646 C 0.0 **** 0.0
4 C 42.6590003967285 12.039999961853 -28.4529991149902 C 0.0 **** 0.0
5 O 43.0709991455078 12.1510000228882 -29.6200008392334 O 0.0 **** 0.0
6 CB 44.2470016479492 13.1829996109009 -26.826000213623 C 0.0 **** 0.0
7 CB 44.2939987182617 13.2180004119873 -26.9290008544922 C 0.0 **** 0.0
8 CG1 45.2220001220703 13.7180004119873 -27.8360004425049 C 0.0 **** 0.0
9 CG1 43.2379989624023 14.2629995346069 -26.5629997253418 C 0.0 **** 0.0
10 CG2 43.1669998168945 14.2150001525879 -26.4939994812012 C 0.0 **** 0.0
11 CG2 45.2459983825684 13.0150003433228 -25.7679996490479 C 0.0 **** 0.0
@<TRIPOS>BOND
1 1 2 1
2 1 3 1
3 2 3 1
4 2 6 1
5 2 7 1
6 2 4 1
7 3 6 1
8 3 7 1
9 3 4 1
10 4 5 1
11 6 7 1
12 6 8 1
13 6 9 1
14 6 10 1
15 6 11 1
16 7 8 1
17 7 9 1
18 7 10 1
19 7 11 1
20 9 10 1
@<TRIPOS>MOLECULE
VAL737
7 6
SMALL
USER_CHARGES


@<TRIPOS>ATOM
1 N 41.3720016479492 12.0220003128052 -28.1350002288818 N 0.0 **** 0.0
2 CA 40.310001373291 12.2779998779297 -29.0979995727539 C 0.0 **** 0.0
3 C 39.7589988708496 13.6590003967285 -28.7870006561279 C 0.0 **** 0.0
4 O 39.617000579834 14.0150003433228 -27.613000869751 O 0.0 **** 0.0
5 CB 39.2130012512207 11.1990003585815 -29.0170001983643 C 0.0 **** 0.0
6 CG1 38.1539993286133 11.4289999008179 -30.0869998931885 C 0.0 **** 0.0
7 CG2 39.8359985351563 9.80200004577637 -29.1450004577637 C 0.0 **** 0.0
@<TRIPOS>BOND
1 1 2 1
2 2 3 1
3 2 5 1
4 3 4 1
5 5 7 1
6 5 6 1
@<TRIPOS>MOLECULE
PHE738
11 11
SMALL
USER_CHARGES


@<TRIPOS>ATOM
1 N 39.5050010681152 14.451000213623 -29.8209991455078 N 0.0 **** 0.0
2 CA 38.9459991455078 15.7849998474121 -29.6480007171631 C 0.0 **** 0.0
3 C 37.6040000915527 15.9119997024536 -30.3519992828369 C 0.0 **** 0.0
4 O 37.3689994812012 15.3000001907349 -31.3980007171631 O 0.0 **** 0.0
5 CB 39.8660011291504 16.8810005187988 -30.2140007019043 C 0.0 **** 0.0
6 CG 41.2490005493164 16.8969993591309 -29.6399993896484 C 0.0 **** 0.0
7 CD1 42.2239990234375 16.0200004577637 -30.113000869751 C 0.0 **** 0.0
8 CD2 41.5849990844727 17.8010005950928 -28.6429996490479 C 0.0 **** 0.0
9 CE1 43.5009994506836 16.0450000762939 -29.5909996032715 C 0.0 **** 0.0
10 CE2 42.8489990234375 17.8360004425049 -28.125 C 0.0 **** 0.0
11 CZ 43.8079986572266 16.9580001831055 -28.5919990539551 C 0.0 **** 0.0
@<TRIPOS>BOND
1 1 2 1
2 2 3 1
3 2 5 1
4 3 4 1
5 5 6 1
6 6 7 1
7 6 8 1
8 7 9 1
9 8 10 1
10 9 11 1
11 10 11 1
@<TRIPOS>MOLECULE
SER739
6 5
SMALL
USER_CHARGES


@<TRIPOS>ATOM
1 N 36.7449989318848 16.7670001983643 -29.7970008850098 N 0.0 **** 0.0
2 CA 35.5629997253418 17.2280006408691 -30.5100002288818 C 0.0 **** 0.0
3 C 35.9560012817383 18.3439998626709 -31.4820003509521 C 0.0 **** 0.0
4 O 36.5929985046387 19.3229999542236 -31.0699996948242 O 0.0 **** 0.0
5 CB 34.5209999084473 17.7430000305176 -29.5100002288818 C 0.0 **** 0.0
6 OG 33.5890007019043 18.576000213623 -30.1690006256104 O 0.0 **** 0.0
@<TRIPOS>BOND
1 1 2 1
2 2 5 1
3 2 3 1
4 3 4 1
5 5 6 1
@<TRIPOS>MOLECULE
ARG740
11 10
SMALL
USER_CHARGES


@<TRIPOS>ATOM
1 N 35.5859985351563 18.2019996643066 -32.7709999084473 N 0.0 **** 0.0
2 CA 35.8190002441406 19.2919998168945 -33.7200012207031 C 0.0 **** 0.0
3 C 34.8870010375977 20.4699993133545 -33.484001159668 C 0.0 **** 0.0
4 O 35.1539993286133 21.5779991149902 -33.9739990234375 O 0.0 **** 0.0
5 CB 35.6559982299805 18.8020000457764 -35.1790008544922 C 0.0 **** 0.0
6 CG 36.8300018310547 18.0459995269775 -35.6790008544922 C 0.0 **** 0.0
7 CD 36.6319999694824 17.5590000152588 -37.1199989318848 C 0.0 **** 0.0
8 NE 36.6940002441406 18.6380004882813 -38.1040000915527 N 0.0 **** 0.0
9 CZ 36.5839996337891 18.4610004425049 -39.4179992675781 C 0.0 **** 0.0
10 NH1 36.398998260498 17.246000289917 -39.9220008850098 N 0.0 **** 0.0
11 NH2 36.6559982299805 19.5020008087158 -40.2369995117188 N 0.0 **** 0.0
@<TRIPOS>BOND
1 1 2 1
2 2 5 1
3 2 3 1
4 3 4 1
5 5 6 1
6 6 7 1
7 7 8 1
8 8 9 1
9 9 10 1
10 9 11 1
@<TRIPOS>MOLECULE
ALA741
5 4
SMALL
USER_CHARGES


@<TRIPOS>ATOM
1 N 33.7879981994629 20.2549991607666 -32.7630004882813 N 0.0 **** 0.0
2 CA 32.8810005187988 21.3439998626709 -32.451000213623 C 0.0 **** 0.0
3 C 33.3810005187988 22.19700050354 -31.2950000762939 C 0.0 **** 0.0
4 O 33.1349983215332 23.4090003967285 -31.2749996185303 O 0.0 **** 0.0
5 CB 31.4979991912842 20.7910003662109 -32.1209983825684 C 0.0 **** 0.0
@<TRIPOS>BOND
1 1 2 1
2 2 5 1
3 2 3 1
4 3 4 1
@<TRIPOS>MOLECULE
THR742
7 6
SMALL
USER_CHARGES


@<TRIPOS>ATOM
1 N 34.0559997558594 21.5960006713867 -30.3020000457764 N 0.0 **** 0.0
2 CA 34.5279998779297 22.3570003509521 -29.1590003967285 C 0.0 **** 0.0
3 C 36.0340003967285 22.548999786377 -29.1219997406006 C 0.0 **** 0.0
4 O 36.4970016479492 23.5009994506836 -28.492000579834 O 0.0 **** 0.0
5 CB 34.0929985046387 21.693000793457 -27.8369998931885 C 0.0 **** 0.0
6 OG1 34.851001739502 20.4969997406006 -27.6110000610352 O 0.0 **** 0.0
7 CG2 32.609001159668 21.3320007324219 -27.8759994506836 C 0.0 **** 0.0
@<TRIPOS>BOND
1 1 2 1
2 2 3 1
3 2 5 1
4 3 4 1
5 5 6 1
6 5 7 1
@<TRIPOS>MOLECULE
GLY743
4 3
SMALL
USER_CHARGES


@<TRIPOS>ATOM
1 N 36.8019981384277 21.6940002441406 -29.7749996185303 N 0.0 **** 0.0
2 CA 38.2319984436035 21.7140007019043 -29.5879993438721 C 0.0 **** 0.0
3 C 38.6990013122559 21.1070003509521 -28.2870006561279 C 0.0 **** 0.0
4 O 39.9099998474121 21.07200050354 -28.0450000762939 O 0.0 **** 0.0
@<TRIPOS>BOND
1 1 2 1
2 2 3 1
3 3 4 1
@<TRIPOS>MOLECULE
MET744
8 7
SMALL
USER_CHARGES


@<TRIPOS>ATOM
1 N 37.7890014648438 20.6359996795654 -27.4459991455078 N 0.0 **** 0.0
2 CA 38.2150001525879 20.0230007171631 -26.1949996948242 C 0.0 **** 0.0
3 C 38.4529991149902 18.5319995880127 -26.3980007171631 C 0.0 **** 0.0
4 O 37.8059997558594 17.8910007476807 -27.2430000305176 O 0.0 **** 0.0
5 CB 37.1559982299805 20.1919994354248 -25.1240005493164 C 0.0 **** 0.0
6 CG 36.9020004272461 21.6189994812012 -24.6849994659424 C 0.0 **** 0.0
7 SD 35.7029991149902 21.6459999084473 -23.3129997253418 S 0.0 **** 0.0
8 CE 34.1590003967285 21.173999786377 -24.0909996032715 C 0.0 **** 0.0
@<TRIPOS>BOND
1 1 2 1
2 2 5 1
3 2 3 1
4 3 4 1
5 5 6 1
6 6 7 1
7 7 8 1
@<TRIPOS>MOLECULE
PRO745
7 7
SMALL
USER_CHARGES


@<TRIPOS>ATOM
1 N 39.3520011901855 17.9440002441406 -25.6280002593994 N 0.0 **** 0.0
2 CA 39.484001159668 16.4899997711182 -25.6679992675781 C 0.0 **** 0.0
3 C 38.2070007324219 15.8500003814697 -25.1469993591309 C 0.0 **** 0.0
4 O 37.5769996643066 16.3540000915527 -24.2110004425049 O 0.0 **** 0.0
5 CB 40.681999206543 16.2129993438721 -24.75 C 0.0 **** 0.0
6 CG 40.742000579834 17.3619995117188 -23.8430004119873 C 0.0 **** 0.0
7 CD 40.2249984741211 18.5580005645752 -24.6200008392334 C 0.0 **** 0.0
@<TRIPOS>BOND
1 1 7 1
2 1 2 1
3 2 3 1
4 2 5 1
5 3 4 1
6 5 6 1
7 6 7 1
@<TRIPOS>MOLECULE
THR746
7 6
SMALL
USER_CHARGES


@<TRIPOS>ATOM
1 N 37.8139991760254 14.7440004348755 -25.7689990997314 N 0.0 **** 0.0
2 CA 36.7089996337891 13.9350004196167 -25.2719993591309 C 0.0 **** 0.0
3 C 37.1660003662109 12.6190004348755 -24.6499996185303 C 0.0 **** 0.0
4 O 36.3790016174316 11.9739999771118 -23.9479999542236 O 0.0 **** 0.0
5 CB 35.7150001525879 13.6470003128052 -26.4029998779297 C 0.0 **** 0.0
6 OG1 36.4179992675781 13.1079998016357 -27.5330009460449 O 0.0 **** 0.0
7 CG2 34.9910011291504 14.9429998397827 -26.8080005645752 C 0.0 **** 0.0
@<TRIPOS>BOND
1 1 2 1
2 2 3 1
3 2 5 1
4 3 4 1
5 5 6 1
6 5 7 1
@<TRIPOS>MOLECULE
SER747
6 5
SMALL
USER_CHARGES


@<TRIPOS>ATOM
1 N 38.4080009460449 12.210000038147 -24.8740005493164 N 0.0 **** 0.0
2 CA 38.9790000915527 11.0860004425049 -24.1439990997314 C 0.0 **** 0.0
3 C 40.4889984130859 11.1990003585815 -24.2360000610352 C 0.0 **** 0.0
4 O 41.0190010070801 11.7440004348755 -25.2049999237061 O 0.0 **** 0.0
5 CB 38.5029983520508 9.73200035095215 -24.6919994354248 C 0.0 **** 0.0
6 OG 38.9230003356934 9.55300045013428 -26.0359992980957 O 0.0 **** 0.0
@<TRIPOS>BOND
1 1 2 1
2 2 3 1
3 2 5 1
4 3 4 1
5 5 6 1
@<TRIPOS>MOLECULE
ILE748
8 7
SMALL
USER_CHARGES


@<TRIPOS>ATOM
1 N 41.1699981689453 10.7279996871948 -23.1909999847412 N 0.0 **** 0.0
2 CA 42.6209983825684 10.66100025177 -23.1650009155273 C 0.0 **** 0.0
3 C 42.9749984741211 9.22799968719482 -22.7929992675781 C 0.0 **** 0.0
4 O 42.6609992980957 8.77799987792969 -21.6830005645752 O 0.0 **** 0.0
5 CB 43.226001739502 11.6590003967285 -22.1800003051758 C 0.0 **** 0.0
6 CG1 42.818000793457 13.0799999237061 -22.5820007324219 C 0.0 **** 0.0
7 CG2 44.7270011901855 11.5270004272461 -22.1490001678467 C 0.0 **** 0.0
8 CD1 43.1710014343262 14.1520004272461 -21.5300006866455 C 0.0 **** 0.0
@<TRIPOS>BOND
1 1 2 1
2 2 5 1
3 2 3 1
4 3 4 1
5 5 7 1
6 5 6 1
7 6 8 1
@<TRIPOS>MOLECULE
GLY749
4 3
SMALL
USER_CHARGES


@<TRIPOS>ATOM
1 N 43.5750007629395 8.50100040435791 -23.7339992523193 N 0.0 **** 0.0
2 CA 43.8919982910156 7.09800004959106 -23.5049991607666 C 0.0 **** 0.0
3 C 42.7150001525879 6.28700017929077 -23.0160007476807 C 0.0 **** 0.0
4 O 42.882999420166 5.39099979400635 -22.1770000457764 O 0.0 **** 0.0
@<TRIPOS>BOND
1 1 2 1
2 2 3 1
3 3 4 1
@<TRIPOS>MOLECULE
GLY750
4 3
SMALL
USER_CHARGES


@<TRIPOS>ATOM
1 N 41.5120010375977 6.59800004959106 -23.5030002593994 N 0.0 **** 0.0
2 CA 40.3089981079102 5.92000007629395 -23.0790004730225 C 0.0 **** 0.0
3 C 39.6030006408691 6.55600023269653 -21.8999996185303 C 0.0 **** 0.0
4 O 38.423999786377 6.27099990844727 -21.6790008544922 O 0.0 **** 0.0
@<TRIPOS>BOND
1 1 2 1
2 2 3 1
3 3 4 1
@<TRIPOS>MOLECULE
VAL751
7 6
SMALL
USER_CHARGES


@<TRIPOS>ATOM
1 N 40.2799987792969 7.40100002288818 -21.1310005187988 N 0.0 **** 0.0
2 CA 39.6279983520508 8.05500030517578 -20.0030002593994 C 0.0 **** 0.0
3 C 38.689998626709 9.125 -20.5410003662109 C 0.0 **** 0.0
4 O 39.1360015869141 10.0369997024536 -21.2450008392334 O 0.0 **** 0.0
5 CB 40.6539993286133 8.65100002288818 -19.0450000762939 C 0.0 **** 0.0
6 CG1 39.9420013427734 9.4689998626709 -17.9379997253418 C 0.0 **** 0.0
7 CG2 41.5029983520508 7.53000020980835 -18.4580001831055 C 0.0 **** 0.0
@<TRIPOS>BOND
1 1 2 1
2 2 3 1
3 2 5 1
4 3 4 1
5 5 6 1
6 5 7 1
@<TRIPOS>MOLECULE
PRO752
7 7
SMALL
USER_CHARGES


@<TRIPOS>ATOM
1 N 37.3950004577637 9.05000019073486 -20.257999420166 N 0.0 **** 0.0
2 CA 36.4620018005371 10.0010004043579 -20.867000579834 C 0.0 **** 0.0
3 C 36.6319999694824 11.3819999694824 -20.257999420166 C 0.0 **** 0.0
4 O 36.6430015563965 11.5459995269775 -19.0340003967285 O 0.0 **** 0.0
5 CB 35.0870018005371 9.40200042724609 -20.5520000457764 C 0.0 **** 0.0
6 CG 35.3079986572266 8.64599990844727 -19.2980003356934 C 0.0 **** 0.0
7 CD 36.7089996337891 8.10299968719482 -19.3640003204346 C 0.0 **** 0.0
@<TRIPOS>BOND
1 1 7 1
2 1 2 1
3 2 3 1
4 2 5 1
5 3 4 1
6 5 6 1
7 6 7 1
@<TRIPOS>MOLECULE
VAL753
7 6
SMALL
USER_CHARGES


@<TRIPOS>ATOM
1 N 36.7719993591309 12.3769998550415 -21.1180000305176 N 0.0 **** 0.0
2 CA 36.8680000305176 13.7650003433228 -20.6959991455078 C 0.0 **** 0.0
3 C 35.5699996948242 14.4479999542236 -21.0750007629395 C 0.0 **** 0.0
4 O 35.2229995727539 14.5030002593994 -22.2609996795654 O 0.0 **** 0.0
5 CB 38.0519981384277 14.4700002670288 -21.3570003509521 C 0.0 **** 0.0
6 CG1 38.0970001220703 15.918999671936 -20.9220008850098 C 0.0 **** 0.0
7 CG2 39.3289985656738 13.7299995422363 -21.0499992370605 C 0.0 **** 0.0
@<TRIPOS>BOND
1 1 2 1
2 2 5 1
3 2 3 1
4 3 4 1
5 5 6 1
6 5 7 1
@<TRIPOS>MOLECULE
GLU754
9 8
SMALL
USER_CHARGES


@<TRIPOS>ATOM
1 N 34.8610000610352 14.9759998321533 -20.0699996948242 N 0.0 **** 0.0
2 CA 33.6110000610352 15.6780004501343 -20.3099994659424 C 0.0 **** 0.0
3 C 33.8289985656738 17.1580009460449 -20.5610008239746 C 0.0 **** 0.0
4 O 33.0709991455078 17.7609996795654 -21.3299999237061 O 0.0 **** 0.0
5 CB 32.6529998779297 15.5010004043579 -19.1319999694824 C 0.0 **** 0.0
6 CG 32.2220001220703 14.0539999008179 -18.9290008544922 C 0.0 **** 0.0
7 CD 30.9249992370605 13.9130001068115 -18.1550006866455 C 0.0 **** 0.0
8 OE1 30.3969993591309 14.9549999237061 -17.7040004730225 O 0.0 **** 0.0
9 OE2 30.4330005645752 12.7629995346069 -18.0069999694824 O 0.0 **** 0.0
@<TRIPOS>BOND
1 1 2 1
2 2 3 1
3 2 5 1
4 3 4 1
5 5 6 1
6 6 7 1
7 7 9 1
8 7 8 1
@<TRIPOS>MOLECULE
LYS755
9 8
SMALL
USER_CHARGES


@<TRIPOS>ATOM
1 N 34.8819999694824 17.7369995117188 -19.988000869751 N 0.0 **** 0.0
2 CA 35.1469993591309 19.1560001373291 -20.1679992675781 C 0.0 **** 0.0
3 C 36.6150016784668 19.451000213623 -19.8560009002686 C 0.0 **** 0.0
4 O 37.2270011901855 18.798999786377 -19.0020008087158 O 0.0 **** 0.0
5 CB 34.2290000915527 19.9729995727539 -19.2590007781982 C 0.0 **** 0.0
6 CG 34.2099990844727 21.443000793457 -19.5620002746582 C 0.0 **** 0.0
7 CD 33.2410011291504 22.1639995574951 -18.6340007781982 C 0.0 **** 0.0
8 CE 33.1150016784668 23.6590003967285 -18.9629993438721 C 0.0 **** 0.0
9 NZ 32.5289993286133 24.4130001068115 -17.8150005340576 N 0.0 **** 0.0
@<TRIPOS>BOND
1 1 2 1
2 2 5 1
3 2 3 1
4 3 4 1
5 5 6 1
6 6 7 1
7 7 8 1
8 8 9 1
@<TRIPOS>MOLECULE
LEU756
8 7
SMALL
USER_CHARGES


@<TRIPOS>ATOM
1 N 37.1769981384277 20.4200000762939 -20.5769996643066 N 0.0 **** 0.0
2 CA 38.4700012207031 20.9969997406006 -20.2250003814697 C 0.0 **** 0.0
3 C 38.4029998779297 22.5100002288818 -20.4340000152588 C 0.0 **** 0.0
4 O 37.9379997253418 22.9669990539551 -21.4839992523193 O 0.0 **** 0.0
5 CB 39.6040000915527 20.4080009460449 -21.0510005950928 C 0.0 **** 0.0
6 CG 40.9469985961914 21.1219997406006 -20.8719997406006 C 0.0 **** 0.0
7 CD1 41.5019989013672 20.9270000457764 -19.4459991455078 C 0.0 **** 0.0
8 CD2 41.9389991760254 20.6259994506836 -21.8780002593994 C 0.0 **** 0.0
@<TRIPOS>BOND
1 1 2 1
2 2 5 1
3 2 3 1
4 3 4 1
5 5 6 1
6 6 7 1
7 6 8 1
@<TRIPOS>MOLECULE
GLY757
4 3
SMALL
USER_CHARGES


@<TRIPOS>ATOM
1 N 38.8870010375977 23.2759990692139 -19.4570007324219 N 0.0 **** 0.0
2 CA 38.8660011291504 24.7199993133545 -19.5879993438721 C 0.0 **** 0.0
3 C 39.7270011901855 25.4020004272461 -18.5510005950928 C 0.0 **** 0.0
4 O 40.2490005493164 24.7779998779297 -17.6159992218018 O 0.0 **** 0.0
@<TRIPOS>BOND
1 1 2 1
2 2 3 1
3 3 4 1
@<TRIPOS>MOLECULE
LEU758
8 7
SMALL
USER_CHARGES


@<TRIPOS>ATOM
1 N 39.8639984130859 26.7080001831055 -18.7369995117188 N 0.0 **** 0.0
2 CA 40.6080017089844 27.5429992675781 -17.8090000152588 C 0.0 **** 0.0
3 C 39.7949981689453 27.8239994049072 -16.5470008850098 C 0.0 **** 0.0
4 O 38.5750007629395 28.0109996795654 -16.5939998626709 O 0.0 **** 0.0
5 CB 40.9700012207031 28.8719997406006 -18.4629993438721 C 0.0 **** 0.0
6 CG 41.9720001220703 29.757999420166 -17.7140007019043 C 0.0 **** 0.0
7 CD1 43.3400001525879 29.298999786377 -18.0109996795654 C 0.0 **** 0.0
8 CD2 41.7890014648438 31.1860008239746 -18.1359996795654 C 0.0 **** 0.0
@<TRIPOS>BOND
1 1 2 1
2 2 5 1
3 2 3 1
4 3 4 1
5 5 6 1
6 6 7 1
7 6 8 1
@<TRIPOS>MOLECULE
THR759
7 6
SMALL
USER_CHARGES


@<TRIPOS>ATOM
1 N 40.5 27.882999420166 -15.4099998474121 N 0.0 **** 0.0
2 CA 39.9329986572266 28.3360004425049 -14.1529998779297 C 0.0 **** 0.0
3 C 40.6510009765625 29.5869998931885 -13.6920003890991 C 0.0 **** 0.0
4 O 41.8730010986328 29.693000793457 -13.8319997787476 O 0.0 **** 0.0
5 CB 40.0719985961914 27.2800006866455 -13.0459995269775 C 0.0 **** 0.0
6 OG1 41.4599990844727 26.9370002746582 -12.8850002288818 O 0.0 **** 0.0
7 CG2 39.257999420166 26.0510005950928 -13.3809995651245 C 0.0 **** 0.0
@<TRIPOS>BOND
1 1 2 1
2 2 5 1
3 2 3 1
4 3 4 1
5 5 6 1
6 5 7 1
@<TRIPOS>MOLECULE
LEU760
8 7
SMALL
USER_CHARGES


@<TRIPOS>ATOM
1 N 39.8860015869141 30.5090007781982 -13.0970001220703 N 0.0 **** 0.0
2 CA 40.3979988098145 31.7220001220703 -12.4890003204346 C 0.0 **** 0.0
3 C 39.806999206543 31.9409999847412 -11.1059999465942 C 0.0 **** 0.0
4 O 40.1749992370605 32.9099998474121 -10.4329996109009 O 0.0 **** 0.0
5 CB 40.0660018920898 32.9449996948242 -13.3610000610352 C 0.0 **** 0.0
6 CG 40.6139984130859 32.9339981079102 -14.7950000762939 C 0.0 **** 0.0
7 CD1 40.0929985046387 34.1389999389648 -15.6040000915527 C 0.0 **** 0.0
8 CD2 42.1539993286133 32.9309997558594 -14.7600002288818 C 0.0 **** 0.0
@<TRIPOS>BOND
1 1 2 1
2 2 5 1
3 2 3 1
4 3 4 1
5 5 6 1
6 6 8 1
7 6 7 1
@<TRIPOS>MOLECULE
TRP761
14 15
SMALL
USER_CHARGES


@<TRIPOS>ATOM
1 N 38.9010009765625 31.0729999542236 -10.6660003662109 N 0.0 **** 0.0
2 CA 38.0800018310547 31.306999206543 -9.47900009155273 C 0.0 **** 0.0
3 C 38.056999206543 30.0470008850098 -8.62399959564209 C 0.0 **** 0.0
4 O 38.2910003662109 28.9330005645752 -9.11600017547607 O 0.0 **** 0.0
5 CB 36.6459999084473 31.6870002746582 -9.91699981689453 C 0.0 **** 0.0
6 CG 35.5639991760254 31.8199996948242 -8.84200000762939 C 0.0 **** 0.0
7 CD1 35.3009986877441 32.9210014343262 -8.04699993133545 C 0.0 **** 0.0
8 CD2 34.568000793457 30.8490009307861 -8.50500011444092 C 0.0 **** 0.0
9 NE1 34.2029991149902 32.6780014038086 -7.24700021743774 N 0.0 **** 0.0
10 CE2 33.7360000610352 31.4220008850098 -7.51900005340576 C 0.0 **** 0.0
11 CE3 34.2840003967285 29.5599994659424 -8.95899963378906 C 0.0 **** 0.0
12 CZ2 32.6599998474121 30.742000579834 -6.96199989318848 C 0.0 **** 0.0
13 CZ3 33.201000213623 28.878999710083 -8.39299964904785 C 0.0 **** 0.0
14 CH2 32.4039993286133 29.4820003509521 -7.40399980545044 C 0.0 **** 0.0
@<TRIPOS>BOND
1 1 2 1
2 2 3 1
3 2 5 1
4 3 4 1
5 5 6 1
6 6 7 1
7 6 8 1
8 7 9 1
9 8 11 1
10 8 10 1
11 9 10 1
12 10 12 1
13 11 13 1
14 12 14 1
15 13 14 1
@<TRIPOS>MOLECULE
TRP762
14 15
SMALL
USER_CHARGES


@<TRIPOS>ATOM
1 N 37.7379989624023 30.2210006713867 -7.35400009155273 N 0.0 **** 0.0
2 CA 37.5 29.0960006713867 -6.47100019454956 C 0.0 **** 0.0
3 C 36.318000793457 29.4230003356934 -5.56599998474121 C 0.0 **** 0.0
4 O 35.9329986572266 30.5860004425049 -5.40899991989136 O 0.0 **** 0.0
5 CB 38.7820014953613 28.7180004119873 -5.67899990081787 C 0.0 **** 0.0
6 CG 39.2980003356934 29.6469993591309 -4.57800006866455 C 0.0 **** 0.0
7 CD1 38.5750007629395 30.4860000610352 -3.7739999294281 C 0.0 **** 0.0
8 CD2 40.6689987182617 29.806999206543 -4.17899990081787 C 0.0 **** 0.0
9 NE1 39.4119987487793 31.1410007476807 -2.88299989700317 N 0.0 **** 0.0
10 CE2 40.6949996948242 30.7299995422363 -3.10700011253357 C 0.0 **** 0.0
11 CE3 41.8730010986328 29.242000579834 -4.60799980163574 C 0.0 **** 0.0
12 CZ2 41.8800010681152 31.1079998016357 -2.46499991416931 C 0.0 **** 0.0
13 CZ3 43.0480003356934 29.6189994812012 -3.97099995613098 C 0.0 **** 0.0
14 CH2 43.0349998474121 30.5550003051758 -2.90700006484985 C 0.0 **** 0.0
@<TRIPOS>BOND
1 1 2 1
2 2 3 1
3 2 5 1
4 3 4 1
5 5 6 1
6 6 7 1
7 6 8 1
8 7 9 1
9 8 10 1
10 8 11 1
11 9 10 1
12 10 12 1
13 11 13 1
14 12 14 1
15 13 14 1
@<TRIPOS>MOLECULE
ALA763
5 4
SMALL
USER_CHARGES


@<TRIPOS>ATOM
1 N 35.7350006103516 28.3840007781982 -4.96500015258789 N 0.0 **** 0.0
2 CA 34.625 28.6000003814697 -4.05600023269653 C 0.0 **** 0.0
3 C 35.1059989929199 29.3729991912842 -2.82299995422363 C 0.0 **** 0.0
4 O 35.9599990844727 28.8619995117188 -2.07599997520447 O 0.0 **** 0.0
5 CB 34.0069999694824 27.2749996185303 -3.625 C 0.0 **** 0.0
@<TRIPOS>BOND
1 1 2 1
2 2 5 1
3 2 3 1
4 3 4 1
@<TRIPOS>MOLECULE
PRO764
7 7
SMALL
USER_CHARGES


@<TRIPOS>ATOM
1 N 34.5870018005371 30.5729999542236 -2.56800007820129 N 0.0 **** 0.0
2 CA 35.1559982299805 31.44700050354 -1.54299998283386 C 0.0 **** 0.0
3 C 35.3660011291504 30.7819995880127 -0.199000000953674 C 0.0 **** 0.0
4 O 34.4739990234375 30.1340007781982 0.337000012397766 O 0.0 **** 0.0
5 CB 34.109001159668 32.5390014648438 -1.40799999237061 C 0.0 **** 0.0
6 CG 33.5449981689453 32.6479988098145 -2.72900009155273 C 0.0 **** 0.0
7 CD 33.5820007324219 31.2849998474121 -3.35199999809265 C 0.0 **** 0.0
@<TRIPOS>BOND
1 1 7 1
2 1 2 1
3 2 5 1
4 2 3 1
5 3 4 1
6 5 6 1
7 6 7 1
@<TRIPOS>MOLECULE
THR765
7 6
SMALL
USER_CHARGES


@<TRIPOS>ATOM
1 N 36.5439987182617 30.9939994812012 0.35699999332428 N 0.0 **** 0.0
2 CA 36.798999786377 30.6110000610352 1.75100004673004 C 0.0 **** 0.0
3 C 36.0979995727539 31.5639991760254 2.70700001716614 C 0.0 **** 0.0
4 O 35.5830001831055 32.6150016784668 2.33200001716614 O 0.0 **** 0.0
5 CB 38.2840003967285 30.6439990997314 2.04699993133545 C 0.0 **** 0.0
6 OG1 38.7150001525879 31.9990005493164 2.02600002288818 O 0.0 **** 0.0
7 CG2 39.1049995422363 29.8460006713867 0.998000025749207 C 0.0 **** 0.0
@<TRIPOS>BOND
1 1 2 1
2 2 5 1
3 2 3 1
4 3 4 1
5 5 7 1
6 5 6 1
@<TRIPOS>MOLECULE
ASP766
8 7
SMALL
USER_CHARGES


@<TRIPOS>ATOM
1 N 36.1100006103516 31.2189998626709 4.00099992752075 N 0.0 **** 0.0
2 CA 35.5960006713867 32.1619987487793 4.97300004959106 C 0.0 **** 0.0
3 C 36.3489990234375 33.4830017089844 4.89900016784668 C 0.0 **** 0.0
4 O 35.7470016479492 34.5610008239746 5.0479998588562 O 0.0 **** 0.0
5 CB 35.673999786377 31.5470008850098 6.37900018692017 C 0.0 **** 0.0
6 CG 34.7239990234375 30.3819999694824 6.53399991989136 C 0.0 **** 0.0
7 OD1 33.5919990539551 30.4850006103516 6.01700019836426 O 0.0 **** 0.0
8 OD2 35.1100006103516 29.371000289917 7.15399980545044 O 0.0 **** 0.0
@<TRIPOS>BOND
1 1 2 1
2 2 5 1
3 2 3 1
4 3 4 1
5 5 6 1
6 6 7 1
7 6 8 1
@<TRIPOS>MOLECULE
ASN767
8 7
SMALL
USER_CHARGES


@<TRIPOS>ATOM
1 N 37.6599998474121 33.431999206543 4.66800022125244 N 0.0 **** 0.0
2 CA 38.4220008850098 34.681999206543 4.57399988174438 C 0.0 **** 0.0
3 C 37.9860000610352 35.5270004272461 3.37800002098084 C 0.0 **** 0.0
4 O 37.9059982299805 36.7560005187988 3.48699998855591 O 0.0 **** 0.0
5 CB 39.9169998168945 34.3889999389648 4.5019998550415 C 0.0 **** 0.0
6 CG 40.443000793457 33.898998260498 5.83599996566772 C 0.0 **** 0.0
7 OD1 39.9300003051758 34.298999786377 6.89099979400635 O 0.0 **** 0.0
8 ND2 41.3919982910156 32.9659996032715 5.80200004577637 N 0.0 **** 0.0
@<TRIPOS>BOND
1 1 2 1
2 2 5 1
3 2 3 1
4 3 4 1
5 5 6 1
6 6 7 1
7 6 8 1
@<TRIPOS>MOLECULE
ASP768
8 7
SMALL
USER_CHARGES


@<TRIPOS>ATOM
1 N 37.7089996337891 34.890998840332 2.25 N 0.0 **** 0.0
2 CA 37.2630004882813 35.617000579834 1.06400001049042 C 0.0 **** 0.0
3 C 35.9000015258789 36.2599983215332 1.25699996948242 C 0.0 **** 0.0
4 O 35.5610008239746 37.201000213623 0.533999979496002 O 0.0 **** 0.0
5 CB 37.2019996643066 34.6759986877441 -0.151999995112419 C 0.0 **** 0.0
6 CG 38.523998260498 34.0530014038086 -0.477999985218048 C 0.0 **** 0.0
7 OD1 39.5820007324219 34.689998626709 -0.261999994516373 O 0.0 **** 0.0
8 OD2 38.515998840332 32.8950004577637 -0.941999971866608 O 0.0 **** 0.0
@<TRIPOS>BOND
1 1 2 1
2 2 3 1
3 2 5 1
4 3 4 1
5 5 6 1
6 6 7 1
7 6 8 1
@<TRIPOS>MOLECULE
LEU769
8 7
SMALL
USER_CHARGES


@<TRIPOS>ATOM
1 N 35.1080017089844 35.765998840332 2.19300007820129 N 0.0 **** 0.0
2 CA 33.8470001220703 36.4169998168945 2.51999998092651 C 0.0 **** 0.0
3 C 34.0050010681152 37.6110000610352 3.46799993515015 C 0.0 **** 0.0
4 O 33.0130004882813 38.2980003356934 3.72699999809265 O 0.0 **** 0.0
5 CB 32.8899993896484 35.390998840332 3.125 C 0.0 **** 0.0
6 CG 32.4640007019043 34.2760009765625 2.18199992179871 C 0.0 **** 0.0
7 CD1 31.8120002746582 33.1290016174316 2.95900011062622 C 0.0 **** 0.0
8 CD2 31.5069999694824 34.7869987487793 1.10599994659424 C 0.0 **** 0.0
@<TRIPOS>BOND
1 1 2 1
2 2 3 1
3 2 5 1
4 3 4 1
5 5 6 1
6 6 8 1
7 6 7 1
@<TRIPOS>MOLECULE
GLY770
4 3
SMALL
USER_CHARGES


@<TRIPOS>ATOM
1 N 35.2179985046387 37.9129981994629 3.94099998474121 N 0.0 **** 0.0
2 CA 35.4339981079102 39.0559997558594 4.82000017166138 C 0.0 **** 0.0
3 C 35.8839988708496 40.2799987792969 4.03299999237061 C 0.0 **** 0.0
4 O 36.5 40.1669998168945 2.97499990463257 O 0.0 **** 0.0
@<TRIPOS>BOND
1 1 2 1
2 2 3 1
3 3 4 1
@<TRIPOS>MOLECULE
ARG771
11 10
SMALL
USER_CHARGES


@<TRIPOS>ATOM
1 N 35.5289993286133 41.4529991149902 4.54099988937378 N 0.0 **** 0.0
2 CA 35.9659996032715 42.7080001831055 3.94099998474121 C 0.0 **** 0.0
3 C 37.4420013427734 42.9259986877441 4.20499992370605 C 0.0 **** 0.0
4 O 37.9570007324219 42.5730018615723 5.26700019836426 O 0.0 **** 0.0
5 CB 35.1749992370605 43.8819999694824 4.50799989700317 C 0.0 **** 0.0
6 CG 33.6780014038086 43.6699981689453 4.48099994659424 C 0.0 **** 0.0
7 CD 32.8950004577637 44.9669990539551 4.67999982833862 C 0.0 **** 0.0
8 NE 31.4459991455078 44.7509994506836 4.53800010681152 N 0.0 **** 0.0
9 CZ 30.7590007781982 44.8460006713867 3.39400005340576 C 0.0 **** 0.0
10 NH1 31.3719997406006 45.1669998168945 2.25500011444092 N 0.0 **** 0.0
11 NH2 29.4409999847412 44.6209983825684 3.38800001144409 N 0.0 **** 0.0
@<TRIPOS>BOND
1 1 2 1
2 2 3 1
3 2 5 1
4 3 4 1
5 5 6 1
6 6 7 1
7 7 8 1
8 8 9 1
9 9 11 1
10 9 10 1
@<TRIPOS>MOLECULE
GLU772
9 8
SMALL
USER_CHARGES


@<TRIPOS>ATOM
1 N 38.1189994812012 43.5139999389648 3.23699998855591 N 0.0 **** 0.0
2 CA 39.4790000915527 44.0089988708496 3.41300010681152 C 0.0 **** 0.0
3 C 39.4059982299805 45.5320014953613 3.44400000572205 C 0.0 **** 0.0
4 O 39.1529998779297 46.1769981384277 2.41799998283386 O 0.0 **** 0.0
5 CB 40.4150009155273 43.515998840332 2.30599999427795 C 0.0 **** 0.0
6 CG 41.1879997253418 42.2410011291504 2.63599991798401 C 0.0 **** 0.0
7 CD 41.4659996032715 41.4249992370605 1.38999998569489 C 0.0 **** 0.0
8 OE1 40.5060005187988 41.189998626709 0.611999988555908 O 0.0 **** 0.0
9 OE2 42.6399993896484 41.0379981994629 1.18599998950958 O 0.0 **** 0.0
@<TRIPOS>BOND
1 1 2 1
2 2 3 1
3 2 5 1
4 3 4 1
5 5 6 1
6 6 7 1
7 7 9 1
8 7 8 1
@<TRIPOS>MOLECULE
TRP773
14 15
SMALL
USER_CHARGES


@<TRIPOS>ATOM
1 N 39.5909996032715 46.056999206543 4.64300012588501 N 0.0 **** 0.0
2 CA 39.4589996337891 47.4819984436035 5.02299976348877 C 0.0 **** 0.0
3 C 40.5890007019043 48.3380012512207 4.44199991226196 C 0.0 **** 0.0
4 O 40.4690017700195 49.5800018310547 4.48799991607666 O 0.0 **** 0.0
5 CB 39.4039993286133 47.5460014343262 6.55000019073486 C 0.0 **** 0.0
6 CG 38.3740005493164 46.6370010375977 7.13600015640259 C 0.0 **** 0.0
7 CD1 38.5620002746582 45.3759994506836 7.59999990463257 C 0.0 **** 0.0
8 CD2 36.9830017089844 46.9259986877441 7.33699989318848 C 0.0 **** 0.0
9 NE1 37.3899993896484 44.8559989929199 8.06599998474121 N 0.0 **** 0.0
10 CE2 36.4039993286133 45.7830009460449 7.92000007629395 C 0.0 **** 0.0
11 CE3 36.1679992675781 48.0289993286133 7.07399988174438 C 0.0 **** 0.0
12 CZ2 35.0550003051758 45.7099990844727 8.23799991607666 C 0.0 **** 0.0
13 CZ3 34.8330001831055 47.9599990844727 7.39799976348877 C 0.0 **** 0.0
14 CH2 34.2900009155273 46.818000793457 7.98199987411499 C 0.0 **** 0.0
@<TRIPOS>BOND
1 1 2 1
2 2 5 1
3 2 3 1
4 3 4 1
5 5 6 1
6 6 8 1
7 6 7 1
8 7 9 1
9 8 10 1
10 8 11 1
11 9 10 1
12 10 12 1
13 11 13 1
14 12 14 1
15 13 14 1
@<TRIPOS>MOLECULE
GLY774
4 3
SMALL
USER_CHARGES


@<TRIPOS>ATOM
1 N 41.5989990234375 47.6990013122559 3.85599994659424 N 0.0 **** 0.0
2 CA 42.8209991455078 48.3709983825684 3.37599992752075 C 0.0 **** 0.0
3 C 42.6380004882813 49.4739990234375 2.34299993515015 C 0.0 **** 0.0
4 O 43.3559989929199 50.476001739502 2.46900010108948 O 0.0 **** 0.0
@<TRIPOS>BOND
1 1 2 1
2 2 3 1
3 3 4 1
@<TRIPOS>MOLECULE
GLY775
4 3
SMALL
USER_CHARGES


@<TRIPOS>ATOM
1 N 41.7299995422363 49.3310012817383 1.37300002574921 N 0.0 **** 0.0
2 CA 41.5830001831055 50.326000213623 0.293999999761581 C 0.0 **** 0.0
3 C 40.1809997558594 50.8849983215332 0.194000005722046 C 0.0 **** 0.0
4 O 39.4220008850098 50.6790008544922 1.14600002765656 O 0.0 **** 0.0
@<TRIPOS>BOND
1 1 2 1
2 2 3 1
3 3 4 1
@<TRIPOS>MOLECULE
ALA776
5 4
SMALL
USER_CHARGES


@<TRIPOS>ATOM
1 N 39.8800010681152 51.5859985351563 -0.908999979496002 N 0.0 **** 0.0
2 CA 38.568000793457 52.1629981994629 -1.17799997329712 C 0.0 **** 0.0
3 C 37.5660018920898 51.1279983520508 -1.66700005531311 C 0.0 **** 0.0
4 O 36.3959999084473 51.4710006713867 -1.89199995994568 O 0.0 **** 0.0
5 CB 38.6629981994629 53.2770004272461 -2.23099994659424 C 0.0 **** 0.0
@<TRIPOS>BOND
1 1 2 1
2 2 3 1
3 2 5 1
4 3 4 1
@<TRIPOS>MOLECULE
ASP777
8 7
SMALL
USER_CHARGES


@<TRIPOS>ATOM
1 N 38.0050010681152 49.8940010070801 -1.87600004673004 N 0.0 **** 0.0
2 CA 37.0999984741211 48.7970008850098 -2.19400000572205 C 0.0 **** 0.0
3 C 36.9679985046387 47.9770011901855 -0.933000028133392 C 0.0 **** 0.0
4 O 37.9070014953613 47.2830009460449 -0.53600001335144 O 0.0 **** 0.0
5 CB 37.6189994812012 47.9329986572266 -3.33999991416931 C 0.0 **** 0.0
6 CG 36.548999786377 47.0219993591309 -3.92199993133545 C 0.0 **** 0.0
7 OD1 35.3650016784668 47.1349983215332 -3.5 O 0.0 **** 0.0
8 OD2 36.9119987487793 46.2080001831055 -4.80700016021729 O 0.0 **** 0.0
@<TRIPOS>BOND
1 1 2 1
2 2 3 1
3 2 5 1
4 3 4 1
5 5 6 1
6 6 7 1
7 6 8 1
@<TRIPOS>MOLECULE
GLU778
9 8
SMALL
USER_CHARGES


@<TRIPOS>ATOM
1 N 35.8110008239746 48.0330009460449 -0.312000006437302 N 0.0 **** 0.0
2 CA 35.6080017089844 47.2120018005371 0.86599999666214 C 0.0 **** 0.0
3 C 34.7210006713867 46.0089988708496 0.597000002861023 C 0.0 **** 0.0
4 O 34.3870010375977 45.2789993286133 1.54299998283386 O 0.0 **** 0.0
5 CB 35.0830001831055 48.0800018310547 2.01399993896484 C 0.0 **** 0.0
6 CG 36.2299995422363 48.9280014038086 2.61899995803833 C 0.0 **** 0.0
7 CD 35.8489990234375 49.6759986877441 3.8970000743866 C 0.0 **** 0.0
8 OE1 34.6599998474121 49.6419982910156 4.29199981689453 O 0.0 **** 0.0
9 OE2 36.757999420166 50.2910003662109 4.50600004196167 O 0.0 **** 0.0
@<TRIPOS>BOND
1 1 2 1
2 2 3 1
3 2 5 1
4 3 4 1
5 5 6 1
6 6 7 1
7 7 8 1
8 7 9 1
@<TRIPOS>MOLECULE
ARG779
11 10
SMALL
USER_CHARGES


@<TRIPOS>ATOM
1 N 34.4020004272461 45.7270011901855 -0.667999982833862 N 0.0 **** 0.0
2 CA 33.7200012207031 44.4830017089844 -0.977999985218048 C 0.0 **** 0.0
3 C 34.6139984130859 43.3160018920898 -0.583000004291534 C 0.0 **** 0.0
4 O 35.8199996948242 43.3330001831055 -0.870999991893768 O 0.0 **** 0.0
5 CB 33.3800010681152 44.3759994506836 -2.46600008010864 C 0.0 **** 0.0
6 CG 32.318000793457 45.351001739502 -2.94400000572205 C 0.0 **** 0.0
7 CD 32.2270011901855 45.3390007019043 -4.46500015258789 C 0.0 **** 0.0
8 NE 33.523998260498 45.5830001831055 -5.0770001411438 N 0.0 **** 0.0
9 CZ 33.8450012207031 45.2610015869141 -6.33300018310547 C 0.0 **** 0.0
10 NH1 32.9720001220703 44.6370010375977 -7.13000011444092 N 0.0 **** 0.0
11 NH2 35.068000793457 45.5369987487793 -6.78599977493286 N 0.0 **** 0.0
@<TRIPOS>BOND
1 1 2 1
2 2 3 1
3 2 5 1
4 3 4 1
5 5 6 1
6 6 7 1
7 7 8 1
8 8 9 1
9 9 10 1
10 9 11 1
@<TRIPOS>MOLECULE
PRO780
7 7
SMALL
USER_CHARGES


@<TRIPOS>ATOM
1 N 34.068000793457 42.2849998474121 0.063000001013279 N 0.0 **** 0.0
2 CA 34.8040008544922 41.0320014953613 0.195999994874001 C 0.0 **** 0.0
3 C 35.2919998168945 40.5519981384277 -1.15699994564056 C 0.0 **** 0.0
4 O 34.6669998168945 40.8030014038086 -2.18499994277954 O 0.0 **** 0.0
5 CB 33.7599983215332 40.0699996948242 0.76800000667572 C 0.0 **** 0.0
6 CG 32.8120002746582 40.935001373291 1.48599994182587 C 0.0 **** 0.0
7 CD 32.7270011901855 42.1940002441406 0.658999979496002 C 0.0 **** 0.0
@<TRIPOS>BOND
1 1 2 1
2 1 7 1
3 2 5 1
4 2 3 1
5 3 4 1
6 5 6 1
7 6 7 1
@<TRIPOS>MOLECULE
LEU781
8 7
SMALL
USER_CHARGES


@<TRIPOS>ATOM
1 N 36.4049987792969 39.8240013122559 -1.15100002288818 N 0.0 **** 0.0
2 CA 36.8870010375977 39.2459983825684 -2.3970000743866 C 0.0 **** 0.0
3 C 35.8110008239746 38.4259986877441 -3.08599996566772 C 0.0 **** 0.0
4 O 35.6920013427734 38.4560012817383 -4.31899976730347 O 0.0 **** 0.0
5 CB 38.1279983520508 38.3870010375977 -2.13299989700317 C 0.0 **** 0.0
6 CG 38.898998260498 37.9150009155273 -3.33899998664856 C 0.0 **** 0.0
7 CD1 39.2470016479492 39.0620002746582 -4.29400014877319 C 0.0 **** 0.0
8 CD2 40.1549987792969 37.189998626709 -2.84599995613098 C 0.0 **** 0.0
@<TRIPOS>BOND
1 1 2 1
2 2 3 1
3 2 5 1
4 3 4 1
5 5 6 1
6 6 8 1
7 6 7 1
@<TRIPOS>MOLECULE
ALA782
5 4
SMALL
USER_CHARGES


@<TRIPOS>ATOM
1 N 35.0349998474121 37.6510009765625 -2.31800007820129 N 0.0 **** 0.0
2 CA 33.9869995117188 36.8380012512207 -2.91400003433228 C 0.0 **** 0.0
3 C 33.0130004882813 37.681999206543 -3.71000003814697 C 0.0 **** 0.0
4 O 32.5379981994629 37.2690010070801 -4.77400016784668 O 0.0 **** 0.0
5 CB 33.2480010986328 36.0919990539551 -1.8289999961853 C 0.0 **** 0.0
@<TRIPOS>BOND
1 1 2 1
2 2 3 1
3 2 5 1
4 3 4 1
@<TRIPOS>MOLECULE
THR783
7 6
SMALL
USER_CHARGES


@<TRIPOS>ATOM
1 N 32.6599998474121 38.8450012207031 -3.17300009727478 N 0.0 **** 0.0
2 CA 31.7350006103516 39.7270011901855 -3.85400009155273 C 0.0 **** 0.0
3 C 32.3779983520508 40.3610000610352 -5.08599996566772 C 0.0 **** 0.0
4 O 31.7280006408691 40.4869995117188 -6.13000011444092 O 0.0 **** 0.0
5 CB 31.2609996795654 40.7919998168945 -2.875 C 0.0 **** 0.0
6 OG1 30.5739994049072 40.140998840332 -1.80499994754791 O 0.0 **** 0.0
7 CG2 30.318000793457 41.7700004577637 -3.5460000038147 C 0.0 **** 0.0
@<TRIPOS>BOND
1 1 2 1
2 2 5 1
3 2 3 1
4 3 4 1
5 5 7 1
6 5 6 1
@<TRIPOS>MOLECULE
GLN784
9 8
SMALL
USER_CHARGES


@<TRIPOS>ATOM
1 N 33.6389999389648 40.7939987182617 -4.96799993515015 N 0.0 **** 0.0
2 CA 34.3759994506836 41.2799987792969 -6.12900018692017 C 0.0 **** 0.0
3 C 34.3650016784668 40.2430000305176 -7.24399995803833 C 0.0 **** 0.0
4 O 34.173999786377 40.5789985656738 -8.42500019073486 O 0.0 **** 0.0
5 CB 35.8250007629395 41.601001739502 -5.7480001449585 C 0.0 **** 0.0
6 CG 36.007999420166 42.6650009155273 -4.66499996185303 C 0.0 **** 0.0
7 CD 37.4720001220703 42.8650016784668 -4.26900005340576 C 0.0 **** 0.0
8 OE1 38.3740005493164 42.7140007019043 -5.08099985122681 O 0.0 **** 0.0
9 NE2 37.7050018310547 43.2050018310547 -2.98799991607666 N 0.0 **** 0.0
@<TRIPOS>BOND
1 1 2 1
2 2 5 1
3 2 3 1
4 3 4 1
5 5 6 1
6 6 7 1
7 7 9 1
8 7 8 1
@<TRIPOS>MOLECULE
TRP785
14 15
SMALL
USER_CHARGES


@<TRIPOS>ATOM
1 N 34.5579986572266 38.9720001220703 -6.88399982452393 N 0.0 **** 0.0
2 CA 34.5369987487793 37.9119987487793 -7.88899993896484 C 0.0 **** 0.0
3 C 33.1599998474121 37.7700004577637 -8.52400016784668 C 0.0 **** 0.0
4 O 33.0400009155273 37.6500015258789 -9.75500011444092 O 0.0 **** 0.0
5 CB 34.9729995727539 36.5849990844727 -7.26700019836426 C 0.0 **** 0.0
6 CG 36.451000213623 36.4850006103516 -7.04899978637695 C 0.0 **** 0.0
7 CD1 37.4160003662109 37.2190017700195 -7.67000007629395 C 0.0 **** 0.0
8 CD2 37.125 35.6290016174316 -6.12200021743774 C 0.0 **** 0.0
9 NE1 38.6650009155273 36.8520011901855 -7.20499992370605 N 0.0 **** 0.0
10 CE2 38.5110015869141 35.8839988708496 -6.24399995803833 C 0.0 **** 0.0
11 CE3 36.6969985961914 34.6699981689453 -5.19999980926514 C 0.0 **** 0.0
12 CZ2 39.4659996032715 35.185001373291 -5.4980001449585 C 0.0 **** 0.0
13 CZ3 37.6430015563965 33.9790000915527 -4.46199989318848 C 0.0 **** 0.0
14 CH2 39.0050010681152 34.2389984130859 -4.60500001907349 C 0.0 **** 0.0
@<TRIPOS>BOND
1 1 2 1
2 2 5 1
3 2 3 1
4 3 4 1
5 5 6 1
6 6 8 1
7 6 7 1
8 7 9 1
9 8 11 1
10 8 10 1
11 9 10 1
12 10 12 1
13 11 13 1
14 12 14 1
15 13 14 1
@<TRIPOS>MOLECULE
LYS786
9 8
SMALL
USER_CHARGES


@<TRIPOS>ATOM
1 N 32.109001159668 37.7649993896484 -7.7039999961853 N 0.0 **** 0.0
2 CA 30.7530002593994 37.6230010986328 -8.22700023651123 C 0.0 **** 0.0
3 C 30.3920001983643 38.7840003967285 -9.13300037384033 C 0.0 **** 0.0
4 O 29.8759994506836 38.5830001831055 -10.2390003204346 O 0.0 **** 0.0
5 CB 29.7360000610352 37.5050010681152 -7.08099985122681 C 0.0 **** 0.0
6 CG 29.2789993286133 36.0820007324219 -6.84899997711182 C 0.0 **** 0.0
7 CD 29.0480003356934 35.7589988708496 -5.36399984359741 C 0.0 **** 0.0
8 CE 27.9890003204346 36.6590003967285 -4.71299982070923 C 0.0 **** 0.0
9 NZ 28.1089992523193 36.7050018310547 -3.18899989128113 N 0.0 **** 0.0
@<TRIPOS>BOND
1 1 2 1
2 2 3 1
3 2 5 1
4 3 4 1
5 5 6 1
6 6 7 1
7 7 8 1
8 8 9 1
@<TRIPOS>MOLECULE
ASP787
8 7
SMALL
USER_CHARGES


@<TRIPOS>ATOM
1 N 30.6660003662109 39.9990005493164 -8.6899995803833 N 0.0 **** 0.0
2 CA 30.4179992675781 41.1660003662109 -9.52499961853027 C 0.0 **** 0.0
3 C 31.1959991455078 41.101001739502 -10.83899974823 C 0.0 **** 0.0
4 O 30.7140007019043 41.5870018005371 -11.8699998855591 O 0.0 **** 0.0
5 CB 30.8239994049072 42.4420013427734 -8.80399990081787 C 0.0 **** 0.0
6 CG 29.9120006561279 42.7879981994629 -7.60799980163574 C 0.0 **** 0.0
7 OD1 28.8409996032715 42.1599998474121 -7.4520001411438 O 0.0 **** 0.0
8 OD2 30.2759990692139 43.7140007019043 -6.84800004959106 O 0.0 **** 0.0
@<TRIPOS>BOND
1 1 2 1
2 2 5 1
3 2 3 1
4 3 4 1
5 5 6 1
6 6 7 1
7 6 8 1
@<TRIPOS>MOLECULE
ALA788
5 4
SMALL
USER_CHARGES


@<TRIPOS>ATOM
1 N 32.3959999084473 40.5219993591309 -10.8179998397827 N 0.0 **** 0.0
2 CA 33.2190017700195 40.4550018310547 -12.0150003433228 C 0.0 **** 0.0
3 C 32.8479995727539 39.3009986877441 -12.9300003051758 C 0.0 **** 0.0
4 O 33.390998840332 39.2150001525879 -14.0249996185303 O 0.0 **** 0.0
5 CB 34.701000213623 40.3310012817383 -11.6409997940063 C 0.0 **** 0.0
@<TRIPOS>BOND
1 1 2 1
2 2 3 1
3 2 5 1
4 3 4 1
@<TRIPOS>MOLECULE
GLY789
4 3
SMALL
USER_CHARGES


@<TRIPOS>ATOM
1 N 31.9419994354248 38.4220008850098 -12.5069999694824 N 0.0 **** 0.0
2 CA 31.5750007629395 37.2550010681152 -13.2760000228882 C 0.0 **** 0.0
3 C 32.576000213623 36.1290016174316 -13.2049999237061 C 0.0 **** 0.0
4 O 32.5110015869141 35.1969985961914 -14.0139999389648 O 0.0 **** 0.0
@<TRIPOS>BOND
1 1 2 1
2 2 3 1
3 3 4 1
@<TRIPOS>MOLECULE
LEU790
8 7
SMALL
USER_CHARGES


@<TRIPOS>ATOM
1 N 33.523998260498 36.1920013427734 -12.2690000534058 N 0.0 **** 0.0
2 CA 34.5919990539551 35.2159996032715 -12.2779998779297 C 0.0 **** 0.0
3 C 34.0870018005371 33.8129997253418 -11.9930000305176 C 0.0 **** 0.0
4 O 34.765998840332 32.8489990234375 -12.3219995498657 O 0.0 **** 0.0
5 CB 35.6559982299805 35.6059989929199 -11.2580003738403 C 0.0 **** 0.0
6 CG 37.068000793457 35.3230018615723 -11.7320003509521 C 0.0 **** 0.0
7 CD1 37.4109992980957 36.2000007629395 -12.9849996566772 C 0.0 **** 0.0
8 CD2 38.0929985046387 35.5410003662109 -10.6400003433228 C 0.0 **** 0.0
@<TRIPOS>BOND
1 1 2 1
2 2 3 1
3 2 5 1
4 3 4 1
5 5 6 1
6 6 8 1
7 6 7 1
@<TRIPOS>MOLECULE
ASN791
8 7
SMALL
USER_CHARGES


@<TRIPOS>ATOM
1 N 32.9160003662109 33.6879997253418 -11.3959999084473 N 0.0 **** 0.0
2 CA 32.3440017700195 32.390998840332 -11.0790004730225 C 0.0 **** 0.0
3 C 31.5020008087158 31.8439998626709 -12.2110004425049 C 0.0 **** 0.0
4 O 31.0030002593994 30.7210006713867 -12.1020002365112 O 0.0 **** 0.0
5 CB 31.4839992523193 32.5180015563965 -9.82100009918213 C 0.0 **** 0.0
6 CG 30.2749996185303 33.4000015258789 -10.0469999313354 C 0.0 **** 0.0
7 OD1 30.3740005493164 34.5369987487793 -10.5 O 0.0 **** 0.0
8 ND2 29.1219997406006 32.8540000915527 -9.77499961853027 N 0.0 **** 0.0
@<TRIPOS>BOND
1 1 2 1
2 2 5 1
3 2 3 1
4 3 4 1
5 5 6 1
6 6 8 1
7 6 7 1
@<TRIPOS>MOLECULE
ARG792
11 10
SMALL
USER_CHARGES


@<TRIPOS>ATOM
1 N 31.3939990997314 32.5769996643066 -13.3170003890991 N 0.0 **** 0.0
2 CA 30.5419998168945 32.1749992370605 -14.4259996414185 C 0.0 **** 0.0
3 C 31.2549991607666 32.4210014343262 -15.7480001449585 C 0.0 **** 0.0
4 O 30.7479991912842 33.0870018005371 -16.6509990692139 O 0.0 **** 0.0
5 CB 29.2189998626709 32.9199981689453 -14.3299999237061 C 0.0 **** 0.0
6 CG 29.3509998321533 34.4140014648438 -14.0520000457764 C 0.0 **** 0.0
7 CD 27.9389991760254 35.0439987182617 -14.1020002365112 C 0.0 **** 0.0
8 NE 27.9500007629395 36.4410018920898 -13.7589998245239 N 0.0 **** 0.0
9 CZ 28.1909999847412 37.431999206543 -14.6079998016357 C 0.0 **** 0.0
10 NH1 28.4050006866455 37.1800003051758 -15.9069995880127 N 0.0 **** 0.0
11 NH2 28.1599998474121 38.685001373291 -14.1590003967285 N 0.0 **** 0.0
@<TRIPOS>BOND
1 1 2 1
2 2 3 1
3 2 5 1
4 3 4 1
5 5 6 1
6 6 7 1
7 7 8 1
8 8 9 1
9 9 10 1
10 9 11 1
@<TRIPOS>MOLECULE
LEU793
8 7
SMALL
USER_CHARGES


@<TRIPOS>ATOM
1 N 32.4449996948242 31.8659992218018 -15.8859996795654 N 0.0 **** 0.0
2 CA 33.1910018920898 32.0379981994629 -17.1219997406006 C 0.0 **** 0.0
3 C 32.5660018920898 31.2479991912842 -18.2649993896484 C 0.0 **** 0.0
4 O 31.9689998626709 30.1949996948242 -18.0699996948242 O 0.0 **** 0.0
5 CB 34.6279983520508 31.5799999237061 -16.9400005340576 C 0.0 **** 0.0
6 CG 35.3709983825684 32.2719993591309 -15.8000001907349 C 0.0 **** 0.0
7 CD1 36.7439994812012 31.6700000762939 -15.7320003509521 C 0.0 **** 0.0
8 CD2 35.4280014038086 33.7830009460449 -16.0100002288818 C 0.0 **** 0.0
@<TRIPOS>BOND
1 1 2 1
2 2 3 1
3 2 5 1
4 3 4 1
5 5 6 1
6 6 7 1
7 6 8 1
@<TRIPOS>MOLECULE
HIS794
10 10
SMALL
USER_CHARGES


@<TRIPOS>ATOM
1 N 32.7389984130859 31.7630004882813 -19.4720001220703 N 0.0 **** 0.0
2 CA 32.3520011901855 31.0659999847412 -20.69700050354 C 0.0 **** 0.0
3 C 33.4889984130859 31.1630001068115 -21.6760005950928 C 0.0 **** 0.0
4 O 34.3310012817383 32.0610008239746 -21.5839996337891 O 0.0 **** 0.0
5 CB 31.0830001831055 31.6439990997314 -21.3020000457764 C 0.0 **** 0.0
6 CG 29.878999710083 31.2779998779297 -20.5179996490479 C 0.0 **** 0.0
7 ND1 29.375 29.9939994812012 -20.503999710083 N 0.0 **** 0.0
8 CD2 29.1399993896484 31.988000869751 -19.6399993896484 C 0.0 **** 0.0
9 CE1 28.3430004119873 29.9449996948242 -19.6800003051758 C 0.0 **** 0.0
10 NE2 28.1849994659424 31.1399993896484 -19.1410007476807 N 0.0 **** 0.0
@<TRIPOS>BOND
1 1 2 1
2 2 5 1
3 2 3 1
4 3 4 1
5 5 6 1
6 6 8 1
7 6 7 1
8 7 9 1
9 8 10 1
10 9 10 1
@<TRIPOS>MOLECULE
THR795
7 6
SMALL
USER_CHARGES


@<TRIPOS>ATOM
1 N 33.5429992675781 30.1949996948242 -22.576000213623 N 0.0 **** 0.0
2 CA 34.6380004882813 30.0879993438721 -23.5179996490479 C 0.0 **** 0.0
3 C 34.1030006408691 30.0769996643066 -24.9400005340576 C 0.0 **** 0.0
4 O 33.1640014648438 29.3439998626709 -25.2490005493164 O 0.0 **** 0.0
5 CB 35.4459991455078 28.8349990844727 -23.2210006713867 C 0.0 **** 0.0
6 OG1 35.9039993286133 28.9060001373291 -21.8659992218018 O 0.0 **** 0.0
7 CG2 36.6240005493164 28.7280006408691 -24.1760005950928 C 0.0 **** 0.0
@<TRIPOS>BOND
1 1 2 1
2 2 5 1
3 2 3 1
4 3 4 1
5 5 6 1
6 5 7 1
@<TRIPOS>MOLECULE
ARG796
11 10
SMALL
USER_CHARGES


@<TRIPOS>ATOM
1 N 34.673999786377 30.9260005950928 -25.7849998474121 N 0.0 **** 0.0
2 CA 34.3950004577637 30.9370002746582 -27.2089996337891 C 0.0 **** 0.0
3 C 35.5639991760254 30.2950000762939 -27.9419994354248 C 0.0 **** 0.0
4 O 36.726001739502 30.5100002288818 -27.5860004425049 O 0.0 **** 0.0
5 CB 34.1650009155273 32.3680000305176 -27.7250003814697 C 0.0 **** 0.0
6 CG 33.7779998779297 32.4309997558594 -29.2040004730225 C 0.0 **** 0.0
7 CD 33.3209991455078 33.8370018005371 -29.6709995269775 C 0.0 **** 0.0
8 NE 34.4090003967285 34.818000793457 -29.5729999542236 N 0.0 **** 0.0
9 CZ 35.3219985961914 35.0480003356934 -30.5170001983643 C 0.0 **** 0.0
10 NH1 35.3030014038086 34.3860015869141 -31.6609992980957 N 0.0 **** 0.0
11 NH2 36.2719993591309 35.9500007629395 -30.3159999847412 N 0.0 **** 0.0
@<TRIPOS>BOND
1 1 2 1
2 2 3 1
3 2 5 1
4 3 4 1
5 5 6 1
6 6 7 1
7 7 8 1
8 8 9 1
9 9 11 1
10 9 10 1
@<TRIPOS>MOLECULE
LEU797
8 7
SMALL
USER_CHARGES


@<TRIPOS>ATOM
1 N 35.2470016479492 29.4820003509521 -28.94700050354 N 0.0 **** 0.0
2 CA 36.2509994506836 28.8309993743896 -29.7679996490479 C 0.0 **** 0.0
3 C 36.6069984436035 29.761999130249 -30.9230003356934 C 0.0 **** 0.0
4 O 35.7319984436035 30.173999786377 -31.6749992370605 O 0.0 **** 0.0
5 CB 35.7220001220703 27.4869995117188 -30.2970008850098 C 0.0 **** 0.0
6 CG 36.6110000610352 26.7280006408691 -31.2849998474121 C 0.0 **** 0.0
7 CD1 37.8660011291504 26.2029991149902 -30.5650005340576 C 0.0 **** 0.0
8 CD2 35.8349990844727 25.5769996643066 -31.9060001373291 C 0.0 **** 0.0
@<TRIPOS>BOND
1 1 2 1
2 2 3 1
3 2 5 1
4 3 4 1
5 5 6 1
6 6 8 1
7 6 7 1
@<TRIPOS>MOLECULE
LEU798
8 7
SMALL
USER_CHARGES


@<TRIPOS>ATOM
1 N 37.8899993896484 30.0690002441406 -31.0729999542236 N 0.0 **** 0.0
2 CA 38.359001159668 30.9080009460449 -32.1650009155273 C 0.0 **** 0.0
3 C 38.851001739502 30.1140003204346 -33.3660011291504 C 0.0 **** 0.0
4 O 38.7029991149902 30.576000213623 -34.5 O 0.0 **** 0.0
5 CB 39.4910011291504 31.8139991760254 -31.6650009155273 C 0.0 **** 0.0
6 CG 38.9860000610352 33.1230010986328 -31.0279998779297 C 0.0 **** 0.0
7 CD1 37.9249992370605 32.8730010986328 -29.9820003509521 C 0.0 **** 0.0
8 CD2 40.1559982299805 33.8940010070801 -30.4330005645752 C 0.0 **** 0.0
@<TRIPOS>BOND
1 1 2 1
2 2 3 1
3 2 5 1
4 3 4 1
5 5 6 1
6 6 7 1
7 6 8 1
@<TRIPOS>MOLECULE
GLY799
4 3
SMALL
USER_CHARGES


@<TRIPOS>ATOM
1 N 39.4329986572266 28.9419994354248 -33.1440010070801 N 0.0 **** 0.0
2 CA 39.8269996643066 28.0909996032715 -34.2449989318848 C 0.0 **** 0.0
3 C 40.6049995422363 26.8770008087158 -33.8019981384277 C 0.0 **** 0.0
4 O 41.0950012207031 26.8269996643066 -32.6780014038086 O 0.0 **** 0.0
@<TRIPOS>BOND
1 1 2 1
2 2 3 1
3 3 4 1
@<TRIPOS>MOLECULE
ILE800
8 7
SMALL
USER_CHARGES


@<TRIPOS>ATOM
1 N 40.7449989318848 25.8980007171631 -34.6940002441406 N 0.0 **** 0.0
2 CA 41.5229988098145 24.69700050354 -34.4309997558594 C 0.0 **** 0.0
3 C 42.3839988708496 24.4610004425049 -35.6539993286133 C 0.0 **** 0.0
4 O 41.8709983825684 24.4479999542236 -36.7700004577637 O 0.0 **** 0.0
5 CB 40.632999420166 23.4619998931885 -34.1800003051758 C 0.0 **** 0.0
6 CG1 39.6580009460449 23.6800003051758 -33.0209999084473 C 0.0 **** 0.0
7 CG2 41.4900016784668 22.2180004119873 -33.9339981079102 C 0.0 **** 0.0
8 CD1 38.5740013122559 22.5930004119873 -32.9640007019043 C 0.0 **** 0.0
@<TRIPOS>BOND
1 1 2 1
2 2 3 1
3 2 5 1
4 3 4 1
5 5 7 1
6 5 6 1
7 6 8 1
@<TRIPOS>MOLECULE
SER801
6 5
SMALL
USER_CHARGES


@<TRIPOS>ATOM
1 N 43.6769981384277 24.2520008087158 -35.4550018310547 N 0.0 **** 0.0
2 CA 44.5550003051758 24.0459995269775 -36.5940017700195 C 0.0 **** 0.0
3 C 45.6389999389648 23.0659999847412 -36.1990013122559 C 0.0 **** 0.0
4 O 46.060001373291 23.0139999389648 -35.0359992980957 O 0.0 **** 0.0
5 CB 45.1790008544922 25.3560009002686 -37.0639991760254 C 0.0 **** 0.0
6 OG 46.1020011901855 25.8110008239746 -36.1020011901855 O 0.0 **** 0.0
@<TRIPOS>BOND
1 1 2 1
2 2 5 1
3 2 3 1
4 3 4 1
5 5 6 1
@<TRIPOS>MOLECULE
ALA802
5 4
SMALL
USER_CHARGES


@<TRIPOS>ATOM
1 N 46.0849990844727 22.2889995574951 -37.1759986877441 N 0.0 **** 0.0
2 CA 47.2239990234375 21.4130001068115 -36.9939994812012 C 0.0 **** 0.0
3 C 48.4529991149902 22.0629997253418 -37.6199989318848 C 0.0 **** 0.0
4 O 48.3440017700195 22.8449993133545 -38.5709991455078 O 0.0 **** 0.0
5 CB 46.9620018005371 20.0450000762939 -37.617000579834 C 0.0 **** 0.0
@<TRIPOS>BOND
1 1 2 1
2 2 5 1
3 2 3 1
4 3 4 1
@<TRIPOS>MOLECULE
ASN803
8 7
SMALL
USER_CHARGES


@<TRIPOS>ATOM
1 N 49.6199989318848 21.7339992523193 -37.0830001831055 N 0.0 **** 0.0
2 CA 50.8650016784668 22.3659992218018 -37.4850006103516 C 0.0 **** 0.0
3 C 51.9490013122559 21.3120002746582 -37.6310005187988 C 0.0 **** 0.0
4 O 51.8569984436035 20.2280006408691 -37.0439987182617 O 0.0 **** 0.0
5 CB 51.2929992675781 23.4360008239746 -36.4749984741211 C 0.0 **** 0.0
6 CG 50.3040008544922 24.5729999542236 -36.4080009460449 C 0.0 **** 0.0
7 OD1 49.8759994506836 25.0919990539551 -37.4459991455078 O 0.0 **** 0.0
8 ND2 49.9020004272461 24.9419994354248 -35.1980018615723 N 0.0 **** 0.0
@<TRIPOS>BOND
1 1 2 1
2 2 5 1
3 2 3 1
4 3 4 1
5 5 6 1
6 6 7 1
7 6 8 1
@<TRIPOS>MOLECULE
PRO804
7 7
SMALL
USER_CHARGES


@<TRIPOS>ATOM
1 N 52.9850006103516 21.5970001220703 -38.4210014343262 N 0.0 **** 0.0
2 CA 54.0250015258789 20.5890007019043 -38.6679992675781 C 0.0 **** 0.0
3 C 54.8120002746582 20.306999206543 -37.4010009765625 C 0.0 **** 0.0
4 O 55.3880004882813 21.2129993438721 -36.798999786377 O 0.0 **** 0.0
5 CB 54.9010009765625 21.2329998016357 -39.7519989013672 C 0.0 **** 0.0
6 CG 54.6450004577637 22.6889991760254 -39.6500015258789 C 0.0 **** 0.0
7 CD 53.2249984741211 22.8360004425049 -39.1860008239746 C 0.0 **** 0.0
@<TRIPOS>BOND
1 1 7 1
2 1 2 1
3 2 5 1
4 2 3 1
5 3 4 1
6 5 6 1
7 6 7 1
@<TRIPOS>MOLECULE
GLY805
4 3
SMALL
USER_CHARGES


@<TRIPOS>ATOM
1 N 54.8289985656738 19.0419998168945 -37.0050010681152 N 0.0 **** 0.0
2 CA 55.6279983520508 18.613000869751 -35.882999420166 C 0.0 **** 0.0
3 C 56.9620018005371 18.0729999542236 -36.3629989624023 C 0.0 **** 0.0
4 O 57.734001159668 18.7889995574951 -37.0120010375977 O 0.0 **** 0.0
@<TRIPOS>BOND
1 1 2 1
2 2 3 1
3 3 4 1
@<TRIPOS>MOLECULE
GLN806
9 8
SMALL
USER_CHARGES


@<TRIPOS>ATOM
1 N 57.2109985351563 16.7940006256104 -36.0870018005371 N 0.0 **** 0.0
2 CA 58.4990005493164 16.1520004272461 -36.326000213623 C 0.0 **** 0.0
3 C 58.2669982910156 14.8319997787476 -37.0460014343262 C 0.0 **** 0.0
4 O 57.3950004577637 14.0520000457764 -36.6479988098145 O 0.0 **** 0.0
5 CB 59.2379989624023 15.9130001068115 -35.0009994506836 C 0.0 **** 0.0
6 CG 60.6160011291504 15.3229999542236 -35.1459999084473 C 0.0 **** 0.0
7 CD 61.1230010986328 14.6960000991821 -33.8660011291504 C 0.0 **** 0.0
8 OE1 60.9580001831055 15.246000289917 -32.7779998779297 O 0.0 **** 0.0
9 NE2 61.7369995117188 13.5319995880127 -33.9869995117188 N 0.0 **** 0.0
@<TRIPOS>BOND
1 1 2 1
2 2 3 1
3 2 5 1
4 3 4 1
5 5 6 1
6 6 7 1
7 7 9 1
8 7 8 1
@<TRIPOS>MOLECULE
ASP807
8 7
SMALL
USER_CHARGES


@<TRIPOS>ATOM
1 N 59.0629997253418 14.6129999160767 -38.0999984741211 N 0.0 **** 0.0
2 CA 59.0419998168945 13.3489999771118 -38.8810005187988 C 0.0 **** 0.0
3 C 57.6209983825684 13.0299997329712 -39.314998626709 C 0.0 **** 0.0
4 O 57.1609992980957 11.923999786377 -39.0330009460449 O 0.0 **** 0.0
5 CB 59.6629981994629 12.206000328064 -38.0859985351563 C 0.0 **** 0.0
6 CG 61.0530014038086 12.5749998092651 -37.6240005493164 C 0.0 **** 0.0
7 OD1 61.5750007629395 13.5729999542236 -38.1450004577637 O 0.0 **** 0.0
8 OD2 61.5800018310547 11.8909997940063 -36.7200012207031 O 0.0 **** 0.0
@<TRIPOS>BOND
1 1 2 1
2 2 3 1
3 2 5 1
4 3 4 1
5 5 6 1
6 6 7 1
7 6 8 1
@<TRIPOS>MOLECULE
GLY808
4 3
SMALL
USER_CHARGES


@<TRIPOS>ATOM
1 N 56.9309997558594 14.0200004577637 -39.8819999694824 N 0.0 **** 0.0
2 CA 55.5359992980957 13.8409996032715 -40.3250007629395 C 0.0 **** 0.0
3 C 54.5330009460449 14.0059995651245 -39.1949996948242 C 0.0 **** 0.0
4 O 53.3409996032715 13.7639999389648 -39.423999786377 O 0.0 **** 0.0
@<TRIPOS>BOND
1 1 2 1
2 2 3 1
3 3 4 1
@<TRIPOS>MOLECULE
GLY809
4 3
SMALL
USER_CHARGES


@<TRIPOS>ATOM
1 N 55.0060005187988 14.3760004043579 -38.0089988708496 N 0.0 **** 0.0
2 CA 54.1360015869141 14.5520000457764 -36.8400001525879 C 0.0 **** 0.0
3 C 53.4650001525879 15.8970003128052 -36.898998260498 C 0.0 **** 0.0
4 O 53.9300003051758 16.7639999389648 -37.6479988098145 O 0.0 **** 0.0
@<TRIPOS>BOND
1 1 2 1
2 2 3 1
3 3 4 1
@<TRIPOS>MOLECULE
GLU810
9 8
SMALL
USER_CHARGES


@<TRIPOS>ATOM
1 N 52.4210014343262 16.0639991760254 -36.1020011901855 N 0.0 **** 0.0
2 CA 51.7280006408691 17.3390007019043 -36.1049995422363 C 0.0 **** 0.0
3 C 51.4179992675781 17.7360000610352 -34.6730003356934 C 0.0 **** 0.0
4 O 51.1580009460449 16.8819999694824 -33.8279991149902 O 0.0 **** 0.0
5 CB 50.4210014343262 17.2749996185303 -36.8759994506836 C 0.0 **** 0.0
6 CG 50.6059989929199 17.0750007629395 -38.3650016784668 C 0.0 **** 0.0
7 CD 49.2869987487793 16.9939994812012 -39.0639991760254 C 0.0 **** 0.0
8 OE1 48.5180015563965 16.0480003356934 -38.7799987792969 O 0.0 **** 0.0
9 OE2 49.015998840332 17.8939990997314 -39.8849983215332 O 0.0 **** 0.0
@<TRIPOS>BOND
1 1 2 1
2 2 5 1
3 2 3 1
4 3 4 1
5 5 6 1
6 6 7 1
7 7 9 1
8 7 8 1
@<TRIPOS>MOLECULE
THR811
7 6
SMALL
USER_CHARGES


@<TRIPOS>ATOM
1 N 51.4490013122559 19.0349998474121 -34.4150009155273 N 0.0 **** 0.0
2 CA 50.8650016784668 19.5620002746582 -33.193000793457 C 0.0 **** 0.0
3 C 49.4869995117188 20.1229991912842 -33.5229988098145 C 0.0 **** 0.0
4 O 49.1619987487793 20.4130001068115 -34.6829986572266 O 0.0 **** 0.0
5 CB 51.7470016479492 20.6350002288818 -32.5400009155273 C 0.0 **** 0.0
6 OG1 51.7700004577637 21.8129997253418 -33.3460006713867 O 0.0 **** 0.0
7 CG2 53.1539993286133 20.1410007476807 -32.3540000915527 C 0.0 **** 0.0
@<TRIPOS>BOND
1 1 2 1
2 2 5 1
3 2 3 1
4 3 4 1
5 5 7 1
6 5 6 1
@<TRIPOS>MOLECULE
LEU812
8 7
SMALL
USER_CHARGES


@<TRIPOS>ATOM
1 N 48.6660003662109 20.2549991607666 -32.4869995117188 N 0.0 **** 0.0
2 CA 47.3050003051758 20.7360000610352 -32.625 C 0.0 **** 0.0
3 C 47.1419982910156 21.9360008239746 -31.7119998931885 C 0.0 **** 0.0
4 O 47.3279991149902 21.818000793457 -30.5009994506836 O 0.0 **** 0.0
5 CB 46.306999206543 19.6399993896484 -32.2649993896484 C 0.0 **** 0.0
6 CG 44.8489990234375 20.048999786377 -32.5260009765625 C 0.0 **** 0.0
7 CD1 44.5439987182617 19.9950008392334 -34.0050010681152 C 0.0 **** 0.0
8 CD2 43.8889999389648 19.1660003662109 -31.738000869751 C 0.0 **** 0.0
@<TRIPOS>BOND
1 1 2 1
2 2 5 1
3 2 3 1
4 3 4 1
5 5 6 1
6 6 8 1
7 6 7 1
@<TRIPOS>MOLECULE
THR813
7 6
SMALL
USER_CHARGES


@<TRIPOS>ATOM
1 N 46.8050003051758 23.0849990844727 -32.2820014953613 N 0.0 **** 0.0
2 CA 46.5859985351563 24.2759990692139 -31.4790000915527 C 0.0 **** 0.0
3 C 45.1119995117188 24.6270008087158 -31.5030002593994 C 0.0 **** 0.0
4 O 44.5209999084473 24.7870006561279 -32.5820007324219 O 0.0 **** 0.0
5 CB 47.4309997558594 25.4409999847412 -31.9689998626709 C 0.0 **** 0.0
6 OG1 48.8059997558594 25.132999420166 -31.7269992828369 O 0.0 **** 0.0
7 CG2 47.0810012817383 26.7089996337891 -31.2119998931885 C 0.0 **** 0.0
@<TRIPOS>BOND
1 1 2 1
2 2 5 1
3 2 3 1
4 3 4 1
5 5 6 1
6 5 7 1
@<TRIPOS>MOLECULE
VAL814
7 6
SMALL
USER_CHARGES


@<TRIPOS>ATOM
1 N 44.5289993286133 24.7180004119873 -30.3099994659424 N 0.0 **** 0.0
2 CA 43.1469993591309 25.132999420166 -30.117000579834 C 0.0 **** 0.0
3 C 43.1609992980957 26.5310001373291 -29.5090007781982 C 0.0 **** 0.0
4 O 43.7019996643066 26.7479991912842 -28.4120006561279 O 0.0 **** 0.0
5 CB 42.3810005187988 24.136999130249 -29.2329998016357 C 0.0 **** 0.0
6 CG1 40.9169998168945 24.5610008239746 -29.0729999542236 C 0.0 **** 0.0
7 CG2 42.4799995422363 22.7049999237061 -29.8530006408691 C 0.0 **** 0.0
@<TRIPOS>BOND
1 1 2 1
2 2 5 1
3 2 3 1
4 3 4 1
5 5 6 1
6 5 7 1
@<TRIPOS>MOLECULE
ARG815
11 10
SMALL
USER_CHARGES


@<TRIPOS>ATOM
1 N 42.5839996337891 27.4829998016357 -30.2280006408691 N 0.0 **** 0.0
2 CA 42.5550003051758 28.8680000305176 -29.7940006256104 C 0.0 **** 0.0
3 C 41.1800003051758 29.1919994354248 -29.2189998626709 C 0.0 **** 0.0
4 O 40.1469993591309 28.9260005950928 -29.8589992523193 O 0.0 **** 0.0
5 CB 42.8839988708496 29.80299949646 -30.9549999237061 C 0.0 **** 0.0
6 CG 44.2779998779297 29.5890007019043 -31.5370006561279 C 0.0 **** 0.0
7 CD 44.5950012207031 30.6280002593994 -32.5750007629395 C 0.0 **** 0.0
8 NE 43.6430015563965 30.5790004730225 -33.6769981384277 N 0.0 **** 0.0
9 CZ 42.7350006103516 31.5149993896484 -33.9620018005371 C 0.0 **** 0.0
10 NH1 42.6269989013672 32.6319999694824 -33.2319984436035 N 0.0 **** 0.0
11 NH2 41.9259986877441 31.3279991149902 -35.0 N 0.0 **** 0.0
@<TRIPOS>BOND
1 1 2 1
2 2 3 1
3 2 5 1
4 3 4 1
5 5 6 1
6 6 7 1
7 7 8 1
8 8 9 1
9 9 11 1
10 9 10 1
@<TRIPOS>MOLECULE
THR816
7 6
SMALL
USER_CHARGES


@<TRIPOS>ATOM
1 N 41.1759986877441 29.7700004577637 -28.0219993591309 N 0.0 **** 0.0
2 CA 39.9379997253418 30.0729999542236 -27.3159999847412 C 0.0 **** 0.0
3 C 40.0509986877441 31.4419994354248 -26.6749992370605 C 0.0 **** 0.0
4 O 41.1360015869141 32.0229988098145 -26.5820007324219 O 0.0 **** 0.0
5 CB 39.6100006103516 29.0349998474121 -26.2320003509521 C 0.0 **** 0.0
6 OG1 40.4879989624023 29.2150001525879 -25.1070003509521 O 0.0 **** 0.0
7 CG2 39.7509994506836 27.6110000610352 -26.7970008850098 C 0.0 **** 0.0
@<TRIPOS>BOND
1 1 2 1
2 2 3 1
3 2 5 1
4 3 4 1
5 5 6 1
6 5 7 1
@<TRIPOS>MOLECULE
ARG817
11 10
SMALL
USER_CHARGES


@<TRIPOS>ATOM
1 N 38.9020004272461 31.9540004730225 -26.2399997711182 N 0.0 **** 0.0
2 CA 38.8320007324219 33.1759986877441 -25.4389991760254 C 0.0 **** 0.0
3 C 37.8610000610352 32.951000213623 -24.2970008850098 C 0.0 **** 0.0
4 O 36.7470016479492 32.4650001525879 -24.5160007476807 O 0.0 **** 0.0
5 CB 38.4000015258789 34.3880004882813 -26.2859992980957 C 0.0 **** 0.0
6 CG 38.4990005493164 35.7239990234375 -25.5429992675781 C 0.0 **** 0.0
7 CD 38.1290016174316 36.8919982910156 -26.4640007019043 C 0.0 **** 0.0
8 NE 38.2249984741211 38.1839981079102 -25.7900009155273 N 0.0 **** 0.0
9 CZ 37.2680015563965 38.7169990539551 -25.0349998474121 C 0.0 **** 0.0
10 NH1 36.1349983215332 38.0610008239746 -24.806999206543 N 0.0 **** 0.0
11 NH2 37.4539985656738 39.9119987487793 -24.4969997406006 N 0.0 **** 0.0
@<TRIPOS>BOND
1 1 2 1
2 2 3 1
3 2 5 1
4 3 4 1
5 5 6 1
6 6 7 1
7 7 8 1
8 8 9 1
9 9 11 1
10 9 10 1
@<TRIPOS>MOLECULE
VAL818
7 6
SMALL
USER_CHARGES


@<TRIPOS>ATOM
1 N 38.2900009155273 33.3030014038086 -23.0790004730225 N 0.0 **** 0.0
2 CA 37.5130004882813 33.109001159668 -21.871000289917 C 0.0 **** 0.0
3 C 37.1110000610352 34.4799995422363 -21.3430004119873 C 0.0 **** 0.0
4 O 37.9469985961914 35.3950004577637 -21.2439994812012 O 0.0 **** 0.0
5 CB 38.310001373291 32.3240013122559 -20.8129997253418 C 0.0 **** 0.0
6 CG1 37.4900016784668 32.0940017700195 -19.5949993133545 C 0.0 **** 0.0
7 CG2 38.7690010070801 30.9699993133545 -21.3959999084473 C 0.0 **** 0.0
@<TRIPOS>BOND
1 1 2 1
2 2 3 1
3 2 5 1
4 3 4 1
5 5 6 1
6 5 7 1
@<TRIPOS>MOLECULE
SER819
6 5
SMALL
USER_CHARGES


@<TRIPOS>ATOM
1 N 35.8339996337891 34.6220016479492 -21.0030002593994 N 0.0 **** 0.0
2 CA 35.2980003356934 35.8689994812012 -20.4850006103516 C 0.0 **** 0.0
3 C 34.0620002746582 35.4990005493164 -19.6620006561279 C 0.0 **** 0.0
4 O 33.8769989013672 34.3320007324219 -19.3040008544922 O 0.0 **** 0.0
5 CB 35.0 36.8390007019043 -21.6529998779297 C 0.0 **** 0.0
6 OG 34.6189994812012 38.1189994812012 -21.1450004577637 O 0.0 **** 0.0
@<TRIPOS>BOND
1 1 2 1
2 2 3 1
3 2 5 1
4 3 4 1
5 5 6 1
@<TRIPOS>MOLECULE
ALA820
5 4
SMALL
USER_CHARGES


@<TRIPOS>ATOM
1 N 33.2190017700195 36.4749984741211 -19.3610000610352 N 0.0 **** 0.0
2 CA 31.9540004730225 36.2290000915527 -18.6840000152588 C 0.0 **** 0.0
3 C 30.8859996795654 37.1339988708496 -19.2779998779297 C 0.0 **** 0.0
4 O 31.1879997253418 38.1689987182617 -19.878999710083 O 0.0 **** 0.0
5 CB 32.0709991455078 36.476001739502 -17.1639995574951 C 0.0 **** 0.0
@<TRIPOS>BOND
1 1 2 1
2 2 5 1
3 2 3 1
4 3 4 1
@<TRIPOS>MOLECULE
ALA821
5 4
SMALL
USER_CHARGES


@<TRIPOS>ATOM
1 N 29.625 36.7229995727539 -19.1200008392334 N 0.0 **** 0.0
2 CA 28.5310001373291 37.5120010375977 -19.6639995574951 C 0.0 **** 0.0
3 C 28.5949993133545 38.9449996948242 -19.1499996185303 C 0.0 **** 0.0
4 O 28.8560009002686 39.1990013122559 -17.9619998931885 O 0.0 **** 0.0
5 CB 27.17799949646 36.8969993591309 -19.3120002746582 C 0.0 **** 0.0
@<TRIPOS>BOND
1 1 2 1
2 2 5 1
3 2 3 1
4 3 4 1
@<TRIPOS>MOLECULE
ASP822
8 7
SMALL
USER_CHARGES


@<TRIPOS>ATOM
1 N 28.386999130249 39.8779983520508 -20.0729999542236 N 0.0 **** 0.0
2 CA 28.2649993896484 41.2999992370605 -19.8190002441406 C 0.0 **** 0.0
3 C 29.5960006713867 41.9879989624023 -19.5370006561279 C 0.0 **** 0.0
4 O 29.5979995727539 43.1749992370605 -19.1560001373291 O 0.0 **** 0.0
5 CB 27.3190002441406 41.5629997253418 -18.6499996185303 C 0.0 **** 0.0
6 CG 26.8309993743896 42.9930000305176 -18.6140003204346 C 0.0 **** 0.0
7 OD1 26.4589996337891 43.523998260498 -19.6749992370605 O 0.0 **** 0.0
8 OD2 26.8239994049072 43.5820007324219 -17.5009994506836 O 0.0 **** 0.0
@<TRIPOS>BOND
1 1 2 1
2 2 3 1
3 2 5 1
4 3 4 1
5 5 6 1
6 6 8 1
7 6 7 1
@<TRIPOS>MOLECULE
LYS823
9 8
SMALL
USER_CHARGES


@<TRIPOS>ATOM
1 N 30.7119998931885 41.3030014038086 -19.7150001525879 N 0.0 **** 0.0
2 CA 32.0400009155273 41.867000579834 -19.5170001983643 C 0.0 **** 0.0
3 C 32.7910003662109 41.9879989624023 -20.8390007019043 C 0.0 **** 0.0
4 O 32.6360015869141 41.1580009460449 -21.7430000305176 O 0.0 **** 0.0
5 CB 32.8429985046387 40.9970016479492 -18.5709991455078 C 0.0 **** 0.0
6 CG 32.1180000305176 40.6940002441406 -17.2199993133545 C 0.0 **** 0.0
7 CD 31.6669998168945 41.9480018615723 -16.4909992218018 C 0.0 **** 0.0
8 CE 30.8409996032715 41.6139984130859 -15.2110004425049 C 0.0 **** 0.0
9 NZ 30.3929996490479 42.8310012817383 -14.5069999694824 N 0.0 **** 0.0
@<TRIPOS>BOND
1 1 2 1
2 2 3 1
3 2 5 1
4 3 4 1
5 5 6 1
6 6 7 1
7 7 8 1
8 8 9 1
@<TRIPOS>MOLECULE
GLN824
9 8
SMALL
USER_CHARGES


@<TRIPOS>ATOM
1 N 33.6529998779297 43.0060005187988 -20.9230003356934 N 0.0 **** 0.0
2 CA 34.4819984436035 43.2060012817383 -22.1089992523193 C 0.0 **** 0.0
3 C 35.8759994506836 42.6199989318848 -21.9740009307861 C 0.0 **** 0.0
4 O 36.5120010375977 42.3569984436035 -23.0069999694824 O 0.0 **** 0.0
5 CB 34.5970001220703 44.7019996643066 -22.4619998931885 C 0.0 **** 0.0
6 CG 33.2709999084473 45.310001373291 -22.8430004119873 C 0.0 **** 0.0
7 CD 33.3559989929199 46.6150016784668 -23.621000289917 C 0.0 **** 0.0
8 OE1 34.4150009155273 47.0309982299805 -24.0799999237061 O 0.0 **** 0.0
9 NE2 32.2210006713867 47.2599983215332 -23.7789993286133 N 0.0 **** 0.0
@<TRIPOS>BOND
1 1 2 1
2 2 5 1
3 2 3 1
4 3 4 1
5 5 6 1
6 6 7 1
7 7 9 1
8 7 8 1
@<TRIPOS>MOLECULE
TYR825
12 12
SMALL
USER_CHARGES


@<TRIPOS>ATOM
1 N 36.3569984436035 42.3959999084473 -20.7450008392334 N 0.0 **** 0.0
2 CA 37.6790008544922 41.8250007629395 -20.5370006561279 C 0.0 **** 0.0
3 C 37.6520004272461 40.3219985961914 -20.7689990997314 C 0.0 **** 0.0
4 O 36.6510009765625 39.6500015258789 -20.492000579834 O 0.0 **** 0.0
5 CB 38.2039985656738 42.1209983825684 -19.1030006408691 C 0.0 **** 0.0
6 CG 37.2080001831055 41.9309997558594 -17.9939994812012 C 0.0 **** 0.0
7 CD1 36.9329986572266 40.6860008239746 -17.4750003814697 C 0.0 **** 0.0
8 CD2 36.5449981689453 43.0309982299805 -17.4459991455078 C 0.0 **** 0.0
9 CE1 36.0260009765625 40.5340003967285 -16.4120006561279 C 0.0 **** 0.0
10 CE2 35.640998840332 42.898998260498 -16.386999130249 C 0.0 **** 0.0
11 CZ 35.3689994812012 41.6450004577637 -15.8970003128052 C 0.0 **** 0.0
12 OH 34.4799995422363 41.5180015563965 -14.8540000915527 O 0.0 **** 0.0
@<TRIPOS>BOND
1 1 2 1
2 2 3 1
3 2 5 1
4 3 4 1
5 5 6 1
6 6 7 1
7 6 8 1
8 7 9 1
9 8 10 1
10 9 11 1
11 10 11 1
12 11 12 1
@<TRIPOS>MOLECULE
GLY826
4 3
SMALL
USER_CHARGES


@<TRIPOS>ATOM
1 N 38.7630004882813 39.7910003662109 -21.2740001678467 N 0.0 **** 0.0
2 CA 38.9039993286133 38.3559989929199 -21.423999786377 C 0.0 **** 0.0
3 C 40.3629989624023 37.9300003051758 -21.3810005187988 C 0.0 **** 0.0
4 O 41.2560005187988 38.7599983215332 -21.1940002441406 O 0.0 **** 0.0
@<TRIPOS>BOND
1 1 2 1
2 2 3 1
3 3 4 1
@<TRIPOS>MOLECULE
VAL827
7 6
SMALL
USER_CHARGES


@<TRIPOS>ATOM
1 N 40.5999984741211 36.6110000610352 -21.5279998779297 N 0.0 **** 0.0
2 CA 41.9420013427734 36.064998626709 -21.7339992523193 C 0.0 **** 0.0
3 C 41.8839988708496 35.1290016174316 -22.9249992370605 C 0.0 **** 0.0
4 O 40.9580001831055 34.3190002441406 -23.0510005950928 O 0.0 **** 0.0
5 CB 42.5120010375977 35.3279991149902 -20.4979991912842 C 0.0 **** 0.0
6 CG1 42.8639984130859 36.3219985961914 -19.4029998779297 C 0.0 **** 0.0
7 CG2 41.5410003662109 34.2859992980957 -19.9459991455078 C 0.0 **** 0.0
@<TRIPOS>BOND
1 1 2 1
2 2 3 1
3 2 5 1
4 3 4 1
5 5 7 1
6 5 6 1
@<TRIPOS>MOLECULE
LEU828
8 7
SMALL
USER_CHARGES


@<TRIPOS>ATOM
1 N 42.8209991455078 35.3040008544922 -23.8379993438721 N 0.0 **** 0.0
2 CA 42.9949989318848 34.3919982910156 -24.9489994049072 C 0.0 **** 0.0
3 C 43.7729988098145 33.1969985961914 -24.4230003356934 C 0.0 **** 0.0
4 O 44.8460006713867 33.3600006103516 -23.8239994049072 O 0.0 **** 0.0
5 CB 43.7350006103516 35.0929985046387 -26.0820007324219 C 0.0 **** 0.0
6 CG 42.9830017089844 36.3289985656738 -26.5919990539551 C 0.0 **** 0.0
7 CD1 43.8950004577637 37.3040008544922 -27.306999206543 C 0.0 **** 0.0
8 CD2 41.867000579834 35.9090003967285 -27.5340003967285 C 0.0 **** 0.0
@<TRIPOS>BOND
1 1 2 1
2 2 5 1
3 2 3 1
4 3 4 1
5 5 6 1
6 6 8 1
7 6 7 1
@<TRIPOS>MOLECULE
VAL829
7 6
SMALL
USER_CHARGES


@<TRIPOS>ATOM
1 N 43.2210006713867 32.0069999694824 -24.5879993438721 N 0.0 **** 0.0
2 CA 43.8559989929199 30.798999786377 -24.0960006713867 C 0.0 **** 0.0
3 C 44.0909996032715 29.8840007781982 -25.2870006561279 C 0.0 **** 0.0
4 O 43.1459999084473 29.503999710083 -25.9899997711182 O 0.0 **** 0.0
5 CB 43.0069999694824 30.1089992523193 -23.0209999084473 C 0.0 **** 0.0
6 CG1 43.726001739502 28.8799991607666 -22.4780006408691 C 0.0 **** 0.0
7 CG2 42.6769981384277 31.0990009307861 -21.8850002288818 C 0.0 **** 0.0
@<TRIPOS>BOND
1 1 2 1
2 2 3 1
3 2 5 1
4 3 4 1
5 5 6 1
6 5 7 1
@<TRIPOS>MOLECULE
ASP830
8 7
SMALL
USER_CHARGES


@<TRIPOS>ATOM
1 N 45.3499984741211 29.5510005950928 -25.5219993591309 N 0.0 **** 0.0
2 CA 45.7509994506836 28.6550006866455 -26.5930004119873 C 0.0 **** 0.0
3 C 46.2879981994629 27.3640003204346 -25.9930000305176 C 0.0 **** 0.0
4 O 47.1399993896484 27.3959999084473 -25.0979995727539 O 0.0 **** 0.0
5 CB 46.8089981079102 29.318000793457 -27.4610004425049 C 0.0 **** 0.0
6 CG 46.2669982910156 30.5300006866455 -28.2129993438721 C 0.0 **** 0.0
7 OD1 45.0390014648438 30.7290000915527 -28.2700004577637 O 0.0 **** 0.0
8 OD2 47.0870018005371 31.2590007781982 -28.8050003051758 O 0.0 **** 0.0
@<TRIPOS>BOND
1 1 2 1
2 2 5 1
3 2 3 1
4 3 4 1
5 5 6 1
6 6 7 1
7 6 8 1
@<TRIPOS>MOLECULE
TYR831
12 12
SMALL
USER_CHARGES


@<TRIPOS>ATOM
1 N 45.7369995117188 26.2409992218018 -26.4300003051758 N 0.0 **** 0.0
2 CA 46.2150001525879 24.9270000457764 -26.0330009460449 C 0.0 **** 0.0
3 C 46.9770011901855 24.3360004425049 -27.2040004730225 C 0.0 **** 0.0
4 O 46.4280014038086 24.2180004119873 -28.3080005645752 O 0.0 **** 0.0
5 CB 45.060001373291 24.0130004882813 -25.6469993591309 C 0.0 **** 0.0
6 CG 44.1189994812012 24.6019992828369 -24.6009998321533 C 0.0 **** 0.0
7 CD1 43.0279998779297 25.3770008087158 -24.9750003814697 C 0.0 **** 0.0
8 CD2 44.3110008239746 24.3430004119873 -23.242000579834 C 0.0 **** 0.0
9 CE1 42.1619987487793 25.9090003967285 -24.0240001678467 C 0.0 **** 0.0
10 CE2 43.4459991455078 24.8589992523193 -22.2849998474121 C 0.0 **** 0.0
11 CZ 42.375 25.6350002288818 -22.6760005950928 C 0.0 **** 0.0
12 OH 41.5309982299805 26.128999710083 -21.7140007019043 O 0.0 **** 0.0
@<TRIPOS>BOND
1 1 2 1
2 2 5 1
3 2 3 1
4 3 4 1
5 5 6 1
6 6 7 1
7 6 8 1
8 7 9 1
9 8 10 1
10 9 11 1
11 10 11 1
12 11 12 1
@<TRIPOS>MOLECULE
THR832
7 6
SMALL
USER_CHARGES


@<TRIPOS>ATOM
1 N 48.2190017700195 23.9589996337891 -26.9790000915527 N 0.0 **** 0.0
2 CA 48.9850006103516 23.2569999694824 -28.011999130249 C 0.0 **** 0.0
3 C 49.2779998779297 21.8390007019043 -27.55299949646 C 0.0 **** 0.0
4 O 49.939998626709 21.6299991607666 -26.5249996185303 O 0.0 **** 0.0
5 CB 50.2680015563965 24.0060005187988 -28.3460006713867 C 0.0 **** 0.0
6 OG1 49.9059982299805 25.3139991760254 -28.8209991455078 O 0.0 **** 0.0
7 CG2 51.0519981384277 23.257999420166 -29.44700050354 C 0.0 **** 0.0
@<TRIPOS>BOND
1 1 2 1
2 2 3 1
3 2 5 1
4 3 4 1
5 5 6 1
6 5 7 1
@<TRIPOS>MOLECULE
TRP833
14 15
SMALL
USER_CHARGES


@<TRIPOS>ATOM
1 N 48.7939987182617 20.8759994506836 -28.3349990844727 N 0.0 **** 0.0
2 CA 48.8619995117188 19.4619998931885 -28.0179996490479 C 0.0 **** 0.0
3 C 49.890998840332 18.7749996185303 -28.9039993286133 C 0.0 **** 0.0
4 O 49.9930000305176 19.076000213623 -30.1009998321533 O 0.0 **** 0.0
5 CB 47.5009994506836 18.7980003356934 -28.2390003204346 C 0.0 **** 0.0
6 CG 46.3930015563965 19.3290004730225 -27.3939990997314 C 0.0 **** 0.0
7 CD1 45.5929985046387 20.3950004577637 -27.6679992675781 C 0.0 **** 0.0
8 CD2 45.9480018615723 18.8090000152588 -26.1359996795654 C 0.0 **** 0.0
9 NE1 44.6769981384277 20.5709991455078 -26.6690006256104 N 0.0 **** 0.0
10 CE2 44.8689994812012 19.6079998016357 -25.7189998626709 C 0.0 **** 0.0
11 CE3 46.359001159668 17.7450008392334 -25.3229999542236 C 0.0 **** 0.0
12 CZ2 44.1969985961914 19.3910007476807 -24.5259990692139 C 0.0 **** 0.0
13 CZ3 45.6870002746582 17.5249996185303 -24.1380004882813 C 0.0 **** 0.0
14 CH2 44.6150016784668 18.3540000915527 -23.746000289917 C 0.0 **** 0.0
@<TRIPOS>BOND
1 1 2 1
2 2 5 1
3 2 3 1
4 3 4 1
5 5 6 1
6 6 7 1
7 6 8 1
8 7 9 1
9 8 11 1
10 8 10 1
11 9 10 1
12 10 12 1
13 11 13 1
14 12 14 1
15 13 14 1
@<TRIPOS>MOLECULE
SER834
6 5
SMALL
USER_CHARGES


@<TRIPOS>ATOM
1 N 50.6360015869141 17.8409996032715 -28.3129997253418 N 0.0 **** 0.0
2 CA 51.6380004882813 17.0650005340576 -29.0300006866455 C 0.0 **** 0.0
3 C 51.693000793457 15.6730003356934 -28.4300003051758 C 0.0 **** 0.0
4 O 51.4129981994629 15.4860000610352 -27.2439994812012 O 0.0 **** 0.0
5 CB 53.0149993896484 17.7059993743896 -28.9309997558594 C 0.0 **** 0.0
6 OG 53.3969993591309 17.7569999694824 -27.5690002441406 O 0.0 **** 0.0
@<TRIPOS>BOND
1 1 2 1
2 2 5 1
3 2 3 1
4 3 4 1
5 5 6 1
@<TRIPOS>MOLECULE
THR835
7 6
SMALL
USER_CHARGES


@<TRIPOS>ATOM
1 N 52.0789985656738 14.6940002441406 -29.2409992218018 N 0.0 **** 0.0
2 CA 52.2099990844727 13.3599996566772 -28.6800003051758 C 0.0 **** 0.0
3 C 53.1749992370605 12.5430002212524 -29.5170001983643 C 0.0 **** 0.0
4 O 53.2869987487793 12.7200002670288 -30.7329998016357 O 0.0 **** 0.0
5 CB 50.8730010986328 12.625 -28.5930004119873 C 0.0 **** 0.0
6 OG1 51.056999206543 11.3839998245239 -27.9160003662109 O 0.0 **** 0.0
7 CG2 50.3310012817383 12.3369998931885 -29.9729995727539 C 0.0 **** 0.0
@<TRIPOS>BOND
1 1 2 1
2 2 5 1
3 2 3 1
4 3 4 1
5 5 6 1
6 5 7 1
@<TRIPOS>MOLECULE
ASP836
8 7
SMALL
USER_CHARGES


@<TRIPOS>ATOM
1 N 53.859001159668 11.6330003738403 -28.8349990844727 N 0.0 **** 0.0
2 CA 54.6110000610352 10.5869998931885 -29.4969997406006 C 0.0 **** 0.0
3 C 53.8450012207031 9.27400016784668 -29.5259990692139 C 0.0 **** 0.0
4 O 54.4000015258789 8.26000022888184 -29.943000793457 O 0.0 **** 0.0
5 CB 55.951000213623 10.3959999084473 -28.798999786377 C 0.0 **** 0.0
6 CG 55.7900009155273 9.91100025177002 -27.378999710083 C 0.0 **** 0.0
7 OD1 54.6459999084473 9.55300045013428 -26.9979991912842 O 0.0 **** 0.0
8 OD2 56.8050003051758 9.88799953460693 -26.6410007476807 O 0.0 **** 0.0
@<TRIPOS>BOND
1 1 2 1
2 2 5 1
3 2 3 1
4 3 4 1
5 5 6 1
6 6 8 1
7 6 7 1
@<TRIPOS>MOLECULE
GLY837
4 3
SMALL
USER_CHARGES


@<TRIPOS>ATOM
1 N 52.5919990539551 9.26099967956543 -29.0750007629395 N 0.0 **** 0.0
2 CA 51.7910003662109 8.05599975585938 -29.0349998474121 C 0.0 **** 0.0
3 C 51.6100006103516 7.47200012207031 -27.6480007171631 C 0.0 **** 0.0
4 O 50.6419982910156 6.72800016403198 -27.4290008544922 O 0.0 **** 0.0
@<TRIPOS>BOND
1 1 2 1
2 2 3 1
3 3 4 1
@<TRIPOS>MOLECULE
GLU838
9 8
SMALL
USER_CHARGES


@<TRIPOS>ATOM
1 N 52.515998840332 7.75799989700317 -26.7129993438721 N 0.0 **** 0.0
2 CA 52.3190002441406 7.35900020599365 -25.32200050354 C 0.0 **** 0.0
3 C 52.226001739502 8.53800010681152 -24.3689994812012 C 0.0 **** 0.0
4 O 51.3880004882813 8.52700042724609 -23.4659996032715 O 0.0 **** 0.0
5 CB 53.4449996948242 6.42999982833862 -24.8519992828369 C 0.0 **** 0.0
6 CG 53.0219993591309 5.52400016784668 -23.6909999847412 C 0.0 **** 0.0
7 CD 54.1699981689453 4.70499992370605 -23.1110000610352 C 0.0 **** 0.0
8 OE1 55.2509994506836 5.2810001373291 -22.8560009002686 O 0.0 **** 0.0
9 OE2 53.9939994812012 3.48099994659424 -22.9120006561279 O 0.0 **** 0.0
@<TRIPOS>BOND
1 1 2 1
2 2 3 1
3 2 5 1
4 3 4 1
5 5 6 1
6 6 7 1
7 7 9 1
8 7 8 1
@<TRIPOS>MOLECULE
THR839
7 6
SMALL
USER_CHARGES


@<TRIPOS>ATOM
1 N 53.0629997253418 9.55099964141846 -24.5440006256104 N 0.0 **** 0.0
2 CA 53.0270004272461 10.7530002593994 -23.7250003814697 C 0.0 **** 0.0
3 C 52.4379997253418 11.914999961853 -24.5139999389648 C 0.0 **** 0.0
4 O 52.7550010681152 12.1000003814697 -25.69700050354 O 0.0 **** 0.0
5 CB 54.431999206543 11.1000003814697 -23.2590007781982 C 0.0 **** 0.0
6 OG1 54.8759994506836 10.0860004425049 -22.3610000610352 O 0.0 **** 0.0
7 CG2 54.4690017700195 12.423999786377 -22.5620002746582 C 0.0 **** 0.0
@<TRIPOS>BOND
1 1 2 1
2 2 5 1
3 2 3 1
4 3 4 1
5 5 6 1
6 5 7 1
@<TRIPOS>MOLECULE
VAL840
7 6
SMALL
USER_CHARGES


@<TRIPOS>ATOM
1 N 51.5859985351563 12.6949996948242 -23.8449993133545 N 0.0 **** 0.0
2 CA 50.9379997253418 13.8660001754761 -24.4200000762939 C 0.0 **** 0.0
3 C 51.560001373291 15.1149997711182 -23.8129997253418 C 0.0 **** 0.0
4 O 51.6800003051758 15.2320003509521 -22.5860004425049 O 0.0 **** 0.0
5 CB 49.4210014343262 13.8280000686646 -24.1650009155273 C 0.0 **** 0.0
6 CG1 48.7449989318848 15.1090002059937 -24.6919994354248 C 0.0 **** 0.0
7 CG2 48.8160018920898 12.5609998703003 -24.82200050354 C 0.0 **** 0.0
@<TRIPOS>BOND
1 1 2 1
2 2 5 1
3 2 3 1
4 3 4 1
5 5 7 1
6 5 6 1
@<TRIPOS>MOLECULE
GLY841
4 3
SMALL
USER_CHARGES


@<TRIPOS>ATOM
1 N 51.9500007629395 16.0639991760254 -24.6730003356934 N 0.0 **** 0.0
2 CA 52.398998260498 17.367000579834 -24.2240009307861 C 0.0 **** 0.0
3 C 51.2830009460449 18.3920001983643 -24.4090003967285 C 0.0 **** 0.0
4 O 50.6949996948242 18.4890003204346 -25.4829998016357 O 0.0 **** 0.0
@<TRIPOS>BOND
1 1 2 1
2 2 3 1
3 3 4 1
@<TRIPOS>MOLECULE
LEU842
8 7
SMALL
USER_CHARGES


@<TRIPOS>ATOM
1 N 50.9990005493164 19.1299991607666 -23.3460006713867 N 0.0 **** 0.0
2 CA 49.9739990234375 20.1809997558594 -23.363000869751 C 0.0 **** 0.0
3 C 50.6119995117188 21.4850006103516 -22.9139995574951 C 0.0 **** 0.0
4 O 51.0190010070801 21.6159992218018 -21.7490005493164 O 0.0 **** 0.0
5 CB 48.7869987487793 19.8449993133545 -22.451000213623 C 0.0 **** 0.0
6 CG 47.7929992675781 21.0 -22.2689990997314 C 0.0 **** 0.0
7 CD1 47.3059997558594 21.5 -23.6569995880127 C 0.0 **** 0.0
8 CD2 46.6230010986328 20.556999206543 -21.4160003662109 C 0.0 **** 0.0
@<TRIPOS>BOND
1 1 2 1
2 2 5 1
3 2 3 1
4 3 4 1
5 5 6 1
6 6 7 1
7 6 8 1
@<TRIPOS>MOLECULE
ARG843
11 10
SMALL
USER_CHARGES


@<TRIPOS>ATOM
1 N 50.689998626709 22.4400005340576 -23.8279991149902 N 0.0 **** 0.0
2 CA 51.1669998168945 23.7789993286133 -23.5330009460449 C 0.0 **** 0.0
3 C 49.9799995422363 24.7269992828369 -23.5170001983643 C 0.0 **** 0.0
4 O 49.2070007324219 24.7740001678467 -24.4799995422363 O 0.0 **** 0.0
5 CB 52.1870002746582 24.2430000305176 -24.5709991455078 C 0.0 **** 0.0
6 CG 52.798999786377 25.6110000610352 -24.2819995880127 C 0.0 **** 0.0
7 CD 53.2220001220703 26.298999786377 -25.5610008239746 C 0.0 **** 0.0
8 NE 54.2080001831055 27.3470001220703 -25.3159999847412 N 0.0 **** 0.0
9 CZ 54.8660011291504 27.9839992523193 -26.2819995880127 C 0.0 **** 0.0
10 NH1 54.6380004882813 27.6830005645752 -27.5559997558594 N 0.0 **** 0.0
11 NH2 55.7569999694824 28.9209995269775 -25.9759998321533 N 0.0 **** 0.0
@<TRIPOS>BOND
1 1 2 1
2 2 3 1
3 2 5 1
4 3 4 1
5 5 6 1
6 6 7 1
7 7 8 1
8 8 9 1
9 9 11 1
10 9 10 1
@<TRIPOS>MOLECULE
THR844
7 6
SMALL
USER_CHARGES


@<TRIPOS>ATOM
1 N 49.8440017700195 25.4820003509521 -22.4340000152588 N 0.0 **** 0.0
2 CA 48.7389984130859 26.4050006866455 -22.2530002593994 C 0.0 **** 0.0
3 C 49.3050003051758 27.8139991760254 -22.1720008850098 C 0.0 **** 0.0
4 O 50.2299995422363 28.0750007629395 -21.3880004882813 O 0.0 **** 0.0
5 CB 47.939998626709 26.0459995269775 -20.9939994812012 C 0.0 **** 0.0
6 OG1 47.5139999389648 24.6879997253418 -21.0839996337891 O 0.0 **** 0.0
7 CG2 46.7019996643066 26.9270000457764 -20.806999206543 C 0.0 **** 0.0
@<TRIPOS>BOND
1 1 2 1
2 2 3 1
3 2 5 1
4 3 4 1
5 5 6 1
6 5 7 1
@<TRIPOS>MOLECULE
GLN845
9 8
SMALL
USER_CHARGES


@<TRIPOS>ATOM
1 N 48.7599983215332 28.7129993438721 -22.9860000610352 N 0.0 **** 0.0
2 CA 49.2109985351563 30.0939998626709 -23.0359992980957 C 0.0 **** 0.0
3 C 48.0169982910156 31.0030002593994 -22.8110008239746 C 0.0 **** 0.0
4 O 46.9879989624023 30.8610000610352 -23.4799995422363 O 0.0 **** 0.0
5 CB 49.8730010986328 30.4020004272461 -24.3819999694824 C 0.0 **** 0.0
6 CG 51.1160011291504 29.5429992675781 -24.6590003967285 C 0.0 **** 0.0
7 CD 51.4570007324219 29.4759998321533 -26.1410007476807 C 0.0 **** 0.0
8 OE1 50.7709999084473 28.8059997558594 -26.9290008544922 O 0.0 **** 0.0
9 NE2 52.5110015869141 30.1840000152588 -26.5310001373291 N 0.0 **** 0.0
@<TRIPOS>BOND
1 1 2 1
2 2 3 1
3 2 5 1
4 3 4 1
5 5 6 1
6 6 7 1
7 7 8 1
8 7 9 1
@<TRIPOS>MOLECULE
VAL846
7 6
SMALL
USER_CHARGES


@<TRIPOS>ATOM
1 N 48.1640014648438 31.9340000152588 -21.8770008087158 N 0.0 **** 0.0
2 CA 47.0830001831055 32.806999206543 -21.4349994659424 C 0.0 **** 0.0
3 C 47.5069999694824 34.2509994506836 -21.6720008850098 C 0.0 **** 0.0
4 O 48.5810012817383 34.6660003662109 -21.2189998626709 O 0.0 **** 0.0
5 CB 46.7799987792969 32.5740013122559 -19.9409999847412 C 0.0 **** 0.0
6 CG1 45.6660003662109 33.5040016174316 -19.44700050354 C 0.0 **** 0.0
7 CG2 46.4230003356934 31.1070003509521 -19.673999786377 C 0.0 **** 0.0
@<TRIPOS>BOND
1 1 2 1
2 2 5 1
3 2 3 1
4 3 4 1
5 5 7 1
6 5 6 1
@<TRIPOS>MOLECULE
ARG847
11 10
SMALL
USER_CHARGES


@<TRIPOS>ATOM
1 N 46.640998840332 35.0359992980957 -22.2950000762939 N 0.0 **** 0.0
2 CA 46.9790000915527 36.4150009155273 -22.632999420166 C 0.0 **** 0.0
3 C 45.7789993286133 37.2980003356934 -22.3799991607666 C 0.0 **** 0.0
4 O 44.685001373291 37.0499992370605 -22.9099998474121 O 0.0 **** 0.0
5 CB 47.4360008239746 36.5340003967285 -24.0860004425049 C 0.0 **** 0.0
6 CG 48.4729995727539 35.4690017700195 -24.4340000152588 C 0.0 **** 0.0
7 CD 48.9679985046387 35.5410003662109 -25.8990001678467 C 0.0 **** 0.0
8 NE 47.9580001831055 35.2389984130859 -26.9190006256104 N 0.0 **** 0.0
9 CZ 47.3569984436035 34.0610008239746 -27.0669994354248 C 0.0 **** 0.0
10 NH1 47.6110000610352 33.064998626709 -26.2229995727539 N 0.0 **** 0.0
11 NH2 46.4770011901855 33.8880004882813 -28.0470008850098 N 0.0 **** 0.0
@<TRIPOS>BOND
1 1 2 1
2 2 3 1
3 2 5 1
4 3 4 1
5 5 6 1
6 6 7 1
7 7 8 1
8 8 9 1
9 9 11 1
10 9 10 1
@<TRIPOS>MOLECULE
ARG848
11 10
SMALL
USER_CHARGES


@<TRIPOS>ATOM
1 N 45.9749984741211 38.3209991455078 -21.5559997558594 N 0.0 **** 0.0
2 CA 44.8930015563965 39.2490005493164 -21.2830009460449 C 0.0 **** 0.0
3 C 44.4900016784668 39.9780006408691 -22.5440006256104 C 0.0 **** 0.0
4 O 45.3349990844727 40.4360008239746 -23.3320007324219 O 0.0 **** 0.0
5 CB 45.3120002746582 40.2569999694824 -20.2210006713867 C 0.0 **** 0.0
6 CG 45.5089988708496 39.6879997253418 -18.8530006408691 C 0.0 **** 0.0
7 CD 46.3250007629395 40.6440010070801 -18.0200004577637 C 0.0 **** 0.0
8 NE 47.6259994506836 40.8440017700195 -18.6480007171631 N 0.0 **** 0.0
9 CZ 48.3580017089844 41.9560012817383 -18.5709991455078 C 0.0 **** 0.0
10 NH1 47.9560012817383 42.9830017089844 -17.8290004730225 N 0.0 **** 0.0
11 NH2 49.5089988708496 42.0250015258789 -19.2390003204346 N 0.0 **** 0.0
@<TRIPOS>BOND
1 1 2 1
2 2 5 1
3 2 3 1
4 3 4 1
5 5 6 1
6 6 7 1
7 7 8 1
8 8 9 1
9 9 10 1
10 9 11 1
@<TRIPOS>MOLECULE
ASP849
8 7
SMALL
USER_CHARGES


@<TRIPOS>ATOM
1 N 43.1780014038086 40.0979995727539 -22.7360000610352 N 0.0 **** 0.0
2 CA 42.6319999694824 40.8530006408691 -23.8509998321533 C 0.0 **** 0.0
3 C 41.6230010986328 41.8470001220703 -23.2770004272461 C 0.0 **** 0.0
4 O 40.4679985046387 41.4930000305176 -22.9969997406006 O 0.0 **** 0.0
5 CB 41.9930000305176 39.9339981079102 -24.8939990997314 C 0.0 **** 0.0
6 CG 41.2330017089844 40.7050018310547 -25.9589996337891 C 0.0 **** 0.0
7 OD1 41.6870002746582 41.8050003051758 -26.3379993438721 O 0.0 **** 0.0
8 OD2 40.1510009765625 40.2470016479492 -26.378999710083 O 0.0 **** 0.0
@<TRIPOS>BOND
1 1 2 1
2 2 3 1
3 2 5 1
4 3 4 1
5 5 6 1
6 6 7 1
7 6 8 1
@<TRIPOS>MOLECULE
GLY850
4 3
SMALL
USER_CHARGES


@<TRIPOS>ATOM
1 N 42.068000793457 43.0870018005371 -23.0820007324219 N 0.0 **** 0.0
2 CA 41.2980003356934 44.068000793457 -22.3409996032715 C 0.0 **** 0.0
3 C 41.6529998779297 44.0769996643066 -20.8589992523193 C 0.0 **** 0.0
4 O 42.1399993896484 43.1059989929199 -20.2900009155273 O 0.0 **** 0.0
@<TRIPOS>BOND
1 1 2 1
2 2 3 1
3 3 4 1
@<TRIPOS>MOLECULE
THR851
7 6
SMALL
USER_CHARGES


@<TRIPOS>ATOM
1 N 41.4119987487793 45.2109985351563 -20.2259998321533 N 0.0 **** 0.0
2 CA 41.8110008239746 45.4020004272461 -18.8290004730225 C 0.0 **** 0.0
3 C 40.810001373291 44.7480010986328 -17.8850002288818 C 0.0 **** 0.0
4 O 39.6049995422363 44.9659996032715 -18.0049991607666 O 0.0 **** 0.0
5 CB 41.9109992980957 46.8940010070801 -18.5259990692139 C 0.0 **** 0.0
6 OG1 42.8629989624023 47.4809989929199 -19.4200000762939 O 0.0 **** 0.0
7 CG2 42.3349990844727 47.1619987487793 -17.0709991455078 C 0.0 **** 0.0
@<TRIPOS>BOND
1 1 2 1
2 2 3 1
3 2 5 1
4 3 4 1
5 5 7 1
6 5 6 1
@<TRIPOS>MOLECULE
TRP852
14 15
SMALL
USER_CHARGES


@<TRIPOS>ATOM
1 N 41.3120002746582 43.9640007019043 -16.9349994659424 N 0.0 **** 0.0
2 CA 40.4550018310547 43.2610015869141 -15.9790000915527 C 0.0 **** 0.0
3 C 40.0830001831055 44.2150001525879 -14.8380002975464 C 0.0 **** 0.0
4 O 40.5960006713867 44.148998260498 -13.7209997177124 O 0.0 **** 0.0
5 CB 41.1559982299805 42.0050010681152 -15.4840002059937 C 0.0 **** 0.0
6 CG 41.0279998779297 40.9249992370605 -16.507999420166 C 0.0 **** 0.0
7 CD1 41.6180000305176 40.8899993896484 -17.7250003814697 C 0.0 **** 0.0
8 CD2 40.1980018615723 39.7610015869141 -16.42799949646 C 0.0 **** 0.0
9 NE1 41.2039985656738 39.773998260498 -18.4249992370605 N 0.0 **** 0.0
10 CE2 40.3450012207031 39.056999206543 -17.6359996795654 C 0.0 **** 0.0
11 CE3 39.3440017700195 39.2519989013672 -15.4530000686646 C 0.0 **** 0.0
12 CZ2 39.6479988098145 37.8569984436035 -17.8999996185303 C 0.0 **** 0.0
13 CZ3 38.681999206543 38.0550003051758 -15.7019996643066 C 0.0 **** 0.0
14 CH2 38.8419990539551 37.3759994506836 -16.9009990692139 C 0.0 **** 0.0
@<TRIPOS>BOND
1 1 2 1
2 2 3 1
3 2 5 1
4 3 4 1
5 5 6 1
6 6 8 1
7 6 7 1
8 7 9 1
9 8 11 1
10 8 10 1
11 9 10 1
12 10 12 1
13 11 13 1
14 12 14 1
15 13 14 1
@<TRIPOS>MOLECULE
VAL853
7 6
SMALL
USER_CHARGES


@<TRIPOS>ATOM
1 N 39.1609992980957 45.1220016479492 -15.1479997634888 N 0.0 **** 0.0
2 CA 38.6580009460449 46.0970001220703 -14.1949996948242 C 0.0 **** 0.0
3 C 37.1360015869141 46.015998840332 -14.2200002670288 C 0.0 **** 0.0
4 O 36.5200004577637 45.8569984436035 -15.2819995880127 O 0.0 **** 0.0
5 CB 39.1759986877441 47.5190010070801 -14.5249996185303 C 0.0 **** 0.0
6 CG1 38.8059997558594 47.9109992980957 -15.9569997787476 C 0.0 **** 0.0
7 CG2 38.6290016174316 48.5530014038086 -13.543999671936 C 0.0 **** 0.0
@<TRIPOS>BOND
1 1 2 1
2 2 3 1
3 2 5 1
4 3 4 1
5 5 6 1
6 5 7 1
@<TRIPOS>MOLECULE
ASN854
8 7
SMALL
USER_CHARGES


@<TRIPOS>ATOM
1 N 36.5299987792969 46.0769996643066 -13.0430002212524 N 0.0 **** 0.0
2 CA 35.0880012512207 45.9500007629395 -12.9440002441406 C 0.0 **** 0.0
3 C 34.6199989318848 46.8170013427734 -11.7770004272461 C 0.0 **** 0.0
4 O 35.226001739502 46.7970008850098 -10.7089996337891 O 0.0 **** 0.0
5 CB 34.6809997558594 44.5019989013672 -12.7370004653931 C 0.0 **** 0.0
6 CG 33.1870002746582 44.314998626709 -12.8210000991821 C 0.0 **** 0.0
7 OD1 32.576000213623 44.5149993896484 -13.8819999694824 O 0.0 **** 0.0
8 ND2 32.5839996337891 43.9570007324219 -11.7110004425049 N 0.0 **** 0.0
@<TRIPOS>BOND
1 1 2 1
2 2 5 1
3 2 3 1
4 3 4 1
5 5 6 1
6 6 7 1
7 6 8 1
@<TRIPOS>MOLECULE
ARG855
11 10
SMALL
USER_CHARGES


@<TRIPOS>ATOM
1 N 33.5810012817383 47.5999984741211 -12.0 N 0.0 **** 0.0
2 CA 33.0839996337891 48.5209999084473 -10.9700002670288 C 0.0 **** 0.0
3 C 34.2000007629395 49.4119987487793 -10.4569997787476 C 0.0 **** 0.0
4 O 34.2190017700195 49.7970008850098 -9.28499984741211 O 0.0 **** 0.0
5 CB 32.4539985656738 47.7760009765625 -9.80300045013428 C 0.0 **** 0.0
6 CG 31.1720008850098 47.1279983520508 -10.1180000305176 C 0.0 **** 0.0
7 CD 30.3229999542236 46.9669990539551 -8.87199974060059 C 0.0 **** 0.0
8 NE 29.3110008239746 45.9210014343262 -9.03699970245361 N 0.0 **** 0.0
9 CZ 28.0520000457764 46.1240005493164 -9.40999984741211 C 0.0 **** 0.0
10 NH1 27.6149997711182 47.359001159668 -9.67000007629395 N 0.0 **** 0.0
11 NH2 27.2250003814697 45.0880012512207 -9.52799987792969 N 0.0 **** 0.0
@<TRIPOS>BOND
1 1 2 1
2 2 3 1
3 2 5 1
4 3 4 1
5 5 6 1
6 6 7 1
7 7 8 1
8 8 9 1
9 9 11 1
10 9 10 1
@<TRIPOS>MOLECULE
GLY856
4 3
SMALL
USER_CHARGES


@<TRIPOS>ATOM
1 N 35.1469993591309 49.7309989929199 -11.326000213623 N 0.0 **** 0.0
2 CA 36.1889991760254 50.6809997558594 -10.996000289917 C 0.0 **** 0.0
3 C 37.375 50.1160011291504 -10.2629995346069 C 0.0 **** 0.0
4 O 38.2849998474121 50.8740005493164 -9.91600036621094 O 0.0 **** 0.0
@<TRIPOS>BOND
1 1 2 1
2 2 3 1
3 3 4 1
@<TRIPOS>MOLECULE
PHE857
11 11
SMALL
USER_CHARGES


@<TRIPOS>ATOM
1 N 37.4049987792969 48.814998626709 -10.0109996795654 N 0.0 **** 0.0
2 CA 38.4959983825684 48.2109985351563 -9.28499984741211 C 0.0 **** 0.0
3 C 39.0419998168945 47.0429992675781 -10.0710000991821 C 0.0 **** 0.0
4 O 38.2799987792969 46.3110008239746 -10.6999998092651 O 0.0 **** 0.0
5 CB 38.0089988708496 47.7449989318848 -7.93599987030029 C 0.0 **** 0.0
6 CG 37.6189994812012 48.8610000610352 -7.03800010681152 C 0.0 **** 0.0
7 CD1 38.5909996032715 49.6020011901855 -6.39900016784668 C 0.0 **** 0.0
8 CD2 36.2859992980957 49.1699981689453 -6.83900022506714 C 0.0 **** 0.0
9 CE1 38.2400016784668 50.6459999084473 -5.54400014877319 C 0.0 **** 0.0
10 CE2 35.923999786377 50.2070007324219 -5.98299980163574 C 0.0 **** 0.0
11 CZ 36.9140014648438 50.9519996643066 -5.3439998626709 C 0.0 **** 0.0
@<TRIPOS>BOND
1 1 2 1
2 2 5 1
3 2 3 1
4 3 4 1
5 5 6 1
6 6 8 1
7 6 7 1
8 7 9 1
9 8 10 1
10 9 11 1
11 10 11 1
@<TRIPOS>MOLECULE
GLU858
15 23
SMALL
USER_CHARGES


@<TRIPOS>ATOM
1 N 40.3489990234375 46.8699989318848 -10.0129995346069 N 0.0 **** 0.0
2 CA 40.9780006408691 45.765998840332 -10.71399974823 C 0.0 **** 0.0
3 CA 41.0040016174316 45.7610015869141 -10.6979999542236 C 0.0 **** 0.0
4 C 40.5550003051758 44.4339981079102 -10.1009998321533 C 0.0 **** 0.0
5 O 40.4440002441406 44.2949981689453 -8.88500022888184 O 0.0 **** 0.0
6 CB 42.4980010986328 45.951000213623 -10.6940002441406 C 0.0 **** 0.0
7 CB 42.5330009460449 45.8940010070801 -10.6000003814697 C 0.0 **** 0.0
8 CG 42.9129981994629 47.1580009460449 -11.5559997558594 C 0.0 **** 0.0
9 CG 43.3310012817383 44.7760009765625 -11.3100004196167 C 0.0 **** 0.0
10 CD 44.359001159668 47.6069984436035 -11.3909997940063 C 0.0 **** 0.0
11 CD 44.8600006103516 45.0120010375977 -11.3269996643066 C 0.0 **** 0.0
12 OE1 44.9490013122559 47.4269981384277 -10.2910003662109 O 0.0 **** 0.0
13 OE1 45.2910003662109 46.173999786377 -11.1730003356934 O 0.0 **** 0.0
14 OE2 44.8889999389648 48.1809997558594 -12.3690004348755 O 0.0 **** 0.0
15 OE2 45.6279983520508 44.0449981689453 -11.5170001983643 O 0.0 **** 0.0
@<TRIPOS>BOND
1 1 2 1
2 1 3 1
3 2 3 1
4 2 6 1
5 2 7 1
6 2 4 1
7 3 6 1
8 3 7 1
9 3 4 1
10 4 5 1
11 6 7 1
12 6 8 1
13 6 9 1
14 7 8 1
15 7 9 1
16 8 10 1
17 9 11 1
18 10 12 1
19 10 13 1
20 10 14 1
21 11 15 1
22 11 13 1
23 12 13 1
@<TRIPOS>MOLECULE
VAL859
7 6
SMALL
USER_CHARGES


@<TRIPOS>ATOM
1 N 40.273998260498 43.4679985046387 -10.9659996032715 N 0.0 **** 0.0
2 CA 39.8110008239746 42.1419982910156 -10.5830001831055 C 0.0 **** 0.0
3 C 41.0540008544922 41.3219985961914 -10.2609996795654 C 0.0 **** 0.0
4 O 41.9570007324219 41.2150001525879 -11.0939998626709 O 0.0 **** 0.0
5 CB 39.0089988708496 41.4939994812012 -11.7309999465942 C 0.0 **** 0.0
6 CG1 38.5340003967285 40.0900001525879 -11.378999710083 C 0.0 **** 0.0
7 CG2 37.8059997558594 42.4000015258789 -12.1120004653931 C 0.0 **** 0.0
@<TRIPOS>BOND
1 1 2 1
2 2 5 1
3 2 3 1
4 3 4 1
5 5 6 1
6 5 7 1
@<TRIPOS>MOLECULE
GLU860
9 8
SMALL
USER_CHARGES


@<TRIPOS>ATOM
1 N 41.1310005187988 40.7820014953613 -9.05200004577637 N 0.0 **** 0.0
2 CA 42.1100006103516 39.7470016479492 -8.75599956512451 C 0.0 **** 0.0
3 C 41.5670013427734 38.3499984741211 -9.06599998474121 C 0.0 **** 0.0
4 O 40.3520011901855 38.117000579834 -9.0930004119873 O 0.0 **** 0.0
5 CB 42.548999786377 39.814998626709 -7.2960000038147 C 0.0 **** 0.0
6 CG 43.4640007019043 40.9770011901855 -7.02899980545044 C 0.0 **** 0.0
7 CD 44.2080001831055 40.8370018005371 -5.72100019454956 C 0.0 **** 0.0
8 OE1 44.5880012512207 39.7000007629395 -5.36199998855591 O 0.0 **** 0.0
9 OE2 44.4099998474121 41.8660011291504 -5.05900001525879 O 0.0 **** 0.0
@<TRIPOS>BOND
1 1 2 1
2 2 3 1
3 2 5 1
4 3 4 1
5 5 6 1
6 6 7 1
7 7 9 1
8 7 8 1
@<TRIPOS>MOLECULE
TRP861
14 15
SMALL
USER_CHARGES


@<TRIPOS>ATOM
1 N 42.4869995117188 37.431999206543 -9.36400032043457 N 0.0 **** 0.0
2 CA 42.1669998168945 36.0509986877441 -9.66399955749512 C 0.0 **** 0.0
3 C 42.5 35.1780014038086 -8.46199989318848 C 0.0 **** 0.0
4 O 43.375 35.5060005187988 -7.67000007629395 O 0.0 **** 0.0
5 CB 42.9550018310547 35.5429992675781 -10.8839998245239 C 0.0 **** 0.0
6 CG 42.6199989318848 36.2109985351563 -12.1560001373291 C 0.0 **** 0.0
7 CD1 41.5110015869141 36.923999786377 -12.4350004196167 C 0.0 **** 0.0
8 CD2 43.4150009155273 36.2080001831055 -13.3479995727539 C 0.0 **** 0.0
9 NE1 41.5470008850098 37.3699989318848 -13.7489995956421 N 0.0 **** 0.0
10 CE2 42.7140007019043 36.9420013427734 -14.3190002441406 C 0.0 **** 0.0
11 CE3 44.6539993286133 35.6419982910156 -13.6850004196167 C 0.0 **** 0.0
12 CZ2 43.2130012512207 37.1419982910156 -15.6020002365112 C 0.0 **** 0.0
13 CZ3 45.1510009765625 35.8479995727539 -14.9540004730225 C 0.0 **** 0.0
14 CH2 44.4269981384277 36.5870018005371 -15.9020004272461 C 0.0 **** 0.0
@<TRIPOS>BOND
1 1 2 1
2 2 5 1
3 2 3 1
4 3 4 1
5 5 6 1
6 6 7 1
7 6 8 1
8 7 9 1
9 8 10 1
10 8 11 1
11 9 10 1
12 10 12 1
13 11 13 1
14 12 14 1
15 13 14 1
@<TRIPOS>MOLECULE
ALA862
5 4
SMALL
USER_CHARGES


@<TRIPOS>ATOM
1 N 41.7569999694824 34.0849990844727 -8.3129997253418 N 0.0 **** 0.0
2 CA 42.0900001525879 33.0460014343262 -7.34200000762939 C 0.0 **** 0.0
3 C 43.189998626709 32.1290016174316 -7.8270001411438 C 0.0 **** 0.0
4 O 43.9160003662109 31.5380001068115 -7.00699996948242 O 0.0 **** 0.0
5 CB 40.8680000305176 32.1969985961914 -7.03999996185303 C 0.0 **** 0.0
@<TRIPOS>BOND
1 1 2 1
2 2 3 1
3 2 5 1
4 3 4 1
@<TRIPOS>MOLECULE
ARG863
11 10
SMALL
USER_CHARGES


@<TRIPOS>ATOM
1 N 43.2729988098145 31.9570007324219 -9.1269998550415 N 0.0 **** 0.0
2 CA 44.2509994506836 31.0270004272461 -9.69799995422363 C 0.0 **** 0.0
3 C 44.3940010070801 31.2390003204346 -11.1969995498657 C 0.0 **** 0.0
4 O 43.6730003356934 32.0219993591309 -11.7609996795654 O 0.0 **** 0.0
5 CB 43.7070007324219 29.6189994812012 -9.46100044250488 C 0.0 **** 0.0
6 CG 42.5279998779297 29.2660007476807 -10.3529996871948 C 0.0 **** 0.0
7 CD 41.4539985656738 28.4050006866455 -9.73700046539307 C 0.0 **** 0.0
8 NE 41.9269981384277 27.117000579834 -9.30900001525879 N 0.0 **** 0.0
9 CZ 41.2210006713867 26.2639999389648 -8.60900020599365 C 0.0 **** 0.0
10 NH1 41.7529983520508 25.1180000305176 -8.24699974060059 N 0.0 **** 0.0
11 NH2 39.9860000610352 26.5429992675781 -8.26599979400635 N 0.0 **** 0.0
@<TRIPOS>BOND
1 1 2 1
2 2 3 1
3 2 5 1
4 3 4 1
5 5 6 1
6 6 7 1
7 7 8 1
8 8 9 1
9 9 10 1
10 9 11 1
@<TRIPOS>MOLECULE
ILE864
8 7
SMALL
USER_CHARGES


@<TRIPOS>ATOM
1 N 45.4090003967285 30.6149997711182 -11.7589998245239 N 0.0 **** 0.0
2 CA 45.5169982910156 30.3999996185303 -13.201000213623 C 0.0 **** 0.0
3 C 45.6889991760254 28.9090003967285 -13.3540000915527 C 0.0 **** 0.0
4 O 46.7610015869141 28.3819999694824 -13.0279998779297 O 0.0 **** 0.0
5 CB 46.693000793457 31.1490001678467 -13.8360004425049 C 0.0 **** 0.0
6 CG1 46.5499992370605 32.6430015563965 -13.5570001602173 C 0.0 **** 0.0
7 CG2 46.7540016174316 30.8659992218018 -15.3620004653931 C 0.0 **** 0.0
8 CD1 47.7949981689453 33.4550018310547 -13.8280000686646 C 0.0 **** 0.0
@<TRIPOS>BOND
1 1 2 1
2 2 3 1
3 2 5 1
4 3 4 1
5 5 6 1
6 5 7 1
7 6 8 1
@<TRIPOS>MOLECULE
GLY865
4 3
SMALL
USER_CHARGES


@<TRIPOS>ATOM
1 N 44.6399993896484 28.2210006713867 -13.8210000991821 N 0.0 **** 0.0
2 CA 44.7000007629395 26.7749996185303 -13.8599996566772 C 0.0 **** 0.0
3 C 43.773998260498 26.1639995574951 -14.8830003738403 C 0.0 **** 0.0
4 O 43.0950012207031 26.863000869751 -15.6420001983643 O 0.0 **** 0.0
@<TRIPOS>BOND
1 1 2 1
2 2 3 1
3 3 4 1
@<TRIPOS>MOLECULE
LEU866
8 7
SMALL
USER_CHARGES


@<TRIPOS>ATOM
1 N 43.7750015258789 24.8209991455078 -14.8979997634888 N 0.0 **** 0.0
2 CA 42.8849983215332 24.0279998779297 -15.7399997711182 C 0.0 **** 0.0
3 C 41.9609985351563 23.1790008544922 -14.8730001449585 C 0.0 **** 0.0
4 O 42.3819999694824 22.6340007781982 -13.8409996032715 O 0.0 **** 0.0
5 CB 43.6679992675781 23.0939998626709 -16.6860008239746 C 0.0 **** 0.0
6 CG 44.7120018005371 23.746000289917 -17.6030006408691 C 0.0 **** 0.0
7 CD1 45.4739990234375 22.6979999542236 -18.3990001678467 C 0.0 **** 0.0
8 CD2 44.0820007324219 24.7649993896484 -18.5470008850098 C 0.0 **** 0.0
@<TRIPOS>BOND
1 1 2 1
2 2 3 1
3 2 5 1
4 3 4 1
5 5 6 1
6 6 7 1
7 6 8 1
@<TRIPOS>MOLECULE
GLU867
9 8
SMALL
USER_CHARGES


@<TRIPOS>ATOM
1 N 40.7099990844727 23.0419998168945 -15.3100004196167 N 0.0 **** 0.0
2 CA 39.7760009765625 22.068000793457 -14.7589998245239 C 0.0 **** 0.0
3 C 39.5660018920898 20.996000289917 -15.8149995803833 C 0.0 **** 0.0
4 O 39.1450004577637 21.306999206543 -16.9379997253418 O 0.0 **** 0.0
5 CB 38.4410018920898 22.7029991149902 -14.3830003738403 C 0.0 **** 0.0
6 CG 37.4410018920898 21.7259998321533 -13.7469997406006 C 0.0 **** 0.0
7 CD 36.064998626709 22.3460006713867 -13.5670003890991 C 0.0 **** 0.0
8 OE1 35.5260009765625 22.8379993438721 -14.5620002746582 O 0.0 **** 0.0
9 OE2 35.5180015563965 22.3390007019043 -12.4530000686646 O 0.0 **** 0.0
@<TRIPOS>BOND
1 1 2 1
2 2 5 1
3 2 3 1
4 3 4 1
5 5 6 1
6 6 7 1
7 7 9 1
8 7 8 1
@<TRIPOS>MOLECULE
PHE868
11 11
SMALL
USER_CHARGES


@<TRIPOS>ATOM
1 N 39.8899993896484 19.7530002593994 -15.4700002670288 N 0.0 **** 0.0
2 CA 39.5089988708496 18.5839996337891 -16.2560005187988 C 0.0 **** 0.0
3 C 38.2970008850098 17.9680004119873 -15.5679998397827 C 0.0 **** 0.0
4 O 38.3800010681152 17.6000003814697 -14.3879995346069 O 0.0 **** 0.0
5 CB 40.6150016784668 17.5310001373291 -16.3099994659424 C 0.0 **** 0.0
6 CG 41.859001159668 17.9409999847412 -17.0310001373291 C 0.0 **** 0.0
7 CD1 42.7820014953613 18.7789993286133 -16.4370002746582 C 0.0 **** 0.0
8 CD2 42.1380004882813 17.4099998474121 -18.2740001678467 C 0.0 **** 0.0
9 CE1 43.9589996337891 19.125 -17.0909996032715 C 0.0 **** 0.0
10 CE2 43.3170013427734 17.738000869751 -18.9500007629395 C 0.0 **** 0.0
11 CZ 44.2350006103516 18.5979995727539 -18.3299999237061 C 0.0 **** 0.0
@<TRIPOS>BOND
1 1 2 1
2 2 3 1
3 2 5 1
4 3 4 1
5 5 6 1
6 6 8 1
7 6 7 1
8 7 9 1
9 8 10 1
10 9 11 1
11 10 11 1
@<TRIPOS>MOLECULE
VAL869
7 6
SMALL
USER_CHARGES


@<TRIPOS>ATOM
1 N 37.1839981079102 17.8509998321533 -16.2789993286133 N 0.0 **** 0.0
2 CA 36.0419998168945 17.0919990539551 -15.7770004272461 C 0.0 **** 0.0
3 C 36.0709991455078 15.7440004348755 -16.4790000915527 C 0.0 **** 0.0
4 O 35.8860015869141 15.6639995574951 -17.69700050354 O 0.0 **** 0.0
5 CB 34.7099990844727 17.82200050354 -15.9930000305176 C 0.0 **** 0.0
6 CG1 33.5789985656738 17.0139999389648 -15.3769998550415 C 0.0 **** 0.0
7 CG2 34.7360000610352 19.2409992218018 -15.3590002059937 C 0.0 **** 0.0
@<TRIPOS>BOND
1 1 2 1
2 2 5 1
3 2 3 1
4 3 4 1
5 5 6 1
6 5 7 1
@<TRIPOS>MOLECULE
LEU870
8 7
SMALL
USER_CHARGES


@<TRIPOS>ATOM
1 N 36.326000213623 14.6859998703003 -15.7119998931885 N 0.0 **** 0.0
2 CA 36.4529991149902 13.331000328064 -16.2350006103516 C 0.0 **** 0.0
3 C 35.1730003356934 12.539999961853 -15.9879999160767 C 0.0 **** 0.0
4 O 34.5530014038086 12.6400003433228 -14.9230003356934 O 0.0 **** 0.0
5 CB 37.6310005187988 12.6099996566772 -15.5839996337891 C 0.0 **** 0.0
6 CG 38.9230003356934 13.4270000457764 -15.5310001373291 C 0.0 **** 0.0
7 CD1 40.023998260498 12.6780004501343 -14.7779998779297 C 0.0 **** 0.0
8 CD2 39.3720016479492 13.7639999389648 -16.9400005340576 C 0.0 **** 0.0
@<TRIPOS>BOND
1 1 2 1
2 2 5 1
3 2 3 1
4 3 4 1
5 5 6 1
6 6 7 1
7 6 8 1
@<TRIPOS>MOLECULE
GLY871
4 3
SMALL
USER_CHARGES


@<TRIPOS>ATOM
1 N 34.7869987487793 11.7410001754761 -16.9780006408691 N 0.0 **** 0.0
2 CA 33.5250015258789 11.0329999923706 -16.9200000762939 C 0.0 **** 0.0
3 C 33.5740013122559 9.7519998550415 -16.113000869751 C 0.0 **** 0.0
4 O 32.7809982299805 8.84099960327148 -16.3600006103516 O 0.0 **** 0.0
@<TRIPOS>BOND
1 1 2 1
2 2 3 1
3 3 4 1
@<TRIPOS>MOLECULE
GLU872
9 8
SMALL
USER_CHARGES


@<TRIPOS>ATOM
1 N 34.5139999389648 9.63599967956543 -15.1820001602173 N 0.0 **** 0.0
2 CA 34.5890007019043 8.46500015258789 -14.3240003585815 C 0.0 **** 0.0
3 C 35.0379981994629 8.90499973297119 -12.9429998397827 C 0.0 **** 0.0
4 O 35.6189994812012 9.97900009155273 -12.7819995880127 O 0.0 **** 0.0
5 CB 35.5589981079102 7.41499996185303 -14.8590002059937 C 0.0 **** 0.0
6 CG 34.8810005187988 6.30900001525879 -15.6370000839233 C 0.0 **** 0.0
7 CD 35.8209991455078 5.63399982452393 -16.6159992218018 C 0.0 **** 0.0
8 OE1 37.0559997558594 5.68499994277954 -16.3999996185303 O 0.0 **** 0.0
9 OE2 35.3199996948242 5.05800008773804 -17.6110000610352 O 0.0 **** 0.0
@<TRIPOS>BOND
1 1 2 1
2 2 3 1
3 2 5 1
4 3 4 1
5 5 6 1
6 6 7 1
7 7 8 1
8 7 9 1
@<TRIPOS>MOLECULE
GLU873
9 8
SMALL
USER_CHARGES


@<TRIPOS>ATOM
1 N 34.7770004272461 8.05300045013428 -11.9519996643066 N 0.0 **** 0.0
2 CA 35.132999420166 8.35099983215332 -10.5699996948242 C 0.0 **** 0.0
3 C 36.5769996643066 7.96700000762939 -10.2930002212524 C 0.0 **** 0.0
4 O 37.1279983520508 7.04400014877319 -10.8990001678467 O 0.0 **** 0.0
5 CB 34.2159996032715 7.6100001335144 -9.60200023651123 C 0.0 **** 0.0
6 CG 32.7599983215332 8.01799964904785 -9.66800022125244 C 0.0 **** 0.0
7 CD 31.9260005950928 7.30000019073486 -8.63300037384033 C 0.0 **** 0.0
8 OE1 31.806999206543 6.06300020217896 -8.72399997711182 O 0.0 **** 0.0
9 OE2 31.4109992980957 7.96400022506714 -7.71099996566772 O 0.0 **** 0.0
@<TRIPOS>BOND
1 1 2 1
2 2 5 1
3 2 3 1
4 3 4 1
5 5 6 1
6 6 7 1
7 7 9 1
8 7 8 1
@<TRIPOS>MOLECULE
THR874
7 6
SMALL
USER_CHARGES


@<TRIPOS>ATOM
1 N 37.1889991760254 8.69400024414063 -9.36800003051758 N 0.0 **** 0.0
2 CA 38.5550003051758 8.4370002746582 -8.93599987030029 C 0.0 **** 0.0
3 C 38.5330009460449 7.74200010299683 -7.58099985122681 C 0.0 **** 0.0
4 O 37.8199996948242 8.16199970245361 -6.66099977493286 O 0.0 **** 0.0
5 CB 39.3610000610352 9.74600028991699 -8.85599994659424 C 0.0 **** 0.0
6 OG1 39.5169982910156 10.3039999008179 -10.173999786377 O 0.0 **** 0.0
7 CG2 40.7400016784668 9.5 -8.27499961853027 C 0.0 **** 0.0
@<TRIPOS>BOND
1 1 2 1
2 2 3 1
3 2 5 1
4 3 4 1
5 5 7 1
6 5 6 1
@<TRIPOS>MOLECULE
GLU875
9 8
SMALL
USER_CHARGES


@<TRIPOS>ATOM
1 N 39.3089981079102 6.66900014877319 -7.46500015258789 N 0.0 **** 0.0
2 CA 39.4010009765625 5.94899988174438 -6.20900011062622 C 0.0 **** 0.0
3 C 40.6030006408691 6.36399984359741 -5.39099979400635 C 0.0 **** 0.0
4 O 40.5340003967285 6.34200000762939 -4.16200017929077 O 0.0 **** 0.0
5 CB 39.476001739502 4.44099998474121 -6.45800018310547 C 0.0 **** 0.0
6 CG 38.193000793457 3.86899995803833 -7.01800012588501 C 0.0 **** 0.0
7 CD 38.1619987487793 3.84999990463257 -8.53800010681152 C 0.0 **** 0.0
8 OE1 39.1559982299805 3.39100003242493 -9.14599990844727 O 0.0 **** 0.0
9 OE2 37.1430015563965 4.28599977493286 -9.12800025939941 O 0.0 **** 0.0
@<TRIPOS>BOND
1 1 2 1
2 2 3 1
3 2 5 1
4 3 4 1
5 5 6 1
6 6 7 1
7 7 9 1
8 7 8 1
@<TRIPOS>MOLECULE
LEU876
8 7
SMALL
USER_CHARGES


@<TRIPOS>ATOM
1 N 41.685001373291 6.76100015640259 -6.05600023269653 N 0.0 **** 0.0
2 CA 42.9720001220703 6.96600008010864 -5.41400003433228 C 0.0 **** 0.0
3 C 43.6920013427734 8.12600040435791 -6.07499980926514 C 0.0 **** 0.0
4 O 43.6699981689453 8.25500011444092 -7.30299997329712 O 0.0 **** 0.0
5 CB 43.8429985046387 5.70900011062622 -5.51999998092651 C 0.0 **** 0.0
6 CG 45.0940017700195 5.7039999961853 -4.62900018692017 C 0.0 **** 0.0
7 CD1 44.7159996032715 5.50400018692017 -3.18400001525879 C 0.0 **** 0.0
8 CD2 46.0730018615723 4.63199996948242 -5.08500003814697 C 0.0 **** 0.0
@<TRIPOS>BOND
1 1 2 1
2 2 5 1
3 2 3 1
4 3 4 1
5 5 6 1
6 6 7 1
7 6 8 1
@<TRIPOS>MOLECULE
VAL877
7 6
SMALL
USER_CHARGES


@<TRIPOS>ATOM
1 N 44.3400001525879 8.95499992370605 -5.25500011444092 N 0.0 **** 0.0
2 CA 45.1319999694824 10.0830001831055 -5.73400020599365 C 0.0 **** 0.0
3 C 46.5209999084473 9.98999977111816 -5.11299991607666 C 0.0 **** 0.0
4 O 46.6590003967285 9.96000003814697 -3.88100004196167 O 0.0 **** 0.0
5 CB 44.4830017089844 11.4350004196167 -5.40500020980835 C 0.0 **** 0.0
6 CG1 45.3170013427734 12.5690002441406 -5.97900009155273 C 0.0 **** 0.0
7 CG2 43.0779991149902 11.4919996261597 -5.97900009155273 C 0.0 **** 0.0
@<TRIPOS>BOND
1 1 2 1
2 2 5 1
3 2 3 1
4 3 4 1
5 5 7 1
6 5 6 1
@<TRIPOS>MOLECULE
SER878
6 5
SMALL
USER_CHARGES


@<TRIPOS>ATOM
1 N 47.5390014648438 9.95699977874756 -5.96000003814697 N 0.0 **** 0.0
2 CA 48.9150009155273 9.90499973297119 -5.51700019836426 C 0.0 **** 0.0
3 C 49.6619987487793 11.0659999847412 -6.13800001144409 C 0.0 **** 0.0
4 O 49.3160018920898 11.5220003128052 -7.23999977111816 O 0.0 **** 0.0
5 CB 49.5940017700195 8.57800006866455 -5.93900012969971 C 0.0 **** 0.0
6 OG 48.859001159668 7.47399997711182 -5.44600009918213 O 0.0 **** 0.0
@<TRIPOS>BOND
1 1 2 1
2 2 3 1
3 2 5 1
4 3 4 1
5 5 6 1
@<TRIPOS>MOLECULE
TRP879
14 15
SMALL
USER_CHARGES


@<TRIPOS>ATOM
1 N 50.7200012207031 11.5019998550415 -5.46099996566772 N 0.0 **** 0.0
2 CA 51.5089988708496 12.6029996871948 -5.98400020599365 C 0.0 **** 0.0
3 C 52.8730010986328 12.6479997634888 -5.32999992370605 C 0.0 **** 0.0
4 O 53.0610008239746 12.164999961853 -4.2039999961853 O 0.0 **** 0.0
5 CB 50.7799987792969 13.9420003890991 -5.78700017929077 C 0.0 **** 0.0
6 CG 50.7039985656738 14.53600025177 -4.39200019836426 C 0.0 **** 0.0
7 CD1 51.4539985656738 15.5659999847412 -3.90300011634827 C 0.0 **** 0.0
8 CD2 49.8009986877441 14.168999671936 -3.34200000762939 C 0.0 **** 0.0
9 NE1 51.0870018005371 15.8540000915527 -2.60500001907349 N 0.0 **** 0.0
10 CE2 50.0699996948242 15.0109996795654 -2.24200010299683 C 0.0 **** 0.0
11 CE3 48.7980003356934 13.1969995498657 -3.22000002861023 C 0.0 **** 0.0
12 CZ2 49.3650016784668 14.9219999313354 -1.03400003910065 C 0.0 **** 0.0
13 CZ3 48.0970001220703 13.1090002059937 -2.00699996948242 C 0.0 **** 0.0
14 CH2 48.382999420166 13.9739999771118 -0.940999984741211 C 0.0 **** 0.0
@<TRIPOS>BOND
1 1 2 1
2 2 5 1
3 2 3 1
4 3 4 1
5 5 6 1
6 6 7 1
7 6 8 1
8 7 9 1
9 8 11 1
10 8 10 1
11 9 10 1
12 10 12 1
13 11 13 1
14 12 14 1
15 13 14 1
@<TRIPOS>MOLECULE
PHE880
11 11
SMALL
USER_CHARGES


@<TRIPOS>ATOM
1 N 53.826000213623 13.2239999771118 -6.05800008773804 N 0.0 **** 0.0
2 CA 55.0690002441406 13.7040004730225 -5.47300004959106 C 0.0 **** 0.0
3 C 54.9900016784668 15.2170000076294 -5.33699989318848 C 0.0 **** 0.0
4 O 54.6440010070801 15.9139995574951 -6.29199981689453 O 0.0 **** 0.0
5 CB 56.2869987487793 13.326000213623 -6.31199979782104 C 0.0 **** 0.0
6 CG 57.5620002746582 13.878999710083 -5.75799989700317 C 0.0 **** 0.0
7 CD1 58.1710014343262 13.2779998779297 -4.67000007629395 C 0.0 **** 0.0
8 CD2 58.1300010681152 15.0260000228882 -6.27500009536743 C 0.0 **** 0.0
9 CE1 59.3390007019043 13.7959995269775 -4.1269998550415 C 0.0 **** 0.0
10 CE2 59.3139991760254 15.5530004501343 -5.71600008010864 C 0.0 **** 0.0
11 CZ 59.9070014953613 14.9270000457764 -4.64499998092651 C 0.0 **** 0.0
@<TRIPOS>BOND
1 1 2 1
2 2 5 1
3 2 3 1
4 3 4 1
5 5 6 1
6 6 8 1
7 6 7 1
8 7 9 1
9 8 10 1
10 9 11 1
11 10 11 1
@<TRIPOS>MOLECULE
GLY881
4 3
SMALL
USER_CHARGES


@<TRIPOS>ATOM
1 N 55.2970008850098 15.7239999771118 -4.14799976348877 N 0.0 **** 0.0
2 CA 55.1780014038086 17.136999130249 -3.88800001144409 C 0.0 **** 0.0
3 C 55.1769981384277 17.3640003204346 -2.38800001144409 C 0.0 **** 0.0
4 O 56.0419998168945 16.8330001831055 -1.692999958992 O 0.0 **** 0.0
@<TRIPOS>BOND
1 1 2 1
2 2 3 1
3 3 4 1
@<TRIPOS>MOLECULE
GLN882
9 8
SMALL
USER_CHARGES


@<TRIPOS>ATOM
1 N 54.1870002746582 18.0799999237061 -1.88399994373322 N 0.0 **** 0.0
2 CA 54.1139984130859 18.4570007324219 -0.474000006914139 C 0.0 **** 0.0
3 C 52.8819999694824 17.8199996948242 0.133000001311302 C 0.0 **** 0.0
4 O 51.8110008239746 17.826000213623 -0.477999985218048 O 0.0 **** 0.0
5 CB 54.0050010681152 19.9759998321533 -0.303000003099442 C 0.0 **** 0.0
6 CG 55.0870018005371 20.753999710083 -0.955999970436096 C 0.0 **** 0.0
7 CD 56.4379997253418 20.5249996185303 -0.293000012636185 C 0.0 **** 0.0
8 OE1 56.5610008239746 20.6189994812012 0.933000028133392 O 0.0 **** 0.0
9 NE2 57.4599990844727 20.2280006408691 -1.10199999809265 N 0.0 **** 0.0
@<TRIPOS>BOND
1 1 2 1
2 2 5 1
3 2 3 1
4 3 4 1
5 5 6 1
6 6 7 1
7 7 9 1
8 7 8 1
@<TRIPOS>MOLECULE
GLY883
4 3
SMALL
USER_CHARGES


@<TRIPOS>ATOM
1 N 53.0009994506836 17.3299999237061 1.36099994182587 N 0.0 **** 0.0
2 CA 51.8940010070801 16.6180000305176 1.92400002479553 C 0.0 **** 0.0
3 C 52.117000579834 16.173999786377 3.34500002861023 C 0.0 **** 0.0
4 O 53.0960006713867 16.5410003662109 4.00299978256226 O 0.0 **** 0.0
@<TRIPOS>BOND
1 1 2 1
2 2 3 1
3 3 4 1
@<TRIPOS>MOLECULE
PRO884
7 7
SMALL
USER_CHARGES


@<TRIPOS>ATOM
1 N 51.1949996948242 15.3430004119873 3.83800005912781 N 0.0 **** 0.0
2 CA 50.0209999084473 14.8579998016357 3.08999991416931 C 0.0 **** 0.0
3 C 48.8650016784668 15.8540000915527 2.94000005722046 C 0.0 **** 0.0
4 O 48.0439987182617 15.6639995574951 2.04900002479553 O 0.0 **** 0.0
5 CB 49.5279998779297 13.6940002441406 3.93600010871887 C 0.0 **** 0.0
6 CG 49.9300003051758 14.0539999008179 5.28800010681152 C 0.0 **** 0.0
7 CD 51.2540016174316 14.7670001983643 5.19700002670288 C 0.0 **** 0.0
@<TRIPOS>BOND
1 1 2 1
2 1 7 1
3 2 3 1
4 2 5 1
5 3 4 1
6 5 6 1
7 6 7 1
@<TRIPOS>MOLECULE
HIS885
10 10
SMALL
USER_CHARGES


@<TRIPOS>ATOM
1 N 48.7700004577637 16.8500003814697 3.83100008964539 N 0.0 **** 0.0
2 CA 47.6030006408691 17.7220001220703 3.87599992752075 C 0.0 **** 0.0
3 C 47.7400016784668 18.8759994506836 2.87100005149841 C 0.0 **** 0.0
4 O 48.7369995117188 18.9939994812012 2.15199995040894 O 0.0 **** 0.0
5 CB 47.3779983520508 18.2360000610352 5.30000019073486 C 0.0 **** 0.0
6 CG 48.4879989624023 19.0900001525879 5.82800006866455 C 0.0 **** 0.0
7 ND1 49.648998260498 18.5520000457764 6.35200023651123 N 0.0 **** 0.0
8 CD2 48.5849990844727 20.4379997253418 5.98600006103516 C 0.0 **** 0.0
9 CE1 50.435001373291 19.5349998474121 6.75299978256226 C 0.0 **** 0.0
10 NE2 49.8139991760254 20.6889991760254 6.54199981689453 N 0.0 **** 0.0
@<TRIPOS>BOND
1 1 2 1
2 2 3 1
3 2 5 1
4 3 4 1
5 5 6 1
6 6 7 1
7 6 8 1
8 7 9 1
9 8 10 1
10 9 10 1
@<TRIPOS>MOLECULE
GLN886
9 8
SMALL
USER_CHARGES


@<TRIPOS>ATOM
1 N 46.7190017700195 19.7390003204346 2.81800007820129 N 0.0 **** 0.0
2 CA 46.6389999389648 20.7870006561279 1.79900002479553 C 0.0 **** 0.0
3 C 47.7159996032715 21.8449993133545 1.99699997901917 C 0.0 **** 0.0
4 O 48.2400016784668 22.0470008850098 3.09899997711182 O 0.0 **** 0.0
5 CB 45.2830009460449 21.4810009002686 1.84200000762939 C 0.0 **** 0.0
6 CG 45.109001159668 22.4249992370605 3.04699993133545 C 0.0 **** 0.0
7 CD 43.7309989929199 23.0009994506836 3.19199991226196 C 0.0 **** 0.0
8 OE1 42.8019981384277 22.6529998779297 2.47199988365173 O 0.0 **** 0.0
9 NE2 43.5789985656738 23.9020004272461 4.1729998588562 N 0.0 **** 0.0
@<TRIPOS>BOND
1 1 2 1
2 2 5 1
3 2 3 1
4 3 4 1
5 5 6 1
6 6 7 1
7 7 9 1
8 7 8 1
@<TRIPOS>MOLECULE
SER887
6 5
SMALL
USER_CHARGES


@<TRIPOS>ATOM
1 N 47.9970016479492 22.5799999237061 0.927999973297119 N 0.0 **** 0.0
2 CA 48.9189987182617 23.7089996337891 1.02499997615814 C 0.0 **** 0.0
3 C 48.5919990539551 24.7509994506836 -0.0350000001490116 C 0.0 **** 0.0
4 O 48.3880004882813 24.4209995269775 -1.21399998664856 O 0.0 **** 0.0
5 CB 50.3759994506836 23.2450008392334 0.882000029087067 C 0.0 **** 0.0
6 OG 50.6300010681152 22.6060009002686 -0.352999985218048 O 0.0 **** 0.0
@<TRIPOS>BOND
1 1 2 1
2 2 5 1
3 2 3 1
4 3 4 1
5 5 6 1
@<TRIPOS>MOLECULE
TYR888
12 12
SMALL
USER_CHARGES


@<TRIPOS>ATOM
1 N 48.5559997558594 26.0100002288818 0.400000005960464 N 0.0 **** 0.0
2 CA 48.3240013122559 27.1669998168945 -0.439999997615814 C 0.0 **** 0.0
3 C 49.5480003356934 28.0620002746582 -0.296000003814697 C 0.0 **** 0.0
4 O 50.4140014648438 27.7959995269775 0.554000020027161 O 0.0 **** 0.0
5 CB 47.0169982910156 27.8819999694824 -0.0430000014603138 C 0.0 **** 0.0
6 CG 45.810001373291 27.0470008850098 -0.412000000476837 C 0.0 **** 0.0
7 CD1 45.4539985656738 25.9500007629395 0.35699999332428 C 0.0 **** 0.0
8 CD2 45.060001373291 27.326000213623 -1.54700005054474 C 0.0 **** 0.0
9 CE1 44.382999420166 25.117000579834 0.0020000000949949 C 0.0 **** 0.0
10 CE2 43.9570007324219 26.5160007476807 -1.90799999237061 C 0.0 **** 0.0
11 CZ 43.6290016174316 25.4120006561279 -1.1139999628067 C 0.0 **** 0.0
12 OH 42.5789985656738 24.5729999542236 -1.43900001049042 O 0.0 **** 0.0
@<TRIPOS>BOND
1 1 2 1
2 2 3 1
3 2 5 1
4 3 4 1
5 5 6 1
6 6 8 1
7 6 7 1
8 7 9 1
9 8 10 1
10 9 11 1
11 10 11 1
12 11 12 1
@<TRIPOS>MOLECULE
PRO889
7 7
SMALL
USER_CHARGES


@<TRIPOS>ATOM
1 N 49.6640014648438 29.1229991912842 -1.08800005912781 N 0.0 **** 0.0
2 CA 50.9480018615723 29.8360004425049 -1.13900005817413 C 0.0 **** 0.0
3 C 51.3979988098145 30.3610000610352 0.196999996900558 C 0.0 **** 0.0
4 O 52.6069984436035 30.4109992980957 0.439000010490417 O 0.0 **** 0.0
5 CB 50.6699981689453 30.9619998931885 -2.13499999046326 C 0.0 **** 0.0
6 CG 49.7599983215332 30.2770004272461 -3.11800003051758 C 0.0 **** 0.0
7 CD 48.8339996337891 29.4190006256104 -2.28099989891052 C 0.0 **** 0.0
@<TRIPOS>BOND
1 1 7 1
2 1 2 1
3 2 5 1
4 2 3 1
5 3 4 1
6 5 6 1
7 6 7 1
@<TRIPOS>MOLECULE
ASP890
8 7
SMALL
USER_CHARGES


@<TRIPOS>ATOM
1 N 50.4700012207031 30.7789993286133 1.05400002002716 N 0.0 **** 0.0
2 CA 50.7939987182617 31.3640003204346 2.3510000705719 C 0.0 **** 0.0
3 C 50.4679985046387 30.42799949646 3.51600003242493 C 0.0 **** 0.0
4 O 50.3549995422363 30.8770008087158 4.6729998588562 O 0.0 **** 0.0
5 CB 50.0929985046387 32.7120018005371 2.50399994850159 C 0.0 **** 0.0
6 CG 48.5629997253418 32.6380004882813 2.42400002479553 C 0.0 **** 0.0
7 OD1 47.9910011291504 31.5820007324219 2.07599997520447 O 0.0 **** 0.0
8 OD2 47.9339981079102 33.6809997558594 2.7720000743866 O 0.0 **** 0.0
@<TRIPOS>BOND
1 1 2 1
2 2 5 1
3 2 3 1
4 3 4 1
5 5 6 1
6 6 8 1
7 6 7 1
@<TRIPOS>MOLECULE
THR891
7 6
SMALL
USER_CHARGES


@<TRIPOS>ATOM
1 N 50.3170013427734 29.1420001983643 3.2279999256134 N 0.0 **** 0.0
2 CA 50.0979995727539 28.1270008087158 4.24900007247925 C 0.0 **** 0.0
3 C 50.9550018310547 26.9290008544922 3.86400008201599 C 0.0 **** 0.0
4 O 51.9169998168945 27.0450000762939 3.09299993515015 O 0.0 **** 0.0
5 CB 48.6020011901855 27.7569999694824 4.35099983215332 C 0.0 **** 0.0
6 OG1 48.1629981994629 27.1420001983643 3.1029999256134 O 0.0 **** 0.0
7 CG2 47.7789993286133 29.0100002288818 4.63100004196167 C 0.0 **** 0.0
@<TRIPOS>BOND
1 1 2 1
2 2 5 1
3 2 3 1
4 3 4 1
5 5 6 1
6 5 7 1
@<TRIPOS>MOLECULE
GLY892
4 3
SMALL
USER_CHARGES


@<TRIPOS>ATOM
1 N 50.5900001525879 25.7639999389648 4.3769998550415 N 0.0 **** 0.0
2 CA 51.3030014038086 24.5459995269775 4.02699995040894 C 0.0 **** 0.0
3 C 52.6650009155273 24.3549995422363 4.6729998588562 C 0.0 **** 0.0
4 O 53.439998626709 23.5069999694824 4.22200012207031 O 0.0 **** 0.0
@<TRIPOS>BOND
1 1 2 1
2 2 3 1
3 3 4 1
@<TRIPOS>MOLECULE
GLN893
9 8
SMALL
USER_CHARGES


@<TRIPOS>ATOM
1 N 52.9939994812012 25.1140003204346 5.71600008010864 N 0.0 **** 0.0
2 CA 54.3079986572266 24.9459991455078 6.3270001411438 C 0.0 **** 0.0
3 C 54.4949989318848 23.5200004577637 6.83699989318848 C 0.0 **** 0.0
4 O 55.6069984436035 22.9930000305176 6.81500005722046 O 0.0 **** 0.0
5 CB 54.4930000305176 25.9309997558594 7.47800016403198 C 0.0 **** 0.0
6 CG 54.4039993286133 27.3999996185303 7.0789999961853 C 0.0 **** 0.0
7 CD 52.9949989318848 27.9769992828369 7.15100002288818 C 0.0 **** 0.0
8 OE1 52.0040016174316 27.2630004882813 7.01200008392334 O 0.0 **** 0.0
9 NE2 52.9039993286133 29.2959995269775 7.35900020599365 N 0.0 **** 0.0
@<TRIPOS>BOND
1 1 2 1
2 2 3 1
3 2 5 1
4 3 4 1
5 5 6 1
6 6 7 1
7 7 8 1
8 7 9 1
@<TRIPOS>MOLECULE
GLY894
4 3
SMALL
USER_CHARGES


@<TRIPOS>ATOM
1 N 53.4220008850098 22.8990001678467 7.31099987030029 N 0.0 **** 0.0
2 CA 53.4930000305176 21.5380001068115 7.79199981689453 C 0.0 **** 0.0
3 C 53.4850006103516 20.4720001220703 6.72700023651123 C 0.0 **** 0.0
4 O 53.6790008544922 19.3020000457764 7.05900001525879 O 0.0 **** 0.0
@<TRIPOS>BOND
1 1 2 1
2 2 3 1
3 3 4 1
@<TRIPOS>MOLECULE
ALA895
5 4
SMALL
USER_CHARGES


@<TRIPOS>ATOM
1 N 53.257999420166 20.8330001831055 5.46600008010864 N 0.0 **** 0.0
2 CA 53.3120002746582 19.8659992218018 4.38199996948242 C 0.0 **** 0.0
3 C 54.7589988708496 19.69700050354 3.98399996757507 C 0.0 **** 0.0
4 O 55.4230003356934 20.6669998168945 3.62100005149841 O 0.0 **** 0.0
5 CB 52.4630012512207 20.3430004119873 3.20099997520447 C 0.0 **** 0.0
@<TRIPOS>BOND
1 1 2 1
2 2 3 1
3 2 5 1
4 3 4 1
@<TRIPOS>MOLECULE
ARG896
11 10
SMALL
USER_CHARGES


@<TRIPOS>ATOM
1 N 55.2649993896484 18.4869995117188 4.09000015258789 N 0.0 **** 0.0
2 CA 56.6629981994629 18.2320003509521 3.80999994277954 C 0.0 **** 0.0
3 C 56.7949981689453 17.5909996032715 2.43799996376038 C 0.0 **** 0.0
4 O 55.8339996337891 17.0699996948242 1.87800002098084 O 0.0 **** 0.0
5 CB 57.2669982910156 17.3279991149902 4.88000011444092 C 0.0 **** 0.0
6 CG 56.8019981384277 15.8669996261597 4.84299993515015 C 0.0 **** 0.0
7 CD 57.2490005493164 15.1239995956421 6.14400005340576 C 0.0 **** 0.0
8 NE 56.5550003051758 15.6859998703003 7.29400014877319 N 0.0 **** 0.0
9 CZ 56.939998626709 15.5109996795654 8.56400012969971 C 0.0 **** 0.0
10 NH1 58.007999420166 14.7790002822876 8.85299968719482 N 0.0 **** 0.0
11 NH2 56.2430000305176 16.0419998168945 9.54500007629395 N 0.0 **** 0.0
@<TRIPOS>BOND
1 1 2 1
2 2 3 1
3 2 5 1
4 3 4 1
5 5 6 1
6 6 7 1
7 7 8 1
8 8 9 1
9 9 11 1
10 9 10 1
@<TRIPOS>MOLECULE
ALA897
5 4
SMALL
USER_CHARGES


@<TRIPOS>ATOM
1 N 58.0089988708496 17.6270008087158 1.91100001335144 N 0.0 **** 0.0
2 CA 58.2639999389648 16.9930000305176 0.623000025749207 C 0.0 **** 0.0
3 C 58.2099990844727 15.4799995422363 0.762000024318695 C 0.0 **** 0.0
4 O 58.7350006103516 14.9069995880127 1.72399997711182 O 0.0 **** 0.0
5 CB 59.625 17.4050006866455 0.0729999989271164 C 0.0 **** 0.0
@<TRIPOS>BOND
1 1 2 1
2 2 5 1
3 2 3 1
4 3 4 1
@<TRIPOS>MOLECULE
GLY898
4 3
SMALL
USER_CHARGES


@<TRIPOS>ATOM
1 N 57.5940017700195 14.8240003585815 -0.212999999523163 N 0.0 **** 0.0
2 CA 57.5480003356934 13.3760004043579 -0.194000005722046 C 0.0 **** 0.0
3 C 56.6080017089844 12.8360004425049 -1.25899994373322 C 0.0 **** 0.0
4 O 56.101001739502 13.5690002441406 -2.1010000705719 O 0.0 **** 0.0
@<TRIPOS>BOND
1 1 2 1
2 2 3 1
3 3 4 1
@<TRIPOS>MOLECULE
TRP899
14 15
SMALL
USER_CHARGES


@<TRIPOS>ATOM
1 N 56.3810005187988 11.5290002822876 -1.17499995231628 N 0.0 **** 0.0
2 CA 55.4290008544922 10.8199996948242 -2.01999998092651 C 0.0 **** 0.0
3 C 54.2140007019043 10.4899997711182 -1.1690000295639 C 0.0 **** 0.0
4 O 54.3600006103516 9.97500038146973 -0.061999998986721 O 0.0 **** 0.0
5 CB 56.0439987182617 9.5310001373291 -2.59599995613098 C 0.0 **** 0.0
6 CG 57.140998840332 9.76900005340576 -3.57399988174438 C 0.0 **** 0.0
7 CD1 57.0449981689453 9.72500038146973 -4.94099998474121 C 0.0 **** 0.0
8 CD2 58.5069999694824 10.0869998931885 -3.27500009536743 C 0.0 **** 0.0
9 NE1 58.2680015563965 10.0019998550415 -5.50500011444092 N 0.0 **** 0.0
10 CE2 59.181999206543 10.2200002670288 -4.50299978256226 C 0.0 **** 0.0
11 CE3 59.2249984741211 10.2720003128052 -2.08299994468689 C 0.0 **** 0.0
12 CZ2 60.5340003967285 10.5389995574951 -4.57800006866455 C 0.0 **** 0.0
13 CZ3 60.576000213623 10.581000328064 -2.16100001335144 C 0.0 **** 0.0
14 CH2 61.2130012512207 10.7159996032715 -3.39100003242493 C 0.0 **** 0.0
@<TRIPOS>BOND
1 1 2 1
2 2 3 1
3 2 5 1
4 3 4 1
5 5 6 1
6 6 8 1
7 6 7 1
8 7 9 1
9 8 10 1
10 8 11 1
11 9 10 1
12 10 12 1
13 11 13 1
14 12 14 1
15 13 14 1
@<TRIPOS>MOLECULE
PHE900
11 11
SMALL
USER_CHARGES


@<TRIPOS>ATOM
1 N 53.0270004272461 10.7930002212524 -1.67599999904633 N 0.0 **** 0.0
2 CA 51.7890014648438 10.6339998245239 -0.926999986171722 C 0.0 **** 0.0
3 C 50.7809982299805 9.90299987792969 -1.79499995708466 C 0.0 **** 0.0
4 O 50.8580017089844 9.9350004196167 -3.02999997138977 O 0.0 **** 0.0
5 CB 51.2449989318848 12.0139999389648 -0.449999988079071 C 0.0 **** 0.0
6 CG 52.2890014648438 12.8159999847412 0.284000009298325 C 0.0 **** 0.0
7 CD1 52.5320014953613 12.6009998321533 1.63399994373322 C 0.0 **** 0.0
8 CD2 53.0859985351563 13.7200002670288 -0.398999989032745 C 0.0 **** 0.0
9 CE1 53.5340003967285 13.3009996414185 2.29500007629395 C 0.0 **** 0.0
10 CE2 54.0849990844727 14.4270000457764 0.268999993801117 C 0.0 **** 0.0
11 CZ 54.3050003051758 14.2110004425049 1.60199999809265 C 0.0 **** 0.0
@<TRIPOS>BOND
1 1 2 1
2 2 3 1
3 2 5 1
4 3 4 1
5 5 6 1
6 6 7 1
7 6 8 1
8 7 9 1
9 8 10 1
10 9 11 1
11 10 11 1
@<TRIPOS>MOLECULE
SER901
6 5
SMALL
USER_CHARGES


@<TRIPOS>ATOM
1 N 49.8610000610352 9.20899963378906 -1.13199996948242 N 0.0 **** 0.0
2 CA 48.7890014648438 8.51399993896484 -1.8289999961853 C 0.0 **** 0.0
3 C 47.6040000915527 8.40900039672852 -0.883000016212463 C 0.0 **** 0.0
4 O 47.7599983215332 7.95100021362305 0.254999995231628 O 0.0 **** 0.0
5 CB 49.2490005493164 7.13600015640259 -2.30200004577637 C 0.0 **** 0.0
6 OG 48.2459983825684 6.51399993896484 -3.05200004577637 O 0.0 **** 0.0
@<TRIPOS>BOND
1 1 2 1
2 2 3 1
3 2 5 1
4 3 4 1
5 5 6 1
@<TRIPOS>MOLECULE
LEU902
8 7
SMALL
USER_CHARGES


@<TRIPOS>ATOM
1 N 46.439998626709 8.88700008392334 -1.3309999704361 N 0.0 **** 0.0
2 CA 45.2490005493164 8.95400047302246 -0.50900000333786 C 0.0 **** 0.0
3 C 44.0139999389648 8.53600025177002 -1.29700005054474 C 0.0 **** 0.0
4 O 43.9010009765625 8.85599994659424 -2.49300003051758 O 0.0 **** 0.0
5 CB 45.007999420166 10.3760004043579 0.0399999991059303 C 0.0 **** 0.0
6 CG 46.007999420166 10.9479999542236 1.05200004577637 C 0.0 **** 0.0
7 CD1 45.6139984130859 12.3579998016357 1.42900002002716 C 0.0 **** 0.0
8 CD2 46.0740013122559 10.076000213623 2.29200005531311 C 0.0 **** 0.0
@<TRIPOS>BOND
1 1 2 1
2 2 3 1
3 2 5 1
4 3 4 1
5 5 6 1
6 6 8 1
7 6 7 1
@<TRIPOS>MOLECULE
PRO903
7 7
SMALL
USER_CHARGES


@<TRIPOS>ATOM
1 N 43.068000793457 7.8439998626709 -0.662999987602234 N 0.0 **** 0.0
2 CA 41.7550010681152 7.67700004577637 -1.29299998283386 C 0.0 **** 0.0
3 C 41.1160011291504 9.03499984741211 -1.47699999809265 C 0.0 **** 0.0
4 O 41.4049987792969 9.97999954223633 -0.744000017642975 O 0.0 **** 0.0
5 CB 40.9729995727539 6.80499982833862 -0.303999990224838 C 0.0 **** 0.0
6 CG 41.7200012207031 6.87799978256226 0.985000014305115 C 0.0 **** 0.0
7 CD 43.1319999694824 7.26300001144409 0.693000018596649 C 0.0 **** 0.0
@<TRIPOS>BOND
1 1 2 1
2 1 7 1
3 2 3 1
4 2 5 1
5 3 4 1
6 5 6 1
7 6 7 1
@<TRIPOS>MOLECULE
LEU904
8 7
SMALL
USER_CHARGES


@<TRIPOS>ATOM
1 N 40.2540016174316 9.125 -2.48900008201599 N 0.0 **** 0.0
2 CA 39.7220001220703 10.4180002212524 -2.88700008392334 C 0.0 **** 0.0
3 C 39.1059989929199 11.1560001373291 -1.70500004291534 C 0.0 **** 0.0
4 O 39.2980003356934 12.3699998855591 -1.5440000295639 O 0.0 **** 0.0
5 CB 38.693000793457 10.2150001525879 -4.00299978256226 C 0.0 **** 0.0
6 CG 38.064998626709 11.5249996185303 -4.50699996948242 C 0.0 **** 0.0
7 CD1 39.1199989318848 12.4739999771118 -5.03299999237061 C 0.0 **** 0.0
8 CD2 37.0009994506836 11.2569999694824 -5.55999994277954 C 0.0 **** 0.0
@<TRIPOS>BOND
1 1 2 1
2 2 5 1
3 2 3 1
4 3 4 1
5 5 6 1
6 6 7 1
7 6 8 1
@<TRIPOS>MOLECULE
ALA905
5 4
SMALL
USER_CHARGES


@<TRIPOS>ATOM
1 N 38.3779983520508 10.4379997253418 -0.851000010967255 N 0.0 **** 0.0
2 CA 37.6559982299805 11.1070003509521 0.223000004887581 C 0.0 **** 0.0
3 C 38.6139984130859 11.8229999542236 1.15799999237061 C 0.0 **** 0.0
4 O 38.2859992980957 12.8929996490479 1.68900001049042 O 0.0 **** 0.0
5 CB 36.8230018615723 10.1079998016357 1.00999999046326 C 0.0 **** 0.0
@<TRIPOS>BOND
1 1 2 1
2 2 5 1
3 2 3 1
4 3 4 1
@<TRIPOS>MOLECULE
LYS906
9 8
SMALL
USER_CHARGES


@<TRIPOS>ATOM
1 N 39.8019981384277 11.2690000534058 1.35000002384186 N 0.0 **** 0.0
2 CA 40.7410011291504 11.8520002365112 2.29099988937378 C 0.0 **** 0.0
3 C 41.5130004882813 13.0190000534058 1.70299994945526 C 0.0 **** 0.0
4 O 42.3139991760254 13.6300001144409 2.41199994087219 O 0.0 **** 0.0
5 CB 41.7109985351563 10.7779998779297 2.77800011634827 C 0.0 **** 0.0
6 CG 41.0400009155273 9.62399959564209 3.49900007247925 C 0.0 **** 0.0
7 CD 40.7620010375977 9.97000026702881 4.97200012207031 C 0.0 **** 0.0
8 CE 40.2379989624023 8.77099990844727 5.77899980545044 C 0.0 **** 0.0
9 NZ 41.1699981689453 7.59600019454956 5.71400022506714 N 0.0 **** 0.0
@<TRIPOS>BOND
1 1 2 1
2 2 3 1
3 2 5 1
4 3 4 1
5 5 6 1
6 6 7 1
7 7 8 1
8 8 9 1
@<TRIPOS>MOLECULE
MET907
8 7
SMALL
USER_CHARGES


@<TRIPOS>ATOM
1 N 41.3139991760254 13.3400001525879 0.425000011920929 N 0.0 **** 0.0
2 CA 41.8540000915527 14.5869998931885 -0.0970000028610229 C 0.0 **** 0.0
3 C 41.0740013122559 15.7930002212524 0.40599998831749 C 0.0 **** 0.0
4 O 41.6160011291504 16.8969993591309 0.43299999833107 O 0.0 **** 0.0
5 CB 41.8540000915527 14.5570001602173 -1.6360000371933 C 0.0 **** 0.0
6 CG 42.6790008544922 13.4449996948242 -2.25300002098084 C 0.0 **** 0.0
7 SD 44.4500007629395 13.6059999465942 -1.9559999704361 S 0.0 **** 0.0
8 CE 44.8339996337891 14.9989995956421 -3.00600004196167 C 0.0 **** 0.0
@<TRIPOS>BOND
1 1 2 1
2 2 5 1
3 2 3 1
4 3 4 1
5 5 6 1
6 6 7 1
7 7 8 1
@<TRIPOS>MOLECULE
ASP908
8 7
SMALL
USER_CHARGES


@<TRIPOS>ATOM
1 N 39.8320007324219 15.6070003509521 0.845000028610229 N 0.0 **** 0.0
2 CA 38.9720001220703 16.7220001220703 1.192999958992 C 0.0 **** 0.0
3 C 39.2639999389648 17.1900005340576 2.62400007247925 C 0.0 **** 0.0
4 O 40.0209999084473 16.5669994354248 3.3659999370575 O 0.0 **** 0.0
5 CB 37.5099983215332 16.3190002441406 1.0460000038147 C 0.0 **** 0.0
6 CG 36.6230010986328 17.4440002441406 0.546000003814697 C 0.0 **** 0.0
7 OD1 36.9980010986328 18.6350002288818 0.59799998998642 O 0.0 **** 0.0
8 OD2 35.5089988708496 17.1340007781982 0.0820000022649765 O 0.0 **** 0.0
@<TRIPOS>BOND
1 1 2 1
2 2 5 1
3 2 3 1
4 3 4 1
5 5 6 1
6 6 7 1
7 6 8 1
@<TRIPOS>MOLECULE
VAL909
7 6
SMALL
USER_CHARGES


@<TRIPOS>ATOM
1 N 38.6759986877441 18.3209991455078 2.99600005149841 N 0.0 **** 0.0
2 CA 38.8310012817383 18.875 4.33799982070923 C 0.0 **** 0.0
3 C 37.443000793457 19.19700050354 4.86999988555908 C 0.0 **** 0.0
4 O 36.7039985656738 19.9829998016357 4.26100015640259 O 0.0 **** 0.0
5 CB 39.7169990539551 20.1310005187988 4.36499977111816 C 0.0 **** 0.0
6 CG1 39.9039993286133 20.6000003814697 5.79899978637695 C 0.0 **** 0.0
7 CG2 41.0820007324219 19.8349990844727 3.74799990653992 C 0.0 **** 0.0
@<TRIPOS>BOND
1 1 2 1
2 2 5 1
3 2 3 1
4 3 4 1
5 5 7 1
6 5 6 1
@<TRIPOS>MOLECULE
GLU910
9 8
SMALL
USER_CHARGES


@<TRIPOS>ATOM
1 N 37.1110000610352 18.6389999389648 6.03700017929077 N 0.0 **** 0.0
2 CA 35.7239990234375 18.69700050354 6.48799991607666 C 0.0 **** 0.0
3 C 35.3839988708496 20.0 7.21299982070923 C 0.0 **** 0.0
4 O 34.7929992675781 19.9710006713867 8.29300022125244 O 0.0 **** 0.0
5 CB 35.4199981689453 17.4930000305176 7.36999988555908 C 0.0 **** 0.0
6 CG 35.556999206543 16.1669998168945 6.61399984359741 C 0.0 **** 0.0
7 CD 34.8419990539551 14.9930000305176 7.28000020980835 C 0.0 **** 0.0
8 OE1 33.7910003662109 15.1949996948242 7.9229998588562 O 0.0 **** 0.0
9 OE2 35.3330001831055 13.8479995727539 7.14099979400635 O 0.0 **** 0.0
@<TRIPOS>BOND
1 1 2 1
2 2 3 1
3 2 5 1
4 3 4 1
5 5 6 1
6 6 7 1
7 7 8 1
8 7 9 1
@<TRIPOS>MOLECULE
TYR911
12 12
SMALL
USER_CHARGES


@<TRIPOS>ATOM
1 N 35.6860008239746 21.1420001983643 6.60900020599365 N 0.0 **** 0.0
2 CA 35.1990013122559 22.4050006866455 7.15899991989136 C 0.0 **** 0.0
3 C 33.6800003051758 22.3969993591309 7.24499988555908 C 0.0 **** 0.0
4 O 32.9860000610352 21.8299999237061 6.39400005340576 O 0.0 **** 0.0
5 CB 35.6609992980957 23.5540008544922 6.29300022125244 C 0.0 **** 0.0
6 CG 37.1479988098145 23.7609996795654 6.30299997329712 C 0.0 **** 0.0
7 CD1 37.8330001831055 24.0049991607666 7.50299978256226 C 0.0 **** 0.0
8 CD2 37.8650016784668 23.7059993743896 5.13600015640259 C 0.0 **** 0.0
9 CE1 39.1980018615723 24.1979999542236 7.51200008392334 C 0.0 **** 0.0
10 CE2 39.2389984130859 23.8980007171631 5.13500022888184 C 0.0 **** 0.0
11 CZ 39.8899993896484 24.1590003967285 6.3289999961853 C 0.0 **** 0.0
12 OH 41.2599983215332 24.3479995727539 6.33099985122681 O 0.0 **** 0.0
@<TRIPOS>BOND
1 1 2 1
2 2 5 1
3 2 3 1
4 3 4 1
5 5 6 1
6 6 8 1
7 6 7 1
8 7 9 1
9 8 10 1
10 9 11 1
11 10 11 1
12 11 12 1
@<TRIPOS>MOLECULE
VAL912
7 6
SMALL
USER_CHARGES


@<TRIPOS>ATOM
1 N 33.1520004272461 23.0690002441406 8.26799964904785 N 0.0 **** 0.0
2 CA 31.7240009307861 22.9640007019043 8.57400035858154 C 0.0 **** 0.0
3 C 30.9029998779297 23.6089992523193 7.47499990463257 C 0.0 **** 0.0
4 O 29.8939990997314 23.0510005950928 7.01700019836426 O 0.0 **** 0.0
5 CB 31.4209995269775 23.5930004119873 9.94900035858154 C 0.0 **** 0.0
6 CG1 29.9559993743896 23.4479999542236 10.2749996185303 C 0.0 **** 0.0
7 CG2 32.3219985961914 22.9190006256104 11.0780000686646 C 0.0 **** 0.0
@<TRIPOS>BOND
1 1 2 1
2 2 3 1
3 2 5 1
4 3 4 1
5 5 7 1
6 5 6 1
@<TRIPOS>MOLECULE
ARG913
11 10
SMALL
USER_CHARGES


@<TRIPOS>ATOM
1 N 31.298999786377 24.806999206543 7.05299997329712 N 0.0 **** 0.0
2 CA 30.7590007781982 25.3889999389648 5.83500003814697 C 0.0 **** 0.0
3 C 31.7150001525879 25.0100002288818 4.71400022506714 C 0.0 **** 0.0
4 O 32.8790016174316 25.4589996337891 4.73000001907349 O 0.0 **** 0.0
5 CB 30.6310005187988 26.8990001678467 5.93200016021729 C 0.0 **** 0.0
6 CG 29.9890003204346 27.5009994506836 4.67399978637695 C 0.0 **** 0.0
7 CD 30.0930004119873 29.0380001068115 4.65500020980835 C 0.0 **** 0.0
8 NE 31.4780006408691 29.4540004730225 4.36800003051758 N 0.0 **** 0.0
9 CZ 32.0050010681152 29.5440006256104 3.15100002288818 C 0.0 **** 0.0
10 NH1 31.2749996185303 29.3110008239746 2.04699993133545 N 0.0 **** 0.0
11 NH2 33.2589988708496 29.9069995880127 3.03600001335144 N 0.0 **** 0.0
@<TRIPOS>BOND
1 1 2 1
2 2 5 1
3 2 3 1
4 3 4 1
5 5 6 1
6 6 7 1
7 7 8 1
8 8 9 1
9 9 11 1
10 9 10 1
@<TRIPOS>MOLECULE
PRO914
7 7
SMALL
USER_CHARGES


@<TRIPOS>ATOM
1 N 31.3099994659424 24.1539993286133 3.76799988746643 N 0.0 **** 0.0
2 CA 32.2249984741211 23.753999710083 2.69300007820129 C 0.0 **** 0.0
3 C 32.7249984741211 24.9710006713867 1.92700004577637 C 0.0 **** 0.0
4 O 32.007999420166 25.9610004425049 1.73000001907349 O 0.0 **** 0.0
5 CB 31.3649997711182 22.8449993133545 1.80499994754791 C 0.0 **** 0.0
6 CG 30.2900009155273 22.2999992370605 2.71700000762939 C 0.0 **** 0.0
7 CD 30.0230007171631 23.4559993743896 3.70499992370605 C 0.0 **** 0.0
@<TRIPOS>BOND
1 1 2 1
2 1 7 1
3 2 3 1
4 2 5 1
5 3 4 1
6 5 6 1
7 6 7 1
@<TRIPOS>MOLECULE
GLN915
9 8
SMALL
USER_CHARGES


@<TRIPOS>ATOM
1 N 33.9599990844727 24.8700008392334 1.4650000333786 N 0.0 **** 0.0
2 CA 34.6259994506836 26.0009994506836 0.837999999523163 C 0.0 **** 0.0
3 C 35.8569984436035 25.44700050354 0.145999997854233 C 0.0 **** 0.0
4 O 36.2169990539551 24.2789993286133 0.321000009775162 O 0.0 **** 0.0
5 CB 35.0120010375977 27.0690002441406 1.85599994659424 C 0.0 **** 0.0
6 CG 36.0579986572266 26.5499992370605 2.88800001144409 C 0.0 **** 0.0
7 CD 36.1150016784668 27.44700050354 4.09100008010864 C 0.0 **** 0.0
8 OE1 36.9679985046387 28.3199996948242 4.18800020217896 O 0.0 **** 0.0
9 NE2 35.1419982910156 27.2929992675781 4.98000001907349 N 0.0 **** 0.0
@<TRIPOS>BOND
1 1 2 1
2 2 3 1
3 2 5 1
4 3 4 1
5 5 6 1
6 6 7 1
7 7 8 1
8 7 9 1
@<TRIPOS>MOLECULE
GLU916
9 8
SMALL
USER_CHARGES


@<TRIPOS>ATOM
1 N 36.5 26.2929992675781 -0.64300000667572 N 0.0 **** 0.0
2 CA 37.7350006103516 25.8729991912842 -1.29299998283386 C 0.0 **** 0.0
3 C 38.7239990234375 25.3250007629395 -0.26800000667572 C 0.0 **** 0.0
4 O 39.0260009765625 25.9860000610352 0.726999998092651 O 0.0 **** 0.0
5 CB 38.3660011291504 27.05299949646 -2.02300000190735 C 0.0 **** 0.0
6 CG 39.8320007324219 26.8229999542236 -2.42799997329712 C 0.0 **** 0.0
7 CD 40.0320014953613 25.7220001220703 -3.43600010871887 C 0.0 **** 0.0
8 OE1 39.0890007019043 25.3719997406006 -4.18900012969971 O 0.0 **** 0.0
9 OE2 41.1609992980957 25.1909999847412 -3.48699998855591 O 0.0 **** 0.0
@<TRIPOS>BOND
1 1 2 1
2 2 3 1
3 2 5 1
4 3 4 1
5 5 6 1
6 6 7 1
7 7 8 1
8 7 9 1
@<TRIPOS>MOLECULE
CYS917
6 5
SMALL
USER_CHARGES


@<TRIPOS>ATOM
1 N 39.2949981689453 24.1650009155273 -0.578999996185303 N 0.0 **** 0.0
2 CA 40.2210006713867 23.4559993743896 0.293999999761581 C 0.0 **** 0.0
3 C 40.7589988708496 22.261999130249 -0.481000006198883 C 0.0 **** 0.0
4 O 40.2430000305176 21.9060001373291 -1.54200005531311 O 0.0 **** 0.0
5 CB 39.5229988098145 23.0130004882813 1.58299994468689 C 0.0 **** 0.0
6 SG 38.2610015869141 21.7730007171631 1.28999996185303 S 0.0 **** 0.0
@<TRIPOS>BOND
1 1 2 1
2 2 5 1
3 2 3 1
4 3 4 1
5 5 6 1
@<TRIPOS>MOLECULE
GLY918
4 3
SMALL
USER_CHARGES


@<TRIPOS>ATOM
1 N 41.8120002746582 21.632999420166 0.0579999983310699 N 0.0 **** 0.0
2 CA 42.3120002746582 20.3939990997314 -0.517000019550323 C 0.0 **** 0.0
3 C 43.3349990844727 20.5259990692139 -1.625 C 0.0 **** 0.0
4 O 43.7779998779297 19.4990005493164 -2.16899991035461 O 0.0 **** 0.0
@<TRIPOS>BOND
1 1 2 1
2 2 3 1
3 3 4 1
@<TRIPOS>MOLECULE
ALA919
5 4
SMALL
USER_CHARGES


@<TRIPOS>ATOM
1 N 43.7319984436035 21.7409992218018 -1.98599994182587 N 0.0 **** 0.0
2 CA 44.7919998168945 21.8939990997314 -2.96900010108948 C 0.0 **** 0.0
3 C 46.1209983825684 21.4619998931885 -2.37899994850159 C 0.0 **** 0.0
4 O 46.4199981689453 21.7280006408691 -1.2059999704361 O 0.0 **** 0.0
5 CB 44.9160003662109 23.3390007019043 -3.43199992179871 C 0.0 **** 0.0
@<TRIPOS>BOND
1 1 2 1
2 2 5 1
3 2 3 1
4 3 4 1
@<TRIPOS>MOLECULE
ARG920
11 10
SMALL
USER_CHARGES


@<TRIPOS>ATOM
1 N 46.9119987487793 20.8150005340576 -3.19799995422363 N 0.0 **** 0.0
2 CA 48.2599983215332 20.3990001678467 -2.85199999809265 C 0.0 **** 0.0
3 C 49.2299995422363 21.1940002441406 -3.70799994468689 C 0.0 **** 0.0
4 O 49.5060005187988 20.8309993743896 -4.84700012207031 O 0.0 **** 0.0
5 CB 48.4140014648438 18.8999996185303 -3.0699999332428 C 0.0 **** 0.0
6 CG 48.1059989929199 18.0480003356934 -1.85300004482269 C 0.0 **** 0.0
7 CD 46.7299995422363 18.2070007324219 -1.27999997138977 C 0.0 **** 0.0
8 NE 46.5270004272461 17.2870006561279 -0.143999993801117 N 0.0 **** 0.0
9 CZ 45.3370018005371 16.9979991912842 0.384999990463257 C 0.0 **** 0.0
10 NH1 44.2140007019043 17.556999206543 -0.0949999988079071 N 0.0 **** 0.0
11 NH2 45.2560005187988 16.1469993591309 1.39900004863739 N 0.0 **** 0.0
@<TRIPOS>BOND
1 1 2 1
2 2 3 1
3 2 5 1
4 3 4 1
5 5 6 1
6 6 7 1
7 7 8 1
8 8 9 1
9 9 11 1
10 9 10 1
@<TRIPOS>MOLECULE
SER921
6 5
SMALL
USER_CHARGES


@<TRIPOS>ATOM
1 N 49.7519989013672 22.2730007171631 -3.16499996185303 N 0.0 **** 0.0
2 CA 50.6769981384277 23.0919990539551 -3.92300009727478 C 0.0 **** 0.0
3 C 52.0439987182617 22.4179992675781 -3.97699999809265 C 0.0 **** 0.0
4 O 52.3629989624023 21.5300006866455 -3.17499995231628 O 0.0 **** 0.0
5 CB 50.8110008239746 24.4810009002686 -3.30100011825562 C 0.0 **** 0.0
6 OG 49.601001739502 25.2150001525879 -3.41499996185303 O 0.0 **** 0.0
@<TRIPOS>BOND
1 1 2 1
2 2 3 1
3 2 5 1
4 3 4 1
5 5 6 1
@<TRIPOS>MOLECULE
GLY922
4 3
SMALL
USER_CHARGES


@<TRIPOS>ATOM
1 N 52.8489990234375 22.8369998931885 -4.95699977874756 N 0.0 **** 0.0
2 CA 54.185001373291 22.2870006561279 -5.09000015258789 C 0.0 **** 0.0
3 C 54.2540016174316 20.8810005187988 -5.65299987792969 C 0.0 **** 0.0
4 O 55.242000579834 20.1849994659424 -5.42500019073486 O 0.0 **** 0.0
@<TRIPOS>BOND
1 1 2 1
2 2 3 1
3 3 4 1
@<TRIPOS>MOLECULE
SER923
6 5
SMALL
USER_CHARGES


@<TRIPOS>ATOM
1 N 53.2379989624023 20.42799949646 -6.38299989700317 N 0.0 **** 0.0
2 CA 53.2550010681152 19.0750007629395 -6.92899990081787 C 0.0 **** 0.0
3 C 54.1150016784668 19.0240001678467 -8.1850004196167 C 0.0 **** 0.0
4 O 54.0719985961914 19.9349994659424 -9.01700019836426 O 0.0 **** 0.0
5 CB 51.8479995727539 18.6079998016357 -7.28299999237061 C 0.0 **** 0.0
6 OG 50.9900016784668 18.5669994354248 -6.17000007629395 O 0.0 **** 0.0
@<TRIPOS>BOND
1 1 2 1
2 2 3 1
3 2 5 1
4 3 4 1
5 5 6 1
@<TRIPOS>MOLECULE
ARG924
11 10
SMALL
USER_CHARGES


@<TRIPOS>ATOM
1 N 54.8940010070801 17.9489994049072 -8.32999992370605 N 0.0 **** 0.0
2 CA 55.6559982299805 17.7310009002686 -9.55399990081787 C 0.0 **** 0.0
3 C 55.0639991760254 16.6490001678467 -10.4359998703003 C 0.0 **** 0.0
4 O 55.2459983825684 16.693000793457 -11.6660003662109 O 0.0 **** 0.0
5 CB 57.0999984741211 17.3519992828369 -9.22500038146973 C 0.0 **** 0.0
6 CG 57.8940010070801 18.4589996337891 -8.51500034332275 C 0.0 **** 0.0
7 CD 57.9659996032715 19.7399997711182 -9.3730001449585 C 0.0 **** 0.0
8 NE 58.3600006103516 19.4829998016357 -10.7700004577637 N 0.0 **** 0.0
9 CZ 59.617000579834 19.4790000915527 -11.2170000076294 C 0.0 **** 0.0
10 NH1 60.6370010375977 19.7070007324219 -10.378999710083 N 0.0 **** 0.0
11 NH2 59.8569984436035 19.2360000610352 -12.4989995956421 N 0.0 **** 0.0
@<TRIPOS>BOND
1 1 2 1
2 2 5 1
3 2 3 1
4 3 4 1
5 5 6 1
6 6 7 1
7 7 8 1
8 8 9 1
9 9 10 1
10 9 11 1
@<TRIPOS>MOLECULE
SER925
6 5
SMALL
USER_CHARGES


@<TRIPOS>ATOM
1 N 54.3709983825684 15.6879997253418 -9.83500003814697 N 0.0 **** 0.0
2 CA 53.7039985656738 14.6169996261597 -10.5600004196167 C 0.0 **** 0.0
3 C 52.4930000305176 14.168999671936 -9.75699996948242 C 0.0 **** 0.0
4 O 52.4620018005371 14.2959995269775 -8.52099990844727 O 0.0 **** 0.0
5 CB 54.6419982910156 13.4219999313354 -10.8179998397827 C 0.0 **** 0.0
6 OG 54.9519996643066 12.7480001449585 -9.59200000762939 O 0.0 **** 0.0
@<TRIPOS>BOND
1 1 2 1
2 2 5 1
3 2 3 1
4 3 4 1
5 5 6 1
@<TRIPOS>MOLECULE
ALA926
5 4
SMALL
USER_CHARGES


@<TRIPOS>ATOM
1 N 51.4900016784668 13.6549997329712 -10.4680004119873 N 0.0 **** 0.0
2 CA 50.25 13.1920003890991 -9.86400032043457 C 0.0 **** 0.0
3 C 49.7360000610352 11.9910001754761 -10.6499996185303 C 0.0 **** 0.0
4 O 49.9720001220703 11.8730001449585 -11.8489999771118 O 0.0 **** 0.0
5 CB 49.1959991455078 14.3020000457764 -9.83199977874756 C 0.0 **** 0.0
@<TRIPOS>BOND
1 1 2 1
2 2 3 1
3 2 5 1
4 3 4 1
@<TRIPOS>MOLECULE
ALA927
5 4
SMALL
USER_CHARGES


@<TRIPOS>ATOM
1 N 49.0229988098145 11.1020002365112 -9.96399974822998 N 0.0 **** 0.0
2 CA 48.4539985656738 9.92199993133545 -10.5959997177124 C 0.0 **** 0.0
3 C 47.0629997253418 9.71700000762939 -10.0220003128052 C 0.0 **** 0.0
4 O 46.9059982299805 9.58500003814697 -8.80099964141846 O 0.0 **** 0.0
5 CB 49.3269996643066 8.6879997253418 -10.3660001754761 C 0.0 **** 0.0
@<TRIPOS>BOND
1 1 2 1
2 2 3 1
3 2 5 1
4 3 4 1
@<TRIPOS>MOLECULE
LEU928
8 7
SMALL
USER_CHARGES


@<TRIPOS>ATOM
1 N 46.060001373291 9.72799968719482 -10.8959999084473 N 0.0 **** 0.0
2 CA 44.6860008239746 9.44499969482422 -10.5170001983643 C 0.0 **** 0.0
3 C 44.3310012817383 8.05599975585938 -11.0100002288818 C 0.0 **** 0.0
4 O 44.5449981689453 7.73600006103516 -12.1800003051758 O 0.0 **** 0.0
5 CB 43.7080001831055 10.456000328064 -11.1120004653931 C 0.0 **** 0.0
6 CG 43.5299987792969 11.8129997253418 -10.4160003662109 C 0.0 **** 0.0
7 CD1 44.7939987182617 12.6409997940063 -10.4689998626709 C 0.0 **** 0.0
8 CD2 42.3810005187988 12.5279998779297 -11.1020002365112 C 0.0 **** 0.0
@<TRIPOS>BOND
1 1 2 1
2 2 3 1
3 2 5 1
4 3 4 1
5 5 6 1
6 6 7 1
7 6 8 1
@<TRIPOS>MOLECULE
GLN929
9 8
SMALL
USER_CHARGES


@<TRIPOS>ATOM
1 N 43.7770004272461 7.24900007247925 -10.1230001449585 N 0.0 **** 0.0
2 CA 43.3330001831055 5.90700006484985 -10.4530000686646 C 0.0 **** 0.0
3 C 41.8269996643066 5.96400022506714 -10.6549997329712 C 0.0 **** 0.0
4 O 41.0690002441406 6.11800003051758 -9.6899995803833 O 0.0 **** 0.0
5 CB 43.7140007019043 4.90999984741211 -9.35999965667725 C 0.0 **** 0.0
6 CG 43.4889984130859 3.48099994659424 -9.78899955749512 C 0.0 **** 0.0
7 CD 44.1710014343262 2.4909999370575 -8.89200019836426 C 0.0 **** 0.0
8 OE1 45.1300010681152 2.81900000572205 -8.19400024414063 O 0.0 **** 0.0
9 NE2 43.6910018920898 1.24300003051758 -8.92300033569336 N 0.0 **** 0.0
@<TRIPOS>BOND
1 1 2 1
2 2 3 1
3 2 5 1
4 3 4 1
5 5 6 1
6 6 7 1
7 7 8 1
8 7 9 1
@<TRIPOS>MOLECULE
LEU930
8 7
SMALL
USER_CHARGES


@<TRIPOS>ATOM
1 N 41.4029998779297 5.8769998550415 -11.9130001068115 N 0.0 **** 0.0
2 CA 39.9900016784668 5.88700008392334 -12.28600025177 C 0.0 **** 0.0
3 C 39.6660003662109 4.47700023651123 -12.7550001144409 C 0.0 **** 0.0
4 O 39.7470016479492 4.17799997329712 -13.9449996948242 O 0.0 **** 0.0
5 CB 39.6879997253418 6.89200019836426 -13.3839998245239 C 0.0 **** 0.0
6 CG 40.273998260498 8.28299999237061 -13.2299995422363 C 0.0 **** 0.0
7 CD1 41.5139999389648 8.41800022125244 -14.1049995422363 C 0.0 **** 0.0
8 CD2 39.2270011901855 9.32800006866455 -13.5860004425049 C 0.0 **** 0.0
@<TRIPOS>BOND
1 1 2 1
2 2 5 1
3 2 3 1
4 3 4 1
5 5 6 1
6 6 8 1
7 6 7 1
@<TRIPOS>MOLECULE
GLY931
4 3
SMALL
USER_CHARGES


@<TRIPOS>ATOM
1 N 39.310001373291 3.61299991607666 -11.8079996109009 N 0.0 **** 0.0
2 CA 39.0169982910156 2.22900009155273 -12.1090002059937 C 0.0 **** 0.0
3 C 40.2330017089844 1.48099994659424 -12.6029996871948 C 0.0 **** 0.0
4 O 41.193000793457 1.26400005817413 -11.8529996871948 O 0.0 **** 0.0
@<TRIPOS>BOND
1 1 2 1
2 2 3 1
3 3 4 1
@<TRIPOS>MOLECULE
GLY932
4 3
SMALL
USER_CHARGES


@<TRIPOS>ATOM
1 N 40.2029991149902 1.09500002861023 -13.8730001449585 N 0.0 **** 0.0
2 CA 41.2540016174316 0.273999989032745 -14.4309997558594 C 0.0 **** 0.0
3 C 42.4189987182617 1.07700002193451 -14.9569997787476 C 0.0 **** 0.0
4 O 43.4990005493164 0.523999989032745 -15.1709995269775 O 0.0 **** 0.0
@<TRIPOS>BOND
1 1 2 1
2 2 3 1
3 3 4 1
@<TRIPOS>MOLECULE
ARG933
11 10
SMALL
USER_CHARGES


@<TRIPOS>ATOM
1 N 42.226001739502 2.37400007247925 -15.168999671936 N 0.0 **** 0.0
2 CA 43.273998260498 3.20700001716614 -15.7349996566772 C 0.0 **** 0.0
3 C 43.9020004272461 4.09800004959106 -14.6700000762939 C 0.0 **** 0.0
4 O 43.3059997558594 4.36499977111816 -13.6219997406006 O 0.0 **** 0.0
5 CB 42.7249984741211 4.07000017166138 -16.8680000305176 C 0.0 **** 0.0
6 CG 42.0929985046387 3.26600003242493 -18.0020008087158 C 0.0 **** 0.0
7 CD 41.818000793457 4.13500022888184 -19.2220001220703 C 0.0 **** 0.0
8 NE 41.3289985656738 3.33899998664856 -20.3430004119873 N 0.0 **** 0.0
9 CZ 40.0709991455078 2.93099999427795 -20.4720001220703 C 0.0 **** 0.0
10 NH1 39.1749992370605 3.24900007247925 -19.5380001068115 N 0.0 **** 0.0
11 NH2 39.7039985656738 2.20700001716614 -21.5310001373291 N 0.0 **** 0.0
@<TRIPOS>BOND
1 1 2 1
2 2 3 1
3 2 5 1
4 3 4 1
5 5 6 1
6 6 7 1
7 7 8 1
8 8 9 1
9 9 10 1
10 9 11 1
@<TRIPOS>MOLECULE
THR934
7 6
SMALL
USER_CHARGES


@<TRIPOS>ATOM
1 N 45.1240005493164 4.55200004577637 -14.9530000686646 N 0.0 **** 0.0
2 CA 45.8030014038086 5.54400014877319 -14.1339998245239 C 0.0 **** 0.0
3 C 46.201000213623 6.70499992370605 -15.0310001373291 C 0.0 **** 0.0
4 O 46.9010009765625 6.50699996948242 -16.0310001373291 O 0.0 **** 0.0
5 CB 47.0320014953613 4.95800018310547 -13.4379997253418 C 0.0 **** 0.0
6 OG1 46.6360015869141 3.84200000762939 -12.6359996795654 O 0.0 **** 0.0
7 CG2 47.689998626709 6.01599979400635 -12.543999671936 C 0.0 **** 0.0
@<TRIPOS>BOND
1 1 2 1
2 2 5 1
3 2 3 1
4 3 4 1
5 5 7 1
6 5 6 1
@<TRIPOS>MOLECULE
LEU935
8 7
SMALL
USER_CHARGES


@<TRIPOS>ATOM
1 N 45.7369995117188 7.90399980545044 -14.6829996109009 N 0.0 **** 0.0
2 CA 46.0750007629395 9.12399959564209 -15.3920001983643 C 0.0 **** 0.0
3 C 47.2050018310547 9.83300018310547 -14.6529998779297 C 0.0 **** 0.0
4 O 47.0519981384277 10.201000213623 -13.4840002059937 O 0.0 **** 0.0
5 CB 44.8470001220703 10.0260000228882 -15.5010004043579 C 0.0 **** 0.0
6 CG 45.1119995117188 11.4709997177124 -15.9250001907349 C 0.0 **** 0.0
7 CD1 45.6870002746582 11.5329999923706 -17.3390007019043 C 0.0 **** 0.0
8 CD2 43.8359985351563 12.2620000839233 -15.8290004730225 C 0.0 **** 0.0
@<TRIPOS>BOND
1 1 2 1
2 2 3 1
3 2 5 1
4 3 4 1
5 5 6 1
6 6 8 1
7 6 7 1
@<TRIPOS>MOLECULE
GLU936
9 8
SMALL
USER_CHARGES


@<TRIPOS>ATOM
1 N 48.318000793457 10.0530004501343 -15.3409996032715 N 0.0 **** 0.0
2 CA 49.4850006103516 10.6929998397827 -14.7519998550415 C 0.0 **** 0.0
3 C 49.7000007629395 12.0699996948242 -15.3730001449585 C 0.0 **** 0.0
4 O 49.5579986572266 12.2370004653931 -16.5919990539551 O 0.0 **** 0.0
5 CB 50.7249984741211 9.82299995422363 -14.956000328064 C 0.0 **** 0.0
6 CG 50.5890007019043 8.42899990081787 -14.3800001144409 C 0.0 **** 0.0
7 CD 51.7509994506836 7.53200006484985 -14.7569999694824 C 0.0 **** 0.0
8 OE1 52.4869995117188 7.86299991607666 -15.7130002975464 O 0.0 **** 0.0
9 OE2 51.9309997558594 6.49499988555908 -14.0880002975464 O 0.0 **** 0.0
@<TRIPOS>BOND
1 1 2 1
2 2 5 1
3 2 3 1
4 3 4 1
5 5 6 1
6 6 7 1
7 7 8 1
8 7 9 1
@<TRIPOS>MOLECULE
ILE937
8 7
SMALL
USER_CHARGES


@<TRIPOS>ATOM
1 N 50.0340003967285 13.0459995269775 -14.5249996185303 N 0.0 **** 0.0
2 CA 50.3209991455078 14.423999786377 -14.914999961853 C 0.0 **** 0.0
3 C 51.6829986572266 14.8100004196167 -14.3509998321533 C 0.0 **** 0.0
4 O 51.939998626709 14.6140003204346 -13.1540002822876 O 0.0 **** 0.0
5 CB 49.2610015869141 15.4069995880127 -14.3819999694824 C 0.0 **** 0.0
6 CG1 47.8610000610352 14.9870004653931 -14.8059997558594 C 0.0 **** 0.0
7 CG2 49.5709991455078 16.8379993438721 -14.8179998397827 C 0.0 **** 0.0
8 CD1 47.1599998474121 14.1619997024536 -13.7559995651245 C 0.0 **** 0.0
@<TRIPOS>BOND
1 1 2 1
2 2 5 1
3 2 3 1
4 3 4 1
5 5 6 1
6 5 7 1
7 6 8 1
@<TRIPOS>MOLECULE
CYS938
6 5
SMALL
USER_CHARGES


@<TRIPOS>ATOM
1 N 52.523998260498 15.4119997024536 -15.1850004196167 N 0.0 **** 0.0
2 CA 53.806999206543 15.951000213623 -14.7650003433228 C 0.0 **** 0.0
3 C 53.9729995727539 17.3659992218018 -15.2810001373291 C 0.0 **** 0.0
4 O 53.4049987792969 17.7520008087158 -16.3080005645752 O 0.0 **** 0.0
5 CB 54.9869995117188 15.1239995956421 -15.2740001678467 C 0.0 **** 0.0
6 SG 55.056999206543 13.5089998245239 -14.5860004425049 S 0.0 **** 0.0
@<TRIPOS>BOND
1 1 2 1
2 2 5 1
3 2 3 1
4 3 4 1
5 5 6 1
@<TRIPOS>MOLECULE
GLY939
4 3
SMALL
USER_CHARGES


@<TRIPOS>ATOM
1 N 54.7610015869141 18.1380004882813 -14.5480003356934 N 0.0 **** 0.0
2 CA 55.0410003662109 19.4979991912842 -14.9490003585815 C 0.0 **** 0.0
3 C 55.9570007324219 20.1520004272461 -13.9479999542236 C 0.0 **** 0.0
4 O 56.2680015563965 19.6009998321533 -12.8800001144409 O 0.0 **** 0.0
@<TRIPOS>BOND
1 1 2 1
2 2 3 1
3 3 4 1
@<TRIPOS>MOLECULE
ASP940
8 7
SMALL
USER_CHARGES


@<TRIPOS>ATOM
1 N 56.3899993896484 21.3530006408691 -14.3109998703003 N 0.0 **** 0.0
2 CA 56.9410018920898 22.2210006713867 -13.3100004196167 C 0.0 **** 0.0
3 C 55.8619995117188 22.4080009460449 -12.2589998245239 C 0.0 **** 0.0
4 O 54.6920013427734 22.1009998321533 -12.5100002288818 O 0.0 **** 0.0
5 CB 57.3810005187988 23.5459995269775 -13.9309997558594 C 0.0 **** 0.0
6 CG 58.7620010375977 23.4529991149902 -14.5799999237061 C 0.0 **** 0.0
7 OD1 59.4080009460449 22.3950004577637 -14.4440002441406 O 0.0 **** 0.0
8 OD2 59.2070007324219 24.4249992370605 -15.2200002670288 O 0.0 **** 0.0
@<TRIPOS>BOND
1 1 2 1
2 2 3 1
3 2 5 1
4 3 4 1
5 5 6 1
6 6 7 1
7 6 8 1
@<TRIPOS>MOLECULE
PRO941
7 7
SMALL
USER_CHARGES


@<TRIPOS>ATOM
1 N 56.2309989929199 22.8780002593994 -11.0749998092651 N 0.0 **** 0.0
2 CA 55.2999992370605 22.8570003509521 -9.94400024414063 C 0.0 **** 0.0
3 C 53.8880004882813 23.2889995574951 -10.3050003051758 C 0.0 **** 0.0
4 O 53.681999206543 24.2849998474121 -11.0059995651245 O 0.0 **** 0.0
5 CB 55.9459991455078 23.8299999237061 -8.95100021362305 C 0.0 **** 0.0
6 CG 57.4090003967285 23.6909999847412 -9.20899963378906 C 0.0 **** 0.0
7 CD 57.5349998474121 23.44700050354 -10.7080001831055 C 0.0 **** 0.0
@<TRIPOS>BOND
1 1 2 1
2 1 7 1
3 2 3 1
4 2 5 1
5 3 4 1
6 5 6 1
7 6 7 1
@<TRIPOS>MOLECULE
PHE942
11 11
SMALL
USER_CHARGES


@<TRIPOS>ATOM
1 N 52.9119987487793 22.5200004577637 -9.83699989318848 N 0.0 **** 0.0
2 CA 51.5110015869141 22.8560009002686 -9.9980001449585 C 0.0 **** 0.0
3 C 50.7830009460449 22.4589996337891 -8.72299957275391 C 0.0 **** 0.0
4 O 51.234001159668 21.5830001831055 -7.97800016403198 O 0.0 **** 0.0
5 CB 50.9059982299805 22.1480007171631 -11.2229995727539 C 0.0 **** 0.0
6 CG 50.9560012817383 20.6380004882813 -11.1590003967285 C 0.0 **** 0.0
7 CD1 52.060001373291 19.9379997253418 -11.6459999084473 C 0.0 **** 0.0
8 CD2 49.8950004577637 19.9099998474121 -10.6280002593994 C 0.0 **** 0.0
9 CE1 52.1059989929199 18.5540008544922 -11.6190004348755 C 0.0 **** 0.0
10 CE2 49.9379997253418 18.5100002288818 -10.6110000610352 C 0.0 **** 0.0
11 CZ 51.0530014038086 17.8369998931885 -11.1029996871948 C 0.0 **** 0.0
@<TRIPOS>BOND
1 1 2 1
2 2 5 1
3 2 3 1
4 3 4 1
5 5 6 1
6 6 7 1
7 6 8 1
8 7 9 1
9 8 10 1
10 9 11 1
11 10 11 1
@<TRIPOS>MOLECULE
ALA943
5 4
SMALL
USER_CHARGES


@<TRIPOS>ATOM
1 N 49.6559982299805 23.1079998016357 -8.46399974822998 N 0.0 **** 0.0
2 CA 48.8019981384277 22.6669998168945 -7.38000011444092 C 0.0 **** 0.0
3 C 47.7980003356934 21.6630001068115 -7.91900014877319 C 0.0 **** 0.0
4 O 47.2830009460449 21.8169994354248 -9.03600025177002 O 0.0 **** 0.0
5 CB 48.0699996948242 23.8279991149902 -6.73000001907349 C 0.0 **** 0.0
@<TRIPOS>BOND
1 1 2 1
2 2 3 1
3 2 5 1
4 3 4 1
@<TRIPOS>MOLECULE
LEU944
8 7
SMALL
USER_CHARGES


@<TRIPOS>ATOM
1 N 47.5200004577637 20.6420001983643 -7.1100001335144 N 0.0 **** 0.0
2 CA 46.6599998474121 19.5219993591309 -7.47100019454956 C 0.0 **** 0.0
3 C 45.4560012817383 19.5049991607666 -6.54300022125244 C 0.0 **** 0.0
4 O 45.6160011291504 19.5189990997314 -5.32000017166138 O 0.0 **** 0.0
5 CB 47.4199981689453 18.2059993743896 -7.32100009918213 C 0.0 **** 0.0
6 CG 46.6339988708496 16.9029998779297 -7.38199996948242 C 0.0 **** 0.0
7 CD1 46.2019996643066 16.632999420166 -8.84000015258789 C 0.0 **** 0.0
8 CD2 47.4850006103516 15.7299995422363 -6.8439998626709 C 0.0 **** 0.0
@<TRIPOS>BOND
1 1 2 1
2 2 5 1
3 2 3 1
4 3 4 1
5 5 6 1
6 6 7 1
7 6 8 1
@<TRIPOS>MOLECULE
THR945
7 6
SMALL
USER_CHARGES


@<TRIPOS>ATOM
1 N 44.2620010375977 19.4349994659424 -7.12400007247925 N 0.0 **** 0.0
2 CA 43.0460014343262 19.1900005340576 -6.36800003051758 C 0.0 **** 0.0
3 C 42.2099990844727 18.1760005950928 -7.13399982452393 C 0.0 **** 0.0
4 O 42.1430015563965 18.2169990539551 -8.36999988555908 O 0.0 **** 0.0
5 CB 42.2190017700195 20.4580001831055 -6.15899991989136 C 0.0 **** 0.0
6 OG1 43.0509986877441 21.5370006561279 -5.75500011444092 O 0.0 **** 0.0
7 CG2 41.1269989013672 20.238000869751 -5.13000011444092 C 0.0 **** 0.0
@<TRIPOS>BOND
1 1 2 1
2 2 5 1
3 2 3 1
4 3 4 1
5 5 7 1
6 5 6 1
@<TRIPOS>MOLECULE
VAL946
7 6
SMALL
USER_CHARGES


@<TRIPOS>ATOM
1 N 41.5460014343262 17.2870006561279 -6.40500020980835 N 0.0 **** 0.0
2 CA 40.6790008544922 16.2919998168945 -7.01300001144409 C 0.0 **** 0.0
3 C 39.4469985961914 16.1609992980957 -6.14099979400635 C 0.0 **** 0.0
4 O 39.5639991760254 15.9409999847412 -4.92999982833862 O 0.0 **** 0.0
5 CB 41.3559989929199 14.9180002212524 -7.17399978637695 C 0.0 **** 0.0
6 CG1 40.4259986877441 13.9689998626709 -7.95800018310547 C 0.0 **** 0.0
7 CG2 42.7140007019043 15.0459995269775 -7.87599992752075 C 0.0 **** 0.0
@<TRIPOS>BOND
1 1 2 1
2 2 5 1
3 2 3 1
4 3 4 1
5 5 7 1
6 5 6 1
@<TRIPOS>MOLECULE
ARG947
11 10
SMALL
USER_CHARGES


@<TRIPOS>ATOM
1 N 38.2709999084473 16.2649993896484 -6.76000022888184 N 0.0 **** 0.0
2 CA 36.9939994812012 16.2590007781982 -6.06300020217896 C 0.0 **** 0.0
3 C 35.9739990234375 15.4390001296997 -6.83400011062622 C 0.0 **** 0.0
4 O 36.0519981384277 15.3339996337891 -8.06700038909912 O 0.0 **** 0.0
5 CB 36.4300003051758 17.6809997558594 -5.8730001449585 C 0.0 **** 0.0
6 CG 37.3330001831055 18.6259994506836 -5.08900022506714 C 0.0 **** 0.0
7 CD 36.548999786377 19.7250003814697 -4.46099996566772 C 0.0 **** 0.0
8 NE 37.4329986572266 20.738000869751 -3.89400005340576 N 0.0 **** 0.0
9 CZ 37.7760009765625 21.875 -4.49100017547607 C 0.0 **** 0.0
10 NH1 37.3040008544922 22.1870002746582 -5.7039999961853 N 0.0 **** 0.0
11 NH2 38.601001739502 22.7040004730225 -3.86999988555908 N 0.0 **** 0.0
@<TRIPOS>BOND
1 1 2 1
2 2 3 1
3 2 5 1
4 3 4 1
5 5 6 1
6 6 7 1
7 7 8 1
8 8 9 1
9 9 11 1
10 9 10 1
@<TRIPOS>MOLECULE
PRO948
7 7
SMALL
USER_CHARGES


@<TRIPOS>ATOM
1 N 35.0099983215332 14.8430004119873 -6.13500022888184 N 0.0 **** 0.0
2 CA 33.8870010375977 14.1770000457764 -6.80999994277954 C 0.0 **** 0.0
3 C 32.6689987182617 15.0579996109009 -7.05900001525879 C 0.0 **** 0.0
4 O 31.613000869751 14.5220003128052 -7.41900014877319 O 0.0 **** 0.0
5 CB 33.5390014648438 13.0570001602173 -5.82800006866455 C 0.0 **** 0.0
6 CG 33.867000579834 13.6549997329712 -4.44299983978271 C 0.0 **** 0.0
7 CD 35.0 14.628999710083 -4.66900014877319 C 0.0 **** 0.0
@<TRIPOS>BOND
1 1 2 1
2 1 7 1
3 2 5 1
4 2 3 1
5 3 4 1
6 5 6 1
7 6 7 1
@<TRIPOS>MOLECULE
TYR949
12 12
SMALL
USER_CHARGES


@<TRIPOS>ATOM
1 N 32.7859992980957 16.375 -6.88199996948242 N 0.0 **** 0.0
2 CA 31.6989994049072 17.3020000457764 -7.16599988937378 C 0.0 **** 0.0
3 C 32.3289985656738 18.5769996643066 -7.70300006866455 C 0.0 **** 0.0
4 O 33.5320014953613 18.8159999847412 -7.53299999237061 O 0.0 **** 0.0
5 CB 30.8430004119873 17.5869998931885 -5.90799999237061 C 0.0 **** 0.0
6 CG 31.6989994049072 17.9349994659424 -4.70800018310547 C 0.0 **** 0.0
7 CD1 32.257999420166 19.1979999542236 -4.58699989318848 C 0.0 **** 0.0
8 CD2 31.9799995422363 16.9899997711182 -3.73200011253357 C 0.0 **** 0.0
9 CE1 33.0719985961914 19.5270004272461 -3.50300002098084 C 0.0 **** 0.0
10 CE2 32.8050003051758 17.3050003051758 -2.64499998092651 C 0.0 **** 0.0
11 CZ 33.3339996337891 18.5739994049072 -2.54500007629395 C 0.0 **** 0.0
12 OH 34.1459999084473 18.8810005187988 -1.48500001430511 O 0.0 **** 0.0
@<TRIPOS>BOND
1 1 2 1
2 2 5 1
3 2 3 1
4 3 4 1
5 5 6 1
6 6 8 1
7 6 7 1
8 7 9 1
9 8 10 1
10 9 11 1
11 10 11 1
12 11 12 1
@<TRIPOS>MOLECULE
SER950
6 5
SMALL
USER_CHARGES


@<TRIPOS>ATOM
1 N 31.4979991912842 19.4050006866455 -8.33600044250488 N 0.0 **** 0.0
2 CA 31.9150009155273 20.6319999694824 -8.99199962615967 C 0.0 **** 0.0
3 C 32.1599998474121 21.7700004577637 -7.9980001449585 C 0.0 **** 0.0
4 O 31.7759990692139 21.7159996032715 -6.82600021362305 O 0.0 **** 0.0
5 CB 30.8409996032715 21.0930004119873 -9.97900009155273 C 0.0 **** 0.0
6 OG 29.7479991912842 21.7040004730225 -9.29399967193604 O 0.0 **** 0.0
@<TRIPOS>BOND
1 1 2 1
2 2 3 1
3 2 5 1
4 3 4 1
5 5 6 1
@<TRIPOS>MOLECULE
GLN951
9 8
SMALL
USER_CHARGES


@<TRIPOS>ATOM
1 N 32.7709999084473 22.8470001220703 -8.50599956512451 N 0.0 **** 0.0
2 CA 32.9809989929199 24.0370006561279 -7.69099998474121 C 0.0 **** 0.0
3 C 31.6660003662109 24.7229995727539 -7.33900022506714 C 0.0 **** 0.0
4 O 31.5650005340576 25.382999420166 -6.29400014877319 O 0.0 **** 0.0
5 CB 33.8810005187988 25.0380001068115 -8.41899967193604 C 0.0 **** 0.0
6 CG 35.3079986572266 24.5809993743896 -8.63899993896484 C 0.0 **** 0.0
7 CD 36.2540016174316 25.7430000305176 -8.85000038146973 C 0.0 **** 0.0
8 OE1 37.068000793457 26.0499992370605 -7.98600006103516 O 0.0 **** 0.0
9 NE2 36.1590003967285 26.3910007476807 -10.0159997940063 N 0.0 **** 0.0
@<TRIPOS>BOND
1 1 2 1
2 2 3 1
3 2 5 1
4 3 4 1
5 5 6 1
6 6 7 1
7 7 8 1
8 7 9 1
@<TRIPOS>MOLECULE
ASP952
8 7
SMALL
USER_CHARGES


@<TRIPOS>ATOM
1 N 30.6630001068115 24.6389999389648 -8.22500038146973 N 0.0 **** 0.0
2 CA 29.4009990692139 25.2999992370605 -7.93699979782104 C 0.0 **** 0.0
3 C 28.6509990692139 24.5639991760254 -6.83400011062622 C 0.0 **** 0.0
4 O 27.9899997711182 25.1879997253418 -6.00099992752075 O 0.0 **** 0.0
5 CB 28.5599994659424 25.4029998779297 -9.20899963378906 C 0.0 **** 0.0
6 CG 29.1639995574951 26.3810005187988 -10.2399997711182 C 0.0 **** 0.0
7 OD1 29.8859996795654 27.3339996337891 -9.86400032043457 O 0.0 **** 0.0
8 OD2 28.9249992370605 26.1909999847412 -11.4350004196167 O 0.0 **** 0.0
@<TRIPOS>BOND
1 1 2 1
2 2 5 1
3 2 3 1
4 3 4 1
5 5 6 1
6 6 7 1
7 6 8 1
@<TRIPOS>MOLECULE
VAL953
7 6
SMALL
USER_CHARGES


@<TRIPOS>ATOM
1 N 28.7630004882813 23.2369995117188 -6.80100011825562 N 0.0 **** 0.0
2 CA 28.2140007019043 22.4669990539551 -5.68100023269653 C 0.0 **** 0.0
3 C 28.9290008544922 22.8390007019043 -4.38399982452393 C 0.0 **** 0.0
4 O 28.2999992370605 22.9869995117188 -3.33100008964539 O 0.0 **** 0.0
5 CB 28.3169994354248 20.9580001831055 -5.97499990463257 C 0.0 **** 0.0
6 CG1 27.9559993743896 20.1110000610352 -4.75600004196167 C 0.0 **** 0.0
7 CG2 27.3819999694824 20.5990009307861 -7.11100006103516 C 0.0 **** 0.0
@<TRIPOS>BOND
1 1 2 1
2 2 5 1
3 2 3 1
4 3 4 1
5 5 7 1
6 5 6 1
@<TRIPOS>MOLECULE
LEU954
8 7
SMALL
USER_CHARGES


@<TRIPOS>ATOM
1 N 30.2560005187988 22.9799995422363 -4.44500017166138 N 0.0 **** 0.0
2 CA 31.0359992980957 23.3400001525879 -3.26600003242493 C 0.0 **** 0.0
3 C 30.6420001983643 24.7169990539551 -2.75600004196167 C 0.0 **** 0.0
4 O 30.4519996643066 24.9169998168945 -1.54900002479553 O 0.0 **** 0.0
5 CB 32.5309982299805 23.3090000152588 -3.59800004959106 C 0.0 **** 0.0
6 CG 33.4930000305176 23.6280002593994 -2.44199991226196 C 0.0 **** 0.0
7 CD1 33.2830009460449 22.6919994354248 -1.24000000953674 C 0.0 **** 0.0
8 CD2 34.9519996643066 23.5259990692139 -2.92000007629395 C 0.0 **** 0.0
@<TRIPOS>BOND
1 1 2 1
2 2 5 1
3 2 3 1
4 3 4 1
5 5 6 1
6 6 8 1
7 6 7 1
@<TRIPOS>MOLECULE
ASP955
8 7
SMALL
USER_CHARGES


@<TRIPOS>ATOM
1 N 30.5189990997314 25.6809997558594 -3.66700005531311 N 0.0 **** 0.0
2 CA 30.1720008850098 27.0400009155273 -3.26999998092651 C 0.0 **** 0.0
3 C 28.7509994506836 27.1240005493164 -2.7260000705719 C 0.0 **** 0.0
4 O 28.4899997711182 27.8430004119873 -1.75199997425079 O 0.0 **** 0.0
5 CB 30.3339996337891 27.988000869751 -4.44600009918213 C 0.0 **** 0.0
6 CG 30.30299949646 29.4489994049072 -4.00699996948242 C 0.0 **** 0.0
7 OD1 30.7049999237061 29.7269992828369 -2.84299993515015 O 0.0 **** 0.0
8 OD2 29.8680000305176 30.3020000457764 -4.82600021362305 O 0.0 **** 0.0
@<TRIPOS>BOND
1 1 2 1
2 2 3 1
3 2 5 1
4 3 4 1
5 5 6 1
6 6 7 1
7 6 8 1
@<TRIPOS>MOLECULE
ALA956
5 4
SMALL
USER_CHARGES


@<TRIPOS>ATOM
1 N 27.8169994354248 26.4009990692139 -3.33500003814697 N 0.0 **** 0.0
2 CA 26.431999206543 26.4580001831055 -2.88700008392334 C 0.0 **** 0.0
3 C 26.2019996643066 25.7870006561279 -1.53799998760223 C 0.0 **** 0.0
4 O 25.2369995117188 26.1270008087158 -0.850000023841858 O 0.0 **** 0.0
5 CB 25.5270004272461 25.7959995269775 -3.91499996185303 C 0.0 **** 0.0
@<TRIPOS>BOND
1 1 2 1
2 2 5 1
3 2 3 1
4 3 4 1
@<TRIPOS>MOLECULE
ALA957
5 4
SMALL
USER_CHARGES


@<TRIPOS>ATOM
1 N 27.0359992980957 24.8309993743896 -1.16600000858307 N 0.0 **** 0.0
2 CA 26.8090000152588 24.0550003051758 0.0450000017881393 C 0.0 **** 0.0
3 C 27.0550003051758 24.9009990692139 1.29299998283386 C 0.0 **** 0.0
4 O 28.117000579834 25.5130004882813 1.44500005245209 O 0.0 **** 0.0
5 CB 27.7280006408691 22.8369998931885 0.0379999987781048 C 0.0 **** 0.0
@<TRIPOS>BOND
1 1 2 1
2 2 3 1
3 2 5 1
4 3 4 1
@<TRIPOS>MOLECULE
ALA958
5 4
SMALL
USER_CHARGES


@<TRIPOS>ATOM
1 N 26.0690002441406 24.9340000152588 2.18899989128113 N 0.0 **** 0.0
2 CA 26.2189998626709 25.5970001220703 3.48399996757507 C 0.0 **** 0.0
3 C 26.6560001373291 24.6420001983643 4.58900022506714 C 0.0 **** 0.0
4 O 27.2679996490479 25.0769996643066 5.58300018310547 O 0.0 **** 0.0
5 CB 24.9039993286133 26.2719993591309 3.86700010299683 C 0.0 **** 0.0
@<TRIPOS>BOND
1 1 2 1
2 2 5 1
3 2 3 1
4 3 4 1
@<TRIPOS>MOLECULE
HIS959
10 10
SMALL
USER_CHARGES


@<TRIPOS>ATOM
1 N 26.3519992828369 23.3560009002686 4.44299983978271 N 0.0 **** 0.0
2 CA 26.7980003356934 22.3199996948242 5.35300016403198 C 0.0 **** 0.0
3 C 27.2679996490479 21.1280002593994 4.54099988937378 C 0.0 **** 0.0
4 O 26.9829998016357 21.0179996490479 3.34699988365173 O 0.0 **** 0.0
5 CB 25.67799949646 21.8799991607666 6.30700016021729 C 0.0 **** 0.0
6 CG 25.1660003662109 22.9869995117188 7.17899990081787 C 0.0 **** 0.0
7 ND1 24.2280006408691 23.8969993591309 6.74499988555908 N 0.0 **** 0.0
8 CD2 25.4750003814697 23.3369998931885 8.45499992370605 C 0.0 **** 0.0
9 CE1 23.9759998321533 24.757999420166 7.71799993515015 C 0.0 **** 0.0
10 NE2 24.7229995727539 24.4440002441406 8.76299953460693 N 0.0 **** 0.0
@<TRIPOS>BOND
1 1 2 1
2 2 5 1
3 2 3 1
4 3 4 1
5 5 6 1
6 6 8 1
7 6 7 1
8 7 9 1
9 8 10 1
10 9 10 1
@<TRIPOS>MOLECULE
ARG960
11 10
SMALL
USER_CHARGES


@<TRIPOS>ATOM
1 N 27.9990005493164 20.2450008392334 5.21000003814697 N 0.0 **** 0.0
2 CA 28.6560001373291 19.1240005493164 4.50799989700317 C 0.0 **** 0.0
3 C 27.6350002288818 18.2159996032715 3.83800005912781 C 0.0 **** 0.0
4 O 27.9370002746582 17.7140007019043 2.7960000038147 O 0.0 **** 0.0
5 CB 29.6590003967285 18.3910007476807 5.39499998092651 C 0.0 **** 0.0
6 CG 30.7759990692139 19.2950000762939 5.88100004196167 C 0.0 **** 0.0
7 CD 32.1160011291504 18.6340007781982 6.04099988937378 C 0.0 **** 0.0
8 NE 32.6640014648438 18.1760005950928 4.78999996185303 N 0.0 **** 0.0
9 CZ 33.2550010681152 18.9389991760254 3.90899991989136 C 0.0 **** 0.0
10 NH1 33.3899993896484 20.2320003509521 4.13399982452393 N 0.0 **** 0.0
11 NH2 33.726001739502 18.4060001373291 2.80999994277954 N 0.0 **** 0.0
@<TRIPOS>BOND
1 1 2 1
2 2 3 1
3 2 5 1
4 3 4 1
5 5 6 1
6 6 7 1
7 7 8 1
8 8 9 1
9 9 11 1
10 9 10 1
@<TRIPOS>MOLECULE
PRO961
7 7
SMALL
USER_CHARGES


@<TRIPOS>ATOM
1 N 26.4829998016357 17.9139995574951 4.43800020217896 N 0.0 **** 0.0
2 CA 25.4979991912842 17.0590000152588 3.74399995803833 C 0.0 **** 0.0
3 C 25.0209999084473 17.6240005493164 2.42700004577637 C 0.0 **** 0.0
4 O 24.4459991455078 16.875 1.62999999523163 O 0.0 **** 0.0
5 CB 24.3540000915527 16.9529991149902 4.75500011444092 C 0.0 **** 0.0
6 CG 25.0400009155273 17.0839996337891 6.09299993515015 C 0.0 **** 0.0
7 CD 26.1019992828369 18.1429996490479 5.8439998626709 C 0.0 **** 0.0
@<TRIPOS>BOND
1 1 2 1
2 1 7 1
3 2 3 1
4 2 5 1
5 3 4 1
6 5 6 1
7 6 7 1
@<TRIPOS>MOLECULE
ASP962
8 7
SMALL
USER_CHARGES


@<TRIPOS>ATOM
1 N 25.2399997711182 18.9139995574951 2.16300010681152 N 0.0 **** 0.0
2 CA 24.8780002593994 19.4930000305176 0.879000008106232 C 0.0 **** 0.0
3 C 25.7929992675781 19.0359992980957 -0.252000004053116 C 0.0 **** 0.0
4 O 25.4750003814697 19.2759990692139 -1.42200005054474 O 0.0 **** 0.0
5 CB 24.9130001068115 21.0249996185303 0.952000021934509 C 0.0 **** 0.0
6 CG 23.9009990692139 21.5909996032715 1.92200005054474 C 0.0 **** 0.0
7 OD1 22.8640003204346 20.9400005340576 2.12800002098084 O 0.0 **** 0.0
8 OD2 24.136999130249 22.6909999847412 2.47499990463257 O 0.0 **** 0.0
@<TRIPOS>BOND
1 1 2 1
2 2 5 1
3 2 3 1
4 3 4 1
5 5 6 1
6 6 7 1
7 6 8 1
@<TRIPOS>MOLECULE
LEU963
8 7
SMALL
USER_CHARGES


@<TRIPOS>ATOM
1 N 26.9230003356934 18.423999786377 0.0599999986588955 N 0.0 **** 0.0
2 CA 27.8349990844727 17.9519996643066 -0.967000007629395 C 0.0 **** 0.0
3 C 27.3939990997314 16.5820007324219 -1.44900000095367 C 0.0 **** 0.0
4 O 27.0429992675781 15.710000038147 -0.647000014781952 O 0.0 **** 0.0
5 CB 29.261999130249 17.882999420166 -0.432000011205673 C 0.0 **** 0.0
6 CG 29.8439998626709 19.19700050354 0.0750000029802322 C 0.0 **** 0.0
7 CD1 31.1800003051758 18.9009990692139 0.779999971389771 C 0.0 **** 0.0
8 CD2 30.0410003662109 20.2430000305176 -1.02699995040894 C 0.0 **** 0.0
@<TRIPOS>BOND
1 1 2 1
2 2 5 1
3 2 3 1
4 3 4 1
5 5 6 1
6 6 7 1
7 6 8 1
@<TRIPOS>MOLECULE
LYS964
9 8
SMALL
USER_CHARGES


@<TRIPOS>ATOM
1 N 27.4130001068115 16.3959999084473 -2.76500010490417 N 0.0 **** 0.0
2 CA 26.9629993438721 15.1569995880127 -3.39599990844727 C 0.0 **** 0.0
3 C 27.8999996185303 14.8210000991821 -4.54300022125244 C 0.0 **** 0.0
4 O 28.2399997711182 15.6979999542236 -5.33799982070923 O 0.0 **** 0.0
5 CB 25.5240001678467 15.2919998168945 -3.92799997329712 C 0.0 **** 0.0
6 CG 24.4659996032715 15.5480003356934 -2.85999989509583 C 0.0 **** 0.0
7 CD 24.2089996337891 14.3020000457764 -1.99899995326996 C 0.0 **** 0.0
8 CE 23.9130001068115 14.6719999313354 -0.532000005245209 C 0.0 **** 0.0
9 NZ 24.1119995117188 13.5200004577637 0.416999995708466 N 0.0 **** 0.0
@<TRIPOS>BOND
1 1 2 1
2 2 3 1
3 2 5 1
4 3 4 1
5 5 6 1
6 6 7 1
7 7 8 1
8 8 9 1
@<TRIPOS>MOLECULE
ALA965
5 4
SMALL
USER_CHARGES


@<TRIPOS>ATOM
1 N 28.3110008239746 13.5620002746582 -4.63500022888184 N 0.0 **** 0.0
2 CA 29.1100006103516 13.1230001449585 -5.76900005340576 C 0.0 **** 0.0
3 C 28.1989994049072 12.9079999923706 -6.96799993515015 C 0.0 **** 0.0
4 O 27.0540008544922 12.4689998626709 -6.81899976730347 O 0.0 **** 0.0
5 CB 29.8560009002686 11.831000328064 -5.44099998474121 C 0.0 **** 0.0
@<TRIPOS>BOND
1 1 2 1
2 2 3 1
3 2 5 1
4 3 4 1
@<TRIPOS>MOLECULE
ASP966
8 7
SMALL
USER_CHARGES


@<TRIPOS>ATOM
1 N 28.69700050354 13.2239999771118 -8.16199970245361 N 0.0 **** 0.0
2 CA 27.8859996795654 13.0989999771118 -9.36999988555908 C 0.0 **** 0.0
3 C 28.4220008850098 12.0579996109009 -10.3500003814697 C 0.0 **** 0.0
4 O 27.9799995422363 12.0299997329712 -11.5069999694824 O 0.0 **** 0.0
5 CB 27.7630004882813 14.4580001831055 -10.0579996109009 C 0.0 **** 0.0
6 CG 29.0879993438721 14.9860000610352 -10.5469999313354 C 0.0 **** 0.0
7 OD1 30.1089992523193 14.3000001907349 -10.3470001220703 O 0.0 **** 0.0
8 OD2 29.1049995422363 16.0879993438721 -11.1370000839233 O 0.0 **** 0.0
@<TRIPOS>BOND
1 1 2 1
2 2 5 1
3 2 3 1
4 3 4 1
5 5 6 1
6 6 8 1
7 6 7 1
@<TRIPOS>MOLECULE
GLY967
4 3
SMALL
USER_CHARGES


@<TRIPOS>ATOM
1 N 29.3570003509521 11.21399974823 -9.92800045013428 N 0.0 **** 0.0
2 CA 29.923999786377 10.2080001831055 -10.7969999313354 C 0.0 **** 0.0
3 C 31.1049995422363 10.6669998168945 -11.6169996261597 C 0.0 **** 0.0
4 O 31.6959991455078 9.85099983215332 -12.3290004730225 O 0.0 **** 0.0
@<TRIPOS>BOND
1 1 2 1
2 2 3 1
3 3 4 1
@<TRIPOS>MOLECULE
ARG968
11 10
SMALL
USER_CHARGES


@<TRIPOS>ATOM
1 N 31.4850006103516 11.9320001602173 -11.5290002822876 N 0.0 **** 0.0
2 CA 32.6040000915527 12.4540004730225 -12.2919998168945 C 0.0 **** 0.0
3 C 33.814998626709 12.6470003128052 -11.3909997940063 C 0.0 **** 0.0
4 O 33.7599983215332 12.4429998397827 -10.1660003662109 O 0.0 **** 0.0
5 CB 32.2159996032715 13.7670001983643 -12.9610004425049 C 0.0 **** 0.0
6 CG 30.9939994812012 13.6330003738403 -13.8400001525879 C 0.0 **** 0.0
7 CD 30.4720001220703 14.9809999465942 -14.2749996185303 C 0.0 **** 0.0
8 NE 29.4599990844727 14.83899974823 -15.3269996643066 N 0.0 **** 0.0
9 CZ 28.1800003051758 14.5299997329712 -15.1180000305176 C 0.0 **** 0.0
10 NH1 27.7250003814697 14.3240003585815 -13.8870000839233 N 0.0 **** 0.0
11 NH2 27.3460006713867 14.4270000457764 -16.1439990997314 N 0.0 **** 0.0
@<TRIPOS>BOND
1 1 2 1
2 2 5 1
3 2 3 1
4 3 4 1
5 5 6 1
6 6 7 1
7 7 8 1
8 8 9 1
9 9 11 1
10 9 10 1
@<TRIPOS>MOLECULE
THR969
7 6
SMALL
USER_CHARGES


@<TRIPOS>ATOM
1 N 34.9210014343262 13.048999786377 -12.0179996490479 N 0.0 **** 0.0
2 CA 36.0979995727539 13.5419998168945 -11.3129997253418 C 0.0 **** 0.0
3 C 36.3699989318848 14.9700002670288 -11.7629995346069 C 0.0 **** 0.0
4 O 36.4469985961914 15.2510004043579 -12.9659996032715 O 0.0 **** 0.0
5 CB 37.3250007629395 12.6630001068115 -11.5749998092651 C 0.0 **** 0.0
6 OG1 37.0579986572266 11.3360004425049 -11.1319999694824 O 0.0 **** 0.0
7 CG2 38.5410003662109 13.201000213623 -10.83899974823 C 0.0 **** 0.0
@<TRIPOS>BOND
1 1 2 1
2 2 5 1
3 2 3 1
4 3 4 1
5 5 7 1
6 5 6 1
@<TRIPOS>MOLECULE
TYR970
12 12
SMALL
USER_CHARGES


@<TRIPOS>ATOM
1 N 36.4980010986328 15.8769998550415 -10.7969999313354 N 0.0 **** 0.0
2 CA 36.9119987487793 17.238000869751 -11.0740003585815 C 0.0 **** 0.0
3 C 38.3860015869141 17.3610000610352 -10.6940002441406 C 0.0 **** 0.0
4 O 38.7459983825684 17.2560005187988 -9.51200008392334 O 0.0 **** 0.0
5 CB 36.0250015258789 18.2089996337891 -10.3120002746582 C 0.0 **** 0.0
6 CG 34.5940017700195 18.0900001525879 -10.7840003967285 C 0.0 **** 0.0
7 CD1 33.7820014953613 17.0729999542236 -10.3229999542236 C 0.0 **** 0.0
8 CD2 34.0730018615723 18.9780006408691 -11.7150001525879 C 0.0 **** 0.0
9 CE1 32.4819984436035 16.9379997253418 -10.7700004577637 C 0.0 **** 0.0
10 CE2 32.765998840332 18.8659992218018 -12.168999671936 C 0.0 **** 0.0
11 CZ 31.9759998321533 17.8400001525879 -11.6940002441406 C 0.0 **** 0.0
12 OH 30.6809997558594 17.6989994049072 -12.1470003128052 O 0.0 **** 0.0
@<TRIPOS>BOND
1 1 2 1
2 2 5 1
3 2 3 1
4 3 4 1
5 5 6 1
6 6 7 1
7 6 8 1
8 7 9 1
9 8 10 1
10 9 11 1
11 10 11 1
12 11 12 1
@<TRIPOS>MOLECULE
LEU971
8 7
SMALL
USER_CHARGES


@<TRIPOS>ATOM
1 N 39.2369995117188 17.5459995269775 -11.7040004730225 N 0.0 **** 0.0
2 CA 40.685001373291 17.5909996032715 -11.5299997329712 C 0.0 **** 0.0
3 C 41.1660003662109 19.003999710083 -11.8190002441406 C 0.0 **** 0.0
4 O 40.9659996032715 19.5160007476807 -12.9320001602173 O 0.0 **** 0.0
5 CB 41.375 16.5820007324219 -12.4540004730225 C 0.0 **** 0.0
6 CG 42.8740005493164 16.8010005950928 -12.6800003051758 C 0.0 **** 0.0
7 CD1 43.6619987487793 16.5690002441406 -11.3920001983643 C 0.0 **** 0.0
8 CD2 43.3959999084473 15.8889999389648 -13.7419996261597 C 0.0 **** 0.0
@<TRIPOS>BOND
1 1 2 1
2 2 3 1
3 2 5 1
4 3 4 1
5 5 6 1
6 6 8 1
7 6 7 1
@<TRIPOS>MOLECULE
TYR972
12 12
SMALL
USER_CHARGES


@<TRIPOS>ATOM
1 N 41.8289985656738 19.6110000610352 -10.8400001525879 N 0.0 **** 0.0
2 CA 42.3460006713867 20.9710006713867 -10.9440002441406 C 0.0 **** 0.0
3 C 43.8639984130859 20.9039993286133 -10.9630002975464 C 0.0 **** 0.0
4 O 44.4739990234375 20.3229999542236 -10.0520000457764 O 0.0 **** 0.0
5 CB 41.8530006408691 21.8530006408691 -9.79500007629395 C 0.0 **** 0.0
6 CG 40.351001739502 21.8740005493164 -9.80900001525879 C 0.0 **** 0.0
7 CD1 39.6230010986328 20.8780002593994 -9.16600036621094 C 0.0 **** 0.0
8 CD2 39.6440010070801 22.8490009307861 -10.5249996185303 C 0.0 **** 0.0
9 CE1 38.234001159668 20.8589992523193 -9.20400047302246 C 0.0 **** 0.0
10 CE2 38.2389984130859 22.8229999542236 -10.5649995803833 C 0.0 **** 0.0
11 CZ 37.560001373291 21.8139991760254 -9.91800022125244 C 0.0 **** 0.0
12 OH 36.1949996948242 21.7360000610352 -9.99699974060059 O 0.0 **** 0.0
@<TRIPOS>BOND
1 1 2 1
2 2 3 1
3 2 5 1
4 3 4 1
5 5 6 1
6 6 8 1
7 6 7 1
8 7 9 1
9 8 10 1
10 9 11 1
11 10 11 1
12 11 12 1
@<TRIPOS>MOLECULE
VAL973
7 6
SMALL
USER_CHARGES


@<TRIPOS>ATOM
1 N 44.4560012817383 21.4669990539551 -12.0150003433228 N 0.0 **** 0.0
2 CA 45.8940010070801 21.628999710083 -12.1359996795654 C 0.0 **** 0.0
3 C 46.1570014953613 23.1229991912842 -12.2670001983643 C 0.0 **** 0.0
4 O 45.7900009155273 23.7339992523193 -13.2810001373291 O 0.0 **** 0.0
5 CB 46.4339981079102 20.8479995727539 -13.3330001831055 C 0.0 **** 0.0
6 CG1 47.9249992370605 21.0130004882813 -13.4750003814697 C 0.0 **** 0.0
7 CG2 46.0870018005371 19.3729991912842 -13.1540002822876 C 0.0 **** 0.0
@<TRIPOS>BOND
1 1 2 1
2 2 3 1
3 2 5 1
4 3 4 1
5 5 7 1
6 5 6 1
@<TRIPOS>MOLECULE
ASP974
8 7
SMALL
USER_CHARGES


@<TRIPOS>ATOM
1 N 46.7690010070801 23.7189998626709 -11.2449998855591 N 0.0 **** 0.0
2 CA 46.9720001220703 25.1639995574951 -11.1990003585815 C 0.0 **** 0.0
3 C 48.443000793457 25.5189990997314 -11.3590002059937 C 0.0 **** 0.0
4 O 49.3120002746582 25.0219993591309 -10.6239995956421 O 0.0 **** 0.0
5 CB 46.4490013122559 25.7660007476807 -9.90299987792969 C 0.0 **** 0.0
6 CG 44.9720001220703 25.5499992370605 -9.72399997711182 C 0.0 **** 0.0
7 OD1 44.1790008544922 26.0890007019043 -10.5290002822876 O 0.0 **** 0.0
8 OD2 44.6199989318848 24.8269996643066 -8.77200031280518 O 0.0 **** 0.0
@<TRIPOS>BOND
1 1 2 1
2 2 5 1
3 2 3 1
4 3 4 1
5 5 6 1
6 6 7 1
7 6 8 1
@<TRIPOS>MOLECULE
HIS975
10 10
SMALL
USER_CHARGES


@<TRIPOS>ATOM
1 N 48.7029991149902 26.4020004272461 -12.3120002746582 N 0.0 **** 0.0
2 CA 50.0200004577637 26.9740009307861 -12.46399974823 C 0.0 **** 0.0
3 C 50.2630004882813 28.0779991149902 -11.4469995498657 C 0.0 **** 0.0
4 O 51.4049987792969 28.3229999542236 -11.0579996109009 O 0.0 **** 0.0
5 CB 50.1510009765625 27.503999710083 -13.8929996490479 C 0.0 **** 0.0
6 CG 51.4360008239746 28.2049999237061 -14.1450004577637 C 0.0 **** 0.0
7 ND1 52.648998260498 27.55299949646 -14.1000003814697 N 0.0 **** 0.0
8 CD2 51.7000007629395 29.503999710083 -14.423999786377 C 0.0 **** 0.0
9 CE1 53.6119995117188 28.4230003356934 -14.3570003509521 C 0.0 **** 0.0
10 NE2 53.060001373291 29.6110000610352 -14.5579996109009 N 0.0 **** 0.0
@<TRIPOS>BOND
1 1 2 1
2 2 5 1
3 2 3 1
4 3 4 1
5 5 6 1
6 6 7 1
7 6 8 1
8 7 9 1
9 8 10 1
10 9 10 1
@<TRIPOS>MOLECULE
ALA976
5 4
SMALL
USER_CHARGES


@<TRIPOS>ATOM
1 N 49.2000007629395 28.7290000915527 -10.9779996871948 N 0.0 **** 0.0
2 CA 49.3089981079102 29.7800006866455 -9.97500038146973 C 0.0 **** 0.0
3 C 48.0709991455078 29.746000289917 -9.09500026702881 C 0.0 **** 0.0
4 O 46.976001739502 29.4599990844727 -9.58399963378906 O 0.0 **** 0.0
5 CB 49.4360008239746 31.1639995574951 -10.628999710083 C 0.0 **** 0.0
@<TRIPOS>BOND
1 1 2 1
2 2 5 1
3 2 3 1
4 3 4 1
@<TRIPOS>MOLECULE
LEU977
8 7
SMALL
USER_CHARGES


@<TRIPOS>ATOM
1 N 48.2589988708496 30.0599994659424 -7.80600023269653 N 0.0 **** 0.0
2 CA 47.193000793457 30.2049999237061 -6.82200002670288 C 0.0 **** 0.0
3 C 47.4290008544922 31.4759998321533 -6.0460000038147 C 0.0 **** 0.0
4 O 48.5730018615723 31.882999420166 -5.85400009155273 O 0.0 **** 0.0
5 CB 47.1399993896484 29.0739994049072 -5.76200008392334 C 0.0 **** 0.0
6 CG 46.7719993591309 27.6760005950928 -6.19399976730347 C 0.0 **** 0.0
7 CD1 46.7080001831055 26.7240009307861 -5.0019998550415 C 0.0 **** 0.0
8 CD2 45.4280014038086 27.7180004119873 -6.89400005340576 C 0.0 **** 0.0
@<TRIPOS>BOND
1 1 2 1
2 2 5 1
3 2 3 1
4 3 4 1
5 5 6 1
6 6 7 1
7 6 8 1
@<TRIPOS>MOLECULE
ARG978
11 10
SMALL
USER_CHARGES


@<TRIPOS>ATOM
1 N 46.359001159668 32.0870018005371 -5.57600021362305 N 0.0 **** 0.0
2 CA 46.5540008544922 33.1240005493164 -4.57800006866455 C 0.0 **** 0.0
3 C 46.609001159668 32.5009994506836 -3.17499995231628 C 0.0 **** 0.0
4 O 46.2560005187988 31.3409996032715 -2.96700000762939 O 0.0 **** 0.0
5 CB 45.4580001831055 34.1889991760254 -4.63700008392334 C 0.0 **** 0.0
6 CG 44.1500015258789 33.7319984436035 -4.15700006484985 C 0.0 **** 0.0
7 CD 43.0639991760254 34.8230018615723 -4.34499979019165 C 0.0 **** 0.0
8 NE 43.2039985656738 35.9700012207031 -3.46300005912781 N 0.0 **** 0.0
9 CZ 43.7200012207031 37.1440010070801 -3.79800009727478 C 0.0 **** 0.0
10 NH1 44.1629981994629 37.3289985656738 -5.02799987792969 N 0.0 **** 0.0
11 NH2 43.7879981994629 38.1230010986328 -2.88499999046326 N 0.0 **** 0.0
@<TRIPOS>BOND
1 1 2 1
2 2 3 1
3 2 5 1
4 3 4 1
5 5 6 1
6 6 7 1
7 7 8 1
8 8 9 1
9 9 11 1
10 9 10 1
@<TRIPOS>MOLECULE
GLY979
4 3
SMALL
USER_CHARGES


@<TRIPOS>ATOM
1 N 47.0369987487793 33.3219985961914 -2.21700000762939 N 0.0 **** 0.0
2 CA 47.0690002441406 32.9440002441406 -0.806999981403351 C 0.0 **** 0.0
3 C 45.673999786377 32.9609985351563 -0.217999994754791 C 0.0 **** 0.0
4 O 44.6949996948242 33.3629989624023 -0.850000023841858 O 0.0 **** 0.0
@<TRIPOS>BOND
1 1 2 1
2 2 3 1
3 3 4 1
@<TRIPOS>MOLECULE
VAL980
7 6
SMALL
USER_CHARGES


@<TRIPOS>ATOM
1 N 45.5449981689453 32.4669990539551 1.00999999046326 N 0.0 **** 0.0
2 CA 44.242000579834 32.4640007019043 1.65299999713898 C 0.0 **** 0.0
3 C 44.1230010986328 33.5219993591309 2.75399994850159 C 0.0 **** 0.0
4 O 42.9900016784668 33.931999206543 3.06299996376038 O 0.0 **** 0.0
5 CB 43.8580017089844 31.0629997253418 2.18099999427795 C 0.0 **** 0.0
6 CG1 43.773998260498 30.0839996337891 1.05499994754791 C 0.0 **** 0.0
7 CG2 44.8269996643066 30.5450000762939 3.2409999370575 C 0.0 **** 0.0
@<TRIPOS>BOND
1 1 2 1
2 2 5 1
3 2 3 1
4 3 4 1
5 5 6 1
6 5 7 1
@<TRIPOS>MOLECULE
GLY981
4 3
SMALL
USER_CHARGES


@<TRIPOS>ATOM
1 N 45.2470016479492 34.0279998779297 3.30200004577637 N 0.0 **** 0.0
2 CA 45.2220001220703 35.1679992675781 4.23199987411499 C 0.0 **** 0.0
3 C 44.435001373291 34.8610000610352 5.51300001144409 C 0.0 **** 0.0
4 O 44.2809982299805 33.7019996643066 5.90999984741211 O 0.0 **** 0.0
@<TRIPOS>BOND
1 1 2 1
2 2 3 1
3 3 4 1
@<TRIPOS>MOLECULE
THR982
7 6
SMALL
USER_CHARGES


@<TRIPOS>ATOM
1 N 43.9469985961914 35.9259986877441 6.16699981689453 N 0.0 **** 0.0
2 CA 43.0769996643066 35.8209991455078 7.35300016403198 C 0.0 **** 0.0
3 C 42.0069999694824 36.9129981994629 7.33799982070923 C 0.0 **** 0.0
4 O 41.6160011291504 37.4309997558594 8.38899993896484 O 0.0 **** 0.0
5 CB 43.8610000610352 35.8800010681152 8.67000007629395 C 0.0 **** 0.0
6 OG1 44.7099990844727 37.0359992980957 8.73400020599365 O 0.0 **** 0.0
7 CG2 44.7109985351563 34.6679992675781 8.84200000762939 C 0.0 **** 0.0
@<TRIPOS>BOND
1 1 2 1
2 2 5 1
3 2 3 1
4 3 4 1
5 5 6 1
6 5 7 1
@<TRIPOS>MOLECULE
ALA983
5 4
SMALL
USER_CHARGES


@<TRIPOS>ATOM
1 N 41.4679985046387 37.2290000915527 6.14799976348877 N 0.0 **** 0.0
2 CA 40.601001739502 38.3979988098145 6.03200006484985 C 0.0 **** 0.0
3 C 39.2949981689453 38.2360000610352 6.79400014877319 C 0.0 **** 0.0
4 O 38.6230010986328 39.2319984436035 7.01700019836426 O 0.0 **** 0.0
5 CB 40.2830009460449 38.7459983825684 4.57600021362305 C 0.0 **** 0.0
@<TRIPOS>BOND
1 1 2 1
2 2 3 1
3 2 5 1
4 3 4 1
@<TRIPOS>MOLECULE
ALA984
5 4
SMALL
USER_CHARGES


@<TRIPOS>ATOM
1 N 38.9129981994629 37.0369987487793 7.21299982070923 N 0.0 **** 0.0
2 CA 37.6959991455078 36.9589996337891 8.01500034332275 C 0.0 **** 0.0
3 C 37.8190002441406 37.8219985961914 9.26500034332275 C 0.0 **** 0.0
4 O 36.8209991455078 38.3479995727539 9.75699996948242 O 0.0 **** 0.0
5 CB 37.3849983215332 35.5099983215332 8.38799953460693 C 0.0 **** 0.0
@<TRIPOS>BOND
1 1 2 1
2 2 3 1
3 2 5 1
4 3 4 1
@<TRIPOS>MOLECULE
CYS985
6 5
SMALL
USER_CHARGES


@<TRIPOS>ATOM
1 N 39.0369987487793 37.984001159668 9.79500007629395 N 0.0 **** 0.0
2 CA 39.2369995117188 38.8810005187988 10.9289999008179 C 0.0 **** 0.0
3 C 40.7410011291504 39.1300010681152 11.0200004577637 C 0.0 **** 0.0
4 O 41.4879989624023 38.2550010681152 11.4689998626709 O 0.0 **** 0.0
5 CB 38.6749992370605 38.2750015258789 12.1929998397827 C 0.0 **** 0.0
6 SG 38.9379997253418 39.265998840332 13.6850004196167 S 0.0 **** 0.0
@<TRIPOS>BOND
1 1 2 1
2 2 3 1
3 2 5 1
4 3 4 1
5 5 6 1
@<TRIPOS>MOLECULE
GLY986
4 3
SMALL
USER_CHARGES


@<TRIPOS>ATOM
1 N 41.1640014648438 40.2999992370605 10.5600004196167 N 0.0 **** 0.0
2 CA 42.5709991455078 40.6199989318848 10.5129995346069 C 0.0 **** 0.0
3 C 43.0859985351563 40.75 9.09000015258789 C 0.0 **** 0.0
4 O 42.3209991455078 40.935001373291 8.12600040435791 O 0.0 **** 0.0
@<TRIPOS>BOND
1 1 2 1
2 2 3 1
3 3 4 1
@<TRIPOS>MOLECULE
PRO987
7 7
SMALL
USER_CHARGES


@<TRIPOS>ATOM
1 N 44.3969993591309 40.617000579834 8.92099952697754 N 0.0 **** 0.0
2 CA 44.9900016784668 40.8530006408691 7.59700012207031 C 0.0 **** 0.0
3 C 44.4640007019043 39.9080009460449 6.52699995040894 C 0.0 **** 0.0
4 O 44.2690010070801 38.7070007324219 6.7480001449585 O 0.0 **** 0.0
5 CB 46.4860000610352 40.6440010070801 7.83699989318848 C 0.0 **** 0.0
6 CG 46.6839981079102 40.8860015869141 9.31599998474121 C 0.0 **** 0.0
7 CD 45.4000015258789 40.4749984741211 9.99699974060059 C 0.0 **** 0.0
@<TRIPOS>BOND
1 1 2 1
2 1 7 1
3 2 5 1
4 2 3 1
5 3 4 1
6 5 6 1
7 6 7 1
@<TRIPOS>MOLECULE
GLY988
4 3
SMALL
USER_CHARGES


@<TRIPOS>ATOM
1 N 44.2220001220703 40.4749984741211 5.34000015258789 N 0.0 **** 0.0
2 CA 44.0019989013672 39.689998626709 4.14599990844727 C 0.0 **** 0.0
3 C 45.3089981079102 39.0950012207031 3.63599991798401 C 0.0 **** 0.0
4 O 46.3269996643066 39.0779991149902 4.32600021362305 O 0.0 **** 0.0
@<TRIPOS>BOND
1 1 2 1
2 2 3 1
3 3 4 1
@<TRIPOS>MOLECULE
VAL989
7 6
SMALL
USER_CHARGES


@<TRIPOS>ATOM
1 N 45.2709999084473 38.6180000305176 2.39299988746643 N 0.0 **** 0.0
2 CA 46.4449996948242 38.0270004272461 1.74500000476837 C 0.0 **** 0.0
3 C 47.5419998168945 39.0670013427734 1.62600004673004 C 0.0 **** 0.0
4 O 47.306999206543 40.181999206543 1.15799999237061 O 0.0 **** 0.0
5 CB 46.0579986572266 37.4809989929199 0.363999992609024 C 0.0 **** 0.0
6 CG1 47.2509994506836 36.8470001220703 -0.330000013113022 C 0.0 **** 0.0
7 CG2 44.9620018005371 36.4650001525879 0.493000000715256 C 0.0 **** 0.0
@<TRIPOS>BOND
1 1 2 1
2 2 5 1
3 2 3 1
4 3 4 1
5 5 7 1
6 5 6 1
@<TRIPOS>MOLECULE
LEU990
8 7
SMALL
USER_CHARGES


@<TRIPOS>ATOM
1 N 48.7379989624023 38.7169990539551 2.07500004768372 N 0.0 **** 0.0
2 CA 49.8680000305176 39.6150016784668 1.94500005245209 C 0.0 **** 0.0
3 C 50.201000213623 39.8030014038086 0.465000003576279 C 0.0 **** 0.0
4 O 49.935001373291 38.9389991760254 -0.374000012874603 O 0.0 **** 0.0
5 CB 51.0950012207031 39.0620002746582 2.68099999427795 C 0.0 **** 0.0
6 CG 50.9770011901855 38.9690017700195 4.2039999961853 C 0.0 **** 0.0
7 CD1 52.1150016784668 38.1860008239746 4.80399990081787 C 0.0 **** 0.0
8 CD2 50.9379997253418 40.3470001220703 4.84200000762939 C 0.0 **** 0.0
@<TRIPOS>BOND
1 1 2 1
2 2 3 1
3 2 5 1
4 3 4 1
5 5 6 1
6 6 8 1
7 6 7 1
@<TRIPOS>MOLECULE
GLU991
9 8
SMALL
USER_CHARGES


@<TRIPOS>ATOM
1 N 50.8349990844727 40.9339981079102 0.174999997019768 N 0.0 **** 0.0
2 CA 51.0610008239746 41.3540000915527 -1.20700001716614 C 0.0 **** 0.0
3 C 51.7379989624023 40.2690010070801 -2.04299998283386 C 0.0 **** 0.0
4 O 51.3559989929199 40.0270004272461 -3.20600008964539 O 0.0 **** 0.0
5 CB 51.8950004577637 42.6430015563965 -1.20000004768372 C 0.0 **** 0.0
6 CG 52.0699996948242 43.2939987182617 -2.58299994468689 C 0.0 **** 0.0
7 CD 50.7589988708496 43.7840003967285 -3.16700005531311 C 0.0 **** 0.0
8 OE1 49.8730010986328 44.2109985351563 -2.39199995994568 O 0.0 **** 0.0
9 OE2 50.6059989929199 43.7200012207031 -4.40700006484985 O 0.0 **** 0.0
@<TRIPOS>BOND
1 1 2 1
2 2 5 1
3 2 3 1
4 3 4 1
5 5 6 1
6 6 7 1
7 7 9 1
8 7 8 1
@<TRIPOS>MOLECULE
GLN992
15 21
SMALL
USER_CHARGES


@<TRIPOS>ATOM
1 N 52.7490005493164 39.6310005187988 -1.47399997711182 N 0.0 **** 0.0
2 CA 53.5200004577637 38.6360015869141 -2.21099996566772 C 0.0 **** 0.0
3 CA 53.5400009155273 38.5839996337891 -2.13100004196167 C 0.0 **** 0.0
4 C 52.693000793457 37.4230003356934 -2.61700010299683 C 0.0 **** 0.0
5 O 53.132999420166 36.6609992980957 -3.48399996757507 O 0.0 **** 0.0
6 CB 54.7249984741211 38.1790008544922 -1.37800002098084 C 0.0 **** 0.0
7 CB 54.6049995422363 38.0279998779297 -1.1599999666214 C 0.0 **** 0.0
8 CG 54.4129981994629 37.6749992370605 0.0529999993741512 C 0.0 **** 0.0
9 CG 55.0110015869141 36.5540008544922 -1.42599999904633 C 0.0 **** 0.0
10 CD 54.5670013427734 38.7669982910156 1.14100003242493 C 0.0 **** 0.0
11 CD 56.0579986572266 35.9939994812012 -0.48199999332428 C 0.0 **** 0.0
12 OE1 54.148998260498 39.9259986877441 0.953999996185303 O 0.0 **** 0.0
13 OE1 56.4070014953613 36.5960006713867 0.531000018119812 O 0.0 **** 0.0
14 NE2 55.181999206543 38.3930015563965 2.27900004386902 N 0.0 **** 0.0
15 NE2 56.560001373291 34.818000793457 -0.814999997615814 N 0.0 **** 0.0
@<TRIPOS>BOND
1 1 2 1
2 1 3 1
3 2 3 1
4 2 6 1
5 2 7 1
6 2 4 1
7 3 6 1
8 3 7 1
9 3 4 1
10 4 5 1
11 6 7 1
12 6 9 1
13 6 8 1
14 7 9 1
15 7 8 1
16 8 10 1
17 9 11 1
18 10 12 1
19 10 14 1
20 11 15 1
21 11 13 1
@<TRIPOS>MOLECULE
TYR993
12 12
SMALL
USER_CHARGES


@<TRIPOS>ATOM
1 N 51.515998840332 37.2249984741211 -2.03200006484985 N 0.0 **** 0.0
2 CA 50.6980018615723 36.0719985961914 -2.34699988365173 C 0.0 **** 0.0
3 C 49.423999786377 36.4370002746582 -3.08800005912781 C 0.0 **** 0.0
4 O 48.6020011901855 35.5559997558594 -3.35199999809265 O 0.0 **** 0.0
5 CB 50.3450012207031 35.3230018615723 -1.06900000572205 C 0.0 **** 0.0
6 CG 51.484001159668 34.9280014038086 -0.151999995112419 C 0.0 **** 0.0
7 CD1 52.3580017089844 33.9020004272461 -0.483000010251999 C 0.0 **** 0.0
8 CD2 51.6240005493164 35.5169982910156 1.0900000333786 C 0.0 **** 0.0
9 CE1 53.3730010986328 33.5200004577637 0.370999991893768 C 0.0 **** 0.0
10 CE2 52.632999420166 35.1300010681152 1.942999958992 C 0.0 **** 0.0
11 CZ 53.4980010986328 34.1440010070801 1.59099996089935 C 0.0 **** 0.0
12 OH 54.4739990234375 33.7599983215332 2.49200010299683 O 0.0 **** 0.0
@<TRIPOS>BOND
1 1 2 1
2 2 5 1
3 2 3 1
4 3 4 1
5 5 6 1
6 6 7 1
7 6 8 1
8 7 9 1
9 8 10 1
10 9 11 1
11 10 11 1
12 11 12 1
@<TRIPOS>MOLECULE
ARG994
11 10
SMALL
USER_CHARGES


@<TRIPOS>ATOM
1 N 49.2430000305176 37.7000007629395 -3.41899991035461 N 0.0 **** 0.0
2 CA 48.0690002441406 38.1339988708496 -4.21000003814697 C 0.0 **** 0.0
3 C 48.2879981994629 37.6879997253418 -5.65100002288818 C 0.0 **** 0.0
4 O 49.4119987487793 37.4560012817383 -6.03200006484985 O 0.0 **** 0.0
5 CB 47.8219985961914 39.6300010681152 -4.07200002670288 C 0.0 **** 0.0
6 CG 47.5530014038086 40.0499992370605 -2.64000010490417 C 0.0 **** 0.0
7 CD 47.0629997253418 41.4650001525879 -2.4909999370575 C 0.0 **** 0.0
8 NE 45.6300010681152 41.5639991760254 -2.70600008964539 N 0.0 **** 0.0
9 CZ 44.6959991455078 41.4199981689453 -1.77600002288818 C 0.0 **** 0.0
10 NH1 43.4269981384277 41.5419998168945 -2.10800004005432 N 0.0 **** 0.0
11 NH2 45.0099983215332 41.1749992370605 -0.521000027656555 N 0.0 **** 0.0
@<TRIPOS>BOND
1 1 2 1
2 2 5 1
3 2 3 1
4 3 4 1
5 5 6 1
6 6 7 1
7 7 8 1
8 8 9 1
9 9 10 1
10 9 11 1
@<TRIPOS>MOLECULE
LEU995
8 7
SMALL
USER_CHARGES


@<TRIPOS>ATOM
1 N 47.2210006713867 37.515998840332 -6.40700006484985 N 0.0 **** 0.0
2 CA 47.306999206543 37.0559997558594 -7.7960000038147 C 0.0 **** 0.0
3 C 46.5320014953613 38.0540008544922 -8.64700031280518 C 0.0 **** 0.0
4 O 45.306999206543 37.9609985351563 -8.77700042724609 O 0.0 **** 0.0
5 CB 46.7750015258789 35.6279983520508 -7.96299982070923 C 0.0 **** 0.0
6 CG 46.890998840332 35.0120010375977 -9.35599994659424 C 0.0 **** 0.0
7 CD1 48.3429985046387 35.015998840332 -9.86100006103516 C 0.0 **** 0.0
8 CD2 46.3419990539551 33.5740013122559 -9.33699989318848 C 0.0 **** 0.0
@<TRIPOS>BOND
1 1 2 1
2 2 3 1
3 2 5 1
4 3 4 1
5 5 6 1
6 6 8 1
7 6 7 1
@<TRIPOS>MOLECULE
LYS996
9 8
SMALL
USER_CHARGES


@<TRIPOS>ATOM
1 N 47.2319984436035 38.9959983825684 -9.18400001525879 N 0.0 **** 0.0
2 CA 46.6940002441406 39.9830017089844 -10.1000003814697 C 0.0 **** 0.0
3 C 46.7229995727539 39.4420013427734 -11.5319995880127 C 0.0 **** 0.0
4 O 47.5789985656738 38.6279983520508 -11.8699998855591 O 0.0 **** 0.0
5 CB 47.5 41.2760009765625 -10.0100002288818 C 0.0 **** 0.0
6 CG 47.3289985656738 42.0130004882813 -8.67800045013428 C 0.0 **** 0.0
7 CD 48.0550003051758 43.3559989929199 -8.66399955749512 C 0.0 **** 0.0
8 CE 47.6370010375977 44.2099990844727 -7.43900012969971 C 0.0 **** 0.0
9 NZ 47.9129981994629 43.5270004272461 -6.13500022888184 N 0.0 **** 0.0
@<TRIPOS>BOND
1 1 2 1
2 2 3 1
3 2 5 1
4 3 4 1
5 5 6 1
6 6 7 1
7 7 8 1
8 8 9 1
@<TRIPOS>MOLECULE
PRO997
7 7
SMALL
USER_CHARGES


@<TRIPOS>ATOM
1 N 45.7649993896484 39.8370018005371 -12.3690004348755 N 0.0 **** 0.0
2 CA 45.7550010681152 39.375 -13.7609996795654 C 0.0 **** 0.0
3 C 47.0940017700195 39.5800018310547 -14.4540004730225 C 0.0 **** 0.0
4 O 47.7400016784668 40.6259994506836 -14.3100004196167 O 0.0 **** 0.0
5 CB 44.6619987487793 40.2229995727539 -14.3990001678467 C 0.0 **** 0.0
6 CG 43.7330017089844 40.5299987792969 -13.2559995651245 C 0.0 **** 0.0
7 CD 44.6319999694824 40.7280006408691 -12.0749998092651 C 0.0 **** 0.0
@<TRIPOS>BOND
1 1 2 1
2 1 7 1
3 2 3 1
4 2 5 1
5 3 4 1
6 5 6 1
7 6 7 1
@<TRIPOS>MOLECULE
ARG998
11 10
SMALL
USER_CHARGES


@<TRIPOS>ATOM
1 N 47.5270004272461 38.548999786377 -15.1750001907349 N 0.0 **** 0.0
2 CA 48.7900009155273 38.5849990844727 -15.8889999389648 C 0.0 **** 0.0
3 C 48.7270011901855 37.5970001220703 -17.0450000762939 C 0.0 **** 0.0
4 O 47.8559989929199 36.7239990234375 -17.0970001220703 O 0.0 **** 0.0
5 CB 49.9640007019043 38.2509994506836 -14.9799995422363 C 0.0 **** 0.0
6 CG 49.9729995727539 36.8359985351563 -14.418999671936 C 0.0 **** 0.0
7 CD 51.4199981689453 36.4459991455078 -14.08899974823 C 0.0 **** 0.0
8 NE 51.5429992675781 35.1419982910156 -13.4499998092651 N 0.0 **** 0.0
9 CZ 51.3889999389648 34.9300003051758 -12.1479997634888 C 0.0 **** 0.0
10 NH1 51.0970001220703 35.931999206543 -11.3240003585815 N 0.0 **** 0.0
11 NH2 51.5299987792969 33.7050018310547 -11.6639995574951 N 0.0 **** 0.0
@<TRIPOS>BOND
1 1 2 1
2 2 5 1
3 2 3 1
4 3 4 1
5 5 6 1
6 6 7 1
7 7 8 1
8 8 9 1
9 9 10 1
10 9 11 1
@<TRIPOS>MOLECULE
ASP999
8 7
SMALL
USER_CHARGES


@<TRIPOS>ATOM
1 N 49.6679992675781 37.742000579834 -17.9629993438721 N 0.0 **** 0.0
2 CA 49.8470001220703 36.7529983520508 -19.0149993896484 C 0.0 **** 0.0
3 C 50.7220001220703 35.6209983825684 -18.4839992523193 C 0.0 **** 0.0
4 O 51.5320014953613 35.8139991760254 -17.5699996948242 O 0.0 **** 0.0
5 CB 50.435001373291 37.423999786377 -20.2649993896484 C 0.0 **** 0.0
6 CG 49.6669998168945 38.6800003051758 -20.6630001068115 C 0.0 **** 0.0
7 OD1 48.4410018920898 38.7330017089844 -20.4529991149902 O 0.0 **** 0.0
8 OD2 50.2700004577637 39.6279983520508 -21.2019996643066 O 0.0 **** 0.0
@<TRIPOS>BOND
1 1 2 1
2 2 3 1
3 2 5 1
4 3 4 1
5 5 6 1
6 6 7 1
7 6 8 1
@<TRIPOS>MOLECULE
ALA1000
5 4
SMALL
USER_CHARGES


@<TRIPOS>ATOM
1 N 50.4879989624023 34.4039993286133 -18.9720001220703 N 0.0 **** 0.0
2 CA 51.1559982299805 33.25 -18.3819999694824 C 0.0 **** 0.0
3 C 51.2109985351563 32.1310005187988 -19.3980007171631 C 0.0 **** 0.0
4 O 50.4220008850098 32.0909996032715 -20.3349990844727 O 0.0 **** 0.0
5 CB 50.4459991455078 32.7560005187988 -17.1019992828369 C 0.0 **** 0.0
@<TRIPOS>BOND
1 1 2 1
2 2 5 1
3 2 3 1
4 3 4 1
@<TRIPOS>MOLECULE
ASP1001
4 3
SMALL
USER_CHARGES


@<TRIPOS>ATOM
1 N 52.1529998779297 31.2119998931885 -19.2070007324219 N 0.0 **** 0.0
2 CA 52.2299995422363 30.0599994659424 -20.0849990844727 C 0.0 **** 0.0
3 C 52.765998840332 28.9169998168945 -19.2509994506836 C 0.0 **** 0.0
4 O 53.5950012207031 29.136999130249 -18.3600006103516 O 0.0 **** 0.0
@<TRIPOS>BOND
1 1 2 1
2 2 3 1
3 3 4 1
@<TRIPOS>MOLECULE
PHE1002
11 11
SMALL
USER_CHARGES


@<TRIPOS>ATOM
1 N 52.2869987487793 27.7049999237061 -19.5170001983643 N 0.0 **** 0.0
2 CA 52.806999206543 26.5890007019043 -18.7399997711182 C 0.0 **** 0.0
3 C 52.5820007324219 25.2900009155273 -19.4869995117188 C 0.0 **** 0.0
4 O 51.6360015869141 25.1439990997314 -20.2830009460449 O 0.0 **** 0.0
5 CB 52.1940002441406 26.503999710083 -17.3330001831055 C 0.0 **** 0.0
6 CG 50.7000007629395 26.4139995574951 -17.3209991455078 C 0.0 **** 0.0
7 CD1 49.9220008850098 27.5550003051758 -17.4179992675781 C 0.0 **** 0.0
8 CD2 50.0699996948242 25.1919994354248 -17.1760005950928 C 0.0 **** 0.0
9 CE1 48.5340003967285 27.4759998321533 -17.3939990997314 C 0.0 **** 0.0
10 CE2 48.693000793457 25.1019992828369 -17.1469993591309 C 0.0 **** 0.0
11 CZ 47.9249992370605 26.2369995117188 -17.2630004882813 C 0.0 **** 0.0
@<TRIPOS>BOND
1 1 2 1
2 2 5 1
3 2 3 1
4 3 4 1
5 5 6 1
6 6 7 1
7 6 8 1
8 7 9 1
9 8 10 1
10 9 11 1
11 10 11 1
@<TRIPOS>MOLECULE
ILE1003
8 7
SMALL
USER_CHARGES


@<TRIPOS>ATOM
1 N 53.4889984130859 24.3570003509521 -19.2140007019043 N 0.0 **** 0.0
2 CA 53.5670013427734 23.0769996643066 -19.8929996490479 C 0.0 **** 0.0
3 C 53.2589988708496 21.9729995727539 -18.8899993896484 C 0.0 **** 0.0
4 O 53.6980018615723 22.0109996795654 -17.7259998321533 O 0.0 **** 0.0
5 CB 54.9539985656738 22.8689994812012 -20.5340003967285 C 0.0 **** 0.0
6 CG1 55.1790008544922 23.9300003051758 -21.6380004882813 C 0.0 **** 0.0
7 CG2 55.0859985351563 21.4449996948242 -21.1040000915527 C 0.0 **** 0.0
8 CD1 56.5820007324219 23.8570003509521 -22.3360004425049 C 0.0 **** 0.0
@<TRIPOS>BOND
1 1 2 1
2 2 5 1
3 2 3 1
4 3 4 1
5 5 7 1
6 5 6 1
7 6 8 1
@<TRIPOS>MOLECULE
LEU1004
8 7
SMALL
USER_CHARGES


@<TRIPOS>ATOM
1 N 52.4910011291504 20.9950008392334 -19.3530006408691 N 0.0 **** 0.0
2 CA 52.2299995422363 19.7639999389648 -18.6299991607666 C 0.0 **** 0.0
3 C 52.4420013427734 18.5949993133545 -19.5779991149902 C 0.0 **** 0.0
4 O 52.318000793457 18.7390003204346 -20.7950000762939 O 0.0 **** 0.0
5 CB 50.8050003051758 19.7199993133545 -18.1019992828369 C 0.0 **** 0.0
6 CG 50.3720016479492 20.8560009002686 -17.2059993743896 C 0.0 **** 0.0
7 CD1 48.8680000305176 20.7810001373291 -17.0919990539551 C 0.0 **** 0.0
8 CD2 51.048999786377 20.742000579834 -15.8360004425049 C 0.0 **** 0.0
@<TRIPOS>BOND
1 1 2 1
2 2 5 1
3 2 3 1
4 3 4 1
5 5 6 1
6 6 7 1
7 6 8 1
@<TRIPOS>MOLECULE
THR1005
7 6
SMALL
USER_CHARGES


@<TRIPOS>ATOM
1 N 52.7569999694824 17.4300003051758 -19.0149993896484 N 0.0 **** 0.0
2 CA 52.7099990844727 16.1879997253418 -19.7719993591309 C 0.0 **** 0.0
3 C 51.7039985656738 15.2519998550415 -19.117000579834 C 0.0 **** 0.0
4 O 51.5219993591309 15.2700004577637 -17.8999996185303 O 0.0 **** 0.0
5 CB 54.0900001525879 15.5050001144409 -19.8610000610352 C 0.0 **** 0.0
6 OG1 54.443000793457 14.9700002670288 -18.5799999237061 O 0.0 **** 0.0
7 CG2 55.1549987792969 16.4990005493164 -20.2880001068115 C 0.0 **** 0.0
@<TRIPOS>BOND
1 1 2 1
2 2 5 1
3 2 3 1
4 3 4 1
5 5 7 1
6 5 6 1
@<TRIPOS>MOLECULE
LEU1006
8 7
SMALL
USER_CHARGES


@<TRIPOS>ATOM
1 N 51.0429992675781 14.4490003585815 -19.9340000152588 N 0.0 **** 0.0
2 CA 49.9990005493164 13.539999961853 -19.5 C 0.0 **** 0.0
3 C 50.257999420166 12.1660003662109 -20.0930004119873 C 0.0 **** 0.0
4 O 50.7639999389648 12.0530004501343 -21.2159996032715 O 0.0 **** 0.0
5 CB 48.6290016174316 14.0229997634888 -19.9619998931885 C 0.0 **** 0.0
6 CG 48.2709999084473 15.4630002975464 -19.5949993133545 C 0.0 **** 0.0
7 CD1 47.0909996032715 15.9720001220703 -20.3999996185303 C 0.0 **** 0.0
8 CD2 47.9609985351563 15.4940004348755 -18.1299991607666 C 0.0 **** 0.0
@<TRIPOS>BOND
1 1 2 1
2 2 5 1
3 2 3 1
4 3 4 1
5 5 6 1
6 6 7 1
7 6 8 1
@<TRIPOS>MOLECULE
LYS1007
9 8
SMALL
USER_CHARGES


@<TRIPOS>ATOM
1 N 49.8639984130859 11.1160001754761 -19.375 N 0.0 **** 0.0
2 CA 49.8919982910156 9.79100036621094 -19.9890003204346 C 0.0 **** 0.0
3 C 49.0229988098145 8.84899997711182 -19.1730003356934 C 0.0 **** 0.0
4 O 48.8720016479492 9.01799964904785 -17.9640007019043 O 0.0 **** 0.0
5 CB 51.3190002441406 9.24699974060059 -20.117000579834 C 0.0 **** 0.0
6 CG 51.8269996643066 8.46199989318848 -18.9200000762939 C 0.0 **** 0.0
7 CD 53.2490005493164 7.91499996185303 -19.1509990692139 C 0.0 **** 0.0
8 CE 53.3230018615723 6.93499994277954 -20.3369998931885 C 0.0 **** 0.0
9 NZ 52.5369987487793 5.67199993133545 -20.1429996490479 N 0.0 **** 0.0
@<TRIPOS>BOND
1 1 2 1
2 2 3 1
3 2 5 1
4 3 4 1
5 5 6 1
6 6 7 1
7 7 8 1
8 8 9 1
@<TRIPOS>MOLECULE
VAL1008
7 6
SMALL
USER_CHARGES


@<TRIPOS>ATOM
1 N 48.4480018615723 7.85699987411499 -19.8479995727539 N 0.0 **** 0.0
2 CA 47.5149993896484 6.93300008773804 -19.2140007019043 C 0.0 **** 0.0
3 C 48.1100006103516 5.53700017929077 -19.2280006408691 C 0.0 **** 0.0
4 O 48.568000793457 5.06799983978271 -20.2730007171631 O 0.0 **** 0.0
5 CB 46.1389999389648 6.92899990081787 -19.9050006866455 C 0.0 **** 0.0
6 CG1 45.2430000305176 5.85599994659424 -19.2940006256104 C 0.0 **** 0.0
7 CG2 45.4749984741211 8.27400016784668 -19.7940006256104 C 0.0 **** 0.0
@<TRIPOS>BOND
1 1 2 1
2 2 5 1
3 2 3 1
4 3 4 1
5 5 6 1
6 5 7 1
@<TRIPOS>MOLECULE
ARG1009
11 10
SMALL
USER_CHARGES


@<TRIPOS>ATOM
1 N 48.0499992370605 4.86899995803833 -18.0799999237061 N 0.0 **** 0.0
2 CA 48.548999786377 3.51799988746643 -17.8840007781982 C 0.0 **** 0.0
3 C 47.3860015869141 2.58699989318848 -17.5799999237061 C 0.0 **** 0.0
4 O 46.4580001831055 2.95199990272522 -16.8530006408691 O 0.0 **** 0.0
5 CB 49.564998626709 3.46199989318848 -16.7280006408691 C 0.0 **** 0.0
6 CG 49.7869987487793 2.05800008773804 -16.17799949646 C 0.0 **** 0.0
7 CD 50.818000793457 2.01900005340576 -15.0699996948242 C 0.0 **** 0.0
8 NE 50.3839988708496 2.76900005340576 -13.8870000839233 N 0.0 **** 0.0
9 CZ 51.068000793457 3.75799989700317 -13.3149995803833 C 0.0 **** 0.0
10 NH1 52.25 4.13800001144409 -13.7930002212524 N 0.0 **** 0.0
11 NH2 50.576000213623 4.36600017547607 -12.2410001754761 N 0.0 **** 0.0
@<TRIPOS>BOND
1 1 2 1
2 2 3 1
3 2 5 1
4 3 4 1
5 5 6 1
6 6 7 1
7 7 8 1
8 8 9 1
9 9 10 1
10 9 11 1
@<TRIPOS>MOLECULE
SER1010
7 6
SMALL
USER_CHARGES


@<TRIPOS>ATOM
1 N 47.4389991760254 1.38699996471405 -18.1469993591309 N 0.0 **** 0.0
2 CA 46.5629997253418 0.296999990940094 -17.7290000915527 C 0.0 **** 0.0
3 C 47.3969993591309 -0.777999997138977 -17.0429992675781 C 0.0 **** 0.0
4 O 47.6749992370605 -0.704999983310699 -15.8439998626709 O 0.0 **** 0.0
5 CB 45.810001373291 -0.291999995708466 -18.9179992675781 C 0.0 **** 0.0
6 OG 44.8359985351563 0.616999983787537 -19.3969993591309 O 0.0 **** 0.0
7 OXT 47.8289985656738 -1.73500001430511 -17.6809997558594 O 0.0 **** 0.0
@<TRIPOS>BOND
1 1 2 1
2 2 3 1
3 2 5 1
4 3 7 1
5 3 4 1
6 5 6 1
@<TRIPOS>MOLECULE
GLC1
11 11
SMALL
USER_CHARGES


@<TRIPOS>ATOM
1 C1 37.9480018615723 49.2120018005371 21.7880001068115 C 0.0 **** 0.0
2 C2 37.9609985351563 47.8050003051758 22.3990001678467 C 0.0 **** 0.0
3 C3 39.1669998168945 47.007999420166 21.8850002288818 C 0.0 **** 0.0
4 C4 39.109001159668 46.9739990234375 20.3610000610352 C 0.0 **** 0.0
5 C5 39.0480003356934 48.4059982299805 19.8279991149902 C 0.0 **** 0.0
6 C6 38.9070014953613 48.4550018310547 18.2970008850098 C 0.0 **** 0.0
7 O2 38.0019989013672 47.8499984741211 23.8209991455078 O 0.0 **** 0.0
8 O3 39.1310005187988 45.673999786377 22.3719997406006 O 0.0 **** 0.0
9 O4 40.2470016479492 46.3089981079102 19.8390007019043 O 0.0 **** 0.0
10 O5 37.9329986572266 49.0950012207031 20.3680000305176 O 0.0 **** 0.0
11 O6 37.7599983215332 47.7200012207031 17.8980007171631 O 0.0 **** 0.0
@<TRIPOS>BOND
1 1 2 1
2 1 10 1
3 2 3 1
4 2 7 1
5 3 4 1
6 3 8 1
7 4 5 1
8 4 9 1
9 5 6 1
10 5 10 1
11 6 11 1
@<TRIPOS>MOLECULE
FRU2
12 12
SMALL
USER_CHARGES


@<TRIPOS>ATOM
1 C1 38.0120010375977 51.7709999084473 23.3390007019043 C 0.0 **** 0.0
2 C2 39.0029983520508 51.3320007324219 22.2639999389648 C 0.0 **** 0.0
3 C3 40.3629989624023 52.0019989013672 22.5279998779297 C 0.0 **** 0.0
4 C4 40.9729995727539 52.064998626709 21.1340007781982 C 0.0 **** 0.0
5 C5 39.7599983215332 52.451000213623 20.3320007324219 C 0.0 **** 0.0
6 C6 39.8520011901855 52.0449981689453 18.8460006713867 C 0.0 **** 0.0
7 O1 37.8380012512207 53.1559982299805 23.1840000152588 O 0.0 **** 0.0
8 O2 39.0849990844727 49.9140014648438 22.2059993743896 O 0.0 **** 0.0
9 O3 41.2319984436035 51.3759994506836 23.4190006256104 O 0.0 **** 0.0
10 O4 41.9980010986328 53.015998840332 21.0639991760254 O 0.0 **** 0.0
11 O5 38.6479988098145 51.8619995117188 20.9939994812012 O 0.0 **** 0.0
12 O6 38.5699996948242 52.2060012817383 18.2469997406006 O 0.0 **** 0.0
@<TRIPOS>BOND
1 1 2 1
2 1 7 1
3 3 2 1
4 3 4 1
5 3 9 1
6 4 5 1
7 4 10 1
8 5 6 1
9 5 11 1
10 6 12 1
11 8 2 1
12 11 2 1
@<TRIPOS>MOLECULE
GLC1
11 11
SMALL
USER_CHARGES


@<TRIPOS>ATOM
1 C1 50.3769989013672 9.39000034332275 20.8059997558594 C 0.0 **** 0.0
2 C2 51.7070007324219 9.8769998550415 20.2259998321533 C 0.0 **** 0.0
3 C3 51.560001373291 11.1040000915527 19.3339996337891 C 0.0 **** 0.0
4 C4 50.4869995117188 10.7519998550415 18.3579998016357 C 0.0 **** 0.0
5 C5 49.193000793457 10.6269998550415 19.0900001525879 C 0.0 **** 0.0
6 C6 48.0890007019043 10.4580001831055 18.0540008544922 C 0.0 **** 0.0
7 O2 52.5940017700195 10.085000038147 21.3010005950928 O 0.0 **** 0.0
8 O3 52.6980018615723 11.3940000534058 18.5450000762939 O 0.0 **** 0.0
9 O4 50.2869987487793 11.746000289917 17.3570003509521 O 0.0 **** 0.0
10 O5 49.2610015869141 9.50899982452393 19.9379997253418 O 0.0 **** 0.0
11 O6 48.3699989318848 11.2419996261597 16.8920001983643 O 0.0 **** 0.0
@<TRIPOS>BOND
1 1 2 1
2 1 10 1
3 2 3 1
4 2 7 1
5 3 4 1
6 3 8 1
7 4 5 1
8 4 9 1
9 5 6 1
10 5 10 1
11 6 11 1
@<TRIPOS>MOLECULE
FRU2
12 12
SMALL
USER_CHARGES


@<TRIPOS>ATOM
1 C1 48.2949981689453 8.34000015258789 22.1849994659424 C 0.0 **** 0.0
2 C2 48.9080009460449 9.63300037384033 22.7040004730225 C 0.0 **** 0.0
3 C3 49.3240013122559 9.5290002822876 24.1639995574951 C 0.0 **** 0.0
4 C4 49.0439987182617 10.914999961853 24.6599998474121 C 0.0 **** 0.0
5 C5 47.6389999389648 10.9300003051758 24.05299949646 C 0.0 **** 0.0
6 C6 46.7509994506836 12.1350002288818 24.1410007476807 C 0.0 **** 0.0
7 O1 47.4109992980957 8.61100006103516 21.0849990844727 O 0.0 **** 0.0
8 O2 50.060001373291 10.0649995803833 21.9969997406006 O 0.0 **** 0.0
9 O3 50.6699981689453 9.17599964141846 24.3990001678467 O 0.0 **** 0.0
10 O4 49.2980003356934 10.9779996871948 26.0669994354248 O 0.0 **** 0.0
11 O5 47.9059982299805 10.6359996795654 22.6900005340576 O 0.0 **** 0.0
12 O6 45.3959999084473 11.6709995269775 24.0060005187988 O 0.0 **** 0.0
@<TRIPOS>BOND
1 1 2 1
2 1 7 1
3 3 2 1
4 3 4 1
5 3 9 1
6 4 5 1
7 4 10 1
8 5 6 1
9 5 11 1
10 6 12 1
11 8 2 1
12 11 2 1
@<TRIPOS>MOLECULE
GLC1
11 11
SMALL
USER_CHARGES


@<TRIPOS>ATOM
1 C1 53.2190017700195 60.984001159668 13.1009998321533 C 0.0 **** 0.0
2 C2 54.2150001525879 60.0870018005371 13.835000038147 C 0.0 **** 0.0
3 C3 53.7029991149902 60.0509986877441 15.2930002212524 C 0.0 **** 0.0
4 C4 53.5870018005371 61.4900016784668 15.835000038147 C 0.0 **** 0.0
5 C5 53.2900009155273 62.6259994506836 14.8369998931885 C 0.0 **** 0.0
6 C6 54.0190010070801 63.9609985351563 15.0979995727539 C 0.0 **** 0.0
7 O2 54.3730010986328 58.814998626709 13.1990003585815 O 0.0 **** 0.0
8 O3 54.5009994506836 59.2900009155273 16.1900005340576 O 0.0 **** 0.0
9 O4 52.4869995117188 61.5219993591309 16.7229995727539 O 0.0 **** 0.0
10 O5 53.5400009155273 62.3040008544922 13.4820003509521 O 0.0 **** 0.0
11 O6 54.0419998168945 64.3320007324219 16.4729995727539 O 0.0 **** 0.0
@<TRIPOS>BOND
1 1 2 1
2 1 10 1
3 2 3 1
4 2 7 1
5 3 4 1
6 3 8 1
7 4 5 1
8 4 9 1
9 5 6 1
10 5 10 1
11 6 11 1
@<TRIPOS>MOLECULE
FRU2
12 12
SMALL
USER_CHARGES


@<TRIPOS>ATOM
1 C1 51.3059997558594 59.398998260498 11.3629999160767 C 0.0 **** 0.0
2 C2 50.9290008544922 60.5309982299805 12.3380002975464 C 0.0 **** 0.0
3 C3 49.4580001831055 60.2169990539551 12.6639995574951 C 0.0 **** 0.0
4 C4 48.8600006103516 61.5419998168945 13.0860004425049 C 0.0 **** 0.0
5 C5 49.693000793457 62.5660018920898 12.3190002441406 C 0.0 **** 0.0
6 C6 50.0890007019043 63.7560005187988 13.1960000991821 C 0.0 **** 0.0
7 O1 50.8190002441406 58.1650009155273 11.8529996871948 O 0.0 **** 0.0
8 O2 51.8619995117188 60.6230010986328 13.4250001907349 O 0.0 **** 0.0
9 O3 49.257999420166 59.1839981079102 13.6059999465942 O 0.0 **** 0.0
10 O4 47.4910011291504 61.6279983520508 12.7629995346069 O 0.0 **** 0.0
11 O5 50.8349990844727 61.8569984436035 11.8149995803833 O 0.0 **** 0.0
12 O6 49.007999420166 64.2730026245117 13.9460000991821 O 0.0 **** 0.0
@<TRIPOS>BOND
1 1 2 1
2 1 7 1
3 3 2 1
4 3 4 1
5 3 9 1
6 4 5 1
7 4 10 1
8 5 6 1
9 5 11 1
10 6 12 1
11 8 2 1
12 11 2 1
@<TRIPOS>MOLECULE
ACT1104
4 3
SMALL
USER_CHARGES


@<TRIPOS>ATOM
1 C 34.5940017700195 38.867000579834 49.1230010986328 C 0.0 **** 0.0
2 O 34.1459999084473 37.8689994812012 48.5229988098145 O 0.0 **** 0.0
3 OXT 35.75 39.0470008850098 49.5999984741211 O 0.0 **** 0.0
4 CH3 33.5709991455078 40.0929985046387 49.3160018920898 C 0.0 **** 0.0
@<TRIPOS>BOND
1 1 2 1
2 1 3 1
3 1 4 1
@<TRIPOS>MOLECULE
ACT1105
4 3
SMALL
USER_CHARGES


@<TRIPOS>ATOM
1 C 29.8449993133545 12.7740001678467 24.1940002441406 C 0.0 **** 0.0
2 O 30.7210006713867 12.7049999237061 23.3390007019043 O 0.0 **** 0.0
3 OXT 28.7479991912842 13.2770004272461 24.0009994506836 O 0.0 **** 0.0
4 CH3 30.121000289917 12.1870002746582 25.57200050354 C 0.0 **** 0.0
@<TRIPOS>BOND
1 1 2 1
2 1 3 1
3 1 4 1
@<TRIPOS>MOLECULE
ACT1106
4 3
SMALL
USER_CHARGES


@<TRIPOS>ATOM
1 C 32.3849983215332 20.1200008392334 60.7179985046387 C 0.0 **** 0.0
2 O 31.3999996185303 19.9349994659424 59.9570007324219 O 0.0 **** 0.0
3 OXT 33.3600006103516 19.3390007019043 60.9329986572266 O 0.0 **** 0.0
4 CH3 32.4179992675781 21.496000289917 61.5169982910156 C 0.0 **** 0.0
@<TRIPOS>BOND
1 1 2 1
2 1 3 1
3 1 4 1
@<TRIPOS>MOLECULE
ACT1107
4 3
SMALL
USER_CHARGES


@<TRIPOS>ATOM
1 C 44.8380012512207 43.9290008544922 -15.8739995956421 C 0.0 **** 0.0
2 O 43.9389991760254 43.7080001831055 -16.7089996337891 O 0.0 **** 0.0
3 OXT 45.984001159668 43.4410018920898 -15.9399995803833 O 0.0 **** 0.0
4 CH3 44.5169982910156 44.8549995422363 -14.6979999542236 C 0.0 **** 0.0
@<TRIPOS>BOND
1 1 2 1
2 1 3 1
3 1 4 1
@<TRIPOS>MOLECULE
ACT1108
4 3
SMALL
USER_CHARGES


@<TRIPOS>ATOM
1 C 50.1259994506836 19.4440002441406 62.0180015563965 C 0.0 **** 0.0
2 O 49.8709983825684 18.7320003509521 61.0 O 0.0 **** 0.0
3 OXT 51.1720008850098 19.4440002441406 62.7229995727539 O 0.0 **** 0.0
4 CH3 48.9819984436035 20.4580001831055 62.4599990844727 C 0.0 **** 0.0
@<TRIPOS>BOND
1 1 2 1
2 1 3 1
3 1 4 1
@<TRIPOS>MOLECULE
NA1109
1 0
SMALL
USER_CHARGES


@<TRIPOS>ATOM
1 NA 34.2760009765625 33.548999786377 16.4589996337891 Na 0.0 **** 0.0
@<TRIPOS>BOND
@<TRIPOS>MOLECULE
NA1110
1 0
SMALL
USER_CHARGES


@<TRIPOS>ATOM
1 NA 60.7509994506836 37.7770004272461 20.875 Na 0.0 **** 0.0
@<TRIPOS>BOND
@<TRIPOS>MOLECULE
NA1111
1 0
SMALL
USER_CHARGES


@<TRIPOS>ATOM
1 NA 72.8259963989258 11.1960000991821 22.1520004272461 Na 0.0 **** 0.0
@<TRIPOS>BOND
@<TRIPOS>MOLECULE
MLI1112
7 6
SMALL
USER_CHARGES


@<TRIPOS>ATOM
1 C1 51.4939994812012 31.9080009460449 -7.31699991226196 C 0.0 **** 0.0
2 C2 52.0369987487793 30.5599994659424 -6.84100008010864 C 0.0 **** 0.0
3 C3 52.2859992980957 32.4339981079102 -8.51399993896484 C 0.0 **** 0.0
4 O6 51.3230018615723 29.5209999084473 -6.92600011825562 O 0.0 **** 0.0
5 O7 53.1990013122559 30.4969997406006 -6.3439998626709 O 0.0 **** 0.0
6 O8 51.9360008239746 33.5229988098145 -9.05599975585938 O 0.0 **** 0.0
7 O9 53.2849998474121 31.7900009155273 -8.95300006866455 O 0.0 **** 0.0
@<TRIPOS>BOND
1 1 2 1
2 1 3 1
3 2 4 1
4 2 5 1
5 3 6 1
6 3 7 1
@<TRIPOS>MOLECULE
HOH1201
1 0
SMALL
USER_CHARGES


@<TRIPOS>ATOM
1 O 15.3649997711182 47.3720016479492 37.3800010681152 O 0.0 **** 0.0
@<TRIPOS>BOND
@<TRIPOS>MOLECULE
HOH1202
1 0
SMALL
USER_CHARGES


@<TRIPOS>ATOM
1 O 29.1520004272461 36.023998260498 -1.24500000476837 O 0.0 **** 0.0
@<TRIPOS>BOND
@<TRIPOS>MOLECULE
HOH1203
1 0
SMALL
USER_CHARGES


@<TRIPOS>ATOM
1 O 75.7880020141602 27.2950000762939 13.3489999771118 O 0.0 **** 0.0
@<TRIPOS>BOND
@<TRIPOS>MOLECULE
HOH1204
1 0
SMALL
USER_CHARGES


@<TRIPOS>ATOM
1 O 44.076000213623 53.8769989013672 38.8860015869141 O 0.0 **** 0.0
@<TRIPOS>BOND
@<TRIPOS>MOLECULE
HOH1205
1 0
SMALL
USER_CHARGES


@<TRIPOS>ATOM
1 O 47.5999984741211 10.5410003662109 -34.6100006103516 O 0.0 **** 0.0
@<TRIPOS>BOND
@<TRIPOS>MOLECULE
HOH1206
1 0
SMALL
USER_CHARGES


@<TRIPOS>ATOM
1 O 38.0800018310547 39.2509994506836 21.0830001831055 O 0.0 **** 0.0
@<TRIPOS>BOND
@<TRIPOS>MOLECULE
HOH1207
1 0
SMALL
USER_CHARGES


@<TRIPOS>ATOM
1 O 42.7130012512207 38.7140007019043 0.611000001430511 O 0.0 **** 0.0
@<TRIPOS>BOND
@<TRIPOS>MOLECULE
HOH1208
1 0
SMALL
USER_CHARGES


@<TRIPOS>ATOM
1 O 59.8269996643066 30.451000213623 16.4610004425049 O 0.0 **** 0.0
@<TRIPOS>BOND
@<TRIPOS>MOLECULE
HOH1209
1 0
SMALL
USER_CHARGES


@<TRIPOS>ATOM
1 O 34.3889999389648 19.6040000915527 63.0950012207031 O 0.0 **** 0.0
@<TRIPOS>BOND
@<TRIPOS>MOLECULE
HOH1210
1 0
SMALL
USER_CHARGES


@<TRIPOS>ATOM
1 O 43.318000793457 32.4119987487793 -28.4379997253418 O 0.0 **** 0.0
@<TRIPOS>BOND
@<TRIPOS>MOLECULE
HOH1211
1 0
SMALL
USER_CHARGES


@<TRIPOS>ATOM
1 O 60.3569984436035 50.1479988098145 22.9869995117188 O 0.0 **** 0.0
@<TRIPOS>BOND
@<TRIPOS>MOLECULE
HOH1212
1 0
SMALL
USER_CHARGES


@<TRIPOS>ATOM
1 O 61.8440017700195 28.9729995727539 18.6000003814697 O 0.0 **** 0.0
@<TRIPOS>BOND
@<TRIPOS>MOLECULE
HOH1213
1 0
SMALL
USER_CHARGES


@<TRIPOS>ATOM
1 O 36.7060012817383 25.0179996490479 -22.0330009460449 O 0.0 **** 0.0
@<TRIPOS>BOND
@<TRIPOS>MOLECULE
HOH1214
1 0
SMALL
USER_CHARGES


@<TRIPOS>ATOM
1 O 36.8800010681152 54.576000213623 21.4230003356934 O 0.0 **** 0.0
@<TRIPOS>BOND
@<TRIPOS>MOLECULE
HOH1215
1 0
SMALL
USER_CHARGES


@<TRIPOS>ATOM
1 O 64.3679962158203 17.1410007476807 44.0830001831055 O 0.0 **** 0.0
@<TRIPOS>BOND
@<TRIPOS>MOLECULE
HOH1216
1 0
SMALL
USER_CHARGES


@<TRIPOS>ATOM
1 O 39.6279983520508 51.6549987792969 43.1129989624023 O 0.0 **** 0.0
@<TRIPOS>BOND
@<TRIPOS>MOLECULE
HOH1217
1 0
SMALL
USER_CHARGES


@<TRIPOS>ATOM
1 O 31.6660003662109 32.5690002441406 6.63600015640259 O 0.0 **** 0.0
@<TRIPOS>BOND
@<TRIPOS>MOLECULE
HOH1218
1 0
SMALL
USER_CHARGES


@<TRIPOS>ATOM
1 O 56.1059989929199 18.0069999694824 -27.3640003204346 O 0.0 **** 0.0
@<TRIPOS>BOND
@<TRIPOS>MOLECULE
HOH1219
1 0
SMALL
USER_CHARGES


@<TRIPOS>ATOM
1 O 57.2210006713867 35.7849998474121 49.3339996337891 O 0.0 **** 0.0
@<TRIPOS>BOND
@<TRIPOS>MOLECULE
HOH1220
1 0
SMALL
USER_CHARGES


@<TRIPOS>ATOM
1 O 36.2809982299805 49.3639984130859 44.3139991760254 O 0.0 **** 0.0
@<TRIPOS>BOND
@<TRIPOS>MOLECULE
HOH1221
1 0
SMALL
USER_CHARGES


@<TRIPOS>ATOM
1 O 45.9160003662109 49.5379981994629 -14.1890001296997 O 0.0 **** 0.0
@<TRIPOS>BOND
@<TRIPOS>MOLECULE
HOH1222
1 0
SMALL
USER_CHARGES


@<TRIPOS>ATOM
1 O 54.8009986877441 16.5839996337891 13.1230001449585 O 0.0 **** 0.0
@<TRIPOS>BOND
@<TRIPOS>MOLECULE
HOH1223
1 0
SMALL
USER_CHARGES


@<TRIPOS>ATOM
1 O 67.6139984130859 42.5559997558594 29.1410007476807 O 0.0 **** 0.0
@<TRIPOS>BOND
@<TRIPOS>MOLECULE
HOH1224
1 0
SMALL
USER_CHARGES


@<TRIPOS>ATOM
1 O 57.6889991760254 16.6790008544922 45.5299987792969 O 0.0 **** 0.0
@<TRIPOS>BOND
@<TRIPOS>MOLECULE
HOH1225
1 0
SMALL
USER_CHARGES


@<TRIPOS>ATOM
1 O 30.0590000152588 26.746000289917 0.377999991178513 O 0.0 **** 0.0
@<TRIPOS>BOND
@<TRIPOS>MOLECULE
HOH1226
1 0
SMALL
USER_CHARGES


@<TRIPOS>ATOM
1 O 53.2859992980957 10.9829998016357 -8.99699974060059 O 0.0 **** 0.0
@<TRIPOS>BOND
@<TRIPOS>MOLECULE
HOH1227
1 0
SMALL
USER_CHARGES


@<TRIPOS>ATOM
1 O 58.5950012207031 6.1399998664856 -1.86699998378754 O 0.0 **** 0.0
@<TRIPOS>BOND
@<TRIPOS>MOLECULE
HOH1228
1 0
SMALL
USER_CHARGES


@<TRIPOS>ATOM
1 O 53.0960006713867 30.2119998931885 -10.8850002288818 O 0.0 **** 0.0
@<TRIPOS>BOND
@<TRIPOS>MOLECULE
HOH1229
1 0
SMALL
USER_CHARGES


@<TRIPOS>ATOM
1 O 26.3199996948242 46.492000579834 19.2530002593994 O 0.0 **** 0.0
@<TRIPOS>BOND
@<TRIPOS>MOLECULE
HOH1230
1 0
SMALL
USER_CHARGES


@<TRIPOS>ATOM
1 O 39.2719993591309 41.7150001525879 7.22300004959106 O 0.0 **** 0.0
@<TRIPOS>BOND
@<TRIPOS>MOLECULE
HOH1231
1 0
SMALL
USER_CHARGES


@<TRIPOS>ATOM
1 O 33.0550003051758 23.1040000915527 -14.923999786377 O 0.0 **** 0.0
@<TRIPOS>BOND
@<TRIPOS>MOLECULE
HOH1232
1 0
SMALL
USER_CHARGES


@<TRIPOS>ATOM
1 O 70.8840026855469 27.1350002288818 44.507999420166 O 0.0 **** 0.0
@<TRIPOS>BOND
@<TRIPOS>MOLECULE
HOH1233
1 0
SMALL
USER_CHARGES


@<TRIPOS>ATOM
1 O 34.1940002441406 12.8140001296997 -29.4209995269775 O 0.0 **** 0.0
@<TRIPOS>BOND
@<TRIPOS>MOLECULE
HOH1234
1 0
SMALL
USER_CHARGES


@<TRIPOS>ATOM
1 O 70.7959976196289 2.84699988365173 10.2480001449585 O 0.0 **** 0.0
@<TRIPOS>BOND
@<TRIPOS>MOLECULE
HOH1235
1 0
SMALL
USER_CHARGES


@<TRIPOS>ATOM
1 O 18.0970001220703 41.734001159668 44.1160011291504 O 0.0 **** 0.0
@<TRIPOS>BOND
@<TRIPOS>MOLECULE
HOH1236
1 0
SMALL
USER_CHARGES


@<TRIPOS>ATOM
1 O 28.2759990692139 28.8349990844727 30.6350002288818 O 0.0 **** 0.0
@<TRIPOS>BOND
@<TRIPOS>MOLECULE
HOH1237
1 0
SMALL
USER_CHARGES


@<TRIPOS>ATOM
1 O 4.68100023269653 42.2299995422363 40.2529983520508 O 0.0 **** 0.0
@<TRIPOS>BOND
@<TRIPOS>MOLECULE
HOH1238
1 0
SMALL
USER_CHARGES


@<TRIPOS>ATOM
1 O 63.4749984741211 20.1149997711182 36.701000213623 O 0.0 **** 0.0
@<TRIPOS>BOND
@<TRIPOS>MOLECULE
HOH1239
1 0
SMALL
USER_CHARGES


@<TRIPOS>ATOM
1 O 36.0139999389648 51.1699981689453 19.6280002593994 O 0.0 **** 0.0
@<TRIPOS>BOND
@<TRIPOS>MOLECULE
HOH1240
1 0
SMALL
USER_CHARGES


@<TRIPOS>ATOM
1 O 49.5690002441406 26.5769996643066 -26.6459999084473 O 0.0 **** 0.0
@<TRIPOS>BOND
@<TRIPOS>MOLECULE
HOH1241
1 0
SMALL
USER_CHARGES


@<TRIPOS>ATOM
1 O 42.185001373291 14.66100025177 18.1889991760254 O 0.0 **** 0.0
@<TRIPOS>BOND
@<TRIPOS>MOLECULE
HOH1242
1 0
SMALL
USER_CHARGES


@<TRIPOS>ATOM
1 O 38.3409996032715 43.5260009765625 -7.67399978637695 O 0.0 **** 0.0
@<TRIPOS>BOND
@<TRIPOS>MOLECULE
HOH1243
1 0
SMALL
USER_CHARGES


@<TRIPOS>ATOM
1 O 59.3530006408691 36.3359985351563 42.7799987792969 O 0.0 **** 0.0
@<TRIPOS>BOND
@<TRIPOS>MOLECULE
HOH1244
1 0
SMALL
USER_CHARGES


@<TRIPOS>ATOM
1 O 79.1009979248047 10.1040000915527 20.0540008544922 O 0.0 **** 0.0
@<TRIPOS>BOND
@<TRIPOS>MOLECULE
HOH1245
1 0
SMALL
USER_CHARGES


@<TRIPOS>ATOM
1 O 39.4420013427734 45.8979988098145 -4.98600006103516 O 0.0 **** 0.0
@<TRIPOS>BOND
@<TRIPOS>MOLECULE
HOH1246
1 0
SMALL
USER_CHARGES


@<TRIPOS>ATOM
1 O 35.4519996643066 45.3110008239746 17.5240001678467 O 0.0 **** 0.0
@<TRIPOS>BOND
@<TRIPOS>MOLECULE
HOH1247
1 0
SMALL
USER_CHARGES


@<TRIPOS>ATOM
1 O 49.6559982299805 32.318000793457 59.0419998168945 O 0.0 **** 0.0
@<TRIPOS>BOND
@<TRIPOS>MOLECULE
HOH1248
1 0
SMALL
USER_CHARGES


@<TRIPOS>ATOM
1 O 43.4799995422363 44.4119987487793 46.7050018310547 O 0.0 **** 0.0
@<TRIPOS>BOND
@<TRIPOS>MOLECULE
HOH1249
1 0
SMALL
USER_CHARGES


@<TRIPOS>ATOM
1 O 48.7249984741211 16.0450000762939 34.3219985961914 O 0.0 **** 0.0
@<TRIPOS>BOND
@<TRIPOS>MOLECULE
HOH1250
1 0
SMALL
USER_CHARGES


@<TRIPOS>ATOM
1 O 57.1759986877441 60.3279991149902 25.988000869751 O 0.0 **** 0.0
@<TRIPOS>BOND
@<TRIPOS>MOLECULE
HOH1251
1 0
SMALL
USER_CHARGES


@<TRIPOS>ATOM
1 O 33.4959983825684 48.8979988098145 -3.68300008773804 O 0.0 **** 0.0
@<TRIPOS>BOND
@<TRIPOS>MOLECULE
HOH1252
1 0
SMALL
USER_CHARGES


@<TRIPOS>ATOM
1 O 61.6269989013672 43.7000007629395 10.628999710083 O 0.0 **** 0.0
@<TRIPOS>BOND
@<TRIPOS>MOLECULE
HOH1253
1 0
SMALL
USER_CHARGES


@<TRIPOS>ATOM
1 O 31.9740009307861 39.6870002746582 21.0599994659424 O 0.0 **** 0.0
@<TRIPOS>BOND
@<TRIPOS>MOLECULE
HOH1254
1 0
SMALL
USER_CHARGES


@<TRIPOS>ATOM
1 O 58.9020004272461 11.6269998550415 -27.4820003509521 O 0.0 **** 0.0
@<TRIPOS>BOND
@<TRIPOS>MOLECULE
HOH1255
1 0
SMALL
USER_CHARGES


@<TRIPOS>ATOM
1 O 26.7350006103516 16.4750003814697 33.939998626709 O 0.0 **** 0.0
@<TRIPOS>BOND
@<TRIPOS>MOLECULE
HOH1256
1 0
SMALL
USER_CHARGES


@<TRIPOS>ATOM
1 O 54.8110008239746 18.632999420166 36.0859985351563 O 0.0 **** 0.0
@<TRIPOS>BOND
@<TRIPOS>MOLECULE
HOH1257
1 0
SMALL
USER_CHARGES


@<TRIPOS>ATOM
1 O 39.2239990234375 18.1770000457764 61.6759986877441 O 0.0 **** 0.0
@<TRIPOS>BOND
@<TRIPOS>MOLECULE
HOH1258
1 0
SMALL
USER_CHARGES


@<TRIPOS>ATOM
1 O 47.7039985656738 46.681999206543 12.3280000686646 O 0.0 **** 0.0
@<TRIPOS>BOND
@<TRIPOS>MOLECULE
HOH1259
1 0
SMALL
USER_CHARGES


@<TRIPOS>ATOM
1 O 67.2770004272461 23.0739994049072 48.2970008850098 O 0.0 **** 0.0
@<TRIPOS>BOND
@<TRIPOS>MOLECULE
HOH1260
1 0
SMALL
USER_CHARGES


@<TRIPOS>ATOM
1 O 26.4220008850098 36.3819999694824 35.673999786377 O 0.0 **** 0.0
@<TRIPOS>BOND
@<TRIPOS>MOLECULE
HOH1261
1 0
SMALL
USER_CHARGES


@<TRIPOS>ATOM
1 O 79.9560012817383 11.6549997329712 8.38500022888184 O 0.0 **** 0.0
@<TRIPOS>BOND
@<TRIPOS>MOLECULE
HOH1262
1 0
SMALL
USER_CHARGES


@<TRIPOS>ATOM
1 O 50.3819999694824 25.7700004577637 44.4490013122559 O 0.0 **** 0.0
@<TRIPOS>BOND
@<TRIPOS>MOLECULE
HOH1263
1 0
SMALL
USER_CHARGES


@<TRIPOS>ATOM
1 O 39.9090003967285 39.0229988098145 48.5349998474121 O 0.0 **** 0.0
@<TRIPOS>BOND
@<TRIPOS>MOLECULE
HOH1264
1 0
SMALL
USER_CHARGES


@<TRIPOS>ATOM
1 O 39.7970008850098 27.8419990539551 -22.6049995422363 O 0.0 **** 0.0
@<TRIPOS>BOND
@<TRIPOS>MOLECULE
HOH1265
1 0
SMALL
USER_CHARGES


@<TRIPOS>ATOM
1 O 47.3790016174316 23.6609992980957 5.31799983978271 O 0.0 **** 0.0
@<TRIPOS>BOND
@<TRIPOS>MOLECULE
HOH1266
1 0
SMALL
USER_CHARGES


@<TRIPOS>ATOM
1 O 22.6459999084473 23.4330005645752 4.47100019454956 O 0.0 **** 0.0
@<TRIPOS>BOND
@<TRIPOS>MOLECULE
HOH1267
1 0
SMALL
USER_CHARGES


@<TRIPOS>ATOM
1 O 36.007999420166 36.560001373291 18.6490001678467 O 0.0 **** 0.0
@<TRIPOS>BOND
@<TRIPOS>MOLECULE
HOH1268
1 0
SMALL
USER_CHARGES


@<TRIPOS>ATOM
1 O 21.6909999847412 41.4169998168945 38.1189994812012 O 0.0 **** 0.0
@<TRIPOS>BOND
@<TRIPOS>MOLECULE
HOH1269
1 0
SMALL
USER_CHARGES


@<TRIPOS>ATOM
1 O 72.7539978027344 21.1070003509521 28.3360004425049 O 0.0 **** 0.0
@<TRIPOS>BOND
@<TRIPOS>MOLECULE
HOH1270
1 0
SMALL
USER_CHARGES


@<TRIPOS>ATOM
1 O 26.3719997406006 29.5849990844727 6.04099988937378 O 0.0 **** 0.0
@<TRIPOS>BOND
@<TRIPOS>MOLECULE
HOH1271
1 0
SMALL
USER_CHARGES


@<TRIPOS>ATOM
1 O 28.0230007171631 37.3289985656738 22.0060005187988 O 0.0 **** 0.0
@<TRIPOS>BOND
@<TRIPOS>MOLECULE
HOH1272
1 0
SMALL
USER_CHARGES


@<TRIPOS>ATOM
1 O 31.6989994049072 36.9780006408691 48.4690017700195 O 0.0 **** 0.0
@<TRIPOS>BOND
@<TRIPOS>MOLECULE
HOH1273
1 0
SMALL
USER_CHARGES


@<TRIPOS>ATOM
1 O 38.0209999084473 44.0009994506836 0.679000020027161 O 0.0 **** 0.0
@<TRIPOS>BOND
@<TRIPOS>MOLECULE
HOH1274
1 0
SMALL
USER_CHARGES


@<TRIPOS>ATOM
1 O 39.0839996337891 28.0610008239746 21.55299949646 O 0.0 **** 0.0
@<TRIPOS>BOND
@<TRIPOS>MOLECULE
HOH1275
1 0
SMALL
USER_CHARGES


@<TRIPOS>ATOM
1 O 37.9309997558594 27.5160007476807 -20.992000579834 O 0.0 **** 0.0
@<TRIPOS>BOND
@<TRIPOS>MOLECULE
HOH1276
1 0
SMALL
USER_CHARGES


@<TRIPOS>ATOM
1 O 23.6490001678467 52.3849983215332 35.1139984130859 O 0.0 **** 0.0
@<TRIPOS>BOND
@<TRIPOS>MOLECULE
HOH1277
1 0
SMALL
USER_CHARGES


@<TRIPOS>ATOM
1 O 37.306999206543 36.9519996643066 20.9899997711182 O 0.0 **** 0.0
@<TRIPOS>BOND
@<TRIPOS>MOLECULE
HOH1278
1 0
SMALL
USER_CHARGES


@<TRIPOS>ATOM
1 O 26.1609992980957 26.6940002441406 30.1650009155273 O 0.0 **** 0.0
@<TRIPOS>BOND
@<TRIPOS>MOLECULE
HOH1279
1 0
SMALL
USER_CHARGES


@<TRIPOS>ATOM
1 O 38.0379981994629 22.7859992980957 31.3379993438721 O 0.0 **** 0.0
@<TRIPOS>BOND
@<TRIPOS>MOLECULE
HOH1280
1 0
SMALL
USER_CHARGES


@<TRIPOS>ATOM
1 O 50.3489990234375 20.0380001068115 0.0489999987185001 O 0.0 **** 0.0
@<TRIPOS>BOND
@<TRIPOS>MOLECULE
HOH1281
1 0
SMALL
USER_CHARGES


@<TRIPOS>ATOM
1 O 55.3680000305176 30.2140007019043 54.8629989624023 O 0.0 **** 0.0
@<TRIPOS>BOND
@<TRIPOS>MOLECULE
HOH1282
1 0
SMALL
USER_CHARGES


@<TRIPOS>ATOM
1 O 49.5589981079102 42.3429985046387 39.4389991760254 O 0.0 **** 0.0
@<TRIPOS>BOND
@<TRIPOS>MOLECULE
HOH1283
1 0
SMALL
USER_CHARGES


@<TRIPOS>ATOM
1 O 51.4339981079102 32.3110008239746 43.4169998168945 O 0.0 **** 0.0
@<TRIPOS>BOND
@<TRIPOS>MOLECULE
HOH1284
1 0
SMALL
USER_CHARGES


@<TRIPOS>ATOM
1 O 64.9160003662109 19.7560005187988 43.4669990539551 O 0.0 **** 0.0
@<TRIPOS>BOND
@<TRIPOS>MOLECULE
HOH1285
1 0
SMALL
USER_CHARGES


@<TRIPOS>ATOM
1 O 62.5 31.4459991455078 22.3050003051758 O 0.0 **** 0.0
@<TRIPOS>BOND
@<TRIPOS>MOLECULE
HOH1286
1 0
SMALL
USER_CHARGES


@<TRIPOS>ATOM
1 O 19.6749992370605 52.1370010375977 29.3409996032715 O 0.0 **** 0.0
@<TRIPOS>BOND
@<TRIPOS>MOLECULE
HOH1287
1 0
SMALL
USER_CHARGES


@<TRIPOS>ATOM
1 O 45.9070014953613 47.5279998779297 24.1499996185303 O 0.0 **** 0.0
@<TRIPOS>BOND
@<TRIPOS>MOLECULE
HOH1288
1 0
SMALL
USER_CHARGES


@<TRIPOS>ATOM
1 O 15.1309995651245 37.117000579834 24.548999786377 O 0.0 **** 0.0
@<TRIPOS>BOND
@<TRIPOS>MOLECULE
HOH1289
1 0
SMALL
USER_CHARGES


@<TRIPOS>ATOM
1 O 27.6790008544922 42.181999206543 -15.4549999237061 O 0.0 **** 0.0
@<TRIPOS>BOND
@<TRIPOS>MOLECULE
HOH1290
1 0
SMALL
USER_CHARGES


@<TRIPOS>ATOM
1 O 51.617000579834 29.8579998016357 60.8699989318848 O 0.0 **** 0.0
@<TRIPOS>BOND
@<TRIPOS>MOLECULE
HOH1291
1 0
SMALL
USER_CHARGES


@<TRIPOS>ATOM
1 O 30.9090003967285 38.0250015258789 -0.287000000476837 O 0.0 **** 0.0
@<TRIPOS>BOND
@<TRIPOS>MOLECULE
HOH1292
1 0
SMALL
USER_CHARGES


@<TRIPOS>ATOM
1 O 10.6389999389648 28.0709991455078 35.757999420166 O 0.0 **** 0.0
@<TRIPOS>BOND
@<TRIPOS>MOLECULE
HOH1293
1 0
SMALL
USER_CHARGES


@<TRIPOS>ATOM
1 O 39.5620002746582 18.257999420166 57.2980003356934 O 0.0 **** 0.0
@<TRIPOS>BOND
@<TRIPOS>MOLECULE
HOH1294
1 0
SMALL
USER_CHARGES


@<TRIPOS>ATOM
1 O 24.0820007324219 49.5089988708496 19.4309997558594 O 0.0 **** 0.0
@<TRIPOS>BOND
@<TRIPOS>MOLECULE
HOH1295
1 0
SMALL
USER_CHARGES


@<TRIPOS>ATOM
1 O 33.2929992675781 23.1380004882813 -11.3009996414185 O 0.0 **** 0.0
@<TRIPOS>BOND
@<TRIPOS>MOLECULE
HOH1296
1 0
SMALL
USER_CHARGES


@<TRIPOS>ATOM
1 O 26.1940002441406 22.1100006103516 58.7000007629395 O 0.0 **** 0.0
@<TRIPOS>BOND
@<TRIPOS>MOLECULE
HOH1297
1 0
SMALL
USER_CHARGES


@<TRIPOS>ATOM
1 O 64.8519973754883 32.9189987182617 25.5809993743896 O 0.0 **** 0.0
@<TRIPOS>BOND
@<TRIPOS>MOLECULE
HOH1298
1 0
SMALL
USER_CHARGES


@<TRIPOS>ATOM
1 O 43.9109992980957 45.4039993286133 19.0230007171631 O 0.0 **** 0.0
@<TRIPOS>BOND
@<TRIPOS>MOLECULE
HOH1299
1 0
SMALL
USER_CHARGES


@<TRIPOS>ATOM
1 O 58.5970001220703 37.4599990844727 26.3509998321533 O 0.0 **** 0.0
@<TRIPOS>BOND
@<TRIPOS>MOLECULE
HOH1300
1 0
SMALL
USER_CHARGES


@<TRIPOS>ATOM
1 O 44.931999206543 13.875 22.6380004882813 O 0.0 **** 0.0
@<TRIPOS>BOND
@<TRIPOS>MOLECULE
HOH1301
1 0
SMALL
USER_CHARGES


@<TRIPOS>ATOM
1 O 57.5369987487793 17.2549991607666 48.2120018005371 O 0.0 **** 0.0
@<TRIPOS>BOND
@<TRIPOS>MOLECULE
HOH1302
1 0
SMALL
USER_CHARGES


@<TRIPOS>ATOM
1 O 26.9710006713867 57.2760009765625 21.1159992218018 O 0.0 **** 0.0
@<TRIPOS>BOND
@<TRIPOS>MOLECULE
HOH1303
1 0
SMALL
USER_CHARGES


@<TRIPOS>ATOM
1 O 34.0999984741211 38.298999786377 45.9220008850098 O 0.0 **** 0.0
@<TRIPOS>BOND
@<TRIPOS>MOLECULE
HOH1304
1 0
SMALL
USER_CHARGES


@<TRIPOS>ATOM
1 O 69.9199981689453 11.3599996566772 18.7000007629395 O 0.0 **** 0.0
@<TRIPOS>BOND
@<TRIPOS>MOLECULE
HOH1305
1 0
SMALL
USER_CHARGES


@<TRIPOS>ATOM
1 O 28.7430000305176 34.6399993896484 -17.3780002593994 O 0.0 **** 0.0
@<TRIPOS>BOND
@<TRIPOS>MOLECULE
HOH1306
1 0
SMALL
USER_CHARGES


@<TRIPOS>ATOM
1 O 34.5639991760254 33.0540008544922 44.3170013427734 O 0.0 **** 0.0
@<TRIPOS>BOND
@<TRIPOS>MOLECULE
HOH1307
1 0
SMALL
USER_CHARGES


@<TRIPOS>ATOM
1 O 56.2330017089844 4.42199993133545 24.3780002593994 O 0.0 **** 0.0
@<TRIPOS>BOND
@<TRIPOS>MOLECULE
HOH1308
1 0
SMALL
USER_CHARGES


@<TRIPOS>ATOM
1 O 22.9540004730225 53.3489990234375 31.2159996032715 O 0.0 **** 0.0
@<TRIPOS>BOND
@<TRIPOS>MOLECULE
HOH1309
1 0
SMALL
USER_CHARGES


@<TRIPOS>ATOM
1 O 68.3130035400391 18.9559993743896 41.6129989624023 O 0.0 **** 0.0
@<TRIPOS>BOND
@<TRIPOS>MOLECULE
HOH1310
1 0
SMALL
USER_CHARGES


@<TRIPOS>ATOM
1 O 76.7689971923828 14.746000289917 -1.19700002670288 O 0.0 **** 0.0
@<TRIPOS>BOND
@<TRIPOS>MOLECULE
HOH1311
1 0
SMALL
USER_CHARGES


@<TRIPOS>ATOM
1 O 77.0559997558594 12.125 16.0499992370605 O 0.0 **** 0.0
@<TRIPOS>BOND
@<TRIPOS>MOLECULE
HOH1312
1 0
SMALL
USER_CHARGES


@<TRIPOS>ATOM
1 O 5.77699995040894 39.7589988708496 29.3430004119873 O 0.0 **** 0.0
@<TRIPOS>BOND
@<TRIPOS>MOLECULE
HOH1313
1 0
SMALL
USER_CHARGES


@<TRIPOS>ATOM
1 O 63.3790016174316 35.9529991149902 12.1920003890991 O 0.0 **** 0.0
@<TRIPOS>BOND
@<TRIPOS>MOLECULE
HOH1314
1 0
SMALL
USER_CHARGES


@<TRIPOS>ATOM
1 O 56.2630004882813 40.6459999084473 38.1189994812012 O 0.0 **** 0.0
@<TRIPOS>BOND
@<TRIPOS>MOLECULE
HOH1315
1 0
SMALL
USER_CHARGES


@<TRIPOS>ATOM
1 O 67.1470031738281 39.2089996337891 34.0960006713867 O 0.0 **** 0.0
@<TRIPOS>BOND
@<TRIPOS>MOLECULE
HOH1316
1 0
SMALL
USER_CHARGES


@<TRIPOS>ATOM
1 O 60.8889999389648 47.8720016479492 30.3090000152588 O 0.0 **** 0.0
@<TRIPOS>BOND
@<TRIPOS>MOLECULE
HOH1317
1 0
SMALL
USER_CHARGES


@<TRIPOS>ATOM
1 O 51.1269989013672 45.931999206543 45.076000213623 O 0.0 **** 0.0
@<TRIPOS>BOND
@<TRIPOS>MOLECULE
HOH1318
1 0
SMALL
USER_CHARGES


@<TRIPOS>ATOM
1 O 35.1440010070801 24.6909999847412 9.68200016021729 O 0.0 **** 0.0
@<TRIPOS>BOND
@<TRIPOS>MOLECULE
HOH1319
1 0
SMALL
USER_CHARGES


@<TRIPOS>ATOM
1 O 36.7470016479492 25.7679996490479 -5.35599994659424 O 0.0 **** 0.0
@<TRIPOS>BOND
@<TRIPOS>MOLECULE
HOH1320
1 0
SMALL
USER_CHARGES


@<TRIPOS>ATOM
1 O 54.6790008544922 29.8759994506836 -1.11899995803833 O 0.0 **** 0.0
@<TRIPOS>BOND
@<TRIPOS>MOLECULE
HOH1321
1 0
SMALL
USER_CHARGES


@<TRIPOS>ATOM
1 O 56.1650009155273 50.7859992980957 31.3139991760254 O 0.0 **** 0.0
@<TRIPOS>BOND
@<TRIPOS>MOLECULE
HOH1322
1 0
SMALL
USER_CHARGES


@<TRIPOS>ATOM
1 O 23.7269992828369 33.4490013122559 52.8849983215332 O 0.0 **** 0.0
@<TRIPOS>BOND
@<TRIPOS>MOLECULE
HOH1323
1 0
SMALL
USER_CHARGES


@<TRIPOS>ATOM
1 O 30.7999992370605 38.4109992980957 40.242000579834 O 0.0 **** 0.0
@<TRIPOS>BOND
@<TRIPOS>MOLECULE
HOH1324
1 0
SMALL
USER_CHARGES


@<TRIPOS>ATOM
1 O 25.6079998016357 33.2669982910156 38.1580009460449 O 0.0 **** 0.0
@<TRIPOS>BOND
@<TRIPOS>MOLECULE
HOH1325
1 0
SMALL
USER_CHARGES


@<TRIPOS>ATOM
1 O 27.05299949646 32.3479995727539 53.0089988708496 O 0.0 **** 0.0
@<TRIPOS>BOND
@<TRIPOS>MOLECULE
HOH1326
1 0
SMALL
USER_CHARGES


@<TRIPOS>ATOM
1 O 30.6380004882813 38.2099990844727 2.5460000038147 O 0.0 **** 0.0
@<TRIPOS>BOND
@<TRIPOS>MOLECULE
HOH1327
1 0
SMALL
USER_CHARGES


@<TRIPOS>ATOM
1 O 41.9070014953613 21.6140003204346 -26.382999420166 O 0.0 **** 0.0
@<TRIPOS>BOND
@<TRIPOS>MOLECULE
HOH1328
1 0
SMALL
USER_CHARGES


@<TRIPOS>ATOM
1 O 60.5470008850098 20.7779998779297 3.03999996185303 O 0.0 **** 0.0
@<TRIPOS>BOND
@<TRIPOS>MOLECULE
HOH1329
1 0
SMALL
USER_CHARGES


@<TRIPOS>ATOM
1 O 21.2119998931885 39.1710014343262 43.1069984436035 O 0.0 **** 0.0
@<TRIPOS>BOND
@<TRIPOS>MOLECULE
HOH1330
1 0
SMALL
USER_CHARGES


@<TRIPOS>ATOM
1 O 33.9519996643066 31.3400001525879 48.4879989624023 O 0.0 **** 0.0
@<TRIPOS>BOND
@<TRIPOS>MOLECULE
HOH1331
1 0
SMALL
USER_CHARGES


@<TRIPOS>ATOM
1 O 28.9619998931885 44.4970016479492 -16.2110004425049 O 0.0 **** 0.0
@<TRIPOS>BOND
@<TRIPOS>MOLECULE
HOH1332
1 0
SMALL
USER_CHARGES


@<TRIPOS>ATOM
1 O 62.6110000610352 12.3439998626709 25.9360008239746 O 0.0 **** 0.0
@<TRIPOS>BOND
@<TRIPOS>MOLECULE
HOH1333
1 0
SMALL
USER_CHARGES


@<TRIPOS>ATOM
1 O 65.6070022583008 45.1529998779297 12.3009996414185 O 0.0 **** 0.0
@<TRIPOS>BOND
@<TRIPOS>MOLECULE
HOH1334
1 0
SMALL
USER_CHARGES


@<TRIPOS>ATOM
1 O 37.8489990234375 37.4259986877441 49.3919982910156 O 0.0 **** 0.0
@<TRIPOS>BOND
@<TRIPOS>MOLECULE
HOH1335
1 0
SMALL
USER_CHARGES


@<TRIPOS>ATOM
1 O 69.7220001220703 12.8479995727539 25.0139999389648 O 0.0 **** 0.0
@<TRIPOS>BOND
@<TRIPOS>MOLECULE
HOH1336
1 0
SMALL
USER_CHARGES


@<TRIPOS>ATOM
1 O 53.0190010070801 19.6280002593994 11.5019998550415 O 0.0 **** 0.0
@<TRIPOS>BOND
@<TRIPOS>MOLECULE
HOH1337
1 0
SMALL
USER_CHARGES


@<TRIPOS>ATOM
1 O 50.9900016784668 50.5330009460449 18.1700000762939 O 0.0 **** 0.0
@<TRIPOS>BOND
@<TRIPOS>MOLECULE
HOH1338
1 0
SMALL
USER_CHARGES


@<TRIPOS>ATOM
1 O 59.5699996948242 28.8279991149902 27.2630004882813 O 0.0 **** 0.0
@<TRIPOS>BOND
@<TRIPOS>MOLECULE
HOH1339
1 0
SMALL
USER_CHARGES


@<TRIPOS>ATOM
1 O 42.2690010070801 24.6720008850098 -11.7410001754761 O 0.0 **** 0.0
@<TRIPOS>BOND
@<TRIPOS>MOLECULE
HOH1340
1 0
SMALL
USER_CHARGES


@<TRIPOS>ATOM
1 O 53.1290016174316 32.7379989624023 13.9980001449585 O 0.0 **** 0.0
@<TRIPOS>BOND
@<TRIPOS>MOLECULE
HOH1341
1 0
SMALL
USER_CHARGES


@<TRIPOS>ATOM
1 O 41.0890007019043 32.9109992980957 1.22300004959106 O 0.0 **** 0.0
@<TRIPOS>BOND
@<TRIPOS>MOLECULE
HOH1342
1 0
SMALL
USER_CHARGES


@<TRIPOS>ATOM
1 O 34.9150009155273 20.2929992675781 0.773999989032745 O 0.0 **** 0.0
@<TRIPOS>BOND
@<TRIPOS>MOLECULE
HOH1343
1 0
SMALL
USER_CHARGES


@<TRIPOS>ATOM
1 O 44.7200012207031 22.4029998779297 -7.65100002288818 O 0.0 **** 0.0
@<TRIPOS>BOND
@<TRIPOS>MOLECULE
HOH1344
1 0
SMALL
USER_CHARGES


@<TRIPOS>ATOM
1 O 54.5099983215332 18.4340000152588 9.44499969482422 O 0.0 **** 0.0
@<TRIPOS>BOND
@<TRIPOS>MOLECULE
HOH1345
1 0
SMALL
USER_CHARGES


@<TRIPOS>ATOM
1 O 59.6549987792969 27.9379997253418 15.1110000610352 O 0.0 **** 0.0
@<TRIPOS>BOND
@<TRIPOS>MOLECULE
HOH1346
1 0
SMALL
USER_CHARGES


@<TRIPOS>ATOM
1 O 42.7039985656738 54.5929985046387 30.0949993133545 O 0.0 **** 0.0
@<TRIPOS>BOND
@<TRIPOS>MOLECULE
HOH1347
1 0
SMALL
USER_CHARGES


@<TRIPOS>ATOM
1 O 45.0740013122559 48.3730010986328 28.5310001373291 O 0.0 **** 0.0
@<TRIPOS>BOND
@<TRIPOS>MOLECULE
HOH1348
1 0
SMALL
USER_CHARGES


@<TRIPOS>ATOM
1 O 47.1650009155273 43.2369995117188 -13.5509996414185 O 0.0 **** 0.0
@<TRIPOS>BOND
@<TRIPOS>MOLECULE
HOH1349
1 0
SMALL
USER_CHARGES


@<TRIPOS>ATOM
1 O 17.4139995574951 27.5109996795654 11.8459997177124 O 0.0 **** 0.0
@<TRIPOS>BOND
@<TRIPOS>MOLECULE
HOH1350
1 0
SMALL
USER_CHARGES


@<TRIPOS>ATOM
1 O 25.5699996948242 14.9899997711182 36.0929985046387 O 0.0 **** 0.0
@<TRIPOS>BOND
@<TRIPOS>MOLECULE
HOH1351
1 0
SMALL
USER_CHARGES


@<TRIPOS>ATOM
1 O 70.9380035400391 16.6420001983643 22.132999420166 O 0.0 **** 0.0
@<TRIPOS>BOND
@<TRIPOS>MOLECULE
HOH1352
1 0
SMALL
USER_CHARGES


@<TRIPOS>ATOM
1 O 53.8219985961914 16.5690002441406 6.5770001411438 O 0.0 **** 0.0
@<TRIPOS>BOND
@<TRIPOS>MOLECULE
HOH1353
1 0
SMALL
USER_CHARGES


@<TRIPOS>ATOM
1 O 76.4440002441406 12.5410003662109 4.96600008010864 O 0.0 **** 0.0
@<TRIPOS>BOND
@<TRIPOS>MOLECULE
HOH1354
1 0
SMALL
USER_CHARGES


@<TRIPOS>ATOM
1 O 39.8499984741211 24.3349990844727 52.5480003356934 O 0.0 **** 0.0
@<TRIPOS>BOND
@<TRIPOS>MOLECULE
HOH1355
1 0
SMALL
USER_CHARGES


@<TRIPOS>ATOM
1 O 43.0509986877441 54.5320014953613 19.1270008087158 O 0.0 **** 0.0
@<TRIPOS>BOND
@<TRIPOS>MOLECULE
HOH1356
1 0
SMALL
USER_CHARGES


@<TRIPOS>ATOM
1 O 34.4280014038086 39.3860015869141 18.5289993286133 O 0.0 **** 0.0
@<TRIPOS>BOND
@<TRIPOS>MOLECULE
HOH1357
1 0
SMALL
USER_CHARGES


@<TRIPOS>ATOM
1 O 54.7779998779297 30.1520004272461 41.5270004272461 O 0.0 **** 0.0
@<TRIPOS>BOND
@<TRIPOS>MOLECULE
HOH1358
1 0
SMALL
USER_CHARGES


@<TRIPOS>ATOM
1 O 44.9809989929199 22.7950000762939 46.5559997558594 O 0.0 **** 0.0
@<TRIPOS>BOND
@<TRIPOS>MOLECULE
HOH1359
1 0
SMALL
USER_CHARGES


@<TRIPOS>ATOM
1 O 51.2949981689453 25.4409999847412 40.8310012817383 O 0.0 **** 0.0
@<TRIPOS>BOND
@<TRIPOS>MOLECULE
HOH1360
1 0
SMALL
USER_CHARGES


@<TRIPOS>ATOM
1 O 35.6590003967285 29.9869995117188 58.7669982910156 O 0.0 **** 0.0
@<TRIPOS>BOND
@<TRIPOS>MOLECULE
HOH1361
1 0
SMALL
USER_CHARGES


@<TRIPOS>ATOM
1 O 27.3279991149902 46.6150016784668 45.7120018005371 O 0.0 **** 0.0
@<TRIPOS>BOND
@<TRIPOS>MOLECULE
HOH1362
1 0
SMALL
USER_CHARGES


@<TRIPOS>ATOM
1 O 25.431999206543 20.0200004577637 29.0979995727539 O 0.0 **** 0.0
@<TRIPOS>BOND
@<TRIPOS>MOLECULE
HOH1363
1 0
SMALL
USER_CHARGES


@<TRIPOS>ATOM
1 O 33.6380004882813 18.6429996490479 -26.1040000915527 O 0.0 **** 0.0
@<TRIPOS>BOND
@<TRIPOS>MOLECULE
HOH1364
1 0
SMALL
USER_CHARGES


@<TRIPOS>ATOM
1 O 42.2980003356934 34.7779998779297 -1.24000000953674 O 0.0 **** 0.0
@<TRIPOS>BOND
@<TRIPOS>MOLECULE
HOH1365
1 0
SMALL
USER_CHARGES


@<TRIPOS>ATOM
1 O 23.2229995727539 35.7089996337891 29.7089996337891 O 0.0 **** 0.0
@<TRIPOS>BOND
@<TRIPOS>MOLECULE
HOH1366
1 0
SMALL
USER_CHARGES


@<TRIPOS>ATOM
1 O 57.5639991760254 20.6580009460449 13.5629997253418 O 0.0 **** 0.0
@<TRIPOS>BOND
@<TRIPOS>MOLECULE
HOH1367
1 0
SMALL
USER_CHARGES


@<TRIPOS>ATOM
1 O 34.5719985961914 28.0310001373291 39.4169998168945 O 0.0 **** 0.0
@<TRIPOS>BOND
@<TRIPOS>MOLECULE
HOH1368
1 0
SMALL
USER_CHARGES


@<TRIPOS>ATOM
1 O 12.7250003814697 34.9259986877441 37.5110015869141 O 0.0 **** 0.0
@<TRIPOS>BOND
@<TRIPOS>MOLECULE
HOH1369
1 0
SMALL
USER_CHARGES


@<TRIPOS>ATOM
1 O 36.8110008239746 26.6809997558594 58.0719985961914 O 0.0 **** 0.0
@<TRIPOS>BOND
@<TRIPOS>MOLECULE
HOH1370
1 0
SMALL
USER_CHARGES


@<TRIPOS>ATOM
1 O 20.4039993286133 29.6189994812012 24.3899993896484 O 0.0 **** 0.0
@<TRIPOS>BOND
@<TRIPOS>MOLECULE
HOH1371
1 0
SMALL
USER_CHARGES


@<TRIPOS>ATOM
1 O 40.1780014038086 33.8470001220703 9.5290002822876 O 0.0 **** 0.0
@<TRIPOS>BOND
@<TRIPOS>MOLECULE
HOH1372
1 0
SMALL
USER_CHARGES


@<TRIPOS>ATOM
1 O 49.8190002441406 38.5439987182617 50.3009986877441 O 0.0 **** 0.0
@<TRIPOS>BOND
@<TRIPOS>MOLECULE
HOH1373
1 0
SMALL
USER_CHARGES


@<TRIPOS>ATOM
1 O 28.4349994659424 30.1310005187988 40.9059982299805 O 0.0 **** 0.0
@<TRIPOS>BOND
@<TRIPOS>MOLECULE
HOH1374
1 0
SMALL
USER_CHARGES


@<TRIPOS>ATOM
1 O 23.0860004425049 30.0690002441406 9.33300018310547 O 0.0 **** 0.0
@<TRIPOS>BOND
@<TRIPOS>MOLECULE
HOH1375
1 0
SMALL
USER_CHARGES


@<TRIPOS>ATOM
1 O 38.3359985351563 5.64900016784668 -2.77500009536743 O 0.0 **** 0.0
@<TRIPOS>BOND
@<TRIPOS>MOLECULE
HOH1376
1 0
SMALL
USER_CHARGES


@<TRIPOS>ATOM
1 O 24.6389999389648 18.4340000152588 19.9379997253418 O 0.0 **** 0.0
@<TRIPOS>BOND
@<TRIPOS>MOLECULE
HOH1377
1 0
SMALL
USER_CHARGES


@<TRIPOS>ATOM
1 O 28.5240001678467 44.6959991455078 -5.05700016021729 O 0.0 **** 0.0
@<TRIPOS>BOND
@<TRIPOS>MOLECULE
HOH1378
1 0
SMALL
USER_CHARGES


@<TRIPOS>ATOM
1 O 38.3450012207031 19.681999206543 -1.48399996757507 O 0.0 **** 0.0
@<TRIPOS>BOND
@<TRIPOS>MOLECULE
HOH1379
1 0
SMALL
USER_CHARGES


@<TRIPOS>ATOM
1 O 36.0559997558594 20.9570007324219 32.3450012207031 O 0.0 **** 0.0
@<TRIPOS>BOND
@<TRIPOS>MOLECULE
HOH1380
1 0
SMALL
USER_CHARGES


@<TRIPOS>ATOM
1 O 37.8639984130859 46.1959991455078 -19.6499996185303 O 0.0 **** 0.0
@<TRIPOS>BOND
@<TRIPOS>MOLECULE
HOH1381
1 0
SMALL
USER_CHARGES


@<TRIPOS>ATOM
1 O 28.3780002593994 36.2939987182617 -10.9250001907349 O 0.0 **** 0.0
@<TRIPOS>BOND
@<TRIPOS>MOLECULE
HOH1382
1 0
SMALL
USER_CHARGES


@<TRIPOS>ATOM
1 O 8.01700019836426 29.3689994812012 45.1520004272461 O 0.0 **** 0.0
@<TRIPOS>BOND
@<TRIPOS>MOLECULE
HOH1383
1 0
SMALL
USER_CHARGES


@<TRIPOS>ATOM
1 O 67.6920013427734 37.875 30.4680004119873 O 0.0 **** 0.0
@<TRIPOS>BOND
@<TRIPOS>MOLECULE
HOH1384
1 0
SMALL
USER_CHARGES


@<TRIPOS>ATOM
1 O 49.3650016784668 14.4390001296997 17.7430000305176 O 0.0 **** 0.0
@<TRIPOS>BOND
@<TRIPOS>MOLECULE
HOH1385
1 0
SMALL
USER_CHARGES


@<TRIPOS>ATOM
1 O 35.8160018920898 17.6319999694824 10.9280004501343 O 0.0 **** 0.0
@<TRIPOS>BOND
@<TRIPOS>MOLECULE
HOH1386
1 0
SMALL
USER_CHARGES


@<TRIPOS>ATOM
1 O 56.5859985351563 4.96199989318848 21.3659992218018 O 0.0 **** 0.0
@<TRIPOS>BOND
@<TRIPOS>MOLECULE
HOH1387
1 0
SMALL
USER_CHARGES


@<TRIPOS>ATOM
1 O 79.7060012817383 7.81599998474121 8.5620002746582 O 0.0 **** 0.0
@<TRIPOS>BOND
@<TRIPOS>MOLECULE
HOH1388
1 0
SMALL
USER_CHARGES


@<TRIPOS>ATOM
1 O 33.1119995117188 24.9799995422363 31.92799949646 O 0.0 **** 0.0
@<TRIPOS>BOND
@<TRIPOS>MOLECULE
HOH1389
1 0
SMALL
USER_CHARGES


@<TRIPOS>ATOM
1 O 38.5810012817383 53.9220008850098 39.0410003662109 O 0.0 **** 0.0
@<TRIPOS>BOND
@<TRIPOS>MOLECULE
HOH1390
1 0
SMALL
USER_CHARGES


@<TRIPOS>ATOM
1 O 57.0629997253418 10.4890003204346 1.5900000333786 O 0.0 **** 0.0
@<TRIPOS>BOND
@<TRIPOS>MOLECULE
HOH1391
1 0
SMALL
USER_CHARGES


@<TRIPOS>ATOM
1 O 34.4790000915527 20.6590003967285 44.2750015258789 O 0.0 **** 0.0
@<TRIPOS>BOND
@<TRIPOS>MOLECULE
HOH1392
1 0
SMALL
USER_CHARGES


@<TRIPOS>ATOM
1 O 44.359001159668 49.7050018310547 -19.0869998931885 O 0.0 **** 0.0
@<TRIPOS>BOND
@<TRIPOS>MOLECULE
HOH1393
1 0
SMALL
USER_CHARGES


@<TRIPOS>ATOM
1 O 35.0970001220703 27.613000869751 9.29399967193604 O 0.0 **** 0.0
@<TRIPOS>BOND
@<TRIPOS>MOLECULE
HOH1394
1 0
SMALL
USER_CHARGES


@<TRIPOS>ATOM
1 O 32.1020011901855 45.6640014648438 -16.2819995880127 O 0.0 **** 0.0
@<TRIPOS>BOND
@<TRIPOS>MOLECULE
HOH1395
1 0
SMALL
USER_CHARGES


@<TRIPOS>ATOM
1 O 41.9029998779297 54.4609985351563 25.5499992370605 O 0.0 **** 0.0
@<TRIPOS>BOND
@<TRIPOS>MOLECULE
HOH1396
1 0
SMALL
USER_CHARGES


@<TRIPOS>ATOM
1 O 25.8150005340576 35.2019996643066 30.1350002288818 O 0.0 **** 0.0
@<TRIPOS>BOND
@<TRIPOS>MOLECULE
HOH1397
1 0
SMALL
USER_CHARGES


@<TRIPOS>ATOM
1 O 42.8660011291504 25.5709991455078 42.314998626709 O 0.0 **** 0.0
@<TRIPOS>BOND
@<TRIPOS>MOLECULE
HOH1398
1 0
SMALL
USER_CHARGES


@<TRIPOS>ATOM
1 O 27.3689994812012 34.8050003051758 23.4150009155273 O 0.0 **** 0.0
@<TRIPOS>BOND
@<TRIPOS>MOLECULE
HOH1399
1 0
SMALL
USER_CHARGES


@<TRIPOS>ATOM
1 O 40.4869995117188 42.6440010070801 24.6830005645752 O 0.0 **** 0.0
@<TRIPOS>BOND
@<TRIPOS>MOLECULE
HOH1400
1 0
SMALL
USER_CHARGES


@<TRIPOS>ATOM
1 O 50.1980018615723 30.5930004119873 7.38700008392334 O 0.0 **** 0.0
@<TRIPOS>BOND
@<TRIPOS>MOLECULE
HOH1401
1 0
SMALL
USER_CHARGES


@<TRIPOS>ATOM
1 O 41.9220008850098 11.8669996261597 28.1909999847412 O 0.0 **** 0.0
@<TRIPOS>BOND
@<TRIPOS>MOLECULE
HOH1402
1 0
SMALL
USER_CHARGES


@<TRIPOS>ATOM
1 O 33.7869987487793 35.2019996643066 6.80000019073486 O 0.0 **** 0.0
@<TRIPOS>BOND
@<TRIPOS>MOLECULE
HOH1403
1 0
SMALL
USER_CHARGES


@<TRIPOS>ATOM
1 O 28.5809993743896 20.8689994812012 7.93200016021729 O 0.0 **** 0.0
@<TRIPOS>BOND
@<TRIPOS>MOLECULE
HOH1404
1 0
SMALL
USER_CHARGES


@<TRIPOS>ATOM
1 O 59.5190010070801 24.3439998626709 40.693000793457 O 0.0 **** 0.0
@<TRIPOS>BOND
@<TRIPOS>MOLECULE
HOH1405
1 0
SMALL
USER_CHARGES


@<TRIPOS>ATOM
1 O 35.0979995727539 34.742000579834 22.0799999237061 O 0.0 **** 0.0
@<TRIPOS>BOND
@<TRIPOS>MOLECULE
HOH1406
1 0
SMALL
USER_CHARGES


@<TRIPOS>ATOM
1 O 50.189998626709 38.4949989318848 -11.1569995880127 O 0.0 **** 0.0
@<TRIPOS>BOND
@<TRIPOS>MOLECULE
HOH1407
1 0
SMALL
USER_CHARGES


@<TRIPOS>ATOM
1 O 66.4260025024414 21.6399993896484 50.4609985351563 O 0.0 **** 0.0
@<TRIPOS>BOND
@<TRIPOS>MOLECULE
HOH1408
1 0
SMALL
USER_CHARGES


@<TRIPOS>ATOM
1 O 59.8559989929199 22.2240009307861 24.8400001525879 O 0.0 **** 0.0
@<TRIPOS>BOND
@<TRIPOS>MOLECULE
HOH1409
1 0
SMALL
USER_CHARGES


@<TRIPOS>ATOM
1 O 58.4990005493164 16.5830001831055 41.9269981384277 O 0.0 **** 0.0
@<TRIPOS>BOND
@<TRIPOS>MOLECULE
HOH1410
1 0
SMALL
USER_CHARGES


@<TRIPOS>ATOM
1 O 73.1050033569336 4.70699977874756 7.70100021362305 O 0.0 **** 0.0
@<TRIPOS>BOND
@<TRIPOS>MOLECULE
HOH1411
1 0
SMALL
USER_CHARGES


@<TRIPOS>ATOM
1 O 37.3219985961914 19.003999710083 50.7630004882813 O 0.0 **** 0.0
@<TRIPOS>BOND
@<TRIPOS>MOLECULE
HOH1412
1 0
SMALL
USER_CHARGES


@<TRIPOS>ATOM
1 O 45.2290000915527 26.8980007171631 63.2480010986328 O 0.0 **** 0.0
@<TRIPOS>BOND
@<TRIPOS>MOLECULE
HOH1413
1 0
SMALL
USER_CHARGES


@<TRIPOS>ATOM
1 O 29.6270008087158 31.5400009155273 -1.13900005817413 O 0.0 **** 0.0
@<TRIPOS>BOND
@<TRIPOS>MOLECULE
HOH1414
1 0
SMALL
USER_CHARGES


@<TRIPOS>ATOM
1 O 50.6980018615723 44.3390007019043 47.8400001525879 O 0.0 **** 0.0
@<TRIPOS>BOND
@<TRIPOS>MOLECULE
HOH1415
1 0
SMALL
USER_CHARGES


@<TRIPOS>ATOM
1 O 59.7070007324219 24.0960006713867 61.5349998474121 O 0.0 **** 0.0
@<TRIPOS>BOND
@<TRIPOS>MOLECULE
HOH1416
1 0
SMALL
USER_CHARGES


@<TRIPOS>ATOM
1 O 50.8580017089844 53.6969985961914 28.8999996185303 O 0.0 **** 0.0
@<TRIPOS>BOND
@<TRIPOS>MOLECULE
HOH1417
1 0
SMALL
USER_CHARGES


@<TRIPOS>ATOM
1 O 45.5960006713867 18.4580001831055 59.5180015563965 O 0.0 **** 0.0
@<TRIPOS>BOND
@<TRIPOS>MOLECULE
HOH1418
1 0
SMALL
USER_CHARGES


@<TRIPOS>ATOM
1 O 48.4589996337891 22.5009994506836 41.0460014343262 O 0.0 **** 0.0
@<TRIPOS>BOND
@<TRIPOS>MOLECULE
HOH1419
1 0
SMALL
USER_CHARGES


@<TRIPOS>ATOM
1 O 38.9809989929199 23.818000793457 -7.08099985122681 O 0.0 **** 0.0
@<TRIPOS>BOND
@<TRIPOS>MOLECULE
HOH1420
1 0
SMALL
USER_CHARGES


@<TRIPOS>ATOM
1 O 53.8390007019043 48.4809989929199 34.2150001525879 O 0.0 **** 0.0
@<TRIPOS>BOND
@<TRIPOS>MOLECULE
HOH1421
1 0
SMALL
USER_CHARGES


@<TRIPOS>ATOM
1 O 63.3240013122559 23.076000213623 11.0509996414185 O 0.0 **** 0.0
@<TRIPOS>BOND
@<TRIPOS>MOLECULE
HOH1422
1 0
SMALL
USER_CHARGES


@<TRIPOS>ATOM
1 O 38.1980018615723 20.9120006561279 46.5670013427734 O 0.0 **** 0.0
@<TRIPOS>BOND
@<TRIPOS>MOLECULE
HOH1423
1 0
SMALL
USER_CHARGES


@<TRIPOS>ATOM
1 O 11.793999671936 39.8959999084473 31.8509998321533 O 0.0 **** 0.0
@<TRIPOS>BOND
@<TRIPOS>MOLECULE
HOH1424
1 0
SMALL
USER_CHARGES


@<TRIPOS>ATOM
1 O 52.1300010681152 15.0050001144409 -31.9389991760254 O 0.0 **** 0.0
@<TRIPOS>BOND
@<TRIPOS>MOLECULE
HOH1425
1 0
SMALL
USER_CHARGES


@<TRIPOS>ATOM
1 O 59.6310005187988 29.3959999084473 23.7329998016357 O 0.0 **** 0.0
@<TRIPOS>BOND
@<TRIPOS>MOLECULE
HOH1426
1 0
SMALL
USER_CHARGES


@<TRIPOS>ATOM
1 O 59.8969993591309 39.2210006713867 39.6790008544922 O 0.0 **** 0.0
@<TRIPOS>BOND
@<TRIPOS>MOLECULE
HOH1427
1 0
SMALL
USER_CHARGES


@<TRIPOS>ATOM
1 O 65.2929992675781 18.6089992523193 26.3309993743896 O 0.0 **** 0.0
@<TRIPOS>BOND
@<TRIPOS>MOLECULE
HOH1428
1 0
SMALL
USER_CHARGES


@<TRIPOS>ATOM
1 O 28.6889991760254 37.4339981079102 43.0050010681152 O 0.0 **** 0.0
@<TRIPOS>BOND
@<TRIPOS>MOLECULE
HOH1429
1 0
SMALL
USER_CHARGES


@<TRIPOS>ATOM
1 O 35.9620018005371 31.9939994812012 52.1300010681152 O 0.0 **** 0.0
@<TRIPOS>BOND
@<TRIPOS>MOLECULE
HOH1430
1 0
SMALL
USER_CHARGES


@<TRIPOS>ATOM
1 O 45.5929985046387 26.4230003356934 3.64400005340576 O 0.0 **** 0.0
@<TRIPOS>BOND
@<TRIPOS>MOLECULE
HOH1431
1 0
SMALL
USER_CHARGES


@<TRIPOS>ATOM
1 O 43.2029991149902 22.8880004882813 39.382999420166 O 0.0 **** 0.0
@<TRIPOS>BOND
@<TRIPOS>MOLECULE
HOH1432
1 0
SMALL
USER_CHARGES


@<TRIPOS>ATOM
1 O 23.4519996643066 22.5809993743896 59.7369995117188 O 0.0 **** 0.0
@<TRIPOS>BOND
@<TRIPOS>MOLECULE
HOH1433
1 0
SMALL
USER_CHARGES


@<TRIPOS>ATOM
1 O 45.0890007019043 14.5419998168945 55.9700012207031 O 0.0 **** 0.0
@<TRIPOS>BOND
@<TRIPOS>MOLECULE
HOH1434
1 0
SMALL
USER_CHARGES


@<TRIPOS>ATOM
1 O 49.4799995422363 47.7729988098145 8.69200038909912 O 0.0 **** 0.0
@<TRIPOS>BOND
@<TRIPOS>MOLECULE
HOH1435
1 0
SMALL
USER_CHARGES


@<TRIPOS>ATOM
1 O 25.8460006713867 17.9349994659424 30.818000793457 O 0.0 **** 0.0
@<TRIPOS>BOND
@<TRIPOS>MOLECULE
HOH1436
1 0
SMALL
USER_CHARGES


@<TRIPOS>ATOM
1 O 47.0929985046387 49.0429992675781 43.201000213623 O 0.0 **** 0.0
@<TRIPOS>BOND
@<TRIPOS>MOLECULE
HOH1437
1 0
SMALL
USER_CHARGES


@<TRIPOS>ATOM
1 O 52.8800010681152 32.4389991760254 6.21999979019165 O 0.0 **** 0.0
@<TRIPOS>BOND
@<TRIPOS>MOLECULE
HOH1438
1 0
SMALL
USER_CHARGES


@<TRIPOS>ATOM
1 O 29.1529998779297 41.7830009460449 -0.149000003933907 O 0.0 **** 0.0
@<TRIPOS>BOND
@<TRIPOS>MOLECULE
HOH1439
1 0
SMALL
USER_CHARGES


@<TRIPOS>ATOM
1 O 28.0610008239746 47.1520004272461 40.8889999389648 O 0.0 **** 0.0
@<TRIPOS>BOND
@<TRIPOS>MOLECULE
HOH1440
1 0
SMALL
USER_CHARGES


@<TRIPOS>ATOM
1 O 71.4820022583008 17.3059997558594 29.4169998168945 O 0.0 **** 0.0
@<TRIPOS>BOND
@<TRIPOS>MOLECULE
HOH1441
1 0
SMALL
USER_CHARGES


@<TRIPOS>ATOM
1 O 53.7799987792969 28.988000869751 2.63000011444092 O 0.0 **** 0.0
@<TRIPOS>BOND
@<TRIPOS>MOLECULE
HOH1442
1 0
SMALL
USER_CHARGES


@<TRIPOS>ATOM
1 O 39.6349983215332 32.265998840332 38.3359985351563 O 0.0 **** 0.0
@<TRIPOS>BOND
@<TRIPOS>MOLECULE
HOH1443
1 0
SMALL
USER_CHARGES


@<TRIPOS>ATOM
1 O 17.363000869751 43.9599990844727 27.2189998626709 O 0.0 **** 0.0
@<TRIPOS>BOND
@<TRIPOS>MOLECULE
HOH1444
1 0
SMALL
USER_CHARGES


@<TRIPOS>ATOM
1 O 57.3930015563965 29.0790004730225 9.09799957275391 O 0.0 **** 0.0
@<TRIPOS>BOND
@<TRIPOS>MOLECULE
HOH1445
1 0
SMALL
USER_CHARGES


@<TRIPOS>ATOM
1 O 52.0769996643066 18.8449993133545 -3.59899997711182 O 0.0 **** 0.0
@<TRIPOS>BOND
@<TRIPOS>MOLECULE
HOH1446
1 0
SMALL
USER_CHARGES


@<TRIPOS>ATOM
1 O 55.1450004577637 16.8600006103516 41.9389991760254 O 0.0 **** 0.0
@<TRIPOS>BOND
@<TRIPOS>MOLECULE
HOH1447
1 0
SMALL
USER_CHARGES


@<TRIPOS>ATOM
1 O 35.1199989318848 17.5389995574951 -24.0170001983643 O 0.0 **** 0.0
@<TRIPOS>BOND
@<TRIPOS>MOLECULE
HOH1448
1 0
SMALL
USER_CHARGES


@<TRIPOS>ATOM
1 O 32.7459983825684 44.4169998168945 44.9210014343262 O 0.0 **** 0.0
@<TRIPOS>BOND
@<TRIPOS>MOLECULE
HOH1449
1 0
SMALL
USER_CHARGES


@<TRIPOS>ATOM
1 O 32.2589988708496 28.9080009460449 -0.699000000953674 O 0.0 **** 0.0
@<TRIPOS>BOND
@<TRIPOS>MOLECULE
HOH1450
1 0
SMALL
USER_CHARGES


@<TRIPOS>ATOM
1 O 47.5919990539551 44.6940002441406 27.9650001525879 O 0.0 **** 0.0
@<TRIPOS>BOND
@<TRIPOS>MOLECULE
HOH1451
1 0
SMALL
USER_CHARGES


@<TRIPOS>ATOM
1 O 15.1529998779297 42.6559982299805 23.4130001068115 O 0.0 **** 0.0
@<TRIPOS>BOND
@<TRIPOS>MOLECULE
HOH1452
1 0
SMALL
USER_CHARGES


@<TRIPOS>ATOM
1 O 58.242000579834 38.7929992675781 8.74499988555908 O 0.0 **** 0.0
@<TRIPOS>BOND
@<TRIPOS>MOLECULE
HOH1453
1 0
SMALL
USER_CHARGES


@<TRIPOS>ATOM
1 O 37.1290016174316 24.1000003814697 57.640998840332 O 0.0 **** 0.0
@<TRIPOS>BOND
@<TRIPOS>MOLECULE
HOH1454
1 0
SMALL
USER_CHARGES


@<TRIPOS>ATOM
1 O 41.3310012817383 23.6679992675781 -5.76399993896484 O 0.0 **** 0.0
@<TRIPOS>BOND
@<TRIPOS>MOLECULE
HOH1455
1 0
SMALL
USER_CHARGES


@<TRIPOS>ATOM
1 O 30.7040004730225 24.1089992523193 -11.5220003128052 O 0.0 **** 0.0
@<TRIPOS>BOND
@<TRIPOS>MOLECULE
HOH1456
1 0
SMALL
USER_CHARGES


@<TRIPOS>ATOM
1 O 69.7990036010742 14.1350002288818 22.4260005950928 O 0.0 **** 0.0
@<TRIPOS>BOND
@<TRIPOS>MOLECULE
HOH1457
1 0
SMALL
USER_CHARGES


@<TRIPOS>ATOM
1 O 41.2680015563965 42.4959983825684 6.13500022888184 O 0.0 **** 0.0
@<TRIPOS>BOND
@<TRIPOS>MOLECULE
HOH1458
1 0
SMALL
USER_CHARGES


@<TRIPOS>ATOM
1 O 63.931999206543 34.875 38.3600006103516 O 0.0 **** 0.0
@<TRIPOS>BOND
@<TRIPOS>MOLECULE
HOH1459
1 0
SMALL
USER_CHARGES


@<TRIPOS>ATOM
1 O 66.4250030517578 37.109001159668 45.5359992980957 O 0.0 **** 0.0
@<TRIPOS>BOND
@<TRIPOS>MOLECULE
HOH1460
1 0
SMALL
USER_CHARGES


@<TRIPOS>ATOM
1 O 53.851001739502 23.1700000762939 -15.2430000305176 O 0.0 **** 0.0
@<TRIPOS>BOND
@<TRIPOS>MOLECULE
HOH1461
1 0
SMALL
USER_CHARGES


@<TRIPOS>ATOM
1 O 30.8419990539551 30.7810001373291 -25.5230007171631 O 0.0 **** 0.0
@<TRIPOS>BOND
@<TRIPOS>MOLECULE
HOH1462
1 0
SMALL
USER_CHARGES


@<TRIPOS>ATOM
1 O 61.5900001525879 35.8390007019043 56.5979995727539 O 0.0 **** 0.0
@<TRIPOS>BOND
@<TRIPOS>MOLECULE
HOH1463
1 0
SMALL
USER_CHARGES


@<TRIPOS>ATOM
1 O 20.1049995422363 52.7190017700195 40.3199996948242 O 0.0 **** 0.0
@<TRIPOS>BOND
@<TRIPOS>MOLECULE
HOH1464
1 0
SMALL
USER_CHARGES


@<TRIPOS>ATOM
1 O 41.3740005493164 26.4130001068115 40.2430000305176 O 0.0 **** 0.0
@<TRIPOS>BOND
@<TRIPOS>MOLECULE
HOH1465
1 0
SMALL
USER_CHARGES


@<TRIPOS>ATOM
1 O 31.6709995269775 11.9689998626709 -8.43200016021729 O 0.0 **** 0.0
@<TRIPOS>BOND
@<TRIPOS>MOLECULE
HOH1466
1 0
SMALL
USER_CHARGES


@<TRIPOS>ATOM
1 O 39.8810005187988 34.4620018005371 50.9640007019043 O 0.0 **** 0.0
@<TRIPOS>BOND
@<TRIPOS>MOLECULE
HOH1467
1 0
SMALL
USER_CHARGES


@<TRIPOS>ATOM
1 O 29.5470008850098 54.3059997558594 30.7040004730225 O 0.0 **** 0.0
@<TRIPOS>BOND
@<TRIPOS>MOLECULE
HOH1468
1 0
SMALL
USER_CHARGES


@<TRIPOS>ATOM
1 O 12.8999996185303 37.6559982299805 33.0890007019043 O 0.0 **** 0.0
@<TRIPOS>BOND
@<TRIPOS>MOLECULE
HOH1469
1 0
SMALL
USER_CHARGES


@<TRIPOS>ATOM
1 O 25.2000007629395 49.0779991149902 21.9939994812012 O 0.0 **** 0.0
@<TRIPOS>BOND
@<TRIPOS>MOLECULE
HOH1470
1 0
SMALL
USER_CHARGES


@<TRIPOS>ATOM
1 O 31.5879993438721 21.5130004882813 33.9140014648438 O 0.0 **** 0.0
@<TRIPOS>BOND
@<TRIPOS>MOLECULE
HOH1471
1 0
SMALL
USER_CHARGES


@<TRIPOS>ATOM
1 O 31.2299995422363 18.2339992523193 42.6100006103516 O 0.0 **** 0.0
@<TRIPOS>BOND
@<TRIPOS>MOLECULE
HOH1472
1 0
SMALL
USER_CHARGES


@<TRIPOS>ATOM
1 O 60.060001373291 12.9910001754761 26.7070007324219 O 0.0 **** 0.0
@<TRIPOS>BOND
@<TRIPOS>MOLECULE
HOH1473
1 0
SMALL
USER_CHARGES


@<TRIPOS>ATOM
1 O 31.3969993591309 22.8560009002686 43.2879981994629 O 0.0 **** 0.0
@<TRIPOS>BOND
@<TRIPOS>MOLECULE
HOH1474
1 0
SMALL
USER_CHARGES


@<TRIPOS>ATOM
1 O 55.0730018615723 22.9610004425049 24.9729995727539 O 0.0 **** 0.0
@<TRIPOS>BOND
@<TRIPOS>MOLECULE
HOH1475
1 0
SMALL
USER_CHARGES


@<TRIPOS>ATOM
1 O 51.560001373291 20.1079998016357 56.5559997558594 O 0.0 **** 0.0
@<TRIPOS>BOND
@<TRIPOS>MOLECULE
HOH1476
1 0
SMALL
USER_CHARGES


@<TRIPOS>ATOM
1 O 47.8390007019043 37.2270011901855 5.69500017166138 O 0.0 **** 0.0
@<TRIPOS>BOND
@<TRIPOS>MOLECULE
HOH1477
1 0
SMALL
USER_CHARGES


@<TRIPOS>ATOM
1 O 23.6070003509521 37.5579986572266 10.5520000457764 O 0.0 **** 0.0
@<TRIPOS>BOND
@<TRIPOS>MOLECULE
HOH1478
1 0
SMALL
USER_CHARGES


@<TRIPOS>ATOM
1 O 28.371000289917 31.5249996185303 38.6139984130859 O 0.0 **** 0.0
@<TRIPOS>BOND
@<TRIPOS>MOLECULE
HOH1479
1 0
SMALL
USER_CHARGES


@<TRIPOS>ATOM
1 O 57.3919982910156 21.1770000457764 21.7999992370605 O 0.0 **** 0.0
@<TRIPOS>BOND
@<TRIPOS>MOLECULE
HOH1480
1 0
SMALL
USER_CHARGES


@<TRIPOS>ATOM
1 O 59.4179992675781 18.5590000152588 30.1809997558594 O 0.0 **** 0.0
@<TRIPOS>BOND
@<TRIPOS>MOLECULE
HOH1481
1 0
SMALL
USER_CHARGES


@<TRIPOS>ATOM
1 O 30.3239994049072 28.5300006866455 22.8190002441406 O 0.0 **** 0.0
@<TRIPOS>BOND
@<TRIPOS>MOLECULE
HOH1482
1 0
SMALL
USER_CHARGES


@<TRIPOS>ATOM
1 O 44.8419990539551 43.1209983825684 4.86499977111816 O 0.0 **** 0.0
@<TRIPOS>BOND
@<TRIPOS>MOLECULE
HOH1483
1 0
SMALL
USER_CHARGES


@<TRIPOS>ATOM
1 O 53.2190017700195 23.548999786377 -0.500999987125397 O 0.0 **** 0.0
@<TRIPOS>BOND
@<TRIPOS>MOLECULE
HOH1484
1 0
SMALL
USER_CHARGES


@<TRIPOS>ATOM
1 O 35.2820014953613 20.94700050354 -7.42999982833862 O 0.0 **** 0.0
@<TRIPOS>BOND
@<TRIPOS>MOLECULE
HOH1485
1 0
SMALL
USER_CHARGES


@<TRIPOS>ATOM
1 O 49.7239990234375 16.2840003967285 7.92500019073486 O 0.0 **** 0.0
@<TRIPOS>BOND
@<TRIPOS>MOLECULE
HOH1486
1 0
SMALL
USER_CHARGES


@<TRIPOS>ATOM
1 O 36.3979988098145 22.4939994812012 -17.1599998474121 O 0.0 **** 0.0
@<TRIPOS>BOND
@<TRIPOS>MOLECULE
HOH1487
1 0
SMALL
USER_CHARGES


@<TRIPOS>ATOM
1 O 46.451000213623 52.193000793457 37.2929992675781 O 0.0 **** 0.0
@<TRIPOS>BOND
@<TRIPOS>MOLECULE
HOH1488
1 0
SMALL
USER_CHARGES


@<TRIPOS>ATOM
1 O 19.2159996032715 35.867000579834 40.9500007629395 O 0.0 **** 0.0
@<TRIPOS>BOND
@<TRIPOS>MOLECULE
HOH1489
1 0
SMALL
USER_CHARGES


@<TRIPOS>ATOM
1 O 23.0189990997314 33.0880012512207 28.1200008392334 O 0.0 **** 0.0
@<TRIPOS>BOND
@<TRIPOS>MOLECULE
HOH1490
1 0
SMALL
USER_CHARGES


@<TRIPOS>ATOM
1 O 55.5349998474121 47.0130004882813 32.5419998168945 O 0.0 **** 0.0
@<TRIPOS>BOND
@<TRIPOS>MOLECULE
HOH1491
1 0
SMALL
USER_CHARGES


@<TRIPOS>ATOM
1 O 42.6430015563965 25.0970001220703 8.63700008392334 O 0.0 **** 0.0
@<TRIPOS>BOND
@<TRIPOS>MOLECULE
HOH1492
1 0
SMALL
USER_CHARGES


@<TRIPOS>ATOM
1 O 49.4949989318848 23.1189994812012 -19.9619998931885 O 0.0 **** 0.0
@<TRIPOS>BOND
@<TRIPOS>MOLECULE
HOH1493
1 0
SMALL
USER_CHARGES


@<TRIPOS>ATOM
1 O 34.6800003051758 37.5209999084473 22.451000213623 O 0.0 **** 0.0
@<TRIPOS>BOND
@<TRIPOS>MOLECULE
HOH1494
1 0
SMALL
USER_CHARGES


@<TRIPOS>ATOM
1 O 38.3889999389648 19.7940006256104 63.5589981079102 O 0.0 **** 0.0
@<TRIPOS>BOND
@<TRIPOS>MOLECULE
HOH1495
1 0
SMALL
USER_CHARGES


@<TRIPOS>ATOM
1 O 33.8300018310547 53.1749992370605 27.673999786377 O 0.0 **** 0.0
@<TRIPOS>BOND
@<TRIPOS>MOLECULE
HOH1496
1 0
SMALL
USER_CHARGES


@<TRIPOS>ATOM
1 O 68.109001159668 25.8419990539551 39.8419990539551 O 0.0 **** 0.0
@<TRIPOS>BOND
@<TRIPOS>MOLECULE
HOH1497
1 0
SMALL
USER_CHARGES


@<TRIPOS>ATOM
1 O 44.6209983825684 50.1259994506836 30.625 O 0.0 **** 0.0
@<TRIPOS>BOND
@<TRIPOS>MOLECULE
HOH1498
1 0
SMALL
USER_CHARGES


@<TRIPOS>ATOM
1 O 15.4289999008179 37.2550010681152 40.2849998474121 O 0.0 **** 0.0
@<TRIPOS>BOND
@<TRIPOS>MOLECULE
HOH1499
1 0
SMALL
USER_CHARGES


@<TRIPOS>ATOM
1 O 52.8289985656738 33.9329986572266 41.3979988098145 O 0.0 **** 0.0
@<TRIPOS>BOND
@<TRIPOS>MOLECULE
HOH1500
1 0
SMALL
USER_CHARGES


@<TRIPOS>ATOM
1 O 37.2729988098145 26.1790008544922 60.6980018615723 O 0.0 **** 0.0
@<TRIPOS>BOND
@<TRIPOS>MOLECULE
HOH1501
1 0
SMALL
USER_CHARGES


@<TRIPOS>ATOM
1 O 77.9899978637695 12.918999671936 13.4680004119873 O 0.0 **** 0.0
@<TRIPOS>BOND
@<TRIPOS>MOLECULE
HOH1502
1 0
SMALL
USER_CHARGES


@<TRIPOS>ATOM
1 O 62.6940002441406 11.7559995651245 3.38899993896484 O 0.0 **** 0.0
@<TRIPOS>BOND
@<TRIPOS>MOLECULE
HOH1503
1 0
SMALL
USER_CHARGES


@<TRIPOS>ATOM
1 O 47.5750007629395 36.7690010070801 8.44400024414063 O 0.0 **** 0.0
@<TRIPOS>BOND
@<TRIPOS>MOLECULE
HOH1504
1 0
SMALL
USER_CHARGES


@<TRIPOS>ATOM
1 O 52.5219993591309 24.8020000457764 -13.4700002670288 O 0.0 **** 0.0
@<TRIPOS>BOND
@<TRIPOS>MOLECULE
HOH1505
1 0
SMALL
USER_CHARGES


@<TRIPOS>ATOM
1 O 74.9899978637695 5.09200000762939 0.903999984264374 O 0.0 **** 0.0
@<TRIPOS>BOND
@<TRIPOS>MOLECULE
HOH1506
1 0
SMALL
USER_CHARGES


@<TRIPOS>ATOM
1 O 42.9589996337891 18.9260005950928 37.7239990234375 O 0.0 **** 0.0
@<TRIPOS>BOND
@<TRIPOS>MOLECULE
HOH1507
1 0
SMALL
USER_CHARGES


@<TRIPOS>ATOM
1 O 30.3859996795654 33.0190010070801 -4.62400007247925 O 0.0 **** 0.0
@<TRIPOS>BOND
@<TRIPOS>MOLECULE
HOH1508
1 0
SMALL
USER_CHARGES


@<TRIPOS>ATOM
1 O 63.5320014953613 22.7430000305176 36.3540000915527 O 0.0 **** 0.0
@<TRIPOS>BOND
@<TRIPOS>MOLECULE
HOH1509
1 0
SMALL
USER_CHARGES


@<TRIPOS>ATOM
1 O 31.7080001831055 32.7099990844727 47.5289993286133 O 0.0 **** 0.0
@<TRIPOS>BOND
@<TRIPOS>MOLECULE
HOH1510
1 0
SMALL
USER_CHARGES


@<TRIPOS>ATOM
1 O 11.4969997406006 32.5750007629395 26.5470008850098 O 0.0 **** 0.0
@<TRIPOS>BOND
@<TRIPOS>MOLECULE
HOH1511
1 0
SMALL
USER_CHARGES


@<TRIPOS>ATOM
1 O 25.3570003509521 51.3619995117188 31.8010005950928 O 0.0 **** 0.0
@<TRIPOS>BOND
@<TRIPOS>MOLECULE
HOH1512
1 0
SMALL
USER_CHARGES


@<TRIPOS>ATOM
1 O 34.3919982910156 39.7809982299805 -23.5009994506836 O 0.0 **** 0.0
@<TRIPOS>BOND
@<TRIPOS>MOLECULE
HOH1513
1 0
SMALL
USER_CHARGES


@<TRIPOS>ATOM
1 O 66.7890014648438 31.5970001220703 27.0030002593994 O 0.0 **** 0.0
@<TRIPOS>BOND
@<TRIPOS>MOLECULE
HOH1514
1 0
SMALL
USER_CHARGES


@<TRIPOS>ATOM
1 O 35.6769981384277 42.9570007324219 -25.5860004425049 O 0.0 **** 0.0
@<TRIPOS>BOND
@<TRIPOS>MOLECULE
HOH1515
1 0
SMALL
USER_CHARGES


@<TRIPOS>ATOM
1 O 44.5289993286133 44.1720008850098 10.9799995422363 O 0.0 **** 0.0
@<TRIPOS>BOND
@<TRIPOS>MOLECULE
HOH1516
1 0
SMALL
USER_CHARGES


@<TRIPOS>ATOM
1 O 61.8059997558594 23.1919994354248 7.44399976730347 O 0.0 **** 0.0
@<TRIPOS>BOND
@<TRIPOS>MOLECULE
HOH1517
1 0
SMALL
USER_CHARGES


@<TRIPOS>ATOM
1 O 42.2639999389648 36.5940017700195 3.38199996948242 O 0.0 **** 0.0
@<TRIPOS>BOND
@<TRIPOS>MOLECULE
HOH1518
1 0
SMALL
USER_CHARGES


@<TRIPOS>ATOM
1 O 66.8960037231445 39.1879997253418 27.6919994354248 O 0.0 **** 0.0
@<TRIPOS>BOND
@<TRIPOS>MOLECULE
HOH1519
1 0
SMALL
USER_CHARGES


@<TRIPOS>ATOM
1 O 63.5429992675781 16.6730003356934 39.2960014343262 O 0.0 **** 0.0
@<TRIPOS>BOND
@<TRIPOS>MOLECULE
HOH1520
1 0
SMALL
USER_CHARGES


@<TRIPOS>ATOM
1 O 47.257999420166 27.0069999694824 7.63500022888184 O 0.0 **** 0.0
@<TRIPOS>BOND
@<TRIPOS>MOLECULE
HOH1521
1 0
SMALL
USER_CHARGES


@<TRIPOS>ATOM
1 O 36.2820014953613 10.3520002365112 -27.1919994354248 O 0.0 **** 0.0
@<TRIPOS>BOND
@<TRIPOS>MOLECULE
HOH1522
1 0
SMALL
USER_CHARGES


@<TRIPOS>ATOM
1 O 60.0400009155273 54.4150009155273 27.0049991607666 O 0.0 **** 0.0
@<TRIPOS>BOND
@<TRIPOS>MOLECULE
HOH1523
1 0
SMALL
USER_CHARGES


@<TRIPOS>ATOM
1 O 30.5499992370605 26.5170001983643 24.6700000762939 O 0.0 **** 0.0
@<TRIPOS>BOND
@<TRIPOS>MOLECULE
HOH1524
1 0
SMALL
USER_CHARGES


@<TRIPOS>ATOM
1 O 53.939998626709 35.693000793457 45.0060005187988 O 0.0 **** 0.0
@<TRIPOS>BOND
@<TRIPOS>MOLECULE
HOH1525
1 0
SMALL
USER_CHARGES


@<TRIPOS>ATOM
1 O 33.2929992675781 9.86699962615967 -6.94500017166138 O 0.0 **** 0.0
@<TRIPOS>BOND
@<TRIPOS>MOLECULE
HOH1526
1 0
SMALL
USER_CHARGES


@<TRIPOS>ATOM
1 O 66.3720016479492 22.1700000762939 5.63800001144409 O 0.0 **** 0.0
@<TRIPOS>BOND
@<TRIPOS>MOLECULE
HOH1527
1 0
SMALL
USER_CHARGES


@<TRIPOS>ATOM
1 O 9.63899993896484 37.8819999694824 31.6219997406006 O 0.0 **** 0.0
@<TRIPOS>BOND
@<TRIPOS>MOLECULE
HOH1528
1 0
SMALL
USER_CHARGES


@<TRIPOS>ATOM
1 O 11.7119998931885 42.7080001831055 31.6709995269775 O 0.0 **** 0.0
@<TRIPOS>BOND
@<TRIPOS>MOLECULE
HOH1529
1 0
SMALL
USER_CHARGES


@<TRIPOS>ATOM
1 O 45.5229988098145 24.4270000457764 64.1760025024414 O 0.0 **** 0.0
@<TRIPOS>BOND
@<TRIPOS>MOLECULE
HOH1530
1 0
SMALL
USER_CHARGES


@<TRIPOS>ATOM
1 O 56.7050018310547 34.4150009155273 41.8849983215332 O 0.0 **** 0.0
@<TRIPOS>BOND
@<TRIPOS>MOLECULE
HOH1531
1 0
SMALL
USER_CHARGES


@<TRIPOS>ATOM
1 O 34.2910003662109 43.2039985656738 -9.35799980163574 O 0.0 **** 0.0
@<TRIPOS>BOND
@<TRIPOS>MOLECULE
HOH1532
1 0
SMALL
USER_CHARGES


@<TRIPOS>ATOM
1 O 40.0400009155273 28.0219993591309 28.8810005187988 O 0.0 **** 0.0
@<TRIPOS>BOND
@<TRIPOS>MOLECULE
HOH1533
1 0
SMALL
USER_CHARGES


@<TRIPOS>ATOM
1 O 46.8930015563965 49.6300010681152 38.1609992980957 O 0.0 **** 0.0
@<TRIPOS>BOND
@<TRIPOS>MOLECULE
HOH1534
1 0
SMALL
USER_CHARGES


@<TRIPOS>ATOM
1 O 42.1150016784668 41.7669982910156 26.7889995574951 O 0.0 **** 0.0
@<TRIPOS>BOND
@<TRIPOS>MOLECULE
HOH1535
1 0
SMALL
USER_CHARGES


@<TRIPOS>ATOM
1 O 74.3720016479492 22.3409996032715 26.4190006256104 O 0.0 **** 0.0
@<TRIPOS>BOND
@<TRIPOS>MOLECULE
HOH1536
1 0
SMALL
USER_CHARGES


@<TRIPOS>ATOM
1 O 51.6599998474121 37.9560012817383 45.5190010070801 O 0.0 **** 0.0
@<TRIPOS>BOND
@<TRIPOS>MOLECULE
HOH1537
1 0
SMALL
USER_CHARGES


@<TRIPOS>ATOM
1 O 18.5830001831055 48.064998626709 38.7070007324219 O 0.0 **** 0.0
@<TRIPOS>BOND
@<TRIPOS>MOLECULE
HOH1538
1 0
SMALL
USER_CHARGES


@<TRIPOS>ATOM
1 O 26.8519992828369 27.6030006408691 -6.81899976730347 O 0.0 **** 0.0
@<TRIPOS>BOND
@<TRIPOS>MOLECULE
HOH1539
1 0
SMALL
USER_CHARGES


@<TRIPOS>ATOM
1 O 33.3400001525879 21.9750003814697 14.7329998016357 O 0.0 **** 0.0
@<TRIPOS>BOND
@<TRIPOS>MOLECULE
HOH1540
1 0
SMALL
USER_CHARGES


@<TRIPOS>ATOM
1 O 37.2249984741211 32.8639984130859 43.9150009155273 O 0.0 **** 0.0
@<TRIPOS>BOND
@<TRIPOS>MOLECULE
HOH1541
1 0
SMALL
USER_CHARGES


@<TRIPOS>ATOM
1 O 44.6619987487793 28.7600002288818 43.359001159668 O 0.0 **** 0.0
@<TRIPOS>BOND
@<TRIPOS>MOLECULE
HOH1542
1 0
SMALL
USER_CHARGES


@<TRIPOS>ATOM
1 O 68.7740020751953 29.5 51.2029991149902 O 0.0 **** 0.0
@<TRIPOS>BOND
@<TRIPOS>MOLECULE
HOH1543
1 0
SMALL
USER_CHARGES


@<TRIPOS>ATOM
1 O 44.5810012817383 45.6119995117188 15.7370004653931 O 0.0 **** 0.0
@<TRIPOS>BOND
@<TRIPOS>MOLECULE
HOH1544
1 0
SMALL
USER_CHARGES


@<TRIPOS>ATOM
1 O 38.9280014038086 18.9729995727539 48.523998260498 O 0.0 **** 0.0
@<TRIPOS>BOND
@<TRIPOS>MOLECULE
HOH1545
1 0
SMALL
USER_CHARGES


@<TRIPOS>ATOM
1 O 62.3030014038086 25.4820003509521 33.9830017089844 O 0.0 **** 0.0
@<TRIPOS>BOND
@<TRIPOS>MOLECULE
HOH1546
1 0
SMALL
USER_CHARGES


@<TRIPOS>ATOM
1 O 46.8779983520508 36.681999206543 51.7080001831055 O 0.0 **** 0.0
@<TRIPOS>BOND
@<TRIPOS>MOLECULE
HOH1547
1 0
SMALL
USER_CHARGES


@<TRIPOS>ATOM
1 O 34.8559989929199 28.0219993591309 54.5730018615723 O 0.0 **** 0.0
@<TRIPOS>BOND
@<TRIPOS>MOLECULE
HOH1548
1 0
SMALL
USER_CHARGES


@<TRIPOS>ATOM
1 O 27.1319999694824 40.4770011901855 -8.89700031280518 O 0.0 **** 0.0
@<TRIPOS>BOND
@<TRIPOS>MOLECULE
HOH1549
1 0
SMALL
USER_CHARGES


@<TRIPOS>ATOM
1 O 46.6419982910156 12.9130001068115 20.5209999084473 O 0.0 **** 0.0
@<TRIPOS>BOND
@<TRIPOS>MOLECULE
HOH1550
1 0
SMALL
USER_CHARGES


@<TRIPOS>ATOM
1 O 56.5460014343262 36.5499992370605 39.9910011291504 O 0.0 **** 0.0
@<TRIPOS>BOND
@<TRIPOS>MOLECULE
HOH1551
1 0
SMALL
USER_CHARGES


@<TRIPOS>ATOM
1 O 36.382999420166 27.2119998931885 -18.1469993591309 O 0.0 **** 0.0
@<TRIPOS>BOND
@<TRIPOS>MOLECULE
HOH1552
1 0
SMALL
USER_CHARGES


@<TRIPOS>ATOM
1 O 58.5870018005371 10.0620002746582 -8.28899955749512 O 0.0 **** 0.0
@<TRIPOS>BOND
@<TRIPOS>MOLECULE
HOH1553
1 0
SMALL
USER_CHARGES


@<TRIPOS>ATOM
1 O 62.640998840332 44.1990013122559 20.3110008239746 O 0.0 **** 0.0
@<TRIPOS>BOND
@<TRIPOS>MOLECULE
HOH1554
1 0
SMALL
USER_CHARGES


@<TRIPOS>ATOM
1 O 54.3730010986328 39.6720008850098 20.0830001831055 O 0.0 **** 0.0
@<TRIPOS>BOND
@<TRIPOS>MOLECULE
HOH1555
1 0
SMALL
USER_CHARGES


@<TRIPOS>ATOM
1 O 43.6240005493164 17.4060001373291 58.8959999084473 O 0.0 **** 0.0
@<TRIPOS>BOND
@<TRIPOS>MOLECULE
HOH1556
1 0
SMALL
USER_CHARGES


@<TRIPOS>ATOM
1 O 34.1940002441406 47.5779991149902 44.8460006713867 O 0.0 **** 0.0
@<TRIPOS>BOND
@<TRIPOS>MOLECULE
HOH1557
1 0
SMALL
USER_CHARGES


@<TRIPOS>ATOM
1 O 44.1720008850098 37.4329986572266 11.4700002670288 O 0.0 **** 0.0
@<TRIPOS>BOND
@<TRIPOS>MOLECULE
HOH1558
1 0
SMALL
USER_CHARGES


@<TRIPOS>ATOM
1 O 39.0519981384277 30.8740005493164 5.27400016784668 O 0.0 **** 0.0
@<TRIPOS>BOND
@<TRIPOS>MOLECULE
HOH1559
1 0
SMALL
USER_CHARGES


@<TRIPOS>ATOM
1 O 7.67899990081787 36.4230003356934 31.8649997711182 O 0.0 **** 0.0
@<TRIPOS>BOND
@<TRIPOS>MOLECULE
HOH1560
1 0
SMALL
USER_CHARGES


@<TRIPOS>ATOM
1 O 62.5859985351563 19.6450004577637 25.798999786377 O 0.0 **** 0.0
@<TRIPOS>BOND
@<TRIPOS>MOLECULE
HOH1561
1 0
SMALL
USER_CHARGES


@<TRIPOS>ATOM
1 O 53.8639984130859 53.3380012512207 22.0459995269775 O 0.0 **** 0.0
@<TRIPOS>BOND
@<TRIPOS>MOLECULE
HOH1562
1 0
SMALL
USER_CHARGES


@<TRIPOS>ATOM
1 O 40.0149993896484 32.8219985961914 55.2809982299805 O 0.0 **** 0.0
@<TRIPOS>BOND
@<TRIPOS>MOLECULE
HOH1563
1 0
SMALL
USER_CHARGES


@<TRIPOS>ATOM
1 O 35.6720008850098 46.4339981079102 -17.8990001678467 O 0.0 **** 0.0
@<TRIPOS>BOND
@<TRIPOS>MOLECULE
HOH1564
1 0
SMALL
USER_CHARGES


@<TRIPOS>ATOM
1 O 57.9790000915527 58.2879981994629 24.6000003814697 O 0.0 **** 0.0
@<TRIPOS>BOND
@<TRIPOS>MOLECULE
HOH1565
1 0
SMALL
USER_CHARGES


@<TRIPOS>ATOM
1 O 49.0660018920898 36.1699981689453 3.42499995231628 O 0.0 **** 0.0
@<TRIPOS>BOND
@<TRIPOS>MOLECULE
HOH1566
1 0
SMALL
USER_CHARGES


@<TRIPOS>ATOM
1 O 55.5229988098145 18.5340003967285 30.0170001983643 O 0.0 **** 0.0
@<TRIPOS>BOND
@<TRIPOS>MOLECULE
HOH1567
1 0
SMALL
USER_CHARGES


@<TRIPOS>ATOM
1 O 39.1940002441406 42.1580009460449 9.79100036621094 O 0.0 **** 0.0
@<TRIPOS>BOND
@<TRIPOS>MOLECULE
HOH1568
1 0
SMALL
USER_CHARGES


@<TRIPOS>ATOM
1 O 22.6630001068115 41.1230010986328 42.1720008850098 O 0.0 **** 0.0
@<TRIPOS>BOND
@<TRIPOS>MOLECULE
HOH1569
1 0
SMALL
USER_CHARGES


@<TRIPOS>ATOM
1 O 68.7929992675781 8.91300010681152 19.8840007781982 O 0.0 **** 0.0
@<TRIPOS>BOND
@<TRIPOS>MOLECULE
HOH1570
1 0
SMALL
USER_CHARGES


@<TRIPOS>ATOM
1 O 56.390998840332 17.5939998626709 62.1199989318848 O 0.0 **** 0.0
@<TRIPOS>BOND
@<TRIPOS>MOLECULE
HOH1571
1 0
SMALL
USER_CHARGES


@<TRIPOS>ATOM
1 O 33.3559989929199 16.7789993286133 10.21399974823 O 0.0 **** 0.0
@<TRIPOS>BOND
@<TRIPOS>MOLECULE
HOH1572
1 0
SMALL
USER_CHARGES


@<TRIPOS>ATOM
1 O 18.1319999694824 29.5709991455078 25.8320007324219 O 0.0 **** 0.0
@<TRIPOS>BOND
@<TRIPOS>MOLECULE
HOH1573
1 0
SMALL
USER_CHARGES


@<TRIPOS>ATOM
1 O 30.4220008850098 26.9099998474121 56.7900009155273 O 0.0 **** 0.0
@<TRIPOS>BOND
@<TRIPOS>MOLECULE
HOH1574
1 0
SMALL
USER_CHARGES


@<TRIPOS>ATOM
1 O 44.9420013427734 35.048999786377 51.5429992675781 O 0.0 **** 0.0
@<TRIPOS>BOND
@<TRIPOS>MOLECULE
HOH1575
1 0
SMALL
USER_CHARGES


@<TRIPOS>ATOM
1 O 59.3860015869141 26.4419994354248 11.3240003585815 O 0.0 **** 0.0
@<TRIPOS>BOND
@<TRIPOS>MOLECULE
HOH1576
1 0
SMALL
USER_CHARGES


@<TRIPOS>ATOM
1 O 52.3810005187988 31.9009990692139 18.5160007476807 O 0.0 **** 0.0
@<TRIPOS>BOND
@<TRIPOS>MOLECULE
HOH1577
1 0
SMALL
USER_CHARGES


@<TRIPOS>ATOM
1 O 57.2200012207031 23.9419994354248 21.7250003814697 O 0.0 **** 0.0
@<TRIPOS>BOND
@<TRIPOS>MOLECULE
HOH1578
1 0
SMALL
USER_CHARGES


@<TRIPOS>ATOM
1 O 59.3190002441406 40.068000793457 25.5729999542236 O 0.0 **** 0.0
@<TRIPOS>BOND
@<TRIPOS>MOLECULE
HOH1579
1 0
SMALL
USER_CHARGES


@<TRIPOS>ATOM
1 O 36.8969993591309 48.1720008850098 -23.3719997406006 O 0.0 **** 0.0
@<TRIPOS>BOND
@<TRIPOS>MOLECULE
HOH1580
1 0
SMALL
USER_CHARGES


@<TRIPOS>ATOM
1 O 38.4749984741211 39.0890007019043 1.26999998092651 O 0.0 **** 0.0
@<TRIPOS>BOND
@<TRIPOS>MOLECULE
HOH1581
1 0
SMALL
USER_CHARGES


@<TRIPOS>ATOM
1 O 30.9640007019043 12.9659996032715 46.1969985961914 O 0.0 **** 0.0
@<TRIPOS>BOND
@<TRIPOS>MOLECULE
HOH1582
1 0
SMALL
USER_CHARGES


@<TRIPOS>ATOM
1 O 9.76200008392334 22.6849994659424 31.5440006256104 O 0.0 **** 0.0
@<TRIPOS>BOND
@<TRIPOS>MOLECULE
HOH1583
1 0
SMALL
USER_CHARGES


@<TRIPOS>ATOM
1 O 58.648998260498 29.3600006103516 11.6199998855591 O 0.0 **** 0.0
@<TRIPOS>BOND
@<TRIPOS>MOLECULE
HOH1584
1 0
SMALL
USER_CHARGES


@<TRIPOS>ATOM
1 O 29.5330009460449 40.7169990539551 39.4900016784668 O 0.0 **** 0.0
@<TRIPOS>BOND
@<TRIPOS>MOLECULE
HOH1585
1 0
SMALL
USER_CHARGES


@<TRIPOS>ATOM
1 O 25.4720001220703 39.7299995422363 50.7089996337891 O 0.0 **** 0.0
@<TRIPOS>BOND
@<TRIPOS>MOLECULE
HOH1586
1 0
SMALL
USER_CHARGES


@<TRIPOS>ATOM
1 O 57.9799995422363 34.3199996948242 47.068000793457 O 0.0 **** 0.0
@<TRIPOS>BOND
@<TRIPOS>MOLECULE
HOH1587
1 0
SMALL
USER_CHARGES


@<TRIPOS>ATOM
1 O 32.548999786377 19.4190006256104 9.92399978637695 O 0.0 **** 0.0
@<TRIPOS>BOND
@<TRIPOS>MOLECULE
HOH1588
1 0
SMALL
USER_CHARGES


@<TRIPOS>ATOM
1 O 25.1359996795654 55.5260009765625 35.4910011291504 O 0.0 **** 0.0
@<TRIPOS>BOND
@<TRIPOS>MOLECULE
HOH1589
1 0
SMALL
USER_CHARGES


@<TRIPOS>ATOM
1 O 52.7319984436035 26.3640003204346 -0.216999992728233 O 0.0 **** 0.0
@<TRIPOS>BOND
@<TRIPOS>MOLECULE
HOH1590
1 0
SMALL
USER_CHARGES


@<TRIPOS>ATOM
1 O 55.8190002441406 57.9720001220703 32.0320014953613 O 0.0 **** 0.0
@<TRIPOS>BOND
@<TRIPOS>MOLECULE
HOH1591
1 0
SMALL
USER_CHARGES


@<TRIPOS>ATOM
1 O 25.6639995574951 22.1389999389648 -2.73499989509583 O 0.0 **** 0.0
@<TRIPOS>BOND
@<TRIPOS>MOLECULE
HOH1592
1 0
SMALL
USER_CHARGES


@<TRIPOS>ATOM
1 O 12.9739999771118 48.2169990539551 25.2390003204346 O 0.0 **** 0.0
@<TRIPOS>BOND
@<TRIPOS>MOLECULE
HOH1593
1 0
SMALL
USER_CHARGES


@<TRIPOS>ATOM
1 O 36.8889999389648 29.3770008087158 45.1599998474121 O 0.0 **** 0.0
@<TRIPOS>BOND
@<TRIPOS>MOLECULE
HOH1594
1 0
SMALL
USER_CHARGES


@<TRIPOS>ATOM
1 O 35.9189987182617 35.3009986877441 15.6660003662109 O 0.0 **** 0.0
@<TRIPOS>BOND
@<TRIPOS>MOLECULE
HOH1595
1 0
SMALL
USER_CHARGES


@<TRIPOS>ATOM
1 O 59.015998840332 12.5030002593994 7.48699998855591 O 0.0 **** 0.0
@<TRIPOS>BOND
@<TRIPOS>MOLECULE
HOH1596
1 0
SMALL
USER_CHARGES


@<TRIPOS>ATOM
1 O 50.3889999389648 39.2939987182617 47.6730003356934 O 0.0 **** 0.0
@<TRIPOS>BOND
@<TRIPOS>MOLECULE
HOH1597
1 0
SMALL
USER_CHARGES


@<TRIPOS>ATOM
1 O 29.076000213623 32.4959983825684 57.5740013122559 O 0.0 **** 0.0
@<TRIPOS>BOND
@<TRIPOS>MOLECULE
HOH1598
1 0
SMALL
USER_CHARGES


@<TRIPOS>ATOM
1 O 55.2630004882813 18.3430004119873 20.1730003356934 O 0.0 **** 0.0
@<TRIPOS>BOND
@<TRIPOS>MOLECULE
HOH1599
1 0
SMALL
USER_CHARGES


@<TRIPOS>ATOM
1 O 54.2140007019043 32.9490013122559 60.5369987487793 O 0.0 **** 0.0
@<TRIPOS>BOND
@<TRIPOS>MOLECULE
HOH1600
1 0
SMALL
USER_CHARGES


@<TRIPOS>ATOM
1 O 40.3849983215332 51.6920013427734 30.8889999389648 O 0.0 **** 0.0
@<TRIPOS>BOND
@<TRIPOS>MOLECULE
HOH1601
1 0
SMALL
USER_CHARGES


@<TRIPOS>ATOM
1 O 17.6809997558594 31.3490009307861 12.0089998245239 O 0.0 **** 0.0
@<TRIPOS>BOND
@<TRIPOS>MOLECULE
HOH1602
1 0
SMALL
USER_CHARGES


@<TRIPOS>ATOM
1 O 28.0559997558594 40.3819999694824 15.7309999465942 O 0.0 **** 0.0
@<TRIPOS>BOND
@<TRIPOS>MOLECULE
HOH1603
1 0
SMALL
USER_CHARGES


@<TRIPOS>ATOM
1 O 40.7169990539551 26.0550003051758 10.1359996795654 O 0.0 **** 0.0
@<TRIPOS>BOND
@<TRIPOS>MOLECULE
HOH1604
1 0
SMALL
USER_CHARGES


@<TRIPOS>ATOM
1 O 15.951000213623 34.0359992980957 18.4120006561279 O 0.0 **** 0.0
@<TRIPOS>BOND
@<TRIPOS>MOLECULE
HOH1605
1 0
SMALL
USER_CHARGES


@<TRIPOS>ATOM
1 O 73.4759979248047 23.9379997253418 2.19700002670288 O 0.0 **** 0.0
@<TRIPOS>BOND
@<TRIPOS>MOLECULE
HOH1606
1 0
SMALL
USER_CHARGES


@<TRIPOS>ATOM
1 O 36.5880012512207 44.5870018005371 -9.19499969482422 O 0.0 **** 0.0
@<TRIPOS>BOND
@<TRIPOS>MOLECULE
HOH1607
1 0
SMALL
USER_CHARGES


@<TRIPOS>ATOM
1 O 29.867000579834 19.261999130249 9.70300006866455 O 0.0 **** 0.0
@<TRIPOS>BOND
@<TRIPOS>MOLECULE
HOH1608
1 0
SMALL
USER_CHARGES


@<TRIPOS>ATOM
1 O 41.9169998168945 31.4740009307861 8.27999973297119 O 0.0 **** 0.0
@<TRIPOS>BOND
@<TRIPOS>MOLECULE
HOH1609
1 0
SMALL
USER_CHARGES


@<TRIPOS>ATOM
1 O 49.1500015258789 42.359001159668 6.78499984741211 O 0.0 **** 0.0
@<TRIPOS>BOND
@<TRIPOS>MOLECULE
HOH1610
1 0
SMALL
USER_CHARGES


@<TRIPOS>ATOM
1 O 44.9000015258789 26.5470008850098 44.923999786377 O 0.0 **** 0.0
@<TRIPOS>BOND
@<TRIPOS>MOLECULE
HOH1611
1 0
SMALL
USER_CHARGES


@<TRIPOS>ATOM
1 O 27.0620002746582 30.1079998016357 -0.772000014781952 O 0.0 **** 0.0
@<TRIPOS>BOND
@<TRIPOS>MOLECULE
HOH1612
1 0
SMALL
USER_CHARGES


@<TRIPOS>ATOM
1 O 29.3579998016357 46.6689987182617 19.1669998168945 O 0.0 **** 0.0
@<TRIPOS>BOND
@<TRIPOS>MOLECULE
HOH1613
1 0
SMALL
USER_CHARGES


@<TRIPOS>ATOM
1 O 44.5750007629395 44.2770004272461 -23.742000579834 O 0.0 **** 0.0
@<TRIPOS>BOND
@<TRIPOS>MOLECULE
HOH1614
1 0
SMALL
USER_CHARGES


@<TRIPOS>ATOM
1 O 32.5470008850098 26.75 8.90799999237061 O 0.0 **** 0.0
@<TRIPOS>BOND
@<TRIPOS>MOLECULE
HOH1615
1 0
SMALL
USER_CHARGES


@<TRIPOS>ATOM
1 O 65.4779968261719 47.7330017089844 14.2390003204346 O 0.0 **** 0.0
@<TRIPOS>BOND
@<TRIPOS>MOLECULE
HOH1616
1 0
SMALL
USER_CHARGES


@<TRIPOS>ATOM
1 O 55.3740005493164 20.5849990844727 23.6580009460449 O 0.0 **** 0.0
@<TRIPOS>BOND
@<TRIPOS>MOLECULE
HOH1617
1 0
SMALL
USER_CHARGES


@<TRIPOS>ATOM
1 O 27.7070007324219 25.613000869751 39.632999420166 O 0.0 **** 0.0
@<TRIPOS>BOND
@<TRIPOS>MOLECULE
HOH1618
1 0
SMALL
USER_CHARGES


@<TRIPOS>ATOM
1 O 27.5049991607666 39.6279983520508 -11.5410003662109 O 0.0 **** 0.0
@<TRIPOS>BOND
@<TRIPOS>MOLECULE
HOH1619
1 0
SMALL
USER_CHARGES


@<TRIPOS>ATOM
1 O 30.0340003967285 39.6319999694824 46.2540016174316 O 0.0 **** 0.0
@<TRIPOS>BOND
@<TRIPOS>MOLECULE
HOH1620
1 0
SMALL
USER_CHARGES


@<TRIPOS>ATOM
1 O 21.4090003967285 23.6679992675781 33.8919982910156 O 0.0 **** 0.0
@<TRIPOS>BOND
@<TRIPOS>MOLECULE
HOH1621
1 0
SMALL
USER_CHARGES


@<TRIPOS>ATOM
1 O 34.6990013122559 21.5400009155273 41.6259994506836 O 0.0 **** 0.0
@<TRIPOS>BOND
@<TRIPOS>MOLECULE
HOH1622
1 0
SMALL
USER_CHARGES


@<TRIPOS>ATOM
1 O 27.0480003356934 42.507999420166 -5.24700021743774 O 0.0 **** 0.0
@<TRIPOS>BOND
@<TRIPOS>MOLECULE
HOH1623
1 0
SMALL
USER_CHARGES


@<TRIPOS>ATOM
1 O 14.9870004653931 24.4179992675781 48.9720001220703 O 0.0 **** 0.0
@<TRIPOS>BOND
@<TRIPOS>MOLECULE
HOH1624
1 0
SMALL
USER_CHARGES


@<TRIPOS>ATOM
1 O 39.943000793457 49.1030006408691 43.2630004882813 O 0.0 **** 0.0
@<TRIPOS>BOND
@<TRIPOS>MOLECULE
HOH1625
1 0
SMALL
USER_CHARGES


@<TRIPOS>ATOM
1 O 17.4440002441406 38.1139984130859 19.3040008544922 O 0.0 **** 0.0
@<TRIPOS>BOND
@<TRIPOS>MOLECULE
HOH1626
1 0
SMALL
USER_CHARGES


@<TRIPOS>ATOM
1 O 37.6339988708496 23.3780002593994 26.0060005187988 O 0.0 **** 0.0
@<TRIPOS>BOND
@<TRIPOS>MOLECULE
HOH1627
1 0
SMALL
USER_CHARGES


@<TRIPOS>ATOM
1 O 25.367000579834 45.681999206543 -16.1989994049072 O 0.0 **** 0.0
@<TRIPOS>BOND
@<TRIPOS>MOLECULE
HOH1628
1 0
SMALL
USER_CHARGES


@<TRIPOS>ATOM
1 O 56.4090003967285 5.91499996185303 -3.23699998855591 O 0.0 **** 0.0
@<TRIPOS>BOND
@<TRIPOS>MOLECULE
HOH1629
1 0
SMALL
USER_CHARGES


@<TRIPOS>ATOM
1 O 47.8250007629395 53.125 19.7859992980957 O 0.0 **** 0.0
@<TRIPOS>BOND
@<TRIPOS>MOLECULE
HOH1630
1 0
SMALL
USER_CHARGES


@<TRIPOS>ATOM
1 O 54.7540016174316 22.9759998321533 1.72500002384186 O 0.0 **** 0.0
@<TRIPOS>BOND
@<TRIPOS>MOLECULE
HOH1631
1 0
SMALL
USER_CHARGES


@<TRIPOS>ATOM
1 O 50.8720016479492 53.2089996337891 18.0100002288818 O 0.0 **** 0.0
@<TRIPOS>BOND
@<TRIPOS>MOLECULE
HOH1632
1 0
SMALL
USER_CHARGES


@<TRIPOS>ATOM
1 O 44.2799987792969 18.8640003204346 4.05900001525879 O 0.0 **** 0.0
@<TRIPOS>BOND
@<TRIPOS>MOLECULE
HOH1633
1 0
SMALL
USER_CHARGES


@<TRIPOS>ATOM
1 O 50.6959991455078 59.2400016784668 16.6259994506836 O 0.0 **** 0.0
@<TRIPOS>BOND
@<TRIPOS>MOLECULE
HOH1634
1 0
SMALL
USER_CHARGES


@<TRIPOS>ATOM
1 O 63.4739990234375 45.3409996032715 24.1140003204346 O 0.0 **** 0.0
@<TRIPOS>BOND
@<TRIPOS>MOLECULE
HOH1635
1 0
SMALL
USER_CHARGES


@<TRIPOS>ATOM
1 O 31.2709999084473 53.6689987182617 41.7560005187988 O 0.0 **** 0.0
@<TRIPOS>BOND
@<TRIPOS>MOLECULE
HOH1636
1 0
SMALL
USER_CHARGES


@<TRIPOS>ATOM
1 O 40.5730018615723 37.0610008239746 1.03199994564056 O 0.0 **** 0.0
@<TRIPOS>BOND
@<TRIPOS>MOLECULE
HOH1637
1 0
SMALL
USER_CHARGES


@<TRIPOS>ATOM
1 O 37.8540000915527 26.8770008087158 11.3739995956421 O 0.0 **** 0.0
@<TRIPOS>BOND
@<TRIPOS>MOLECULE
HOH1638
1 0
SMALL
USER_CHARGES


@<TRIPOS>ATOM
1 O 32.7529983520508 34.4990005493164 -5.52799987792969 O 0.0 **** 0.0
@<TRIPOS>BOND
@<TRIPOS>MOLECULE
HOH1639
1 0
SMALL
USER_CHARGES


@<TRIPOS>ATOM
1 O 43.0050010681152 16.3330001831055 3.18400001525879 O 0.0 **** 0.0
@<TRIPOS>BOND
@<TRIPOS>MOLECULE
HOH1640
1 0
SMALL
USER_CHARGES


@<TRIPOS>ATOM
1 O 46.3779983520508 38.3580017089844 12.8760004043579 O 0.0 **** 0.0
@<TRIPOS>BOND
@<TRIPOS>MOLECULE
HOH1641
1 0
SMALL
USER_CHARGES


@<TRIPOS>ATOM
1 O 38.0820007324219 14.8199996948242 -2.44300007820129 O 0.0 **** 0.0
@<TRIPOS>BOND
@<TRIPOS>MOLECULE
HOH1642
1 0
SMALL
USER_CHARGES


@<TRIPOS>ATOM
1 O 38.4119987487793 30.2019996643066 29.2520008087158 O 0.0 **** 0.0
@<TRIPOS>BOND
@<TRIPOS>MOLECULE
HOH1643
1 0
SMALL
USER_CHARGES


@<TRIPOS>ATOM
1 O 77.2089996337891 19.757999420166 6.97300004959106 O 0.0 **** 0.0
@<TRIPOS>BOND
@<TRIPOS>MOLECULE
HOH1644
1 0
SMALL
USER_CHARGES


@<TRIPOS>ATOM
1 O 33.4799995422363 13.7080001831055 24.0279998779297 O 0.0 **** 0.0
@<TRIPOS>BOND
@<TRIPOS>MOLECULE
HOH1645
1 0
SMALL
USER_CHARGES


@<TRIPOS>ATOM
1 O 62.7980003356934 21.7210006713867 5.25099992752075 O 0.0 **** 0.0
@<TRIPOS>BOND
@<TRIPOS>MOLECULE
HOH1646
1 0
SMALL
USER_CHARGES


@<TRIPOS>ATOM
1 O 27.5 37.4550018310547 47.8880004882813 O 0.0 **** 0.0
@<TRIPOS>BOND
@<TRIPOS>MOLECULE
HOH1647
1 0
SMALL
USER_CHARGES


@<TRIPOS>ATOM
1 O 21.5520000457764 41.2869987487793 12.5959997177124 O 0.0 **** 0.0
@<TRIPOS>BOND
@<TRIPOS>MOLECULE
HOH1648
1 0
SMALL
USER_CHARGES


@<TRIPOS>ATOM
1 O 27.5009994506836 20.57200050354 -10.7069997787476 O 0.0 **** 0.0
@<TRIPOS>BOND
@<TRIPOS>MOLECULE
HOH1649
1 0
SMALL
USER_CHARGES


@<TRIPOS>ATOM
1 O 16.681999206543 32.8769989013672 24.8640003204346 O 0.0 **** 0.0
@<TRIPOS>BOND
@<TRIPOS>MOLECULE
HOH1650
1 0
SMALL
USER_CHARGES


@<TRIPOS>ATOM
1 O 52.6220016479492 20.6140003204346 -26.8610000610352 O 0.0 **** 0.0
@<TRIPOS>BOND
@<TRIPOS>MOLECULE
HOH1651
1 0
SMALL
USER_CHARGES


@<TRIPOS>ATOM
1 O 52.1619987487793 25.0340003967285 -6.7020001411438 O 0.0 **** 0.0
@<TRIPOS>BOND
@<TRIPOS>MOLECULE
HOH1652
1 0
SMALL
USER_CHARGES


@<TRIPOS>ATOM
1 O 27.8770008087158 41.0859985351563 37.4379997253418 O 0.0 **** 0.0
@<TRIPOS>BOND
@<TRIPOS>MOLECULE
HOH1653
1 0
SMALL
USER_CHARGES


@<TRIPOS>ATOM
1 O 56.9630012512207 20.3330001831055 28.5060005187988 O 0.0 **** 0.0
@<TRIPOS>BOND
@<TRIPOS>MOLECULE
HOH1654
1 0
SMALL
USER_CHARGES


@<TRIPOS>ATOM
1 O 28.3239994049072 35.0919990539551 26.0149993896484 O 0.0 **** 0.0
@<TRIPOS>BOND
@<TRIPOS>MOLECULE
HOH1655
1 0
SMALL
USER_CHARGES


@<TRIPOS>ATOM
1 O 41.193000793457 15.9870004653931 5.94700002670288 O 0.0 **** 0.0
@<TRIPOS>BOND
@<TRIPOS>MOLECULE
HOH1656
1 0
SMALL
USER_CHARGES


@<TRIPOS>ATOM
1 O 28.9799995422363 18.19700050354 -9.10400009155273 O 0.0 **** 0.0
@<TRIPOS>BOND
@<TRIPOS>MOLECULE
HOH1657
1 0
SMALL
USER_CHARGES


@<TRIPOS>ATOM
1 O 42.1720008850098 17.4890003204346 -3.5 O 0.0 **** 0.0
@<TRIPOS>BOND
@<TRIPOS>MOLECULE
HOH1658
1 0
SMALL
USER_CHARGES


@<TRIPOS>ATOM
1 O 48.3689994812012 23.5389995574951 43.9300003051758 O 0.0 **** 0.0
@<TRIPOS>BOND
@<TRIPOS>MOLECULE
HOH1659
1 0
SMALL
USER_CHARGES


@<TRIPOS>ATOM
1 O 47.5929985046387 46.984001159668 26.1830005645752 O 0.0 **** 0.0
@<TRIPOS>BOND
@<TRIPOS>MOLECULE
HOH1660
1 0
SMALL
USER_CHARGES


@<TRIPOS>ATOM
1 O 33.5779991149902 34.1339988708496 -23.4669990539551 O 0.0 **** 0.0
@<TRIPOS>BOND
@<TRIPOS>MOLECULE
HOH1661
1 0
SMALL
USER_CHARGES


@<TRIPOS>ATOM
1 O 35.9679985046387 12.6110000610352 31.9379997253418 O 0.0 **** 0.0
@<TRIPOS>BOND
@<TRIPOS>MOLECULE
HOH1662
1 0
SMALL
USER_CHARGES


@<TRIPOS>ATOM
1 O 24.5160007476807 52.859001159668 42.0120010375977 O 0.0 **** 0.0
@<TRIPOS>BOND
@<TRIPOS>MOLECULE
HOH1663
1 0
SMALL
USER_CHARGES


@<TRIPOS>ATOM
1 O 18.7169990539551 35.8209991455078 18.3729991912842 O 0.0 **** 0.0
@<TRIPOS>BOND
@<TRIPOS>MOLECULE
HOH1664
1 0
SMALL
USER_CHARGES


@<TRIPOS>ATOM
1 O 39.7729988098145 17.2469997406006 -2.33800005912781 O 0.0 **** 0.0
@<TRIPOS>BOND
@<TRIPOS>MOLECULE
HOH1665
1 0
SMALL
USER_CHARGES


@<TRIPOS>ATOM
1 O 66.5530014038086 36.564998626709 27.9270000457764 O 0.0 **** 0.0
@<TRIPOS>BOND
@<TRIPOS>MOLECULE
HOH1666
1 0
SMALL
USER_CHARGES


@<TRIPOS>ATOM
1 O 38.9129981994629 17.0219993591309 7.6560001373291 O 0.0 **** 0.0
@<TRIPOS>BOND
@<TRIPOS>MOLECULE
HOH1667
1 0
SMALL
USER_CHARGES


@<TRIPOS>ATOM
1 O 50.1129989624023 38.9690017700195 -8.74899959564209 O 0.0 **** 0.0
@<TRIPOS>BOND
@<TRIPOS>MOLECULE
HOH1668
1 0
SMALL
USER_CHARGES


@<TRIPOS>ATOM
1 O 38.318000793457 25.5230007171631 47.9469985961914 O 0.0 **** 0.0
@<TRIPOS>BOND
@<TRIPOS>MOLECULE
HOH1669
1 0
SMALL
USER_CHARGES


@<TRIPOS>ATOM
1 O 31.7759990692139 55.0540008544922 27.7310009002686 O 0.0 **** 0.0
@<TRIPOS>BOND
@<TRIPOS>MOLECULE
HOH1670
1 0
SMALL
USER_CHARGES


@<TRIPOS>ATOM
1 O 37.75 7.59499979019165 -1.05499994754791 O 0.0 **** 0.0
@<TRIPOS>BOND
@<TRIPOS>MOLECULE
HOH1671
1 0
SMALL
USER_CHARGES


@<TRIPOS>ATOM
1 O 31.8209991455078 47.818000793457 -14.3190002441406 O 0.0 **** 0.0
@<TRIPOS>BOND
@<TRIPOS>MOLECULE
HOH1672
1 0
SMALL
USER_CHARGES


@<TRIPOS>ATOM
1 O 55.1809997558594 31.8729991912842 18.9209995269775 O 0.0 **** 0.0
@<TRIPOS>BOND
@<TRIPOS>MOLECULE
HOH1673
1 0
SMALL
USER_CHARGES


@<TRIPOS>ATOM
1 O 75.234001159668 24.4389991760254 23.2819995880127 O 0.0 **** 0.0
@<TRIPOS>BOND
@<TRIPOS>MOLECULE
HOH1674
1 0
SMALL
USER_CHARGES


@<TRIPOS>ATOM
1 O 59.9140014648438 5.86199998855591 27.2590007781982 O 0.0 **** 0.0
@<TRIPOS>BOND
@<TRIPOS>MOLECULE
HOH1675
1 0
SMALL
USER_CHARGES


@<TRIPOS>ATOM
1 O 34.2290000915527 15.2580003738403 33.7960014343262 O 0.0 **** 0.0
@<TRIPOS>BOND
@<TRIPOS>MOLECULE
HOH1676
1 0
SMALL
USER_CHARGES


@<TRIPOS>ATOM
1 O 28.4839992523193 28.5459995269775 1.62800002098084 O 0.0 **** 0.0
@<TRIPOS>BOND
@<TRIPOS>MOLECULE
HOH1677
1 0
SMALL
USER_CHARGES


@<TRIPOS>ATOM
1 O 46.4889984130859 1.15400004386902 -13.9230003356934 O 0.0 **** 0.0
@<TRIPOS>BOND
@<TRIPOS>MOLECULE
HOH1678
1 0
SMALL
USER_CHARGES


@<TRIPOS>ATOM
1 O 64.4879989624023 51.6290016174316 17.0499992370605 O 0.0 **** 0.0
@<TRIPOS>BOND
@<TRIPOS>MOLECULE
HOH1679
1 0
SMALL
USER_CHARGES


@<TRIPOS>ATOM
1 O 58.0480003356934 12.6389999389648 3.44600009918213 O 0.0 **** 0.0
@<TRIPOS>BOND
@<TRIPOS>MOLECULE
HOH1680
1 0
SMALL
USER_CHARGES


@<TRIPOS>ATOM
1 O 38.4500007629395 43.3839988708496 48.3409996032715 O 0.0 **** 0.0
@<TRIPOS>BOND
@<TRIPOS>MOLECULE
HOH1681
1 0
SMALL
USER_CHARGES


@<TRIPOS>ATOM
1 O 58.6990013122559 36.3009986877441 56.7879981994629 O 0.0 **** 0.0
@<TRIPOS>BOND
@<TRIPOS>MOLECULE
HOH1682
1 0
SMALL
USER_CHARGES


@<TRIPOS>ATOM
1 O 54.5820007324219 32.6910018920898 43.2159996032715 O 0.0 **** 0.0
@<TRIPOS>BOND
@<TRIPOS>MOLECULE
HOH1683
1 0
SMALL
USER_CHARGES


@<TRIPOS>ATOM
1 O 51.4309997558594 15.7329998016357 16.17799949646 O 0.0 **** 0.0
@<TRIPOS>BOND
@<TRIPOS>MOLECULE
HOH1684
1 0
SMALL
USER_CHARGES


@<TRIPOS>ATOM
1 O 63.6990013122559 47.8919982910156 32.5019989013672 O 0.0 **** 0.0
@<TRIPOS>BOND
@<TRIPOS>MOLECULE
HOH1685
1 0
SMALL
USER_CHARGES


@<TRIPOS>ATOM
1 O 27.5440006256104 33.8950004577637 28.25 O 0.0 **** 0.0
@<TRIPOS>BOND
@<TRIPOS>MOLECULE
HOH1686
1 0
SMALL
USER_CHARGES


@<TRIPOS>ATOM
1 O 24.9950008392334 42.0540008544922 38.4589996337891 O 0.0 **** 0.0
@<TRIPOS>BOND
@<TRIPOS>MOLECULE
HOH1687
1 0
SMALL
USER_CHARGES


@<TRIPOS>ATOM
1 O 53.0820007324219 27.2700004577637 42.7569999694824 O 0.0 **** 0.0
@<TRIPOS>BOND
@<TRIPOS>MOLECULE
HOH1688
1 0
SMALL
USER_CHARGES


@<TRIPOS>ATOM
1 O 44.9819984436035 17.2980003356934 51.9650001525879 O 0.0 **** 0.0
@<TRIPOS>BOND
@<TRIPOS>MOLECULE
HOH1689
1 0
SMALL
USER_CHARGES


@<TRIPOS>ATOM
1 O 54.8699989318848 12.0209999084473 15.5 O 0.0 **** 0.0
@<TRIPOS>BOND
@<TRIPOS>MOLECULE
HOH1690
1 0
SMALL
USER_CHARGES


@<TRIPOS>ATOM
1 O 35.7900009155273 32.2569999694824 41.1749992370605 O 0.0 **** 0.0
@<TRIPOS>BOND
@<TRIPOS>MOLECULE
HOH1691
1 0
SMALL
USER_CHARGES


@<TRIPOS>ATOM
1 O 41.9010009765625 48.8849983215332 -8.52700042724609 O 0.0 **** 0.0
@<TRIPOS>BOND
@<TRIPOS>MOLECULE
HOH1692
1 0
SMALL
USER_CHARGES


@<TRIPOS>ATOM
1 O 61.1259994506836 36.4819984436035 22.9069995880127 O 0.0 **** 0.0
@<TRIPOS>BOND
@<TRIPOS>MOLECULE
HOH1693
1 0
SMALL
USER_CHARGES


@<TRIPOS>ATOM
1 O 34.9650001525879 25.693000793457 -14.0939998626709 O 0.0 **** 0.0
@<TRIPOS>BOND
@<TRIPOS>MOLECULE
HOH1694
1 0
SMALL
USER_CHARGES


@<TRIPOS>ATOM
1 O 33.476001739502 45.1510009765625 -18.9060001373291 O 0.0 **** 0.0
@<TRIPOS>BOND
@<TRIPOS>MOLECULE
HOH1695
1 0
SMALL
USER_CHARGES


@<TRIPOS>ATOM
1 O 49.9790000915527 16.2229995727539 13.7829999923706 O 0.0 **** 0.0
@<TRIPOS>BOND
@<TRIPOS>MOLECULE
HOH1696
1 0
SMALL
USER_CHARGES


@<TRIPOS>ATOM
1 O 65.765998840332 21.382999420166 -0.625999987125397 O 0.0 **** 0.0
@<TRIPOS>BOND
@<TRIPOS>MOLECULE
HOH1697
1 0
SMALL
USER_CHARGES


@<TRIPOS>ATOM
1 O 35.1319999694824 10.7150001525879 -8.19799995422363 O 0.0 **** 0.0
@<TRIPOS>BOND
@<TRIPOS>MOLECULE
HOH1698
1 0
SMALL
USER_CHARGES


@<TRIPOS>ATOM
1 O 78.6070022583008 16.1919994354248 14.33899974823 O 0.0 **** 0.0
@<TRIPOS>BOND
@<TRIPOS>MOLECULE
HOH1699
1 0
SMALL
USER_CHARGES


@<TRIPOS>ATOM
1 O 51.2779998779297 43.5270004272461 7.10300016403198 O 0.0 **** 0.0
@<TRIPOS>BOND
@<TRIPOS>MOLECULE
HOH1700
1 0
SMALL
USER_CHARGES


@<TRIPOS>ATOM
1 O 30.9039993286133 58.1660003662109 22.0919990539551 O 0.0 **** 0.0
@<TRIPOS>BOND
@<TRIPOS>MOLECULE
HOH1701
1 0
SMALL
USER_CHARGES


@<TRIPOS>ATOM
1 O 40.359001159668 44.4290008544922 -26.0090007781982 O 0.0 **** 0.0
@<TRIPOS>BOND
@<TRIPOS>MOLECULE
HOH1702
1 0
SMALL
USER_CHARGES


@<TRIPOS>ATOM
1 O 34.1479988098145 32.2480010986328 18.7180004119873 O 0.0 **** 0.0
@<TRIPOS>BOND
@<TRIPOS>MOLECULE
HOH1703
1 0
SMALL
USER_CHARGES


@<TRIPOS>ATOM
1 O 27.9720001220703 42.2939987182617 -12.8859996795654 O 0.0 **** 0.0
@<TRIPOS>BOND
@<TRIPOS>MOLECULE
HOH1704
1 0
SMALL
USER_CHARGES


@<TRIPOS>ATOM
1 O 37.5890007019043 40.8769989013672 17.3729991912842 O 0.0 **** 0.0
@<TRIPOS>BOND
@<TRIPOS>MOLECULE
HOH1705
1 0
SMALL
USER_CHARGES


@<TRIPOS>ATOM
1 O 62.2019996643066 36.9379997253418 35.3689994812012 O 0.0 **** 0.0
@<TRIPOS>BOND
@<TRIPOS>MOLECULE
HOH1706
1 0
SMALL
USER_CHARGES


@<TRIPOS>ATOM
1 O 62.9690017700195 28.0550003051758 34.076000213623 O 0.0 **** 0.0
@<TRIPOS>BOND
@<TRIPOS>MOLECULE
HOH1707
1 0
SMALL
USER_CHARGES


@<TRIPOS>ATOM
1 O 37.064998626709 29.6270008087158 -12.8459997177124 O 0.0 **** 0.0
@<TRIPOS>BOND
@<TRIPOS>MOLECULE
HOH1708
1 0
SMALL
USER_CHARGES


@<TRIPOS>ATOM
1 O 53.2050018310547 8.89900016784668 -4.51999998092651 O 0.0 **** 0.0
@<TRIPOS>BOND
@<TRIPOS>MOLECULE
HOH1709
1 0
SMALL
USER_CHARGES


@<TRIPOS>ATOM
1 O 35.1049995422363 49.5870018005371 -14.2889995574951 O 0.0 **** 0.0
@<TRIPOS>BOND
@<TRIPOS>MOLECULE
HOH1710
1 0
SMALL
USER_CHARGES


@<TRIPOS>ATOM
1 O 51.326000213623 15.7659997940063 39.0929985046387 O 0.0 **** 0.0
@<TRIPOS>BOND
@<TRIPOS>MOLECULE
HOH1711
1 0
SMALL
USER_CHARGES


@<TRIPOS>ATOM
1 O 67.286003112793 20.7830009460449 29.7819995880127 O 0.0 **** 0.0
@<TRIPOS>BOND
@<TRIPOS>MOLECULE
HOH1712
1 0
SMALL
USER_CHARGES


@<TRIPOS>ATOM
1 O 62.8359985351563 27.242000579834 16.6749992370605 O 0.0 **** 0.0
@<TRIPOS>BOND
@<TRIPOS>MOLECULE
HOH1713
1 0
SMALL
USER_CHARGES


@<TRIPOS>ATOM
1 O 27.636999130249 31.8479995727539 7.97900009155273 O 0.0 **** 0.0
@<TRIPOS>BOND
@<TRIPOS>MOLECULE
HOH1714
1 0
SMALL
USER_CHARGES


@<TRIPOS>ATOM
1 O 58.0989990234375 22.7670001983643 63.0699996948242 O 0.0 **** 0.0
@<TRIPOS>BOND
@<TRIPOS>MOLECULE
HOH1715
1 0
SMALL
USER_CHARGES


@<TRIPOS>ATOM
1 O 8.52000045776367 38.1870002746582 41.048999786377 O 0.0 **** 0.0
@<TRIPOS>BOND
@<TRIPOS>MOLECULE
HOH1716
1 0
SMALL
USER_CHARGES


@<TRIPOS>ATOM
1 O 32.140998840332 27.996000289917 -11.7250003814697 O 0.0 **** 0.0
@<TRIPOS>BOND
@<TRIPOS>MOLECULE
HOH1717
1 0
SMALL
USER_CHARGES


@<TRIPOS>ATOM
1 O 51.1580009460449 43.0579986572266 2.23600006103516 O 0.0 **** 0.0
@<TRIPOS>BOND
@<TRIPOS>MOLECULE
HOH1718
1 0
SMALL
USER_CHARGES


@<TRIPOS>ATOM
1 O 17.6709995269775 33.8479995727539 39.2519989013672 O 0.0 **** 0.0
@<TRIPOS>BOND
@<TRIPOS>MOLECULE
HOH1719
1 0
SMALL
USER_CHARGES


@<TRIPOS>ATOM
1 O 41.2690010070801 42.5390014648438 -4.38899993896484 O 0.0 **** 0.0
@<TRIPOS>BOND
@<TRIPOS>MOLECULE
HOH1720
1 0
SMALL
USER_CHARGES


@<TRIPOS>ATOM
1 O 21.2719993591309 47.5530014038086 41.8709983825684 O 0.0 **** 0.0
@<TRIPOS>BOND
@<TRIPOS>MOLECULE
HOH1721
1 0
SMALL
USER_CHARGES


@<TRIPOS>ATOM
1 O 41.5299987792969 45.3979988098145 17.298999786377 O 0.0 **** 0.0
@<TRIPOS>BOND
@<TRIPOS>MOLECULE
HOH1722
1 0
SMALL
USER_CHARGES


@<TRIPOS>ATOM
1 O 57.4269981384277 17.7240009307861 38.6889991760254 O 0.0 **** 0.0
@<TRIPOS>BOND
@<TRIPOS>MOLECULE
HOH1723
1 0
SMALL
USER_CHARGES


@<TRIPOS>ATOM
1 O 29.621000289917 44.3759994506836 -11.798999786377 O 0.0 **** 0.0
@<TRIPOS>BOND
@<TRIPOS>MOLECULE
HOH1724
1 0
SMALL
USER_CHARGES


@<TRIPOS>ATOM
1 O 75.411003112793 29.0580005645752 19.4899997711182 O 0.0 **** 0.0
@<TRIPOS>BOND
@<TRIPOS>MOLECULE
HOH1725
1 0
SMALL
USER_CHARGES


@<TRIPOS>ATOM
1 O 47.492000579834 59.2970008850098 24.9270000457764 O 0.0 **** 0.0
@<TRIPOS>BOND
@<TRIPOS>MOLECULE
HOH1726
1 0
SMALL
USER_CHARGES


@<TRIPOS>ATOM
1 O 12.8520002365112 33.9990005493164 42.4230003356934 O 0.0 **** 0.0
@<TRIPOS>BOND
@<TRIPOS>MOLECULE
HOH1727
1 0
SMALL
USER_CHARGES


@<TRIPOS>ATOM
1 O 16.1380004882813 27.8439998626709 26.8400001525879 O 0.0 **** 0.0
@<TRIPOS>BOND
@<TRIPOS>MOLECULE
HOH1728
1 0
SMALL
USER_CHARGES


@<TRIPOS>ATOM
1 O 57.1110000610352 15.0839996337891 30.44700050354 O 0.0 **** 0.0
@<TRIPOS>BOND
@<TRIPOS>MOLECULE
HOH1729
1 0
SMALL
USER_CHARGES


@<TRIPOS>ATOM
1 O 35.0639991760254 31.5869998931885 -34.2509994506836 O 0.0 **** 0.0
@<TRIPOS>BOND
@<TRIPOS>MOLECULE
HOH1730
1 0
SMALL
USER_CHARGES


@<TRIPOS>ATOM
1 O 72.0 28.6529998779297 47.859001159668 O 0.0 **** 0.0
@<TRIPOS>BOND
@<TRIPOS>MOLECULE
HOH1731
1 0
SMALL
USER_CHARGES


@<TRIPOS>ATOM
1 O 27.8139991760254 56.8330001831055 28.2880001068115 O 0.0 **** 0.0
@<TRIPOS>BOND
@<TRIPOS>MOLECULE
HOH1732
1 0
SMALL
USER_CHARGES


@<TRIPOS>ATOM
1 O 20.0179996490479 52.6959991455078 33.0940017700195 O 0.0 **** 0.0
@<TRIPOS>BOND
@<TRIPOS>MOLECULE
HOH1733
1 0
SMALL
USER_CHARGES


@<TRIPOS>ATOM
1 O 37.3680000305176 35.2369995117188 -33.6920013427734 O 0.0 **** 0.0
@<TRIPOS>BOND
@<TRIPOS>MOLECULE
HOH1734
1 0
SMALL
USER_CHARGES


@<TRIPOS>ATOM
1 O 35.6040000915527 52.7900009155273 25.4659996032715 O 0.0 **** 0.0
@<TRIPOS>BOND
@<TRIPOS>MOLECULE
HOH1735
1 0
SMALL
USER_CHARGES


@<TRIPOS>ATOM
1 O 58.6800003051758 26.4729995727539 24.4190006256104 O 0.0 **** 0.0
@<TRIPOS>BOND
@<TRIPOS>MOLECULE
HOH1736
1 0
SMALL
USER_CHARGES


@<TRIPOS>ATOM
1 O 19.6399993896484 32.1049995422363 23.6119995117188 O 0.0 **** 0.0
@<TRIPOS>BOND
@<TRIPOS>MOLECULE
HOH1737
1 0
SMALL
USER_CHARGES


@<TRIPOS>ATOM
1 O 40.0730018615723 18.75 9.29199981689453 O 0.0 **** 0.0
@<TRIPOS>BOND
@<TRIPOS>MOLECULE
HOH1738
1 0
SMALL
USER_CHARGES


@<TRIPOS>ATOM
1 O 38.8110008239746 23.7350006103516 50.0139999389648 O 0.0 **** 0.0
@<TRIPOS>BOND
@<TRIPOS>MOLECULE
HOH1739
1 0
SMALL
USER_CHARGES


@<TRIPOS>ATOM
1 O 58.076000213623 43.4049987792969 36.6809997558594 O 0.0 **** 0.0
@<TRIPOS>BOND
@<TRIPOS>MOLECULE
HOH1740
1 0
SMALL
USER_CHARGES


@<TRIPOS>ATOM
1 O 27.8349990844727 44.1259994506836 45.2620010375977 O 0.0 **** 0.0
@<TRIPOS>BOND
@<TRIPOS>MOLECULE
HOH1741
1 0
SMALL
USER_CHARGES


@<TRIPOS>ATOM
1 O 4.16800022125244 38.2519989013672 40.818000793457 O 0.0 **** 0.0
@<TRIPOS>BOND
@<TRIPOS>MOLECULE
HOH1742
1 0
SMALL
USER_CHARGES


@<TRIPOS>ATOM
1 O 33.2140007019043 29.4060001373291 -14.2740001678467 O 0.0 **** 0.0
@<TRIPOS>BOND
@<TRIPOS>MOLECULE
HOH1743
1 0
SMALL
USER_CHARGES


@<TRIPOS>ATOM
1 O 55.6150016784668 19.2940006256104 12.3800001144409 O 0.0 **** 0.0
@<TRIPOS>BOND
@<TRIPOS>MOLECULE
HOH1744
1 0
SMALL
USER_CHARGES


@<TRIPOS>ATOM
1 O 33.6590003967285 22.2450008392334 32.1290016174316 O 0.0 **** 0.0
@<TRIPOS>BOND
@<TRIPOS>MOLECULE
HOH1745
1 0
SMALL
USER_CHARGES


@<TRIPOS>ATOM
1 O 23.5930004119873 50.0690002441406 33.3950004577637 O 0.0 **** 0.0
@<TRIPOS>BOND
@<TRIPOS>MOLECULE
HOH1746
1 0
SMALL
USER_CHARGES


@<TRIPOS>ATOM
1 O 36.9669990539551 32.9169998168945 -35.3969993591309 O 0.0 **** 0.0
@<TRIPOS>BOND
@<TRIPOS>MOLECULE
HOH1747
1 0
SMALL
USER_CHARGES


@<TRIPOS>ATOM
1 O 39.9939994812012 16.2339992523193 23.4200000762939 O 0.0 **** 0.0
@<TRIPOS>BOND
@<TRIPOS>MOLECULE
HOH1748
1 0
SMALL
USER_CHARGES


@<TRIPOS>ATOM
1 O 45.6599998474121 30.0990009307861 64.6780014038086 O 0.0 **** 0.0
@<TRIPOS>BOND
@<TRIPOS>MOLECULE
HOH1749
1 0
SMALL
USER_CHARGES


@<TRIPOS>ATOM
1 O 29.2080001831055 50.0870018005371 42.4259986877441 O 0.0 **** 0.0
@<TRIPOS>BOND
@<TRIPOS>MOLECULE
HOH1750
1 0
SMALL
USER_CHARGES


@<TRIPOS>ATOM
1 O 56.5169982910156 40.2589988708496 4.29300022125244 O 0.0 **** 0.0
@<TRIPOS>BOND
@<TRIPOS>MOLECULE
HOH1751
1 0
SMALL
USER_CHARGES


@<TRIPOS>ATOM
1 O 31.2709999084473 28.1900005340576 -22.2029991149902 O 0.0 **** 0.0
@<TRIPOS>BOND
@<TRIPOS>MOLECULE
HOH1752
1 0
SMALL
USER_CHARGES


@<TRIPOS>ATOM
1 O 46.7319984436035 58.7039985656738 21.7830009460449 O 0.0 **** 0.0
@<TRIPOS>BOND
@<TRIPOS>MOLECULE
HOH1753
1 0
SMALL
USER_CHARGES


@<TRIPOS>ATOM
1 O 34.8059997558594 45.6940002441406 46.7519989013672 O 0.0 **** 0.0
@<TRIPOS>BOND
@<TRIPOS>MOLECULE
HOH1754
1 0
SMALL
USER_CHARGES


@<TRIPOS>ATOM
1 O 50.1430015563965 9.28600025177002 1.91100001335144 O 0.0 **** 0.0
@<TRIPOS>BOND
@<TRIPOS>MOLECULE
HOH1755
1 0
SMALL
USER_CHARGES


@<TRIPOS>ATOM
1 O 57.4099998474121 48.3440017700195 31.5389995574951 O 0.0 **** 0.0
@<TRIPOS>BOND
@<TRIPOS>MOLECULE
HOH1756
1 0
SMALL
USER_CHARGES


@<TRIPOS>ATOM
1 O 55.8779983520508 12.548999786377 11.1909999847412 O 0.0 **** 0.0
@<TRIPOS>BOND
@<TRIPOS>MOLECULE
HOH1757
1 0
SMALL
USER_CHARGES


@<TRIPOS>ATOM
1 O 31.2369995117188 46.6399993896484 17.2029991149902 O 0.0 **** 0.0
@<TRIPOS>BOND
@<TRIPOS>MOLECULE
HOH1758
1 0
SMALL
USER_CHARGES


@<TRIPOS>ATOM
1 O 31.5289993286133 15.0620002746582 12.1529998779297 O 0.0 **** 0.0
@<TRIPOS>BOND
@<TRIPOS>MOLECULE
HOH1759
1 0
SMALL
USER_CHARGES


@<TRIPOS>ATOM
1 O 63.0960006713867 8.86299991607666 10.8660001754761 O 0.0 **** 0.0
@<TRIPOS>BOND
@<TRIPOS>MOLECULE
HOH1760
1 0
SMALL
USER_CHARGES


@<TRIPOS>ATOM
1 O 48.1749992370605 41.4300003051758 -22.7210006713867 O 0.0 **** 0.0
@<TRIPOS>BOND
@<TRIPOS>MOLECULE
HOH1761
1 0
SMALL
USER_CHARGES


@<TRIPOS>ATOM
1 O 54.1749992370605 31.1229991912842 4.04899978637695 O 0.0 **** 0.0
@<TRIPOS>BOND
@<TRIPOS>MOLECULE
HOH1762
1 0
SMALL
USER_CHARGES


@<TRIPOS>ATOM
1 O 38.4070014953613 44.2369995117188 -24.5389995574951 O 0.0 **** 0.0
@<TRIPOS>BOND
@<TRIPOS>MOLECULE
HOH1763
1 0
SMALL
USER_CHARGES


@<TRIPOS>ATOM
1 O 59.0550003051758 28.6270008087158 60.3030014038086 O 0.0 **** 0.0
@<TRIPOS>BOND
@<TRIPOS>MOLECULE
HOH1764
1 0
SMALL
USER_CHARGES


@<TRIPOS>ATOM
1 O 35.4620018005371 31.3330001831055 46.2639999389648 O 0.0 **** 0.0
@<TRIPOS>BOND
@<TRIPOS>MOLECULE
HOH1765
1 0
SMALL
USER_CHARGES


@<TRIPOS>ATOM
1 O 43.9309997558594 33.8219985961914 -30.7049999237061 O 0.0 **** 0.0
@<TRIPOS>BOND
@<TRIPOS>MOLECULE
HOH1766
1 0
SMALL
USER_CHARGES


@<TRIPOS>ATOM
1 O 63.3580017089844 36.5219993591309 42.3170013427734 O 0.0 **** 0.0
@<TRIPOS>BOND
@<TRIPOS>MOLECULE
HOH1767
1 0
SMALL
USER_CHARGES


@<TRIPOS>ATOM
1 O 29.5100002288818 15.5200004577637 15.210000038147 O 0.0 **** 0.0
@<TRIPOS>BOND
@<TRIPOS>MOLECULE
HOH1768
1 0
SMALL
USER_CHARGES


@<TRIPOS>ATOM
1 O 45.3919982910156 25.3939990997314 6.19000005722046 O 0.0 **** 0.0
@<TRIPOS>BOND
@<TRIPOS>MOLECULE
HOH1769
1 0
SMALL
USER_CHARGES


@<TRIPOS>ATOM
1 O 40.5970001220703 43.9749984741211 -2.17899990081787 O 0.0 **** 0.0
@<TRIPOS>BOND
@<TRIPOS>MOLECULE
HOH1770
1 0
SMALL
USER_CHARGES


@<TRIPOS>ATOM
1 O 58.3440017700195 17.1459999084473 28.4249992370605 O 0.0 **** 0.0
@<TRIPOS>BOND
@<TRIPOS>MOLECULE
HOH1771
1 0
SMALL
USER_CHARGES


@<TRIPOS>ATOM
1 O 35.2299995422363 22.2329998016357 2.63700008392334 O 0.0 **** 0.0
@<TRIPOS>BOND
@<TRIPOS>MOLECULE
HOH1772
1 0
SMALL
USER_CHARGES


@<TRIPOS>ATOM
1 O 40.4620018005371 43.5579986572266 -28.5970001220703 O 0.0 **** 0.0
@<TRIPOS>BOND
@<TRIPOS>MOLECULE
HOH1773
1 0
SMALL
USER_CHARGES


@<TRIPOS>ATOM
1 O 11.6059999465942 39.726001739502 24.5629997253418 O 0.0 **** 0.0
@<TRIPOS>BOND
@<TRIPOS>MOLECULE
HOH1774
1 0
SMALL
USER_CHARGES


@<TRIPOS>ATOM
1 O 11.6859998703003 44.8120002746582 32.6199989318848 O 0.0 **** 0.0
@<TRIPOS>BOND
@<TRIPOS>MOLECULE
HOH1775
1 0
SMALL
USER_CHARGES


@<TRIPOS>ATOM
1 O 71.4290008544922 12.5839996337891 20.701000213623 O 0.0 **** 0.0
@<TRIPOS>BOND
@<TRIPOS>MOLECULE
HOH1776
1 0
SMALL
USER_CHARGES


@<TRIPOS>ATOM
1 O 8.16600036621094 45.2280006408691 36.1110000610352 O 0.0 **** 0.0
@<TRIPOS>BOND
@<TRIPOS>MOLECULE
HOH1777
1 0
SMALL
USER_CHARGES


@<TRIPOS>ATOM
1 O 66.9990005493164 21.0900001525879 44.2550010681152 O 0.0 **** 0.0
@<TRIPOS>BOND
@<TRIPOS>MOLECULE
HOH1778
1 0
SMALL
USER_CHARGES


@<TRIPOS>ATOM
1 O 13.5520000457764 19.8390007019043 55.3680000305176 O 0.0 **** 0.0
@<TRIPOS>BOND
@<TRIPOS>MOLECULE
HOH1779
1 0
SMALL
USER_CHARGES


@<TRIPOS>ATOM
1 O 16.2999992370605 29.2940006256104 23.8330001831055 O 0.0 **** 0.0
@<TRIPOS>BOND
@<TRIPOS>MOLECULE
HOH1780
1 0
SMALL
USER_CHARGES


@<TRIPOS>ATOM
1 O 53.1180000305176 27.1450004577637 62.6790008544922 O 0.0 **** 0.0
@<TRIPOS>BOND
@<TRIPOS>MOLECULE
HOH1781
1 0
SMALL
USER_CHARGES


@<TRIPOS>ATOM
1 O 21.451000213623 38.2939987182617 12.3210000991821 O 0.0 **** 0.0
@<TRIPOS>BOND
@<TRIPOS>MOLECULE
HOH1782
1 0
SMALL
USER_CHARGES


@<TRIPOS>ATOM
1 O 29.7730007171631 34.1300010681152 -2.52800011634827 O 0.0 **** 0.0
@<TRIPOS>BOND
@<TRIPOS>MOLECULE
HOH1783
1 0
SMALL
USER_CHARGES


@<TRIPOS>ATOM
1 O 29.8190002441406 44.4210014343262 -0.368999987840652 O 0.0 **** 0.0
@<TRIPOS>BOND
@<TRIPOS>MOLECULE
HOH1784
1 0
SMALL
USER_CHARGES


@<TRIPOS>ATOM
1 O 30.5900001525879 38.2519989013672 12.7639999389648 O 0.0 **** 0.0
@<TRIPOS>BOND
@<TRIPOS>MOLECULE
HOH1785
1 0
SMALL
USER_CHARGES


@<TRIPOS>ATOM
1 O 69.5169982910156 23.6830005645752 30.1119995117188 O 0.0 **** 0.0
@<TRIPOS>BOND
@<TRIPOS>MOLECULE
HOH1786
1 0
SMALL
USER_CHARGES


@<TRIPOS>ATOM
1 O 34.726001739502 29.6480007171631 52.3120002746582 O 0.0 **** 0.0
@<TRIPOS>BOND
@<TRIPOS>MOLECULE
HOH1787
1 0
SMALL
USER_CHARGES


@<TRIPOS>ATOM
1 O 51.5559997558594 40.3380012512207 -17.5170001983643 O 0.0 **** 0.0
@<TRIPOS>BOND
@<TRIPOS>MOLECULE
HOH1788
1 0
SMALL
USER_CHARGES


@<TRIPOS>ATOM
1 O 25.0090007781982 54.1940002441406 16.8159999847412 O 0.0 **** 0.0
@<TRIPOS>BOND
@<TRIPOS>MOLECULE
HOH1789
1 0
SMALL
USER_CHARGES


@<TRIPOS>ATOM
1 O 49.3860015869141 33.6310005187988 56.5849990844727 O 0.0 **** 0.0
@<TRIPOS>BOND
@<TRIPOS>MOLECULE
HOH1790
1 0
SMALL
USER_CHARGES


@<TRIPOS>ATOM
1 O 76.0210037231445 22.1009998321533 1.55999994277954 O 0.0 **** 0.0
@<TRIPOS>BOND
@<TRIPOS>MOLECULE
HOH1791
1 0
SMALL
USER_CHARGES


@<TRIPOS>ATOM
1 O 50.5540008544922 41.6829986572266 -15.3380002975464 O 0.0 **** 0.0
@<TRIPOS>BOND
@<TRIPOS>MOLECULE
HOH1792
1 0
SMALL
USER_CHARGES


@<TRIPOS>ATOM
1 O 19.2910003662109 37.1199989318848 10.9180002212524 O 0.0 **** 0.0
@<TRIPOS>BOND
@<TRIPOS>MOLECULE
HOH1793
1 0
SMALL
USER_CHARGES


@<TRIPOS>ATOM
1 O 61.851001739502 19.5410003662109 28.4389991760254 O 0.0 **** 0.0
@<TRIPOS>BOND
@<TRIPOS>MOLECULE
HOH1794
1 0
SMALL
USER_CHARGES


@<TRIPOS>ATOM
1 O 43.3289985656738 54.2550010681152 23.6979999542236 O 0.0 **** 0.0
@<TRIPOS>BOND
@<TRIPOS>MOLECULE
HOH1795
1 0
SMALL
USER_CHARGES


@<TRIPOS>ATOM
1 O 50.1339988708496 0.677999973297119 -19.7220001220703 O 0.0 **** 0.0
@<TRIPOS>BOND
@<TRIPOS>MOLECULE
HOH1796
1 0
SMALL
USER_CHARGES


@<TRIPOS>ATOM
1 O 68.3529968261719 10.4029998779297 22.1049995422363 O 0.0 **** 0.0
@<TRIPOS>BOND
@<TRIPOS>MOLECULE
HOH1797
1 0
SMALL
USER_CHARGES


@<TRIPOS>ATOM
1 O 11.7849998474121 23.4619998931885 25.2169990539551 O 0.0 **** 0.0
@<TRIPOS>BOND
@<TRIPOS>MOLECULE
HOH1798
1 0
SMALL
USER_CHARGES


@<TRIPOS>ATOM
1 O 63.0859985351563 37.4500007629395 20.488000869751 O 0.0 **** 0.0
@<TRIPOS>BOND
@<TRIPOS>MOLECULE
HOH1799
1 0
SMALL
USER_CHARGES


@<TRIPOS>ATOM
1 O 40.7210006713867 54.0480003356934 32.0979995727539 O 0.0 **** 0.0
@<TRIPOS>BOND
@<TRIPOS>MOLECULE
HOH1800
1 0
SMALL
USER_CHARGES


@<TRIPOS>ATOM
1 O 56.173999786377 42.6780014038086 8.40100002288818 O 0.0 **** 0.0
@<TRIPOS>BOND
@<TRIPOS>MOLECULE
HOH1801
1 0
SMALL
USER_CHARGES


@<TRIPOS>ATOM
1 O 71.8550033569336 4.53399991989136 13.3610000610352 O 0.0 **** 0.0
@<TRIPOS>BOND
@<TRIPOS>MOLECULE
HOH1802
1 0
SMALL
USER_CHARGES


@<TRIPOS>ATOM
1 O 9.35200023651123 30.8199996948242 43.0839996337891 O 0.0 **** 0.0
@<TRIPOS>BOND
@<TRIPOS>MOLECULE
HOH1803
1 0
SMALL
USER_CHARGES


@<TRIPOS>ATOM
1 O 60.4669990539551 5.42899990081787 19.3570003509521 O 0.0 **** 0.0
@<TRIPOS>BOND
@<TRIPOS>MOLECULE
HOH1804
1 0
SMALL
USER_CHARGES


@<TRIPOS>ATOM
1 O 39.4140014648438 55.6310005187988 24.6019992828369 O 0.0 **** 0.0
@<TRIPOS>BOND
@<TRIPOS>MOLECULE
HOH1805
1 0
SMALL
USER_CHARGES


@<TRIPOS>ATOM
1 O 63.7869987487793 34.9329986572266 53.9010009765625 O 0.0 **** 0.0
@<TRIPOS>BOND
@<TRIPOS>MOLECULE
HOH1806
1 0
SMALL
USER_CHARGES


@<TRIPOS>ATOM
1 O 37.9609985351563 47.201000213623 14.6379995346069 O 0.0 **** 0.0
@<TRIPOS>BOND
@<TRIPOS>MOLECULE
HOH1807
1 0
SMALL
USER_CHARGES


@<TRIPOS>ATOM
1 O 40.9249992370605 55.7540016174316 34.6940002441406 O 0.0 **** 0.0
@<TRIPOS>BOND
@<TRIPOS>MOLECULE
HOH1808
1 0
SMALL
USER_CHARGES


@<TRIPOS>ATOM
1 O 42.140998840332 15.8879995346069 21.9780006408691 O 0.0 **** 0.0
@<TRIPOS>BOND
@<TRIPOS>MOLECULE
HOH1809
1 0
SMALL
USER_CHARGES


@<TRIPOS>ATOM
1 O 50.7060012817383 6.93300008773804 18.4190006256104 O 0.0 **** 0.0
@<TRIPOS>BOND
@<TRIPOS>MOLECULE
HOH1810
1 0
SMALL
USER_CHARGES


@<TRIPOS>ATOM
1 O 23.5610008239746 23.3899993896484 -1.71399998664856 O 0.0 **** 0.0
@<TRIPOS>BOND
@<TRIPOS>MOLECULE
HOH1811
1 0
SMALL
USER_CHARGES


@<TRIPOS>ATOM
1 O 66.6999969482422 43.0099983215332 17.0620002746582 O 0.0 **** 0.0
@<TRIPOS>BOND
@<TRIPOS>MOLECULE
HOH1812
1 0
SMALL
USER_CHARGES


@<TRIPOS>ATOM
1 O 50.4490013122559 35.7080001831055 56.4249992370605 O 0.0 **** 0.0
@<TRIPOS>BOND
@<TRIPOS>MOLECULE
HOH1813
1 0
SMALL
USER_CHARGES


@<TRIPOS>ATOM
1 O 32.6679992675781 38.6669998168945 51.4129981994629 O 0.0 **** 0.0
@<TRIPOS>BOND
@<TRIPOS>MOLECULE
HOH1814
1 0
SMALL
USER_CHARGES


@<TRIPOS>ATOM
1 O 76.3679962158203 8.7189998626709 16.4300003051758 O 0.0 **** 0.0
@<TRIPOS>BOND
@<TRIPOS>MOLECULE
HOH1815
1 0
SMALL
USER_CHARGES


@<TRIPOS>ATOM
1 O 65.2050018310547 27.75 16.6469993591309 O 0.0 **** 0.0
@<TRIPOS>BOND
@<TRIPOS>MOLECULE
HOH1816
1 0
SMALL
USER_CHARGES


@<TRIPOS>ATOM
1 O 36.9869995117188 31.8689994812012 38.7980003356934 O 0.0 **** 0.0
@<TRIPOS>BOND
@<TRIPOS>MOLECULE
HOH1817
1 0
SMALL
USER_CHARGES


@<TRIPOS>ATOM
1 O 72.9980010986328 9.09200000762939 20.80299949646 O 0.0 **** 0.0
@<TRIPOS>BOND
@<TRIPOS>MOLECULE
HOH1818
1 0
SMALL
USER_CHARGES


@<TRIPOS>ATOM
1 O 48.8370018005371 52.4500007629395 36.7050018310547 O 0.0 **** 0.0
@<TRIPOS>BOND
@<TRIPOS>MOLECULE
HOH1819
1 0
SMALL
USER_CHARGES


@<TRIPOS>ATOM
1 O 45.5929985046387 33.0999984741211 53.0289993286133 O 0.0 **** 0.0
@<TRIPOS>BOND
@<TRIPOS>MOLECULE
HOH1820
1 0
SMALL
USER_CHARGES


@<TRIPOS>ATOM
1 O 73.0869979858398 4.15700006484985 1.89699995517731 O 0.0 **** 0.0
@<TRIPOS>BOND
@<TRIPOS>MOLECULE
HOH1821
1 0
SMALL
USER_CHARGES


@<TRIPOS>ATOM
1 O 74.0709991455078 10.173999786377 23.9810009002686 O 0.0 **** 0.0
@<TRIPOS>BOND
@<TRIPOS>MOLECULE
HOH1822
1 0
SMALL
USER_CHARGES


@<TRIPOS>ATOM
1 O 33.068000793457 11.8920001983643 -23.1709995269775 O 0.0 **** 0.0
@<TRIPOS>BOND
@<TRIPOS>MOLECULE
HOH1823
1 0
SMALL
USER_CHARGES


@<TRIPOS>ATOM
1 O 70.9599990844727 33.0139999389648 51.7439994812012 O 0.0 **** 0.0
@<TRIPOS>BOND
@<TRIPOS>MOLECULE
HOH1824
1 0
SMALL
USER_CHARGES


@<TRIPOS>ATOM
1 O 25.0370006561279 24.3110008239746 -7.45100021362305 O 0.0 **** 0.0
@<TRIPOS>BOND
@<TRIPOS>MOLECULE
HOH1825
1 0
SMALL
USER_CHARGES


@<TRIPOS>ATOM
1 O 46.9070014953613 34.8969993591309 55.7070007324219 O 0.0 **** 0.0
@<TRIPOS>BOND
@<TRIPOS>MOLECULE
HOH1826
1 0
SMALL
USER_CHARGES


@<TRIPOS>ATOM
1 O 47.7900009155273 15.2430000305176 54.7649993896484 O 0.0 **** 0.0
@<TRIPOS>BOND
@<TRIPOS>MOLECULE
HOH1827
1 0
SMALL
USER_CHARGES


@<TRIPOS>ATOM
1 O 75.3669967651367 4.53800010681152 8.47500038146973 O 0.0 **** 0.0
@<TRIPOS>BOND
@<TRIPOS>MOLECULE
HOH1828
1 0
SMALL
USER_CHARGES


@<TRIPOS>ATOM
1 O 61.7120018005371 52.148998260498 25.6040000915527 O 0.0 **** 0.0
@<TRIPOS>BOND
@<TRIPOS>MOLECULE
HOH1829
1 0
SMALL
USER_CHARGES


@<TRIPOS>ATOM
1 O 69.4830017089844 34.4710006713867 32.8230018615723 O 0.0 **** 0.0
@<TRIPOS>BOND
@<TRIPOS>MOLECULE
HOH1830
1 0
SMALL
USER_CHARGES


@<TRIPOS>ATOM
1 O 37.4119987487793 42.0330009460449 -27.4720001220703 O 0.0 **** 0.0
@<TRIPOS>BOND
@<TRIPOS>MOLECULE
HOH1831
1 0
SMALL
USER_CHARGES


@<TRIPOS>ATOM
1 O 42.148998260498 43.0110015869141 48.773998260498 O 0.0 **** 0.0
@<TRIPOS>BOND
@<TRIPOS>MOLECULE
HOH1832
1 0
SMALL
USER_CHARGES


@<TRIPOS>ATOM
1 O 17.9029998779297 30.6350002288818 19.742000579834 O 0.0 **** 0.0
@<TRIPOS>BOND
@<TRIPOS>MOLECULE
HOH1833
1 0
SMALL
USER_CHARGES


@<TRIPOS>ATOM
1 O 56.9300003051758 30.8619995117188 4.43200016021729 O 0.0 **** 0.0
@<TRIPOS>BOND
@<TRIPOS>MOLECULE
HOH1834
1 0
SMALL
USER_CHARGES


@<TRIPOS>ATOM
1 O 29.951000213623 16.4389991760254 8.58500003814697 O 0.0 **** 0.0
@<TRIPOS>BOND
@<TRIPOS>MOLECULE
HOH1835
1 0
SMALL
USER_CHARGES


@<TRIPOS>ATOM
1 O 65.0839996337891 6.76200008392334 11.4010000228882 O 0.0 **** 0.0
@<TRIPOS>BOND
@<TRIPOS>MOLECULE
HOH1836
1 0
SMALL
USER_CHARGES


@<TRIPOS>ATOM
1 O 44.2729988098145 22.818000793457 42.2610015869141 O 0.0 **** 0.0
@<TRIPOS>BOND
@<TRIPOS>MOLECULE
HOH1837
1 0
SMALL
USER_CHARGES


@<TRIPOS>ATOM
1 O 60.2220001220703 47.9580001831055 33.1040000915527 O 0.0 **** 0.0
@<TRIPOS>BOND
@<TRIPOS>MOLECULE
HOH1838
1 0
SMALL
USER_CHARGES


@<TRIPOS>ATOM
1 O 36.0579986572266 23.8470001220703 47.6240005493164 O 0.0 **** 0.0
@<TRIPOS>BOND
@<TRIPOS>MOLECULE
HOH1839
1 0
SMALL
USER_CHARGES


@<TRIPOS>ATOM
1 O 15.6199998855591 51.9329986572266 28.8990001678467 O 0.0 **** 0.0
@<TRIPOS>BOND
@<TRIPOS>MOLECULE
HOH1840
1 0
SMALL
USER_CHARGES


@<TRIPOS>ATOM
1 O 35.9790000915527 14.1000003814697 -1.70299994945526 O 0.0 **** 0.0
@<TRIPOS>BOND
@<TRIPOS>MOLECULE
HOH1841
1 0
SMALL
USER_CHARGES


@<TRIPOS>ATOM
1 O 55.2709999084473 65.0849990844727 12.1090002059937 O 0.0 **** 0.0
@<TRIPOS>BOND
@<TRIPOS>MOLECULE
HOH1842
1 0
SMALL
USER_CHARGES


@<TRIPOS>ATOM
1 O 29.0170001983643 27.6490001678467 -23.1749992370605 O 0.0 **** 0.0
@<TRIPOS>BOND
@<TRIPOS>MOLECULE
HOH1843
1 0
SMALL
USER_CHARGES


@<TRIPOS>ATOM
1 O 66.9209976196289 34.7939987182617 25.7059993743896 O 0.0 **** 0.0
@<TRIPOS>BOND
@<TRIPOS>MOLECULE
HOH1844
1 0
SMALL
USER_CHARGES


@<TRIPOS>ATOM
1 O 41.7669982910156 15.9079999923706 59.6269989013672 O 0.0 **** 0.0
@<TRIPOS>BOND
@<TRIPOS>MOLECULE
HOH1845
1 0
SMALL
USER_CHARGES


@<TRIPOS>ATOM
1 O 76.6190032958984 8.89400005340576 23.1019992828369 O 0.0 **** 0.0
@<TRIPOS>BOND
@<TRIPOS>MOLECULE
HOH1846
1 0
SMALL
USER_CHARGES


@<TRIPOS>ATOM
1 O 47.1370010375977 14.5329999923706 15.9840002059937 O 0.0 **** 0.0
@<TRIPOS>BOND
@<TRIPOS>MOLECULE
HOH1847
1 0
SMALL
USER_CHARGES


@<TRIPOS>ATOM
1 O 61.1389999389648 10.6669998168945 7.78999996185303 O 0.0 **** 0.0
@<TRIPOS>BOND
@<TRIPOS>MOLECULE
HOH1848
1 0
SMALL
USER_CHARGES


@<TRIPOS>ATOM
1 O 39.6339988708496 22.8719997406006 -24.7290000915527 O 0.0 **** 0.0
@<TRIPOS>BOND
@<TRIPOS>MOLECULE
HOH1849
1 0
SMALL
USER_CHARGES


@<TRIPOS>ATOM
1 O 29.1660003662109 32.7350006103516 5.63299989700317 O 0.0 **** 0.0
@<TRIPOS>BOND
@<TRIPOS>MOLECULE
HOH1850
1 0
SMALL
USER_CHARGES


@<TRIPOS>ATOM
1 O 16.0450000762939 43.4980010986328 44.0849990844727 O 0.0 **** 0.0
@<TRIPOS>BOND
@<TRIPOS>MOLECULE
HOH1851
1 0
SMALL
USER_CHARGES


@<TRIPOS>ATOM
1 O 29.2140007019043 46.242000579834 -13.8030004501343 O 0.0 **** 0.0
@<TRIPOS>BOND
@<TRIPOS>MOLECULE
HOH1852
1 0
SMALL
USER_CHARGES


@<TRIPOS>ATOM
1 O 58.7690010070801 34.4290008544922 6.61199998855591 O 0.0 **** 0.0
@<TRIPOS>BOND
@<TRIPOS>MOLECULE
HOH1853
1 0
SMALL
USER_CHARGES


@<TRIPOS>ATOM
1 O 42.3110008239746 46.9459991455078 46.9830017089844 O 0.0 **** 0.0
@<TRIPOS>BOND
@<TRIPOS>MOLECULE
HOH1854
1 0
SMALL
USER_CHARGES


@<TRIPOS>ATOM
1 O 63.4650001525879 49.4309997558594 21.1609992980957 O 0.0 **** 0.0
@<TRIPOS>BOND
@<TRIPOS>MOLECULE
HOH1855
1 0
SMALL
USER_CHARGES


@<TRIPOS>ATOM
1 O 59.1920013427734 18.3190002441406 34.7470016479492 O 0.0 **** 0.0
@<TRIPOS>BOND
@<TRIPOS>MOLECULE
HOH1856
1 0
SMALL
USER_CHARGES


@<TRIPOS>ATOM
1 O 42.2709999084473 48.693000793457 45.3520011901855 O 0.0 **** 0.0
@<TRIPOS>BOND
@<TRIPOS>MOLECULE
HOH1857
1 0
SMALL
USER_CHARGES


@<TRIPOS>ATOM
1 O 49.5660018920898 48.4080009460449 44.5859985351563 O 0.0 **** 0.0
@<TRIPOS>BOND
@<TRIPOS>MOLECULE
HOH1858
1 0
SMALL
USER_CHARGES


@<TRIPOS>ATOM
1 O 55.3569984436035 37.7439994812012 48.8320007324219 O 0.0 **** 0.0
@<TRIPOS>BOND
@<TRIPOS>MOLECULE
HOH1859
1 0
SMALL
USER_CHARGES


@<TRIPOS>ATOM
1 O 40.2039985656738 41.5699996948242 49.2919998168945 O 0.0 **** 0.0
@<TRIPOS>BOND
@<TRIPOS>MOLECULE
HOH1860
1 0
SMALL
USER_CHARGES


@<TRIPOS>ATOM
1 O 27.2870006561279 55.4970016479492 31.8400001525879 O 0.0 **** 0.0
@<TRIPOS>BOND
@<TRIPOS>MOLECULE
HOH1861
1 0
SMALL
USER_CHARGES


@<TRIPOS>ATOM
1 O 45.9869995117188 24.125 44.4090003967285 O 0.0 **** 0.0
@<TRIPOS>BOND
@<TRIPOS>MOLECULE
HOH1862
1 0
SMALL
USER_CHARGES


@<TRIPOS>ATOM
1 O 35.6290016174316 21.7350006103516 46.4500007629395 O 0.0 **** 0.0
@<TRIPOS>BOND
@<TRIPOS>MOLECULE
HOH1863
1 0
SMALL
USER_CHARGES


@<TRIPOS>ATOM
1 O 32.5260009765625 26.9340000152588 -20.7390003204346 O 0.0 **** 0.0
@<TRIPOS>BOND
@<TRIPOS>MOLECULE
HOH1864
1 0
SMALL
USER_CHARGES


@<TRIPOS>ATOM
1 O 53.4490013122559 13.2829999923706 12.0249996185303 O 0.0 **** 0.0
@<TRIPOS>BOND
@<TRIPOS>MOLECULE
HOH1865
1 0
SMALL
USER_CHARGES


@<TRIPOS>ATOM
1 O 27.2590007781982 32.0219993591309 -23.1070003509521 O 0.0 **** 0.0
@<TRIPOS>BOND
@<TRIPOS>MOLECULE
HOH1866
1 0
SMALL
USER_CHARGES


@<TRIPOS>ATOM
1 O 54.4280014038086 38.4669990539551 45.6500015258789 O 0.0 **** 0.0
@<TRIPOS>BOND
@<TRIPOS>MOLECULE
HOH1867
1 0
SMALL
USER_CHARGES


@<TRIPOS>ATOM
1 O 61.8279991149902 18.2399997711182 36.1370010375977 O 0.0 **** 0.0
@<TRIPOS>BOND
@<TRIPOS>MOLECULE
HOH1868
1 0
SMALL
USER_CHARGES


@<TRIPOS>ATOM
1 O 29.132999420166 40.8089981079102 2.38299989700317 O 0.0 **** 0.0
@<TRIPOS>BOND
@<TRIPOS>MOLECULE
HOH1869
1 0
SMALL
USER_CHARGES


@<TRIPOS>ATOM
1 O 58.1500015258789 38.3269996643066 41.4980010986328 O 0.0 **** 0.0
@<TRIPOS>BOND
@<TRIPOS>MOLECULE
HOH1870
1 0
SMALL
USER_CHARGES


@<TRIPOS>ATOM
1 O 37.9830017089844 15.9259996414185 9.92800045013428 O 0.0 **** 0.0
@<TRIPOS>BOND
@<TRIPOS>MOLECULE
HOH1871
1 0
SMALL
USER_CHARGES


@<TRIPOS>ATOM
1 O 52.867000579834 27.378999710083 -2.76900005340576 O 0.0 **** 0.0
@<TRIPOS>BOND
@<TRIPOS>MOLECULE
HOH1872
1 0
SMALL
USER_CHARGES


@<TRIPOS>ATOM
1 O 62.132999420166 27.9290008544922 13.871000289917 O 0.0 **** 0.0
@<TRIPOS>BOND
@<TRIPOS>MOLECULE
HOH1873
1 0
SMALL
USER_CHARGES


@<TRIPOS>ATOM
1 O 59.6879997253418 35.8880004882813 45.4220008850098 O 0.0 **** 0.0
@<TRIPOS>BOND
@<TRIPOS>MOLECULE
HOH1874
1 0
SMALL
USER_CHARGES


@<TRIPOS>ATOM
1 O 62.6539993286133 37.2779998779297 37.9640007019043 O 0.0 **** 0.0
@<TRIPOS>BOND
@<TRIPOS>MOLECULE
HOH1875
1 0
SMALL
USER_CHARGES


@<TRIPOS>ATOM
1 O 40.431999206543 14.3059997558594 58.4440002441406 O 0.0 **** 0.0
@<TRIPOS>BOND
@<TRIPOS>MOLECULE
HOH1876
1 0
SMALL
USER_CHARGES


@<TRIPOS>ATOM
1 O 65.379997253418 19.0890007019043 34.8959999084473 O 0.0 **** 0.0
@<TRIPOS>BOND
@<TRIPOS>MOLECULE
HOH1877
1 0
SMALL
USER_CHARGES


@<TRIPOS>ATOM
1 O 40.1100006103516 19.9230003356934 65.6750030517578 O 0.0 **** 0.0
@<TRIPOS>BOND
@<TRIPOS>MOLECULE
HOH1878
1 0
SMALL
USER_CHARGES


@<TRIPOS>ATOM
1 O 45.0999984741211 44.5639991760254 8.76000022888184 O 0.0 **** 0.0
@<TRIPOS>BOND
@<TRIPOS>MOLECULE
HOH1879
1 0
SMALL
USER_CHARGES


@<TRIPOS>ATOM
1 O 64.8000030517578 5.41499996185303 13.4829998016357 O 0.0 **** 0.0
@<TRIPOS>BOND
@<TRIPOS>MOLECULE
HOH1880
1 0
SMALL
USER_CHARGES


@<TRIPOS>ATOM
1 O 54.3619995117188 12.5559997558594 5.97200012207031 O 0.0 **** 0.0
@<TRIPOS>BOND
@<TRIPOS>MOLECULE
HOH1881
1 0
SMALL
USER_CHARGES


@<TRIPOS>ATOM
1 O 53.5209999084473 16.4629993438721 50.9609985351563 O 0.0 **** 0.0
@<TRIPOS>BOND
@<TRIPOS>MOLECULE
HOH1882
1 0
SMALL
USER_CHARGES


@<TRIPOS>ATOM
1 O 7.9980001449585 34.8540000915527 26.2730007171631 O 0.0 **** 0.0
@<TRIPOS>BOND
@<TRIPOS>MOLECULE
HOH1883
1 0
SMALL
USER_CHARGES


@<TRIPOS>ATOM
1 O 51.4259986877441 49.9550018310547 10.1599998474121 O 0.0 **** 0.0
@<TRIPOS>BOND
@<TRIPOS>MOLECULE
HOH1884
1 0
SMALL
USER_CHARGES


@<TRIPOS>ATOM
1 O 30.2520008087158 43.507999420166 46.2470016479492 O 0.0 **** 0.0
@<TRIPOS>BOND
@<TRIPOS>MOLECULE
HOH1885
1 0
SMALL
USER_CHARGES


@<TRIPOS>ATOM
1 O 75.8570022583008 7.61399984359741 20.6949996948242 O 0.0 **** 0.0
@<TRIPOS>BOND
@<TRIPOS>MOLECULE
HOH1886
1 0
SMALL
USER_CHARGES


@<TRIPOS>ATOM
1 O 7.57600021362305 37.140998840332 25.3449993133545 O 0.0 **** 0.0
@<TRIPOS>BOND
@<TRIPOS>MOLECULE
HOH1887
1 0
SMALL
USER_CHARGES


@<TRIPOS>ATOM
1 O 45.7029991149902 54.8009986877441 20.6790008544922 O 0.0 **** 0.0
@<TRIPOS>BOND
@<TRIPOS>MOLECULE
HOH1888
1 0
SMALL
USER_CHARGES


@<TRIPOS>ATOM
1 O 59.4910011291504 19.9020004272461 23.0909996032715 O 0.0 **** 0.0
@<TRIPOS>BOND
@<TRIPOS>MOLECULE
HOH1889
1 0
SMALL
USER_CHARGES


@<TRIPOS>ATOM
1 O 64.5510025024414 24.2140007019043 33.7840003967285 O 0.0 **** 0.0
@<TRIPOS>BOND
@<TRIPOS>MOLECULE
HOH1890
1 0
SMALL
USER_CHARGES


@<TRIPOS>ATOM
1 O 68.2200012207031 24.0209999084473 38.1279983520508 O 0.0 **** 0.0
@<TRIPOS>BOND
@<TRIPOS>MOLECULE
HOH1891
1 0
SMALL
USER_CHARGES


@<TRIPOS>ATOM
1 O 15.1780004501343 35.0540008544922 39.0550003051758 O 0.0 **** 0.0
@<TRIPOS>BOND
@<TRIPOS>MOLECULE
HOH1892
1 0
SMALL
USER_CHARGES


@<TRIPOS>ATOM
1 O 11.456000328064 22.4930000305176 28.2970008850098 O 0.0 **** 0.0
@<TRIPOS>BOND
@<TRIPOS>MOLECULE
HOH1893
1 0
SMALL
USER_CHARGES


@<TRIPOS>ATOM
1 O 33.1469993591309 9.88099956512451 -4.40500020980835 O 0.0 **** 0.0
@<TRIPOS>BOND
@<TRIPOS>MOLECULE
HOH1894
1 0
SMALL
USER_CHARGES


@<TRIPOS>ATOM
1 O 43.3779983520508 40.3759994506836 52.3650016784668 O 0.0 **** 0.0
@<TRIPOS>BOND
@<TRIPOS>MOLECULE
HOH1895
1 0
SMALL
USER_CHARGES


@<TRIPOS>ATOM
1 O 69.1829986572266 34.8819999694824 29.2779998779297 O 0.0 **** 0.0
@<TRIPOS>BOND
@<TRIPOS>MOLECULE
HOH1896
1 0
SMALL
USER_CHARGES


@<TRIPOS>ATOM
1 O 66.6309967041016 22.2129993438721 32.4230003356934 O 0.0 **** 0.0
@<TRIPOS>BOND
@<TRIPOS>MOLECULE
HOH1897
1 0
SMALL
USER_CHARGES


@<TRIPOS>ATOM
1 O 13.7209997177124 28.6569995880127 25.9519996643066 O 0.0 **** 0.0
@<TRIPOS>BOND
@<TRIPOS>MOLECULE
HOH1898
1 0
SMALL
USER_CHARGES


@<TRIPOS>ATOM
1 O 13.2449998855591 43.8390007019043 24.8729991912842 O 0.0 **** 0.0
@<TRIPOS>BOND
@<TRIPOS>MOLECULE
HOH1899
1 0
SMALL
USER_CHARGES


@<TRIPOS>ATOM
1 O 34.4690017700195 33.1430015563965 56.2919998168945 O 0.0 **** 0.0
@<TRIPOS>BOND
@<TRIPOS>MOLECULE
HOH1900
1 0
SMALL
USER_CHARGES


@<TRIPOS>ATOM
1 O 52.0279998779297 15.9589996337891 9.08899974822998 O 0.0 **** 0.0
@<TRIPOS>BOND
@<TRIPOS>MOLECULE
HOH1901
1 0
SMALL
USER_CHARGES


@<TRIPOS>ATOM
1 O 65.7529983520508 28.4340000152588 34.568000793457 O 0.0 **** 0.0
@<TRIPOS>BOND
@<TRIPOS>MOLECULE
HOH1902
1 0
SMALL
USER_CHARGES


@<TRIPOS>ATOM
1 O 63.0789985656738 33.3139991760254 12.2410001754761 O 0.0 **** 0.0
@<TRIPOS>BOND
@<TRIPOS>MOLECULE
HOH1903
1 0
SMALL
USER_CHARGES


@<TRIPOS>ATOM
1 O 59.1459999084473 36.6749992370605 7.10699987411499 O 0.0 **** 0.0
@<TRIPOS>BOND
@<TRIPOS>MOLECULE
HOH1904
1 0
SMALL
USER_CHARGES


@<TRIPOS>ATOM
1 O 69.5279998779297 21.4659996032715 48.2330017089844 O 0.0 **** 0.0
@<TRIPOS>BOND
@<TRIPOS>MOLECULE
HOH1905
1 0
SMALL
USER_CHARGES


@<TRIPOS>ATOM
1 O 52.1920013427734 17.0200004577637 11.8570003509521 O 0.0 **** 0.0
@<TRIPOS>BOND
@<TRIPOS>MOLECULE
HOH1906
1 0
SMALL
USER_CHARGES


@<TRIPOS>ATOM
1 O 71.6719970703125 13.5629997253418 26.0620002746582 O 0.0 **** 0.0
@<TRIPOS>BOND
@<TRIPOS>MOLECULE
HOH1907
1 0
SMALL
USER_CHARGES


@<TRIPOS>ATOM
1 O 39.765998840332 43.257999420166 16.3050003051758 O 0.0 **** 0.0
@<TRIPOS>BOND
@<TRIPOS>MOLECULE
HOH1908
1 0
SMALL
USER_CHARGES


@<TRIPOS>ATOM
1 O 25.3330001831055 56.4259986877441 18.1200008392334 O 0.0 **** 0.0
@<TRIPOS>BOND
@<TRIPOS>MOLECULE
HOH1909
1 0
SMALL
USER_CHARGES


@<TRIPOS>ATOM
1 O 63.7719993591309 49.6030006408691 26.3689994812012 O 0.0 **** 0.0
@<TRIPOS>BOND
@<TRIPOS>MOLECULE
HOH1910
1 0
SMALL
USER_CHARGES


@<TRIPOS>ATOM
1 O 37.2840003967285 51.5149993896484 -14.6870002746582 O 0.0 **** 0.0
@<TRIPOS>BOND
@<TRIPOS>MOLECULE
HOH1911
1 0
SMALL
USER_CHARGES


@<TRIPOS>ATOM
1 O 71.5550003051758 23.8040008544922 28.826000213623 O 0.0 **** 0.0
@<TRIPOS>BOND
@<TRIPOS>MOLECULE
HOH1912
1 0
SMALL
USER_CHARGES


@<TRIPOS>ATOM
1 O 56.8400001525879 17.2229995727539 32.1510009765625 O 0.0 **** 0.0
@<TRIPOS>BOND
@<TRIPOS>MOLECULE
HOH1913
1 0
SMALL
USER_CHARGES


@<TRIPOS>ATOM
1 O 66.6669998168945 26.1439990997314 33.9599990844727 O 0.0 **** 0.0
@<TRIPOS>BOND
@<TRIPOS>MOLECULE
HOH1914
1 0
SMALL
USER_CHARGES


@<TRIPOS>ATOM
1 O 13.6669998168945 32.5589981079102 24.7479991912842 O 0.0 **** 0.0
@<TRIPOS>BOND
@<TRIPOS>MOLECULE
HOH1915
1 0
SMALL
USER_CHARGES


@<TRIPOS>ATOM
1 O 27.8840007781982 34.0540008544922 55.3810005187988 O 0.0 **** 0.0
@<TRIPOS>BOND
@<TRIPOS>MOLECULE
HOH1916
1 0
SMALL
USER_CHARGES


@<TRIPOS>ATOM
1 O 60.1689987182617 56.6349983215332 25.4629993438721 O 0.0 **** 0.0
@<TRIPOS>BOND
@<TRIPOS>MOLECULE
HOH1917
1 0
SMALL
USER_CHARGES


@<TRIPOS>ATOM
1 O 38.4529991149902 32.8839988708496 53.060001373291 O 0.0 **** 0.0
@<TRIPOS>BOND
@<TRIPOS>MOLECULE
HOH1918
1 0
SMALL
USER_CHARGES


@<TRIPOS>ATOM
1 O 44.6910018920898 14.9670000076294 10.5530004501343 O 0.0 **** 0.0
@<TRIPOS>BOND
@<TRIPOS>MOLECULE
HOH1919
1 0
SMALL
USER_CHARGES


@<TRIPOS>ATOM
1 O 58.1879997253418 26.8880004882813 8.59899997711182 O 0.0 **** 0.0
@<TRIPOS>BOND
@<TRIPOS>MOLECULE
HOH1920
1 0
SMALL
USER_CHARGES


@<TRIPOS>ATOM
1 O 21.1590003967285 38.0719985961914 9.7819995880127 O 0.0 **** 0.0
@<TRIPOS>BOND
@<TRIPOS>MOLECULE
HOH1921
1 0
SMALL
USER_CHARGES


@<TRIPOS>ATOM
1 O 59.8320007324219 15.9099998474121 26.7150001525879 O 0.0 **** 0.0
@<TRIPOS>BOND
@<TRIPOS>MOLECULE
HOH1922
1 0
SMALL
USER_CHARGES


@<TRIPOS>ATOM
1 O 26.3020000457764 32.9850006103516 -1.27400004863739 O 0.0 **** 0.0
@<TRIPOS>BOND
@<TRIPOS>MOLECULE
HOH1923
1 0
SMALL
USER_CHARGES


@<TRIPOS>ATOM
1 O 43.507999420166 17.4729995727539 6.94199991226196 O 0.0 **** 0.0
@<TRIPOS>BOND
@<TRIPOS>MOLECULE
HOH1924
1 0
SMALL
USER_CHARGES


@<TRIPOS>ATOM
1 O 32.4720001220703 28.4729995727539 56.201000213623 O 0.0 **** 0.0
@<TRIPOS>BOND
@<TRIPOS>MOLECULE
HOH1925
1 0
SMALL
USER_CHARGES


@<TRIPOS>ATOM
1 O 28.746000289917 36.6030006408691 3.3659999370575 O 0.0 **** 0.0
@<TRIPOS>BOND
@<TRIPOS>MOLECULE
HOH1926
1 0
SMALL
USER_CHARGES


@<TRIPOS>ATOM
1 O 57.7919998168945 23.9389991760254 24.3570003509521 O 0.0 **** 0.0
@<TRIPOS>BOND
@<TRIPOS>MOLECULE
HOH1927
1 0
SMALL
USER_CHARGES


@<TRIPOS>ATOM
1 O 47.8050003051758 50.2360000610352 40.6949996948242 O 0.0 **** 0.0
@<TRIPOS>BOND
@<TRIPOS>MOLECULE
HOH1928
1 0
SMALL
USER_CHARGES


@<TRIPOS>ATOM
1 O 46.7179985046387 44.4169998168945 7.03499984741211 O 0.0 **** 0.0
@<TRIPOS>BOND
@<TRIPOS>MOLECULE
HOH1929
1 0
SMALL
USER_CHARGES


@<TRIPOS>ATOM
1 O 40.060001373291 43.3380012512207 13.8979997634888 O 0.0 **** 0.0
@<TRIPOS>BOND
@<TRIPOS>MOLECULE
HOH1930
1 0
SMALL
USER_CHARGES


@<TRIPOS>ATOM
1 O 28.3449993133545 52.9230003356934 44.443000793457 O 0.0 **** 0.0
@<TRIPOS>BOND
@<TRIPOS>MOLECULE
HOH1931
1 0
SMALL
USER_CHARGES


@<TRIPOS>ATOM
1 O 41.4830017089844 46.8300018310547 15.2309999465942 O 0.0 **** 0.0
@<TRIPOS>BOND
@<TRIPOS>MOLECULE
HOH1932
1 0
SMALL
USER_CHARGES


@<TRIPOS>ATOM
1 O 60.2910003662109 18.1439990997314 25.2409992218018 O 0.0 **** 0.0
@<TRIPOS>BOND
@<TRIPOS>MOLECULE
HOH1933
1 0
SMALL
USER_CHARGES


@<TRIPOS>ATOM
1 O 55.2200012207031 32.0190010070801 62.814998626709 O 0.0 **** 0.0
@<TRIPOS>BOND
@<TRIPOS>MOLECULE
HOH1934
1 0
SMALL
USER_CHARGES


@<TRIPOS>ATOM
1 O 48.7719993591309 15.9729995727539 51.4930000305176 O 0.0 **** 0.0
@<TRIPOS>BOND
@<TRIPOS>MOLECULE
HOH1935
1 0
SMALL
USER_CHARGES


@<TRIPOS>ATOM
1 O 28.5949993133545 45.3370018005371 -2.68499994277954 O 0.0 **** 0.0
@<TRIPOS>BOND
@<TRIPOS>MOLECULE
HOH1936
1 0
SMALL
USER_CHARGES


@<TRIPOS>ATOM
1 O 23.5470008850098 41.5029983520508 10.4010000228882 O 0.0 **** 0.0
@<TRIPOS>BOND
@<TRIPOS>MOLECULE
HOH1937
1 0
SMALL
USER_CHARGES


@<TRIPOS>ATOM
1 O 14.0299997329712 30.0410003662109 23.9060001373291 O 0.0 **** 0.0
@<TRIPOS>BOND
@<TRIPOS>MOLECULE
HOH1938
1 0
SMALL
USER_CHARGES


@<TRIPOS>ATOM
1 O 70.7929992675781 10.6020002365112 23.4050006866455 O 0.0 **** 0.0
@<TRIPOS>BOND
@<TRIPOS>MOLECULE
HOH1939
1 0
SMALL
USER_CHARGES


@<TRIPOS>ATOM
1 O 62.4379997253418 47.7779998779297 22.6310005187988 O 0.0 **** 0.0
@<TRIPOS>BOND
@<TRIPOS>MOLECULE
HOH1940
1 0
SMALL
USER_CHARGES


@<TRIPOS>ATOM
1 O 43.7560005187988 15.2799997329712 8.30700016021729 O 0.0 **** 0.0
@<TRIPOS>BOND
@<TRIPOS>MOLECULE
HOH1941
1 0
SMALL
USER_CHARGES


@<TRIPOS>ATOM
1 O 41.439998626709 45.0110015869141 50.632999420166 O 0.0 **** 0.0
@<TRIPOS>BOND
@<TRIPOS>MOLECULE
HOH1942
1 0
SMALL
USER_CHARGES


@<TRIPOS>ATOM
1 O 31.4580001831055 56.7799987792969 42.3680000305176 O 0.0 **** 0.0
@<TRIPOS>BOND
@<TRIPOS>MOLECULE
HOH1943
1 0
SMALL
USER_CHARGES


@<TRIPOS>ATOM
1 O 42.015998840332 14.1309995651245 7.30100011825562 O 0.0 **** 0.0
@<TRIPOS>BOND
@<TRIPOS>MOLECULE
HOH1944
1 0
SMALL
USER_CHARGES


@<TRIPOS>ATOM
1 O 62.2400016784668 54.5810012817383 23.1989994049072 O 0.0 **** 0.0
@<TRIPOS>BOND
@<TRIPOS>MOLECULE
HOH1945
1 0
SMALL
USER_CHARGES


@<TRIPOS>ATOM
1 O 56.4850006103516 37.6230010986328 44.7709999084473 O 0.0 **** 0.0
@<TRIPOS>BOND
@<TRIPOS>MOLECULE
HOH1946
1 0
SMALL
USER_CHARGES


@<TRIPOS>ATOM
1 O 52.4090003967285 15.3999996185303 52.8889999389648 O 0.0 **** 0.0
@<TRIPOS>BOND
@<TRIPOS>MOLECULE
HOH1947
1 0
SMALL
USER_CHARGES


@<TRIPOS>ATOM
1 O 57.0900001525879 12.2530002593994 -14.9049997329712 O 0.0 **** 0.0
@<TRIPOS>BOND
@<TRIPOS>MOLECULE
HOH1948
1 0
SMALL
USER_CHARGES


@<TRIPOS>ATOM
1 O 73.1989974975586 25.5900001525879 29.298999786377 O 0.0 **** 0.0
@<TRIPOS>BOND
@<TRIPOS>MOLECULE
HOH1949
1 0
SMALL
USER_CHARGES


@<TRIPOS>ATOM
1 O 39.9640007019043 41.5340003967285 52.1679992675781 O 0.0 **** 0.0
@<TRIPOS>BOND
@<TRIPOS>MOLECULE
HOH1950
1 0
SMALL
USER_CHARGES


@<TRIPOS>ATOM
1 O 49.9879989624023 14.1960000991821 53.2760009765625 O 0.0 **** 0.0
@<TRIPOS>BOND
@<TRIPOS>MOLECULE
HOH1951
1 0
SMALL
USER_CHARGES


@<TRIPOS>ATOM
1 O 64.6669998168945 50.4749984741211 23.2259998321533 O 0.0 **** 0.0
@<TRIPOS>BOND
