@<TRIPOS>MOLECULE
Sketch 4
130 142
SMALL
USER_CHARGES


@<TRIPOS>ATOM
1 C -8.96237 -3.16977 -0.319371 C 0.0 **** 0.0
2 C -3.98899 -4.18438 0.694489 C 0.0 **** 0.0
3 C 0.210682 -1.58214 0.315731 C 0.0 **** 0.0
4 C 2.99808 -5.32627 -1.59833 C 0.0 **** 0.0
5 C 2.59557 9.62297 -0.0892574 C 0.0 **** 0.0
6 C -8.9785 -0.606235 -2.57659 C 0.0 **** 0.0
7 H -6.46339 -6.30582 0.404756 H 0.0 **** 0.0
8 H 1.53795 8.35613 -1.4952 H 0.0 **** 0.0
9 H 4.06186 9.24026 -1.63588 H 0.0 **** 0.0
10 H 5.84946 3.83155 1.67932 H 0.0 **** 0.0
11 H 8.32103 3.72158 2.05068 H 0.0 **** 0.0
12 H -4.91507 -8.40317 0.792945 H 0.0 **** 0.0
13 H -5.67116 -7.54444 2.14213 H 0.0 **** 0.0
14 H 4.52116 -4.48386 -3.83547 H 0.0 **** 0.0
15 C -8.27772 -4.2805 0.207517 C 0.0 **** 0.0
16 C -6.19924 -3.02805 0.128267 C 0.0 **** 0.0
17 C -2.53577 -6.56654 1.29549 C 0.0 **** 0.0
18 C -2.56092 -4.14825 0.728009 C 0.0 **** 0.0
19 C 2.39115 -5.31335 -0.168561 C 0.0 **** 0.0
20 C 1.78367 5.859 -0.0369721 C 0.0 **** 0.0
21 C 6.75726 6.84115 0.356861 C 0.0 **** 0.0
22 C 6.50071 4.65418 1.38404 C 0.0 **** 0.0
23 C -6.08387 -0.647569 -0.639598 C 0.0 **** 0.0
24 O 0.313387 -6.23099 1.64167 O 0.0 **** 0.0
25 H -0.351697 5.01864 1.54663 H 0.0 **** 0.0
26 H 6.72623 8.91967 -0.240611 H 0.0 **** 0.0
27 H -10.7169 -2.65096 -1.49162 H 0.0 **** 0.0
28 H -5.32173 -0.84679 -1.41105 H 0.0 **** 0.0
29 H -6.69755 0.186455 -0.99505 H 0.0 **** 0.0
30 H 4.52558 -6.51949 -2.62826 H 0.0 **** 0.0
31 C -6.88732 -4.2073 0.42256 C 0.0 **** 0.0
32 C -0.413049 -5.21178 1.06756 C 0.0 **** 0.0
33 C 3.61319 -2.99714 -0.800271 C 0.0 **** 0.0
34 C 3.42413 -3.90066 -2.0353 C 0.0 **** 0.0
35 C 2.49108 4.67954 0.302966 C 0.0 **** 0.0
36 C 2.48548 7.07524 -0.0698515 C 0.0 **** 0.0
37 C -9.02979 -5.55036 0.537049 C 0.0 **** 0.0
38 C 9.02439 7.89423 0.0192485 C 0.0 **** 0.0
39 C 10.2058 5.51829 1.37507 C 0.0 **** 0.0
40 H -4.26332 -2.53086 -0.610149 H 0.0 **** 0.0
41 H 4.36773 -3.44932 -0.130099 H 0.0 **** 0.0
42 H -7.93767 -0.493506 -2.91485 H 0.0 **** 0.0
43 H -9.55412 0.265351 -2.9251 H 0.0 **** 0.0
44 H -10.0393 -5.3341 0.911812 H 0.0 **** 0.0
45 H -0.969176 -7.93572 0.716668 H 0.0 **** 0.0
46 H 4.96168 -6.03563 -0.971627 H 0.0 **** 0.0
47 C -6.88662 -1.8936 -0.348189 C 0.0 **** 0.0
48 C 1.62358 -4.05528 0.165753 C 0.0 **** 0.0
49 O -1.76822 -0.203437 0.521021 O 0.0 **** 0.0
50 H 3.23805 -5.40463 0.539051 H 0.0 **** 0.0
51 H 2.5887 9.78949 1.00093 H 0.0 **** 0.0
52 H 8.88931 8.80782 0.623157 H 0.0 **** 0.0
53 H 10.597 6.3581 1.97137 H 0.0 **** 0.0
54 C -8.27694 -1.95701 -0.551957 C 0.0 **** 0.0
55 C 1.70793 0.87642 0.254665 C 0.0 **** 0.0
56 C 2.3708 -0.366258 0.171895 C 0.0 **** 0.0
57 C 1.77902 8.3681 -0.4169 C 0.0 **** 0.0
58 C 4.71042 8.31282 0.200085 C 0.0 **** 0.0
59 C 5.92814 5.78055 0.777965 C 0.0 **** 0.0
60 O -1.66344 2.22552 0.567954 O 0.0 **** 0.0
61 O 3.75513 2.03075 0.121255 O 0.0 **** 0.0
62 H 4.82719 8.62127 1.25865 H 0.0 **** 0.0
63 H -10.7157 -4.31407 -0.89262 H 0.0 **** 0.0
64 H 1.20569 -5.89767 1.82711 H 0.0 **** 0.0
65 H 4.84524 -2.8245 -3.27523 H 0.0 **** 0.0
66 H 3.96265 0.647719 0.147403 H 0.0 **** 0.0
67 H 10.0887 7.63399 0.0474482 H 0.0 **** 0.0
68 H 10.4448 4.58422 1.9013 H 0.0 **** 0.0
69 C -4.71413 -2.92611 0.316943 C 0.0 **** 0.0
70 C -4.65646 -5.34778 1.00599 C 0.0 **** 0.0
71 C -6.16141 -5.40991 0.973411 C 0.0 **** 0.0
72 C -3.92622 -6.54015 1.33455 C 0.0 **** 0.0
73 C -0.506398 -2.83577 0.453081 C 0.0 **** 0.0
74 C 0.297702 0.903183 0.358248 C 0.0 **** 0.0
75 C 3.86169 7.06256 0.198742 C 0.0 **** 0.0
76 C 7.87577 4.59771 1.57417 C 0.0 **** 0.0
77 C -10.4381 -3.28317 -0.638601 C 0.0 **** 0.0
78 H 1.78237 -6.2166 -0.0650828 H 0.0 **** 0.0
79 H -0.192448 6.71358 -0.249716 H 0.0 **** 0.0
80 H 2.1236 10.5027 -0.55236 H 0.0 **** 0.0
81 H -11.0667 -2.97565 0.21548 H 0.0 **** 0.0
82 H 8.76887 8.15948 -1.01799 H 0.0 **** 0.0
83 H 10.7576 5.51968 0.420724 H 0.0 **** 0.0
84 C -1.82306 -5.34565 1.03367 C 0.0 **** 0.0
85 C -1.89553 -2.93105 0.517079 C 0.0 **** 0.0
86 C 0.253003 -4.05695 0.5866 C 0.0 **** 0.0
87 C 2.28177 -2.86169 -0.0985547 C 0.0 **** 0.0
88 C 1.62413 -1.60598 0.130681 C 0.0 **** 0.0
89 H -6.52927 -5.60622 1.99972 H 0.0 **** 0.0
90 H -2.47598 -2.02898 0.412798 H 0.0 **** 0.0
91 H 2.58262 -3.46625 -2.59966 H 0.0 **** 0.0
92 H 0.21277 5.47512 -1.4407 H 0.0 **** 0.0
93 H 0.809705 8.41392 0.10327 H 0.0 **** 0.0
94 H -9.38533 -1.50751 -3.06016 H 0.0 **** 0.0
95 H -8.51493 -6.14437 1.30241 H 0.0 **** 0.0
96 H -4.15623 -8.41987 2.39727 H 0.0 **** 0.0
97 H -1.38399 -8.03662 2.42523 H 0.0 **** 0.0
98 H 5.55475 -4.20916 -2.414 H 0.0 **** 0.0
99 H -1.95955 0.842695 0.562916 H 0.0 **** 0.0
100 C -0.44695 -0.299936 0.400172 C 0.0 **** 0.0
101 C 2.48988 2.09731 0.231399 C 0.0 **** 0.0
102 C -0.387322 2.16326 0.443608 C 0.0 **** 0.0
103 C 6.11117 8.01428 -0.33762 C 0.0 **** 0.0
104 C 8.71841 5.63913 1.15419 C 0.0 **** 0.0
105 C -9.03665 -0.744239 -1.04705 C 0.0 **** 0.0
106 C -4.70399 -7.78886 1.68606 C 0.0 **** 0.0
107 C -1.8087 -7.88706 1.42015 C 0.0 **** 0.0
108 O 3.69759 -0.389193 0.166661 O 0.0 **** 0.0
109 H 2.21058 -5.67203 -2.28639 H 0.0 **** 0.0
110 H -10.0853 -0.797762 -0.723802 H 0.0 **** 0.0
111 C 1.77295 3.38682 0.314222 C 0.0 **** 0.0
112 C -0.35112 4.6893 0.490516 C 0.0 **** 0.0
113 C 4.04205 9.46173 -0.55416 C 0.0 **** 0.0
114 C 8.15244 6.76868 0.525876 C 0.0 **** 0.0
115 C 4.12893 -6.35977 -1.61617 C 0.0 **** 0.0
116 C 4.65644 -3.85577 -2.94194 C 0.0 **** 0.0
117 H 4.61549 10.3897 -0.401075 H 0.0 **** 0.0
118 H 6.03636 7.80303 -1.42217 H 0.0 **** 0.0
119 H -8.63317 0.166565 -0.580624 H 0.0 **** 0.0
120 H -5.53157 -0.309191 0.252483 H 0.0 **** 0.0
121 H -9.14529 -6.196 -0.3516 H 0.0 **** 0.0
122 H -2.47764 -8.72709 1.20157 H 0.0 **** 0.0
123 H 3.76768 -7.32702 -1.23406 H 0.0 **** 0.0
124 C 0.394624 3.38984 0.399458 C 0.0 **** 0.0
125 C 0.320531 5.75197 -0.374793 C 0.0 **** 0.0
126 N 3.79899 4.68389 0.596806 N 0.0 **** 0.0
127 C 4.47709 5.83401 0.520685 C 0.0 **** 0.0
128 H -4.49509 -2.14255 1.06834 H 0.0 **** 0.0
129 H 4.01085 -2.03049 -1.11008 H 0.0 **** 0.0
130 H -1.40001 4.53271 0.208724 H 0.0 **** 0.0
@<TRIPOS>BOND
1 23 29 1
2 23 28 1
3 33 41 1
4 33 34 1
5 37 44 1
6 55 56 2
7 58 62 1
8 70 71 1
9 70 72 2
10 77 81 1
11 87 88 2
12 85 90 1
13 105 110 1
14 115 123 1
15 113 117 1
16 126 127 ar
17 1 54 2
18 5 113 1
19 38 82 1
20 36 75 2
21 107 122 1
22 12 106 1
23 2 18 2
24 37 95 1
25 19 78 1
26 17 72 2
27 111 124 2
28 35 111 1
29 1 15 2
30 1 77 1
31 2 69 1
32 2 70 2
33 3 73 1
34 3 88 2
35 3 100 1
36 4 19 1
37 4 34 1
38 4 109 1
39 4 115 1
40 5 51 1
41 5 57 1
42 5 80 1
43 6 42 1
44 6 43 1
45 6 94 1
46 6 105 1
47 7 71 1
48 8 57 1
49 9 113 1
50 10 22 1
51 11 76 1
52 13 106 1
53 14 116 1
54 15 31 2
55 15 37 1
56 16 31 2
57 16 47 2
58 16 69 1
59 17 84 2
60 17 107 1
61 18 84 2
62 18 85 2
63 19 48 1
64 19 50 1
65 20 35 2
66 20 36 2
67 20 125 1
68 21 59 2
69 21 103 1
70 21 114 2
71 22 59 2
72 22 76 2
73 23 47 1
74 23 120 1
75 24 32 1
76 24 64 1
77 25 112 1
78 26 103 1
79 27 77 1
80 30 115 1
81 31 71 1
82 32 84 2
83 32 86 2
84 33 87 1
85 33 129 1
86 34 91 1
87 34 116 1
88 35 126 ar
89 36 57 1
90 37 121 1
91 38 52 1
92 38 67 1
93 38 114 1
94 39 53 1
95 39 68 1
96 39 83 1
97 39 104 1
98 40 69 1
99 45 107 1
100 46 115 1
101 47 54 2
102 48 86 2
103 48 87 2
104 49 99 1
105 49 100 1
106 54 105 1
107 55 74 2
108 55 101 1
109 56 88 1
110 56 108 2
111 57 93 1
112 58 75 1
113 58 103 1
114 58 113 1
115 59 127 1
116 60 102 2
117 61 101 2
118 63 77 1
119 65 116 1
120 66 108 1
121 69 128 1
122 71 89 1
123 72 106 1
124 73 85 2
125 73 86 1
126 74 100 2
127 74 102 2
128 75 127 2
129 76 104 2
130 79 125 1
131 92 125 1
132 96 106 1
133 97 107 1
134 98 116 1
135 101 111 1
136 102 124 1
137 103 118 1
138 104 114 2
139 105 119 1
140 112 124 1
141 112 125 1
142 112 130 1
