#	Created by:	Discovery Studio
#	Creation time:	2020-08-16T17:39:36Z

@<TRIPOS>MOLECULE
"C4Rings"
Coordinates
   26    29     0 0 0
SMALL
USER_CHARGES


@<TRIPOS>ATOM
      1 C123         19.212999   20.855000    0.243000 C.ar     1 SUBUNIT    0.0000
      2 C124         19.976000   19.649000    0.115000 C.ar     1 SUBUNIT    0.0000
      3 C125         21.395000   19.707001    0.132000 C.ar     1 SUBUNIT    0.0000
      4 C126         22.052999   20.950001    0.278000 C.ar     1 SUBUNIT    0.0000
      5 C127         21.283001   22.150999    0.401000 C.ar     1 SUBUNIT    0.0000
      6 C128         19.881001   22.076000    0.378000 C.ar     1 SUBUNIT    0.0000
      7 C129         21.966000   23.398001    0.550000 C.ar     1 SUBUNIT    0.0000
      8 C130         23.334999   23.450001    0.579000 C.ar     1 SUBUNIT    0.0000
      9 C131         24.122999   22.266001    0.453000 C.ar     1 SUBUNIT    0.0000
     10 C132         23.478001   21.010000    0.297000 C.ar     1 SUBUNIT    0.0000
     11 C133         24.254999   19.820000    0.154000 C.ar     1 SUBUNIT    0.0000
     12 C134         23.589001   18.572001   -0.005000 C.ar     1 SUBUNIT    0.0000
     13 C135         22.166000   18.511000   -0.010000 C.ar     1 SUBUNIT    0.0000
     14 C136         25.680000   19.882000    0.155000 C.ar     1 SUBUNIT    0.0000
     15 C137         26.290001   21.153999    0.338000 C.ar     1 SUBUNIT    0.0000
     16 C138         25.535000   22.299999    0.483000 C.ar     1 SUBUNIT    0.0000
     17 H239         19.298000   22.993999    0.477000 H        1 SUBUNIT    0.0000
     18 H240         21.371000   24.308001    0.645000 H        1 SUBUNIT    0.0000
     19 H241         23.851000   24.403999    0.700000 H        1 SUBUNIT    0.0000
     20 H242         27.372999   21.212000    0.350000 H        1 SUBUNIT    0.0000
     21 H243         26.034000   23.261000    0.626000 H        1 SUBUNIT    0.0000
     22 H10          18.123557   20.821031    0.235224 H        1 SUBUNIT    0.0000
     23 H11          19.469153   18.690305    0.004954 H        1 SUBUNIT    0.0000
     24 H12          24.171159   17.658143   -0.123562 H        1 SUBUNIT    0.0000
     25 H13          21.663427   17.550323   -0.122340 H        1 SUBUNIT    0.0000
     26 H14          26.282220   18.983571    0.019881 H        1 SUBUNIT    0.0000
@<TRIPOS>BOND
     1    1    2 ar
     2    1    6 ar
     3    2    3 ar
     4    3    4 ar
     5    3   13 ar
     6    4   10 ar
     7    4    5 ar
     8    5    7 ar
     9    5    6 ar
    10    6   17 1
    11    7    8 ar
    12    7   18 1
    13    8    9 ar
    14    8   19 1
    15    9   16 ar
    16    9   10 ar
    17   10   11 ar
    18   11   14 ar
    19   11   12 ar
    20   12   13 ar
    21   14   15 ar
    22   15   20 1
    23   15   16 ar
    24   16   21 1
    25    1   22 1
    26    2   23 1
    27   12   24 1
    28   13   25 1
    29   14   26 1
@<SCITEGIC>ATOM_PROPERTY
Formal Charge
SciTegic.value.StringValue
1 0
2 0
3 0
4 0
5 0
6 0
7 0
8 0
9 0
10 0
11 0
12 0
13 0
14 0
15 0
16 0
17 0
18 0
19 0
20 0
21 0
22 0
23 0
24 0
25 0
26 0

@<SCITEGIC>ATOM_PROPERTY
pdb_tempFactor
SciTegic.value.DoubleValue
1 0.00
2 0.00
3 0.00
4 0.00
5 0.00
6 0.00
7 0.00
8 0.00
9 0.00
10 0.00
11 0.00
12 0.00
13 0.00
14 0.00
15 0.00
16 0.00
17 0.00
18 0.00
19 0.00
20 0.00
21 0.00
22 0.00
23 0.00
24 0.00
25 0.00
26 0.00

@<SCITEGIC>ATOM_PROPERTY
pdb_occupancy
SciTegic.value.DoubleValue
1 1.00
2 1.00
3 1.00
4 1.00
5 1.00
6 1.00
7 1.00
8 1.00
9 1.00
10 1.00
11 1.00
12 1.00
13 1.00
14 1.00
15 1.00
16 1.00
17 1.00
18 1.00
19 1.00
20 1.00
21 1.00
22 1.00
23 1.00
24 1.00
25 1.00
26 1.00

