@<TRIPOS>MOLECULE
Sketch 4
250 292
SMALL
USER_CHARGES


@<TRIPOS>ATOM
1 C16245 41.5813 53.8725 38.8735 C.3 0.0 **** -0.106
2 C16216 42.1758 47.6342 39.1492 C.2 0.0 **** 0.0
3 C16257 34.2509 51.8159 45.9492 C.2 0.0 **** 0.0265
4 C16252 36.4918 51.5975 43.1005 C.2 0.0 **** -0.1268
5 H16318 49.5121 47.4343 31.4975 H 0.0 **** 0.053
6 H16324 44.7588 47.8748 31.9338 H 0.0 **** 0.053
7 C16297 30.2219 48.5606 53.6737 C.3 0.0 **** -0.106
8 C16286 28.7882 53.2734 50.6543 C.2 0.0 **** 0.0
9 H16309 52.5876 48.3462 32.0428 H 0.0 **** 0.053
10 H16385 49.0333 42.7103 41.4339 H 0.0 **** 0.053
11 C16197 49.2357 40.4621 39.8533 C.3 0.0 **** -0.106
12 C16300 28.1606 50.3424 54.7104 C.2 0.0 **** 0.347
13 C16285 27.6682 54.0668 51.0199 C.2 0.0 **** 0.0
14 H16390 40.1752 42.1952 43.7856 H 0.0 **** 0.41
15 C16191 48.4778 38.5743 35.3312 C.3 0.0 **** -0.106
16 H16344 42.7032 48.8156 37.4023 H 0.0 **** 0.1268
17 C16241 39.8923 51.9679 37.6976 C.3 0.0 **** 0.107
18 H16400 31.051 48.7338 54.3856 H 0.0 **** 0.053
19 C16200 46.404 42.8852 37.2897 C.2 0.0 **** -0.1268
20 C16156 52.9094 45.0634 33.9437 C.3 0.0 **** -0.106
21 H16360 38.4122 44.7716 50.3519 H 0.0 **** 0.353
22 H16358 36.2017 43.1419 51.3323 H 0.0 **** 0.053
23 C16258 34.5615 50.6576 46.682 C.2 0.0 **** 0.0
24 H16321 44.3956 48.7003 34.2518 H 0.0 **** 0.053
25 H16383 50.9854 43.3948 39.1626 H 0.0 **** 0.053
26 C16284 27.3198 55.2004 50.2238 C.2 0.0 **** -0.1268
27 H16365 42.3692 54.5881 39.1507 H 0.0 **** 0.053
28 C16159 52.1028 47.6074 32.6963 C.3 0.0 **** 0.054
29 C16178 45.523 48.5224 32.3934 C.3 0.0 **** -0.106
30 H16352 37.5136 42.2095 49.2888 H 0.0 **** 0.053
31 C16227 39.6851 43.686 46.6135 C.3 0.0 **** -0.053
32 H16402 28.248 47.7011 53.6855 H 0.0 **** 0.053
33 H16331 49.575 38.4229 35.2745 H 0.0 **** 0.053
34 C16182 44.1829 45.8361 38.0986 C.2 0.0 **** 0.0
35 C16264 35.9487 47.8931 50.6683 C.3 0.0 **** -0.106
36 O16165 49.2228 43.7246 31.3358 O.3 0.0 **** -0.32
37 C16239 39.1251 50.2209 40.8137 C.2 0.0 **** 0.0
38 H16366 40.8756 53.8193 39.7157 H 0.0 **** 0.053
39 H16330 48.0215 37.8216 34.6686 H 0.0 **** 0.053
40 S16203 45.1083 43.2311 39.5991 S.2 0.0 **** 0.024
41 C16195 49.3279 41.8951 37.8057 C.3 0.0 **** -0.106
42 H16384 49.7592 44.2946 41.0913 H 0.0 **** 0.053
43 O16243 41.504 50.2085 37.9853 O.3 0.0 **** -0.202
44 C16267 32.5122 52.3746 47.5536 C.2 0.0 **** 0.0
45 H16350 40.2058 43.6027 49.1899 H 0.0 **** 0.053
46 C16292 26.9275 53.7012 52.1662 C.2 0.0 **** -0.1268
47 C16181 43.8417 47.0481 37.4714 C.2 0.0 **** 0.232
48 H16332 48.336 37.4235 37.1824 H 0.0 **** 0.053
49 H16404 27.5994 48.6938 55.9259 H 0.0 **** 0.053
50 C16293 31.8624 49.556 51.5069 C.2 0.0 **** -0.1268
51 C16219 41.163 48.5154 39.6918 C.2 0.0 **** 0.0
52 C16209 40.0276 46.4956 42.692 C.2 0.0 **** 0.0
53 H16338 49.7115 40.2086 40.813 H 0.0 **** 0.053
54 H16368 40.478 55.3841 37.7477 H 0.0 **** 0.053
55 C16232 37.4757 43.8958 47.9436 C.3 0.0 **** -0.053
56 C16231 38.0938 43.1403 49.1676 C.3 0.0 **** 0.134
57 C16176 45.7811 47.0691 34.426 C.2 0.0 **** 0.0
58 C16235 36.5403 44.0477 50.8013 C.3 0.0 **** 0.081
59 C16161 50.5151 45.65 32.2102 C.3 0.0 **** -0.053
60 C16163 51.5797 43.707 30.9798 C.3 0.0 **** -0.106
61 C16276 31.7936 54.6282 46.0015 C.2 0.0 **** -0.1268
62 O16301 27.4191 51.1202 55.313 O.2 0.0 **** -0.419
63 C16208 40.7491 46.8895 41.5234 C.2 0.0 **** 0.0
64 H16327 46.8869 39.7586 33.1173 H 0.0 **** 0.053
65 C16271 50.5626 42.67 39.8822 C.3 0.0 **** -0.053
66 C16167 48.037 45.8099 31.5649 C.3 0.0 **** -0.053
67 C16279 30.6584 52.8343 49.1121 C.2 0.0 **** 0.0
68 C16299 28.4978 49.0163 55.3806 C.3 0.0 **** -0.086
69 C16230 39.5548 42.7506 48.9228 C.3 0.0 **** -0.106
70 H16356 35.1098 43.3952 49.2709 H 0.0 **** 0.053
71 C16272 49.4126 43.3583 40.6287 C.3 0.0 **** -0.159
72 H16308 51.1123 48.0066 32.9993 H 0.0 **** 0.053
73 C16246 40.831 54.3497 37.625 C.3 0.0 **** -0.106
74 C16202 43.8046 44.3247 40.0352 C.2 0.0 **** -0.012
75 H16388 51.3007 41.5561 41.606 H 0.0 **** 0.053
76 H16355 35.7602 45.1855 47.5908 H 0.0 **** 0.053
77 H16394 27.775 56.4054 48.51 H 0.0 **** 0.1268
78 C16266 32.8718 51.2362 48.3291 C.2 0.0 **** 0.0
79 C16249 38.1459 51.0662 41.3558 C.2 0.0 **** -0.1268
80 H16337 48.264 40.9299 40.0817 H 0.0 **** 0.053
81 C16223 37.1395 49.1462 44.3848 C.2 0.0 **** 0.0
82 H16302 53.1702 46.5024 35.5913 H 0.0 **** 0.053
83 C16220 38.7672 48.6135 42.6221 C.2 0.0 **** 0.0
84 C16295 28.8044 50.6553 53.3982 C.2 0.0 **** 0.052
85 H16348 38.9925 41.6878 47.1135 H 0.0 **** 0.053
86 C16254 35.918 48.5885 46.8733 C.2 0.0 **** 0.0
87 C16186 46.9323 43.2165 36.0056 C.2 0.0 **** 0.0
88 H16392 31.508 55.5065 45.4199 H 0.0 **** 0.1268
89 C16174 45.6406 45.3473 36.184 C.2 0.0 **** 0.0
90 C16287 29.1541 52.1458 51.45 C.2 0.0 **** 0.0
91 H16316 47.2152 43.8104 31.5318 H 0.0 **** 0.053
92 H16363 42.2992 51.9403 39.5885 H 0.0 **** 0.053
93 C16204 43.1175 43.9992 41.1766 C.2 0.0 **** -0.1268
94 C16164 52.9573 43.9507 31.6226 C.3 0.0 **** -0.106
95 C16222 37.4356 47.9246 45.0601 C.2 0.0 **** 0.0
96 H16387 52.5221 41.8143 40.3354 H 0.0 **** 0.053
97 C16189 47.8884 40.1618 33.3853 C.3 0.0 **** -0.106
98 H16371 37.9103 52.0023 40.8519 H 0.0 **** 0.1268
99 H16399 30.594 47.8382 52.9337 H 0.0 **** 0.053
100 C16214 38.349 46.9924 44.4467 C.2 0.0 **** 0.0
101 C16283 28.0468 55.537 49.1128 C.2 0.0 **** -0.1268
102 C16275 32.8405 53.8464 45.5989 C.2 0.0 **** -0.1268
103 C16196 50.0932 41.4528 39.058 C.3 0.0 **** -0.053
104 H16303 51.518 46.456 34.9185 H 0.0 **** 0.053
105 H16336 50.998 40.9087 38.7281 H 0.0 **** 0.053
106 H16339 48.2469 38.5497 39.5015 H 0.0 **** 0.053
107 C16260 34.0807 49.0694 48.5929 C.3 0.0 **** -0.053
108 H16333 46.903 38.4001 36.8052 H 0.0 **** 0.053
109 C16261 33.8716 50.3694 47.8627 C.2 0.0 **** 0.0
110 H16395 26.4531 55.7941 50.521 H 0.0 **** 0.1268
111 H16373 37.0774 46.8195 46.8656 H 0.0 **** 0.1268
112 C16171 47.0025 44.9211 34.1937 C.2 0.0 **** 0.0
113 C16172 48.0322 44.0695 33.4856 C.3 0.0 **** -0.053
114 C16155 52.5946 46.3968 34.6616 C.3 0.0 **** 0.054
115 C16278 31.4091 53.1777 47.9566 C.2 0.0 **** 0.0
116 C16290 28.4102 51.8122 52.6206 C.2 0.0 **** 0.0
117 O16274 40.4145 42.4514 44.6897 O.3 0.0 **** -0.57
118 C16210 40.3163 45.2281 43.3155 C.2 0.0 **** 0.0
119 H16320 48.9947 44.4011 33.9252 H 0.0 **** 0.053
120 C16183 45.1429 44.982 37.4407 C.2 0.0 **** 0.0
121 C16188 48.1426 39.9558 34.8427 C.2 0.0 **** 0.0
122 H16393 29.644 55.954 46.9771 H 0.0 **** 0.1268
123 C16170 46.6744 46.2199 33.662 C.2 0.0 **** 0.0
124 H16372 36.2445 52.5354 42.6021 H 0.0 **** 0.1268
125 C16273 51.6733 42.2783 40.8622 C.3 0.0 **** -0.159
126 C16192 48.0097 38.3945 36.7782 C.3 0.0 **** -0.106
127 H16342 43.352 43.0811 41.72 H 0.0 **** 0.1268
128 C16282 29.9311 55.0848 47.573 C.2 0.0 **** -0.1268
129 C16277 31.0326 54.319 47.1773 C.2 0.0 **** 0.0
130 H16305 52.1156 44.332 34.1635 H 0.0 **** 0.053
131 C16157 53.0202 45.2784 32.4201 C.3 0.0 **** -0.053
132 C16185 47.684 42.3106 35.2548 C.2 0.0 **** 0.0
133 C16269 32.6146 49.9061 50.4081 C.2 0.0 **** 0.0
134 H16375 33.2163 48.4287 48.3269 H 0.0 **** 0.053
135 O16256 34.9218 52.1209 44.7872 O.3 0.0 **** -0.0685
136 C16187 48.112 40.9951 35.727 C.2 0.0 **** 0.0
137 H16403 29.2662 49.2412 56.1434 H 0.0 **** 0.053
138 C16270 32.1586 50.9382 49.5415 C.2 0.0 **** 0.0
139 H16343 41.6742 43.548 43.3307 H 0.0 **** 0.1268
140 H16323 45.3366 49.552 32.052 H 0.0 **** 0.053
141 H16401 29.319 47.0492 54.9444 H 0.0 **** 0.053
142 H16354 36.9166 45.8139 48.7637 H 0.0 **** 0.053
143 H16389 52.0458 43.1568 41.4106 H 0.0 **** 0.053
144 C16224 37.7928 49.4865 43.1735 C.2 0.0 **** 0.0
145 C16213 38.5894 45.6812 44.9559 C.2 0.0 **** 0.042
146 C16228 39.4815 43.4481 45.1103 C.3 0.0 **** 0.107
147 H16379 36.1691 46.8166 50.6922 H 0.0 **** 0.053
148 H16314 53.7246 43.9479 30.8339 H 0.0 **** 0.053
149 C16294 30.6647 50.2386 51.8461 C.2 0.0 **** 0.0
150 H16325 47.6683 48.7653 32.3267 H 0.0 **** 0.053
151 H16312 51.4772 44.2914 30.0512 H 0.0 **** 0.053
152 H16374 35.1092 47.2151 48.2617 H 0.0 **** 0.053
153 C16184 47.9046 42.6072 33.8417 C.2 0.0 **** 0.0
154 C16233 36.4098 44.8932 48.4271 C.3 0.0 **** -0.106
155 H16347 38.4541 43.0476 44.9858 H 0.0 **** 0.053
156 C16289 31.0318 51.704 49.9054 C.2 0.0 **** 0.0
157 O16225 37.8135 45.197 45.987 O.3 0.0 **** -0.202
158 H16381 37.3742 48.0014 49.0135 H 0.0 **** 0.053
159 H16346 40.6378 44.2277 46.7263 H 0.0 **** 0.053
160 H16369 39.3796 53.4751 36.2465 H 0.0 **** 0.053
161 C16263 34.4294 48.107 50.8826 C.3 0.0 **** -0.106
162 C16207 42.4809 46.4028 39.8215 C.2 0.0 **** 0.0
163 H16391 33.3973 54.0876 44.6936 H 0.0 **** 0.1268
164 C16179 46.91 48.0481 31.9533 C.3 0.0 **** -0.106
165 C16281 29.177 54.7593 48.7118 C.2 0.0 **** 0.0
166 C16199 45.5716 43.7266 37.9861 C.2 0.0 **** -0.012
167 O16160 52.9488 47.5214 33.8494 O.3 0.0 **** -0.32
168 C16212 39.5115 44.8054 44.4147 C.2 0.0 **** 0.0
169 C16168 49.4797 46.3472 31.332 C.3 0.0 **** -0.106
170 H16376 34.6847 50.1566 50.3346 H 0.0 **** 0.053
171 H16328 48.5881 39.5309 32.803 H 0.0 **** 0.053
172 C16250 36.1846 50.0366 44.9509 C.2 0.0 **** 0.0
173 N16236 37.952 43.864 50.4317 N.3 0.0 **** -0.727
174 C16242 41.3686 51.6088 37.6738 C.3 0.0 **** 0.107
175 C16205 42.0807 44.8309 41.6758 C.2 0.0 **** 0.0
176 C16193 48.5503 39.5187 37.6274 C.2 0.0 **** 0.0
177 C16262 33.9738 49.337 50.1061 C.3 0.0 **** -0.053
178 H16351 39.8289 41.9248 49.5936 H 0.0 **** 0.053
179 C16169 47.2096 46.667 32.4645 C.2 0.0 **** 0.0
180 C16162 50.4687 44.1207 31.93 C.3 0.0 **** 0.107
181 H16398 32.2244 48.7613 52.1536 H 0.0 **** 0.1268
182 C16229 39.7663 42.4008 47.4461 C.3 0.0 **** -0.106
183 H16382 36.6543 49.5566 49.426 H 0.0 **** 0.053
184 H16378 34.2147 48.2093 51.9559 H 0.0 **** 0.053
185 C16248 37.4763 50.7296 42.5322 C.2 0.0 **** 0.0
186 C16166 48.0818 44.3259 31.9711 C.3 0.0 **** 0.107
187 H16353 36.9931 43.1514 47.2877 H 0.0 **** 0.053
188 H16396 26.7038 52.3681 53.8249 H 0.0 **** 0.1268
189 C16206 41.766 46.0491 40.9989 C.2 0.0 **** 0.0
190 H16304 53.8531 44.6339 34.3134 H 0.0 **** 0.053
191 H16386 48.566 43.5997 39.968 H 0.0 **** 0.053
192 H16326 47.002 48.06 30.854 H 0.0 **** 0.053
193 C16175 45.2932 46.6117 35.6186 C.2 0.0 **** 0.232
194 C16173 46.5297 44.5004 35.4245 C.2 0.0 **** 0.0
195 C16198 49.0015 39.2003 39.0228 C.3 0.0 **** -0.106
196 H16310 50.2502 45.8297 33.2645 H 0.0 **** 0.053
197 C16177 45.4092 48.4382 33.916 C.3 0.0 **** -0.106
198 C16253 35.561 49.7491 46.1744 C.2 0.0 **** 0.0
199 H16397 26.0531 54.2965 52.4376 H 0.0 **** 0.1268
200 C16291 27.282 52.617 52.9416 C.2 0.0 **** -0.1268
201 H16357 34.8018 45.0248 49.8867 H 0.0 **** 0.053
202 C16238 39.8095 50.577 39.6229 C.2 0.0 **** 0.042
203 H16377 33.8588 47.234 50.5227 H 0.0 **** 0.053
204 C16237 40.8168 49.7812 39.0994 C.2 0.0 **** 0.042
205 H16317 47.5493 45.8508 30.5721 H 0.0 **** 0.053
206 H16313 51.4574 42.6484 30.7093 H 0.0 **** 0.053
207 C16259 35.366 48.2852 48.2409 C.3 0.0 **** -0.053
208 C16255 36.8314 47.7135 46.3145 C.2 0.0 **** -0.1268
209 C16201 43.4993 45.5272 39.3023 C.2 0.0 **** 0.0
210 C16211 41.3721 44.4524 42.8119 C.2 0.0 **** -0.1268
211 H16345 38.9578 45.4391 47.6921 H 0.0 **** 0.053
212 H16370 38.7415 53.7511 37.8726 H 0.0 **** 0.053
213 H16364 43.2163 52.5758 38.2158 H 0.0 **** 0.053
214 H16341 46.6435 41.9099 37.7128 H 0.0 **** 0.1268
215 C16288 30.2838 51.3673 51.0696 C.2 0.0 **** 0.0
216 H16307 52.0234 46.4231 30.8863 H 0.0 **** 0.053
217 C16221 39.4579 48.9803 41.4377 C.2 0.0 **** 0.0
218 C16234 35.602 44.3266 49.5935 C.3 0.0 **** -0.106
219 H16319 49.7601 46.1738 30.2811 H 0.0 **** 0.053
220 H16306 53.9884 45.7652 32.2328 H 0.0 **** 0.053
221 C16298 29.0291 47.9698 54.4154 C.3 0.0 **** -0.106
222 C16296 29.8717 49.8536 52.9715 C.2 0.0 **** 0.0
223 H16359 36.4932 44.8763 51.5234 H 0.0 **** 0.053
224 C16280 29.543 53.6163 49.4937 C.2 0.0 **** 0.0
225 C16251 35.869 51.2516 44.2677 C.2 0.0 **** 0.042
226 C16268 33.2208 52.6872 46.3511 C.2 0.0 **** 0.0
227 H16367 41.5281 54.355 36.7695 H 0.0 **** 0.053
228 H16334 50.0272 42.3607 37.0884 H 0.0 **** 0.053
229 O16180 44.4477 47.4589 36.309 O.3 0.0 **** -0.464
230 C16194 48.6139 40.7648 37.101 C.2 0.0 **** 0.0
231 H16380 36.5101 48.3526 51.4964 H 0.0 **** 0.053
232 C16226 38.5365 44.6035 47.1024 C.3 0.0 **** 0.107
233 C16158 51.9168 46.2498 31.9702 C.3 0.0 **** -0.053
234 H16335 48.6222 42.6967 38.0721 H 0.0 **** 0.053
235 C16215 39.0415 47.3572 43.2581 C.2 0.0 **** 0.0
236 C16217 42.8896 47.9129 37.9653 C.2 0.0 **** -0.1268
237 H16361 39.3414 51.275 37.0401 H 0.0 **** 0.053
238 C16244 42.2041 52.4798 38.635 C.3 0.0 **** -0.106
239 H16315 53.2004 43.1144 32.2986 H 0.0 **** 0.053
240 C16190 47.9866 41.5919 32.953 C.2 0.0 **** -0.1268
241 C16218 40.4581 48.1336 40.8724 C.2 0.0 **** 0.0
242 H16322 46.0847 49.1884 34.3691 H 0.0 **** 0.053
243 H16362 41.7406 51.6917 36.6427 H 0.0 **** 0.053
244 C16265 36.4358 48.4812 49.3305 C.3 0.0 **** -0.106
245 C16247 39.6341 53.427 37.3158 C.3 0.0 **** -0.106
246 H16349 40.7356 41.9157 47.2749 H 0.0 **** 0.053
247 H16311 50.5938 43.5633 32.8784 H 0.0 **** 0.053
248 H16340 49.9275 38.5939 38.9847 H 0.0 **** 0.053
249 H16329 48.1299 41.7897 31.892 H 0.0 **** 0.1268
250 O16240 39.4218 51.7652 39.0479 O.3 0.0 **** -0.202
@<TRIPOS>BOND
1 129 128 un
2 202 204 un
3 95 208 un
4 44 115 un
5 131 20 1
6 233 131 1
7 28 233 1
8 167 28 1
9 114 20 1
10 114 167 1
11 180 59 1
12 60 180 1
13 94 60 1
14 233 59 1
15 131 94 1
16 186 36 1
17 66 186 1
18 169 66 1
19 180 36 1
20 59 169 1
21 123 179 un
22 112 123 un
23 113 112 un
24 66 179 1
25 186 113 1
26 89 194 1
27 193 89 un
28 57 193 un
29 112 194 un
30 123 57 un
31 29 197 1
32 164 29 1
33 179 164 1
34 57 197 1
35 47 229 1
36 34 47 un
37 120 34 un
38 193 229 1
39 89 120 un
40 132 153 un
41 87 132 2
42 113 153 1
43 194 87 un
44 121 136 2
45 97 121 1
46 240 97 1
47 132 136 1
48 153 240 2
49 126 15 1
50 176 126 1
51 230 176 2
52 121 15 1
53 136 230 1
54 103 41 1
55 11 103 1
56 195 11 1
57 230 41 1
58 176 195 1
59 19 166 un
60 87 19 un
61 120 166 un
62 74 209 un
63 40 74 1
64 166 40 un
65 34 209 un
66 175 93 un
67 189 175 un
68 162 189 un
69 74 93 un
70 209 162 un
71 52 63 un
72 118 52 un
73 210 118 un
74 189 63 un
75 175 210 un
76 145 168 un
77 100 145 un
78 235 100 un
79 118 168 un
80 52 235 un
81 236 2 un
82 47 236 un
83 162 2 un
84 51 241 un
85 2 51 un
86 63 241 un
87 217 83 un
88 241 217 un
89 235 83 un
90 81 95 un
91 144 81 un
92 83 144 un
93 100 95 un
94 232 157 1
95 31 232 1
96 146 31 1
97 145 157 1
98 168 146 1
99 69 182 1
100 56 69 1
101 55 56 1
102 31 182 1
103 232 55 1
104 218 154 1
105 58 218 1
106 173 58 1
107 55 154 1
108 56 173 1
109 37 202 un
110 217 37 un
111 51 204 un
112 17 250 1
113 174 17 1
114 43 174 1
115 202 250 1
116 204 43 1
117 1 238 1
118 73 1 1
119 245 73 1
120 174 238 1
121 17 245 1
122 79 185 un
123 37 79 un
124 144 185 un
125 225 172 un
126 4 225 un
127 185 4 un
128 81 172 un
129 86 198 un
130 208 86 un
131 172 198 un
132 3 135 1
133 23 3 un
134 225 135 1
135 198 23 1
136 107 207 1
137 109 107 1
138 86 207 1
139 23 109 un
140 161 177 1
141 35 161 1
142 244 35 1
143 107 177 1
144 207 244 1
145 44 78 1
146 226 44 1
147 3 226 un
148 109 78 un
149 177 133 1
150 78 138 un
151 133 138 un
152 103 65 1
153 65 71 1
154 65 125 1
155 146 117 1
156 61 102 1
157 129 61 un
158 115 129 1
159 226 102 un
160 224 67 un
161 165 224 1
162 128 165 un
163 115 67 un
164 26 101 un
165 13 26 1
166 8 13 1
167 165 101 un
168 224 8 un
169 215 90 un
170 156 215 un
171 67 156 un
172 8 90 un
173 200 116 un
174 46 200 un
175 13 46 un
176 90 116 un
177 149 50 un
178 215 149 un
179 138 156 un
180 133 50 un
181 222 84 un
182 149 222 un
183 116 84 un
184 221 7 1
185 68 221 1
186 12 68 1
187 222 7 1
188 84 12 1
189 12 62 2
190 114 82 1
191 114 104 1
192 20 190 1
193 20 130 1
194 131 220 1
195 233 216 1
196 28 72 1
197 28 9 1
198 59 196 1
199 180 247 1
200 60 151 1
201 60 206 1
202 94 148 1
203 94 239 1
204 186 91 1
205 66 205 1
206 169 5 1
207 169 219 1
208 113 119 1
209 197 24 1
210 197 242 1
211 29 140 1
212 29 6 1
213 164 150 1
214 164 192 1
215 97 64 1
216 97 171 1
217 240 249 1
218 15 39 1
219 15 33 1
220 126 48 1
221 126 108 1
222 41 228 1
223 41 234 1
224 103 105 1
225 11 80 1
226 11 53 1
227 195 106 1
228 195 248 1
229 19 214 1
230 93 127 1
231 210 139 1
232 236 16 1
233 232 211 1
234 31 159 1
235 146 155 1
236 182 85 1
237 182 246 1
238 69 45 1
239 69 178 1
240 56 30 1
241 55 187 1
242 154 142 1
243 154 76 1
244 218 70 1
245 218 201 1
246 58 22 1
247 58 223 1
248 173 21 1
249 17 237 1
250 174 243 1
251 238 92 1
252 238 213 1
253 1 27 1
254 1 38 1
255 73 227 1
256 73 54 1
257 245 160 1
258 245 212 1
259 79 98 1
260 4 124 1
261 208 111 1
262 207 152 1
263 107 134 1
264 177 170 1
265 161 203 1
266 161 184 1
267 35 147 1
268 35 231 1
269 244 158 1
270 244 183 1
271 65 25 1
272 71 42 1
273 71 10 1
274 71 191 1
275 125 96 1
276 125 75 1
277 125 143 1
278 117 14 1
279 102 163 1
280 61 88 1
281 128 122 1
282 101 77 1
283 26 110 1
284 200 188 1
285 46 199 1
286 50 181 1
287 7 99 1
288 7 18 1
289 221 141 1
290 221 32 1
291 68 137 1
292 68 49 1
@<TRIPOS>MOLECULE
Sketch 4
250 292
SMALL
USER_CHARGES


@<TRIPOS>ATOM
1 C19512 16.7593 23.0464 41.1542 C.3 0.0 **** -0.053
2 H19578 11.164 45.5701 49.5512 H 0.0 **** 0.053
3 C19429 16.1277 45.3314 42.3828 C.3 0.0 **** -0.106
4 C19525 21.729 26.0953 38.3364 C.2 0.0 **** -0.1268
5 H19590 6.50833 41.2852 48.6297 H 0.0 **** 0.053
6 C19462 13.8688 30.8707 44.8981 C.2 0.0 **** 0.0
7 C19501 19.157 28.9179 40.0957 C.2 0.0 **** 0.042
8 C19494 17.8245 37.1763 38.254 C.3 0.0 **** -0.106
9 H19615 18.228 36.8582 36.1389 H 0.0 **** 0.053
10 H19637 5.05296 41.6885 44.5497 H 0.0 **** 0.053
11 H19588 6.3147 39.6727 46.797 H 0.0 **** 0.053
12 O19551 19.6307 15.0213 40.3737 O.2 0.0 **** -0.419
13 C19421 13.6766 43.5411 44.7478 C.2 0.0 **** 0.0
14 C19485 12.4343 23.9359 45.0975 C.3 0.0 **** 0.081
15 H19626 16.4119 23.2723 40.1258 H 0.0 **** 0.053
16 C19527 22.4381 23.7656 38.1073 C.2 0.0 **** 0.0
17 C19539 19.9933 21.5249 39.9192 C.2 0.0 **** 0.0
18 C19472 16.284 29.1597 42.512 C.2 0.0 **** 0.0
19 C19437 10.5276 42.9115 47.6945 C.2 0.0 **** 0.0
20 C19474 17.611 30.9136 41.3765 C.2 0.0 **** 0.0
21 C19517 20.3783 24.3027 39.3643 C.2 0.0 **** 0.0
22 H19608 12.0635 23.3032 45.9217 H 0.0 **** 0.053
23 H19565 9.30609 48.6535 44.9241 H 0.0 **** 0.053
24 C19518 20.6002 25.6951 39.1236 C.2 0.0 **** 0.0
25 C19476 13.1012 28.1115 44.7887 C.3 0.0 **** 0.107
26 O19524 12.1432 31.1569 46.7347 O.3 0.0 **** -0.57
27 C19540 20.5751 17.7958 40.0259 C.2 0.0 **** 0.0
28 C19548 17.6902 16.6701 42.9889 C.3 0.0 **** -0.106
29 H19609 12.4015 23.3218 44.1853 H 0.0 **** 0.053
30 C19504 16.7214 26.8059 41.964 C.2 0.0 **** 0.0
31 H19652 18.567 16.8157 43.641 H 0.0 **** 0.053
32 C19545 19.4232 17.3827 40.8011 C.2 0.0 **** 0.052
33 H19585 9.54286 41.2953 45.442 H 0.0 **** 0.053
34 H19622 20.2469 30.5008 39.1628 H 0.0 **** 0.1268
35 C19550 19.0939 15.938 40.9977 C.2 0.0 **** 0.347
36 H19593 12.3297 32.9978 45.6334 H 0.0 **** 0.1268
37 H19642 23.4644 25.4806 37.2528 H 0.0 **** 0.1268
38 H19594 16.7071 38.457 41.7621 H 0.0 **** 0.1268
39 O19490 19.4384 35.2333 39.683 O.3 0.0 **** -0.202
40 C19428 17.1239 44.1745 42.2751 C.3 0.0 **** -0.106
41 H19600 10.3476 27.3628 44.7343 H 0.0 **** 0.053
42 C19468 16.3021 34.3246 42.3153 C.2 0.0 **** 0.0
43 H19619 21.6101 37.5055 38.7375 H 0.0 **** 0.053
44 H19648 16.7758 20.3627 41.7721 H 0.0 **** 0.1268
45 C19408 11.6455 48.1948 42.4946 C.3 0.0 **** -0.053
46 C19413 11.4589 48.8001 45.1702 C.3 0.0 **** -0.106
47 H19576 16.6469 46.283 42.5878 H 0.0 **** 0.053
48 C19530 22.0667 21.0113 38.7026 C.2 0.0 **** 0.0
49 C19497 20.8309 36.7779 38.4657 C.3 0.0 **** -0.106
50 H19612 18.9341 38.5347 39.5689 H 0.0 **** 0.053
51 H19582 8.22503 41.837 50.6044 H 0.0 **** 0.053
52 H19635 7.45022 38.7843 44.5552 H 0.0 **** 0.053
53 H19558 12.3761 46.8971 40.8899 H 0.0 **** 0.053
54 C19434 12.3003 44.3394 46.6869 C.2 0.0 **** 0.0
55 H19613 17.0404 36.4496 38.5116 H 0.0 **** 0.053
56 C19419 15.1036 45.0807 43.4537 C.2 0.0 **** 0.0
57 H19573 17.8383 44.3503 41.4565 H 0.0 **** 0.053
58 H19631 14.2585 25.8931 41.5811 H 0.0 **** 0.053
59 C19442 9.05634 41.9832 49.8972 C.3 0.0 **** -0.106
60 C19549 17.9777 15.5792 41.9707 C.3 0.0 **** -0.086
61 H19647 23.4018 16.5972 38.4979 H 0.0 **** 0.1268
62 H19653 17.0765 15.3993 41.3558 H 0.0 **** 0.053
63 C19427 16.3687 42.8641 42.0497 C.3 0.0 **** -0.106
64 C19440 12.324 45.1091 47.7979 C.2 0.0 **** -0.1268
65 C19463 14.6123 29.9007 44.2529 C.2 0.0 **** 0.042
66 H19563 11.2924 48.9467 46.247 H 0.0 **** 0.053
67 H19630 13.7264 23.3672 40.9716 H 0.0 **** 0.053
68 C19533 24.1324 20.4683 37.4737 C.2 0.0 **** -0.1268
69 C19535 22.8456 18.6856 38.5263 C.2 0.0 **** 0.0
70 C19503 17.8048 27.1761 41.1565 C.2 0.0 **** 0.0
71 H19602 11.8019 25.7257 46.8327 H 0.0 **** 0.053
72 H19595 12.7871 27.8754 43.7548 H 0.0 **** 0.053
73 C19541 21.5646 16.8866 39.5591 C.2 0.0 **** -0.1268
74 H19649 17.2435 18.7822 42.9562 H 0.0 **** 0.053
75 C19477 12.1426 29.1691 45.3908 C.3 0.0 **** -0.053
76 C19420 14.7019 43.7918 43.7664 C.2 0.0 **** 0.0
77 C19450 11.709 40.6577 46.1272 C.2 0.0 **** -0.1268
78 H19561 11.1412 46.6798 45.1858 H 0.0 **** 0.053
79 H19605 15.164 26.1151 45.0001 H 0.0 **** 0.053
80 H19556 9.75376 49.1717 42.2441 H 0.0 **** 0.053
81 C19516 19.2606 23.8715 40.1336 C.2 0.0 **** 0.0
82 C19544 18.6817 19.7214 40.9565 C.2 0.0 **** 0.0
83 H19581 8.6819 44.1141 49.7215 H 0.0 **** 0.053
84 C19438 10.5788 43.6479 48.8426 C.2 0.0 **** 0.0
85 C19513 15.5336 22.6693 41.9781 C.3 0.0 **** -0.106
86 H19620 21.3338 35.8098 38.3181 H 0.0 **** 0.053
87 C19455 13.39 34.5897 44.6893 C.2 0.0 **** 0.0
88 O19415 13.0599 47.1515 45.8032 O.3 0.0 **** -0.32
89 C19482 13.1875 26.81 45.5841 C.3 0.0 **** -0.053
90 C19435 11.6032 43.0562 46.7153 C.2 0.0 **** 0.0
91 C19423 13.22 42.2611 45.0094 C.2 0.0 **** 0.0
92 C19452 12.7648 36.9218 44.9892 C.2 0.0 **** -0.012
93 C19441 9.53967 43.4363 49.908 C.3 0.0 **** -0.106
94 C19406 9.39386 47.1489 42.8462 C.3 0.0 **** -0.106
95 H19554 8.31978 47.3887 42.8695 H 0.0 **** 0.053
96 C19464 15.5639 30.1836 43.228 C.2 0.0 **** 0.0
97 H19584 8.8746 42.9075 45.5372 H 0.0 **** 0.053
98 C19436 12.1178 42.013 45.943 C.2 0.0 **** 0.0
99 C19461 13.1783 33.2514 45.0057 C.2 0.0 **** -0.1268
100 H19629 13.8271 23.8221 42.6761 H 0.0 **** 0.053
101 H19601 9.77952 26.8092 46.3126 H 0.0 **** 0.053
102 H19560 12.0587 46.1752 43.1104 H 0.0 **** 0.053
103 C19467 15.9232 38.1007 42.4141 C.2 0.0 **** -0.1268
104 H19587 8.07328 39.4395 46.7399 H 0.0 **** 0.053
105 C19534 23.964 19.14 37.7626 C.2 0.0 **** -0.1268
106 H19596 11.568 29.6279 44.5705 H 0.0 **** 0.053
107 C19487 17.6001 35.987 41.075 C.2 0.0 **** 0.042
108 C19424 13.8116 41.1314 44.3323 C.2 0.0 **** 0.0
109 C19480 10.6578 27.2028 45.7828 C.3 0.0 **** -0.106
110 C19498 18.6645 31.2604 40.4674 C.2 0.0 **** 0.0
111 H19639 5.35293 40.5406 43.2165 H 0.0 **** 0.053
112 C19425 14.8563 41.3984 43.3961 C.2 0.0 **** 0.232
113 H19580 9.95061 43.7121 50.8923 H 0.0 **** 0.053
114 H19651 16.8393 16.4011 43.6329 H 0.0 **** 0.053
115 C19456 14.4516 34.9665 43.8105 C.2 0.0 **** 0.0
116 O19430 15.4517 40.3504 42.7205 O.3 0.0 **** -0.464
117 H19604 13.9048 25.8251 43.8008 H 0.0 **** 0.053
118 C19529 21.1277 21.9627 39.1658 C.2 0.0 **** 0.0
119 H19562 12.2525 49.5024 44.8679 H 0.0 **** 0.053
120 H19571 17.057 42.0067 42.046 H 0.0 **** 0.053
121 H19579 12.8548 46.0596 47.8066 H 0.0 **** 0.1268
122 H19633 7.44077 41.7681 43.8238 H 0.0 **** 0.053
123 S19453 11.5937 38.025 45.6945 S.2 0.0 **** 0.024
124 C19531 23.1943 21.444 37.9326 C.2 0.0 **** 0.0
125 C19547 17.4067 17.9658 42.2387 C.3 0.0 **** -0.106
126 H19583 9.88163 41.3236 50.2281 H 0.0 **** 0.053
127 O19493 17.8349 37.2952 40.7151 O.3 0.0 **** -0.202
128 H19618 20.7078 36.9187 36.2991 H 0.0 **** 0.053
129 C19499 18.9112 32.609 40.2107 C.2 0.0 **** -0.1268
130 C19409 11.6356 47.7138 41.0203 C.3 0.0 **** 0.054
131 H19616 18.7653 35.5329 37.1858 H 0.0 **** 0.053
132 C19536 21.8904 19.6264 38.995 C.2 0.0 **** 0.0
133 C19520 19.0425 22.4685 40.36 C.2 0.0 **** 0.0
134 C19458 15.2622 33.9552 43.2311 C.2 0.0 **** 0.0
135 C19466 15.728 36.7207 42.6293 C.2 0.0 **** 0.0
136 C19505 15.9941 27.7854 42.6151 C.2 0.0 **** -0.1268
137 H19575 15.6284 45.4659 41.4023 H 0.0 **** 0.053
138 C19448 7.41957 40.723 48.3467 C.3 0.0 **** -0.106
139 C19479 11.1494 28.5303 46.3691 C.3 0.0 **** -0.106
140 C19449 12.2891 39.6122 45.4516 C.2 0.0 **** -0.012
141 C19414 10.1677 49.0694 44.3763 C.3 0.0 **** -0.106
142 C19412 11.9521 47.3852 44.9198 C.3 0.0 **** 0.107
143 H19625 17.9324 24.0607 42.6236 H 0.0 **** 0.053
144 C19444 9.32987 42.0767 47.4469 C.2 0.0 **** 0.0
145 H19607 14.6078 23.6857 44.9346 H 0.0 **** 0.053
146 C19532 23.3528 22.8106 37.6516 C.2 0.0 **** -0.1268
147 C19483 14.1168 25.8046 44.8838 C.3 0.0 **** -0.106
148 C19407 10.2016 48.4589 42.9518 C.3 0.0 **** -0.053
149 H19577 12.371 44.334 49.7966 H 0.0 **** 0.053
150 C19488 18.3871 34.9819 40.5341 C.2 0.0 **** 0.042
151 H19640 12.7072 31.757 47.2465 H 0.0 **** 0.41
152 C19470 16.8343 31.9223 42.0052 C.2 0.0 **** 0.0
153 C19507 19.7026 26.6135 39.7003 C.2 0.0 **** 0.0265
154 C19491 19.8771 36.6088 39.6502 C.3 0.0 **** 0.107
155 C19411 12.3502 47.1888 43.429 C.3 0.0 **** -0.053
156 H19654 18.2449 14.6147 42.4254 H 0.0 **** 0.053
157 C19521 7.10234 40.9336 44.4647 C.3 0.0 **** -0.053
158 C19465 15.8106 31.5555 42.9408 C.2 0.0 **** 0.0
159 H19617 20.0414 38.3191 37.1437 H 0.0 **** 0.053
160 H19553 10.4588 45.556 41.7718 H 0.0 **** 0.053
161 C19457 14.6711 36.3421 43.5242 C.2 0.0 **** 0.0
162 C19511 18.422 24.8253 40.7298 C.2 0.0 **** 0.0
163 C19526 22.6049 25.1663 37.8476 C.2 0.0 **** -0.1268
164 H19566 14.5076 45.8351 46.3008 H 0.0 **** 0.053
165 C19422 12.9496 44.7097 45.3744 C.3 0.0 **** -0.053
166 C19433 13.3812 39.816 44.5445 C.2 0.0 **** 0.0
167 H19650 16.4669 17.8623 41.6641 H 0.0 **** 0.053
168 C19542 22.6577 17.3205 38.8384 C.2 0.0 **** -0.1268
169 C19445 8.84537 41.9164 46.0244 C.3 0.0 **** -0.106
170 H19572 15.9023 42.8859 41.0465 H 0.0 **** 0.053
171 H19569 14.1463 48.3328 43.6068 H 0.0 **** 0.053
172 C19417 14.6293 46.2894 44.1905 C.3 0.0 **** -0.053
173 H19552 8.86858 45.9581 41.0687 H 0.0 **** 0.053
174 C19515 14.9827 25.0954 41.3571 C.3 0.0 **** -0.106
175 H19574 17.7 44.1074 43.2123 H 0.0 **** 0.053
176 C19489 18.1365 33.6129 40.8102 C.2 0.0 **** 0.0
177 H19598 11.6403 28.3535 47.3415 H 0.0 **** 0.053
178 H19638 5.20362 39.9453 44.8835 H 0.0 **** 0.053
179 C19454 12.5542 35.5917 45.2489 C.2 0.0 **** -0.1268
180 H19611 20.3798 36.8261 40.6074 H 0.0 **** 0.053
181 H19568 14.1672 47.2005 42.2475 H 0.0 **** 0.053
182 C19514 14.4164 23.7189 41.754 C.3 0.0 **** -0.106
183 C19508 18.6372 26.1889 40.5125 C.2 0.0 **** 0.0
184 C19460 14.0048 32.2346 44.5029 C.2 0.0 **** 0.0
185 C19432 14.0831 38.7286 43.9051 C.2 0.0 **** 0.0
186 H19586 6.71583 42.1207 46.2154 H 0.0 **** 0.053
187 C19459 15.0372 32.5829 43.5586 C.2 0.0 **** 0.0
188 O19410 10.3498 47.2583 40.5821 O.3 0.0 **** -0.32
189 C19492 18.636 37.4773 39.5314 C.3 0.0 **** 0.107
190 C19484 13.8923 24.3836 45.3981 C.3 0.0 **** -0.106
191 C19522 7.83786 39.6635 44.0178 C.3 0.0 **** -0.159
192 C19537 20.7614 19.1824 39.7477 C.2 0.0 **** 0.0
193 H19632 15.176 25.1473 40.2739 H 0.0 **** 0.053
194 H19589 7.48857 39.8945 49.0751 H 0.0 **** 0.053
195 H19592 11.7384 35.279 45.9046 H 0.0 **** 0.1268
196 C19405 9.75807 46.386 41.5509 C.3 0.0 **** 0.054
197 H19623 15.1747 27.4731 43.2432 H 0.0 **** 0.1268
198 H19597 13.6962 29.7879 46.7234 H 0.0 **** 0.053
199 C19496 20.1121 37.2183 37.1739 C.3 0.0 **** -0.106
200 H19636 8.92146 39.7168 44.203 H 0.0 **** 0.053
201 H19570 12.1138 44.9062 44.6726 H 0.0 **** 0.053
202 C19500 18.0926 28.5365 40.9699 C.2 0.0 **** 0.0
203 H19621 19.7136 32.8888 39.5299 H 0.0 **** 0.1268
204 H19644 24.989 20.8078 36.8886 H 0.0 **** 0.1268
205 H19645 24.6878 18.4001 37.4154 H 0.0 **** 0.1268
206 C19510 17.3808 24.3438 41.705 C.3 0.0 **** -0.053
207 C19473 17.3319 29.5458 41.6239 C.2 0.0 **** 0.0
208 H19641 21.8807 27.1571 38.1426 H 0.0 **** 0.1268
209 C19418 13.8659 47.3129 43.2995 C.3 0.0 **** -0.106
210 C19523 5.59189 40.7708 44.2659 C.3 0.0 **** -0.159
211 C19471 17.0808 33.2897 41.7158 C.2 0.0 **** 0.0
212 H19567 15.5416 46.82 44.5241 H 0.0 **** 0.053
213 C19431 15.136 39.0495 43.0293 C.2 0.0 **** 0.232
214 H19614 17.3178 38.1025 37.9457 H 0.0 **** 0.053
215 C19481 11.7816 26.1626 45.8196 C.3 0.0 **** 0.134
216 C19443 8.62389 41.6049 48.5019 C.2 0.0 **** 0.0
217 C19543 17.6959 20.6859 41.2928 C.2 0.0 **** -0.1268
218 C19509 16.2968 25.3688 42.111 C.3 0.0 **** -0.053
219 H19591 10.9317 40.446 46.8611 H 0.0 **** 0.1268
220 H19603 13.6179 27.0651 46.5673 H 0.0 **** 0.053
221 C19426 15.2951 42.6561 43.0875 C.2 0.0 **** 0.0
222 H19564 10.0051 50.156 44.317 H 0.0 **** 0.053
223 H19628 15.1646 21.6688 41.7114 H 0.0 **** 0.053
224 C19451 13.8431 37.3497 44.1346 C.2 0.0 **** 0.0
225 C19469 16.5415 35.6972 42.0068 C.2 0.0 **** 0.0
226 H19557 12.2068 49.1429 42.5423 H 0.0 **** 0.053
227 H19599 10.3223 29.2267 46.5562 H 0.0 **** 0.053
228 C19439 11.6242 44.6936 49.0546 C.3 0.0 **** -0.106
229 C19446 7.43222 41.332 45.9186 C.3 0.0 **** -0.053
230 C19538 19.8124 20.1411 40.2031 C.2 0.0 **** 0.0
231 C19546 18.5372 18.3432 41.3074 C.2 0.0 **** 0.0
232 C19447 7.28136 40.1841 46.9229 C.3 0.0 **** -0.106
233 H19627 15.8244 22.6313 43.0418 H 0.0 **** 0.053
234 H19643 24.2176 23.1357 37.0691 H 0.0 **** 0.1268
235 C19519 17.844 22.0188 40.9809 C.2 0.0 **** 0.0
236 C19478 13.0051 30.2796 46.0079 C.3 0.0 **** 0.107
237 H19606 14.0817 24.3601 46.4832 H 0.0 **** 0.053
238 H19559 11.8973 48.5302 40.3326 H 0.0 **** 0.053
239 C19416 13.8146 45.9773 45.4586 C.3 0.0 **** 0.107
240 C19528 21.3045 23.341 38.8731 C.2 0.0 **** 0.0
241 C19495 18.6991 36.6281 37.1057 C.3 0.0 **** -0.106
242 H19624 16.0727 25.1997 43.1754 H 0.0 **** 0.053
243 O19506 19.9286 27.951 39.4691 O.3 0.0 **** -0.0685
244 H19634 7.68609 39.4888 42.942 H 0.0 **** 0.053
245 H19646 21.438 15.8305 39.7716 H 0.0 **** 0.1268
246 C19502 19.4378 30.2321 39.8428 C.2 0.0 **** -0.1268
247 N19486 11.4925 25.0505 44.9132 N.3 0.0 **** -0.727
248 O19475 14.4671 28.609 44.7113 O.3 0.0 **** -0.202
249 H19555 9.59934 46.5091 43.719 H 0.0 **** 0.053
250 H19610 11.5322 25.3844 43.9494 H 0.0 **** 0.353
@<TRIPOS>BOND
1 94 95 1
2 3 47 1
3 129 110 un
4 76 56 un
5 76 221 un
6 230 192 un
7 148 94 1
8 45 148 1
9 130 45 1
10 188 130 1
11 196 94 1
12 196 188 1
13 142 155 1
14 46 142 1
15 141 46 1
16 45 155 1
17 148 141 1
18 239 88 1
19 172 239 1
20 209 172 1
21 142 88 1
22 155 209 1
23 13 76 un
24 165 13 un
25 172 56 1
26 239 165 1
27 108 91 1
28 112 108 un
29 221 112 un
30 13 91 un
31 40 63 1
32 3 40 1
33 56 3 1
34 221 63 1
35 213 116 1
36 185 213 un
37 166 185 un
38 112 116 1
39 108 166 un
40 90 54 un
41 98 90 2
42 165 54 1
43 91 98 un
44 84 19 2
45 228 84 1
46 64 228 1
47 90 19 1
48 54 64 2
49 59 93 1
50 216 59 1
51 144 216 2
52 84 93 1
53 19 144 1
54 229 169 1
55 232 229 1
56 138 232 1
57 144 169 1
58 216 138 1
59 77 140 un
60 98 77 un
61 166 140 un
62 92 224 un
63 123 92 1
64 140 123 un
65 185 224 un
66 87 179 un
67 115 87 un
68 161 115 un
69 92 179 un
70 224 161 un
71 187 134 un
72 184 187 un
73 99 184 un
74 115 134 un
75 87 99 un
76 65 6 un
77 96 65 un
78 158 96 un
79 184 6 un
80 187 158 un
81 103 135 un
82 213 103 un
83 161 135 un
84 225 42 un
85 135 225 un
86 134 42 un
87 211 152 un
88 42 211 un
89 158 152 un
90 207 18 un
91 20 207 un
92 152 20 un
93 96 18 un
94 25 248 1
95 75 25 1
96 236 75 1
97 65 248 1
98 6 236 1
99 109 139 1
100 215 109 1
101 89 215 1
102 75 139 1
103 25 89 1
104 190 147 1
105 14 190 1
106 247 14 1
107 89 147 1
108 215 247 1
109 150 107 un
110 176 150 un
111 211 176 un
112 225 107 un
113 154 39 1
114 189 154 1
115 127 189 1
116 150 39 1
117 107 127 1
118 241 8 1
119 199 241 1
120 49 199 1
121 189 8 1
122 154 49 1
123 176 129 un
124 20 110 un
125 7 202 un
126 246 7 un
127 110 246 un
128 207 202 un
129 30 70 un
130 136 30 un
131 18 136 un
132 202 70 un
133 153 243 1
134 183 153 un
135 7 243 1
136 70 183 1
137 206 218 1
138 162 206 1
139 30 218 1
140 183 162 un
141 85 1 1
142 182 85 1
143 174 182 1
144 206 1 1
145 218 174 1
146 21 81 1
147 24 21 1
148 153 24 un
149 162 81 un
150 1 235 1
151 81 133 un
152 235 133 un
153 229 157 1
154 157 191 1
155 157 210 1
156 236 26 1
157 163 4 1
158 16 163 un
159 240 16 1
160 24 4 un
161 21 240 un
162 48 118 un
163 124 48 1
164 146 124 un
165 240 118 un
166 16 146 un
167 105 68 un
168 69 105 1
169 132 69 1
170 124 68 un
171 48 132 un
172 17 230 un
173 118 17 un
174 132 192 un
175 73 27 un
176 168 73 un
177 69 168 un
178 192 27 un
179 82 217 un
180 230 82 un
181 133 17 un
182 235 217 un
183 231 32 un
184 82 231 un
185 27 32 un
186 28 125 1
187 60 28 1
188 35 60 1
189 231 125 1
190 32 35 1
191 35 12 2
192 196 173 1
193 196 160 1
194 94 249 1
195 148 80 1
196 45 226 1
197 130 53 1
198 130 238 1
199 155 102 1
200 142 78 1
201 46 119 1
202 46 66 1
203 141 222 1
204 141 23 1
205 239 164 1
206 172 212 1
207 209 181 1
208 209 171 1
209 165 201 1
210 63 120 1
211 63 170 1
212 40 57 1
213 40 175 1
214 3 137 1
215 228 149 1
216 228 2 1
217 64 121 1
218 93 113 1
219 93 83 1
220 59 51 1
221 59 126 1
222 169 97 1
223 169 33 1
224 229 186 1
225 232 104 1
226 232 11 1
227 138 194 1
228 138 5 1
229 77 219 1
230 179 195 1
231 99 36 1
232 103 38 1
233 25 72 1
234 75 106 1
235 236 198 1
236 139 177 1
237 139 227 1
238 109 41 1
239 109 101 1
240 215 71 1
241 89 220 1
242 147 117 1
243 147 79 1
244 190 237 1
245 190 145 1
246 14 22 1
247 14 29 1
248 247 250 1
249 154 180 1
250 189 50 1
251 8 55 1
252 8 214 1
253 241 9 1
254 241 131 1
255 199 159 1
256 199 128 1
257 49 43 1
258 49 86 1
259 129 203 1
260 246 34 1
261 136 197 1
262 218 242 1
263 206 143 1
264 1 15 1
265 85 233 1
266 85 223 1
267 182 100 1
268 182 67 1
269 174 58 1
270 174 193 1
271 157 122 1
272 191 244 1
273 191 52 1
274 191 200 1
275 210 10 1
276 210 178 1
277 210 111 1
278 26 151 1
279 4 208 1
280 163 37 1
281 146 234 1
282 68 204 1
283 105 205 1
284 73 245 1
285 168 61 1
286 217 44 1
287 125 74 1
288 125 167 1
289 28 114 1
290 28 31 1
291 60 62 1
292 60 156 1
@<TRIPOS>MOLECULE
Sketch 4
250 292
SMALL
USER_CHARGES


@<TRIPOS>ATOM
1 C31161 9.10855 41.9034 26.4767 C.3 0.0 **** -0.053
2 H31383 8.44467 42.662 19.2223 H 0.0 **** 0.053
3 C31267 27.1619 53.6464 14.6057 C.2 0.0 **** 0.0
4 H31307 7.65331 42.126 28.0445 H 0.0 **** 0.053
5 H31313 8.06108 38.5844 26.6698 H 0.0 **** 0.053
6 H31386 10.8589 43.0941 18.4952 H 0.0 **** 0.053
7 H31368 19.4706 52.7057 25.028 H 0.0 **** 0.053
8 C31286 30.8766 55.5959 12.0188 C.2 0.0 **** 0.0
9 O31256 24.7831 52.3781 17.1069 O.3 0.0 **** -0.0685
10 H31361 20.4416 48.6252 23.9868 H 0.0 **** 0.053
11 H31397 33.6271 57.1602 10.717 H 0.0 **** 0.1268
12 C31220 20.8232 48.4248 17.7912 C.2 0.0 **** 0.0
13 H31335 10.7913 41.5054 19.8679 H 0.0 **** 0.053
14 C31249 21.566 50.136 19.9184 C.2 0.0 **** -0.1268
15 C31278 28.2923 54.5067 14.5272 C.2 0.0 **** 0.0
16 C31163 7.97998 39.6655 26.8521 C.3 0.0 **** -0.106
17 H31328 10.7655 36.4834 23.4128 H 0.0 **** 0.053
18 H31363 17.479 50.3599 22.0121 H 0.0 **** 0.053
19 C31264 23.4946 50.9192 10.0551 C.3 0.0 **** -0.106
20 H31374 24.3385 49.3004 11.9586 H 0.0 **** 0.053
21 C31206 17.7416 45.5244 18.3338 C.2 0.0 **** 0.0
22 H31382 22.8779 51.9624 11.8826 H 0.0 **** 0.053
23 H31350 19.0805 46.5407 9.8082 H 0.0 **** 0.053
24 H31326 12.7397 43.4433 28.5821 H 0.0 **** 0.053
25 H31330 11.2326 35.6544 21.0008 H 0.0 **** 0.053
26 H31309 7.15505 44.3698 27.7777 H 0.0 **** 0.053
27 H31322 13.6542 45.863 25.793 H 0.0 **** 0.053
28 H31380 22.9416 51.6921 9.49935 H 0.0 **** 0.053
29 C31295 30.7104 54.3096 8.45491 C.2 0.0 **** 0.052
30 C31268 26.4843 53.4705 15.853 C.2 0.0 **** 0.0
31 C31239 20.5595 49.1768 20.1035 C.2 0.0 **** 0.0
32 H31310 9.36592 42.4842 25.5766 H 0.0 **** 0.053
33 C31287 30.4518 54.898 10.8479 C.2 0.0 **** 0.0
34 C31271 8.82608 42.2756 18.2595 C.3 0.0 **** -0.053
35 C31237 18.8751 48.1391 21.5457 C.2 0.0 **** 0.042
36 C31213 20.8434 46.6794 14.4701 C.2 0.0 **** 0.042
37 C31169 12.4504 42.8263 26.5542 C.2 0.0 **** 0.0
38 C31199 13.8838 42.3113 20.2695 C.2 0.0 **** -0.012
39 C31235 22.7384 47.4763 8.40299 C.3 0.0 **** 0.081
40 H31302 6.44452 44.135 23.8065 H 0.0 **** 0.053
41 C31275 26.9241 54.2144 16.9964 C.2 0.0 **** -0.1268
42 C31196 9.25501 40.8145 18.5093 C.3 0.0 **** -0.053
43 H31366 18.9791 52.0821 22.6094 H 0.0 **** 0.053
44 O31225 21.5834 46.6269 13.3085 O.3 0.0 **** -0.202
45 C31250 23.4308 50.5801 16.1558 C.2 0.0 **** 0.0
46 C31167 11.6001 41.707 27.057 C.3 0.0 **** -0.053
47 H31367 18.3917 51.4048 25.5402 H 0.0 **** 0.053
48 C31156 6.66731 42.1458 24.7266 C.3 0.0 **** -0.106
49 C31211 18.0416 44.7829 16.0205 C.2 0.0 **** -0.1268
50 C31188 11.1998 37.6802 21.7044 C.2 0.0 **** 0.0
51 C31210 19.1222 45.6603 15.8403 C.2 0.0 **** 0.0
52 C31172 11.5039 40.8905 24.5989 C.3 0.0 **** -0.053
53 C31280 30.1535 55.4662 13.2414 C.2 0.0 **** 0.0
54 H31311 8.93192 40.2675 25.0277 H 0.0 **** 0.053
55 H31353 22.2977 45.2541 11.2703 H 0.0 **** 0.053
56 H31341 12.7397 40.5754 19.8204 H 0.0 **** 0.1268
57 C31212 19.8927 45.6907 14.6403 C.2 0.0 **** 0.0
58 C31285 32.0239 56.4317 11.9701 C.2 0.0 **** 0.0
59 C31176 13.8668 43.938 24.8786 C.2 0.0 **** 0.0
60 C31228 19.8552 44.7293 13.4565 C.3 0.0 **** 0.107
61 C31298 30.3575 52.2719 6.44979 C.3 0.0 **** -0.106
62 C31233 22.9383 47.2871 10.9116 C.3 0.0 **** -0.106
63 C31209 19.4732 46.5582 16.9124 C.2 0.0 **** 0.0
64 H31358 23.0307 46.8511 7.54233 H 0.0 **** 0.053
65 H31396 32.8756 55.9783 8.69091 H 0.0 **** 0.1268
66 C31234 23.7047 47.2129 9.59201 C.3 0.0 **** -0.106
67 O31301 32.0869 55.4614 6.84856 O.2 0.0 **** -0.419
68 C31189 11.483 37.2721 23.1131 C.3 0.0 **** -0.106
69 C31179 12.8155 43.873 27.5689 C.3 0.0 **** -0.106
70 H31325 12.0831 44.7046 27.5388 H 0.0 **** 0.053
71 H31395 33.3182 57.7696 13.0854 H 0.0 **** 0.1268
72 H31355 23.6115 47.1955 11.7748 H 0.0 **** 0.053
73 C31252 23.2163 51.2709 18.4864 C.2 0.0 **** -0.1268
74 H31403 30.1502 54.1396 5.38796 H 0.0 **** 0.053
75 C31193 10.7345 38.4176 18.993 C.2 0.0 **** 0.0
76 H31378 25.2221 51.6703 8.95229 H 0.0 **** 0.053
77 C31182 15.3591 44.2396 20.9741 C.2 0.0 **** 0.0
78 O31243 18.2225 48.1031 22.7577 O.3 0.0 **** -0.202
79 O31240 20.3537 49.8862 22.3497 O.3 0.0 **** -0.202
80 C31265 23.0518 50.9333 11.5305 C.3 0.0 **** -0.106
81 N31236 21.3255 47.206 8.7096 N.3 0.0 **** -0.727
82 H31400 28.3704 53.0255 6.84546 H 0.0 **** 0.053
83 H31389 7.34343 43.3866 17.1017 H 0.0 **** 0.053
84 H31314 5.84949 39.898 27.147 H 0.0 **** 0.053
85 H31303 8.10265 43.7663 24.3537 H 0.0 **** 0.053
86 C31247 20.2366 50.7139 24.6098 C.3 0.0 **** -0.106
87 C31281 30.5787 56.1837 14.4059 C.2 0.0 **** 0.0
88 H31349 18.5067 44.243 10.8969 H 0.0 **** 0.053
89 C31270 27.4261 53.1234 12.198 C.2 0.0 **** 0.0
90 C31238 19.9078 49.0446 21.3569 C.2 0.0 **** 0.042
91 C31292 32.7321 56.5354 10.7519 C.2 0.0 **** -0.1268
92 C31198 10.2505 38.7045 17.6018 C.3 0.0 **** -0.106
93 H31316 12.3367 39.8382 26.2576 H 0.0 **** 0.053
94 H31342 16.021 43.154 16.5268 H 0.0 **** 0.1268
95 C31201 16.0119 44.4201 19.728 C.2 0.0 **** 0.0
96 H31388 8.01711 41.9771 16.2561 H 0.0 **** 0.053
97 C31158 7.73719 42.4014 26.9799 C.3 0.0 **** -0.053
98 C31173 12.9957 42.017 22.9534 C.2 0.0 **** 0.0
99 C31166 11.4866 40.5155 26.0892 C.3 0.0 **** 0.107
100 C31251 23.8073 51.405 17.2606 C.2 0.0 **** 0.042
101 C31257 25.424 52.5458 15.9008 C.2 0.0 **** 0.0265
102 H31392 28.3282 55.616 17.7885 H 0.0 **** 0.1268
103 C31194 10.7313 39.3468 19.9782 C.2 0.0 **** 0.0
104 H31369 20.508 50.318 25.5998 H 0.0 **** 0.053
105 H31321 15.3226 45.3134 25.653 H 0.0 **** 0.053
106 C31185 11.752 39.9844 22.2617 C.2 0.0 **** 0.0
107 H31352 21.7094 45.2175 9.07593 H 0.0 **** 0.053
108 H31336 8.33272 40.2139 18.6193 H 0.0 **** 0.053
109 C31242 18.4217 49.2533 23.6024 C.3 0.0 **** 0.107
110 C31293 27.6355 52.6427 9.83457 C.2 0.0 **** -0.1268
111 C31282 29.8552 56.0468 15.6015 C.2 0.0 **** -0.1268
112 C31277 28.728 55.2234 15.6883 C.2 0.0 **** 0.0
113 C31290 31.1643 55.0406 9.62025 C.2 0.0 **** 0.0
114 H31337 11.0457 40.6888 17.3073 H 0.0 **** 0.053
115 C31200 13.0264 41.2886 20.5929 C.2 0.0 **** -0.1268
116 C31162 9.09396 40.3904 26.116 C.3 0.0 **** 0.107
117 C31174 13.9092 43.0683 22.5728 C.2 0.0 **** 0.0
118 H31334 9.38733 40.8478 20.6748 H 0.0 **** 0.053
119 C31299 30.9191 53.6007 5.97214 C.3 0.0 **** -0.086
120 H31338 9.55869 40.3723 16.3913 H 0.0 **** 0.053
121 H31340 9.30022 38.1653 17.4204 H 0.0 **** 0.053
122 H31401 30.0213 51.6532 5.60392 H 0.0 **** 0.053
123 C31269 26.9145 52.5444 11.0034 C.2 0.0 **** 0.0
124 H31312 8.12029 39.8218 27.9338 H 0.0 **** 0.053
125 O31180 15.1887 45.0101 23.2728 O.3 0.0 **** -0.464
126 C31190 11.4518 38.4086 24.0873 C.2 0.0 **** -0.1268
127 C31215 20.487 47.5418 16.7118 C.2 0.0 **** 0.0
128 H31315 6.3171 39.7096 25.4557 H 0.0 **** 0.053
129 C31205 17.3659 44.694 17.2336 C.2 0.0 **** 0.0
130 H31323 14.4498 45.2358 28.0368 H 0.0 **** 0.053
131 H31384 9.68057 44.2224 17.7832 H 0.0 **** 0.053
132 C31191 10.7993 36.6252 20.7114 C.3 0.0 **** -0.106
133 H31331 9.69763 36.5002 20.7352 H 0.0 **** 0.053
134 C31155 7.02822 43.6443 24.5972 C.3 0.0 **** 0.054
135 C31164 6.605 40.1934 26.4036 C.3 0.0 **** -0.106
136 C31273 7.68602 42.3497 17.2386 C.3 0.0 **** -0.159
137 C31227 19.6407 45.5601 12.1832 C.3 0.0 **** -0.053
138 H31398 27.231 52.189 8.93379 H 0.0 **** 0.1268
139 H31373 22.3752 48.4406 13.1357 H 0.0 **** 0.1268
140 C31186 12.5308 41.0909 21.917 C.2 0.0 **** 0.0
141 H31364 16.6092 50.4174 23.5514 H 0.0 **** 0.053
142 H31305 7.42616 41.5394 24.2072 H 0.0 **** 0.053
143 H31404 31.7951 53.496 5.31642 H 0.0 **** 0.053
144 C31253 24.0242 50.7902 14.902 C.2 0.0 **** 0.0
145 C31255 22.6668 49.0275 13.9925 C.2 0.0 **** -0.1268
146 C31184 11.5642 39.6929 23.6805 C.2 0.0 **** 0.0
147 H31393 30.1874 56.5916 16.488 H 0.0 **** 0.1268
148 H31354 22.4663 48.2817 10.9895 H 0.0 **** 0.053
149 C31263 25.0184 51.1509 9.89946 C.3 0.0 **** -0.106
150 C31187 11.262 38.9863 21.3129 C.2 0.0 **** 0.0
151 H31344 16.9736 46.6339 22.7663 H 0.0 **** 0.1268
152 C31245 18.2883 51.8143 23.4226 C.3 0.0 **** -0.106
153 H31391 26.3909 54.088 17.9385 H 0.0 **** 0.1268
154 H31362 18.0681 48.9254 24.5903 H 0.0 **** 0.053
155 C31259 24.1277 50.279 12.4162 C.3 0.0 **** -0.053
156 C31276 27.9975 55.0569 16.9114 C.2 0.0 **** -0.1268
157 C31157 6.58726 41.7313 26.2104 C.3 0.0 **** -0.053
158 O31165 10.3302 39.7472 26.4626 O.3 0.0 **** -0.32
159 C31178 14.2151 44.4383 27.3155 C.3 0.0 **** -0.106
160 C31294 28.8562 53.364 9.76297 C.2 0.0 **** 0.0
161 C31195 10.0561 40.6883 19.8101 C.3 0.0 **** -0.106
162 C31300 31.3217 54.5316 7.10911 C.2 0.0 **** 0.347
163 C31246 19.0757 51.722 24.7344 C.3 0.0 **** -0.106
164 C31207 17.059 45.3965 19.5749 C.2 0.0 **** 0.0
165 H31356 24.1615 46.2147 9.49735 H 0.0 **** 0.053
166 H31332 10.8659 36.3152 18.5502 H 0.0 **** 0.053
167 C31217 16.7411 46.0418 21.8934 C.2 0.0 **** -0.1268
168 C31171 12.5587 41.9207 24.263 C.2 0.0 **** 0.0
169 C31218 19.1385 47.3361 19.2495 C.2 0.0 **** 0.0
170 C31224 21.826 49.4133 17.6089 C.2 0.0 **** 0.0
171 C31216 17.4256 46.2411 20.6766 C.2 0.0 **** 0.0
172 H31385 10.3337 42.8879 16.8101 H 0.0 **** 0.053
173 C31244 17.6104 50.4653 23.0988 C.3 0.0 **** -0.106
174 S31203 14.3028 42.4936 18.5803 S.2 0.0 **** 0.024
175 C31254 23.6084 50.0229 13.8061 C.2 0.0 **** 0.0
176 C31170 12.9491 42.8829 25.2625 C.2 0.0 **** 0.0
177 C31208 18.7857 46.4708 18.1617 C.2 0.0 **** 0.0
178 H31319 9.91239 41.5789 28.4299 H 0.0 **** 0.053
179 H31371 21.8483 50.7808 20.7493 H 0.0 **** 0.1268
180 H31375 26.2801 50.3737 12.3306 H 0.0 **** 0.053
181 C31266 26.7434 52.9302 13.4486 C.2 0.0 **** 0.0
182 C31261 25.7144 51.9826 13.5564 C.2 0.0 **** 0.0
183 H31308 8.60092 44.3964 26.7216 H 0.0 **** 0.053
184 C31272 9.99368 43.1681 17.819 C.3 0.0 **** -0.159
185 H31379 23.2283 49.9518 9.60638 H 0.0 **** 0.053
186 H31329 11.332 38.1661 25.1419 H 0.0 **** 0.1268
187 C31202 15.6454 43.6264 18.5826 C.2 0.0 **** -0.012
188 C31284 32.4314 57.1355 13.1444 C.2 0.0 **** -0.1268
189 H31399 28.8095 51.6056 7.79945 H 0.0 **** 0.053
190 C31181 15.7602 45.0834 22.0257 C.2 0.0 **** 0.232
191 O31160 6.73358 44.3566 25.8037 O.3 0.0 **** -0.32
192 C31159 7.59871 43.9419 26.8678 C.3 0.0 **** 0.054
193 C31230 19.6985 45.6323 9.68992 C.3 0.0 **** -0.106
194 H31357 24.5296 47.9431 9.5808 H 0.0 **** 0.053
195 C31192 11.2388 37.0291 19.3011 C.3 0.0 **** -0.106
196 C31260 25.44 51.0955 12.3712 C.3 0.0 **** -0.053
197 H31345 20.4264 47.5742 11.8804 H 0.0 **** 0.053
198 H31304 5.70109 41.9335 24.2438 H 0.0 **** 0.053
199 H31343 17.6941 44.1752 15.1908 H 0.0 **** 0.1268
200 H31306 5.64331 42.1329 26.6068 H 0.0 **** 0.053
201 H31387 6.82586 41.741 17.5592 H 0.0 **** 0.053
202 C31232 21.838 46.2153 10.9844 C.3 0.0 **** -0.053
203 C31296 29.6161 53.4397 8.55462 C.2 0.0 **** 0.0
204 C31229 19.4932 44.7235 10.9065 C.3 0.0 **** -0.106
205 C31241 19.9113 49.5424 23.6808 C.3 0.0 **** 0.107
206 H31377 25.5565 50.1885 9.86011 H 0.0 **** 0.053
207 C31262 25.5368 51.9472 11.0914 C.3 0.0 **** -0.053
208 H31347 20.8663 44.2788 13.3783 H 0.0 **** 0.053
209 C31279 29.0114 54.6341 13.3092 C.2 0.0 **** 0.0
210 C31223 22.447 49.5692 16.344 C.2 0.0 **** 0.0
211 H31359 22.8104 48.5238 8.07454 H 0.0 **** 0.053
212 H31327 12.4703 36.7621 23.1658 H 0.0 **** 0.053
213 H31360 20.9055 48.019 9.16188 H 0.0 **** 0.353
214 H31317 12.1031 41.3277 27.9671 H 0.0 **** 0.053
215 C31214 21.1464 47.6648 15.4566 C.2 0.0 **** 0.0
216 C31219 18.4671 47.2322 20.5046 C.2 0.0 **** 0.0
217 C31168 10.185 42.1522 27.5298 C.3 0.0 **** -0.106
218 C31289 28.5791 53.9331 12.1396 C.2 0.0 **** 0.0
219 H31372 23.5102 51.9192 19.3126 H 0.0 **** 0.1268
220 C31221 20.1656 48.3052 19.0432 C.2 0.0 **** 0.0
221 H31320 10.5502 41.4029 24.3592 H 0.0 **** 0.053
222 C31197 10.0584 40.2011 17.3571 C.3 0.0 **** -0.106
223 H31348 20.2407 43.9118 10.9004 H 0.0 **** 0.053
224 H31390 19.1277 43.0722 14.1849 H 0.0 **** 0.41
225 H31376 24.8581 52.8123 11.2337 H 0.0 **** 0.053
226 H31339 10.9699 38.2777 16.8793 H 0.0 **** 0.053
227 C31177 14.3036 44.9718 25.8852 C.3 0.0 **** -0.106
228 H31318 10.1964 43.2141 27.817 H 0.0 **** 0.053
229 C31248 22.204 50.2807 18.6866 C.2 0.0 **** 0.0
230 C31204 16.3019 43.7665 17.3866 C.2 0.0 **** -0.1268
231 C31258 25.0542 51.7926 14.7734 C.2 0.0 **** 0.0
232 C31297 29.2015 52.5524 7.40206 C.3 0.0 **** -0.106
233 H31333 12.3443 37.0084 19.2454 H 0.0 **** 0.053
234 H31381 22.0985 50.3978 11.6554 H 0.0 **** 0.053
235 C31291 32.321 55.8687 9.61664 C.2 0.0 **** -0.1268
236 H31324 14.9575 43.6354 27.4523 H 0.0 **** 0.053
237 H31351 19.3801 45.1569 8.75207 H 0.0 **** 0.053
238 H31346 18.7103 46.1325 12.3267 H 0.0 **** 0.053
239 C31226 20.8201 46.5582 12.0708 C.3 0.0 **** 0.107
240 H31394 32.052 57.5609 15.2111 H 0.0 **** 0.1268
241 C31288 29.2957 54.07 10.9164 C.2 0.0 **** 0.0
242 O31274 18.8868 43.6791 13.4681 O.3 0.0 **** -0.57
243 C31222 22.0898 48.7344 15.2433 C.2 0.0 **** 0.0
244 C31231 21.171 46.0389 9.57897 C.3 0.0 **** 0.134
245 H31402 31.1368 51.7058 6.98594 H 0.0 **** 0.053
246 C31183 14.373 43.2249 21.261 C.2 0.0 **** 0.0
247 H31370 21.1342 51.2054 24.204 H 0.0 **** 0.053
248 C31283 31.7351 57.0191 14.3182 C.2 0.0 **** -0.1268
249 H31365 17.5277 52.6066 23.4807 H 0.0 **** 0.053
250 C31175 14.3179 43.9849 23.5887 C.2 0.0 **** 0.232
@<TRIPOS>BOND
1 69 70 1
2 112 111 un
3 132 133 1
4 160 110 un
5 106 146 un
6 157 48 1
7 97 157 1
8 192 97 1
9 191 192 1
10 134 48 1
11 134 191 1
12 116 1 1
13 16 116 1
14 135 16 1
15 97 1 1
16 157 135 1
17 99 158 1
18 46 99 1
19 217 46 1
20 116 158 1
21 1 217 1
22 176 37 un
23 168 176 un
24 52 168 un
25 46 37 1
26 99 52 1
27 117 98 1
28 250 117 un
29 59 250 un
30 168 98 un
31 176 59 un
32 159 227 1
33 69 159 1
34 37 69 1
35 59 227 1
36 190 125 1
37 77 190 un
38 246 77 un
39 250 125 1
40 117 246 un
41 140 106 2
42 52 146 1
43 98 140 un
44 50 150 2
45 68 50 1
46 126 68 1
47 106 150 1
48 146 126 2
49 195 132 1
50 75 195 1
51 103 75 2
52 50 132 1
53 150 103 1
54 42 161 1
55 222 42 1
56 92 222 1
57 103 161 1
58 75 92 1
59 115 38 un
60 140 115 un
61 246 38 un
62 187 95 un
63 174 187 1
64 38 174 un
65 77 95 un
66 129 230 un
67 21 129 un
68 164 21 un
69 187 230 un
70 95 164 un
71 63 177 un
72 51 63 un
73 49 51 un
74 21 177 un
75 129 49 un
76 36 57 un
77 215 36 un
78 127 215 un
79 51 57 un
80 63 127 un
81 167 171 un
82 190 167 un
83 164 171 un
84 216 169 un
85 171 216 un
86 177 169 un
87 220 12 un
88 169 220 un
89 127 12 un
90 210 243 un
91 170 210 un
92 12 170 un
93 215 243 un
94 239 44 1
95 137 239 1
96 60 137 1
97 36 44 1
98 57 60 1
99 193 204 1
100 244 193 1
101 202 244 1
102 137 204 1
103 239 202 1
104 66 62 1
105 39 66 1
106 81 39 1
107 202 62 1
108 244 81 1
109 90 35 un
110 31 90 un
111 220 31 un
112 216 35 un
113 205 79 1
114 109 205 1
115 78 109 1
116 90 79 1
117 35 78 1
118 152 173 1
119 163 152 1
120 86 163 1
121 109 173 1
122 205 86 1
123 14 229 un
124 31 14 un
125 170 229 un
126 100 45 un
127 73 100 un
128 229 73 un
129 210 45 un
130 175 144 un
131 145 175 un
132 243 145 un
133 45 144 un
134 101 9 1
135 231 101 un
136 100 9 1
137 144 231 1
138 196 155 1
139 182 196 1
140 175 155 1
141 231 182 un
142 149 207 1
143 19 149 1
144 80 19 1
145 196 207 1
146 155 80 1
147 3 181 1
148 30 3 1
149 101 30 un
150 182 181 un
151 207 123 1
152 181 89 un
153 123 89 un
154 42 34 1
155 34 184 1
156 34 136 1
157 60 242 1
158 156 41 1
159 112 156 un
160 15 112 1
161 30 41 un
162 3 15 un
163 53 209 un
164 87 53 1
165 111 87 un
166 15 209 un
167 188 248 un
168 58 188 1
169 8 58 1
170 87 248 un
171 53 8 un
172 241 33 un
173 218 241 un
174 209 218 un
175 8 33 un
176 235 113 un
177 91 235 un
178 58 91 un
179 33 113 un
180 241 160 un
181 89 218 un
182 123 110 un
183 203 29 un
184 160 203 un
185 113 29 un
186 61 232 1
187 119 61 1
188 162 119 1
189 203 232 1
190 29 162 1
191 162 67 2
192 134 40 1
193 134 85 1
194 48 198 1
195 48 142 1
196 157 200 1
197 97 4 1
198 192 183 1
199 192 26 1
200 1 32 1
201 116 54 1
202 16 124 1
203 16 5 1
204 135 84 1
205 135 128 1
206 99 93 1
207 46 214 1
208 217 228 1
209 217 178 1
210 52 221 1
211 227 105 1
212 227 27 1
213 159 130 1
214 159 236 1
215 69 24 1
216 68 212 1
217 68 17 1
218 126 186 1
219 132 25 1
220 195 166 1
221 195 233 1
222 161 118 1
223 161 13 1
224 42 108 1
225 222 114 1
226 222 120 1
227 92 226 1
228 92 121 1
229 115 56 1
230 230 94 1
231 49 199 1
232 167 151 1
233 239 197 1
234 137 238 1
235 60 208 1
236 204 223 1
237 204 88 1
238 193 23 1
239 193 237 1
240 244 107 1
241 202 55 1
242 62 148 1
243 62 72 1
244 66 165 1
245 66 194 1
246 39 64 1
247 39 211 1
248 81 213 1
249 205 10 1
250 109 154 1
251 173 18 1
252 173 141 1
253 152 249 1
254 152 43 1
255 163 47 1
256 163 7 1
257 86 104 1
258 86 247 1
259 14 179 1
260 73 219 1
261 145 139 1
262 155 20 1
263 196 180 1
264 207 225 1
265 149 206 1
266 149 76 1
267 19 185 1
268 19 28 1
269 80 234 1
270 80 22 1
271 34 2 1
272 184 131 1
273 184 172 1
274 184 6 1
275 136 201 1
276 136 96 1
277 136 83 1
278 242 224 1
279 41 153 1
280 156 102 1
281 111 147 1
282 248 240 1
283 188 71 1
284 235 65 1
285 91 11 1
286 110 138 1
287 232 189 1
288 232 82 1
289 61 122 1
290 61 245 1
291 119 74 1
292 119 143 1
@<TRIPOS>MOLECULE
Sketch 4
250 292
SMALL
USER_CHARGES


@<TRIPOS>ATOM
1 C25269 24.4337 48.8705 70.16 C.2 0.0 **** 0.0
2 H25330 44.427 51.2942 55.1422 H 0.0 **** 0.053
3 C25242 29.5904 55.6716 57.1659 C.3 0.0 **** 0.107
4 C25300 20.9418 46.1269 74.498 C.2 0.0 **** 0.347
5 C25290 20.1114 47.1467 72.2934 C.2 0.0 **** 0.0
6 H25306 42.5992 60.8452 51.9681 H 0.0 **** 0.053
7 H25342 37.0717 51.7713 61.84 H 0.0 **** 0.1268
8 C25196 42.8974 55.541 59.1881 C.3 0.0 **** -0.053
9 C25218 31.4222 52.9044 60.6479 C.2 0.0 **** 0.0
10 C25278 21.3096 49.9747 67.4791 C.2 0.0 **** 0.0
11 H25347 33.6826 48.3158 65.191 H 0.0 **** 0.053
12 H25397 16.7006 47.0228 71.958 H 0.0 **** 0.1268
13 C25190 41.6766 53.6516 53.1327 C.2 0.0 **** -0.1268
14 C25224 28.5324 51.9679 62.8844 C.2 0.0 **** 0.0
15 H25363 29.8737 56.7141 59.03 H 0.0 **** 0.053
16 C25230 34.4524 49.2046 69.1174 C.3 0.0 **** -0.106
17 O25165 40.9874 55.8782 51.3275 O.3 0.0 **** -0.32
18 C25223 28.2942 51.3366 64.1312 C.2 0.0 **** 0.0
19 H25372 25.2581 52.7954 62.1015 H 0.0 **** 0.1268
20 C25210 33.3771 51.0374 63.317 C.2 0.0 **** 0.0
21 C25157 42.3082 59.8131 52.212 C.3 0.0 **** -0.053
22 H25387 44.1857 57.678 60.3861 H 0.0 **** 0.053
23 C25202 36.5258 52.8198 60.0531 C.2 0.0 **** -0.012
24 H25396 18.5049 46.3233 73.482 H 0.0 **** 0.1268
25 H25318 38.4102 58.5634 51.1877 H 0.0 **** 0.053
26 H25322 34.6876 57.3627 53.9752 H 0.0 **** 0.053
27 C25213 31.813 50.1601 64.9487 C.2 0.0 **** 0.042
28 C25227 33.9507 49.7665 66.7388 C.3 0.0 **** -0.053
29 H25395 15.9414 48.1847 69.921 H 0.0 **** 0.1268
30 C25235 31.3915 47.9422 70.9437 C.3 0.0 **** 0.081
31 H25317 38.3256 55.9878 50.4289 H 0.0 **** 0.053
32 S25203 38.2287 53.0381 59.6808 S.2 0.0 **** 0.024
33 C25212 33.1044 50.231 64.4616 C.2 0.0 **** 0.0
34 C25205 34.9243 51.9798 61.6808 C.2 0.0 **** 0.0
35 H25391 22.1086 51.8411 64.1166 H 0.0 **** 0.1268
36 C25192 43.8939 51.807 57.1993 C.3 0.0 **** -0.106
37 C25239 28.9832 53.2897 60.4487 C.2 0.0 **** 0.0
38 H25339 43.8088 52.2699 59.8965 H 0.0 **** 0.053
39 C25194 42.5161 53.8502 57.3207 C.2 0.0 **** 0.0
40 H25316 39.5775 54.4509 51.5543 H 0.0 **** 0.053
41 H25386 40.2393 55.886 59.9532 H 0.0 **** 0.053
42 H25345 32.1106 50.4584 67.688 H 0.0 **** 0.053
43 C25226 32.4799 49.5507 67.1748 C.3 0.0 **** 0.107
44 H25370 26.2367 55.1454 57.2435 H 0.0 **** 0.053
45 C25189 42.6558 52.6596 53.6793 C.3 0.0 **** -0.106
46 H25303 40.3142 59.6411 54.6368 H 0.0 **** 0.053
47 C25219 31.6625 53.6039 59.4274 C.2 0.0 **** 0.0
48 C25214 30.7004 50.8155 64.3414 C.2 0.0 **** 0.0
49 H25355 30.175 47.8986 67.6683 H 0.0 **** 0.053
50 H25365 27.9692 58.4916 58.3815 H 0.0 **** 0.053
51 H25344 32.5717 54.7976 57.0924 H 0.0 **** 0.1268
52 C25244 29.4532 56.9366 58.0386 C.3 0.0 **** -0.106
53 H25335 41.0377 55.202 58.1345 H 0.0 **** 0.053
54 C25169 37.4031 56.4026 52.2564 C.2 0.0 **** 0.0
55 H25358 31.8157 47.1251 71.5515 H 0.0 **** 0.053
56 H25359 30.7094 48.5048 71.5982 H 0.0 **** 0.053
57 C25220 29.8572 52.0791 62.3858 C.2 0.0 **** 0.0
58 C25181 34.6426 54.48 57.2803 C.2 0.0 **** 0.232
59 H25403 22.4309 46.3181 75.9928 H 0.0 **** 0.053
60 C25270 23.4021 49.1561 69.2228 C.2 0.0 **** 0.0
61 C25276 20.577 51.0912 65.4077 C.2 0.0 **** -0.1268
62 C25183 37.0489 54.0791 57.3896 C.2 0.0 **** 0.0
63 C25171 38.4844 55.2073 54.1228 C.2 0.0 **** 0.0
64 C25281 18.6103 49.4089 68.1484 C.2 0.0 **** 0.0
65 C25272 40.9518 56.4019 60.6147 C.3 0.0 **** -0.159
66 H25356 30.9964 46.3399 69.4977 H 0.0 **** 0.053
67 H25315 44.0452 58.5052 52.2598 H 0.0 **** 0.053
68 C25265 28.0895 50.7036 69.1266 C.3 0.0 **** -0.106
69 C25285 18.0134 47.9798 70.5326 C.2 0.0 **** 0.0
70 H25340 44.9192 53.5178 59.3459 H 0.0 **** 0.053
71 C25251 25.886 51.7765 63.871 C.2 0.0 **** 0.042
72 N25236 32.4856 48.8486 70.563 N.3 0.0 **** -0.727
73 C25262 25.7766 49.4867 69.8784 C.3 0.0 **** -0.053
74 C25208 32.512 52.3408 61.3904 C.2 0.0 **** 0.0
75 C25249 27.6763 53.156 60.9403 C.2 0.0 **** -0.1268
76 C25296 22.5265 46.9623 72.7712 C.2 0.0 **** 0.0
77 C25246 27.1939 57.0838 56.9092 C.3 0.0 **** -0.106
78 C25204 36.2573 52.1684 61.2298 C.2 0.0 **** -0.1268
79 H25381 29.0864 51.0642 68.8311 H 0.0 **** 0.053
80 C25245 27.9904 57.4111 58.1772 C.3 0.0 **** -0.106
81 H25384 40.4638 57.312 60.9946 H 0.0 **** 0.053
82 C25252 26.0978 52.3917 62.6683 C.2 0.0 **** -0.1268
83 H25361 28.5188 53.8958 56.5996 H 0.0 **** 0.053
84 H25336 43.9203 55.8331 58.8854 H 0.0 **** 0.053
85 H25378 26.6902 49.0434 71.8072 H 0.0 **** 0.053
86 H25323 34.027 56.89 51.6512 H 0.0 **** 0.053
87 H25319 39.5707 57.8312 50.0709 H 0.0 **** 0.053
88 C25163 42.5865 57.6004 50.9292 C.3 0.0 **** -0.106
89 O25160 40.5237 61.3425 53.4592 O.3 0.0 **** -0.32
90 C25259 27.574 49.7026 68.0768 C.3 0.0 **** -0.053
91 C25254 27.7797 50.2234 66.6791 C.2 0.0 **** 0.0
92 C25177 34.8176 56.3313 53.5962 C.3 0.0 **** -0.106
93 C25207 34.1071 53.1954 59.6999 C.2 0.0 **** 0.0
94 C25170 37.3236 55.7876 53.4957 C.2 0.0 **** 0.0
95 H25324 34.8967 55.3395 51.678 H 0.0 **** 0.053
96 C25238 29.2294 53.956 59.2204 C.2 0.0 **** 0.042
97 C25266 23.7118 49.8039 67.9772 C.2 0.0 **** 0.0
98 O25240 28.1134 54.4157 58.56 O.3 0.0 **** -0.202
99 C25279 21.0114 49.2649 68.6724 C.2 0.0 **** 0.0
100 C25264 28.1405 50.0406 70.5161 C.3 0.0 **** -0.106
101 O25225 31.6087 49.3298 66.0297 O.3 0.0 **** -0.202
102 H25380 28.1334 50.8194 71.2941 H 0.0 **** 0.053
103 C25195 42.1169 55.1792 57.9194 C.3 0.0 **** -0.106
104 H25307 40.8639 59.7251 50.6111 H 0.0 **** 0.053
105 C25234 30.6156 47.346 69.7357 C.3 0.0 **** -0.106
106 H25402 23.0147 44.3727 73.6853 H 0.0 **** 0.053
107 H25343 35.5315 50.9378 63.4401 H 0.0 **** 0.1268
108 O25256 24.5837 51.6811 64.3376 O.3 0.0 **** -0.0685
109 H25331 44.9853 52.8921 55.6686 H 0.0 **** 0.053
110 H25305 42.329 58.6284 54.0421 H 0.0 **** 0.053
111 C25162 41.4943 57.1099 51.8643 C.3 0.0 **** 0.107
112 H25354 30.4222 49.2564 68.7651 H 0.0 **** 0.053
113 C25250 26.9689 51.2525 64.6427 C.2 0.0 **** 0.0
114 H25376 25.629 50.5754 70.0274 H 0.0 **** 0.053
115 C25287 20.4131 47.8439 71.086 C.2 0.0 **** 0.0
116 H25332 44.8152 51.434 57.6733 H 0.0 **** 0.053
117 C25247 27.0985 55.5589 56.6974 C.3 0.0 **** -0.106
118 C25178 34.9019 56.3695 52.0699 C.3 0.0 **** -0.106
119 C25263 26.9596 49.0636 70.7416 C.3 0.0 **** -0.106
120 H25369 26.9432 55.3291 55.6326 H 0.0 **** 0.053
121 H25325 36.1526 58.1261 51.9432 H 0.0 **** 0.053
122 C25206 33.8393 52.507 60.9152 C.2 0.0 **** 0.0
123 C25277 20.2455 50.3978 66.6187 C.2 0.0 **** 0.0
124 C25280 19.6685 48.9769 69.0117 C.2 0.0 **** 0.0
125 H25327 42.3017 51.6274 53.4635 H 0.0 **** 0.053
126 C25299 22.1224 45.5447 75.2652 C.3 0.0 **** -0.086
127 H25404 21.7389 44.6976 75.8515 H 0.0 **** 0.053
128 C25273 43.2504 57.3879 60.8903 C.3 0.0 **** -0.159
129 H25333 43.1515 50.987 57.2469 H 0.0 **** 0.053
130 C25161 40.3733 58.1769 52.021 C.3 0.0 **** -0.053
131 C25233 30.7861 48.2456 68.5126 C.3 0.0 **** -0.106
132 C25295 21.1989 46.7262 73.153 C.2 0.0 **** 0.052
133 C25172 39.8372 55.3634 53.4653 C.3 0.0 **** -0.053
134 H25382 27.4298 51.5857 69.132 H 0.0 **** 0.053
135 H25353 32.5247 47.4497 67.5047 H 0.0 **** 0.053
136 C25291 18.7459 46.8602 72.5708 C.2 0.0 **** -0.1268
137 H25302 41.3484 60.9494 55.2721 H 0.0 **** 0.053
138 C25217 33.3417 54.3762 57.7218 C.2 0.0 **** -0.1268
139 C25260 26.1179 49.2873 68.3896 C.3 0.0 **** -0.053
140 C25215 30.9455 51.4938 63.1145 C.2 0.0 **** 0.0
141 C25229 34.9228 49.0312 67.6694 C.3 0.0 **** -0.106
142 C25255 29.0656 50.287 66.1744 C.2 0.0 **** -0.1268
143 O25274 35.4457 49.3628 64.9059 O.3 0.0 **** -0.57
144 C25222 29.3695 50.7933 64.8958 C.2 0.0 **** 0.0
145 H25362 29.8247 55.9346 56.1246 H 0.0 **** 0.053
146 C25156 42.3232 59.6904 53.7497 C.3 0.0 **** -0.106
147 C25289 22.0646 48.8477 69.546 C.2 0.0 **** 0.0
148 C25221 30.0993 52.7576 61.163 C.2 0.0 **** 0.0
149 C25164 43.2923 58.8326 51.5241 C.3 0.0 **** -0.106
150 C25268 22.9563 50.8929 65.8835 C.2 0.0 **** 0.0
151 H25368 26.1828 57.5143 56.9558 H 0.0 **** 0.053
152 C25298 23.3006 45.1824 74.3765 C.3 0.0 **** -0.106
153 H25309 39.7535 61.4981 51.5997 H 0.0 **** 0.053
154 H25321 33.9318 55.7715 53.9294 H 0.0 **** 0.053
155 H25341 40.3229 53.1806 57.8768 H 0.0 **** 0.1268
156 C25237 30.5172 54.1447 58.7428 C.2 0.0 **** 0.042
157 C25271 42.265 56.7533 59.9036 C.3 0.0 **** -0.053
158 H25351 35.2185 48.9069 69.8464 H 0.0 **** 0.053
159 C25185 40.8323 54.0569 55.3753 C.2 0.0 **** 0.0
160 C25283 17.26 49.1083 68.5076 C.2 0.0 **** -0.1268
161 H25357 29.5492 47.2317 69.9875 H 0.0 **** 0.053
162 H25393 18.1129 50.4323 66.3154 H 0.0 **** 0.1268
163 C25294 22.8206 47.7332 71.6039 C.2 0.0 **** 0.0
164 O25180 34.7946 55.1261 56.0775 O.3 0.0 **** -0.464
165 O25301 19.8408 46.1299 75.0508 O.2 0.0 **** -0.419
166 H25390 35.5194 48.9538 64.0299 H 0.0 **** 0.41
167 C25275 21.8751 51.3269 65.0488 C.2 0.0 **** -0.1268
168 H25352 33.4791 47.3482 69.5641 H 0.0 **** 0.053
169 H25329 41.6744 53.8182 52.0568 H 0.0 **** 0.1268
170 H25389 42.8187 58.2849 61.3599 H 0.0 **** 0.053
171 C25173 38.4253 54.6587 55.392 C.2 0.0 **** 0.0
172 O25243 30.7087 54.8655 57.5853 O.3 0.0 **** -0.202
173 H25311 41.9482 56.8976 52.8516 H 0.0 **** 0.053
174 C25187 42.0747 53.5361 55.9425 C.2 0.0 **** 0.0
175 C25197 43.0268 54.2984 60.076 C.3 0.0 **** -0.106
176 H25326 36.303 57.0626 50.5443 H 0.0 **** 0.053
177 H25348 34.954 47.9592 67.4096 H 0.0 **** 0.053
178 H25350 34.239 50.2728 69.3033 H 0.0 **** 0.053
179 C25167 38.6344 56.3912 51.4123 C.3 0.0 **** -0.053
180 C25155 41.0872 60.3876 54.3649 C.3 0.0 **** 0.054
181 H25374 28.1989 48.8033 68.1877 H 0.0 **** 0.053
182 H25399 24.5099 46.1628 72.8804 H 0.0 **** 0.053
183 C25201 35.4614 53.3398 59.2328 C.2 0.0 **** 0.0
184 H25338 43.4875 54.5498 61.0436 H 0.0 **** 0.053
185 H25312 42.1265 57.8489 49.9591 H 0.0 **** 0.053
186 C25241 28.3389 54.8101 57.1892 C.3 0.0 **** 0.107
187 C25292 17.7388 47.2622 71.7183 C.2 0.0 **** -0.1268
188 H25337 42.0209 53.8991 60.2849 H 0.0 **** 0.053
189 C25293 24.1421 48.1513 71.2973 C.2 0.0 **** -0.1268
190 C25188 42.9103 52.8106 55.1435 C.2 0.0 **** 0.0
191 C25193 43.377 53.0123 57.9458 C.2 0.0 **** 0.0
192 C25159 39.9503 60.6909 52.3192 C.3 0.0 **** 0.054
193 H25383 42.0405 57.5006 59.1206 H 0.0 **** 0.053
194 C25158 40.8712 59.6036 51.7072 C.3 0.0 **** -0.053
195 H25308 38.9792 60.2371 52.6083 H 0.0 **** 0.053
196 H25400 24.0795 47.1948 74.2473 H 0.0 **** 0.053
197 C25232 32.2611 48.347 68.0898 C.3 0.0 **** -0.053
198 C25258 25.3448 50.5699 66.3494 C.2 0.0 **** 0.0
199 H25377 27.2464 48.0352 70.4634 H 0.0 **** 0.053
200 C25231 33.178 48.3897 69.3581 C.3 0.0 **** 0.134
201 C25286 19.367 48.2648 70.2102 C.2 0.0 **** 0.0
202 H25304 43.2541 60.1345 54.1343 H 0.0 **** 0.053
203 C25216 33.0184 53.7387 58.9376 C.2 0.0 **** 0.0
204 H25320 40.2107 56.3305 53.8587 H 0.0 **** 0.053
205 H25313 43.3059 56.7894 50.7462 H 0.0 **** 0.053
206 H25388 43.5052 56.6814 61.6963 H 0.0 **** 0.053
207 H25364 30.0754 57.727 57.5938 H 0.0 **** 0.053
208 C25284 16.9745 48.4177 69.6556 C.2 0.0 **** -0.1268
209 H25310 40.0138 58.1693 53.0624 H 0.0 **** 0.053
210 C25179 36.1991 57.0601 51.6426 C.3 0.0 **** -0.106
211 C25282 18.9234 50.1105 66.9731 C.2 0.0 **** -0.1268
212 C25211 34.6812 51.277 62.8568 C.2 0.0 **** -0.1268
213 C25253 26.7106 50.6792 65.8969 C.2 0.0 **** 0.0
214 C25209 32.2702 51.6202 62.6001 C.2 0.0 **** 0.0
215 C25228 34.0626 49.3558 65.2635 C.3 0.0 **** 0.107
216 H25375 26.0318 48.2002 68.192 H 0.0 **** 0.053
217 C25257 24.3098 51.0567 65.5328 C.2 0.0 **** 0.0265
218 H25314 43.8422 59.35 50.7237 H 0.0 **** 0.053
219 H25360 32.1199 49.7879 70.4024 H 0.0 **** 0.353
220 C25267 22.661 50.2381 67.1204 C.2 0.0 **** 0.0
221 C25176 36.0608 55.7355 54.2065 C.2 0.0 **** 0.0
222 H25379 29.0877 49.4931 70.6215 H 0.0 **** 0.053
223 H25401 24.1544 44.8241 74.9715 H 0.0 **** 0.053
224 C25168 39.2058 57.8077 51.1099 C.3 0.0 **** -0.106
225 C25288 21.7628 48.1448 70.7473 C.2 0.0 **** 0.0
226 H25367 27.6941 57.5497 56.0428 H 0.0 **** 0.053
227 H25371 26.8461 53.5667 60.3679 H 0.0 **** 0.1268
228 H25394 16.4606 49.4406 67.8428 H 0.0 **** 0.1268
229 C25175 36.0207 55.1488 55.4409 C.2 0.0 **** 0.232
230 C25199 38.2436 53.6035 58.0249 C.2 0.0 **** -0.012
231 H25349 35.9375 49.4212 67.519 H 0.0 **** 0.053
232 H25346 34.1765 50.8435 66.7899 H 0.0 **** 0.053
233 C25184 40.8244 54.323 53.9391 C.2 0.0 **** 0.0
234 C25174 37.1671 54.6079 56.0985 C.2 0.0 **** 0.0
235 H25392 19.7601 51.4213 64.7636 H 0.0 **** 0.1268
236 C25166 39.7502 55.4685 51.9345 C.3 0.0 **** 0.107
237 H25366 27.5207 56.9061 59.0343 H 0.0 **** 0.053
238 H25328 43.6188 52.7242 53.136 H 0.0 **** 0.053
239 C25200 39.4569 53.6199 57.382 C.2 0.0 **** -0.1268
240 H25373 29.8693 49.9152 66.7902 H 0.0 **** 0.1268
241 C25248 27.4261 52.5126 62.1522 C.2 0.0 **** 0.0
242 H25385 41.1441 55.7437 61.4761 H 0.0 **** 0.053
243 H25334 42.2695 55.9611 57.1541 H 0.0 **** 0.053
244 H25398 24.9446 47.9381 71.9983 H 0.0 **** 0.1268
245 C25182 35.7429 53.9734 57.9955 C.2 0.0 **** 0.0
246 C25297 23.6896 46.4137 73.5675 C.3 0.0 **** -0.106
247 C25191 44.1394 52.1779 55.7339 C.3 0.0 **** -0.106
248 C25198 43.8493 53.2316 59.3533 C.3 0.0 **** -0.106
249 C25186 39.6221 54.1472 56.0657 C.2 0.0 **** 0.0
250 C25261 25.0448 49.9438 67.5623 C.2 0.0 **** 0.0
@<TRIPOS>BOND
1 43 42 1
2 91 90 1
3 96 98 1
4 126 127 1
5 197 200 1
6 60 147 un
7 21 146 1
8 194 21 1
9 192 194 1
10 89 192 1
11 180 146 1
12 180 89 1
13 111 130 1
14 88 111 1
15 149 88 1
16 194 130 1
17 21 149 1
18 236 17 1
19 179 236 1
20 224 179 1
21 111 17 1
22 130 224 1
23 94 54 un
24 63 94 un
25 133 63 un
26 179 54 1
27 236 133 1
28 234 171 1
29 229 234 un
30 221 229 un
31 63 171 un
32 94 221 un
33 118 92 1
34 210 118 1
35 54 210 1
36 221 92 1
37 58 164 1
38 245 58 un
39 62 245 un
40 229 164 1
41 234 62 un
42 159 233 un
43 249 159 2
44 133 233 1
45 171 249 un
46 190 174 2
47 45 190 1
48 13 45 1
49 159 174 1
50 233 13 2
51 36 247 1
52 191 36 1
53 39 191 2
54 190 247 1
55 174 39 1
56 8 103 1
57 175 8 1
58 248 175 1
59 39 103 1
60 191 248 1
61 239 230 un
62 249 239 un
63 62 230 un
64 23 183 un
65 32 23 1
66 230 32 un
67 245 183 un
68 34 78 un
69 122 34 un
70 93 122 un
71 23 78 un
72 183 93 un
73 214 74 un
74 20 214 un
75 212 20 un
76 122 74 un
77 34 212 un
78 27 33 un
79 48 27 un
80 140 48 un
81 20 33 un
82 214 140 un
83 138 203 un
84 58 138 un
85 93 203 un
86 47 9 un
87 203 47 un
88 74 9 un
89 148 57 un
90 9 148 un
91 140 57 un
92 18 144 un
93 14 18 un
94 57 14 un
95 48 144 un
96 43 101 1
97 28 43 1
98 215 28 1
99 27 101 1
100 33 215 1
101 16 141 1
102 200 16 1
103 28 141 1
104 43 197 1
105 105 131 1
106 30 105 1
107 72 30 1
108 197 131 1
109 200 72 1
110 96 156 un
111 37 96 un
112 148 37 un
113 47 156 un
114 186 98 1
115 3 186 1
116 172 3 1
117 156 172 1
118 80 52 1
119 77 80 1
120 117 77 1
121 3 52 1
122 186 117 1
123 75 241 un
124 37 75 un
125 14 241 un
126 71 113 un
127 82 71 un
128 241 82 un
129 18 113 un
130 91 213 un
131 142 91 un
132 144 142 un
133 113 213 un
134 217 108 1
135 198 217 un
136 71 108 1
137 213 198 1
138 139 90 1
139 250 139 1
140 198 250 un
141 119 73 1
142 100 119 1
143 68 100 1
144 139 73 1
145 90 68 1
146 220 97 1
147 150 220 1
148 217 150 un
149 250 97 un
150 73 1 1
151 97 60 un
152 1 60 un
153 8 157 1
154 157 65 1
155 157 128 1
156 215 143 1
157 61 167 1
158 123 61 un
159 10 123 1
160 150 167 un
161 220 10 un
162 124 99 un
163 64 124 1
164 211 64 un
165 10 99 un
166 123 211 un
167 208 160 un
168 69 208 1
169 201 69 1
170 64 160 un
171 124 201 un
172 225 115 un
173 147 225 un
174 99 147 un
175 201 115 un
176 136 5 un
177 187 136 un
178 69 187 un
179 115 5 un
180 163 189 un
181 225 163 un
182 1 189 un
183 76 132 un
184 163 76 un
185 5 132 un
186 152 246 1
187 126 152 1
188 4 126 1
189 76 246 1
190 132 4 1
191 4 165 2
192 180 137 1
193 180 46 1
194 146 202 1
195 146 110 1
196 21 6 1
197 194 104 1
198 192 195 1
199 192 153 1
200 130 209 1
201 111 173 1
202 88 185 1
203 88 205 1
204 149 218 1
205 149 67 1
206 236 40 1
207 179 31 1
208 224 25 1
209 224 87 1
210 133 204 1
211 92 154 1
212 92 26 1
213 118 86 1
214 118 95 1
215 210 121 1
216 210 176 1
217 45 125 1
218 45 238 1
219 13 169 1
220 247 2 1
221 247 109 1
222 36 116 1
223 36 129 1
224 103 243 1
225 103 53 1
226 8 84 1
227 175 188 1
228 175 184 1
229 248 38 1
230 248 70 1
231 239 155 1
232 78 7 1
233 212 107 1
234 138 51 1
235 28 232 1
236 215 11 1
237 141 177 1
238 141 231 1
239 16 178 1
240 16 158 1
241 200 168 1
242 197 135 1
243 131 112 1
244 131 49 1
245 105 66 1
246 105 161 1
247 30 55 1
248 30 56 1
249 72 219 1
250 186 83 1
251 3 145 1
252 52 15 1
253 52 207 1
254 80 50 1
255 80 237 1
256 77 226 1
257 77 151 1
258 117 120 1
259 117 44 1
260 75 227 1
261 82 19 1
262 142 240 1
263 90 181 1
264 139 216 1
265 73 114 1
266 119 199 1
267 119 85 1
268 100 222 1
269 100 102 1
270 68 79 1
271 68 134 1
272 157 193 1
273 65 81 1
274 65 242 1
275 65 41 1
276 128 22 1
277 128 206 1
278 128 170 1
279 143 166 1
280 167 35 1
281 61 235 1
282 211 162 1
283 160 228 1
284 208 29 1
285 136 24 1
286 187 12 1
287 189 244 1
288 246 182 1
289 246 196 1
290 152 223 1
291 152 106 1
292 126 59 1
@<TRIPOS>MOLECULE
Sketch 4
130 142
SMALL
USER_CHARGES


@<TRIPOS>ATOM
1 C5374 61.8165 9.72364 1.58909 C.3 0.0 **** -0.106
2 C5358 64.4382 17.0593 6.15476 C.ar 0.0 **** 0.052
3 C5355 68.8446 18.632 11.4485 C.ar 0.0 **** -0.053
4 O5391 68.4238 22.2855 9.2135 O.3 0.0 **** -0.452
5 H5419 62.908 7.83622 1.48382 H 0.0 **** 0.053
6 C5381 69.0468 10.4719 3.33748 C.ar 0.0 **** -0.1268
7 H5422 64.8931 8.2122 3.86446 H 0.0 **** 0.053
8 H5449 70.9702 18.1495 11.4262 H 0.0 **** 0.053
9 C5380 67.8678 11.2037 3.40506 C.ar 0.0 **** -0.1268
10 H5404 63.7152 20.7241 7.68434 H 0.0 **** 0.1268
11 H5416 61.0788 11.705 2.05526 H 0.0 **** 0.053
12 C5354 68.3147 17.2447 11.0026 C.ar 0.0 **** -0.053
13 C5365 62.1327 15.0342 3.84041 C.3 0.0 **** -0.106
14 C5331 58.9019 25.1683 8.68163 C.ar 0.0 **** 0.0
15 O5397 66.5093 14.0773 5.83957 O.2 0.0 **** -0.419
16 H5452 69.9885 15.9629 11.58 H 0.0 **** 0.053
17 C5351 66.6161 17.7866 7.8382 C.ar 0.0 **** 0.0
18 H5450 68.4252 15.124 11.4574 H 0.0 **** 0.053
19 C5364 63.3184 16.6931 5.33239 C.2 0.0 **** 0.367
20 C5363 63.3167 15.3854 4.69348 C.ar 0.0 **** 0.0
21 C5359 65.5175 16.159 6.3124 C.ar 0.0 **** 0.052
22 H5434 60.2085 20.9204 8.3728 H 0.0 **** 0.053
23 C5368 64.2956 13.2009 4.11266 C.ar 0.0 **** 0.2405
24 C5366 61.8102 13.5475 3.96119 C.3 0.0 **** -0.106
25 O5396 62.334 17.4949 5.14435 O.2 0.0 **** -0.419
26 C5332 60.1822 25.7019 8.91783 C.ar 0.0 **** 0.0
27 C5382 69.039 9.08577 3.11485 C.ar 0.0 **** 0.0
28 C5377 65.2639 8.49645 2.86037 C.3 0.0 **** -0.106
29 H5444 67.2821 25.459 10.9005 H 0.0 **** 0.053
30 C5337 62.3602 22.6568 8.18905 C.3 0.0 **** -0.106
31 H5417 62.1472 10.0896 0.602689 H 0.0 **** 0.053
32 H5424 67.8714 12.2739 3.61187 H 0.0 **** 0.1268
33 C5348 67.137 21.8183 9.06539 C.ar 0.0 **** 0.042
34 C5379 66.637 10.5572 3.22899 C.ar 0.0 **** 0.0
35 C5357 64.4579 18.3281 6.78179 C.ar 0.0 **** 0.042
36 H5439 59.5783 27.7856 8.8739 H 0.0 **** 0.053
37 H5423 65.3419 7.56402 2.28423 H 0.0 **** 0.053
38 H5432 56.8252 25.4035 9.27648 H 0.0 **** 0.053
39 C5339 63.8503 24.5062 9.02603 C.ar 0.0 **** 0.0
40 H5401 62.4372 22.3334 7.13263 H 0.0 **** 0.053
41 H5418 60.8399 9.2382 1.4417 H 0.0 **** 0.053
42 H5440 66.2743 26.8125 9.6794 H 0.0 **** 0.053
43 H5413 60.9863 13.2888 3.28457 H 0.0 **** 0.053
44 H5433 57.3563 26.5707 8.05275 H 0.0 **** 0.053
45 H5427 56.7068 24.1292 7.60779 H 0.0 **** 0.053
46 C5385 56.7796 22.5193 9.05576 C.3 0.0 **** -0.159
47 C5386 57.6767 26.0157 8.95199 C.3 0.0 **** -0.159
48 C5378 66.6088 9.16646 2.99489 C.ar 0.0 **** 0.0
49 H5437 61.3197 27.5489 9.08107 H 0.0 **** 0.053
50 C5376 64.2254 9.39995 2.19304 C.3 0.0 **** -0.053
51 H5414 61.4529 13.3344 4.98656 H 0.0 **** 0.053
52 H5443 67.8948 23.7972 10.9008 H 0.0 **** 0.053
53 C5392 70.2288 18.6014 12.1044 C.3 0.0 **** -0.159
54 H5446 69.0325 21.5954 8.90534 H 0.0 **** 0.41
55 H5411 61.2783 15.6641 4.11868 H 0.0 **** 0.053
56 H5458 70.4153 7.5845 3.86492 H 0.0 **** 0.053
57 C5345 64.6507 21.0019 8.14152 C.ar 0.0 **** -0.1268
58 C5393 68.9092 16.0612 11.7698 C.3 0.0 **** -0.159
59 C5343 66.0831 22.7638 9.11433 C.ar 0.0 **** 0.0
60 C5341 65.1304 24.9781 9.47485 C.ar 0.0 **** 0.0
61 H5420 62.5614 8.39917 3.1317 H 0.0 **** 0.053
62 H5451 68.7664 16.1737 12.8552 H 0.0 **** 0.053
63 H5410 68.9136 20.6301 10.6589 H 0.0 **** 0.053
64 H5441 65.0584 26.5774 10.9507 H 0.0 **** 0.053
65 O5395 63.4215 19.1357 6.57205 O.3 0.0 **** -0.452
66 C5384 57.3817 23.3066 7.88118 C.3 0.0 **** -0.106
67 C5338 63.6875 23.196 8.63531 C.ar 0.0 **** 0.0
68 C5398 67.7445 6.92706 2.75311 C.3 0.0 **** -0.159
69 C5340 62.6874 25.4642 9.02853 C.3 0.0 **** -0.106
70 C5349 67.8249 19.4095 9.21851 C.2 0.0 **** 0.0
71 C5347 66.9122 20.4408 8.81959 C.ar 0.0 **** 0.0
72 C5344 64.8031 22.3031 8.64402 C.ar 0.0 **** 0.0
73 O5394 67.6617 15.7194 7.19447 O.3 0.0 **** -0.452
74 H5448 70.5653 19.6244 12.3331 H 0.0 **** 0.053
75 C5388 60.3349 27.1443 9.34564 C.3 0.0 **** -0.159
76 C5362 64.3668 14.4976 4.82021 C.ar 0.0 **** 0.0
77 H5402 62.8882 26.2654 8.29037 H 0.0 **** 0.053
78 C5387 59.8093 21.5969 7.59907 C.3 0.0 **** -0.159
79 C5350 67.6569 18.1046 8.77485 C.2 0.0 **** 0.0
80 C5352 65.5672 18.7261 7.61505 C.ar 0.0 **** 0.0
81 H5431 57.8659 26.7551 9.74055 H 0.0 **** 0.053
82 H5455 67.0175 6.46205 3.4363 H 0.0 **** 0.053
83 C5399 70.3491 8.33968 3.06451 C.3 0.0 **** -0.159
84 H5460 70.475 7.80468 2.10958 H 0.0 **** 0.053
85 H5415 61.0661 10.602 3.42345 H 0.0 **** 0.053
86 H5453 67.3568 14.8674 6.62492 H 0.0 **** 0.41
87 C5390 67.4815 24.5889 10.2649 C.3 0.0 **** -0.159
88 C5353 68.4963 17.0659 9.48188 C.3 0.0 **** -0.106
89 H5405 68.2163 16.0518 9.19574 H 0.0 **** 0.053
90 H5430 55.7689 22.1518 8.81933 H 0.0 **** 0.053
91 C5356 68.9114 19.6159 10.2484 C.3 0.0 **** -0.106
92 N5369 65.432 12.5156 3.92319 N.ar 0.0 **** -0.481
93 H5400 62.1664 21.7171 8.73536 H 0.0 **** 0.053
94 C5346 65.6695 20.0521 8.19484 C.ar 0.0 **** 0.0
95 C5342 66.2195 24.1184 9.57649 C.ar 0.0 **** 0.0
96 C5333 61.3203 24.8872 8.75501 C.ar 0.0 **** 0.0
97 C5389 65.2646 26.4303 9.87582 C.3 0.0 **** -0.159
98 H5421 64.5718 9.58295 1.15581 H 0.0 **** 0.053
99 H5445 68.2724 24.8594 9.5478 H 0.0 **** 0.053
100 H5457 67.424 6.67361 1.72809 H 0.0 **** 0.053
101 H5409 69.8919 19.457 9.75889 H 0.0 **** 0.053
102 H5442 64.5606 27.066 9.32499 H 0.0 **** 0.053
103 H5407 67.2263 17.239 11.1779 H 0.0 **** 0.053
104 C5370 65.3739 11.3088 3.35004 C.ar 0.0 **** 0.2405
105 C5335 59.8977 23.0356 8.05115 C.ar 0.0 **** 0.0
106 H5436 58.7854 21.276 7.38198 H 0.0 **** 0.053
107 C5375 62.852 8.73364 2.12014 C.3 0.0 **** -0.106
108 H5438 60.2201 27.2577 10.4383 H 0.0 **** 0.053
109 H5456 68.7172 6.4512 2.92225 H 0.0 **** 0.053
110 C5336 58.7594 23.8481 8.20053 C.ar 0.0 **** 0.0
111 C5372 62.9801 11.4722 3.03583 C.ar 0.0 **** 0.0
112 C5360 66.6119 16.5283 7.12241 C.ar 0.0 **** 0.042
113 H5406 69.5659 17.1826 9.22626 H 0.0 **** 0.053
114 C5373 61.6625 10.9108 2.54598 C.3 0.0 **** -0.106
115 C5334 61.1725 23.5608 8.3432 C.ar 0.0 **** 0.0
116 H5408 68.1322 19.0503 12.177 H 0.0 **** 0.053
117 H5403 62.6697 25.9911 9.99762 H 0.0 **** 0.053
118 C5383 67.8034 8.42366 2.95449 C.ar 0.0 **** 0.0
119 H5459 71.194 9.03156 3.18329 H 0.0 **** 0.053
120 H5412 62.3761 15.2755 2.78854 H 0.0 **** 0.053
121 H5426 57.4303 22.6607 6.9922 H 0.0 **** 0.053
122 H5429 57.4136 21.656 9.30723 H 0.0 **** 0.053
123 C5361 65.5263 14.8637 5.66042 C.2 0.0 **** 0.367
124 H5425 70.006 10.9768 3.47186 H 0.0 **** 0.1268
125 H5435 60.4202 21.4217 6.69825 H 0.0 **** 0.053
126 C5371 64.1687 10.7448 2.87989 C.ar 0.0 **** 0.0
127 H5454 62.7789 18.5872 5.92602 H 0.0 **** 0.41
128 H5447 70.2291 18.025 13.0398 H 0.0 **** 0.053
129 H5428 56.7178 23.1539 9.95299 H 0.0 **** 0.053
130 C5367 63.0352 12.7184 3.68152 C.ar 0.0 **** 0.0
@<TRIPOS>BOND
1 19 20 1
2 71 70 1
3 88 89 1
4 96 26 am
5 115 96 am
6 105 115 am
7 110 105 am
8 14 26 am
9 14 110 am
10 67 30 1
11 39 67 am
12 69 39 1
13 115 30 1
14 96 69 1
15 95 60 am
16 59 95 am
17 72 59 am
18 39 60 am
19 67 72 am
20 94 57 am
21 71 94 am
22 33 71 am
23 72 57 am
24 59 33 am
25 79 70 1
26 17 79 1
27 80 17 am
28 94 80 am
29 12 88 1
30 3 12 am
31 91 3 1
32 79 88 1
33 70 91 1
34 2 35 am
35 21 2 am
36 112 21 am
37 80 35 am
38 17 112 am
39 76 123 1
40 20 76 am
41 21 123 1
42 2 19 1
43 24 13 1
44 130 24 1
45 23 130 am
46 20 13 1
47 76 23 am
48 104 92 am
49 126 104 am
50 111 126 am
51 23 92 am
52 130 111 am
53 1 114 1
54 107 1 1
55 50 107 1
56 111 114 1
57 126 50 1
58 48 28 1
59 34 48 am
60 104 34 am
61 50 28 1
62 6 9 am
63 27 6 am
64 118 27 am
65 34 9 am
66 48 118 am
67 110 66 1
68 66 46 1
69 14 47 1
70 105 78 1
71 26 75 1
72 60 97 1
73 95 87 1
74 33 4 1
75 3 53 1
76 12 58 1
77 112 73 1
78 35 65 1
79 19 25 2
80 123 15 2
81 118 68 1
82 27 83 1
83 30 93 1
84 30 40 1
85 69 77 1
86 69 117 1
87 57 10 1
88 88 113 1
89 12 103 1
90 3 116 1
91 91 101 1
92 91 63 1
93 13 55 1
94 13 120 1
95 24 43 1
96 24 51 1
97 114 85 1
98 114 11 1
99 1 31 1
100 1 41 1
101 107 5 1
102 107 61 1
103 50 98 1
104 28 7 1
105 28 37 1
106 9 32 1
107 6 124 1
108 66 121 1
109 66 45 1
110 46 129 1
111 46 122 1
112 46 90 1
113 47 81 1
114 47 38 1
115 47 44 1
116 78 22 1
117 78 125 1
118 78 106 1
119 75 49 1
120 75 108 1
121 75 36 1
122 97 42 1
123 97 64 1
124 97 102 1
125 87 52 1
126 87 29 1
127 87 99 1
128 4 54 1
129 53 128 1
130 53 74 1
131 53 8 1
132 58 18 1
133 58 62 1
134 58 16 1
135 73 86 1
136 65 127 1
137 68 82 1
138 68 109 1
139 68 100 1
140 83 56 1
141 83 119 1
142 83 84 1
@<TRIPOS>MOLECULE
Sketch 4
250 292
SMALL
USER_CHARGES


@<TRIPOS>ATOM
1 H18103 61.4996 68.0339 -0.998523 H 0.0 **** 0.053
2 C17987 71.109 73.6988 0.0930557 C.2 0.0 **** 0.042
3 H18150 55.5653 71.9336 -9.14884 H 0.0 **** 0.053
4 H18076 79.0265 73.039 6.88146 H 0.0 **** 0.053
5 C17984 59.4536 68.9719 -2.88718 C.3 0.0 **** -0.106
6 H18124 61.3694 71.0034 -4.48801 H 0.0 **** 0.053
7 H18052 74.3313 75.3479 12.843 H 0.0 **** 0.053
8 O18051 55.0341 72.6734 -13.4981 O.2 0.0 **** -0.419
9 H18105 61.6016 69.3559 -2.99634 H 0.0 **** 0.053
10 C17938 73.3952 67.2906 11.1398 C.2 0.0 **** 0.0
11 C17959 66.8476 71.2634 0.576828 C.2 0.0 **** 0.0
12 C17905 75.189 74.8059 12.4215 C.3 0.0 **** 0.054
13 C17958 68.1043 71.6628 1.12685 C.2 0.0 **** 0.0
14 H18135 67.622 71.5256 10.3924 H 0.0 **** 0.053
15 H18115 72.1899 78.5901 -0.559005 H 0.0 **** 0.053
16 C18028 62.8279 74.5814 -10.3538 C.2 0.0 **** 0.0
17 C17997 73.603 76.0004 -2.42769 C.3 0.0 **** -0.106
18 C18000 65.2658 73.2158 -4.53161 C.2 0.0 **** 0.0
19 H18054 75.192 73.7229 14.3293 H 0.0 **** 0.053
20 N17986 58.6355 69.7554 -0.616505 N.3 0.0 **** -0.727
21 H18095 61.6964 70.9697 -0.223968 H 0.0 **** 0.053
22 C17963 64.3999 70.4273 -0.503389 C.2 0.0 **** 0.042
23 C17935 73.4955 69.2492 9.698 C.2 0.0 **** 0.0
24 H18139 67.8729 73.2021 12.9225 H 0.0 **** 0.053
25 H18140 64.8363 67.7939 2.48184 H 0.0 **** 0.41
26 C18045 56.8562 72.4412 -11.94 C.2 0.0 **** 0.052
27 C17962 64.7729 69.936 0.733416 C.2 0.0 **** 0.0
28 H18141 66.2937 75.5187 -8.76078 H 0.0 **** 0.1268
29 C17944 71.3945 68.6946 11.0912 C.2 0.0 **** 0.0
30 C18039 60.5868 73.5526 -10.1771 C.2 0.0 **** 0.0
31 C17932 71.3551 71.4622 4.87139 C.2 0.0 **** 0.0
32 C17947 68.6729 69.2958 11.6243 C.3 0.0 **** -0.106
33 H18053 74.9056 74.4529 11.4098 H 0.0 **** 0.053
34 H18110 58.934 70.731 -0.583668 H 0.0 **** 0.353
35 C17948 69.1925 67.9078 11.9986 C.3 0.0 **** -0.106
36 C17978 63.7934 68.8846 1.24552 C.3 0.0 **** 0.107
37 C17965 66.4445 71.7202 -0.713218 C.2 0.0 **** 0.0
38 H18113 71.1741 76.3337 0.48222 H 0.0 **** 0.053
39 H18136 69.227 71.7857 9.675 H 0.0 **** 0.053
40 C17921 75.0779 71.0151 8.02995 C.2 0.0 **** 0.0
41 C17973 65.6612 72.7204 -3.25748 C.2 0.0 **** 0.0
42 C18010 61.4131 72.2614 -6.22624 C.3 0.0 **** -0.053
43 H18072 75.8124 74.4026 5.37133 H 0.0 **** 0.053
44 C17994 72.2184 76.5581 0.22069 C.3 0.0 **** -0.106
45 H18094 72.6295 73.2895 2.30465 H 0.0 **** 0.1268
46 C17977 62.3903 69.5084 1.24194 C.3 0.0 **** -0.053
47 C17985 58.2555 69.3926 -1.99028 C.3 0.0 **** 0.081
48 O17975 63.2549 69.8954 -1.05615 O.3 0.0 **** -0.202
49 H18100 59.8842 70.2204 1.60031 H 0.0 **** 0.053
50 C17998 67.8311 73.8491 -3.52303 C.2 0.0 **** 0.0
51 C18031 62.3464 75.1773 -13.0864 C.2 0.0 **** 0.0
52 C18025 65.3344 75.2663 -9.21228 C.2 0.0 **** -0.1268
53 C18007 64.6041 74.166 -7.09307 C.2 0.0 **** 0.0265
54 H18126 59.9829 73.8534 -6.24429 H 0.0 **** 0.053
55 C18047 56.1848 71.2713 -9.78276 C.3 0.0 **** -0.106
56 C17919 77.158 72.2577 7.57098 C.2 0.0 **** 0.0
57 H18123 62.7265 71.1947 -2.4629 H 0.0 **** 0.1268
58 H18118 73.6518 78.1723 -2.52547 H 0.0 **** 0.053
59 C17945 70.9889 70.1453 11.2133 C.3 0.0 **** -0.106
60 H18128 57.9521 72.2982 -5.93058 H 0.0 **** 0.053
61 H18093 65.6435 69.5229 3.28391 H 0.0 **** 0.1268
62 C18048 55.2802 70.4042 -10.6498 C.3 0.0 **** -0.106
63 H18146 56.7294 73.1368 -14.5911 H 0.0 **** 0.1268
64 C18037 59.0992 73.473 -12.1487 C.2 0.0 **** 0.0
65 H18069 79.2855 72.4409 10.2083 H 0.0 **** 0.053
66 C18017 63.0901 74.2616 -8.99249 C.2 0.0 **** 0.0
67 C17980 59.9278 69.1361 1.39135 C.3 0.0 **** -0.106
68 C17960 65.972 70.4114 1.34247 C.2 0.0 **** 0.0
69 C17969 70.2665 72.8663 0.911592 C.2 0.0 **** 0.0
70 H18127 59.1172 70.9778 -5.75401 H 0.0 **** 0.053
71 H18065 76.7904 71.6713 14.5034 H 0.0 **** 0.053
72 H18098 61.431 67.5685 1.44053 H 0.0 **** 0.053
73 O17990 71.5385 74.8301 -2.00951 O.3 0.0 **** -0.202
74 C17927 76.0588 73.3567 5.10747 C.3 0.0 **** -0.106
75 C17942 71.1583 66.2868 11.5753 C.3 0.0 **** -0.106
76 C17970 67.3305 72.5658 -1.46028 C.2 0.0 **** 0.0
77 H18091 70.9674 68.9885 8.7892 H 0.0 **** 0.1268
78 C17974 66.9447 73.0344 -2.74379 C.2 0.0 **** 0.0
79 H18087 68.5122 69.3399 10.5347 H 0.0 **** 0.053
80 C17957 69.729 71.6062 2.99492 C.2 0.0 **** 0.0
81 C17924 73.1747 71.24 6.50509 C.2 0.0 **** 0.0
82 C18035 59.8797 74.4275 -14.2848 C.2 0.0 **** 0.0
83 C18032 63.5603 75.5373 -12.4795 C.2 0.0 **** -0.1268
84 C18049 54.5488 71.3051 -11.631 C.3 0.0 **** -0.086
85 C18011 62.4034 73.1526 -6.92774 C.2 0.0 **** 0.0
86 H18125 61.4933 71.2714 -6.71801 H 0.0 **** 0.053
87 H18055 75.1966 72.6814 12.8983 H 0.0 **** 0.053
88 C17981 59.7129 68.9056 -0.107564 C.3 0.0 **** 0.134
89 H18121 69.7685 74.7844 -3.57811 H 0.0 **** 0.1268
90 H18112 73.965 75.2338 0.252356 H 0.0 **** 0.053
91 H18116 71.4051 77.3996 -1.61154 H 0.0 **** 0.053
92 H18062 79.1664 71.4753 12.5744 H 0.0 **** 0.053
93 H18097 63.7819 68.0663 0.496156 H 0.0 **** 0.053
94 C18013 58.9843 72.0663 -5.6318 C.3 0.0 **** -0.106
95 C18016 62.0979 73.5863 -8.22666 C.2 0.0 **** 0.0
96 C17917 77.8802 71.664 8.7349 C.3 0.0 **** -0.053
97 H18079 76.6754 68.2497 10.5148 H 0.0 **** 0.1268
98 C18038 59.346 73.191 -10.7753 C.2 0.0 **** 0.0
99 C18022 68.5662 72.0806 10.5043 C.3 0.0 **** -0.159
100 H18137 68.6437 71.9941 13.9865 H 0.0 **** 0.053
101 H18056 77.4752 74.319 14.0879 H 0.0 **** 0.053
102 C17913 78.1367 71.2092 12.8631 C.3 0.0 **** -0.106
103 C17928 77.5656 73.147 5.2612 C.3 0.0 **** -0.106
104 C17966 70.6435 72.4088 2.23267 C.2 0.0 **** 0.0
105 C17950 71.5852 69.649 8.18116 C.2 0.0 **** -0.1268
106 H18071 75.746 73.2257 4.06154 H 0.0 **** 0.053
107 H18114 72.6916 76.9842 1.11748 H 0.0 **** 0.053
108 H18075 77.7765 74.2641 7.09795 H 0.0 **** 0.053
109 C17941 72.6279 66.3292 12.0038 C.3 0.0 **** -0.106
110 H18120 73.094 76.024 -3.4035 H 0.0 **** 0.053
111 C17929 77.949 73.229 6.74067 C.3 0.0 **** -0.106
112 C17982 61.0461 69.0364 -0.917886 C.3 0.0 **** -0.053
113 C17952 69.1175 70.3973 5.06394 C.2 0.0 **** -0.012
114 C17967 71.8892 72.7005 2.82582 C.2 0.0 **** -0.1268
115 H18074 77.8372 72.1516 4.87389 H 0.0 **** 0.053
116 C17956 68.4729 71.2468 2.43317 C.2 0.0 **** 0.0
117 H18061 76.213 71.0753 11.926 H 0.0 **** 0.053
118 C17943 70.603 67.6894 11.5352 C.2 0.0 **** 0.0
119 H18068 78.3688 73.7055 9.37734 H 0.0 **** 0.053
120 H18145 60.696 75.3131 -16.09 H 0.0 **** 0.1268
121 H18096 62.4413 70.416 1.86443 H 0.0 **** 0.053
122 C17989 69.4635 73.734 -1.7195 C.2 0.0 **** 0.0
123 C18023 68.1967 72.1525 12.9924 C.3 0.0 **** -0.159
124 C18020 60.8202 73.2842 -8.81255 C.2 0.0 **** 0.0
125 O17930 73.4693 72.6083 4.52048 O.3 0.0 **** -0.464
126 C18050 55.4809 72.1774 -12.4627 C.2 0.0 **** 0.347
127 C17912 77.255 71.3036 11.6295 C.3 0.0 **** 0.107
128 C17939 74.8498 67.0445 10.9058 C.3 0.0 **** -0.106
129 H18131 60.9083 72.8269 -2.82186 H 0.0 **** 0.053
130 H18084 71.8208 70.6966 11.687 H 0.0 **** 0.053
131 C17936 72.9323 69.8856 8.59013 C.2 0.0 **** 0.0
132 C18005 63.4508 71.7531 -3.03479 C.2 0.0 **** -0.1268
133 H18109 57.7334 70.2566 -2.42748 H 0.0 **** 0.053
134 C17954 67.9039 70.0666 4.51729 C.2 0.0 **** -0.1268
135 C17906 75.6067 73.6148 13.3154 C.3 0.0 **** -0.106
136 H18149 56.7618 70.6357 -9.09645 H 0.0 **** 0.053
137 C17923 73.7654 70.7123 7.71235 C.2 0.0 **** 0.0
138 C17976 62.0679 69.9278 -0.214094 C.3 0.0 **** 0.107
139 C17909 77.3505 75.2282 11.5735 C.3 0.0 **** 0.054
140 C18041 57.6699 73.41 -14.1248 C.2 0.0 **** -0.1268
141 H18099 61.3992 68.55 2.90756 H 0.0 **** 0.053
142 H18073 78.1182 73.8957 4.67332 H 0.0 **** 0.053
143 H18104 60.6477 70.6581 -2.28756 H 0.0 **** 0.053
144 C18027 63.8236 75.251 -11.136 C.2 0.0 **** 0.0
145 H18142 65.819 76.1126 -11.1129 H 0.0 **** 0.1268
146 O18024 64.0226 68.3183 2.53688 O.3 0.0 **** -0.57
147 H18130 58.5301 73.3065 -3.89349 H 0.0 **** 0.053
148 O17915 77.6926 70.2932 10.7078 O.3 0.0 **** -0.32
149 C17926 75.2747 72.4265 5.99796 C.2 0.0 **** 0.0
150 S17953 69.3562 69.9013 6.73215 S.2 0.0 **** 0.024
151 H18133 70.0702 72.4663 11.9923 H 0.0 **** 0.053
152 H18107 59.2881 69.3055 -3.92406 H 0.0 **** 0.053
153 H18129 58.9588 71.638 -3.50013 H 0.0 **** 0.053
154 C18044 58.3559 72.5337 -9.9943 C.2 0.0 **** 0.0
155 C17951 70.0846 71.1612 4.3173 C.2 0.0 **** 0.0
156 C17925 73.9906 72.0767 5.68451 C.2 0.0 **** 0.232
157 H18070 75.3099 71.3537 10.0654 H 0.0 **** 0.053
158 H18083 71.0857 65.8237 10.5724 H 0.0 **** 0.053
159 H18085 70.8765 70.6042 10.2192 H 0.0 **** 0.053
160 C18015 60.6655 72.9149 -3.8916 C.3 0.0 **** -0.106
161 H18122 68.1099 74.9204 -5.40912 H 0.0 **** 0.1268
162 C17996 73.5575 77.3895 -1.75854 C.3 0.0 **** -0.106
163 C18021 69.1905 71.8066 11.8787 C.3 0.0 **** -0.053
164 H18144 62.8473 75.9765 -15.0425 H 0.0 **** 0.1268
165 C18009 61.6376 72.0473 -4.71146 C.3 0.0 **** -0.053
166 C17940 75.5918 68.2464 10.4092 C.2 0.0 **** -0.1268
167 H18143 64.321 76.0465 -13.0753 H 0.0 **** 0.1268
168 C17968 69.0015 72.4872 0.370666 C.2 0.0 **** 0.0
169 C18003 63.9834 72.9636 -5.04175 C.2 0.0 **** 0.0
170 H18059 78.1716 75.9411 11.7333 H 0.0 **** 0.053
171 C18012 59.9936 72.7804 -6.52338 C.3 0.0 **** -0.053
172 C18036 60.1083 74.1316 -12.9146 C.2 0.0 **** 0.0
173 C17949 71.0573 70.1824 7.03108 C.2 0.0 **** -0.012
174 C18019 59.767 72.7634 -8.01025 C.2 0.0 **** 0.0
175 C17934 74.9473 69.2955 9.85129 C.2 0.0 **** 0.0
176 C17961 66.3362 70.0735 2.65511 C.2 0.0 **** -0.1268
177 C18018 64.3613 74.5767 -8.41751 C.2 0.0 **** 0.0
178 C18043 58.5867 72.374 -8.60272 C.2 0.0 **** -0.1268
179 C17946 69.7038 70.3583 12.0213 C.3 0.0 **** -0.053
180 C17920 75.8694 71.8977 7.21016 C.2 0.0 **** 0.0
181 C18042 58.6502 74.0398 -14.863 C.2 0.0 **** -0.1268
182 C17988 70.7319 74.0796 -1.18557 C.2 0.0 **** 0.042
183 C17955 67.5572 70.4609 3.19815 C.2 0.0 **** 0.0
184 C17907 77.1434 73.5184 13.4108 C.3 0.0 **** -0.053
185 C18033 62.0794 75.4628 -14.4612 C.2 0.0 **** -0.1268
186 O17910 76.2444 75.7666 12.308 O.3 0.0 **** -0.32
187 C17995 72.2677 77.5647 -0.949107 C.3 0.0 **** -0.106
188 H18080 73.0872 65.3292 11.9508 H 0.0 **** 0.053
189 H18086 69.9436 70.1967 13.0889 H 0.0 **** 0.053
190 H18101 59.1033 68.6757 1.95271 H 0.0 **** 0.053
191 C17991 72.919 74.9148 -1.5941 C.3 0.0 **** 0.107
192 C17911 77.3225 72.7258 11.0031 C.3 0.0 **** -0.053
193 H18058 77.1012 75.2203 10.4918 H 0.0 **** 0.053
194 C18030 61.3473 74.5023 -12.3132 C.2 0.0 **** 0.0
195 H18060 76.3238 72.9999 10.6271 H 0.0 **** 0.053
196 H18111 73.3826 73.9277 -1.75827 H 0.0 **** 0.053
197 C17937 72.7625 68.3819 10.6184 C.2 0.0 **** 0.0
198 H18108 57.5231 68.5691 -1.93989 H 0.0 **** 0.053
199 C17964 65.176 71.3631 -1.25056 C.2 0.0 **** 0.0
200 C17916 77.1578 70.4705 9.38509 C.3 0.0 **** 0.107
201 H18092 67.1813 69.4804 5.08958 H 0.0 **** 0.1268
202 C17914 77.6237 72.1531 13.966 C.3 0.0 **** -0.106
203 C17971 68.5952 72.9247 -0.925634 C.2 0.0 **** 0.0
204 C18004 63.0609 72.2513 -4.2644 C.2 0.0 **** 0.0
205 H18147 58.48 74.2467 -15.9217 H 0.0 **** 0.1268
206 H18119 74.6445 75.7004 -2.61686 H 0.0 **** 0.053
207 C17983 60.7501 69.5602 -2.33308 C.3 0.0 **** -0.106
208 H18117 74.422 77.506 -1.08274 H 0.0 **** 0.053
209 C18040 57.8529 73.1173 -12.7448 C.2 0.0 **** 0.0
210 H18063 78.1607 70.1695 13.2197 H 0.0 **** 0.053
211 C17972 64.7456 71.9232 -2.50772 C.2 0.0 **** 0.0
212 C17999 69.0805 74.1743 -2.99498 C.2 0.0 **** -0.1268
213 H18077 74.9786 66.2036 10.1891 H 0.0 **** 0.053
214 H18089 68.5497 67.1187 11.5676 H 0.0 **** 0.053
215 O17993 72.3185 74.1247 0.594729 O.3 0.0 **** -0.202
216 H18057 78.8483 73.7607 12.1105 H 0.0 **** 0.053
217 H18090 69.1352 67.7643 13.0953 H 0.0 **** 0.053
218 C18002 67.4273 74.3125 -4.81435 C.2 0.0 **** -0.1268
219 H18154 53.9075 70.7566 -12.3355 H 0.0 **** 0.053
220 H18082 70.5636 65.6632 12.2609 H 0.0 **** 0.053
221 H18106 59.5405 67.8739 -2.91579 H 0.0 **** 0.053
222 H18148 57.7962 71.9732 -7.97397 H 0.0 **** 0.1268
223 C18029 61.5939 74.2108 -10.951 C.2 0.0 **** 0.0
224 H18081 72.6967 66.6539 13.062 H 0.0 **** 0.053
225 H18078 75.3075 66.6638 11.8399 H 0.0 **** 0.053
226 C18046 57.1402 72.1021 -10.6102 C.2 0.0 **** 0.0
227 C18001 66.1869 73.9972 -5.29565 C.2 0.0 **** 0.042
228 C17933 71.8481 70.9807 6.13988 C.2 0.0 **** 0.0
229 C17992 72.9262 75.2268 -0.106999 C.3 0.0 **** 0.107
230 C17922 75.6234 70.5548 9.36308 C.3 0.0 **** -0.053
231 H18064 78.4243 72.3071 14.7049 H 0.0 **** 0.053
232 C18014 59.211 72.4825 -4.15694 C.3 0.0 **** -0.106
233 H18088 67.7022 69.4867 12.1071 H 0.0 **** 0.053
234 H18151 54.5735 69.8365 -10.0257 H 0.0 **** 0.053
235 H18067 78.8355 71.2745 8.3339 H 0.0 **** 0.053
236 C17918 78.288 72.7022 9.82126 C.3 0.0 **** -0.106
237 C18008 63.6471 73.4431 -6.36052 C.2 0.0 **** 0.0
238 H18102 59.3639 67.8674 -0.241219 H 0.0 **** 0.053
239 H18132 60.8199 73.9724 -4.15858 H 0.0 **** 0.053
240 H18153 53.8885 71.9978 -11.0769 H 0.0 **** 0.053
241 H18152 55.8983 69.6749 -11.1986 H 0.0 **** 0.053
242 C18026 65.0703 75.5914 -10.5137 C.2 0.0 **** -0.1268
243 C17908 77.7493 73.7995 12.0262 C.3 0.0 **** -0.053
244 C17931 72.2198 72.2421 4.08229 C.2 0.0 **** 0.232
245 H18066 77.4345 69.5515 8.84778 H 0.0 **** 0.053
246 C17979 61.2982 68.5977 1.81592 C.3 0.0 **** -0.106
247 H18134 68.3377 73.1511 10.3914 H 0.0 **** 0.053
248 C18034 60.8913 75.0988 -15.0374 C.2 0.0 **** -0.1268
249 H18138 67.2961 71.5219 12.9215 H 0.0 **** 0.053
250 O18006 65.8325 74.4673 -6.55115 O.3 0.0 **** -0.0685
@<TRIPOS>BOND
1 11 13 un
2 192 195 1
3 172 82 1
4 128 225 1
5 202 102 1
6 160 239 1
7 230 175 1
8 230 157 1
9 184 135 1
10 243 184 1
11 139 243 1
12 186 139 1
13 12 135 1
14 12 186 1
15 127 192 1
16 102 127 1
17 243 192 1
18 184 202 1
19 200 148 1
20 96 200 1
21 236 96 1
22 127 148 1
23 192 236 1
24 180 56 un
25 40 180 un
26 230 40 un
27 96 56 1
28 200 230 1
29 81 137 1
30 156 81 un
31 149 156 un
32 40 137 un
33 180 149 un
34 103 74 1
35 111 103 1
36 56 111 1
37 149 74 1
38 244 125 1
39 31 244 un
40 228 31 un
41 156 125 1
42 81 228 un
43 23 175 un
44 131 23 2
45 137 131 un
46 10 197 2
47 128 10 1
48 166 128 1
49 23 197 1
50 175 166 2
51 75 109 1
52 118 75 1
53 29 118 2
54 10 109 1
55 197 29 1
56 179 59 1
57 32 179 1
58 35 32 1
59 29 59 1
60 118 35 1
61 105 173 un
62 131 105 un
63 228 173 un
64 113 155 un
65 150 113 1
66 173 150 un
67 31 155 un
68 183 134 un
69 116 183 un
70 80 116 un
71 113 134 un
72 155 80 un
73 68 11 un
74 176 68 un
75 116 13 un
76 183 176 un
77 22 27 un
78 199 22 un
79 37 199 un
80 68 27 un
81 11 37 un
82 114 104 un
83 244 114 un
84 80 104 un
85 69 168 un
86 104 69 un
87 13 168 un
88 203 76 un
89 168 203 un
90 37 76 un
91 41 211 un
92 78 41 un
93 76 78 un
94 199 211 un
95 138 48 1
96 46 138 1
97 36 46 1
98 22 48 1
99 27 36 1
100 67 246 1
101 88 67 1
102 112 88 1
103 46 246 1
104 138 112 1
105 5 207 1
106 47 5 1
107 20 47 1
108 112 207 1
109 88 20 1
110 182 2 un
111 122 182 un
112 203 122 un
113 69 2 un
114 191 73 1
115 229 191 1
116 215 229 1
117 182 73 1
118 2 215 1
119 187 44 1
120 162 187 1
121 17 162 1
122 229 44 1
123 191 17 1
124 212 50 un
125 122 212 un
126 78 50 un
127 227 18 un
128 218 227 un
129 50 218 un
130 41 18 un
131 204 169 un
132 132 204 un
133 211 132 un
134 18 169 un
135 53 250 1
136 237 53 un
137 227 250 1
138 169 237 1
139 42 165 1
140 85 42 1
141 204 165 1
142 237 85 un
143 94 171 1
144 232 94 1
145 160 232 1
146 42 171 1
147 165 160 1
148 66 95 1
149 177 66 1
150 53 177 un
151 85 95 un
152 171 174 1
153 95 124 un
154 174 124 un
155 179 163 1
156 163 99 1
157 163 123 1
158 36 146 1
159 242 52 1
160 144 242 un
161 16 144 1
162 177 52 un
163 66 16 un
164 194 223 un
165 51 194 1
166 83 51 un
167 16 223 un
168 144 83 un
169 248 185 un
170 82 248 1
171 51 185 un
172 194 172 un
173 98 64 un
174 30 98 un
175 223 30 un
176 172 64 un
177 140 209 un
178 181 140 un
179 82 181 un
180 64 209 un
181 154 178 un
182 98 154 un
183 124 30 un
184 174 178 un
185 226 26 un
186 154 226 un
187 209 26 un
188 62 55 1
189 84 62 1
190 126 84 1
191 226 55 1
192 26 126 1
193 126 8 2
194 12 7 1
195 12 33 1
196 135 19 1
197 135 87 1
198 184 101 1
199 243 216 1
200 139 193 1
201 139 170 1
202 127 117 1
203 102 92 1
204 102 210 1
205 202 231 1
206 202 71 1
207 200 245 1
208 96 235 1
209 236 119 1
210 236 65 1
211 74 106 1
212 74 43 1
213 103 142 1
214 103 115 1
215 111 108 1
216 111 4 1
217 128 213 1
218 166 97 1
219 109 188 1
220 109 224 1
221 75 220 1
222 75 158 1
223 59 130 1
224 59 159 1
225 179 189 1
226 32 79 1
227 32 233 1
228 35 214 1
229 35 217 1
230 105 77 1
231 134 201 1
232 176 61 1
233 114 45 1
234 138 21 1
235 46 121 1
236 36 93 1
237 246 72 1
238 246 141 1
239 67 49 1
240 67 190 1
241 88 238 1
242 112 1 1
243 207 143 1
244 207 9 1
245 5 221 1
246 5 152 1
247 47 198 1
248 47 133 1
249 20 34 1
250 191 196 1
251 229 90 1
252 44 38 1
253 44 107 1
254 187 15 1
255 187 91 1
256 162 208 1
257 162 58 1
258 17 206 1
259 17 110 1
260 212 89 1
261 218 161 1
262 132 57 1
263 165 6 1
264 42 86 1
265 171 54 1
266 94 70 1
267 94 60 1
268 232 153 1
269 232 147 1
270 160 129 1
271 163 151 1
272 99 247 1
273 99 14 1
274 99 39 1
275 123 100 1
276 123 249 1
277 123 24 1
278 146 25 1
279 52 28 1
280 242 145 1
281 83 167 1
282 185 164 1
283 248 120 1
284 140 63 1
285 181 205 1
286 178 222 1
287 55 136 1
288 55 3 1
289 62 234 1
290 62 241 1
291 84 240 1
292 84 219 1
@<TRIPOS>MOLECULE
Sketch 4
250 292
SMALL
USER_CHARGES


@<TRIPOS>ATOM
1 C23211 44.3705 70.2863 40.1325 C.2 0.0 **** -0.1268
2 C23292 24.8613 71.031 40.8563 C.2 0.0 **** -0.1268
3 O23301 24.7984 71.2978 36.7659 O.2 0.0 **** -0.419
4 C23298 27.9075 72.5352 35.308 C.3 0.0 **** -0.106
5 C23241 42.408 68.1731 48.8795 C.3 0.0 **** 0.107
6 H23366 41.1692 65.6216 48.2296 H 0.0 **** 0.053
7 C23184 54.5509 70.0425 44.9118 C.2 0.0 **** 0.0
8 C23266 32.2441 69.854 41.3482 C.2 0.0 **** 0.0
9 C23156 56.8692 64.9966 45.4169 C.3 0.0 **** -0.106
10 C23175 49.8675 68.6412 46.366 C.2 0.0 **** 0.232
11 C23224 39.2493 69.3608 43.4793 C.2 0.0 **** 0.0
12 C23248 38.7672 68.9912 44.7785 C.2 0.0 **** 0.0
13 H23381 36.6155 68.6316 38.0924 H 0.0 **** 0.053
14 C23221 41.5742 69.1356 44.2448 C.2 0.0 **** 0.0
15 C23215 41.1038 69.8535 41.9242 C.2 0.0 **** 0.0
16 H23332 55.5849 71.9665 39.1286 H 0.0 **** 0.053
17 C23285 25.809 70.6757 41.8421 C.2 0.0 **** 0.0
18 C23209 42.5077 69.9269 41.6808 C.2 0.0 **** 0.0
19 C23299 26.5293 71.8961 35.2692 C.3 0.0 **** -0.086
20 C23201 47.1939 69.3234 43.1489 C.2 0.0 **** 0.0
21 C23212 42.0496 70.7893 39.4142 C.2 0.0 **** 0.0
22 C23174 50.4212 69.0292 45.1082 C.2 0.0 **** 0.0
23 H23328 57.0425 71.9136 43.7714 H 0.0 **** 0.053
24 H23370 40.6524 67.7492 50.0078 H 0.0 **** 0.053
25 C23238 42.0084 68.4772 46.5566 C.2 0.0 **** 0.042
26 C23270 31.2491 70.1244 40.3461 C.2 0.0 **** 0.0
27 C23258 34.5746 69.6287 41.9967 C.2 0.0 **** 0.0
28 C23226 40.0543 70.6779 37.3597 C.3 0.0 **** 0.107
29 H23362 44.3979 67.4437 49.2165 H 0.0 **** 0.053
30 S23203 49.2723 69.6055 41.2647 S.2 0.0 **** 0.024
31 H23321 48.9495 68.3682 48.8396 H 0.0 **** 0.053
32 H23372 36.9983 68.6437 46.0167 H 0.0 **** 0.1268
33 H23339 53.7757 70.5155 37.9989 H 0.0 **** 0.053
34 H23388 53.4068 65.7718 37.606 H 0.0 **** 0.053
35 H23374 35.7793 70.9437 38.6106 H 0.0 **** 0.053
36 H23395 24.3858 70.5599 43.4762 H 0.0 **** 0.1268
37 C23254 36.4211 69.9725 40.375 C.2 0.0 **** 0.0
38 H23383 53.5814 65.626 40.6717 H 0.0 **** 0.053
39 C23277 30.0737 69.5103 44.4116 C.2 0.0 **** 0.0
40 H23401 28.2756 72.7527 34.2939 H 0.0 **** 0.053
41 C23265 35.5575 68.8565 38.2951 C.3 0.0 **** -0.106
42 C23186 52.444 69.5822 43.7507 C.2 0.0 **** 0.0
43 C23220 40.6426 69.4446 43.2196 C.2 0.0 **** 0.0
44 H23391 33.1528 68.8818 45.8038 H 0.0 **** 0.1268
45 H23349 42.8018 70.8513 35.2357 H 0.0 **** 0.053
46 C23257 34.1848 69.3407 43.3158 C.2 0.0 **** 0.0265
47 H23385 51.3417 66.6358 38.8273 H 0.0 **** 0.053
48 H23396 24.4733 71.4844 38.8013 H 0.0 **** 0.1268
49 C23275 32.4015 69.1123 45.0487 C.2 0.0 **** -0.1268
50 C23283 26.3707 70.1118 44.146 C.2 0.0 **** -0.1268
51 H23350 40.6242 69.4763 34.8343 H 0.0 **** 0.053
52 H23346 41.9167 69.6101 37.061 H 0.0 **** 0.053
53 O23160 55.7748 63.4134 46.9492 O.3 0.0 **** -0.32
54 H23347 41.8412 72.4554 38.1046 H 0.0 **** 0.053
55 C23282 28.7227 69.6353 44.7516 C.2 0.0 **** -0.1268
56 C23185 53.7993 69.9071 43.6667 C.2 0.0 **** 0.0
57 H23316 54.694 70.5181 47.5599 H 0.0 **** 0.053
58 N23236 38.257 70.4296 34.4133 N.3 0.0 **** -0.727
59 C23198 54.2494 69.7407 38.6291 C.3 0.0 **** -0.106
60 H23310 54.9762 66.5508 46.873 H 0.0 **** 0.053
61 O23256 35.1203 69.0775 44.2901 O.3 0.0 **** -0.0685
62 H23311 56.5009 67.9105 45.764 H 0.0 **** 0.053
63 H23307 57.1885 65.7584 48.7783 H 0.0 **** 0.053
64 H23352 39.3312 72.1851 34.3993 H 0.0 **** 0.053
65 C23290 26.574 71.0832 39.1136 C.2 0.0 **** 0.0
66 C23269 31.6119 70.1861 38.9718 C.2 0.0 **** 0.0
67 H23376 32.996 68.6327 38.8149 H 0.0 **** 0.053
68 H23399 29.8504 72.0505 36.1154 H 0.0 **** 0.053
69 C23189 55.943 71.7878 43.8143 C.3 0.0 **** -0.106
70 C23233 37.7202 71.498 36.8683 C.3 0.0 **** -0.106
71 H23329 56.1167 71.0759 45.9122 H 0.0 **** 0.1268
72 C23293 30.6734 70.5554 38.0344 C.2 0.0 **** -0.1268
73 H23384 51.279 65.2314 39.9127 H 0.0 **** 0.053
74 C23183 49.5877 69.1806 43.9934 C.2 0.0 **** 0.0
75 C23278 30.4778 69.7264 43.0545 C.2 0.0 **** 0.0
76 C23246 41.9751 66.0166 50.1915 C.3 0.0 **** -0.106
77 H23314 59.5995 66.2112 47.0448 H 0.0 **** 0.053
78 H23348 41.7608 72.2459 35.5325 H 0.0 **** 0.053
79 H23303 54.7124 64.7192 45.728 H 0.0 **** 0.053
80 H23325 52.2387 66.738 49.8115 H 0.0 **** 0.053
81 C23187 54.4829 70.3045 42.4374 C.2 0.0 **** 0.0
82 C23276 31.078 69.1875 45.3833 C.2 0.0 **** -0.1268
83 C23168 55.1919 67.3972 48.8309 C.3 0.0 **** -0.106
84 H23323 50.3566 67.9181 50.9054 H 0.0 **** 0.053
85 H23343 44.7449 70.4885 39.1338 H 0.0 **** 0.1268
86 H23398 30.9711 70.6024 36.9904 H 0.0 **** 0.1268
87 C23295 26.9989 71.298 37.7455 C.2 0.0 **** 0.052
88 H23340 55.2137 69.5118 38.1348 H 0.0 **** 0.053
89 C23242 43.6364 67.403 48.4247 C.3 0.0 **** 0.107
90 H23322 49.8512 66.8575 48.742 H 0.0 **** 0.053
91 H23351 40.9466 70.6817 33.584 H 0.0 **** 0.053
92 C23173 51.8502 69.2248 45.0421 C.2 0.0 **** 0.0
93 H23344 46.0539 68.3862 46.7376 H 0.0 **** 0.1268
94 C23252 37.3605 68.9119 45.0236 C.2 0.0 **** -0.1268
95 C23222 38.7572 69.9763 41.133 C.2 0.0 **** 0.0
96 O23165 56.258 69.2661 47.3095 O.3 0.0 **** -0.32
97 C23267 31.8514 69.6267 42.6976 C.2 0.0 **** 0.0
98 C23229 41.7953 71.1433 35.5611 C.3 0.0 **** -0.106
99 H23354 37.4645 70.4424 37.0644 H 0.0 **** 0.053
100 C23281 27.7503 69.9765 43.7979 C.2 0.0 **** 0.0
101 H23389 53.2732 64.2938 38.5824 H 0.0 **** 0.053
102 H23312 58.2533 67.7918 48.2576 H 0.0 **** 0.053
103 C23239 41.0728 68.7728 45.5317 C.2 0.0 **** 0.0
104 C23208 43.4399 69.5739 42.7042 C.2 0.0 **** 0.0
105 C23251 36.4759 69.1667 44.0124 C.2 0.0 **** 0.042
106 H23402 27.8633 73.4901 35.8569 H 0.0 **** 0.053
107 C23171 52.6261 69.0458 46.1741 C.2 0.0 **** 0.0
108 H23326 52.8711 68.1477 50.6617 H 0.0 **** 0.053
109 H23308 54.687 64.6441 48.2272 H 0.0 **** 0.053
110 H23318 54.6103 66.6167 49.3436 H 0.0 **** 0.053
111 O23274 43.6672 71.5994 37.6367 O.3 0.0 **** -0.57
112 C23204 46.6745 69.938 40.8367 C.2 0.0 **** -0.1268
113 C23253 35.9798 69.7034 41.6771 C.2 0.0 **** 0.0
114 C23259 35.4618 70.0836 39.2197 C.3 0.0 **** -0.053
115 C23260 33.9949 70.3374 39.6373 C.3 0.0 **** -0.053
116 H23345 39.6466 69.6503 37.3218 H 0.0 **** 0.053
117 C23228 42.3125 71.4515 38.0654 C.3 0.0 **** 0.107
118 H23337 52.3509 68.7698 38.9604 H 0.0 **** 0.053
119 H23361 42.6912 69.2201 49.0783 H 0.0 **** 0.053
120 C23181 47.6661 68.7258 45.4298 C.2 0.0 **** 0.232
121 C23288 28.9209 70.6133 39.7342 C.2 0.0 **** 0.0
122 H23353 39.5573 72.6095 36.62 H 0.0 **** 0.053
123 C23176 50.6167 68.4152 47.4873 C.2 0.0 **** 0.0
124 H23369 42.0835 68.0409 51.005 H 0.0 **** 0.053
125 C23262 33.0026 69.7259 38.6303 C.3 0.0 **** -0.053
126 C23249 39.6941 68.7134 45.783 C.2 0.0 **** -0.1268
127 H23404 25.7629 72.5348 34.8076 H 0.0 **** 0.053
128 C23210 42.991 70.3373 40.3859 C.2 0.0 **** 0.0
129 H23375 33.8272 71.4328 39.6156 H 0.0 **** 0.053
130 H23313 58.6792 68.6443 46.7661 H 0.0 **** 0.053
131 C23291 25.2245 71.2266 39.5401 C.2 0.0 **** -0.1268
132 C23192 55.1019 71.6991 40.0814 C.3 0.0 **** -0.106
133 C23300 26.0081 71.4968 36.6441 C.2 0.0 **** 0.347
134 C23157 57.6397 65.2971 46.7192 C.3 0.0 **** -0.053
135 C23296 28.3589 71.2299 37.4143 C.2 0.0 **** 0.0
136 H23319 56.021 67.6728 49.5015 H 0.0 **** 0.053
137 C23268 32.831 69.3466 43.7015 C.2 0.0 **** 0.0
138 H23373 38.0888 70.3247 39.1226 H 0.0 **** 0.1268
139 C23237 43.3736 68.4792 46.3153 C.2 0.0 **** 0.042
140 C23287 27.5519 70.7545 40.0988 C.2 0.0 **** 0.0
141 H23367 42.912 65.8255 50.7424 H 0.0 **** 0.053
142 H23356 37.0741 73.0699 35.5425 H 0.0 **** 0.053
143 C23294 29.3235 70.8192 38.386 C.2 0.0 **** 0.0
144 H23333 54.3019 72.4437 40.2581 H 0.0 **** 0.053
145 H23305 56.5414 65.9379 44.9482 H 0.0 **** 0.053
146 H23317 54.4584 69.2958 49.4694 H 0.0 **** 0.053
147 C23172 54.1299 69.1308 46.0401 C.3 0.0 **** -0.053
148 C23169 52.8422 68.3609 48.5332 C.2 0.0 **** 0.0
149 C23263 33.5064 69.9462 37.2086 C.3 0.0 **** -0.106
150 O23180 48.5053 68.4388 46.4789 O.3 0.0 **** -0.464
151 C23202 47.6009 69.6436 41.8042 C.2 0.0 **** -0.012
152 C23179 52.2385 67.8465 49.8097 C.3 0.0 **** -0.106
153 C23219 43.913 68.8597 45.0358 C.2 0.0 **** 0.0
154 C23244 43.3114 65.9435 48.0442 C.3 0.0 **** -0.106
155 H23330 56.4834 72.7747 41.3904 H 0.0 **** 0.053
156 C23214 40.1678 70.161 40.8973 C.2 0.0 **** 0.0
157 H23403 26.5682 70.9671 34.6707 H 0.0 **** 0.053
158 C23167 54.3055 68.6528 48.5815 C.3 0.0 **** -0.053
159 H23360 38.1917 69.5553 34.9361 H 0.0 **** 0.353
160 C23280 28.1464 70.2 42.4397 C.2 0.0 **** 0.0
161 C23279 29.5076 70.0712 42.0764 C.2 0.0 **** 0.0
162 H23390 44.0914 72.2343 38.2342 H 0.0 **** 0.41
163 H23306 58.1906 64.3835 46.986 H 0.0 **** 0.053
164 H23392 30.7606 69.012 46.4127 H 0.0 **** 0.1268
165 H23394 26.0787 69.9406 45.1838 H 0.0 **** 0.1268
166 H23400 28.9899 70.6681 35.4316 H 0.0 **** 0.053
167 H23309 56.0681 63.7388 48.9197 H 0.0 **** 0.053
168 C23255 37.776 70.1019 40.1305 C.2 0.0 **** -0.1268
169 C23206 44.8336 69.5984 42.4355 C.2 0.0 **** 0.0
170 C23207 45.785 69.279 43.4431 C.2 0.0 **** 0.0
171 H23338 53.3378 67.998 37.7031 H 0.0 **** 0.053
172 C23273 53.7142 65.3018 38.5538 C.3 0.0 **** -0.159
173 C23245 42.0825 65.3892 48.7971 C.3 0.0 **** -0.106
174 C23230 40.7088 70.5626 34.65 C.3 0.0 **** -0.106
175 C23232 39.2021 71.5765 36.4651 C.3 0.0 **** -0.053
176 H23355 37.5572 72.0364 37.8118 H 0.0 **** 0.053
177 C23205 45.284 69.9413 41.1237 C.2 0.0 **** 0.0
178 C23227 41.5594 70.6501 36.9938 C.3 0.0 **** -0.053
179 C23177 49.967 67.9576 48.7684 C.3 0.0 **** -0.106
180 H23379 35.452 69.6539 36.2827 H 0.0 **** 0.053
181 C23234 36.8103 72.0222 35.7586 C.3 0.0 **** -0.106
182 C23213 40.6973 70.6714 39.6744 C.2 0.0 **** 0.042
183 H23334 54.4777 67.6512 41.8485 H 0.0 **** 0.053
184 C23235 36.9776 71.1519 34.4813 C.3 0.0 **** 0.081
185 H23368 41.1682 65.5483 50.7741 H 0.0 **** 0.053
186 C23170 52.0521 68.611 47.4226 C.2 0.0 **** 0.0
187 H23304 57.5491 64.5033 44.7055 H 0.0 **** 0.053
188 C23284 25.4372 70.4509 43.2028 C.2 0.0 **** -0.1268
189 O23243 44.2373 68.1097 47.3221 O.3 0.0 **** -0.202
190 H23397 23.8171 71.1529 41.1522 H 0.0 **** 0.1268
191 H23324 50.8087 69.437 50.0996 H 0.0 **** 0.053
192 C23264 34.7954 69.1172 36.982 C.3 0.0 **** -0.106
193 C23182 48.1581 69.0632 44.1559 C.2 0.0 **** 0.0
194 H23341 51.9721 70.0467 41.6851 H 0.0 **** 0.1268
195 C23196 53.9301 67.5265 39.7526 C.3 0.0 **** -0.053
196 C23193 54.5059 70.3157 39.9914 C.2 0.0 **** 0.0
197 H23302 55.5089 63.3312 44.9383 H 0.0 **** 0.053
198 C23190 55.5562 70.9429 44.9883 C.2 0.0 **** -0.1268
199 H23342 46.9948 70.1869 39.8224 H 0.0 **** 0.1268
200 H23386 51.3515 66.8767 40.588 H 0.0 **** 0.053
201 C23158 56.6304 65.5768 47.8446 C.3 0.0 **** -0.053
202 H23331 56.9803 71.1183 41.0013 H 0.0 **** 0.053
203 C23297 28.8568 71.5882 36.0317 C.3 0.0 **** -0.106
204 C23217 46.3225 68.6515 45.7257 C.2 0.0 **** -0.1268
205 H23364 44.2007 65.3307 48.252 H 0.0 **** 0.053
206 H23359 36.1728 70.4046 34.4179 H 0.0 **** 0.053
207 C23161 55.799 66.8421 47.5453 C.3 0.0 **** -0.053
208 C23197 53.3807 68.4844 38.6897 C.3 0.0 **** -0.106
209 C23195 53.8306 68.188 41.1319 C.3 0.0 **** -0.106
210 O23225 39.8413 71.1664 38.7143 O.3 0.0 **** -0.202
211 C23188 55.461 71.2541 42.5051 C.2 0.0 **** 0.0
212 C23166 54.8326 69.4434 47.3708 C.3 0.0 **** 0.107
213 C23159 55.7364 64.3268 48.0525 C.3 0.0 **** 0.054
214 H23387 54.8108 65.199 38.5407 H 0.0 **** 0.053
215 C23272 51.7211 66.2299 39.7778 C.3 0.0 **** -0.159
216 H23336 55.0018 67.3705 39.5278 H 0.0 **** 0.053
217 C23199 50.205 69.5139 42.7424 C.2 0.0 **** -0.012
218 C23286 27.1704 70.5455 41.4587 C.2 0.0 **** 0.0
219 C23216 45.3328 68.9196 44.7575 C.2 0.0 **** 0.0
220 C23163 58.1202 67.7852 47.1637 C.3 0.0 **** -0.106
221 H23357 35.7583 72.0195 36.0857 H 0.0 **** 0.053
222 C23155 55.6366 64.1077 45.7048 C.3 0.0 **** 0.054
223 C23223 38.3175 69.618 42.4423 C.2 0.0 **** 0.0
224 C23247 41.729 67.5362 50.0939 C.3 0.0 **** -0.106
225 H23358 36.8927 71.7892 33.5848 H 0.0 **** 0.053
226 C23271 53.2525 66.1402 39.7502 C.3 0.0 **** -0.053
227 O23240 41.4675 68.1693 47.7836 O.3 0.0 **** -0.202
228 C23194 54.2315 69.6451 41.1355 C.2 0.0 **** 0.0
229 H23363 43.1386 65.9045 46.9589 H 0.0 **** 0.053
230 H23315 58.862 66.613 45.4926 H 0.0 **** 0.053
231 H23380 34.5419 68.1562 36.5086 H 0.0 **** 0.053
232 C23250 36.922 69.5047 42.6974 C.2 0.0 **** 0.0
233 C23178 50.8012 68.3403 49.9913 C.3 0.0 **** -0.106
234 C23191 56.1021 71.7521 41.2399 C.3 0.0 **** -0.106
235 H23371 39.344 68.4403 46.7773 H 0.0 **** 0.1268
236 H23393 28.416 69.4717 45.7871 H 0.0 **** 0.1268
237 H23382 35.1497 67.9799 38.823 H 0.0 **** 0.053
238 H23378 32.746 69.6641 36.4665 H 0.0 **** 0.053
239 C23162 56.6412 67.9567 46.8613 C.3 0.0 **** 0.107
240 C23200 51.5583 69.7235 42.6401 C.2 0.0 **** -0.1268
241 H23335 52.8102 68.0628 41.525 H 0.0 **** 0.053
242 H23377 33.7062 71.0224 37.0703 H 0.0 **** 0.053
243 H23320 54.4239 68.1093 45.7243 H 0.0 **** 0.053
244 H23365 42.1545 64.294 48.8681 H 0.0 **** 0.053
245 C23164 58.6439 66.4677 46.5635 C.3 0.0 **** -0.106
246 C23218 42.9804 69.1895 44.0071 C.2 0.0 **** 0.0
247 C23231 39.3615 71.2277 34.9472 C.3 0.0 **** 0.134
248 C23261 33.6081 69.8876 41.0211 C.2 0.0 **** 0.0
249 C23289 29.8969 70.2776 40.7155 C.2 0.0 **** 0.0
250 H23327 55.566 72.8243 43.9598 H 0.0 **** 0.053
@<TRIPOS>BOND
1 115 114 1
2 160 161 un
3 170 169 un
4 178 98 1
5 12 94 un
6 209 183 1
7 134 9 1
8 201 134 1
9 213 201 1
10 53 213 1
11 222 9 1
12 222 53 1
13 239 207 1
14 220 239 1
15 245 220 1
16 201 207 1
17 134 245 1
18 212 96 1
19 158 212 1
20 83 158 1
21 239 96 1
22 207 83 1
23 186 148 un
24 107 186 un
25 147 107 un
26 158 148 1
27 212 147 1
28 22 92 1
29 10 22 un
30 123 10 un
31 107 92 un
32 186 123 un
33 233 179 1
34 152 233 1
35 148 152 1
36 123 179 1
37 120 150 1
38 193 120 un
39 74 193 un
40 10 150 1
41 22 74 un
42 56 7 un
43 42 56 2
44 147 7 1
45 92 42 un
46 211 81 2
47 69 211 1
48 198 69 1
49 56 81 1
50 7 198 2
51 132 234 1
52 196 132 1
53 228 196 2
54 211 234 1
55 81 228 1
56 195 209 1
57 208 195 1
58 59 208 1
59 228 209 1
60 196 59 1
61 240 217 un
62 42 240 un
63 74 217 un
64 151 20 un
65 30 151 1
66 217 30 un
67 193 20 un
68 177 112 un
69 169 177 un
70 151 112 un
71 20 170 un
72 18 104 un
73 128 18 un
74 1 128 un
75 169 104 un
76 177 1 un
77 182 21 un
78 156 182 un
79 15 156 un
80 128 21 un
81 18 15 un
82 204 219 un
83 120 204 un
84 170 219 un
85 153 246 un
86 219 153 un
87 104 246 un
88 14 43 un
89 246 14 un
90 15 43 un
91 223 95 un
92 11 223 un
93 43 11 un
94 156 95 un
95 28 210 1
96 178 28 1
97 117 178 1
98 182 210 1
99 21 117 1
100 174 98 1
101 247 174 1
102 175 247 1
103 28 175 1
104 181 70 1
105 184 181 1
106 58 184 1
107 175 70 1
108 247 58 1
109 25 139 un
110 103 25 un
111 14 103 un
112 153 139 un
113 5 227 1
114 89 5 1
115 189 89 1
116 25 227 1
117 139 189 1
118 173 154 1
119 76 173 1
120 224 76 1
121 89 154 1
122 5 224 1
123 126 12 un
124 103 126 un
125 11 12 un
126 105 232 un
127 94 105 un
128 223 232 un
129 37 113 un
130 168 37 un
131 95 168 un
132 232 113 un
133 46 61 1
134 27 46 un
135 105 61 1
136 113 27 1
137 248 115 1
138 37 114 1
139 27 248 un
140 149 125 1
141 192 149 1
142 41 192 1
143 115 125 1
144 114 41 1
145 97 8 1
146 137 97 1
147 46 137 un
148 248 8 un
149 125 66 1
150 8 26 un
151 66 26 un
152 195 226 1
153 226 215 1
154 226 172 1
155 117 111 1
156 82 49 1
157 39 82 un
158 75 39 1
159 137 49 un
160 97 75 un
161 100 160 1
162 55 100 un
163 75 161 un
164 39 55 un
165 188 50 un
166 17 188 1
167 218 17 1
168 100 50 un
169 160 218 un
170 121 140 un
171 249 121 un
172 161 249 un
173 218 140 un
174 131 65 un
175 2 131 un
176 17 2 un
177 140 65 un
178 143 72 un
179 121 143 un
180 26 249 un
181 66 72 un
182 135 87 un
183 143 135 un
184 65 87 un
185 4 203 1
186 19 4 1
187 133 19 1
188 135 203 1
189 87 133 1
190 133 3 2
191 222 197 1
192 222 79 1
193 9 187 1
194 9 145 1
195 134 163 1
196 201 63 1
197 213 109 1
198 213 167 1
199 207 60 1
200 239 62 1
201 220 102 1
202 220 130 1
203 245 77 1
204 245 230 1
205 212 57 1
206 158 146 1
207 83 110 1
208 83 136 1
209 147 243 1
210 179 31 1
211 179 90 1
212 233 84 1
213 233 191 1
214 152 80 1
215 152 108 1
216 69 250 1
217 69 23 1
218 198 71 1
219 234 155 1
220 234 202 1
221 132 16 1
222 132 144 1
223 209 241 1
224 195 216 1
225 208 118 1
226 208 171 1
227 59 33 1
228 59 88 1
229 240 194 1
230 112 199 1
231 1 85 1
232 204 93 1
233 28 116 1
234 178 52 1
235 117 54 1
236 98 78 1
237 98 45 1
238 174 51 1
239 174 91 1
240 247 64 1
241 175 122 1
242 70 99 1
243 70 176 1
244 181 142 1
245 181 221 1
246 184 225 1
247 184 206 1
248 58 159 1
249 5 119 1
250 89 29 1
251 154 229 1
252 154 205 1
253 173 244 1
254 173 6 1
255 76 141 1
256 76 185 1
257 224 124 1
258 224 24 1
259 126 235 1
260 94 32 1
261 168 138 1
262 114 35 1
263 115 129 1
264 125 67 1
265 149 242 1
266 149 238 1
267 192 180 1
268 192 231 1
269 41 13 1
270 41 237 1
271 226 38 1
272 215 73 1
273 215 47 1
274 215 200 1
275 172 214 1
276 172 34 1
277 172 101 1
278 111 162 1
279 49 44 1
280 82 164 1
281 55 236 1
282 50 165 1
283 188 36 1
284 131 48 1
285 2 190 1
286 72 86 1
287 203 68 1
288 203 166 1
289 4 40 1
290 4 106 1
291 19 157 1
292 19 127 1
@<TRIPOS>MOLECULE
Sketch 4
250 292
SMALL
USER_CHARGES


@<TRIPOS>ATOM
1 C27432 8.263 43.3033 39.4108 C.2 0.0 **** 0.0
2 H27567 16.149 44.8605 37.5757 H 0.0 **** 0.053
3 C27546 -8.19961 32.3924 46.6279 C.2 0.0 **** 0.0
4 C27513 -5.59195 36.4003 44.3207 C.3 0.0 **** -0.106
5 C27457 6.35233 41.9321 40.2204 C.2 0.0 **** 0.0
6 C27499 4.37568 35.7028 40.6481 C.2 0.0 **** -0.1268
7 C27467 8.27222 40.8632 39.1887 C.2 0.0 **** -0.1268
8 C27452 6.2672 44.3964 40.4105 C.2 0.0 **** -0.012
9 H27622 2.92951 33.4642 41.1213 H 0.0 **** 0.1268
10 H27609 -6.02968 40.2539 44.5777 H 0.0 **** 0.053
11 O27524 1.19355 44.1293 43.705 O.3 0.0 **** -0.57
12 C27494 7.60573 36.856 36.8922 C.3 0.0 **** -0.106
13 C27533 -4.49506 26.5345 45.0527 C.2 0.0 **** -0.1268
14 C27456 5.08884 41.8548 40.8686 C.2 0.0 **** 0.0
15 C27529 -4.21863 30.2586 44.6288 C.2 0.0 **** 0.0
16 C27437 11.0165 49.3784 39.5028 C.2 0.0 **** 0.0
17 C27461 3.21212 42.9989 41.9457 C.2 0.0 **** -0.1268
18 C27511 -2.62418 34.0796 43.724 C.2 0.0 **** 0.0
19 C27509 -2.85142 36.6616 43.7651 C.3 0.0 **** -0.053
20 H27573 14.473 40.672 36.9181 H 0.0 **** 0.053
21 H27637 7.00856 51.6633 35.0226 H 0.0 **** 0.053
22 H27652 -9.14928 33.1713 49.1321 H 0.0 **** 0.053
23 C27423 11.1836 45.617 38.6628 C.2 0.0 **** 0.0
24 C27549 -10.7759 32.3781 47.9528 C.3 0.0 **** -0.086
25 C27469 6.35553 39.4489 39.9956 C.2 0.0 **** 0.0
26 C27444 9.71168 49.9477 39.0952 C.2 0.0 **** 0.0
27 C27420 12.9815 44.228 37.7023 C.2 0.0 **** 0.0
28 C27507 -0.652353 33.0401 42.7603 C.2 0.0 **** 0.0265
29 C27525 -0.443311 30.5531 42.6823 C.2 0.0 **** -0.1268
30 C27466 7.00377 40.7272 39.7899 C.2 0.0 **** 0.0
31 C27438 11.8786 50.1702 40.2049 C.2 0.0 **** 0.0
32 C27497 8.61192 34.4739 38.4907 C.3 0.0 **** -0.106
33 C27487 6.92323 38.1968 39.5679 C.2 0.0 **** 0.042
34 C27495 7.31704 35.387 36.5144 C.3 0.0 **** -0.106
35 H27577 13.4304 49.4657 41.5042 H 0.0 **** 0.053
36 C27447 7.05319 50.7309 38.4852 C.3 0.0 **** -0.106
37 C27478 0.678308 42.7997 43.7913 C.3 0.0 **** 0.107
38 H27627 -5.32184 36.7295 45.3386 H 0.0 **** 0.053
39 C27505 -0.76836 37.8819 43.1676 C.2 0.0 **** -0.1268
40 H27602 -3.73445 42.8549 45.6326 H 0.0 **** 0.053
41 C27433 9.01958 44.5212 39.243 C.2 0.0 **** 0.0
42 C27462 1.39686 41.695 43.0229 C.2 0.0 **** 0.0
43 H27588 6.15568 51.2777 38.1578 H 0.0 **** 0.053
44 C27442 9.91352 51.4508 41.0413 C.3 0.0 **** -0.106
45 H27554 13.1998 49.8537 32.9297 H 0.0 **** 0.053
46 C27492 8.43947 36.9876 38.1838 C.3 0.0 **** 0.107
47 C27440 13.7637 48.6588 39.5459 C.2 0.0 **** -0.1268
48 H27555 13.1268 49.0384 34.4989 H 0.0 **** 0.053
49 H27593 2.71857 43.9324 42.1977 H 0.0 **** 0.1268
50 C27512 -4.85587 35.0996 44.0212 C.3 0.0 **** -0.053
51 H27638 5.59129 51.2105 36.002 H 0.0 **** 0.053
52 C27463 0.7612 40.4755 43.1605 C.2 0.0 **** 0.042
53 C27476 -1.39445 41.4323 43.6181 C.3 0.0 **** 0.107
54 C27545 -8.74116 31.1374 46.9375 C.2 0.0 **** 0.052
55 C27413 16.207 49.0192 35.65 C.3 0.0 **** -0.106
56 H27557 16.4046 47.1189 33.667 H 0.0 **** 0.053
57 C27445 9.12209 49.521 37.7708 C.3 0.0 **** -0.106
58 C27483 -2.96804 40.0015 44.974 C.3 0.0 **** -0.106
59 C27470 3.15208 38.1064 41.5028 C.2 0.0 **** 0.0
60 H27619 9.64194 34.2172 38.78 H 0.0 **** 0.053
61 H27615 7.15312 35.3088 35.4296 H 0.0 **** 0.053
62 H27604 -3.22216 39.5944 43.9802 H 0.0 **** 0.053
63 C27543 -6.50432 33.7389 45.3994 C.2 0.0 **** -0.1268
64 H27563 16.4409 49.7716 36.4168 H 0.0 **** 0.053
65 H27552 11.8812 48.033 32.1969 H 0.0 **** 0.053
66 C27521 7.22994 49.7744 36.0997 C.3 0.0 **** -0.053
67 H27626 -4.97917 34.8893 42.9396 H 0.0 **** 0.053
68 C27481 -3.52504 42.4562 44.6253 C.3 0.0 **** 0.134
69 C27491 8.23862 35.8141 39.128 C.3 0.0 **** 0.107
70 C27454 5.04336 44.3112 41.0237 C.2 0.0 **** -0.1268
71 C27489 5.01993 36.9324 40.4471 C.2 0.0 **** 0.0
72 H27596 -0.766687 42.974 42.23 H 0.0 **** 0.053
73 C27426 12.1279 43.0607 37.8088 C.2 0.0 **** 0.0
74 C27451 6.97817 43.2108 40.0043 C.2 0.0 **** 0.0
75 H27640 2.05596 44.134 44.1482 H 0.0 **** 0.41
76 H27613 6.66183 37.4008 37.0387 H 0.0 **** 0.053
77 H27581 11.6006 52.2793 39.9554 H 0.0 **** 0.053
78 H27620 7.95434 33.7123 38.9372 H 0.0 **** 0.053
79 H27648 -7.11539 34.6289 45.5237 H 0.0 **** 0.1268
80 C27540 -7.99769 29.9318 46.6338 C.2 0.0 **** 0.0
81 C27500 0.546235 35.5602 42.422 C.2 0.0 **** 0.0
82 H27618 8.32421 33.4507 36.5936 H 0.0 **** 0.053
83 C27504 -1.42044 36.6693 43.2968 C.2 0.0 **** 0.0
84 H27556 15.3013 48.908 32.3674 H 0.0 **** 0.053
85 H27559 15.3626 45.9984 31.9312 H 0.0 **** 0.053
86 C27434 12.8904 47.8554 38.8984 C.2 0.0 **** 0.0
87 C27450 9.28808 46.9405 39.534 C.2 0.0 **** -0.1268
88 C27448 7.82486 51.5436 39.5247 C.3 0.0 **** -0.106
89 H27592 4.51672 45.2164 41.3345 H 0.0 **** 0.1268
90 H27558 14.2238 45.4384 33.1947 H 0.0 **** 0.053
91 H27579 14.8377 48.5231 39.43 H 0.0 **** 0.1268
92 H27585 8.78458 48.4742 37.8128 H 0.0 **** 0.053
93 H27614 8.14941 37.3638 36.0821 H 0.0 **** 0.053
94 O27506 0.589513 33.1306 42.1745 O.3 0.0 **** -0.0685
95 C27473 1.21049 36.8095 42.2701 C.2 0.0 **** 0.0
96 H27632 -3.84357 36.4978 41.8496 H 0.0 **** 0.053
97 C27496 8.471 34.4792 36.9546 C.3 0.0 **** -0.106
98 H27597 0.666637 42.4922 44.8574 H 0.0 **** 0.053
99 C27544 -6.97751 32.495 45.8935 C.2 0.0 **** 0.0
100 C27455 4.4343 43.0552 41.2831 C.2 0.0 **** 0.0
101 C27550 -10.1287 31.0787 47.4901 C.2 0.0 **** 0.347
102 C27514 -5.19415 37.4725 43.2757 C.3 0.0 **** -0.106
103 C27484 -4.2361 40.0371 45.8254 C.3 0.0 **** -0.106
104 H27561 14.1983 48.6555 36.3054 H 0.0 **** 0.053
105 C27429 14.7393 42.8107 36.5983 C.3 0.0 **** -0.106
106 H27574 14.4878 41.6518 38.4016 H 0.0 **** 0.053
107 C27542 -7.69697 27.5076 46.71 C.2 0.0 **** -0.1268
108 C27547 -8.8763 33.6752 47.0569 C.3 0.0 **** -0.106
109 C27446 7.96692 50.4104 37.2971 C.3 0.0 **** -0.053
110 H27651 -10.2768 34.4119 48.5435 H 0.0 **** 0.053
111 H27599 -1.34092 44.9066 43.4914 H 0.0 **** 0.053
112 H27650 -9.47615 34.0802 46.2199 H 0.0 **** 0.053
113 C27424 10.3349 44.4537 38.7679 C.2 0.0 **** 0.0
114 C27416 14.7996 46.4802 37.9245 C.3 0.0 **** 0.107
115 H27646 -9.39474 28.535 47.5105 H 0.0 **** 0.1268
116 C27458 4.45725 40.6054 41.1042 C.2 0.0 **** 0.0
117 H27590 7.96691 52.5816 39.1657 H 0.0 **** 0.053
118 C27510 -3.34629 35.2848 44.2654 C.3 0.0 **** -0.053
119 C27406 13.4569 48.9209 33.4546 C.3 0.0 **** -0.106
120 C27488 6.29299 36.9886 39.823 C.2 0.0 **** 0.042
121 H27647 -8.06419 26.5236 47.0094 H 0.0 **** 0.1268
122 C27443 9.15882 50.9333 39.8414 C.2 0.0 **** 0.0
123 C27422 13.2862 46.7467 37.9522 C.3 0.0 **** -0.053
124 C27405 12.7299 47.7138 32.817 C.3 0.0 **** 0.054
125 C27414 15.7453 49.6941 34.3455 C.3 0.0 **** -0.106
126 H27635 5.50089 48.9158 37.1105 H 0.0 **** 0.053
127 C27474 2.49968 36.8582 41.6823 C.2 0.0 **** 0.0
128 H27606 -3.9943 40.4623 46.8127 H 0.0 **** 0.053
129 H27610 -4.63054 41.4216 43.2568 H 0.0 **** 0.353
130 C27536 -5.97339 28.8765 45.668 C.2 0.0 **** 0.0
131 H27565 15.0897 50.5473 34.5854 H 0.0 **** 0.053
132 C27528 -2.97259 30.3669 43.9562 C.2 0.0 **** 0.0
133 C27508 -1.36174 34.1938 43.1356 C.2 0.0 **** 0.0
134 H27576 15.8415 42.7897 36.6396 H 0.0 **** 0.053
135 C27538 -6.23392 31.3199 45.5964 C.2 0.0 **** 0.0
136 C27408 15.3129 47.2586 33.7366 C.3 0.0 **** -0.053
137 C27425 10.8756 43.2036 38.339 C.2 0.0 **** 0.232
138 S27453 6.84209 46.0256 40.0923 S.2 0.0 **** 0.024
139 C27523 6.38879 50.8149 35.3531 C.3 0.0 **** -0.159
140 H27571 12.158 40.9173 37.9334 H 0.0 **** 0.053
141 C27541 -8.44193 28.6313 47.0012 C.2 0.0 **** -0.1268
142 C27516 -3.19556 32.8159 43.9366 C.2 0.0 **** 0.0
143 C27519 -5.31425 33.8464 44.7154 C.2 0.0 **** 0.0
144 H27587 6.7142 49.7872 38.9432 H 0.0 **** 0.053
145 H27625 -3.20168 35.2579 45.3639 H 0.0 **** 0.053
146 H27603 -1.79688 41.6698 45.6934 H 0.0 **** 0.053
147 C27532 -2.74125 27.9354 44.0099 C.2 0.0 **** -0.1268
148 C27537 -6.73776 30.043 45.9742 C.2 0.0 **** 0.0
149 H27608 -5.90801 41.4472 45.878 H 0.0 **** 0.053
150 C27503 -0.750346 35.488 42.953 C.2 0.0 **** 0.0
151 C27439 13.2966 49.7643 40.441 C.3 0.0 **** -0.106
152 C27419 14.2443 44.1215 37.1415 C.2 0.0 **** 0.0
153 H27654 -11.4345 32.127 48.7963 H 0.0 **** 0.053
154 N27486 -4.78356 41.8717 44.1601 N.3 0.0 **** -0.727
155 C27535 -6.46093 27.5929 46.0309 C.2 0.0 **** 0.0
156 C27530 -4.72178 28.9875 44.9931 C.2 0.0 **** 0.0
157 H27621 4.86338 34.7851 40.3229 H 0.0 **** 0.1268
158 H27595 -1.91185 41.0568 42.7154 H 0.0 **** 0.053
159 C27464 1.26038 39.2561 42.6127 C.2 0.0 **** 0.0
160 H27580 11.9974 51.7854 41.6109 H 0.0 **** 0.053
161 H27601 -3.75385 44.4945 43.9457 H 0.0 **** 0.053
162 H27575 14.4763 42.7193 35.5253 H 0.0 **** 0.053
163 H27617 9.40653 34.8427 36.496 H 0.0 **** 0.053
164 H27644 -3.91505 25.6428 44.8079 H 0.0 **** 0.1268
165 C27468 5.0896 39.4002 40.6525 C.2 0.0 **** 0.0
166 C27539 -4.97978 31.4314 44.9309 C.2 0.0 **** 0.0
167 H27634 5.96003 48.0711 35.6172 H 0.0 **** 0.053
168 C27534 -5.69388 26.4321 45.7073 C.2 0.0 **** -0.1268
169 O27410 13.6002 46.9825 31.9466 O.3 0.0 **** -0.32
170 H27582 9.53548 52.4448 41.3271 H 0.0 **** 0.053
171 H27591 8.88045 47.8868 39.8887 H 0.0 **** 0.1268
172 H27594 8.82394 39.9981 38.8514 H 0.0 **** 0.1268
173 C27459 3.20102 40.5556 41.7828 C.2 0.0 **** 0.0
174 O27493 8.12178 38.2027 38.89 O.3 0.0 **** -0.202
175 H27566 15.1181 46.3418 38.9682 H 0.0 **** 0.053
176 H27605 -2.21396 39.3267 45.4014 H 0.0 **** 0.053
177 H27649 -8.10901 34.4292 47.282 H 0.0 **** 0.053
178 H27612 9.51021 37.0828 37.9538 H 0.0 **** 0.053
179 C27517 -2.45017 31.646 43.6166 C.2 0.0 **** 0.0
180 C27482 -2.3739 41.4079 44.7903 C.3 0.0 **** -0.053
181 H27583 9.74913 50.7815 41.9077 H 0.0 **** 0.053
182 H27642 -0.401326 28.4183 42.7482 H 0.0 **** 0.1268
183 C27431 8.86491 42.0949 39.0155 C.2 0.0 **** 0.232
184 C27435 11.4557 48.0448 39.0963 C.2 0.0 **** 0.0
185 O27415 15.5608 47.6073 37.4586 O.3 0.0 **** -0.32
186 H27639 5.90707 50.3734 34.4674 H 0.0 **** 0.053
187 H27630 -5.93741 37.4954 42.464 H 0.0 **** 0.053
188 C27477 -0.783263 42.8245 43.3214 C.3 0.0 **** -0.053
189 H27572 12.2608 41.5532 36.2933 H 0.0 **** 0.053
190 H27645 -6.08578 25.4557 45.9988 H 0.0 **** 0.1268
191 C27460 2.59528 41.7764 42.2535 C.2 0.0 **** 0.0
192 H27564 16.6231 50.1104 33.829 H 0.0 **** 0.053
193 C27421 12.4712 45.4919 38.1709 C.2 0.0 **** 0.0
194 H27631 -3.37315 38.1441 42.2683 H 0.0 **** 0.053
195 H27616 6.39274 35.0556 37.0103 H 0.0 **** 0.053
196 C27428 14.1386 41.6246 37.3566 C.3 0.0 **** -0.106
197 O27490 6.83688 35.7743 39.473 O.3 0.0 **** -0.202
198 C27502 2.44869 34.39 41.4389 C.2 0.0 **** -0.1268
199 C27412 15.1337 48.0786 36.1711 C.3 0.0 **** 0.107
200 H27629 -5.21009 38.4637 43.7507 H 0.0 **** 0.053
201 C27531 -3.97082 27.8097 44.6762 C.2 0.0 **** 0.0
202 C27485 -5.32256 40.8978 45.1214 C.3 0.0 **** 0.081
203 O27430 10.101 42.062 38.4171 O.3 0.0 **** -0.464
204 H27569 16.7188 45.9172 35.6691 H 0.0 **** 0.053
205 H27641 0.528558 30.6413 42.197 H 0.0 **** 0.1268
206 C27522 6.35871 48.5794 36.508 C.3 0.0 **** -0.159
207 C27471 4.41972 38.1583 40.8667 C.2 0.0 **** 0.0
208 C27465 2.53239 39.3103 41.9768 C.2 0.0 **** 0.0
209 H27586 8.39689 51.3682 36.9492 H 0.0 **** 0.053
210 H27553 12.3421 47.0339 33.6019 H 0.0 **** 0.053
211 C27411 14.8893 46.9064 35.1783 C.3 0.0 **** -0.053
212 H27633 8.00962 49.4083 35.407 H 0.0 **** 0.053
213 C27449 8.50896 45.8118 39.6046 C.2 0.0 **** -0.012
214 H27568 15.5041 44.8387 34.9681 H 0.0 **** 0.053
215 H27623 -1.30079 38.7752 43.4538 H 0.0 **** 0.1268
216 C27520 -4.4925 32.6975 44.5458 C.2 0.0 **** 0.0
217 C27441 11.4106 51.5015 40.7228 C.3 0.0 **** -0.106
218 O27551 -10.8047 30.0498 47.5378 O.2 0.0 **** -0.419
219 H27598 -1.40196 44.0284 45.0216 H 0.0 **** 0.053
220 H27589 7.24424 51.6361 40.4607 H 0.0 **** 0.053
221 H27560 13.8138 46.6681 35.1625 H 0.0 **** 0.053
222 C27472 0.555186 38.0014 42.7015 C.2 0.0 **** 0.0
223 H27653 -11.4329 32.7083 47.1269 H 0.0 **** 0.053
224 C27427 12.6125 41.7159 37.3297 C.3 0.0 **** -0.106
225 C27436 10.6338 46.9167 39.0582 C.2 0.0 **** 0.0
226 H27578 13.9498 50.6525 40.3351 H 0.0 **** 0.053
227 C27479 -1.62255 43.9472 43.9434 C.3 0.0 **** -0.106
228 H27611 8.80976 35.9937 40.0541 H 0.0 **** 0.053
229 C27526 -0.958708 29.3248 42.9905 C.2 0.0 **** -0.1268
230 C27501 1.20695 34.3614 42.0108 C.2 0.0 **** 0.042
231 H27584 9.92921 49.5279 37.0165 H 0.0 **** 0.053
232 C27417 15.2241 45.2473 37.1067 C.3 0.0 **** -0.053
233 C27527 -2.22555 29.1842 43.6483 C.2 0.0 **** 0.0
234 C27515 -3.79557 37.2164 42.6831 C.3 0.0 **** -0.106
235 O27475 -0.367087 40.4564 43.9518 O.3 0.0 **** -0.202
236 C27518 -1.16329 31.7506 43.0011 C.2 0.0 **** 0.0
237 C27418 15.6445 45.6743 35.6696 C.3 0.0 **** -0.106
238 H27628 -6.68152 36.255 44.3101 H 0.0 **** 0.053
239 C27498 3.11921 35.6391 41.2503 C.2 0.0 **** 0.0
240 C27409 14.6404 46.3342 32.6886 C.3 0.0 **** 0.054
241 C27480 -3.10752 43.6313 43.736 C.3 0.0 **** -0.106
242 H27562 17.1262 48.4357 35.4794 H 0.0 **** 0.053
243 H27600 -3.27591 43.3614 42.6777 H 0.0 **** 0.053
244 H27636 6.91322 47.8372 37.1021 H 0.0 **** 0.053
245 H27624 -2.92356 37.36 44.6128 H 0.0 **** 0.053
246 C27407 14.9861 48.7237 33.4048 C.3 0.0 **** -0.053
247 H27643 -2.16996 27.0344 43.7759 H 0.0 **** 0.1268
248 C27548 -9.77132 33.4723 48.2733 C.3 0.0 **** -0.106
249 H27607 -4.61385 39.0173 46.0017 H 0.0 **** 0.053
250 H27570 12.976 47.0893 36.9442 H 0.0 **** 0.053
@<TRIPOS>BOND
1 31 16 2
2 225 87 un
3 66 206 1
4 202 10 1
5 246 119 1
6 136 246 1
7 240 136 1
8 169 240 1
9 124 119 1
10 124 169 1
11 199 211 1
12 55 199 1
13 125 55 1
14 136 211 1
15 246 125 1
16 114 185 1
17 232 114 1
18 237 232 1
19 199 185 1
20 211 237 1
21 27 152 un
22 193 27 un
23 123 193 un
24 232 152 1
25 114 123 1
26 113 23 1
27 137 113 un
28 73 137 un
29 193 23 un
30 27 73 un
31 196 224 1
32 105 196 1
33 152 105 1
34 73 224 1
35 183 203 1
36 1 183 un
37 41 1 un
38 137 203 1
39 113 41 un
40 184 86 un
41 225 184 2
42 123 86 1
43 23 225 un
44 151 31 1
45 47 151 1
46 184 16 1
47 86 47 2
48 44 217 1
49 122 44 1
50 26 122 2
51 31 217 1
52 16 26 1
53 109 57 1
54 36 109 1
55 88 36 1
56 26 57 1
57 122 88 1
58 87 213 un
59 41 213 un
60 8 74 un
61 138 8 1
62 213 138 un
63 1 74 un
64 100 70 un
65 14 100 un
66 5 14 un
67 8 70 un
68 74 5 un
69 173 116 un
70 191 173 un
71 17 191 un
72 14 116 un
73 100 17 un
74 52 42 un
75 159 52 un
76 208 159 un
77 191 42 un
78 173 208 un
79 7 30 un
80 183 7 un
81 5 30 un
82 25 165 un
83 30 25 un
84 116 165 un
85 207 59 un
86 165 207 un
87 208 59 un
88 95 222 un
89 127 95 un
90 59 127 un
91 159 222 un
92 53 235 1
93 188 53 1
94 37 188 1
95 52 235 1
96 42 37 1
97 241 227 1
98 68 241 1
99 180 68 1
100 188 227 1
101 53 180 1
102 103 58 1
103 202 103 1
104 154 202 1
105 180 58 1
106 68 154 1
107 120 33 un
108 71 120 un
109 207 71 un
110 25 33 un
111 69 197 1
112 46 69 1
113 174 46 1
114 120 197 1
115 33 174 1
116 34 12 1
117 97 34 1
118 32 97 1
119 46 12 1
120 69 32 1
121 6 239 un
122 71 6 un
123 127 239 un
124 230 81 un
125 198 230 un
126 239 198 un
127 95 81 un
128 83 150 un
129 39 83 un
130 222 39 un
131 81 150 un
132 28 94 1
133 133 28 un
134 230 94 1
135 150 133 1
136 118 19 1
137 18 118 1
138 83 19 1
139 133 18 un
140 4 50 1
141 102 4 1
142 234 102 1
143 118 50 1
144 19 234 1
145 179 142 1
146 236 179 1
147 28 236 un
148 18 142 un
149 50 143 1
150 142 216 un
151 143 216 un
152 109 66 1
153 66 139 1
154 37 11 1
155 229 29 1
156 233 229 un
157 132 233 1
158 236 29 un
159 179 132 un
160 156 15 un
161 201 156 1
162 147 201 un
163 132 15 un
164 233 147 un
165 168 13 un
166 155 168 1
167 130 155 1
168 201 13 un
169 156 130 un
170 135 148 un
171 166 135 un
172 15 166 un
173 130 148 un
174 141 80 un
175 107 141 un
176 155 107 un
177 148 80 un
178 99 63 un
179 135 99 un
180 216 166 un
181 143 63 un
182 3 54 un
183 99 3 un
184 80 54 un
185 248 108 1
186 24 248 1
187 101 24 1
188 3 108 1
189 54 101 1
190 101 218 2
191 124 65 1
192 124 210 1
193 119 45 1
194 119 48 1
195 246 84 1
196 136 56 1
197 240 90 1
198 240 85 1
199 211 221 1
200 199 104 1
201 55 242 1
202 55 64 1
203 125 192 1
204 125 131 1
205 114 175 1
206 232 2 1
207 237 214 1
208 237 204 1
209 123 250 1
210 224 140 1
211 224 189 1
212 196 20 1
213 196 106 1
214 105 162 1
215 105 134 1
216 151 35 1
217 151 226 1
218 47 91 1
219 217 160 1
220 217 77 1
221 44 170 1
222 44 181 1
223 57 231 1
224 57 92 1
225 109 209 1
226 36 144 1
227 36 43 1
228 88 220 1
229 88 117 1
230 87 171 1
231 70 89 1
232 17 49 1
233 7 172 1
234 53 158 1
235 188 72 1
236 37 98 1
237 227 219 1
238 227 111 1
239 241 243 1
240 241 161 1
241 68 40 1
242 180 146 1
243 58 62 1
244 58 176 1
245 103 128 1
246 103 249 1
247 202 149 1
248 154 129 1
249 69 228 1
250 46 178 1
251 12 76 1
252 12 93 1
253 34 61 1
254 34 195 1
255 97 163 1
256 97 82 1
257 32 60 1
258 32 78 1
259 6 157 1
260 198 9 1
261 39 215 1
262 19 245 1
263 118 145 1
264 50 67 1
265 4 38 1
266 4 238 1
267 102 200 1
268 102 187 1
269 234 194 1
270 234 96 1
271 66 212 1
272 206 167 1
273 206 126 1
274 206 244 1
275 139 21 1
276 139 51 1
277 139 186 1
278 11 75 1
279 29 205 1
280 229 182 1
281 147 247 1
282 13 164 1
283 168 190 1
284 141 115 1
285 107 121 1
286 63 79 1
287 108 177 1
288 108 112 1
289 248 110 1
290 248 22 1
291 24 223 1
292 24 153 1
@<TRIPOS>MOLECULE
Sketch 4
250 292
SMALL
USER_CHARGES


@<TRIPOS>ATOM
1 H27385 42.1542 64.9003 26.9946 H 0.0 **** 0.053
2 C27235 28.3985 57.8477 24.4157 C.3 0.0 **** 0.081
3 C27179 49.9522 57.1012 28.1118 C.3 0.0 **** -0.106
4 C27201 41.6027 58.3646 27.2834 C.2 0.0 **** 0.0
5 C27218 39.5059 55.2616 25.1663 C.2 0.0 **** 0.0
6 C27190 47.787 61.5008 32.5611 C.2 0.0 **** -0.1268
7 C27162 50.7329 61.8334 30.3672 C.3 0.0 **** 0.107
8 C27264 29.358 55.4367 21.5136 C.3 0.0 **** -0.106
9 C27155 50.5003 63.3936 26.5366 C.3 0.0 **** 0.054
10 H27311 49.8972 62.5563 30.2979 H 0.0 **** 0.053
11 C27200 43.955 61.2144 29.6944 C.2 0.0 **** -0.1268
12 H27341 43.4602 62.0399 30.2056 H 0.0 **** 0.1268
13 H27390 35.2671 59.0398 28.5706 H 0.0 **** 0.41
14 C27166 49.4413 59.8662 30.8177 C.3 0.0 **** 0.107
15 C27198 42.9195 65.7169 31.1033 C.3 0.0 **** -0.106
16 H27320 48.4595 61.2689 29.5039 H 0.0 **** 0.053
17 H27380 29.1704 55.9579 20.5623 H 0.0 **** 0.053
18 H27372 37.189 50.4084 21.8196 H 0.0 **** 0.1268
19 H27317 50.6976 58.1792 30.4414 H 0.0 **** 0.053
20 O27160 51.6711 62.8191 25.9459 O.3 0.0 **** -0.32
21 H27318 51.5578 59.2866 28.1501 H 0.0 **** 0.053
22 C27258 32.5229 51.5114 21.6926 C.2 0.0 **** 0.0
23 H27338 42.2395 66.4392 29.1691 H 0.0 **** 0.053
24 H27391 34.4718 48.1701 20.2393 H 0.0 **** 0.1268
25 H27334 45.9574 64.2543 29.2555 H 0.0 **** 0.053
26 C27269 28.3313 51.7208 20.9022 C.2 0.0 **** 0.0
27 C27191 45.2908 64.252 33.6579 C.3 0.0 **** -0.106
28 C27221 38.7752 54.2642 24.4533 C.2 0.0 **** 0.0
29 H27312 52.7971 61.8516 30.9279 H 0.0 **** 0.053
30 H27365 43.8848 52.9514 20.2913 H 0.0 **** 0.053
31 O27225 33.1807 56.5101 25.6241 O.3 0.0 **** -0.202
32 H27364 44.4574 54.2664 22.1845 H 0.0 **** 0.053
33 C27171 47.3078 59.5414 29.4754 C.2 0.0 **** 0.0
34 C27227 33.2682 58.9609 26.0294 C.3 0.0 **** -0.053
35 H27381 31.461 55.8969 21.898 H 0.0 **** 0.053
36 O27274 34.7797 59.4353 27.8316 O.3 0.0 **** -0.57
37 H27349 32.7938 60.9053 26.8475 H 0.0 **** 0.053
38 H27373 32.5932 55.4539 24.0475 H 0.0 **** 0.1268
39 C27224 36.6661 53.3422 23.5912 C.2 0.0 **** 0.0
40 H27384 43.3096 64.5652 25.688 H 0.0 **** 0.053
41 H27304 50.924 65.1261 27.814 H 0.0 **** 0.053
42 C27277 31.3119 47.1078 19.4021 C.2 0.0 **** 0.0
43 H27392 33.3001 46.2494 19.2154 H 0.0 **** 0.1268
44 C27233 30.4223 56.4529 24.9879 C.3 0.0 **** -0.106
45 C27271 44.1893 65.5536 27.4188 C.3 0.0 **** -0.053
46 C27209 37.3558 56.4004 25.6753 C.2 0.0 **** 0.0
47 C27259 31.0327 53.8895 22.6032 C.3 0.0 **** -0.053
48 H27378 27.4987 54.3889 21.056 H 0.0 **** 0.053
49 C27173 45.9645 59.8298 29.3091 C.2 0.0 **** 0.0
50 C27232 31.0798 57.6064 25.7637 C.3 0.0 **** -0.053
51 H27348 31.8821 59.5844 27.5827 H 0.0 **** 0.053
52 C27292 24.9887 46.0159 18.429 C.2 0.0 **** -0.1268
53 C27215 36.6369 55.4071 24.946 C.2 0.0 **** 0.0
54 C27185 46.0609 61.7565 30.8696 C.2 0.0 **** 0.0
55 H27313 51.7712 62.8884 31.9305 H 0.0 **** 0.053
56 C27175 45.7794 57.886 27.8218 C.2 0.0 **** 0.232
57 H27331 45.8961 65.1705 33.5167 H 0.0 **** 0.053
58 C27249 38.7539 52.1718 23.1493 C.2 0.0 **** -0.1268
59 C27210 36.6432 57.4826 26.3077 C.2 0.0 **** 0.0
60 H27370 42.6044 50.0338 22.6027 H 0.0 **** 0.053
61 C27211 37.3789 58.5115 26.9161 C.2 0.0 **** -0.1268
62 C27300 22.6703 49.5811 19.5191 C.2 0.0 **** 0.347
63 C27289 28.3965 49.4018 20.1223 C.2 0.0 **** 0.0
64 C27290 24.8773 48.2831 19.3347 C.2 0.0 **** 0.0
65 O27301 22.0329 48.8356 18.7736 O.2 0.0 **** -0.419
66 H27355 30.7989 55.4886 25.3554 H 0.0 **** 0.053
67 H27336 44.7804 66.3395 29.331 H 0.0 **** 0.053
68 C27163 51.9559 62.5627 30.8968 C.3 0.0 **** -0.106
69 C27188 45.9083 63.1268 32.8755 C.2 0.0 **** 0.0
70 C27214 35.2216 55.4793 24.8148 C.2 0.0 **** 0.0
71 C27182 43.0075 58.3074 27.4703 C.2 0.0 **** 0.0
72 H27358 27.5212 58.2231 24.9693 H 0.0 **** 0.053
73 H27362 44.5834 52.9594 24.1106 H 0.0 **** 0.053
74 C27287 26.2975 48.2735 19.4682 C.2 0.0 **** 0.0
75 C27222 34.5282 54.526 23.9842 C.2 0.0 **** 0.0
76 H27399 24.6214 52.0786 21.8223 H 0.0 **** 0.053
77 H27303 49.7232 62.6106 26.644 H 0.0 **** 0.053
78 H27352 29.5412 58.9634 26.4315 H 0.0 **** 0.053
79 H27393 31.2007 45.1337 18.5466 H 0.0 **** 0.1268
80 C27272 43.1866 64.583 26.7813 C.3 0.0 **** -0.159
81 C27178 48.9891 55.9365 27.87 C.3 0.0 **** -0.106
82 C27299 21.9304 50.7477 20.1619 C.3 0.0 **** -0.086
83 C27205 38.7667 58.4646 27.0049 C.2 0.0 **** 0.0
84 H27353 31.0901 57.3513 26.8369 H 0.0 **** 0.053
85 H27337 42.2249 64.6733 29.3469 H 0.0 **** 0.053
86 H27333 43.2245 63.6401 33.4604 H 0.0 **** 0.053
87 C27168 51.333 59.7359 29.1287 C.3 0.0 **** -0.106
88 C27159 52.1202 61.6849 26.6973 C.3 0.0 **** 0.054
89 H27346 33.876 59.4863 25.2756 H 0.0 **** 0.053
90 C27253 33.1896 52.5599 22.4263 C.2 0.0 **** 0.0
91 H27367 45.188 51.5257 21.9349 H 0.0 **** 0.053
92 C27279 29.1511 48.258 19.7119 C.2 0.0 **** 0.0
93 C27172 48.1637 60.5117 30.2581 C.3 0.0 **** -0.053
94 H27398 26.4126 52.621 21.0374 H 0.0 **** 0.1268
95 C27261 31.1389 51.545 21.5024 C.2 0.0 **** 0.0
96 H27327 46.4856 61.5984 34.2624 H 0.0 **** 0.053
97 C27242 43.5544 53.0871 23.7455 C.3 0.0 **** 0.107
98 H27316 49.1418 59.2754 31.6958 H 0.0 **** 0.053
99 C27283 28.5355 44.8676 18.2113 C.2 0.0 **** -0.1268
100 H27340 43.2755 66.7315 31.3686 H 0.0 **** 0.053
101 C27291 24.2516 47.1156 18.8161 C.2 0.0 **** -0.1268
102 C27252 36.6517 51.2493 22.2594 C.2 0.0 **** -0.1268
103 C27231 30.2432 58.9172 25.5814 C.3 0.0 **** 0.134
104 C27213 34.5572 56.5029 25.5546 C.2 0.0 **** 0.042
105 C27206 39.4909 57.3666 26.4471 C.2 0.0 **** 0.0
106 H27388 42.9224 67.3197 27.2381 H 0.0 **** 0.053
107 C27169 49.2975 58.2066 28.8916 C.2 0.0 **** 0.0
108 C27237 41.5832 54.0786 24.6446 C.2 0.0 **** 0.042
109 H27350 31.5391 60.362 24.6284 H 0.0 **** 0.053
110 H27302 50.1331 64.1379 25.8169 H 0.0 **** 0.053
111 O27240 41.461 51.9821 23.4301 O.3 0.0 **** -0.202
112 C27257 33.2742 50.4255 21.2113 C.2 0.0 **** 0.0265
113 C27212 35.2169 57.4618 26.2997 C.2 0.0 **** 0.0
114 C27219 40.9271 55.1938 25.2762 C.2 0.0 **** 0.0
115 H27357 28.443 55.6588 24.5578 H 0.0 **** 0.053
116 H27315 51.652 64.6182 30.2647 H 0.0 **** 0.053
117 C27174 45.1453 58.9915 28.466 C.2 0.0 **** 0.0
118 C27275 33.3888 48.1839 20.1173 C.2 0.0 **** -0.1268
119 C27158 52.1603 61.9399 28.2265 C.3 0.0 **** -0.053
120 C27278 30.5665 48.2544 19.8279 C.2 0.0 **** 0.0
121 H27368 44.1666 50.5513 20.8738 H 0.0 **** 0.053
122 C27196 44.1914 65.4799 28.9602 C.3 0.0 **** -0.053
123 O27243 42.9572 53.9989 24.6879 O.3 0.0 **** -0.202
124 C27181 43.6767 57.2099 26.8991 C.2 0.0 **** 0.232
125 H27389 43.9796 67.0459 25.8371 H 0.0 **** 0.053
126 C27184 47.3672 61.2632 31.2983 C.2 0.0 **** 0.0
127 H27343 36.8666 59.3866 27.3035 H 0.0 **** 0.1268
128 H27361 42.8178 51.4204 24.8867 H 0.0 **** 0.053
129 C27251 35.2975 51.3592 22.1052 C.2 0.0 **** 0.042
130 C27192 43.8571 64.5051 33.1827 C.3 0.0 **** -0.106
131 H27326 50.8568 56.7627 28.6448 H 0.0 **** 0.053
132 H27310 50.1064 61.3106 28.3464 H 0.0 **** 0.053
133 C27220 37.3636 54.3373 24.3253 C.2 0.0 **** 0.0
134 C27294 26.241 50.5503 20.4115 C.2 0.0 **** 0.0
135 C27226 32.5362 57.7836 25.338 C.3 0.0 **** 0.107
136 C27263 28.4161 54.2129 21.6356 C.3 0.0 **** -0.106
137 H27386 43.3026 63.5533 27.1524 H 0.0 **** 0.053
138 C27204 39.4711 59.5077 27.6617 C.2 0.0 **** -0.1268
139 H27330 45.3184 64.0192 34.7344 H 0.0 **** 0.053
140 C27164 52.2976 63.7652 29.9982 C.3 0.0 **** -0.106
141 C27170 47.9372 58.4465 28.7807 C.2 0.0 **** 0.0
142 C27281 29.2324 45.9939 18.7486 C.2 0.0 **** 0.0
143 C27197 42.796 65.5855 29.5854 C.3 0.0 **** -0.106
144 C27244 43.5426 53.6704 22.3171 C.3 0.0 **** -0.106
145 C27266 30.491 50.5016 20.824 C.2 0.0 **** 0.0
146 C27255 33.1583 54.6162 23.6704 C.2 0.0 **** -0.1268
147 H27369 44.1305 50.0734 23.4957 H 0.0 **** 0.053
148 H27383 45.2033 65.2642 27.0873 H 0.0 **** 0.053
149 C27157 52.1248 63.4542 28.4894 C.3 0.0 **** -0.053
150 C27285 26.3982 45.9969 18.5248 C.2 0.0 **** 0.0
151 C27199 43.2143 60.4003 28.8732 C.2 0.0 **** -0.012
152 C27286 27.0572 47.1359 19.0592 C.2 0.0 **** 0.0
153 C27193 43.8465 64.69 31.6851 C.2 0.0 **** 0.0
154 C27183 43.7852 59.2426 28.2478 C.2 0.0 **** 0.0
155 C27262 29.1428 52.9613 21.1574 C.3 0.0 **** -0.053
156 H27371 39.3013 51.3389 22.7108 H 0.0 **** 0.1268
157 H27356 28.5878 56.4778 26.1192 H 0.0 **** 0.053
158 C27268 32.661 49.3323 20.5706 C.2 0.0 **** 0.0
159 H27328 47.6015 62.9356 34.1546 H 0.0 **** 0.053
160 C27230 31.1222 60.1705 25.6338 C.3 0.0 **** -0.106
161 C27293 26.9569 51.7056 20.8214 C.2 0.0 **** -0.1268
162 H27351 30.5012 61.0408 25.8862 H 0.0 **** 0.053
163 C27202 40.8348 59.4681 27.802 C.2 0.0 **** -0.012
164 H27376 29.6126 53.2018 20.1824 H 0.0 **** 0.053
165 H27345 32.5712 57.921 24.241 H 0.0 **** 0.053
166 H27377 28.1091 54.0608 22.6844 H 0.0 **** 0.053
167 H27308 51.4599 60.8191 26.4812 H 0.0 **** 0.053
168 C27247 43.4299 50.6919 22.915 C.3 0.0 **** -0.106
169 C27260 30.2896 52.6197 22.1274 C.3 0.0 **** -0.053
170 N27236 29.4102 58.9146 24.3781 N.3 0.0 **** -0.727
171 H27354 30.7266 56.5225 23.9293 H 0.0 **** 0.053
172 C27161 51.013 61.2194 28.9657 C.3 0.0 **** -0.053
173 H27329 48.7477 61.1252 32.9094 H 0.0 **** 0.1268
174 H27325 50.3047 57.483 27.1326 H 0.0 **** 0.053
175 O27180 45.038 57.0565 27.0025 O.3 0.0 **** -0.464
176 H27347 33.6477 57.7056 27.7183 H 0.0 **** 0.053
177 H27396 23.1714 47.1081 18.7176 H 0.0 **** 0.1268
178 C27229 32.2736 59.9654 26.6239 C.3 0.0 **** -0.106
179 H27379 29.13 56.15 22.3183 H 0.0 **** 0.053
180 H27397 24.4776 45.1333 18.0385 H 0.0 **** 0.1268
181 H27374 30.5446 54.2223 23.5319 H 0.0 **** 0.053
182 C27267 31.2421 49.3712 20.394 C.2 0.0 **** 0.0
183 C27270 29.0665 50.5333 20.6316 C.2 0.0 **** 0.0
184 C27276 32.7381 47.1218 19.5537 C.2 0.0 **** -0.1268
185 C27156 50.8191 64.0344 27.9078 C.3 0.0 **** -0.106
186 H27314 53.3318 64.0807 30.2021 H 0.0 **** 0.053
187 C27295 24.1381 49.4507 19.7693 C.2 0.0 **** 0.052
188 H27403 21.8358 51.5235 19.3797 H 0.0 **** 0.053
189 C27241 42.8283 51.7554 23.836 C.3 0.0 **** 0.107
190 C27167 50.1877 58.9497 29.8319 C.3 0.0 **** -0.053
191 C27284 27.1698 44.87 18.1064 C.2 0.0 **** -0.1268
192 C27177 47.7229 56.4495 27.1832 C.3 0.0 **** -0.106
193 C27254 32.4896 53.671 22.9144 C.2 0.0 **** 0.0
194 C27228 34.2443 58.3637 27.0532 C.3 0.0 **** 0.107
195 H27339 41.9308 65.6193 31.5876 H 0.0 **** 0.053
196 H27359 28.0693 57.6682 23.3814 H 0.0 **** 0.053
197 H27387 44.6614 67.6867 27.3569 H 0.0 **** 0.053
198 C27217 43.0335 56.2152 26.1954 C.2 0.0 **** -0.1268
199 H27344 43.6435 55.4158 25.8012 H 0.0 **** 0.1268
200 H27323 49.467 55.1562 27.2582 H 0.0 **** 0.053
201 C27282 30.6313 46.0081 18.8695 C.2 0.0 **** -0.1268
202 H27307 53.1109 61.539 28.6163 H 0.0 **** 0.053
203 C27280 28.4787 47.134 19.1771 C.2 0.0 **** 0.0
204 H27305 49.9839 63.8503 28.6019 H 0.0 **** 0.053
205 C27208 38.7806 56.3442 25.7648 C.2 0.0 **** 0.0
206 C27250 34.5698 52.4587 22.6568 C.2 0.0 **** 0.0
207 C27186 45.3428 60.9942 29.9461 C.2 0.0 **** 0.0
208 C27297 24.0654 51.702 20.9522 C.3 0.0 **** -0.106
209 C27187 45.5278 62.9163 31.5817 C.2 0.0 **** 0.0
210 H27404 20.9115 50.3996 20.3834 H 0.0 **** 0.053
211 C27245 43.442 52.581 21.2276 C.3 0.0 **** -0.106
212 H27306 52.9563 63.9083 27.9309 H 0.0 **** 0.053
213 H27360 30.0066 58.8005 23.5576 H 0.0 **** 0.353
214 C27207 40.9065 57.3217 26.5756 C.2 0.0 **** 0.0
215 O27256 34.6385 50.3757 21.3832 O.3 0.0 **** -0.0685
216 H27375 29.8188 52.1563 23.0173 H 0.0 **** 0.053
217 C27246 44.1385 51.2943 21.6843 C.3 0.0 **** -0.106
218 C27216 41.6366 56.2264 26.0022 C.2 0.0 **** 0.0
219 C27195 44.8717 64.197 29.4513 C.3 0.0 **** -0.106
220 C27194 44.6726 63.9318 30.9257 C.2 0.0 **** 0.0
221 H27332 43.4264 65.3899 33.6769 H 0.0 **** 0.053
222 H27382 31.2221 54.7149 20.6124 H 0.0 **** 0.053
223 H27401 22.1169 52.2038 21.7679 H 0.0 **** 0.053
224 C27273 43.9265 66.9832 26.9346 C.3 0.0 **** -0.159
225 O27165 50.3796 60.8277 31.3295 O.3 0.0 **** -0.32
226 C27176 47.1129 57.6055 27.9346 C.2 0.0 **** 0.0
227 C27238 40.8653 53.0854 23.9965 C.2 0.0 **** 0.042
228 H27394 29.1185 44.0032 17.8885 H 0.0 **** 0.1268
229 C27239 39.4554 53.1605 23.8549 C.2 0.0 **** 0.0
230 C27296 24.8127 50.5298 20.3562 C.2 0.0 **** 0.0
231 H27400 24.028 52.5325 20.222 H 0.0 **** 0.053
232 H27309 53.1218 61.4619 26.3038 H 0.0 **** 0.053
233 H27366 42.3832 52.3615 21.0251 H 0.0 **** 0.053
234 S27203 41.5577 60.874 28.568 S.2 0.0 **** 0.024
235 C27189 46.9578 62.2877 33.528 C.3 0.0 **** -0.106
236 H27342 38.8981 60.3454 28.0656 H 0.0 **** 0.1268
237 H27322 47.9781 56.7791 26.1582 H 0.0 **** 0.053
238 H27335 44.5215 63.344 28.8504 H 0.0 **** 0.053
239 H27321 46.9821 55.6453 27.0679 H 0.0 **** 0.053
240 C27223 35.2625 53.4416 23.4179 C.2 0.0 **** 0.0
241 C27298 22.6488 51.3266 21.3694 C.3 0.0 **** -0.106
242 H27324 48.7215 55.484 28.8386 H 0.0 **** 0.053
243 H27363 42.6919 54.3628 22.2386 H 0.0 **** 0.053
244 C27265 30.8436 55.0377 21.5952 C.3 0.0 **** -0.106
245 C27248 37.3695 52.2436 22.9954 C.2 0.0 **** 0.0
246 H27319 52.2475 59.655 29.7371 H 0.0 **** 0.053
247 C27288 26.9779 49.4074 19.9958 C.2 0.0 **** 0.0
248 H27395 26.6425 44.0039 17.7019 H 0.0 **** 0.1268
249 C27234 28.8981 56.5255 25.0631 C.3 0.0 **** -0.106
250 H27402 22.6975 50.5744 22.1738 H 0.0 **** 0.053
@<TRIPOS>BOND
1 152 150 1
2 160 162 1
3 214 218 un
4 113 194 1
5 15 143 1
6 95 145 un
7 168 147 1
8 68 29 1
9 149 185 1
10 119 149 1
11 88 119 1
12 20 88 1
13 9 185 1
14 9 20 1
15 7 172 1
16 68 7 1
17 140 68 1
18 119 172 1
19 149 140 1
20 14 225 1
21 190 14 1
22 87 190 1
23 7 225 1
24 172 87 1
25 141 107 un
26 33 141 un
27 93 33 un
28 190 107 1
29 14 93 1
30 117 49 1
31 56 117 un
32 226 56 un
33 33 49 un
34 141 226 un
35 81 192 1
36 3 81 1
37 107 3 1
38 226 192 1
39 124 175 1
40 71 124 un
41 154 71 un
42 56 175 1
43 117 154 un
44 54 126 un
45 207 54 2
46 93 126 1
47 49 207 un
48 69 209 2
49 235 69 1
50 6 235 1
51 54 209 1
52 126 6 2
53 130 27 1
54 153 130 1
55 220 153 2
56 69 27 1
57 209 220 1
58 122 219 1
59 143 122 1
60 220 219 1
61 153 15 1
62 11 151 un
63 207 11 un
64 154 151 un
65 163 4 un
66 234 163 1
67 151 234 un
68 71 4 un
69 83 138 un
70 105 83 un
71 214 105 un
72 163 138 un
73 4 214 un
74 46 205 un
75 59 46 un
76 61 59 un
77 105 205 un
78 83 61 un
79 104 113 un
80 70 104 un
81 53 70 un
82 59 113 un
83 46 53 un
84 198 218 un
85 124 198 un
86 114 5 un
87 218 114 un
88 205 5 un
89 28 133 un
90 5 28 un
91 53 133 un
92 240 75 un
93 39 240 un
94 133 39 un
95 70 75 un
96 135 31 1
97 34 135 1
98 194 34 1
99 104 31 1
100 160 178 1
101 103 160 1
102 50 103 1
103 34 178 1
104 135 50 1
105 249 44 1
106 2 249 1
107 170 2 1
108 50 44 1
109 103 170 1
110 227 108 un
111 229 227 un
112 28 229 un
113 114 108 un
114 189 111 1
115 97 189 1
116 123 97 1
117 227 111 1
118 108 123 1
119 211 144 1
120 217 211 1
121 168 217 1
122 97 144 1
123 189 168 1
124 58 245 un
125 229 58 un
126 39 245 un
127 129 206 un
128 102 129 un
129 245 102 un
130 240 206 un
131 193 90 un
132 146 193 un
133 75 146 un
134 206 90 un
135 112 215 1
136 22 112 un
137 129 215 1
138 90 22 1
139 169 47 1
140 95 169 1
141 193 47 1
142 22 95 un
143 136 155 1
144 8 136 1
145 244 8 1
146 169 155 1
147 47 244 1
148 182 145 1
149 158 182 1
150 112 158 un
151 155 26 1
152 145 183 un
153 26 183 un
154 122 45 1
155 45 80 1
156 45 224 1
157 194 36 1
158 184 118 1
159 42 184 un
160 120 42 1
161 158 118 un
162 182 120 un
163 203 92 un
164 142 203 1
165 201 142 un
166 120 92 un
167 42 201 un
168 191 99 un
169 150 191 1
170 142 99 un
171 203 152 un
172 247 74 un
173 63 247 un
174 92 63 un
175 152 74 un
176 101 64 un
177 52 101 un
178 150 52 un
179 74 64 un
180 134 161 un
181 247 134 un
182 183 63 un
183 26 161 un
184 230 187 un
185 134 230 un
186 64 187 un
187 241 208 1
188 82 241 1
189 62 82 1
190 230 208 1
191 187 62 1
192 62 65 2
193 9 110 1
194 9 77 1
195 185 41 1
196 185 204 1
197 149 212 1
198 119 202 1
199 88 167 1
200 88 232 1
201 172 132 1
202 7 10 1
203 68 55 1
204 140 186 1
205 140 116 1
206 14 98 1
207 190 19 1
208 87 21 1
209 87 246 1
210 93 16 1
211 192 239 1
212 192 237 1
213 81 200 1
214 81 242 1
215 3 174 1
216 3 131 1
217 235 96 1
218 235 159 1
219 6 173 1
220 27 139 1
221 27 57 1
222 130 221 1
223 130 86 1
224 219 25 1
225 219 238 1
226 122 67 1
227 143 85 1
228 143 23 1
229 15 195 1
230 15 100 1
231 11 12 1
232 138 236 1
233 61 127 1
234 198 199 1
235 135 165 1
236 34 89 1
237 194 176 1
238 178 51 1
239 178 37 1
240 160 109 1
241 103 78 1
242 50 84 1
243 44 171 1
244 44 66 1
245 249 157 1
246 249 115 1
247 2 72 1
248 2 196 1
249 170 213 1
250 189 128 1
251 97 73 1
252 144 243 1
253 144 32 1
254 211 30 1
255 211 233 1
256 217 91 1
257 217 121 1
258 168 60 1
259 58 156 1
260 102 18 1
261 146 38 1
262 47 181 1
263 169 216 1
264 155 164 1
265 136 166 1
266 136 48 1
267 8 179 1
268 8 17 1
269 244 35 1
270 244 222 1
271 45 148 1
272 80 40 1
273 80 1 1
274 80 137 1
275 224 197 1
276 224 106 1
277 224 125 1
278 36 13 1
279 118 24 1
280 184 43 1
281 201 79 1
282 99 228 1
283 191 248 1
284 101 177 1
285 52 180 1
286 161 94 1
287 208 76 1
288 208 231 1
289 241 223 1
290 241 250 1
291 82 188 1
292 82 210 1
@<TRIPOS>MOLECULE
Sketch 4
250 292
SMALL
USER_CHARGES


@<TRIPOS>ATOM
1 C31406 20.7298 13.9699 27.8329 C.3 0.0 **** -0.106
2 C31498 3.70976 14.3931 20.4717 C.2 0.0 **** 0.0
3 H31556 21.9021 12.4323 28.7523 H 0.0 **** 0.053
4 C31416 16.3358 13.8852 30.7356 C.3 0.0 **** 0.107
5 C31535 -7.44399 16.4311 13.3432 C.2 0.0 **** 0.0
6 C31494 8.58812 10.6257 22.0874 C.3 0.0 **** -0.106
7 H31647 -9.23801 17.0515 12.3098 H 0.0 **** 0.1268
8 H31651 -5.317 24.3569 13.1648 H 0.0 **** 0.053
9 H31653 -5.82643 23.0883 11.0727 H 0.0 **** 0.053
10 S31453 12.627 18.8855 25.307 S.2 0.0 **** 0.024
11 H31568 17.3605 10.8903 29.3527 H 0.0 **** 0.053
12 H31632 2.21608 18.9591 15.3242 H 0.0 **** 0.053
13 C31532 -4.93902 13.6678 15.3747 C.2 0.0 **** -0.1268
14 C31464 4.85789 18.525 20.5274 C.2 0.0 **** 0.0
15 C31536 -6.18678 16.8598 13.8461 C.2 0.0 **** 0.0
16 C31521 18.0288 19.1878 24.3718 C.3 0.0 **** -0.053
17 C31501 1.84292 14.9239 19.0223 C.2 0.0 **** 0.042
18 C31542 -8.26157 17.3726 12.6788 C.2 0.0 **** -0.1268
19 C31442 16.5081 21.4299 29.5768 C.3 0.0 **** -0.106
20 H31558 18.6659 11.0686 27.5067 H 0.0 **** 0.053
21 H31635 16.3291 20.034 23.3024 H 0.0 **** 0.053
22 C31496 7.10037 8.58734 22.2707 C.3 0.0 **** -0.106
23 C31512 -0.4699 19.6529 15.3301 C.3 0.0 **** -0.053
24 C31520 -2.40904 18.0983 15.345 C.2 0.0 **** 0.0
25 C31476 5.05108 21.9172 19.4092 C.3 0.0 **** 0.107
26 O31410 20.4333 11.8091 26.6949 O.3 0.0 **** -0.32
27 C31411 18.5095 12.7257 29.4464 C.3 0.0 **** -0.053
28 O31493 8.30135 12.2866 23.8847 O.3 0.0 **** -0.202
29 C31492 8.00919 10.9337 23.484 C.3 0.0 **** 0.107
30 C31448 17.0912 21.8221 27.0914 C.3 0.0 **** -0.106
31 C31500 2.2399 16.2964 18.9829 C.2 0.0 **** 0.0
32 H31575 15.2591 10.2791 28.3186 H 0.0 **** 0.053
33 O31551 -7.80324 21.1618 11.1828 O.2 0.0 **** -0.419
34 C31472 3.75334 18.0911 19.7081 C.2 0.0 **** 0.0
35 H31563 20.0441 14.4829 32.0363 H 0.0 **** 0.053
36 C31531 -5.77456 14.5719 14.6993 C.2 0.0 **** 0.0
37 C31495 7.75038 9.58827 21.3088 C.3 0.0 **** -0.106
38 C31543 -2.74782 20.3033 14.4048 C.2 0.0 **** -0.1268
39 C31537 -5.76647 18.2114 13.659 C.2 0.0 **** 0.0
40 H31600 6.57403 23.7404 17.8272 H 0.0 **** 0.053
41 H31574 12.5755 11.0162 29.6099 H 0.0 **** 0.053
42 C31445 17.1818 18.8691 26.742 C.3 0.0 **** -0.106
43 H31583 15.4169 21.5045 29.7481 H 0.0 **** 0.053
44 C31417 16.1325 12.4069 30.3583 C.3 0.0 **** -0.053
45 C31413 19.9814 13.7045 31.2625 C.3 0.0 **** -0.106
46 H31622 2.23636 12.9513 19.7416 H 0.0 **** 0.1268
47 H31566 15.6116 14.1556 31.518 H 0.0 **** 0.053
48 C31459 6.79364 17.9586 21.9681 C.2 0.0 **** 0.0
49 C31504 1.94493 18.5343 18.1065 C.2 0.0 **** 0.0
50 C31451 10.7592 16.8583 24.7147 C.2 0.0 **** 0.0
51 H31628 -0.302658 21.5488 14.2674 H 0.0 **** 0.053
52 C31437 16.3714 18.6557 29.1724 C.2 0.0 **** 0.0
53 C31418 17.5026 11.7413 30.0351 C.3 0.0 **** -0.106
54 O31506 0.725626 14.4982 18.32 O.3 0.0 **** -0.0685
55 H31580 16.8612 20.847 31.654 H 0.0 **** 0.053
56 C31481 4.56758 24.2514 18.45 C.3 0.0 **** 0.134
57 C31414 21.2207 13.7407 30.3498 C.3 0.0 **** -0.106
58 H31565 21.494 14.7885 30.1428 H 0.0 **** 0.053
59 C31419 15.0877 12.178 29.3169 C.2 0.0 **** 0.0
60 H31636 15.9258 18.5517 24.1958 H 0.0 **** 0.053
61 H31605 2.18153 21.8309 19.2004 H 0.0 **** 0.053
62 C31454 10.3682 19.1472 23.9391 C.2 0.0 **** -0.1268
63 H31592 10.661 20.1984 23.887 H 0.0 **** 0.1268
64 H31621 4.16405 12.4191 21.1986 H 0.0 **** 0.1268
65 C31405 20.1437 13.2093 26.6204 C.3 0.0 **** 0.054
66 C31523 19.0539 19.9572 23.5324 C.3 0.0 **** -0.159
67 H31576 14.8861 10.1744 30.0392 H 0.0 **** 0.053
68 H31620 5.10184 9.35131 22.7265 H 0.0 **** 0.053
69 C31457 9.57116 16.4313 24.0222 C.2 0.0 **** 0.0
70 C31471 6.0383 15.2203 21.9134 C.2 0.0 **** 0.0
71 H31571 11.8158 11.5092 27.2933 H 0.0 **** 0.053
72 C31474 4.11679 15.7683 20.4817 C.2 0.0 **** 0.0
73 C31484 1.89993 23.5975 17.946 C.3 0.0 **** -0.106
74 H31589 16.3827 22.6691 27.1385 H 0.0 **** 0.053
75 C31427 12.8899 11.5031 27.5282 C.3 0.0 **** -0.106
76 C31510 -0.140131 19.106 16.7318 C.3 0.0 **** -0.053
77 H31581 18.2274 20.5471 30.5651 H 0.0 **** 0.053
78 H31555 20.0262 14.7569 28.1474 H 0.0 **** 0.053
79 C31409 19.7326 11.1984 27.7853 C.3 0.0 **** 0.054
80 H31646 -8.49817 19.3751 11.9626 H 0.0 **** 0.1268
81 C31526 -2.85099 13.1492 16.6069 C.2 0.0 **** -0.1268
82 C31529 -4.09718 16.3407 15.0434 C.2 0.0 **** 0.0
83 C31509 1.27653 19.5238 17.1893 C.3 0.0 **** -0.053
84 C31423 14.3599 15.5858 27.9844 C.2 0.0 **** 0.0
85 H31639 19.228 19.4601 22.5661 H 0.0 **** 0.053
86 H31654 -7.35943 23.5465 11.8243 H 0.0 **** 0.053
87 C31511 -0.438739 17.6303 16.7504 C.2 0.0 **** 0.0
88 C31431 11.1071 14.5999 25.4638 C.2 0.0 **** 0.232
89 H31567 15.7704 11.8952 31.2705 H 0.0 **** 0.053
90 H31607 0.97916 23.1947 17.4946 H 0.0 **** 0.053
91 H31559 20.1853 10.2025 27.8916 H 0.0 **** 0.053
92 H31590 18.0911 22.2684 27.2579 H 0.0 **** 0.053
93 C31455 9.17073 18.7488 23.2886 C.2 0.0 **** 0.0
94 H31626 0.0844867 19.0234 14.6051 H 0.0 **** 0.053
95 C31478 6.38846 21.839 21.5071 C.3 0.0 **** 0.107
96 C31489 5.61346 13.8572 21.8927 C.2 0.0 **** 0.0
97 H31599 7.56918 24.1824 20.1954 H 0.0 **** 0.053
98 H31624 1.17274 20.4685 17.7446 H 0.0 **** 0.053
99 H31645 -8.8197 14.7661 13.1331 H 0.0 **** 0.1268
100 C31470 5.26533 16.1793 21.2082 C.2 0.0 **** 0.0
101 C31443 16.7755 20.865 28.2033 C.2 0.0 **** 0.0
102 H31637 20.0182 20.0371 24.0587 H 0.0 **** 0.053
103 C31530 -5.35035 15.9296 14.5314 C.2 0.0 **** 0.0
104 C31422 16.1361 14.8795 29.5807 C.3 0.0 **** -0.053
105 C31546 -4.92612 20.9116 13.3649 C.2 0.0 **** 0.0
106 C31462 6.31233 20.3176 21.4254 C.2 0.0 **** 0.0
107 C31466 9.18073 15.0497 24.0423 C.2 0.0 **** 0.0
108 C31456 8.77336 17.3768 23.3208 C.2 0.0 **** 0.0
109 C31450 14.2339 17.9298 27.2139 C.2 0.0 **** -0.1268
110 C31518 -1.21836 14.9091 17.0116 C.2 0.0 **** 0.0
111 C31502 2.55002 13.9957 19.7352 C.2 0.0 **** -0.1268
112 H31615 8.38902 9.06822 20.5798 H 0.0 **** 0.053
113 H31606 1.58774 24.2622 18.7674 H 0.0 **** 0.053
114 H31634 16.8609 18.4562 22.6843 H 0.0 **** 0.053
115 C31516 -1.60082 17.1829 16.1039 C.2 0.0 **** 0.0
116 H31584 17.8917 18.0627 26.9991 H 0.0 **** 0.053
117 C31467 9.98886 14.1653 24.7864 C.2 0.0 **** -0.1268
118 C31538 -4.50001 18.6192 14.1657 C.2 0.0 **** 0.0
119 C31533 -7.04397 14.1753 14.1757 C.2 0.0 **** -0.1268
120 H31554 21.6717 14.471 27.5617 H 0.0 **** 0.053
121 H31588 17.4251 21.8257 24.9434 H 0.0 **** 0.053
122 H31641 -1.03784 12.8524 17.7019 H 0.0 **** 0.1268
123 C31491 6.5055 10.7251 23.5495 C.3 0.0 **** 0.107
124 H31572 13.3916 11.0496 26.6524 H 0.0 **** 0.053
125 C31449 13.2114 17.6113 26.3542 C.2 0.0 **** -0.012
126 H31633 18.4306 18.174 24.5523 H 0.0 **** 0.053
127 H31613 8.63991 11.5687 21.5242 H 0.0 **** 0.053
128 H31578 17.4071 18.396 32.2998 H 0.0 **** 0.053
129 H31579 16.7507 16.0198 32.0442 H 0.0 **** 0.1268
130 H31577 15.665 18.4614 32.2226 H 0.0 **** 0.053
131 C31473 3.37352 16.716 19.734 C.2 0.0 **** 0.0
132 C31513 0.0553158 21.0774 15.1937 C.3 0.0 **** -0.106
133 H31598 5.90908 24.3994 20.7553 H 0.0 **** 0.053
134 C31519 -1.92258 19.3986 15.0343 C.2 0.0 **** 0.0
135 H31602 4.11405 25.1467 18.9087 H 0.0 **** 0.053
136 C31465 5.63342 17.5655 21.2368 C.2 0.0 **** 0.0
137 C31548 -5.66634 23.3143 13.2133 C.3 0.0 **** -0.106
138 C31469 7.99452 14.6294 23.3261 C.2 0.0 **** 0.0
139 C31440 16.5068 16.7383 31.2634 C.2 0.0 **** -0.1268
140 H31652 -6.30545 23.2197 14.1064 H 0.0 **** 0.053
141 H31623 3.33434 19.9805 18.7785 H 0.0 **** 0.1268
142 H31617 7.88998 8.10586 22.8727 H 0.0 **** 0.053
143 C31447 17.0405 21.1476 25.7206 C.3 0.0 **** -0.106
144 C31436 14.8647 16.9601 28.0504 C.2 0.0 **** 0.0
145 C31507 -0.0339434 15.3916 17.5999 C.2 0.0 **** 0.0265
146 H31569 17.9323 11.3385 30.9659 H 0.0 **** 0.053
147 C31545 -6.14039 20.5038 12.7963 C.2 0.0 **** 0.052
148 C31426 13.3854 12.9163 27.7023 C.2 0.0 **** 0.0
149 C31525 -1.6626 13.5534 17.1487 C.2 0.0 **** -0.1268
150 H31649 -3.92753 22.58 14.2617 H 0.0 **** 0.053
151 C31407 20.9966 13.0031 29.005 C.3 0.0 **** -0.053
152 C31517 -2.01883 15.8318 16.2674 C.2 0.0 **** 0.0
153 C31528 -3.26549 15.4129 15.7248 C.2 0.0 **** 0.0
154 C31420 14.4771 13.2034 28.6125 C.2 0.0 **** 0.0
155 C31432 11.5358 15.9397 25.466 C.2 0.0 **** 0.0
156 H31597 5.45128 22.1805 21.9934 H 0.0 **** 0.053
157 H31618 6.59243 7.78253 21.7192 H 0.0 **** 0.053
158 C31412 18.7144 13.8989 30.447 C.3 0.0 **** 0.107
159 C31439 16.5588 18.1922 31.6175 C.3 0.0 **** -0.106
160 H31603 3.71707 23.3499 20.2416 H 0.0 **** 0.053
161 H31587 15.9919 20.9199 25.4684 H 0.0 **** 0.053
162 C31477 6.36915 22.388 20.0733 C.3 0.0 **** -0.053
163 C31460 7.17908 19.3473 22.0102 C.2 0.0 **** 0.0
164 C31550 -6.89075 21.4788 11.9474 C.2 0.0 **** 0.347
165 C31482 4.00499 23.0161 19.2302 C.3 0.0 **** -0.053
166 H31631 3.19364 20.0417 16.3137 H 0.0 **** 0.053
167 H31604 3.0838 21.8199 17.6859 H 0.0 **** 0.053
168 H31562 19.913 12.736 31.7837 H 0.0 **** 0.053
169 C31444 16.7271 19.5232 28.0263 C.2 0.0 **** 0.0
170 H31612 8.49029 10.3155 24.2553 H 0.0 **** 0.053
171 H31573 12.8917 9.60197 28.5799 H 0.0 **** 0.053
172 O31415 17.6199 14.0104 31.37 O.3 0.0 **** -0.32
173 H31610 4.50375 23.4347 16.5807 H 0.0 **** 0.353
174 H31629 1.9698 21.9852 15.6822 H 0.0 **** 0.053
175 H31582 16.9157 22.4501 29.653 H 0.0 **** 0.053
176 C31429 14.6616 10.7497 29.1251 C.3 0.0 **** -0.106
177 H31553 19.0461 13.3531 26.564 H 0.0 **** 0.053
178 H31643 -5.27006 12.6351 15.505 H 0.0 **** 0.1268
179 C31458 7.59112 16.9826 22.6409 C.2 0.0 **** 0.0
180 C31452 11.1382 18.2458 24.6287 C.2 0.0 **** -0.012
181 H31627 -0.337554 21.6775 16.032 H 0.0 **** 0.053
182 H31638 18.6979 20.9781 23.321 H 0.0 **** 0.053
183 H31625 -0.865866 19.5719 17.4279 H 0.0 **** 0.053
184 C31446 17.8413 19.8412 25.7571 C.3 0.0 **** -0.053
185 C31441 17.1213 20.5111 30.6375 C.3 0.0 **** -0.106
186 H31586 18.8475 20.0867 26.1452 H 0.0 **** 0.053
187 C31463 5.21615 19.8959 20.697 C.2 0.0 **** 0.042
188 H31616 6.96066 10.1046 20.7433 H 0.0 **** 0.053
189 H31561 18.7987 14.853 29.8916 H 0.0 **** 0.053
190 C31515 2.16509 19.8468 15.9744 C.3 0.0 **** -0.106
191 H31640 7.4104 22.1992 23.1294 H 0.0 **** 0.41
192 C31499 4.4653 13.4655 21.1887 C.2 0.0 **** -0.1268
193 C31539 -3.66891 17.6929 14.8582 C.2 0.0 **** 0.0
194 C31508 0.344064 16.7408 17.4913 C.2 0.0 **** 0.0
195 H31585 16.3427 18.3584 26.2456 H 0.0 **** 0.053
196 H31570 16.9804 14.7615 28.8717 H 0.0 **** 0.053
197 H31644 -7.35902 13.1389 14.3095 H 0.0 **** 0.1268
198 H31608 2.44134 25.4644 16.9421 H 0.0 **** 0.053
199 H31552 20.5793 13.5578 25.674 H 0.0 **** 0.053
200 C31497 6.09315 9.29318 23.2017 C.3 0.0 **** -0.106
201 O31524 7.49754 22.4253 22.1906 O.3 0.0 **** -0.57
202 C31541 -7.85615 18.6773 12.4894 C.2 0.0 **** -0.1268
203 C31547 -4.48645 22.3586 13.3416 C.3 0.0 **** -0.106
204 C31483 2.7575 22.4691 18.5166 C.3 0.0 **** -0.106
205 C31503 1.51681 17.2031 18.1935 C.2 0.0 **** 0.0
206 C31534 -7.84788 15.0731 13.5246 C.2 0.0 **** -0.1268
207 H31642 -3.18357 12.1159 16.7202 H 0.0 **** 0.1268
208 C31438 16.6574 19.096 30.4324 C.2 0.0 **** 0.0
209 H31564 22.0723 13.2961 30.8863 H 0.0 **** 0.053
210 O31475 4.39496 20.8826 20.1954 O.3 0.0 **** -0.202
211 C31522 16.7097 19.0451 23.6014 C.3 0.0 **** -0.159
212 H31650 -3.7844 22.5232 12.5024 H 0.0 **** 0.053
213 O31490 5.90512 11.6145 22.583 O.3 0.0 **** -0.202
214 C31479 6.52747 23.9106 19.983 C.3 0.0 **** -0.106
215 H31619 5.9685 8.72249 24.134 H 0.0 **** 0.053
216 C31421 14.917 14.5699 28.7413 C.2 0.0 **** 0.0
217 C31505 3.0346 18.9469 18.8512 C.2 0.0 **** -0.1268
218 H31595 5.27405 21.475 18.4201 H 0.0 **** 0.053
219 C31425 12.8234 13.9452 26.9986 C.2 0.0 **** 0.232
220 C31487 7.54903 13.2615 23.2686 C.2 0.0 **** 0.042
221 C31435 15.8237 17.3112 29.0026 C.2 0.0 **** 0.0
222 O31430 11.788 13.6193 26.1436 O.3 0.0 **** -0.464
223 H31601 6.39076 25.4089 18.3773 H 0.0 **** 0.053
224 H31557 20.0455 11.2984 29.9247 H 0.0 **** 0.053
225 C31480 6.08781 24.3747 18.5905 C.3 0.0 **** -0.106
226 C31544 -4.06246 19.9611 13.9926 C.2 0.0 **** 0.0
227 C31549 -6.45517 22.9386 11.97 C.3 0.0 **** -0.086
228 H31596 7.21455 21.9238 19.5408 H 0.0 **** 0.053
229 C31461 8.38782 19.6942 22.6335 C.2 0.0 **** -0.1268
230 C31408 19.8312 12.0054 29.1059 C.3 0.0 **** -0.053
231 H31560 18.0937 13.124 28.507 H 0.0 **** 0.053
232 H31614 9.62069 10.2698 22.2171 H 0.0 **** 0.053
233 C31514 1.60429 21.0618 15.2113 C.3 0.0 **** -0.106
234 C31485 2.71168 24.3962 16.8878 C.3 0.0 **** 0.081
235 H31594 9.74789 13.1147 24.8542 H 0.0 **** 0.1268
236 H31609 2.45927 24.0552 15.8727 H 0.0 **** 0.053
237 H31593 8.74808 20.717 22.5836 H 0.0 **** 0.1268
238 C31433 12.6806 16.2811 26.2764 C.2 0.0 **** 0.0
239 N31486 4.16994 24.282 17.0418 N.3 0.0 **** -0.727
240 H31591 14.5545 18.9684 27.2916 H 0.0 **** 0.1268
241 C31434 16.1731 16.3239 30.0207 C.2 0.0 **** 0.0
242 C31468 7.21009 15.6002 22.6342 C.2 0.0 **** 0.0
243 H31648 -2.36002 21.2935 14.1811 H 0.0 **** 0.1268
244 C31428 13.1779 10.6489 28.7633 C.3 0.0 **** -0.106
245 H31611 6.14339 11.018 24.5491 H 0.0 **** 0.053
246 C31424 13.2732 15.2981 27.0783 C.2 0.0 **** 0.0
247 C31540 -6.59471 19.138 12.9587 C.2 0.0 **** 0.0
248 C31488 6.38259 12.9045 22.6098 C.2 0.0 **** 0.042
249 C31527 -3.70014 14.0585 15.8931 C.2 0.0 **** 0.0
250 H31630 1.98853 21.0556 14.1797 H 0.0 **** 0.053
@<TRIPOS>BOND
1 62 63 1
2 16 126 1
3 81 207 1
4 83 98 1
5 151 1 1
6 230 151 1
7 79 230 1
8 26 79 1
9 65 1 1
10 65 26 1
11 158 27 1
12 45 158 1
13 57 45 1
14 230 27 1
15 151 57 1
16 4 172 1
17 44 4 1
18 53 44 1
19 158 172 1
20 27 53 1
21 154 59 un
22 216 154 un
23 104 216 un
24 44 59 1
25 4 104 1
26 246 84 1
27 219 246 un
28 148 219 un
29 216 84 un
30 154 148 un
31 244 75 1
32 176 244 1
33 59 176 1
34 148 75 1
35 88 222 1
36 155 88 un
37 238 155 un
38 219 222 1
39 246 238 un
40 221 241 un
41 144 221 2
42 104 241 1
43 84 144 un
44 208 52 2
45 159 208 1
46 139 159 1
47 221 52 1
48 241 139 2
49 19 185 1
50 101 19 1
51 169 101 2
52 208 185 1
53 52 169 1
54 184 42 1
55 143 184 1
56 30 143 1
57 169 42 1
58 101 30 1
59 109 125 un
60 144 109 un
61 238 125 un
62 180 50 un
63 10 180 1
64 125 10 un
65 155 50 un
66 93 62 un
67 108 93 un
68 69 108 un
69 180 62 un
70 50 69 un
71 48 179 un
72 163 48 un
73 229 163 un
74 108 179 un
75 93 229 un
76 187 106 un
77 14 187 un
78 136 14 un
79 163 106 un
80 48 136 un
81 117 107 un
82 88 117 un
83 69 107 un
84 138 242 un
85 107 138 un
86 179 242 un
87 70 100 un
88 242 70 un
89 136 100 un
90 131 34 un
91 72 131 un
92 100 72 un
93 14 34 un
94 25 210 1
95 162 25 1
96 95 162 1
97 187 210 1
98 106 95 1
99 225 214 1
100 56 225 1
101 165 56 1
102 162 214 1
103 25 165 1
104 73 204 1
105 234 73 1
106 239 234 1
107 165 204 1
108 56 239 1
109 248 220 un
110 96 248 un
111 70 96 un
112 138 220 un
113 123 213 1
114 29 123 1
115 28 29 1
116 248 213 1
117 220 28 1
118 37 6 1
119 22 37 1
120 200 22 1
121 29 6 1
122 123 200 1
123 192 2 un
124 96 192 un
125 72 2 un
126 17 31 un
127 111 17 un
128 2 111 un
129 131 31 un
130 49 205 un
131 217 49 un
132 34 217 un
133 31 205 un
134 145 54 1
135 194 145 un
136 17 54 1
137 205 194 1
138 76 83 1
139 87 76 1
140 49 83 1
141 194 87 un
142 132 23 1
143 233 132 1
144 190 233 1
145 76 23 1
146 83 190 1
147 152 115 1
148 110 152 1
149 145 110 un
150 87 115 un
151 23 134 1
152 115 24 un
153 134 24 un
154 184 16 1
155 16 211 1
156 16 66 1
157 95 201 1
158 81 149 1
159 249 81 un
160 153 249 1
161 110 149 un
162 152 153 un
163 103 82 un
164 36 103 1
165 13 36 un
166 153 82 un
167 249 13 un
168 206 119 un
169 5 206 1
170 15 5 1
171 36 119 un
172 103 15 un
173 118 39 un
174 193 118 un
175 82 193 un
176 15 39 un
177 202 247 un
178 18 202 un
179 5 18 un
180 39 247 un
181 226 38 un
182 118 226 un
183 24 193 un
184 134 38 un
185 105 147 un
186 226 105 un
187 247 147 un
188 137 203 1
189 227 137 1
190 164 227 1
191 105 203 1
192 147 164 1
193 164 33 2
194 65 199 1
195 65 177 1
196 1 120 1
197 1 78 1
198 151 3 1
199 230 224 1
200 79 20 1
201 79 91 1
202 27 231 1
203 158 189 1
204 45 168 1
205 45 35 1
206 57 209 1
207 57 58 1
208 4 47 1
209 44 89 1
210 53 11 1
211 53 146 1
212 104 196 1
213 75 71 1
214 75 124 1
215 244 171 1
216 244 41 1
217 176 32 1
218 176 67 1
219 159 130 1
220 159 128 1
221 139 129 1
222 185 55 1
223 185 77 1
224 19 175 1
225 19 43 1
226 42 116 1
227 42 195 1
228 184 186 1
229 143 161 1
230 143 121 1
231 30 74 1
232 30 92 1
233 109 240 1
234 229 237 1
235 117 235 1
236 25 218 1
237 162 228 1
238 95 156 1
239 214 133 1
240 214 97 1
241 225 40 1
242 225 223 1
243 56 135 1
244 165 160 1
245 204 167 1
246 204 61 1
247 73 113 1
248 73 90 1
249 234 198 1
250 234 236 1
251 239 173 1
252 123 245 1
253 29 170 1
254 6 127 1
255 6 232 1
256 37 112 1
257 37 188 1
258 22 142 1
259 22 157 1
260 200 215 1
261 200 68 1
262 192 64 1
263 111 46 1
264 217 141 1
265 76 183 1
266 23 94 1
267 132 181 1
268 132 51 1
269 233 174 1
270 233 250 1
271 190 166 1
272 190 12 1
273 211 114 1
274 211 21 1
275 211 60 1
276 66 102 1
277 66 182 1
278 66 85 1
279 201 191 1
280 149 122 1
281 13 178 1
282 119 197 1
283 206 99 1
284 202 80 1
285 18 7 1
286 38 243 1
287 203 150 1
288 203 212 1
289 137 8 1
290 137 140 1
291 227 9 1
292 227 86 1
@<TRIPOS>MOLECULE
Sketch 4
130 142
SMALL
USER_CHARGES


@<TRIPOS>ATOM
1 H1037 69.5608 44.2199 65.1319 H 0.0 **** 0.053
2 C970 73.7968 24.9593 62.9129 C.3 0.0 **** -0.159
3 H991 69.4697 35.6126 58.0454 H 0.0 **** 0.053
4 H1016 71.2162 29.7106 54.8089 H 0.0 **** 0.053
5 H1014 72.3467 29.6897 56.1709 H 0.0 **** 0.053
6 H982 71.2171 24.2449 58.3695 H 0.0 **** 0.053
7 H1022 72.143 23.067 59.8739 H 0.0 **** 0.053
8 H1017 71.5988 22.9891 56.6346 H 0.0 **** 0.053
9 H1028 77.1217 28.9993 66.2381 H 0.0 **** 0.053
10 C944 70.5403 34.1355 59.88 C.2 0.0 **** 0.367
11 C956 69.1991 41.8057 61.6792 C.3 0.0 **** -0.053
12 H1019 71.2375 22.9861 54.9022 H 0.0 **** 0.053
13 H998 68.2991 42.4797 58.3947 H 0.0 **** 0.053
14 H1018 72.917 23.0873 55.4562 H 0.0 **** 0.053
15 C961 70.3622 40.0131 66.2769 C.ar 0.0 **** -0.1268
16 C927 73.2985 29.3599 62.8308 C.ar 0.0 **** 0.0
17 C952 69.4721 39.7398 60.1917 C.ar 0.0 **** 0.0
18 H990 75.1654 28.5637 64.6488 H 0.0 **** 0.053
19 H1030 77.1612 33.7796 64.5805 H 0.0 **** 0.053
20 C967 71.4168 29.2452 55.7793 C.3 0.0 **** -0.159
21 H1038 71.6135 42.5555 67.8448 H 0.0 **** 0.053
22 H1027 78.151 30.4302 65.9861 H 0.0 **** 0.053
23 H1032 77.1853 32.7765 66.0487 H 0.0 **** 0.053
24 C965 72.4387 28.3451 52.5704 C.3 0.0 **** -0.159
25 H1023 74.6198 25.5445 63.3399 H 0.0 **** 0.053
26 C946 69.8293 37.6449 58.7719 C.3 0.0 **** -0.106
27 H1025 73.0866 24.7724 63.7336 H 0.0 **** 0.053
28 C923 73.0073 27.128 61.7798 C.ar 0.0 **** 0.0
29 H1007 70.6615 27.1095 52.4768 H 0.0 **** 0.053
30 H995 69.9296 40.6975 58.3358 H 0.0 **** 0.053
31 C914 71.7776 27.0349 56.899 C.ar 0.0 **** 0.0
32 H983 72.9255 24.1582 58.0354 H 0.0 **** 0.053
33 C922 73.1575 25.6982 61.7582 C.ar 0.0 **** 0.0
34 H1013 70.5796 24.576 52.8709 H 0.0 **** 0.053
35 H1001 68.1705 41.8203 62.0929 H 0.0 **** 0.053
36 H1031 78.3025 32.4185 64.7116 H 0.0 **** 0.053
37 H1029 76.5994 30.5873 66.8444 H 0.0 **** 0.053
38 C957 70.116 42.4273 62.7341 C.3 0.0 **** -0.106
39 C933 74.8047 32.3231 64.6443 C.3 0.0 **** -0.106
40 H981 70.9565 28.3603 58.3622 H 0.0 **** 0.053
41 C966 71.5991 24.8832 53.1631 C.3 0.0 **** -0.159
42 O975 71.1973 31.4829 59.6659 O.3 0.0 **** -0.452
43 C935 76.3821 30.3353 64.6901 C.ar 0.0 **** -0.053
44 C911 71.6033 25.6374 54.476 C.ar 0.0 **** 0.0
45 H997 67.37 41.7025 59.6873 H 0.0 **** 0.053
46 C950 69.9605 39.5804 62.5564 C.ar 0.0 **** 0.2405
47 C938 71.3248 33.483 60.8916 C.ar 0.0 **** 0.052
48 C945 69.3942 36.1959 58.9718 C.3 0.0 **** -0.106
49 C958 70.1768 41.6081 63.9994 C.ar 0.0 **** 0.0
50 H985 74.7396 33.3987 64.4789 H 0.0 **** 0.053
51 C930 73.8306 31.5583 63.7785 C.2 0.0 **** 0.0
52 C969 72.8656 23.4892 60.583 C.3 0.0 **** -0.159
53 C955 69.1957 42.6108 60.3802 C.3 0.0 **** -0.106
54 C913 71.8859 25.6424 56.8953 C.ar 0.0 **** 0.0
55 H987 76.3365 31.9142 63.2281 H 0.0 **** 0.053
56 C919 72.39 25.6894 59.4179 C.ar 0.0 **** 0.0
57 C931 72.9289 32.181 62.8506 C.ar 0.0 **** 0.0
58 H1004 70.1483 38.3271 64.9295 H 0.0 **** 0.1268
59 C947 69.8203 38.3833 60.0838 C.ar 0.0 **** 0.0
60 C918 72.2976 27.0631 59.4034 C.ar 0.0 **** 0.0
61 C964 71.1551 27.7771 53.1963 C.3 0.0 **** -0.106
62 H1015 70.6182 29.5497 56.4756 H 0.0 **** 0.053
63 H1012 72.0015 25.4942 52.3447 H 0.0 **** 0.053
64 H1008 73.163 27.5386 52.3792 H 0.0 **** 0.053
65 H1011 72.2094 23.973 53.221 H 0.0 **** 0.053
66 C924 72.5767 27.8113 60.5884 C.ar 0.0 **** 0.0
67 C920 72.1042 24.8806 58.1794 C.3 0.0 **** -0.106
68 H1020 72.6495 23.0567 61.5681 H 0.0 **** 0.053
69 H1006 70.4405 28.5942 53.3746 H 0.0 **** 0.053
70 C978 70.5191 43.7153 65.343 C.3 0.0 **** -0.159
71 H1002 71.1339 42.5208 62.3079 H 0.0 **** 0.053
72 C979 70.6601 42.0059 67.7791 C.3 0.0 **** -0.159
73 C963 70.3789 42.2133 65.2537 C.ar 0.0 **** 0.0
74 H993 69.1801 38.1303 58.0327 H 0.0 **** 0.053
75 C962 70.4598 41.4073 66.409 C.ar 0.0 **** 0.0
76 C960 70.1899 39.4109 65.0368 C.ar 0.0 **** -0.1268
77 H1036 70.8508 44.0386 66.3363 H 0.0 **** 0.053
78 C928 73.2386 27.9463 62.913 C.ar 0.0 **** 0.042
79 C948 70.2067 37.6894 61.257 C.ar 0.0 **** 0.2405
80 H992 68.3319 36.1679 59.2792 H 0.0 **** 0.053
81 C916 71.4266 27.0385 54.49 C.ar 0.0 **** 0.0
82 H989 74.6164 29.7978 65.7973 H 0.0 **** 0.053
83 C972 77.111 30.0769 66.0127 C.3 0.0 **** -0.159
84 H984 71.9359 29.6671 59.7261 H 0.0 **** 0.1268
85 O976 70.1155 33.5014 58.8481 O.2 0.0 **** -0.419
86 C942 70.6045 36.2686 61.1556 C.ar 0.0 **** 0.0
87 H986 74.5949 32.1549 65.717 H 0.0 **** 0.053
88 H1021 73.8645 23.1315 60.2765 H 0.0 **** 0.053
89 H1034 70.6546 32.2238 59.1294 H 0.0 **** 0.41
90 C929 73.9759 30.1775 63.7942 C.2 0.0 **** 0.0
91 H1003 69.7724 43.4504 62.9409 H 0.0 **** 0.053
92 C912 71.7899 24.9347 55.6807 C.ar 0.0 **** 0.0
93 C932 72.4348 31.4277 61.7455 C.ar 0.0 **** 0.0
94 C951 69.5581 40.3561 61.4483 C.ar 0.0 **** 0.0
95 C921 72.7972 24.9999 60.6102 C.ar 0.0 **** 0.0
96 C954 68.3917 41.8749 59.3094 C.3 0.0 **** -0.106
97 C968 71.8877 23.4257 55.6705 C.3 0.0 **** -0.159
98 C915 71.5352 27.7411 55.7036 C.ar 0.0 **** 0.0
99 H1010 72.2307 28.8586 51.6188 H 0.0 **** 0.053
100 O971 73.355 27.3268 64.1372 O.3 0.0 **** -0.452
101 C941 71.4089 35.6083 62.2051 C.2 0.0 **** 0.367
102 O977 71.8214 36.2295 63.2349 O.2 0.0 **** -0.419
103 H1005 70.4367 39.3941 67.1737 H 0.0 **** 0.1268
104 C943 70.2159 35.5446 60.0458 C.ar 0.0 **** 0.0
105 H1040 69.8609 42.7218 68.0299 H 0.0 **** 0.053
106 C926 72.7037 30.0035 61.6829 C.ar 0.0 **** 0.0
107 C934 76.2312 31.8341 64.3226 C.ar 0.0 **** -0.053
108 H1024 74.205 23.9963 62.5861 H 0.0 **** 0.053
109 H1033 72.4571 35.2023 63.9421 H 0.0 **** 0.41
110 H980 72.6377 28.6337 58.0147 H 0.0 **** 0.053
111 H1035 71.2444 44.0917 64.6055 H 0.0 **** 0.053
112 H1026 73.2491 28.0007 64.8274 H 0.0 **** 0.41
113 H999 68.7842 43.6154 60.5671 H 0.0 **** 0.053
114 C917 71.9053 27.8223 58.17 C.3 0.0 **** -0.106
115 C940 72.5184 33.5593 63.0159 C.ar 0.0 **** 0.042
116 C959 70.0904 40.2047 63.8861 C.ar 0.0 **** 0.0
117 H996 68.3502 39.9272 58.365 H 0.0 **** 0.053
118 H994 70.8526 37.6633 58.351 H 0.0 **** 0.053
119 C925 72.3742 29.1998 60.5927 C.ar 0.0 **** -0.1268
120 C936 74.9964 29.638 64.7695 C.3 0.0 **** -0.106
121 H1039 70.67 41.2209 68.5473 H 0.0 **** 0.053
122 O974 72.836 34.2189 64.123 O.3 0.0 **** -0.452
123 H1000 70.2371 42.7429 60.0373 H 0.0 **** 0.053
124 H988 76.9519 29.8434 63.8861 H 0.0 **** 0.053
125 C953 69.043 40.529 58.9734 C.3 0.0 **** -0.106
126 N949 70.2473 38.2777 62.4609 N.ar 0.0 **** -0.481
127 C939 71.7481 34.2094 62.0289 C.ar 0.0 **** 0.052
128 C937 71.6476 32.1124 60.7481 C.ar 0.0 **** 0.042
129 H1009 72.9177 29.0613 53.2546 H 0.0 **** 0.053
130 C973 77.2817 32.7515 64.9529 C.3 0.0 **** -0.159
@<TRIPOS>BOND
1 101 102 2
2 28 33 am
3 54 92 am
4 31 54 am
5 98 31 am
6 81 98 am
7 44 92 am
8 44 81 am
9 60 114 1
10 56 60 am
11 67 56 1
12 31 114 1
13 54 67 1
14 33 95 am
15 66 28 am
16 56 95 am
17 60 66 am
18 106 119 am
19 16 106 am
20 78 16 am
21 66 119 am
22 28 78 am
23 51 90 1
24 57 51 1
25 93 57 am
26 16 90 1
27 106 93 am
28 107 39 1
29 43 107 am
30 120 43 1
31 51 39 1
32 90 120 1
33 47 128 am
34 127 47 am
35 115 127 am
36 93 128 am
37 57 115 am
38 86 101 1
39 104 86 am
40 10 104 1
41 127 101 1
42 47 10 1
43 26 48 1
44 59 26 1
45 79 59 am
46 104 48 1
47 86 79 am
48 46 126 am
49 94 46 am
50 17 94 am
51 79 126 am
52 59 17 am
53 96 125 1
54 53 96 1
55 11 53 1
56 17 125 1
57 94 11 1
58 49 38 1
59 116 49 am
60 46 116 am
61 11 38 1
62 15 76 am
63 75 15 am
64 73 75 am
65 116 76 am
66 49 73 am
67 81 61 1
68 61 24 1
69 44 41 1
70 98 20 1
71 92 97 1
72 95 52 1
73 33 2 1
74 78 100 1
75 43 83 1
76 107 130 1
77 115 122 1
78 128 42 1
79 10 85 2
80 73 70 1
81 75 72 1
82 114 110 1
83 114 40 1
84 67 6 1
85 67 32 1
86 119 84 1
87 39 50 1
88 39 87 1
89 107 55 1
90 43 124 1
91 120 82 1
92 120 18 1
93 48 3 1
94 48 80 1
95 26 74 1
96 26 118 1
97 125 30 1
98 125 117 1
99 96 45 1
100 96 13 1
101 53 113 1
102 53 123 1
103 11 35 1
104 38 71 1
105 38 91 1
106 76 58 1
107 15 103 1
108 61 69 1
109 61 29 1
110 24 64 1
111 24 129 1
112 24 99 1
113 41 65 1
114 41 63 1
115 41 34 1
116 20 5 1
117 20 62 1
118 20 4 1
119 97 8 1
120 97 14 1
121 97 12 1
122 52 68 1
123 52 88 1
124 52 7 1
125 2 25 1
126 2 108 1
127 2 27 1
128 100 112 1
129 83 22 1
130 83 9 1
131 83 37 1
132 130 19 1
133 130 36 1
134 130 23 1
135 122 109 1
136 42 89 1
137 70 111 1
138 70 77 1
139 70 1 1
140 72 21 1
141 72 121 1
142 72 105 1
@<TRIPOS>MOLECULE
Sketch 4
250 292
SMALL
USER_CHARGES


@<TRIPOS>ATOM
1 H28639 27.1656 22.3631 44.427 H 0.0 **** 0.053
2 H28561 26.4132 30.9942 44.3236 H 0.0 **** 0.053
3 H28581 26.4345 28.4945 39.1319 H 0.0 **** 0.053
4 C28520 5.36679 16.1724 47.3677 C.2 0.0 **** 0.0
5 C28511 7.30629 17.6841 47.1956 C.2 0.0 **** 0.0
6 C28436 22.6781 28.163 43.1664 C.2 0.0 **** 0.0
7 C28497 13.0835 27.8382 51.3561 C.3 0.0 **** -0.106
8 C28481 12.9891 15.767 41.2105 C.3 0.0 **** 0.134
9 C28535 0.151278 15.183 49.3569 C.2 0.0 **** 0.0
10 H28598 14.3828 17.6847 39.9791 H 0.0 **** 0.053
11 C28477 14.6237 18.2027 42.0759 C.3 0.0 **** -0.053
12 C28451 18.5198 25.2457 44.6466 C.2 0.0 **** 0.0
13 H28618 13.3986 27.4142 53.4656 H 0.0 **** 0.053
14 H28628 7.79056 13.4973 45.2529 H 0.0 **** 0.053
15 C28527 3.68407 18.7471 50.3387 C.2 0.0 **** 0.0
16 H28642 4.01714 20.5041 51.5742 H 0.0 **** 0.1268
17 C28529 3.50386 16.7939 48.8419 C.2 0.0 **** 0.0
18 H28574 19.8292 32.572 47.0968 H 0.0 **** 0.053
19 H28615 15.2939 25.8333 53.1699 H 0.0 **** 0.053
20 H28653 2.39054 9.7668 45.145 H 0.0 **** 0.053
21 H28625 7.09107 17.2009 45.163 H 0.0 **** 0.053
22 C28457 17.2816 24.8444 45.2622 C.2 0.0 **** 0.0
23 C28449 21.0668 26.3201 43.371 C.2 0.0 **** -0.012
24 O28524 15.7906 20.0127 41.0178 O.3 0.0 **** -0.57
25 C28517 5.5432 18.1784 48.8117 C.2 0.0 **** 0.0
26 H28586 26.9196 25.0342 41.9465 H 0.0 **** 0.053
27 H28596 15.4073 18.0338 42.8316 H 0.0 **** 0.053
28 C28541 -0.0477049 13.245 47.891 C.2 0.0 **** -0.1268
29 H28616 13.9812 25.3623 52.0763 H 0.0 **** 0.053
30 H28644 -0.0789401 17.7632 51.6085 H 0.0 **** 0.1268
31 C28536 1.45488 15.4261 48.8482 C.2 0.0 **** 0.0
32 H28608 10.9679 13.7644 40.7977 H 0.0 **** 0.053
33 C28419 22.44 31.7989 46.5199 C.2 0.0 **** 0.0
34 H28556 29.233 31.446 47.2618 H 0.0 **** 0.053
35 C28466 16.7537 25.5856 46.3728 C.2 0.0 **** 0.0
36 C28416 23.8817 32.1304 44.4471 C.3 0.0 **** 0.107
37 H28583 23.7202 27.1856 38.4976 H 0.0 **** 0.053
38 H28649 4.2893 12.8026 44.0439 H 0.0 **** 0.053
39 C28504 9.79492 18.4359 45.9388 C.2 0.0 **** 0.0
40 H28630 10.0179 13.7744 45.933 H 0.0 **** 0.053
41 C28532 2.40225 18.4714 50.8256 C.2 0.0 **** -0.1268
42 H28611 13.3341 28.0546 49.192 H 0.0 **** 0.053
43 C28471 13.6043 23.5778 47.0699 C.2 0.0 **** 0.0
44 C28420 21.923 30.6325 45.9789 C.2 0.0 **** 0.0
45 H28607 9.29438 15.3892 42.2653 H 0.0 **** 0.053
46 O28506 8.17755 20.7288 49.0929 O.3 0.0 **** -0.0685
47 C28440 24.3508 31.056 41.7874 C.2 0.0 **** -0.1268
48 H28654 0.926571 10.0976 44.211 H 0.0 **** 0.053
49 C28459 14.6339 22.1878 44.8161 C.2 0.0 **** 0.0
50 H28555 27.5908 29.6203 45.4566 H 0.0 **** 0.053
51 C28501 9.34553 21.1364 48.4664 C.2 0.0 **** 0.042
52 C28492 15.1609 27.2719 50.0122 C.3 0.0 **** 0.107
53 C28496 13.996 27.4684 52.5436 C.3 0.0 **** -0.106
54 H28604 11.2523 16.3665 43.5174 H 0.0 **** 0.053
55 C28452 19.0357 24.4452 43.5652 C.2 0.0 **** -0.012
56 C28412 26.2434 31.9702 44.8181 C.3 0.0 **** 0.107
57 O28410 27.6693 29.987 48.7467 O.3 0.0 **** -0.32
58 C28431 18.6517 27.0994 46.1727 C.2 0.0 **** 0.232
59 H28573 19.9808 32.4713 48.8654 H 0.0 **** 0.053
60 H28595 13.4101 17.2541 43.6229 H 0.0 **** 0.053
61 H28576 22.0506 33.4727 47.7941 H 0.0 **** 0.053
62 C28421 22.5014 30.0269 44.8059 C.2 0.0 **** 0.0
63 C28461 16.4082 21.8816 43.1563 C.2 0.0 **** -0.1268
64 C28464 12.7381 20.595 44.9279 C.2 0.0 **** 0.0
65 H28599 16.0013 17.3915 40.6202 H 0.0 **** 0.053
66 H28588 25.6576 23.0352 40.9959 H 0.0 **** 0.053
67 C28518 6.26031 19.3306 49.2634 C.2 0.0 **** 0.0
68 C28482 12.3195 17.065 41.7745 C.3 0.0 **** -0.053
69 H28563 27.6558 33.0498 43.6037 H 0.0 **** 0.053
70 C28476 13.2521 17.8438 42.7005 C.3 0.0 **** 0.107
71 C28429 21.8679 32.3849 47.78 C.3 0.0 **** -0.106
72 C28550 1.18577 11.3256 45.9242 C.2 0.0 **** 0.347
73 C28503 9.23596 19.2051 46.9677 C.2 0.0 **** 0.0
74 C28460 15.1587 21.4951 43.6657 C.2 0.0 **** 0.0
75 H28566 23.2038 32.6185 43.7316 H 0.0 **** 0.053
76 C28473 11.0631 20.8366 46.7284 C.2 0.0 **** 0.0
77 H28590 26.4095 24.7772 39.4477 H 0.0 **** 0.053
78 H28609 10.8225 13.6165 42.5546 H 0.0 **** 0.053
79 O28551 0.231317 10.815 46.5125 O.2 0.0 **** -0.419
80 C28513 8.11674 14.5449 45.186 C.3 0.0 **** -0.106
81 C28425 20.3221 28.8105 46.0635 C.2 0.0 **** 0.232
82 S28453 20.5944 24.7322 42.8076 S.2 0.0 **** 0.024
83 H28582 25.3049 26.6566 37.899 H 0.0 **** 0.053
84 H28570 24.5757 30.113 44.7729 H 0.0 **** 0.053
85 H28568 24.571 32.6046 47.7985 H 0.0 **** 0.053
86 C28432 19.2138 26.4009 45.0887 C.2 0.0 **** 0.0
87 C28426 20.7905 29.9763 46.6031 C.2 0.0 **** 0.0
88 H28619 12.9197 28.9257 51.3231 H 0.0 **** 0.053
89 H28587 24.1505 23.9083 41.337 H 0.0 **** 0.053
90 C28442 24.7947 27.1226 38.7565 C.3 0.0 **** -0.106
91 H28622 9.551 22.8138 49.7731 H 0.0 **** 0.1268
92 H28631 11.1551 16.1639 45.7549 H 0.0 **** 0.053
93 C28488 13.7257 25.4176 48.672 C.2 0.0 **** 0.042
94 C28540 1.2627 13.4427 47.3739 C.2 0.0 **** 0.0
95 H28565 29.0925 31.3434 44.5011 H 0.0 **** 0.053
96 H28562 27.3437 33.7662 45.1918 H 0.0 **** 0.053
97 H28624 9.21571 17.0662 44.4365 H 0.0 **** 0.053
98 H28651 3.06601 10.8732 43.0084 H 0.0 **** 0.053
99 H28560 25.5102 30.7238 46.4484 H 0.0 **** 0.053
100 H28621 11.4426 24.4017 49.6231 H 0.0 **** 0.1268
101 C28522 24.6386 23.3629 43.9789 C.3 0.0 **** -0.159
102 H28626 7.92645 15.1481 47.2271 H 0.0 **** 0.053
103 C28480 14.5164 15.8776 41.1774 C.3 0.0 **** -0.106
104 H28620 12.0942 27.3683 51.4671 H 0.0 **** 0.053
105 H28637 28.0388 23.3443 43.2186 H 0.0 **** 0.053
106 H28617 14.7442 28.2642 52.7004 H 0.0 **** 0.053
107 C28438 24.7234 29.099 40.2698 C.2 0.0 **** 0.0
108 H28632 10.054 15.8706 47.0998 H 0.0 **** 0.053
109 C28483 11.0095 16.7078 42.4963 C.3 0.0 **** -0.106
110 C28525 5.68381 20.1547 50.2845 C.2 0.0 **** -0.1268
111 C28491 13.6454 27.3814 50.0081 C.3 0.0 **** 0.107
112 C28428 20.3749 32.0769 47.9164 C.3 0.0 **** -0.106
113 C28542 -0.579419 14.0874 48.845 C.2 0.0 **** -0.1268
114 C28523 27.0614 22.9061 43.4753 C.3 0.0 **** -0.159
115 C28548 2.6139 11.4586 43.8234 C.3 0.0 **** -0.106
116 H28597 13.7267 19.8993 41.1329 H 0.0 **** 0.053
117 H28558 25.852 31.001 48.7634 H 0.0 **** 0.053
118 C28499 11.848 23.8451 48.7796 C.2 0.0 **** -0.1268
119 H28638 26.8066 22.1679 42.6983 H 0.0 **** 0.053
120 O28490 13.1196 26.067 49.7226 O.3 0.0 **** -0.202
121 H28650 4.39201 11.3536 45.0482 H 0.0 **** 0.053
122 C28485 11.1276 14.3003 41.7487 C.3 0.0 **** 0.081
123 C28534 -0.384476 16.0472 50.36 C.2 0.0 **** -0.1268
124 H28592 18.7444 22.7564 42.2793 H 0.0 **** 0.1268
125 C28514 9.65622 14.6271 45.338 C.3 0.0 **** -0.106
126 H28612 15.5917 28.2719 50.1634 H 0.0 **** 0.053
127 C28441 25.332 28.5327 39.0174 C.3 0.0 **** -0.106
128 H28614 16.6722 26.6192 51.4025 H 0.0 **** 0.053
129 C28433 20.4027 26.9458 44.4776 C.2 0.0 **** 0.0
130 C28549 1.76728 10.5802 44.7293 C.3 0.0 **** -0.086
131 H28579 24.5358 32.1087 41.995 H 0.0 **** 0.1268
132 H28606 10.0323 15.9156 40.746 H 0.0 **** 0.053
133 O28415 25.1838 32.6478 44.125 O.3 0.0 **** -0.32
134 O28493 15.5962 26.8973 48.6907 O.3 0.0 **** -0.202
135 C28411 25.9016 31.7455 46.3188 C.3 0.0 **** -0.053
136 H28559 27.283 31.8471 49.429 H 0.0 **** 0.053
137 C28498 11.1766 22.7149 48.3134 C.2 0.0 **** 0.0
138 H28571 19.0789 30.3241 47.8522 H 0.0 **** 0.053
139 C28479 14.9336 17.318 40.8623 C.3 0.0 **** -0.106
140 H28552 27.972 28.1954 47.8411 H 0.0 **** 0.053
141 C28446 25.8863 24.7996 42.2641 C.3 0.0 **** -0.053
142 C28544 3.88473 13.9715 46.3718 C.2 0.0 **** 0.0
143 C28467 17.4823 26.7176 46.7931 C.2 0.0 **** -0.1268
144 H28633 26.2805 24.6971 44.3647 H 0.0 **** 0.053
145 H28591 22.5582 26.4363 41.8589 H 0.0 **** 0.1268
146 C28435 23.6859 28.8154 42.4534 C.2 0.0 **** 0.0
147 H28613 15.8148 25.3021 50.5905 H 0.0 **** 0.053
148 O28430 19.2427 28.2237 46.6959 O.3 0.0 **** -0.464
149 C28424 20.908 28.1711 44.929 C.2 0.0 **** 0.0
150 H28641 6.24492 21.0205 50.6358 H 0.0 **** 0.1268
151 C28478 14.6149 19.7073 41.7697 C.3 0.0 **** 0.107
152 H28627 7.80288 14.9164 44.1957 H 0.0 **** 0.053
153 C28447 25.2214 24.0393 41.1112 C.3 0.0 **** -0.106
154 C28456 16.5702 23.7162 44.7686 C.2 0.0 **** 0.0
155 C28413 27.4997 32.8107 44.6654 C.3 0.0 **** -0.106
156 H28623 11.3363 18.2822 44.4986 H 0.0 **** 0.1268
157 H28567 23.1281 33.625 45.7753 H 0.0 **** 0.053
158 H28610 12.8069 14.6238 42.8913 H 0.0 **** 0.353
159 H28634 24.7117 22.9098 44.979 H 0.0 **** 0.053
160 C28427 20.1512 30.5665 47.8343 C.3 0.0 **** -0.106
161 C28448 25.3666 24.8373 39.8156 C.3 0.0 **** -0.106
162 C28547 3.69321 12.1232 44.6692 C.3 0.0 **** -0.106
163 H28636 23.8204 24.0987 43.9991 H 0.0 **** 0.053
164 C28545 1.84977 12.5922 46.3588 C.2 0.0 **** 0.052
165 H28635 24.3544 22.567 43.2733 H 0.0 **** 0.053
166 N28486 12.5695 14.5471 41.9015 N.3 0.0 **** -0.727
167 H28580 25.1269 29.201 38.1658 H 0.0 **** 0.053
168 C28505 10.9349 18.8851 45.2978 C.2 0.0 **** -0.1268
169 C28502 9.96861 22.2616 48.9305 C.2 0.0 **** -0.1268
170 C28434 23.953 30.2162 42.7692 C.2 0.0 **** 0.0
171 H28648 5.71664 13.4826 45.3162 H 0.0 **** 0.1268
172 H28605 10.3851 17.6044 42.61 H 0.0 **** 0.053
173 C28515 10.1057 15.9425 46.0018 C.3 0.0 **** -0.106
174 C28510 7.75236 16.8903 45.9964 C.3 0.0 **** -0.053
175 C28530 2.20588 16.5339 49.3411 C.2 0.0 **** 0.0
176 C28414 28.7186 32.0683 45.2429 C.3 0.0 **** -0.106
177 C28495 14.7253 26.146 52.2818 C.3 0.0 **** -0.106
178 H28575 22.3991 31.9788 48.6642 H 0.0 **** 0.053
179 H28564 29.5309 32.7915 45.4098 H 0.0 **** 0.053
180 H28569 25.2163 33.7481 46.6126 H 0.0 **** 0.053
181 C28405 27.5216 29.164 47.5845 C.3 0.0 **** 0.054
182 H28652 1.98582 12.2387 43.3628 H 0.0 **** 0.053
183 C28543 5.23496 14.1863 45.9897 C.2 0.0 **** -0.1268
184 H28584 25.7803 26.8012 43.095 H 0.0 **** 0.053
185 H28603 12.0864 17.729 40.9249 H 0.0 **** 0.053
186 C28418 24.8117 32.7307 46.7325 C.3 0.0 **** -0.106
187 H28643 1.97092 19.1213 51.5902 H 0.0 **** 0.1268
188 C28537 2.0062 14.561 47.8551 C.2 0.0 **** 0.0
189 C28538 3.31697 14.8188 47.3627 C.2 0.0 **** 0.0
190 C28487 14.9347 25.8271 48.1311 C.2 0.0 **** 0.042
191 C28450 22.1326 26.9142 42.741 C.2 0.0 **** -0.1268
192 C28539 4.06319 15.9305 47.848 C.2 0.0 **** 0.0
193 C28443 24.977 26.2758 39.9921 C.2 0.0 **** 0.0
194 H28554 29.1873 29.3417 46.168 H 0.0 **** 0.053
195 C28406 28.205 29.8027 46.3527 C.3 0.0 **** -0.106
196 C28531 1.64969 17.3859 50.3493 C.2 0.0 **** 0.0
197 C28484 10.2597 15.5899 41.7737 C.3 0.0 **** -0.106
198 C28458 15.3413 23.3082 45.3505 C.2 0.0 **** 0.0
199 H28600 14.9211 15.5913 42.165 H 0.0 **** 0.053
200 H28601 14.9184 15.1559 40.4532 H 0.0 **** 0.053
201 H28589 24.7485 24.3969 39.012 H 0.0 **** 0.053
202 C28444 24.7897 26.8424 41.2078 C.2 0.0 **** 0.0
203 C28472 11.5797 20.0936 45.6252 C.2 0.0 **** 0.0
204 C28528 4.2503 17.897 49.3345 C.2 0.0 **** 0.0
205 C28465 13.426 21.7367 45.4267 C.2 0.0 **** 0.0
206 C28455 17.1038 22.9702 43.6731 C.2 0.0 **** 0.0
207 C28454 18.3477 23.3516 43.105 C.2 0.0 **** -0.1268
208 O28475 12.5099 19.0359 43.084 O.3 0.0 **** -0.202
209 C28470 12.9189 22.4401 46.5695 C.2 0.0 **** 0.0
210 C28468 14.8222 24.0276 46.4771 C.2 0.0 **** 0.0
211 H28585 24.255 25.9481 43.1024 H 0.0 **** 0.053
212 H28594 17.1376 27.3277 47.615 H 0.0 **** 0.1268
213 H28629 10.1224 14.5444 44.346 H 0.0 **** 0.053
214 C28463 13.2365 20.0184 43.7215 C.2 0.0 **** 0.042
215 C28462 14.3836 20.4494 43.0822 C.2 0.0 **** 0.0
216 C28417 23.5226 32.5951 45.8698 C.3 0.0 **** -0.053
217 H28578 25.4341 31.0782 39.9278 H 0.0 **** 0.053
218 C28546 3.10982 12.9002 45.8283 C.2 0.0 **** 0.0
219 C28407 28.395 31.3194 46.561 C.3 0.0 **** -0.053
220 C28508 8.00913 18.8151 47.6195 C.2 0.0 **** 0.0
221 C28469 15.5175 25.1608 46.9956 C.2 0.0 **** 0.0
222 C28489 13.0433 24.2734 48.1836 C.2 0.0 **** 0.0
223 C28519 5.97634 15.2331 46.4901 C.2 0.0 **** 0.0
224 H28647 -1.59029 13.9106 49.2186 H 0.0 **** 0.1268
225 C28512 7.45272 15.4021 46.2574 C.3 0.0 **** -0.053
226 C28500 9.8786 20.3841 47.3743 C.2 0.0 **** 0.0
227 H28645 -1.38975 15.844 50.7343 H 0.0 **** 0.1268
228 C28423 22.0356 28.8233 44.3061 C.2 0.0 **** 0.0
229 H28577 23.7065 30.9117 39.7475 H 0.0 **** 0.053
230 C28408 27.1368 31.8939 47.2321 C.3 0.0 **** -0.053
231 C28526 4.45039 19.8684 50.8001 C.2 0.0 **** -0.1268
232 C28507 7.49861 19.6142 48.6568 C.2 0.0 **** 0.0265
233 C28516 6.09263 17.3335 47.8061 C.2 0.0 **** 0.0
234 H28572 20.5874 30.0891 48.7322 H 0.0 **** 0.053
235 C28409 26.9316 31.2073 48.6074 C.3 0.0 **** 0.054
236 H28602 12.6375 15.6579 40.1703 H 0.0 **** 0.053
237 C28509 9.21259 17.1069 45.5364 C.3 0.0 **** -0.053
238 C28533 0.336793 17.1077 50.841 C.2 0.0 **** -0.1268
239 C28437 24.37 28.2603 41.287 C.2 0.0 **** 0.0
240 C28445 25.1509 26.1257 42.4883 C.3 0.0 **** -0.106
241 H28646 -0.625807 12.4026 47.5266 H 0.0 **** 0.1268
242 C28439 24.5566 30.579 40.3832 C.3 0.0 **** -0.106
243 H28557 27.2941 32.9714 47.4067 H 0.0 **** 0.053
244 C28422 23.7615 30.6162 44.213 C.3 0.0 **** -0.053
245 H28593 16.8691 21.306 42.3597 H 0.0 **** 0.1268
246 H28553 26.4433 28.9976 47.389 H 0.0 **** 0.053
247 C28474 11.7209 22.0031 47.1937 C.2 0.0 **** 0.0
248 C28521 25.98 23.9871 43.5726 C.3 0.0 **** -0.053
249 C28494 15.6786 26.28 51.0746 C.3 0.0 **** -0.106
250 H28640 15.6991 20.9227 40.6959 H 0.0 **** 0.41
@<TRIPOS>BOND
1 214 215 un
2 231 110 1
3 33 71 1
4 219 195 1
5 230 219 1
6 235 230 1
7 57 235 1
8 181 195 1
9 181 57 1
10 56 135 1
11 155 56 1
12 176 155 1
13 230 135 1
14 219 176 1
15 36 133 1
16 216 36 1
17 186 216 1
18 56 133 1
19 135 186 1
20 44 33 un
21 62 44 un
22 244 62 un
23 216 33 1
24 36 244 1
25 149 228 1
26 81 149 un
27 87 81 un
28 62 228 un
29 44 87 un
30 112 160 1
31 71 112 1
32 87 160 1
33 58 148 1
34 86 58 un
35 129 86 un
36 81 148 1
37 149 129 un
38 146 170 un
39 6 146 2
40 244 170 1
41 228 6 un
42 107 239 2
43 242 107 1
44 47 242 1
45 146 239 1
46 170 47 2
47 90 127 1
48 193 90 1
49 202 193 2
50 107 127 1
51 239 202 1
52 141 240 1
53 153 141 1
54 161 153 1
55 202 240 1
56 193 161 1
57 191 23 un
58 6 191 un
59 129 23 un
60 55 12 un
61 82 55 1
62 23 82 un
63 86 12 un
64 206 207 un
65 154 206 un
66 22 154 un
67 55 207 un
68 12 22 un
69 49 198 un
70 74 49 un
71 63 74 un
72 154 198 un
73 206 63 un
74 64 214 un
75 205 64 un
76 74 215 un
77 49 205 un
78 143 35 un
79 58 143 un
80 22 35 un
81 221 210 un
82 35 221 un
83 198 210 un
84 43 209 un
85 210 43 un
86 205 209 un
87 76 203 un
88 247 76 un
89 209 247 un
90 64 203 un
91 70 208 1
92 11 70 1
93 151 11 1
94 214 208 1
95 215 151 1
96 103 139 1
97 8 103 1
98 68 8 1
99 11 139 1
100 70 68 1
101 197 109 1
102 122 197 1
103 166 122 1
104 68 109 1
105 8 166 1
106 93 190 un
107 222 93 un
108 43 222 un
109 221 190 un
110 111 120 1
111 52 111 1
112 134 52 1
113 93 120 1
114 190 134 1
115 177 249 1
116 53 177 1
117 7 53 1
118 52 249 1
119 111 7 1
120 118 137 un
121 222 118 un
122 247 137 un
123 51 226 un
124 169 51 un
125 137 169 un
126 76 226 un
127 39 73 un
128 168 39 un
129 203 168 un
130 226 73 un
131 232 46 1
132 220 232 un
133 51 46 1
134 73 220 1
135 174 237 1
136 5 174 1
137 39 237 1
138 220 5 un
139 80 225 1
140 125 80 1
141 173 125 1
142 174 225 1
143 237 173 1
144 25 233 1
145 67 25 1
146 232 67 un
147 5 233 un
148 225 223 1
149 233 4 un
150 223 4 un
151 141 248 1
152 248 101 1
153 248 114 1
154 151 24 1
155 15 231 un
156 204 15 1
157 67 110 un
158 25 204 un
159 175 17 un
160 196 175 1
161 41 196 un
162 204 17 un
163 15 41 un
164 123 238 un
165 9 123 1
166 31 9 1
167 196 238 un
168 175 31 un
169 189 188 un
170 192 189 un
171 17 192 un
172 31 188 un
173 28 94 un
174 113 28 un
175 9 113 un
176 188 94 un
177 142 183 un
178 189 142 un
179 4 192 un
180 223 183 un
181 218 164 un
182 142 218 un
183 94 164 un
184 115 162 1
185 130 115 1
186 72 130 1
187 218 162 1
188 164 72 1
189 72 79 2
190 181 140 1
191 181 246 1
192 195 194 1
193 195 50 1
194 219 34 1
195 230 243 1
196 235 117 1
197 235 136 1
198 135 99 1
199 56 2 1
200 155 96 1
201 155 69 1
202 176 179 1
203 176 95 1
204 36 75 1
205 216 157 1
206 186 85 1
207 186 180 1
208 244 84 1
209 160 138 1
210 160 234 1
211 112 59 1
212 112 18 1
213 71 178 1
214 71 61 1
215 242 229 1
216 242 217 1
217 47 131 1
218 127 167 1
219 127 3 1
220 90 83 1
221 90 37 1
222 240 184 1
223 240 211 1
224 141 26 1
225 153 89 1
226 153 66 1
227 161 201 1
228 161 77 1
229 191 145 1
230 207 124 1
231 63 245 1
232 143 212 1
233 70 60 1
234 11 27 1
235 151 116 1
236 139 10 1
237 139 65 1
238 103 199 1
239 103 200 1
240 8 236 1
241 68 185 1
242 109 54 1
243 109 172 1
244 197 132 1
245 197 45 1
246 122 32 1
247 122 78 1
248 166 158 1
249 111 42 1
250 52 126 1
251 249 147 1
252 249 128 1
253 177 19 1
254 177 29 1
255 53 106 1
256 53 13 1
257 7 88 1
258 7 104 1
259 118 100 1
260 169 91 1
261 168 156 1
262 237 97 1
263 174 21 1
264 225 102 1
265 80 152 1
266 80 14 1
267 125 213 1
268 125 40 1
269 173 92 1
270 173 108 1
271 248 144 1
272 101 159 1
273 101 165 1
274 101 163 1
275 114 105 1
276 114 119 1
277 114 1 1
278 24 250 1
279 110 150 1
280 231 16 1
281 41 187 1
282 238 30 1
283 123 227 1
284 28 241 1
285 113 224 1
286 183 171 1
287 162 38 1
288 162 121 1
289 115 98 1
290 115 182 1
291 130 20 1
292 130 48 1
@<TRIPOS>MOLECULE
Sketch 4
250 292
SMALL
USER_CHARGES


@<TRIPOS>ATOM
1 C20294 19.0584 17.8238 8.4007 C.2 0.0 **** 0.0
2 H20324 29.1419 19.8176 30.6511 H 0.0 **** 0.053
3 H20334 35.2684 25.4253 26.6821 H 0.0 **** 0.053
4 C20278 19.0667 14.8132 12.3068 C.2 0.0 **** 0.0
5 C20192 33.2153 29.3853 26.6787 C.3 0.0 **** -0.106
6 C20163 35.6471 23.9663 32.9483 C.3 0.0 **** -0.106
7 H20341 32.0613 25.888 25.4398 H 0.0 **** 0.1268
8 C20249 24.4326 16.8016 20.0957 C.2 0.0 **** -0.1268
9 C20298 17.9283 20.1398 5.61094 C.3 0.0 **** -0.106
10 H20323 29.7373 18.1428 30.6134 H 0.0 **** 0.053
11 C20215 25.658 20.545 18.4638 C.2 0.0 **** 0.0
12 C20292 15.46 14.3681 7.31962 C.2 0.0 **** -0.1268
13 H20392 18.6939 12.4379 14.774 H 0.0 **** 0.1268
14 O20301 16.5268 17.0067 4.36906 O.2 0.0 **** -0.419
15 H20345 26.4046 22.5446 14.129 H 0.0 **** 0.053
16 H20381 25.1068 20.0073 12.4866 H 0.0 **** 0.053
17 H20393 17.1581 12.0196 12.8857 H 0.0 **** 0.1268
18 C20175 30.3565 21.1485 27.1564 C.2 0.0 **** 0.232
19 C20227 26.9098 24.2774 15.3569 C.3 0.0 **** -0.053
20 H20337 34.0958 26.9113 23.4368 H 0.0 **** 0.053
21 C20172 32.6362 23.6505 29.813 C.3 0.0 **** -0.053
22 H20310 34.7788 21.8863 30.416 H 0.0 **** 0.053
23 C20191 33.4031 29.1788 28.1845 C.3 0.0 **** -0.106
24 C20216 27.9633 20.1918 23.0839 C.2 0.0 **** 0.0
25 H20317 31.6192 21.8158 32.5505 H 0.0 **** 0.053
26 C20244 27.9105 15.3375 23.5061 C.3 0.0 **** -0.106
27 C20273 37.5955 25.5771 23.2881 C.3 0.0 **** -0.159
28 C20211 27.8532 23.4407 19.3937 C.2 0.0 **** -0.1268
29 H20404 16.8112 19.444 3.84529 H 0.0 **** 0.053
30 C20296 18.4902 18.2295 7.15332 C.2 0.0 **** 0.0
31 C20291 15.9506 15.4664 6.64462 C.2 0.0 **** -0.1268
32 H20394 15.6127 11.5968 11.0203 H 0.0 **** 0.1268
33 H20356 22.9159 24.6179 11.891 H 0.0 **** 0.053
34 H20365 28.1768 13.2391 22.9925 H 0.0 **** 0.053
35 O20274 27.2597 25.4762 17.4058 O.3 0.0 **** -0.57
36 C20195 34.7151 25.9041 25.8545 C.3 0.0 **** -0.106
37 C20231 25.8263 24.8704 12.5592 C.3 0.0 **** 0.134
38 H20309 36.8526 19.3474 32.0102 H 0.0 **** 0.053
39 C20193 33.9099 28.277 25.9262 C.2 0.0 **** 0.0
40 C20219 27.0738 19.3208 22.3443 C.2 0.0 **** 0.0
41 H20397 14.6543 13.778 6.8776 H 0.0 **** 0.1268
42 H20336 36.5257 26.9072 25.2813 H 0.0 **** 0.053
43 C20170 31.3432 21.5039 29.345 C.2 0.0 **** 0.0
44 C20162 34.7363 23.5703 31.7986 C.3 0.0 **** 0.107
45 H20340 35.515 29.2265 24.8697 H 0.0 **** 0.053
46 C20230 27.2137 25.2553 13.0818 C.3 0.0 **** -0.106
47 H20388 37.3672 26.3129 22.5006 H 0.0 **** 0.053
48 C20164 37.1219 23.7343 32.5723 C.3 0.0 **** -0.106
49 H20358 24.3757 24.909 10.0771 H 0.0 **** 0.053
50 C20264 24.0181 20.1463 10.5952 C.3 0.0 **** -0.106
51 H20328 33.0385 28.1757 30.6704 H 0.0 **** 0.053
52 H20369 24.6901 14.2986 25.3014 H 0.0 **** 0.053
53 C20239 25.2894 17.6366 20.8278 C.2 0.0 **** 0.0
54 C20251 22.7456 16.6703 16.8041 C.2 0.0 **** 0.042
55 N20236 25.9275 24.1702 11.278 N.3 0.0 **** -0.727
56 C20226 25.877 23.3692 14.6439 C.3 0.0 **** 0.107
57 H20311 35.036 24.1451 30.901 H 0.0 **** 0.053
58 C20179 31.2589 19.6444 31.034 C.3 0.0 **** -0.106
59 H20332 33.6086 30.3636 26.3609 H 0.0 **** 0.053
60 C20204 29.2578 23.8634 21.3364 C.2 0.0 **** -0.1268
61 C20253 22.7972 18.2078 14.9012 C.2 0.0 **** 0.0
62 H20366 26.8138 14.0184 22.1704 H 0.0 **** 0.053
63 H20362 27.0774 16.0888 25.3894 H 0.0 **** 0.053
64 H20402 17.0228 20.3951 6.18544 H 0.0 **** 0.053
65 H20374 22.7381 20.7799 12.8124 H 0.0 **** 0.053
66 C20166 32.4006 23.3662 31.3048 C.3 0.0 **** 0.107
67 C20217 28.4423 19.8912 24.3758 C.2 0.0 **** -0.1268
68 C20206 27.9039 21.8108 21.2191 C.2 0.0 **** 0.0
69 H20303 36.3375 21.2904 29.0193 H 0.0 **** 0.053
70 C20221 25.7296 18.8885 20.3003 C.2 0.0 **** 0.0
71 C20186 32.0278 24.55 27.1468 C.2 0.0 **** 0.0
72 H20319 33.7367 21.4872 33.2469 H 0.0 **** 0.053
73 H20375 20.8955 19.568 12.3698 H 0.0 **** 0.053
74 C20200 31.7497 24.905 25.7924 C.2 0.0 **** -0.1268
75 H20313 35.4724 25.0197 33.2102 H 0.0 **** 0.053
76 C20223 24.0083 18.7774 16.9667 C.2 0.0 **** 0.0
77 H20386 34.3799 24.2399 23.5568 H 0.0 **** 0.053
78 H20359 24.7038 23.1784 9.9129 H 0.0 **** 0.053
79 C20271 36.3215 25.1675 24.0341 C.3 0.0 **** -0.053
80 C20198 34.6148 28.621 24.6468 C.3 0.0 **** -0.106
81 C20269 20.7014 18.1293 10.1861 C.2 0.0 **** 0.0
82 C20297 18.9621 19.5353 6.55318 C.3 0.0 **** -0.106
83 C20209 26.5171 21.3959 19.2211 C.2 0.0 **** 0.0
84 H20364 28.826 15.2337 24.1067 H 0.0 **** 0.053
85 C20189 32.4631 27.5557 29.9554 C.3 0.0 **** -0.106
86 C20187 33.1265 26.7657 27.6829 C.2 0.0 **** 0.0
87 C20252 23.1385 16.3029 18.0613 C.2 0.0 **** -0.1268
88 H20339 33.9617 29.2804 24.0465 H 0.0 **** 0.053
89 H20316 31.465 23.8736 31.5823 H 0.0 **** 0.053
90 S20203 30.9133 24.6021 23.2744 S.2 0.0 **** 0.024
91 H20347 25.3922 24.8859 16.7349 H 0.0 **** 0.053
92 H20400 19.9111 19.3751 6.00723 H 0.0 **** 0.053
93 C20246 26.378 13.4495 24.2053 C.3 0.0 **** -0.106
94 C20201 29.2849 22.3011 23.2211 C.2 0.0 **** 0.0
95 C20258 21.9142 17.309 14.198 C.2 0.0 **** 0.0
96 H20398 20.6431 19.3062 8.41937 H 0.0 **** 0.1268
97 C20159 36.4972 20.0981 31.2906 C.3 0.0 **** 0.054
98 H20376 22.7214 17.8773 10.6436 H 0.0 **** 0.053
99 C20300 17.1389 17.7731 5.11464 C.2 0.0 **** 0.347
100 H20315 37.4852 24.5828 31.9694 H 0.0 **** 0.053
101 O20165 33.3995 23.9555 32.1544 O.3 0.0 **** -0.32
102 C20260 21.7966 18.9323 12.2598 C.3 0.0 **** -0.053
103 H20379 24.2355 21.2231 10.6328 H 0.0 **** 0.053
104 C20275 20.0307 14.1009 14.8794 C.2 0.0 **** -0.1268
105 H20329 32.4245 25.9005 31.4376 H 0.0 **** 0.1268
106 H20373 24.4068 21.1494 14.5612 H 0.0 **** 0.1268
107 C20295 17.525 17.436 6.51871 C.2 0.0 **** 0.052
108 H20389 38.0676 24.7089 22.8038 H 0.0 **** 0.053
109 H20304 38.5107 23.1007 30.0864 H 0.0 **** 0.053
110 C20270 20.0939 17.0815 10.9324 C.2 0.0 **** 0.0
111 H20384 35.7656 23.5656 22.666 H 0.0 **** 0.053
112 H20321 29.2246 19.0352 28.2915 H 0.0 **** 0.053
113 C20156 37.5157 22.6646 30.2638 C.3 0.0 **** -0.106
114 C20238 25.7385 17.2585 22.1195 C.2 0.0 **** 0.042
115 H20361 24.7946 16.5131 24.5548 H 0.0 **** 0.053
116 H20343 28.2446 24.3545 18.9576 H 0.0 **** 0.1268
117 O20243 27.093 17.5965 24.0535 O.3 0.0 **** -0.202
118 C20169 31.6447 21.0347 30.6136 C.2 0.0 **** 0.0
119 C20266 20.5669 16.7611 12.2518 C.2 0.0 **** 0.0
120 H20353 24.3912 24.8247 14.1975 H 0.0 **** 0.053
121 H20330 32.8276 29.9192 28.7628 H 0.0 **** 0.053
122 H20314 37.727 23.7225 33.4912 H 0.0 **** 0.053
123 C20242 26.906 16.1907 24.3084 C.3 0.0 **** 0.107
124 H20380 24.7269 19.7022 9.87947 H 0.0 **** 0.053
125 H20333 32.1335 29.3804 26.4436 H 0.0 **** 0.053
126 C20233 24.0388 23.1044 12.9372 C.3 0.0 **** -0.106
127 H20318 33.7265 20.2494 31.9828 H 0.0 **** 0.053
128 C20287 17.5066 15.9097 8.47048 C.2 0.0 **** 0.0
129 H20390 26.8536 25.7157 18.2531 H 0.0 **** 0.41
130 H20351 27.6065 26.0933 12.4898 H 0.0 **** 0.053
131 C20276 19.0809 13.3269 14.2727 C.2 0.0 **** -0.1268
132 C20196 35.7011 26.3694 24.777 C.3 0.0 **** -0.053
133 C20183 30.5467 22.8116 25.3685 C.2 0.0 **** 0.0
134 C20185 32.6216 25.4419 28.0421 C.2 0.0 **** 0.0
135 C20184 32.5731 25.1191 29.4658 C.2 0.0 **** 0.0
136 H20306 38.2556 21.9312 32.1343 H 0.0 **** 0.053
137 C20255 24.0643 20.2455 15.0398 C.2 0.0 **** -0.1268
138 H20382 24.4827 18.4601 11.9177 H 0.0 **** 0.053
139 C20213 25.5283 22.2521 16.742 C.2 0.0 **** 0.042
140 C20254 23.2755 19.381 14.3032 C.2 0.0 **** 0.0
141 H20305 36.7751 23.4 29.9118 H 0.0 **** 0.053
142 H20307 36.0744 21.2489 33.0745 H 0.0 **** 0.053
143 C20214 25.2006 20.9317 17.1729 C.2 0.0 **** 0.0
144 C20282 17.5493 12.8995 12.3704 C.2 0.0 **** -0.1268
145 C20283 15.9903 12.4762 10.4953 C.2 0.0 **** -0.1268
146 C20299 17.5918 19.1113 4.54409 C.3 0.0 **** -0.086
147 O20180 29.659 20.3143 26.3039 O.3 0.0 **** -0.464
148 H20352 25.2762 25.8033 12.3478 H 0.0 **** 0.053
149 H20320 33.6655 23.327 29.5566 H 0.0 **** 0.053
150 H20338 35.6526 27.6458 23.0045 H 0.0 **** 0.053
151 C20190 32.4829 26.1178 30.3723 C.2 0.0 **** -0.1268
152 H20342 29.5874 24.7914 20.8637 H 0.0 **** 0.1268
153 C20248 23.9955 17.1599 18.8206 C.2 0.0 **** 0.0
154 H20396 15.5482 15.7317 5.67286 H 0.0 **** 0.1268
155 H20387 38.3283 26.0312 23.9737 H 0.0 **** 0.053
156 C20174 30.8 22.4231 26.6896 C.2 0.0 **** 0.0
157 C20257 21.475 16.1374 14.8379 C.2 0.0 **** 0.0265
158 O20225 24.9588 22.7553 15.5921 O.3 0.0 **** -0.202
159 C20208 27.0069 20.9804 20.4973 C.2 0.0 **** 0.0
160 C20286 17.0011 14.7676 9.16237 C.2 0.0 **** 0.0
161 C20241 25.4618 15.8323 24.0004 C.3 0.0 **** 0.107
162 C20237 26.6265 18.0444 22.8378 C.2 0.0 **** 0.042
163 C20267 20.0715 15.6086 12.9249 C.2 0.0 **** 0.0
164 C20234 23.4633 23.6925 11.65 C.3 0.0 **** -0.106
165 C20157 37.3383 22.4215 31.7769 C.3 0.0 **** -0.053
166 H20346 27.8685 23.7378 15.4158 H 0.0 **** 0.053
167 C20177 30.1559 19.2909 28.817 C.3 0.0 **** -0.106
168 C20265 24.2465 19.5336 11.9899 C.3 0.0 **** -0.106
169 C20277 18.554 13.6578 12.9804 C.2 0.0 **** 0.0
170 H20372 22.805 15.3559 18.4871 H 0.0 **** 0.1268
171 H20391 20.4078 13.843 15.8689 H 0.0 **** 0.1268
172 H20363 28.1817 15.8945 22.5975 H 0.0 **** 0.053
173 C20232 24.9912 24.0925 13.6309 C.3 0.0 **** -0.053
174 C20259 22.99 19.7096 12.8618 C.3 0.0 **** -0.053
175 C20280 17.525 14.4033 10.438 C.2 0.0 **** 0.0
176 C20171 31.7612 22.8123 28.9083 C.2 0.0 **** 0.0
177 C20262 21.9775 18.6926 10.749 C.3 0.0 **** -0.053
178 C20289 19.0583 16.3227 10.3489 C.2 0.0 **** 0.0
179 C20202 29.7188 23.5168 22.5808 C.2 0.0 **** -0.012
180 H20395 14.6912 12.2453 8.80766 H 0.0 **** 0.1268
181 C20220 25.2732 19.2772 19.0139 C.2 0.0 **** 0.0
182 H20322 30.9072 18.5491 28.4857 H 0.0 **** 0.053
183 C20176 30.6126 20.6691 28.4111 C.2 0.0 **** 0.0
184 C20167 32.2851 21.875 31.6683 C.3 0.0 **** -0.053
185 C20272 35.3349 24.4933 23.0719 C.3 0.0 **** -0.159
186 C20281 17.0221 13.2461 11.116 C.2 0.0 **** 0.0
187 C20228 26.426 24.4875 16.7989 C.3 0.0 **** 0.107
188 C20178 29.9811 19.1786 30.3319 C.3 0.0 **** -0.106
189 C20293 20.1684 18.4997 8.97183 C.2 0.0 **** -0.1268
190 C20247 25.1412 14.3665 24.3002 C.3 0.0 **** -0.106
191 C20181 29.2815 20.7466 25.0558 C.2 0.0 **** 0.232
192 H20368 26.0579 12.4175 23.9995 H 0.0 **** 0.053
193 H20385 35.1119 25.1561 22.2216 H 0.0 **** 0.053
194 H20344 28.1562 18.9783 24.877 H 0.0 **** 0.1268
195 C20199 31.0662 24.0767 24.9365 C.2 0.0 **** -0.012
196 H20360 26.3675 23.2612 11.4266 H 0.0 **** 0.353
197 H20371 24.1095 15.8564 20.5291 H 0.0 **** 0.1268
198 H20335 34.075 25.1077 25.4454 H 0.0 **** 0.053
199 C20210 26.9138 22.6747 18.6863 C.2 0.0 **** 0.0
200 H20357 22.7349 22.9999 11.1987 H 0.0 **** 0.053
201 H20349 28.0602 26.0595 14.9375 H 0.0 **** 0.053
202 C20222 24.4222 20.0112 16.3816 C.2 0.0 **** 0.0
203 H20367 26.9015 13.4283 25.1765 H 0.0 **** 0.053
204 C20168 33.6599 21.3332 32.159 C.3 0.0 **** -0.106
205 C20285 15.9727 13.9814 8.57808 C.2 0.0 **** 0.0
206 C20235 24.6113 23.9935 10.6459 C.3 0.0 **** 0.081
207 H20354 24.603 22.1899 12.6854 H 0.0 **** 0.053
208 C20284 15.4844 12.8332 9.27354 C.2 0.0 **** -0.1268
209 H20325 32.0764 18.9342 30.7971 H 0.0 **** 0.053
210 C20197 35.0054 27.3747 23.8526 C.3 0.0 **** -0.106
211 H20378 22.5587 19.8543 8.99852 H 0.0 **** 0.053
212 C20218 26.6026 19.7245 21.0592 C.2 0.0 **** 0.0
213 H20326 31.1422 19.6123 32.1305 H 0.0 **** 0.053
214 O20160 37.5449 20.2053 30.3192 O.3 0.0 **** -0.32
215 C20182 29.7306 21.9699 24.5262 C.2 0.0 **** 0.0
216 C20263 22.5671 19.9367 10.0947 C.3 0.0 **** -0.106
217 C20245 27.3484 13.9496 23.1293 C.3 0.0 **** -0.106
218 C20261 21.4581 17.619 12.9139 C.2 0.0 **** 0.0
219 C20161 34.8398 22.0464 31.5043 C.3 0.0 **** -0.053
220 H20302 38.087 21.2562 28.669 H 0.0 **** 0.053
221 O20240 25.2534 16.0599 22.5896 O.3 0.0 **** -0.202
222 C20212 26.329 23.1176 17.4629 C.2 0.0 **** 0.0
223 C20229 27.1421 25.5778 14.578 C.3 0.0 **** -0.106
224 H20308 35.5828 19.7047 30.7992 H 0.0 **** 0.053
225 C20205 28.3364 23.0413 20.6359 C.2 0.0 **** 0.0
226 H20370 24.3706 14.0528 23.5794 H 0.0 **** 0.053
227 C20290 16.9954 16.265 7.18701 C.2 0.0 **** 0.0
228 C20173 31.5273 23.2557 27.6183 C.2 0.0 **** 0.0
229 C20207 28.3855 21.4353 22.5035 C.2 0.0 **** 0.0
230 H20401 18.3096 21.07 5.16285 H 0.0 **** 0.053
231 H20399 19.1858 20.2438 7.36304 H 0.0 **** 0.053
232 C20250 23.1801 17.8977 16.2147 C.2 0.0 **** 0.0
233 H20377 21.9359 20.8029 10.3564 H 0.0 **** 0.053
234 H20327 31.4276 27.954 30.0371 H 0.0 **** 0.053
235 H20350 27.9062 24.4082 12.9267 H 0.0 **** 0.053
236 C20279 18.546 15.178 11.037 C.2 0.0 **** 0.0
237 O20256 21.9161 15.8108 16.0998 O.3 0.0 **** -0.0685
238 H20312 35.3735 23.3648 33.8302 H 0.0 **** 0.053
239 H20383 36.6036 24.4295 24.8071 H 0.0 **** 0.053
240 H20355 23.2443 22.7967 13.6307 H 0.0 **** 0.053
241 C20158 36.1732 21.4422 31.9932 C.3 0.0 **** -0.053
242 H20348 26.3171 26.2846 14.7717 H 0.0 **** 0.053
243 H20403 18.4909 18.9004 3.93578 H 0.0 **** 0.053
244 C20268 20.542 15.2737 14.2335 C.2 0.0 **** 0.0
245 C20224 24.4229 18.4146 18.273 C.2 0.0 **** 0.0
246 C20288 18.5418 16.681 9.071 C.2 0.0 **** 0.0
247 H20331 34.4694 29.329 28.4495 H 0.0 **** 0.053
248 C20194 33.8774 27.0213 26.4325 C.2 0.0 **** 0.0
249 C20155 37.3463 21.3447 29.4754 C.3 0.0 **** 0.054
250 C20188 32.9865 27.7886 28.5759 C.2 0.0 **** 0.0
@<TRIPOS>BOND
1 134 135 un
2 19 223 1
3 21 135 1
4 165 113 1
5 241 165 1
6 97 241 1
7 214 97 1
8 249 113 1
9 249 214 1
10 44 219 1
11 6 44 1
12 48 6 1
13 241 219 1
14 165 48 1
15 66 101 1
16 184 66 1
17 204 184 1
18 44 101 1
19 219 204 1
20 43 118 un
21 176 43 un
22 21 176 un
23 184 118 1
24 66 21 1
25 156 228 1
26 18 156 un
27 183 18 un
28 176 228 un
29 43 183 un
30 188 167 1
31 58 188 1
32 118 58 1
33 183 167 1
34 191 147 1
35 215 191 un
36 133 215 un
37 18 147 1
38 156 133 un
39 71 134 2
40 228 71 un
41 250 86 2
42 85 250 1
43 151 85 1
44 134 86 1
45 135 151 2
46 5 23 1
47 39 5 1
48 248 39 2
49 250 23 1
50 86 248 1
51 132 36 1
52 210 132 1
53 80 210 1
54 248 36 1
55 39 80 1
56 74 195 un
57 71 74 un
58 133 195 un
59 179 94 un
60 90 179 1
61 195 90 un
62 215 94 un
63 225 60 un
64 68 225 un
65 229 68 un
66 179 60 un
67 94 229 un
68 83 159 un
69 199 83 un
70 28 199 un
71 68 159 un
72 225 28 un
73 139 222 un
74 143 139 un
75 11 143 un
76 199 222 un
77 83 11 un
78 67 24 un
79 191 67 un
80 229 24 un
81 40 212 un
82 24 40 un
83 159 212 un
84 70 181 un
85 212 70 un
86 11 181 un
87 76 202 un
88 245 76 un
89 181 245 un
90 143 202 un
91 56 158 1
92 19 56 1
93 187 19 1
94 139 158 1
95 222 187 1
96 46 223 1
97 37 46 1
98 173 37 1
99 56 173 1
100 164 126 1
101 206 164 1
102 55 206 1
103 173 126 1
104 37 55 1
105 114 162 un
106 53 114 un
107 70 53 un
108 40 162 un
109 161 221 1
110 123 161 1
111 117 123 1
112 114 221 1
113 162 117 1
114 217 26 1
115 93 217 1
116 190 93 1
117 123 26 1
118 161 190 1
119 8 153 un
120 53 8 un
121 245 153 un
122 54 232 un
123 87 54 un
124 153 87 un
125 76 232 un
126 140 61 un
127 137 140 un
128 202 137 un
129 232 61 un
130 157 237 1
131 95 157 un
132 54 237 1
133 61 95 1
134 102 174 1
135 218 102 1
136 140 174 1
137 95 218 un
138 216 177 1
139 50 216 1
140 168 50 1
141 102 177 1
142 174 168 1
143 163 119 1
144 244 163 1
145 157 244 un
146 218 119 un
147 177 81 1
148 119 110 un
149 81 110 un
150 132 79 1
151 79 185 1
152 79 27 1
153 187 35 1
154 131 104 1
155 169 131 un
156 4 169 1
157 244 104 un
158 163 4 un
159 175 236 un
160 186 175 1
161 144 186 un
162 4 236 un
163 169 144 un
164 208 145 un
165 205 208 1
166 160 205 1
167 186 145 un
168 175 160 un
169 246 128 un
170 178 246 un
171 236 178 un
172 160 128 un
173 31 227 un
174 12 31 un
175 205 12 un
176 128 227 un
177 1 189 un
178 246 1 un
179 110 178 un
180 81 189 un
181 30 107 un
182 1 30 un
183 227 107 un
184 9 82 1
185 146 9 1
186 99 146 1
187 30 82 1
188 107 99 1
189 99 14 2
190 249 220 1
191 249 69 1
192 113 109 1
193 113 141 1
194 165 136 1
195 241 142 1
196 97 224 1
197 97 38 1
198 219 22 1
199 44 57 1
200 6 238 1
201 6 75 1
202 48 122 1
203 48 100 1
204 66 89 1
205 184 25 1
206 204 127 1
207 204 72 1
208 21 149 1
209 167 112 1
210 167 182 1
211 188 10 1
212 188 2 1
213 58 209 1
214 58 213 1
215 85 234 1
216 85 51 1
217 151 105 1
218 23 121 1
219 23 247 1
220 5 59 1
221 5 125 1
222 36 3 1
223 36 198 1
224 132 42 1
225 210 20 1
226 210 150 1
227 80 88 1
228 80 45 1
229 74 7 1
230 60 152 1
231 28 116 1
232 67 194 1
233 56 15 1
234 19 166 1
235 187 91 1
236 223 242 1
237 223 201 1
238 46 235 1
239 46 130 1
240 37 148 1
241 173 120 1
242 126 207 1
243 126 240 1
244 164 33 1
245 164 200 1
246 206 49 1
247 206 78 1
248 55 196 1
249 161 115 1
250 123 63 1
251 26 172 1
252 26 84 1
253 217 34 1
254 217 62 1
255 93 203 1
256 93 192 1
257 190 52 1
258 190 226 1
259 8 197 1
260 87 170 1
261 137 106 1
262 174 65 1
263 102 73 1
264 177 98 1
265 216 233 1
266 216 211 1
267 50 103 1
268 50 124 1
269 168 16 1
270 168 138 1
271 79 239 1
272 185 111 1
273 185 193 1
274 185 77 1
275 27 155 1
276 27 47 1
277 27 108 1
278 35 129 1
279 104 171 1
280 131 13 1
281 144 17 1
282 145 32 1
283 208 180 1
284 31 154 1
285 12 41 1
286 189 96 1
287 82 231 1
288 82 92 1
289 9 230 1
290 9 64 1
291 146 243 1
292 146 29 1
@<TRIPOS>MOLECULE
Sketch 4
250 292
SMALL
USER_CHARGES


@<TRIPOS>ATOM
1 H21091 34.1067 70.6723 4.81273 H 0.0 **** 0.1268
2 C20929 37.5253 76.7964 0.151293 C.3 0.0 **** -0.106
3 C20945 32.116 70.4373 3.02477 C.3 0.0 **** -0.106
4 H21144 58.6398 61.8494 6.54535 H 0.0 **** 0.1268
5 C20909 33.4463 75.7536 -3.00869 C.3 0.0 **** 0.054
6 H21081 29.409 72.7209 5.4704 H 0.0 **** 0.053
7 C21041 56.8456 57.2131 9.63089 C.2 0.0 **** -0.1268
8 C20976 42.6838 61.918 8.11985 C.3 0.0 **** 0.107
9 C20948 30.6618 69.0665 5.22851 C.3 0.0 **** -0.106
10 H21063 30.4542 77.4455 1.13153 H 0.0 **** 0.053
11 C21025 52.9409 64.317 5.09094 C.2 0.0 **** -0.1268
12 C20999 46.8067 68.0849 3.65741 C.2 0.0 **** -0.1268
13 C21040 55.4468 57.4213 9.47709 C.2 0.0 **** 0.0
14 H21103 42.8744 61.7203 10.2293 H 0.0 **** 0.053
15 H21099 39.2772 61.4555 8.64064 H 0.0 **** 0.053
16 C21037 55.0215 58.5702 8.74639 C.2 0.0 **** 0.0
17 C21000 47.8702 64.5389 5.68875 C.2 0.0 **** 0.0
18 O20930 39.3165 72.5475 2.18119 O.3 0.0 **** -0.464
19 H21116 46.4844 69.7543 -0.193549 H 0.0 **** 0.053
20 C20935 33.3998 73.0929 3.85032 C.2 0.0 **** 0.0
21 C20942 30.6738 71.3032 6.52015 C.3 0.0 **** -0.106
22 C20984 44.8789 59.5723 10.2584 C.3 0.0 **** -0.106
23 O21051 55.9422 54.7455 10.6197 O.2 0.0 **** -0.419
24 H21123 45.2225 62.3748 7.45465 H 0.0 **** 0.1268
25 H21105 45.1688 61.6154 9.54066 H 0.0 **** 0.053
26 C20950 34.8993 71.1699 4.25442 C.2 0.0 **** -0.1268
27 C20941 30.3273 72.7322 6.09202 C.3 0.0 **** -0.106
28 C21026 54.2708 64.0218 5.20635 C.2 0.0 **** -0.1268
29 C20952 38.0114 68.6646 4.89069 C.2 0.0 **** -0.012
30 O20910 32.8576 74.5544 -3.5264 O.3 0.0 **** -0.32
31 C20963 43.1857 64.1242 7.31209 C.2 0.0 **** 0.042
32 C21004 47.2612 62.5432 6.91746 C.2 0.0 **** 0.0
33 C20927 39.0593 74.9451 0.841237 C.3 0.0 **** -0.106
34 C21013 48.3743 58.5951 8.21983 C.3 0.0 **** -0.106
35 O21006 50.1817 64.904 4.98884 O.3 0.0 **** -0.0685
36 H21145 59.3777 59.8754 7.85841 H 0.0 **** 0.1268
37 H21122 49.2976 67.0387 3.82368 H 0.0 **** 0.1268
38 C20957 40.3597 69.0824 4.2369 C.2 0.0 **** 0.0
39 H21072 39.0965 74.5067 -0.174041 H 0.0 **** 0.053
40 C21023 30.8866 67.2928 1.12983 C.3 0.0 **** -0.159
41 C21039 53.2084 59.9817 7.83702 C.2 0.0 **** 0.0
42 C21002 48.5303 66.4681 4.34802 C.2 0.0 **** -0.1268
43 C20960 41.4687 65.6384 6.51338 C.2 0.0 **** 0.0
44 C21038 53.6342 58.8392 8.57294 C.2 0.0 **** 0.0
45 H21080 30.1088 73.3676 6.9651 H 0.0 **** 0.053
46 C20959 42.4761 66.3573 5.77366 C.2 0.0 **** 0.0
47 H21096 40.8456 62.1576 6.9966 H 0.0 **** 0.053
48 C20949 36.1345 70.5745 4.17807 C.2 0.0 **** -0.012
49 C20961 40.1279 66.0342 6.38879 C.2 0.0 **** -0.1268
50 H21146 57.1811 56.3472 10.1915 H 0.0 **** 0.1268
51 H21130 47.0475 57.8898 6.63612 H 0.0 **** 0.053
52 C21007 50.5714 63.7616 5.64958 C.2 0.0 **** 0.0265
53 H21095 42.9776 61.3624 7.20961 H 0.0 **** 0.053
54 C20967 40.9102 71.0086 2.86604 C.2 0.0 **** -0.1268
55 C20926 37.9133 74.3283 1.60219 C.2 0.0 **** 0.0
56 C20946 31.3577 69.1203 2.82442 C.3 0.0 **** -0.053
57 C20979 40.3327 61.3675 8.92737 C.3 0.0 **** -0.106
58 H21142 55.0198 64.6734 4.75292 H 0.0 **** 0.1268
59 C21049 53.7462 54.4847 11.4586 C.3 0.0 **** -0.086
60 C20977 41.1809 62.285 8.03826 C.3 0.0 **** -0.053
61 C21046 53.0875 56.8673 9.94808 C.2 0.0 **** 0.0
62 H21112 44.1713 72.6327 0.846894 H 0.0 **** 0.053
63 H21111 45.7035 72.3361 2.75787 H 0.0 **** 0.053
64 C20947 31.3982 68.3087 4.12399 C.3 0.0 **** -0.106
65 C20982 43.0674 61.0897 9.34488 C.3 0.0 **** -0.053
66 H21075 37.4726 76.4309 -0.8939 H 0.0 **** 0.053
67 H21058 34.4712 75.5299 -2.64572 H 0.0 **** 0.053
68 C20918 34.4365 77.1696 -0.298612 C.3 0.0 **** -0.106
69 H21114 43.7975 71.0448 -0.818295 H 0.0 **** 0.053
70 H21108 43.7886 57.731 10.7138 H 0.0 **** 0.053
71 C20964 44.1958 64.7295 6.50612 C.2 0.0 **** 0.0
72 C20923 35.7288 73.1269 2.99515 C.2 0.0 **** 0.0
73 H21084 31.849 71.1454 2.22002 H 0.0 **** 0.053
74 H21102 42.0262 59.6376 10.5541 H 0.0 **** 0.053
75 H21129 46.2095 58.6093 8.0154 H 0.0 **** 0.053
76 C21001 48.8575 65.3153 5.00671 C.2 0.0 **** 0.042
77 H21133 32.0001 69.0952 0.783541 H 0.0 **** 0.053
78 C20911 33.2773 76.1945 -0.485763 C.3 0.0 **** -0.053
79 C20925 38.0683 73.1358 2.25301 C.2 0.0 **** 0.232
80 C21022 33.2621 67.7148 1.84493 C.3 0.0 **** -0.159
81 C20920 36.6223 74.9873 1.64439 C.2 0.0 **** 0.0
82 C20972 45.5445 64.227 6.41772 C.2 0.0 **** 0.0
83 C21008 49.6297 62.9398 6.29213 C.2 0.0 **** 0.0
84 C20914 30.2868 76.541 -0.851808 C.3 0.0 **** -0.106
85 C21050 54.8247 55.2565 10.7085 C.2 0.0 **** 0.347
86 H21064 29.6513 77.2862 -1.35334 H 0.0 **** 0.053
87 C20956 40.7508 67.9238 4.96299 C.2 0.0 **** 0.0
88 O21024 39.6585 64.0834 8.49155 O.3 0.0 **** -0.57
89 H21134 33.6677 67.2964 0.911552 H 0.0 **** 0.053
90 H21128 48.6902 57.5436 8.27377 H 0.0 **** 0.053
91 H21085 33.1951 70.2611 2.89867 H 0.0 **** 0.053
92 C20985 44.0977 58.3012 9.8214 C.3 0.0 **** 0.081
93 C21021 31.8895 68.3534 1.59552 C.3 0.0 **** -0.053
94 C20969 42.7336 69.4184 3.55249 C.2 0.0 **** 0.0
95 H21071 40.0126 74.6808 1.32108 H 0.0 **** 0.053
96 H21076 37.3742 77.8877 0.0951773 H 0.0 **** 0.053
97 C20908 32.619 76.3988 -1.8666 C.3 0.0 **** -0.053
98 C21011 50.0461 61.7809 6.95277 C.2 0.0 **** 0.0
99 C20924 37.0148 72.472 2.95191 C.2 0.0 **** 0.0
100 C20978 41.0489 63.7782 8.37082 C.3 0.0 **** 0.107
101 H21152 52.9143 56.1016 12.6245 H 0.0 **** 0.053
102 C21019 50.8788 59.2806 8.10548 C.2 0.0 **** 0.0
103 C21028 53.7502 61.9996 6.51544 C.2 0.0 **** 0.0
104 H21061 31.8831 75.389 1.00235 H 0.0 **** 0.053
105 C20943 31.093 70.5015 5.31239 C.2 0.0 **** 0.0
106 C21047 52.0242 56.0651 10.6646 C.3 0.0 **** -0.106
107 H21101 40.1466 59.1934 9.21096 H 0.0 **** 0.053
108 C21017 52.3644 62.2908 6.37821 C.2 0.0 **** 0.0
109 C20905 32.4374 73.6907 -2.46469 C.3 0.0 **** 0.054
110 H21060 33.6804 75.1696 -0.455416 H 0.0 **** 0.053
111 C21003 48.2416 63.3339 6.30394 C.2 0.0 **** 0.0
112 O20990 46.1367 70.363 2.3139 O.3 0.0 **** -0.202
113 C20936 34.6227 72.4432 3.67127 C.2 0.0 **** 0.0
114 H21132 47.5722 60.0236 5.67242 H 0.0 **** 0.053
115 H21118 47.6595 71.8381 -1.06364 H 0.0 **** 0.053
116 O20975 43.5229 63.1062 8.17784 O.3 0.0 **** -0.202
117 H21097 41.5326 63.9304 9.35785 H 0.0 **** 0.053
118 O20993 43.4687 71.2109 2.08917 O.3 0.0 **** -0.202
119 C20958 42.1077 67.5093 5.01319 C.2 0.0 **** 0.0
120 H21131 45.9681 60.2956 6.35042 H 0.0 **** 0.053
121 C21031 56.5205 61.4674 6.8261 C.2 0.0 **** 0.0
122 C20965 43.8278 65.9011 5.78695 C.2 0.0 **** 0.0
123 H21136 33.9954 68.4335 2.2412 H 0.0 **** 0.053
124 C20954 38.3978 67.5423 5.57772 C.2 0.0 **** -0.1268
125 C20998 47.1755 66.9261 4.34048 C.2 0.0 **** 0.0
126 C21014 47.0886 58.7147 7.36396 C.3 0.0 **** -0.106
127 N20986 42.899 58.5831 9.01715 N.3 0.0 **** -0.727
128 H21093 39.3441 65.4425 6.85132 H 0.0 **** 0.1268
129 H21120 47.8675 71.699 1.31018 H 0.0 **** 0.053
130 H21052 32.1582 72.7408 -2.94067 H 0.0 **** 0.053
131 H21117 46.1147 72.6906 -0.989986 H 0.0 **** 0.053
132 H21070 33.7127 74.4845 1.43756 H 0.0 **** 0.053
133 C21045 54.4479 56.5505 10.0621 C.2 0.0 **** 0.052
134 C20916 34.1773 76.475 2.1301 C.3 0.0 **** 0.107
135 H21121 47.5636 68.6603 3.1267 H 0.0 **** 0.1268
136 H21073 39.7016 76.8787 0.0870095 H 0.0 **** 0.053
137 H21119 47.0764 73.2678 1.1089 H 0.0 **** 0.053
138 H21141 52.6143 65.2055 4.55077 H 0.0 **** 0.1268
139 C20931 39.5876 71.3944 2.87696 C.2 0.0 **** 0.232
140 H21092 37.6569 66.9287 6.09535 H 0.0 **** 0.1268
141 C20919 36.4249 76.1815 0.969525 C.2 0.0 **** 0.0
142 H21056 30.783 75.9964 -2.89758 H 0.0 **** 0.053
143 C20970 44.8159 66.631 5.04602 C.2 0.0 **** 0.0
144 C20980 40.8447 59.9299 8.79012 C.3 0.0 **** -0.106
145 H21127 48.1853 58.9272 9.25488 H 0.0 **** 0.053
146 H21151 51.7904 54.7483 12.3749 H 0.0 **** 0.053
147 H21109 44.7447 57.6379 9.22827 H 0.0 **** 0.053
148 H21062 31.4804 78.207 -0.0931745 H 0.0 **** 0.053
149 H21124 47.0595 61.113 8.46089 H 0.0 **** 0.053
150 C21042 57.7669 58.075 9.07335 C.2 0.0 **** -0.1268
151 H21140 39.5903 64.9802 8.85376 H 0.0 **** 0.41
152 H21087 32.4487 68.1627 4.42435 H 0.0 **** 0.053
153 S20953 36.2805 68.9594 4.83532 S.2 0.0 **** 0.024
154 H21107 45.9613 59.3676 10.272 H 0.0 **** 0.053
155 H21054 30.3011 73.8568 -1.99398 H 0.0 **** 0.053
156 C21048 52.5752 55.3505 11.8924 C.3 0.0 **** -0.106
157 C20973 46.5225 64.9948 5.7177 C.2 0.0 **** 0.0
158 C21016 51.4032 61.4251 6.9727 C.2 0.0 **** 0.0
159 H21059 33.5257 76.4274 -3.87339 H 0.0 **** 0.053
160 H21067 35.4727 77.9963 1.37265 H 0.0 **** 0.053
161 C20983 44.5618 60.7289 9.31185 C.3 0.0 **** -0.106
162 H21139 31.2417 66.7837 0.220919 H 0.0 **** 0.053
163 H21126 49.5063 59.2609 6.53417 H 0.0 **** 0.053
164 H21104 44.828 60.4265 8.28435 H 0.0 **** 0.053
165 H21088 30.956 67.3107 3.98109 H 0.0 **** 0.053
166 H21110 43.1565 58.6974 8.03605 H 0.0 **** 0.353
167 H21115 45.8439 70.2885 -1.7573 H 0.0 **** 0.053
168 H21086 30.2975 69.366 2.62674 H 0.0 **** 0.053
169 H21098 40.4032 61.6934 9.97936 H 0.0 **** 0.053
170 C20922 34.1683 74.9518 2.33407 C.3 0.0 **** -0.053
171 C20991 45.8117 71.6968 1.86583 C.3 0.0 **** 0.107
172 C20921 35.5573 74.3558 2.38216 C.2 0.0 **** 0.0
173 C20995 45.9275 70.5598 -0.694692 C.3 0.0 **** -0.106
174 C21044 52.6637 57.9719 9.14579 C.2 0.0 **** 0.0
175 H21089 30.8267 68.5871 6.21068 H 0.0 **** 0.053
176 C20971 44.451 67.7986 4.32655 C.2 0.0 **** 0.0
177 C21020 51.833 60.2352 7.65574 C.2 0.0 **** 0.0
178 C20934 33.3174 74.5086 3.50067 C.2 0.0 **** 0.0
179 H21153 53.39 53.6987 10.7671 H 0.0 **** 0.053
180 C21030 55.5521 60.5947 7.41951 C.2 0.0 **** 0.0
181 H21065 29.6051 75.8002 -0.40246 H 0.0 **** 0.053
182 H21057 32.5659 77.4846 -2.05264 H 0.0 **** 0.053
183 C20912 32.269 76.3769 0.684552 C.3 0.0 **** 0.107
184 C20951 38.9787 69.4891 4.2118 C.2 0.0 **** 0.0
185 H21079 32.4443 76.3865 3.98216 H 0.0 **** 0.1268
186 C21010 49.0849 60.9577 7.76855 C.3 0.0 **** -0.053
187 C20987 43.7849 70.1092 2.85219 C.2 0.0 **** 0.042
188 C20906 31.256 74.3028 -1.67611 C.3 0.0 **** -0.106
189 H21094 41.6036 71.6381 2.32792 H 0.0 **** 0.1268
190 C21012 49.4676 59.4729 7.62175 C.3 0.0 **** -0.053
191 C20917 35.1662 76.9786 1.06354 C.3 0.0 **** -0.053
192 C21043 51.2935 58.2025 8.85492 C.2 0.0 **** -0.1268
193 H21106 44.5959 59.8592 11.2838 H 0.0 **** 0.053
194 H21135 33.1775 66.8903 2.56965 H 0.0 **** 0.053
195 C20966 41.3511 69.8484 3.53562 C.2 0.0 **** 0.0
196 H21090 29.5684 69.0164 5.05912 H 0.0 **** 0.053
197 H21053 33.2956 73.4953 -1.79097 H 0.0 **** 0.053
198 C20933 37.2438 71.2221 3.54007 C.2 0.0 **** 0.0
199 H21077 32.1124 75.0991 6.30681 H 0.0 **** 0.053
200 C20938 31.4563 73.3263 5.29706 C.2 0.0 **** 0.0
201 C20913 31.0917 77.2382 0.260078 C.3 0.0 **** -0.106
202 C21036 55.9785 59.4557 8.16453 C.2 0.0 **** 0.0
203 C20962 41.8741 64.5579 7.35194 C.2 0.0 **** 0.0
204 H21137 29.905 67.7428 0.912796 H 0.0 **** 0.053
205 H21125 49.2761 61.2267 8.82657 H 0.0 **** 0.053
206 H21149 51.2058 56.7359 10.9613 H 0.0 **** 0.053
207 H21066 34.4393 76.925 3.09896 H 0.0 **** 0.053
208 C21015 47.0092 60.0604 6.61848 C.3 0.0 **** -0.106
209 C20997 46.9441 72.1857 0.960322 C.3 0.0 **** -0.106
210 C21029 54.1729 60.8654 7.25817 C.2 0.0 **** 0.0
211 H21074 39.0017 76.918 1.72089 H 0.0 **** 0.053
212 H21100 40.9526 59.6848 7.71798 H 0.0 **** 0.053
213 C21009 47.581 61.1898 7.49458 C.3 0.0 **** -0.053
214 C20932 38.5787 70.6726 3.54024 C.2 0.0 **** 0.0
215 H21150 51.5842 55.3232 9.97141 H 0.0 **** 0.053
216 H21154 54.2418 53.9677 12.2926 H 0.0 **** 0.053
217 C20939 31.6614 74.8055 5.33321 C.3 0.0 **** -0.106
218 C20989 45.4729 68.5186 3.63634 C.2 0.0 **** 0.0
219 H21148 50.549 57.4873 9.19418 H 0.0 **** 0.1268
220 H21069 34.0264 78.1908 -0.343945 H 0.0 **** 0.053
221 C21035 57.3672 59.202 8.32076 C.2 0.0 **** 0.0
222 C20944 31.8331 71.1037 4.35133 C.2 0.0 **** 0.0
223 C21033 57.9093 61.178 7.00035 C.2 0.0 **** -0.1268
224 C20968 43.0989 68.2542 4.29277 C.2 0.0 **** 0.0
225 C20940 32.5064 75.3239 4.21119 C.2 0.0 **** -0.1268
226 H21113 44.1667 69.6839 0.249877 H 0.0 **** 0.053
227 H21143 56.8276 63.249 5.64876 H 0.0 **** 0.1268
228 C21034 58.3153 60.0873 7.72268 C.2 0.0 **** -0.1268
229 C20937 32.2449 72.5143 4.53433 C.2 0.0 **** 0.0
230 C20994 44.518 70.6741 -0.0746154 C.3 0.0 **** -0.106
231 H21138 30.7427 66.5243 1.90593 H 0.0 **** 0.053
232 C20996 46.6982 71.8745 -0.53036 C.3 0.0 **** -0.106
233 O20915 32.8787 77.0089 1.82075 O.3 0.0 **** -0.32
234 C20988 45.1049 69.6923 2.92906 C.2 0.0 **** 0.042
235 C21005 45.9551 62.9951 6.96283 C.2 0.0 **** -0.1268
236 H21078 30.6743 75.3078 5.34067 H 0.0 **** 0.053
237 C20907 31.1912 75.8292 -1.89016 C.3 0.0 **** -0.053
238 C21027 54.7256 62.8701 5.93028 C.2 0.0 **** 0.0
239 C20981 42.2069 59.7883 9.47599 C.3 0.0 **** 0.134
240 C20928 38.9053 76.4617 0.722348 C.3 0.0 **** -0.106
241 C20992 44.4768 71.6194 1.14416 C.3 0.0 **** 0.107
242 H21068 35.1509 77.0735 -1.1296 H 0.0 **** 0.053
243 C21032 56.0848 62.5836 6.09414 C.2 0.0 **** -0.1268
244 H21055 31.3746 74.0782 -0.604276 H 0.0 **** 0.053
245 H21147 58.834 57.8893 9.21338 H 0.0 **** 0.1268
246 C20955 39.7615 67.1535 5.64806 C.2 0.0 **** 0.0
247 C21018 51.9485 63.4721 5.68719 C.2 0.0 **** 0.0
248 C20974 46.1654 66.1896 5.04325 C.2 0.0 **** 0.0
249 H21083 31.4996 71.335 7.25686 H 0.0 **** 0.053
250 H21082 29.8182 70.8202 7.01738 H 0.0 **** 0.053
@<TRIPOS>BOND
1 156 106 1
2 228 36 1
3 237 188 1
4 97 237 1
5 5 97 1
6 30 5 1
7 109 188 1
8 109 30 1
9 183 78 1
10 201 183 1
11 84 201 1
12 97 78 1
13 237 84 1
14 134 233 1
15 191 134 1
16 68 191 1
17 183 233 1
18 78 68 1
19 81 141 un
20 172 81 un
21 170 172 un
22 191 141 1
23 134 170 1
24 99 72 1
25 79 99 un
26 55 79 un
27 172 72 un
28 81 55 un
29 240 33 1
30 2 240 1
31 141 2 1
32 55 33 1
33 139 18 1
34 214 139 un
35 198 214 un
36 79 18 1
37 99 198 un
38 20 178 un
39 113 20 2
40 170 178 1
41 72 113 un
42 200 229 2
43 217 200 1
44 225 217 1
45 20 229 1
46 178 225 2
47 21 27 1
48 105 21 1
49 222 105 2
50 200 27 1
51 229 222 1
52 56 3 1
53 64 56 1
54 9 64 1
55 222 3 1
56 105 9 1
57 26 48 un
58 113 26 un
59 198 48 un
60 29 184 un
61 153 29 1
62 48 153 un
63 214 184 un
64 246 124 un
65 87 246 un
66 38 87 un
67 29 124 un
68 184 38 un
69 46 119 un
70 43 46 un
71 49 43 un
72 87 119 un
73 246 49 un
74 31 203 un
75 71 31 un
76 122 71 un
77 43 203 un
78 46 122 un
79 54 195 un
80 139 54 un
81 38 195 un
82 94 224 un
83 195 94 un
84 119 224 un
85 176 143 un
86 224 176 un
87 122 143 un
88 157 82 un
89 248 157 un
90 143 248 un
91 71 82 un
92 8 116 1
93 60 8 1
94 100 60 1
95 31 116 1
96 203 100 1
97 144 57 1
98 239 144 1
99 65 239 1
100 60 57 1
101 8 65 1
102 22 161 1
103 92 22 1
104 127 92 1
105 65 161 1
106 239 127 1
107 234 187 un
108 218 234 un
109 176 218 un
110 94 187 un
111 171 112 1
112 241 171 1
113 118 241 1
114 234 112 1
115 187 118 1
116 173 230 1
117 232 173 1
118 209 232 1
119 241 230 1
120 171 209 1
121 12 125 un
122 218 12 un
123 248 125 un
124 76 17 un
125 42 76 un
126 125 42 un
127 157 17 un
128 32 111 un
129 235 32 un
130 82 235 un
131 17 111 un
132 52 35 1
133 83 52 un
134 76 35 1
135 111 83 1
136 186 213 1
137 98 186 1
138 32 213 1
139 83 98 un
140 34 190 1
141 126 34 1
142 208 126 1
143 186 190 1
144 213 208 1
145 108 158 1
146 247 108 1
147 52 247 un
148 98 158 un
149 190 102 1
150 158 177 un
151 102 177 un
152 56 93 1
153 93 80 1
154 93 40 1
155 100 88 1
156 28 11 1
157 238 28 un
158 103 238 1
159 247 11 un
160 108 103 un
161 180 210 un
162 121 180 1
163 243 121 un
164 103 210 un
165 238 243 un
166 228 223 un
167 221 228 1
168 202 221 1
169 121 223 un
170 180 202 un
171 44 16 un
172 41 44 un
173 210 41 un
174 202 16 un
175 7 13 un
176 150 7 un
177 221 150 un
178 16 13 un
179 174 192 un
180 44 174 un
181 177 41 un
182 102 192 un
183 61 133 un
184 174 61 un
185 13 133 un
186 59 156 1
187 85 59 1
188 61 106 1
189 133 85 1
190 85 23 2
191 109 130 1
192 109 197 1
193 188 155 1
194 188 244 1
195 237 142 1
196 97 182 1
197 5 67 1
198 5 159 1
199 78 110 1
200 183 104 1
201 201 148 1
202 201 10 1
203 84 86 1
204 84 181 1
205 134 207 1
206 191 160 1
207 68 242 1
208 68 220 1
209 170 132 1
210 33 95 1
211 33 39 1
212 240 136 1
213 240 211 1
214 2 66 1
215 2 96 1
216 217 199 1
217 217 236 1
218 225 185 1
219 27 45 1
220 27 6 1
221 21 250 1
222 21 249 1
223 3 73 1
224 3 91 1
225 56 168 1
226 64 152 1
227 64 165 1
228 9 175 1
229 9 196 1
230 26 1 1
231 124 140 1
232 49 128 1
233 54 189 1
234 8 53 1
235 60 47 1
236 100 117 1
237 57 169 1
238 57 15 1
239 144 212 1
240 144 107 1
241 239 74 1
242 65 14 1
243 161 164 1
244 161 25 1
245 22 193 1
246 22 154 1
247 92 70 1
248 92 147 1
249 127 166 1
250 171 63 1
251 241 62 1
252 230 226 1
253 230 69 1
254 173 167 1
255 173 19 1
256 232 131 1
257 232 115 1
258 209 137 1
259 209 129 1
260 12 135 1
261 42 37 1
262 235 24 1
263 213 149 1
264 186 205 1
265 190 163 1
266 34 145 1
267 34 90 1
268 126 75 1
269 126 51 1
270 208 120 1
271 208 114 1
272 93 77 1
273 80 89 1
274 80 194 1
275 80 123 1
276 40 204 1
277 40 231 1
278 40 162 1
279 88 151 1
280 11 138 1
281 28 58 1
282 243 227 1
283 223 4 1
284 7 50 1
285 150 245 1
286 192 219 1
287 106 206 1
288 106 215 1
289 156 146 1
290 156 101 1
291 59 179 1
292 59 216 1
@<TRIPOS>MOLECULE
Sketch 4
188 213
SMALL
USER_CHARGES


@<TRIPOS>ATOM
1 C11029 19.3027 76.4536 36.0153 C.ar 0.0 **** 0.1137
2 H11106 12.0732 62.2724 50.8817 H 0.0 **** 0.053
3 C11002 13.8809 68.4729 44.8899 C.2 0.0 **** 0.0
4 O11076 17.6402 70.6412 47.3563 O.3 0.0 **** -0.452
5 C10973 22.0006 54.7531 54.8878 C.ar 0.0 **** -0.1268
6 H11103 19.9943 58.5828 52.2569 H 0.0 **** 0.1268
7 H11134 12.1401 72.6768 37.2992 H 0.0 **** 0.053
8 C11066 16.4682 72.702 48.8393 C.2 0.0 **** 0.367
9 H11093 22.7344 52.6638 58.2381 H 0.0 **** 0.053
10 H11149 24.7234 77.0518 38.881 H 0.0 **** 0.053
11 C10975 19.2791 56.8682 53.3523 C.ar 0.0 **** 0.0
12 H11142 18.7927 51.8708 56.6036 H 0.0 **** 0.41
13 C10976 18.0993 56.1283 53.7762 C.ar 0.0 **** 0.0
14 H11104 13.0574 59.4627 51.5823 H 0.0 **** 0.1268
15 H11092 17.9461 71.4816 47.8738 H 0.0 **** 0.41
16 H11150 24.9456 75.3957 39.505 H 0.0 **** 0.053
17 H11118 12.7228 69.3168 40.3233 H 0.0 **** 0.1268
18 C11039 12.3784 73.2628 35.2649 C.ar 0.0 **** 0.0
19 C11070 13.7313 74.7727 50.6082 C.3 0.0 **** -0.106
20 H11083 13.4196 77.3825 51.8104 H 0.0 **** 0.053
21 H11091 11.915 71.6098 48.2689 H 0.0 **** 0.41
22 H11082 13.0206 74.2415 51.2688 H 0.0 **** 0.053
23 H11080 17.2554 75.2747 49.6055 H 0.0 **** 0.053
24 C11043 11.3401 74.5684 32.9737 C.ar 0.0 **** 0.052
25 C11006 13.1847 68.0455 42.4759 C.2 0.0 **** 0.367
26 H11124 18.7597 72.8465 38.5126 H 0.0 **** 0.053
27 C11008 15.4154 69.3528 42.4255 C.2 0.0 **** 0.0
28 O11078 17.7326 72.7174 48.7323 O.2 0.0 **** -0.419
29 C11028 17.1247 75.1941 36.0728 C.3 0.0 **** -0.106
30 C11038 13.142 74.2445 34.6237 C.ar 0.0 **** 0.0
31 C10972 20.7076 55.2307 54.4986 C.ar 0.0 **** 0.0
32 C11051 17.479 68.0664 46.3496 C.3 0.0 **** -0.159
33 C11046 12.6944 76.8832 31.8975 C.3 0.0 **** -0.106
34 C11056 24.2809 76.2743 39.5178 C.3 0.0 **** -0.159
35 H11105 12.0664 61.3643 49.3617 H 0.0 **** 0.053
36 C10996 15.5985 63.916 48.7503 C.ar 0.0 **** -0.1268
37 H11146 17.7217 68.0435 47.42 H 0.0 **** 0.053
38 C11068 15.9712 75.6408 51.2963 C.2 0.0 **** 0.0
39 H11111 12.3002 68.7555 46.4013 H 0.0 **** 0.053
40 H11119 16.8823 72.6798 40.5403 H 0.0 **** 0.053
41 C11011 17.6088 70.6799 42.1441 C.3 0.0 **** -0.106
42 C10991 13.3641 63.109 49.3388 C.ar 0.0 **** 0.0
43 C11016 15.7246 70.8913 40.5297 C.2 0.0 **** 0.0
44 H11087 16.7876 78.2027 53.4984 H 0.0 **** 0.053
45 C11032 20.2837 75.157 38.2157 C.ar 0.0 **** 0.0
46 C11033 20.8909 74.5457 39.343 C.ar 0.0 **** -0.1268
47 C11062 13.4711 70.7565 47.6607 C.2 0.0 **** 0.042
48 H11113 18.2885 70.4995 41.2924 H 0.0 **** 0.053
49 C11059 16.3086 70.6346 47.48 C.2 0.0 **** 0.042
50 O11050 14.2248 57.6549 52.7009 O.3 0.0 **** -0.452
51 C11007 14.1398 69.0252 41.8991 C.2 0.0 **** 0.052
52 C10988 15.1283 61.7646 50.1007 C.2 0.0 **** 0.2405
53 C11060 15.6675 71.6836 48.1876 C.2 0.0 **** 0.052
54 H11088 15.8621 78.4588 52.0078 H 0.0 **** 0.053
55 H11122 12.908 71.6391 39.041 H 0.0 **** 0.053
56 O11052 11.7049 67.678 44.2567 O.3 0.0 **** -0.4365
57 C11009 16.0209 68.7363 43.6149 C.2 0.0 **** 0.0
58 H11140 12.4649 75.3711 30.3686 H 0.0 **** 0.053
59 C10999 13.825 67.2977 46.9832 C.ar 0.0 **** 0.0
60 H11121 13.6429 70.3927 38.0659 H 0.0 **** 0.053
61 H11136 14.0058 76.5378 33.5794 H 0.0 **** 0.053
62 C11003 15.3345 68.4907 44.7768 C.2 0.0 **** 0.0
63 H11129 22.6113 74.4276 40.6143 H 0.0 **** 0.1268
64 C11034 22.1603 74.9103 39.7442 C.ar 0.0 **** -0.1268
65 C11071 13.9208 76.5792 52.3835 C.3 0.0 **** -0.106
66 C11036 22.3192 76.5121 37.9471 C.ar 0.0 **** -0.1268
67 H11123 18.0984 74.0861 39.5415 H 0.0 **** 0.053
68 C11025 18.1774 73.7866 38.48 C.3 0.0 **** -0.106
69 H11100 21.4386 56.9377 53.4182 H 0.0 **** 0.1268
70 H11147 11.6719 67.4074 45.1886 H 0.0 **** 0.41
71 C10966 23.3317 52.9132 56.166 C.3 0.0 **** -0.106
72 C10969 21.339 51.6911 56.8907 C.3 0.0 **** -0.106
73 C11069 14.6324 75.6608 51.42 C.2 0.0 **** 0.0
74 H11137 14.265 75.4376 32.2339 H 0.0 **** 0.053
75 H11116 17.9633 67.8928 44.146 H 0.0 **** 0.053
76 C10974 20.5503 56.3857 53.7344 C.ar 0.0 **** -0.1268
77 O11055 9.67018 75.0981 31.3352 O.2 0.0 **** -0.419
78 C11000 13.0095 66.3555 47.5591 C.ar 0.0 **** -0.1268
79 H11085 15.1225 76.413 54.1714 H 0.0 **** 0.053
80 H11126 16.5557 76.1414 36.0224 H 0.0 **** 0.053
81 N10989 16.3386 61.3291 50.3684 N.2 0.0 **** -0.481
82 C11067 16.6837 74.7033 50.3628 C.3 0.0 **** -0.106
83 C11014 13.6995 69.616 40.7078 C.2 0.0 **** -0.1268
84 H11127 18.9089 76.9729 35.1323 H 0.0 **** 0.1268
85 C10982 17.6893 59.6876 51.4504 C.2 0.0 **** -0.1268
86 H11152 18.5667 60.2387 51.1115 H 0.0 **** 0.1268
87 C11017 16.5872 71.8928 39.8218 C.3 0.0 **** -0.106
88 H11117 17.6442 68.0638 42.4274 H 0.0 **** 0.053
89 C11063 13.6064 72.7868 49.0532 C.2 0.0 **** 0.367
90 C11040 12.869 72.5272 36.481 C.3 0.0 **** -0.106
91 H11094 23.3966 51.166 57.5399 H 0.0 **** 0.053
92 H11148 9.00714 72.5111 33.7457 H 0.0 **** 0.41
93 C10990 14.7846 62.9776 49.358 C.ar 0.0 **** 0.0
94 H11131 14.5433 75.6845 35.3653 H 0.0 **** 0.053
95 H11135 10.5204 72.1718 35.2804 H 0.0 **** 0.1268
96 C11026 18.9778 74.8221 37.7539 C.ar 0.0 **** 0.0
97 H11110 11.9271 66.5039 47.6074 H 0.0 **** 0.1268
98 C10985 15.3806 58.284 52.3125 C.2 0.0 **** 0.042
99 C10965 22.7819 52.0507 57.3255 C.3 0.0 **** -0.106
100 H11145 17.7499 67.093 45.9217 H 0.0 **** 0.053
101 C10981 19.1104 58.0301 52.5837 C.2 0.0 **** -0.1268
102 C11072 14.8556 77.1879 53.4332 C.3 0.0 **** -0.106
103 N11030 20.5129 76.8001 36.4056 N.ar 0.0 **** -0.481
104 H11120 17.5491 71.4105 39.5619 H 0.0 **** 0.053
105 C11048 10.8245 75.2177 31.7332 C.2 0.0 **** 0.347
106 O11077 12.3439 72.8566 49.1268 O.2 0.0 **** -0.419
107 H11081 13.0664 75.3796 49.963 H 0.0 **** 0.053
108 C11027 18.4845 75.4754 36.643 C.ar 0.0 **** 0.0
109 H11109 16.8916 65.8854 47.4831 H 0.0 **** 0.1268
110 H11130 22.8498 77.2803 37.3818 H 0.0 **** 0.1268
111 H11139 12.0506 77.5417 32.5038 H 0.0 **** 0.053
112 C10970 19.6853 53.3065 55.703 C.ar 0.0 **** 0.042
113 H11107 11.6834 64.3181 48.7396 H 0.0 **** 0.1268
114 C11024 16.8057 73.505 37.9321 C.ar 0.0 **** 0.0
115 C10993 12.7692 64.1967 48.7457 C.ar 0.0 **** -0.1268
116 H11144 18.0761 68.859 45.8992 H 0.0 **** 0.053
117 H11141 11.2571 76.6742 30.2398 H 0.0 **** 0.053
118 C10978 16.8318 56.6056 53.4135 C.2 0.0 **** -0.1268
119 H11097 21.336 50.7707 56.2783 H 0.0 **** 0.053
120 C11020 13.8874 71.1932 38.7891 C.3 0.0 **** -0.106
121 C11042 10.5828 73.5736 33.6511 C.ar 0.0 **** 0.042
122 C11019 14.7455 72.2275 38.1132 C.ar 0.0 **** 0.0
123 H11125 17.2396 74.8924 35.0143 H 0.0 **** 0.053
124 H11108 16.6834 63.7964 48.7662 H 0.0 **** 0.1268
125 H11101 17.3716 54.4058 54.8631 H 0.0 **** 0.1268
126 H11096 23.7515 52.2666 55.375 H 0.0 **** 0.053
127 C11065 15.8002 73.7227 49.6598 C.ar 0.0 **** 0.0
128 C10968 20.9409 52.8866 56.0592 C.ar 0.0 **** 0.0
129 C10992 12.7116 61.9411 50.0459 C.3 0.0 **** -0.106
130 H11151 24.2587 76.6461 40.5548 H 0.0 **** 0.053
131 C11005 12.9741 68.0771 43.9398 C.2 0.0 **** 0.0265
132 C10984 15.2387 59.4554 51.5642 C.2 0.0 **** 0.0
133 O11053 12.4479 67.3681 41.7553 O.2 0.0 **** -0.419
134 C11015 14.4561 70.5615 40.031 C.2 0.0 **** 0.0
135 C10997 15.8121 66.0324 47.4865 C.ar 0.0 **** -0.1268
136 C11074 16.8784 76.5525 52.0847 C.3 0.0 **** -0.106
137 C11061 14.2555 71.7395 48.2905 C.2 0.0 **** 0.052
138 H11099 22.8846 55.3107 54.5732 H 0.0 **** 0.1268
139 C11037 14.5128 74.6043 35.1259 C.3 0.0 **** -0.106
140 H11102 15.9746 56.016 53.7551 H 0.0 **** 0.1268
141 H11086 14.3423 77.9941 53.9792 H 0.0 **** 0.053
142 C11023 16.3107 74.1574 36.8019 C.ar 0.0 **** 0.0
143 H11098 20.6765 51.5098 57.7543 H 0.0 **** 0.053
144 H11132 15.2381 74.501 34.2974 H 0.0 **** 0.053
145 C10971 19.5166 54.4955 54.9122 C.ar 0.0 **** 0.0
146 C11004 15.9756 68.2995 46.2134 C.3 0.0 **** 0.0
147 C11073 16.1332 77.705 52.7661 C.3 0.0 **** -0.106
148 C11012 18.1556 69.9319 43.365 C.3 0.0 **** -0.106
149 O11049 18.5379 52.6445 56.0754 O.3 0.0 **** -0.452
150 C11022 15.0188 73.8493 36.3238 C.ar 0.0 **** 0.0
151 C11018 16.0152 72.5438 38.5951 C.ar 0.0 **** 0.0
152 C10983 16.4282 60.171 51.1135 C.2 0.0 **** 0.2405
153 C11044 12.6217 74.8953 33.4885 C.ar 0.0 **** 0.0
154 C11021 14.2449 72.8849 36.9706 C.ar 0.0 **** 0.0
155 H11089 17.4196 75.9497 52.8388 H 0.0 **** 0.053
156 H11133 12.8226 71.4413 36.2748 H 0.0 **** 0.053
157 H11138 13.3865 77.5298 31.3373 H 0.0 **** 0.053
158 C11031 21.0191 76.16 37.506 C.ar 0.0 **** 0.2405
159 C11058 15.509 69.589 46.9236 C.2 0.0 **** 0.0
160 C11010 16.2128 70.2845 41.7005 C.2 0.0 **** 0.0
161 C10979 16.6627 57.774 52.6606 C.2 0.0 **** 0.0
162 C11047 11.8245 76.0595 30.9509 C.3 0.0 **** -0.086
163 C11001 13.3786 68.5783 46.3312 C.3 0.0 **** -0.053
164 C10980 17.843 58.5136 52.2197 C.2 0.0 **** 0.0
165 C10998 15.2347 67.1423 46.9149 C.ar 0.0 **** 0.0
166 H11079 17.4727 74.1469 50.9028 H 0.0 **** 0.053
167 C10995 15.0113 65.0377 48.1186 C.ar 0.0 **** 0.0
168 H11090 17.6596 76.9466 51.411 H 0.0 **** 0.053
169 H11114 17.9194 70.4695 44.2966 H 0.0 **** 0.053
170 C10977 18.2577 54.9559 54.5446 C.ar 0.0 **** -0.1268
171 C11013 17.5057 68.5474 43.41 C.3 0.0 **** -0.106
172 O11054 9.34904 73.2271 33.1841 O.3 0.0 **** -0.452
173 C11035 22.8986 75.906 39.049 C.ar 0.0 **** 0.0
174 C11045 13.4749 75.9491 32.8168 C.3 0.0 **** -0.106
175 H11095 24.1261 53.606 56.4773 H 0.0 **** 0.053
176 C10994 13.5773 65.1896 48.135 C.ar 0.0 **** 0.0
177 H11112 17.645 71.7694 42.3127 H 0.0 **** 0.053
178 H11128 20.3497 73.7786 39.8985 H 0.0 **** 0.1268
179 C11041 11.1125 72.9414 34.7748 C.ar 0.0 **** -0.1268
180 C10987 13.8941 61.1358 50.5168 C.2 0.0 **** 0.0
181 H11115 19.2517 69.8588 43.2976 H 0.0 **** 0.053
182 C10986 13.9522 59.984 51.2408 C.2 0.0 **** -0.1268
183 H11084 13.1073 76.018 52.8759 H 0.0 **** 0.053
184 H11143 14.4468 56.8799 53.2397 H 0.0 **** 0.41
185 C11057 14.1274 69.697 46.9933 C.2 0.0 **** 0.0
186 O11075 12.1329 70.7799 47.7088 O.3 0.0 **** -0.452
187 C10967 22.1005 53.6164 55.6425 C.ar 0.0 **** 0.0
188 C11064 14.4407 73.7631 49.7646 C.ar 0.0 **** 0.0
@<TRIPOS>BOND
1 68 67 1
2 85 86 1
3 180 129 1
4 139 144 1
5 45 46 am
6 187 71 1
7 128 187 am
8 72 128 1
9 99 71 1
10 99 72 1
11 145 112 am
12 31 145 am
13 5 31 am
14 128 112 am
15 187 5 am
16 11 76 am
17 13 11 un
18 170 13 am
19 31 76 am
20 145 170 am
21 161 118 un
22 164 161 un
23 101 164 un
24 13 118 un
25 11 101 un
26 152 85 un
27 132 152 un
28 98 132 un
29 164 85 un
30 161 98 un
31 180 182 un
32 52 180 un
33 81 52 un
34 132 182 un
35 152 81 un
36 42 93 am
37 129 42 1
38 52 93 1
39 176 115 am
40 167 176 am
41 36 167 am
42 42 115 am
43 93 36 am
44 165 135 am
45 59 165 am
46 78 59 am
47 167 135 am
48 176 78 am
49 3 163 1
50 62 3 1
51 146 62 1
52 59 163 1
53 165 146 1
54 3 131 2
55 131 25 1
56 25 51 1
57 51 27 un
58 27 57 1
59 62 57 2
60 41 160 1
61 148 41 1
62 171 148 1
63 27 160 un
64 57 171 1
65 134 83 un
66 43 134 un
67 160 43 un
68 51 83 un
69 151 87 1
70 122 151 am
71 120 122 1
72 43 87 1
73 134 120 1
74 150 154 am
75 142 150 am
76 114 142 am
77 122 154 am
78 151 114 am
79 96 68 1
80 108 96 am
81 29 108 1
82 114 68 1
83 142 29 1
84 103 1 am
85 158 103 am
86 45 158 am
87 108 1 am
88 96 45 am
89 64 46 am
90 173 64 am
91 66 173 am
92 158 66 am
93 30 139 1
94 18 30 am
95 90 18 1
96 150 139 1
97 154 90 1
98 121 179 am
99 24 121 am
100 153 24 am
101 18 179 am
102 30 153 am
103 33 174 1
104 162 33 1
105 105 162 1
106 153 174 1
107 24 105 1
108 112 149 1
109 98 50 1
110 146 32 1
111 131 56 1
112 25 133 2
113 121 172 1
114 105 77 2
115 173 34 1
116 49 159 un
117 53 49 un
118 137 53 un
119 47 137 un
120 185 159 un
121 185 47 un
122 188 89 1
123 127 188 am
124 8 127 1
125 137 89 1
126 53 8 1
127 38 82 1
128 73 38 2
129 19 73 1
130 127 82 1
131 188 19 1
132 102 65 1
133 147 102 1
134 136 147 1
135 73 65 1
136 38 136 1
137 47 186 1
138 49 4 1
139 89 106 2
140 8 28 2
141 82 166 1
142 82 23 1
143 19 107 1
144 19 22 1
145 65 20 1
146 65 183 1
147 102 79 1
148 102 141 1
149 147 44 1
150 147 54 1
151 136 155 1
152 136 168 1
153 186 21 1
154 4 15 1
155 146 159 1
156 163 185 1
157 99 9 1
158 99 91 1
159 71 175 1
160 71 126 1
161 72 119 1
162 72 143 1
163 5 138 1
164 76 69 1
165 170 125 1
166 118 140 1
167 101 6 1
168 182 14 1
169 129 35 1
170 129 2 1
171 115 113 1
172 36 124 1
173 135 109 1
174 78 97 1
175 163 39 1
176 41 177 1
177 41 48 1
178 148 169 1
179 148 181 1
180 171 75 1
181 171 88 1
182 83 17 1
183 87 40 1
184 87 104 1
185 120 60 1
186 120 55 1
187 68 26 1
188 29 123 1
189 29 80 1
190 1 84 1
191 46 178 1
192 64 63 1
193 66 110 1
194 139 94 1
195 90 156 1
196 90 7 1
197 179 95 1
198 174 61 1
199 174 74 1
200 33 157 1
201 33 111 1
202 162 58 1
203 162 117 1
204 149 12 1
205 50 184 1
206 32 116 1
207 32 100 1
208 32 37 1
209 56 70 1
210 172 92 1
211 34 10 1
212 34 16 1
213 34 130 1
@<TRIPOS>MOLECULE
Sketch 4
250 292
SMALL
USER_CHARGES


@<TRIPOS>ATOM
1 C24983 4.91513 8.18712 10.8235 C.3 0.0 **** -0.106
2 H25138 13.7326 17.1241 21.8591 H 0.0 **** 0.053
3 C24952 13.5053 14.5671 14.1303 C.2 0.0 **** -0.012
4 C24992 12.7458 18.7556 7.31503 C.3 0.0 **** 0.107
5 C25021 14.8433 17.8407 20.1241 C.3 0.0 **** -0.053
6 C24942 19.0942 13.8125 19.7564 C.3 0.0 **** -0.106
7 C24938 20.3067 15.4704 18.3484 C.2 0.0 **** 0.0
8 O25006 5.4377 13.2524 4.36033 O.3 0.0 **** -0.0685
9 C24917 21.1281 20.3699 13.8377 C.3 0.0 **** -0.053
10 H25057 21.8645 23.58 16.2629 H 0.0 **** 0.053
11 O25051 -4.54302 5.17915 2.54587 O.2 0.0 **** -0.419
12 H25105 5.52203 8.16539 9.90814 H 0.0 **** 0.053
13 H25089 16.5424 13.4488 20.6797 H 0.0 **** 0.053
14 C25041 -2.927 6.71485 0.839117 C.2 0.0 **** -0.1268
15 C25011 3.16607 10.5925 5.54106 C.2 0.0 **** 0.0
16 H25118 11.1859 20.8697 4.46034 H 0.0 **** 0.053
17 C24911 20.8036 21.7292 15.9895 C.3 0.0 **** -0.053
18 C25010 2.99733 9.62562 6.68279 C.3 0.0 **** -0.053
19 C24916 21.3134 19.2382 14.8643 C.3 0.0 **** 0.107
20 H25110 3.35467 8.96598 12.9887 H 0.0 **** 0.353
21 C25045 -2.48299 6.19599 3.26971 C.2 0.0 **** 0.052
22 C24991 12.4632 18.0411 6.00413 C.3 0.0 **** 0.107
23 H25065 21.9019 21.6449 19.5157 H 0.0 **** 0.053
24 H25098 7.54989 7.87868 14.2343 H 0.0 **** 0.053
25 H25142 3.29293 13.3036 0.0113051 H 0.0 **** 0.1268
26 C24918 21.2646 21.7555 14.5347 C.3 0.0 **** -0.106
27 H25052 17.5893 23.2987 18.5218 H 0.0 **** 0.053
28 H25061 20.9761 20.1255 17.4746 H 0.0 **** 0.053
29 H25093 10.5729 11.8495 13.9974 H 0.0 **** 0.1268
30 H25109 2.07038 7.51256 11.8467 H 0.0 **** 0.053
31 C24987 12.0682 16.7498 8.40785 C.2 0.0 **** 0.042
32 C24954 12.5151 13.6185 14.1554 C.2 0.0 **** -0.1268
33 H25116 9.98994 19.5492 6.27858 H 0.0 **** 0.053
34 C24956 11.7952 14.2482 11.887 C.2 0.0 **** 0.0
35 C25003 5.10118 11.6444 6.65372 C.2 0.0 **** 0.0
36 H25137 14.9129 18.4042 22.2347 H 0.0 **** 0.053
37 H25064 22.986 22.9269 18.9719 H 0.0 **** 0.053
38 C24937 19.098 15.993 17.9888 C.2 0.0 **** 0.0
39 C25002 7.32486 14.2953 5.32716 C.2 0.0 **** -0.1268
40 N24986 3.58212 7.99331 13.1988 N.3 0.0 **** -0.727
41 H25079 22.3416 17.4642 16.36 H 0.0 **** 0.1268
42 C24997 12.2465 19.0095 4.83943 C.3 0.0 **** -0.106
43 H25092 12.3778 12.9861 15.0355 H 0.0 **** 0.1268
44 C24980 5.52911 8.59231 14.59 C.3 0.0 **** -0.106
45 H25119 13.1939 19.125 4.29192 H 0.0 **** 0.053
46 H25086 16.6062 17.1267 21.1271 H 0.0 **** 0.053
47 C25032 1.32914 11.4685 -0.264575 C.2 0.0 **** -0.1268
48 C25018 3.63672 12.1829 3.23231 C.2 0.0 **** 0.0
49 H25107 3.38126 6.89014 9.9877 H 0.0 **** 0.053
50 H25145 -1.95468 9.01688 -2.38515 H 0.0 **** 0.1268
51 C24967 13.9924 17.0271 10.7087 C.2 0.0 **** -0.1268
52 C24909 19.7563 24.0644 16.1852 C.3 0.0 **** 0.054
53 H25147 -3.19631 7.23406 -1.22073 H 0.0 **** 0.1268
54 C24979 7.04152 8.82139 14.5001 C.3 0.0 **** -0.106
55 C25050 -3.6318 5.24527 3.37239 C.2 0.0 **** 0.347
56 O24990 11.2528 17.2743 6.1841 O.3 0.0 **** -0.202
57 C24926 17.8225 19.1346 12.2861 C.2 0.0 **** 0.0
58 C24977 7.32115 9.88518 13.4315 C.3 0.0 **** -0.053
59 C24971 10.0941 14.742 8.57428 C.2 0.0 **** 0.0
60 H25053 18.0869 22.3386 17.1022 H 0.0 **** 0.053
61 H25146 -3.69834 5.9524 0.821886 H 0.0 **** 0.1268
62 C24985 3.05171 7.11481 12.1451 C.3 0.0 **** 0.081
63 C24969 12.0255 15.9293 9.59015 C.2 0.0 **** 0.0
64 S24953 14.4291 14.7359 15.6149 S.2 0.0 **** 0.024
65 H25075 19.2851 22.077 12.0657 H 0.0 **** 0.053
66 H25055 19.6313 21.3777 18.5616 H 0.0 **** 0.053
67 C25046 -1.69744 6.41769 4.40891 C.2 0.0 **** 0.0
68 C24988 11.2006 16.5408 7.34686 C.2 0.0 **** 0.042
69 C24905 18.438 23.0609 17.8661 C.3 0.0 **** 0.054
70 C24934 20.2161 17.4529 16.3111 C.2 0.0 **** 0.0
71 C24920 18.9223 19.2862 13.2188 C.2 0.0 **** 0.0
72 H25073 19.0449 21.1786 9.77084 H 0.0 **** 0.053
73 C24907 20.9628 23.0547 18.1517 C.3 0.0 **** -0.053
74 C25022 13.798 17.4092 19.0873 C.3 0.0 **** -0.159
75 H25056 21.0357 24.0825 18.5362 H 0.0 **** 0.053
76 H25066 21.8384 18.4014 14.3805 H 0.0 **** 0.053
77 H25130 0.793108 10.0295 9.81713 H 0.0 **** 0.053
78 H25114 12.0404 20.5361 8.30263 H 0.0 **** 0.053
79 H25081 20.6051 15.2067 20.453 H 0.0 **** 0.053
80 H25099 7.4641 9.14735 15.4589 H 0.0 **** 0.053
81 H25090 17.1462 14.7014 21.7567 H 0.0 **** 0.053
82 O24910 18.7962 24.2898 17.2246 O.3 0.0 **** -0.32
83 H25144 -0.214835 10.7883 -2.36796 H 0.0 **** 0.1268
84 C24957 12.8104 15.2436 11.8553 C.2 0.0 **** 0.0
85 C25000 6.17589 12.5431 6.57794 C.2 0.0 **** 0.0
86 H25149 -0.845225 5.45051 6.11865 H 0.0 **** 0.053
87 C24906 19.6276 22.4747 18.662 C.3 0.0 **** -0.106
88 H25101 5.24302 8.02281 15.4848 H 0.0 **** 0.053
89 C24908 20.9198 23.1344 16.617 C.3 0.0 **** -0.053
90 C24960 9.84111 12.1714 11.9905 C.2 0.0 **** 0.0
91 C25031 0.335679 10.4765 -0.290559 C.2 0.0 **** 0.0
92 H25143 1.52879 12.0434 -1.17156 H 0.0 **** 0.1268
93 C24976 6.42791 9.67913 12.1826 C.3 0.0 **** 0.107
94 C24982 5.82635 8.28031 12.0587 C.3 0.0 **** -0.053
95 C24912 21.6319 20.664 16.7634 C.3 0.0 **** 0.107
96 H25058 19.2424 23.6323 15.3012 H 0.0 **** 0.053
97 H25154 -4.18348 3.41065 4.28895 H 0.0 **** 0.053
98 H25122 7.41217 14.9232 4.43978 H 0.0 **** 0.1268
99 H25113 10.9333 19.1603 8.40745 H 0.0 **** 0.053
100 C24966 12.9432 16.0848 10.6994 C.2 0.0 **** 0.0
101 C24994 11.6031 19.7068 7.72764 C.3 0.0 **** -0.106
102 H25135 13.2654 16.5082 19.429 H 0.0 **** 0.053
103 C24970 9.07949 13.7514 8.63411 C.2 0.0 **** 0.0
104 H25078 22.3868 15.9292 18.3052 H 0.0 **** 0.053
105 C24924 16.8334 17.3973 13.7277 C.2 0.0 **** 0.0
106 C24944 17.9588 15.838 18.9222 C.2 0.0 **** 0.0
107 H25104 4.30227 9.10333 10.7686 H 0.0 **** 0.053
108 C24984 3.98198 6.9803 10.9068 C.3 0.0 **** -0.106
109 C25029 0.814417 9.97026 2.07062 C.2 0.0 **** 0.0
110 H25123 5.69099 10.3714 9.71816 H 0.0 **** 0.1268
111 C24921 18.9466 18.4441 14.3883 C.2 0.0 **** 0.0
112 C24973 7.11381 12.6596 7.64186 C.2 0.0 **** 0.0
113 C25014 1.68193 9.52313 9.41032 C.3 0.0 **** -0.106
114 H25115 10.3505 21.2115 6.77641 H 0.0 **** 0.053
115 H25069 22.3236 22.0579 14.524 H 0.0 **** 0.053
116 C25048 -2.39572 4.17654 5.32194 C.3 0.0 **** -0.106
117 H25100 5.01855 9.5697 14.6621 H 0.0 **** 0.053
118 H25067 21.9876 20.3097 13.1429 H 0.0 **** 0.053
119 C24922 20.0073 18.6705 15.442 C.3 0.0 **** -0.053
120 H25152 -1.68775 3.64061 4.66874 H 0.0 **** 0.053
121 H25134 13.0494 18.2024 18.9418 H 0.0 **** 0.053
122 C24940 21.4242 16.9824 16.6939 C.2 0.0 **** -0.1268
123 C25019 0.882974 8.84632 5.65005 C.2 0.0 **** 0.0
124 O24993 12.9949 17.7653 8.33159 O.3 0.0 **** -0.202
125 C25001 6.32403 13.3683 5.42043 C.2 0.0 **** 0.042
126 C24946 16.0205 16.8487 20.2309 C.3 0.0 **** -0.053
127 H25084 17.4925 17.9145 19.0455 H 0.0 **** 0.053
128 H25120 11.5349 18.5288 4.15072 H 0.0 **** 0.053
129 O24915 22.2226 19.7005 15.8775 O.3 0.0 **** -0.32
130 H25070 19.5593 19.4378 16.1055 H 0.0 **** 0.053
131 H25125 3.40942 8.66021 6.32715 H 0.0 **** 0.053
132 C24923 17.9279 17.5468 14.6575 C.2 0.0 **** 0.0
133 H25108 2.87235 6.11868 12.5839 H 0.0 **** 0.053
134 C25025 3.86389 12.9414 2.03769 C.2 0.0 **** -0.1268
135 H25132 2.26503 11.4693 8.58528 H 0.0 **** 0.053
136 C24931 14.8538 17.1435 11.7776 C.2 0.0 **** 0.232
137 O24930 15.8244 18.1052 11.6352 O.3 0.0 **** -0.464
138 C25015 2.73791 10.575 9.02117 C.3 0.0 **** -0.106
139 C24948 16.8046 14.5219 20.7186 C.3 0.0 **** -0.106
140 C24936 17.9072 16.7528 15.8892 C.2 0.0 **** 0.0
141 C24949 15.7717 15.7694 15.1774 C.2 0.0 **** -0.012
142 C24974 8.16001 13.6129 7.56116 C.2 0.0 **** 0.0
143 C24947 15.5848 15.3903 20.411 C.3 0.0 **** -0.106
144 C24989 10.1765 15.5605 7.40712 C.2 0.0 **** 0.0
145 C24932 14.7584 16.3503 12.9354 C.2 0.0 **** 0.0
146 C25033 -0.422412 10.2023 -1.47078 C.2 0.0 **** -0.1268
147 C25042 -2.64797 7.44177 -0.299399 C.2 0.0 **** -0.1268
148 C24972 6.97386 11.8188 8.78617 C.2 0.0 **** 0.0
149 H25076 20.8522 21.4743 11.5261 H 0.0 **** 0.053
150 H25083 18.9729 13.0851 18.9306 H 0.0 **** 0.053
151 H25074 19.7337 19.6214 10.2821 H 0.0 **** 0.053
152 C25027 2.07553 11.7311 0.888748 C.2 0.0 **** 0.0
153 H25139 13.3763 18.8085 21.4219 H 0.0 **** 0.053
154 C24964 7.96751 11.8891 9.82886 C.2 0.0 **** 0.0
155 C25020 1.25696 9.4904 4.43789 C.2 0.0 **** 0.0
156 C24913 22.7588 21.3145 17.5476 C.3 0.0 **** -0.106
157 C25043 -0.0641677 7.84723 5.62759 C.2 0.0 **** -0.1268
158 H25126 1.03337 10.3997 7.03481 H 0.0 **** 0.053
159 H25128 0.227005 8.31609 8.31909 H 0.0 **** 0.053
160 O25024 9.62221 9.92084 14.1107 O.3 0.0 **** -0.57
161 C25004 4.92167 10.882 7.81529 C.2 0.0 **** 0.0
162 C25013 1.27436 8.63183 8.2106 C.3 0.0 **** -0.106
163 H25129 2.08236 8.8879 10.213 H 0.0 **** 0.053
164 C25037 -1.21379 7.94813 2.06207 C.2 0.0 **** 0.0
165 H25127 1.8853 7.71354 8.18249 H 0.0 **** 0.053
166 C24941 20.4025 14.5836 19.5583 C.3 0.0 **** -0.106
167 H25087 15.1157 15.0372 19.4781 H 0.0 **** 0.053
168 H25121 9.36969 16.0366 5.46469 H 0.0 **** 0.1268
169 H25088 14.8346 15.2975 21.2112 H 0.0 **** 0.053
170 H25131 3.29036 10.9182 9.9089 H 0.0 **** 0.053
171 C24959 9.91671 13.0381 10.8408 C.2 0.0 **** 0.0
172 C24968 11.0188 14.9194 9.64687 C.2 0.0 **** 0.0
173 C25012 1.49105 9.39758 6.91051 C.3 0.0 **** -0.053
174 C24939 21.5531 15.7896 17.5896 C.3 0.0 **** -0.106
175 C25030 0.0737578 9.71339 0.892939 C.2 0.0 **** 0.0
176 C24928 19.1317 20.4812 10.618 C.3 0.0 **** -0.106
177 C24919 19.9057 20.2358 12.9913 C.2 0.0 **** 0.0
178 C24914 22.1916 22.2435 18.6364 C.3 0.0 **** -0.106
179 C24925 16.8515 18.2098 12.5536 C.2 0.0 **** 0.232
180 H25096 7.09516 10.8728 13.8643 H 0.0 **** 0.053
181 C25016 2.32518 10.4527 4.42662 C.2 0.0 **** 0.0
182 O24975 7.17328 9.8905 10.9502 O.3 0.0 **** -0.202
183 C25028 1.81629 10.9767 2.0784 C.2 0.0 **** 0.0
184 H25124 4.08609 9.04288 8.43801 H 0.0 **** 0.053
185 C25047 -1.83095 5.55469 5.64389 C.3 0.0 **** -0.106
186 H25085 16.3387 17.0077 18.0963 H 0.0 **** 0.053
187 C24961 10.6868 12.4221 13.0822 C.2 0.0 **** -0.1268
188 H25091 16.7967 15.2287 16.961 H 0.0 **** 0.1268
189 C25049 -3.72448 4.35745 4.60716 C.3 0.0 **** -0.086
190 C25008 4.2067 11.5252 5.52774 C.2 0.0 **** 0.0
191 H25082 19.1131 13.2345 20.6935 H 0.0 **** 0.053
192 C24996 11.7172 20.3856 5.29291 C.3 0.0 **** -0.106
193 C25035 -1.66378 8.45543 -0.309257 C.2 0.0 **** 0.0
194 C25040 -2.23264 6.94972 2.05827 C.2 0.0 **** 0.0
195 C24962 8.91625 11.0856 11.9712 C.2 0.0 **** 0.0
196 H25103 6.66977 7.58078 11.9306 H 0.0 **** 0.053
197 H25141 4.65668 13.6893 2.0366 H 0.0 **** 0.1268
198 H25077 21.8662 14.9055 16.9915 H 0.0 **** 0.053
199 C25026 3.10988 12.7244 0.918082 C.2 0.0 **** -0.1268
200 C24950 16.801 15.871 16.0807 C.2 0.0 **** -0.1268
201 H25136 14.2452 17.1811 18.1079 H 0.0 **** 0.053
202 H25062 23.3881 21.8827 16.8437 H 0.0 **** 0.053
203 C24981 5.0325 7.85858 13.3405 C.3 0.0 **** 0.134
204 C24951 13.7048 15.4015 12.9726 C.2 0.0 **** 0.0
205 C25017 2.58347 11.2154 3.25254 C.2 0.0 **** 0.0
206 C24999 9.27561 15.4012 6.34392 C.2 0.0 **** -0.1268
207 C24958 10.9092 14.0647 10.7931 C.2 0.0 **** 0.0
208 H25106 4.5871 6.06273 10.9832 H 0.0 **** 0.053
209 C25039 0.537803 9.21848 3.25573 C.2 0.0 **** 0.0
210 H25150 -2.48231 6.05766 6.3835 H 0.0 **** 0.053
211 H25059 20.1239 25.0646 15.9162 H 0.0 **** 0.053
212 H25133 15.2718 18.8055 19.7965 H 0.0 **** 0.053
213 H25097 8.95812 8.9965 12.3813 H 0.0 **** 0.053
214 C25034 -1.38379 9.22668 -1.4785 C.2 0.0 **** -0.1268
215 C24998 8.25887 14.448 6.39942 C.2 0.0 **** 0.0
216 C25044 -0.735407 7.47471 4.43345 C.2 0.0 **** 0.0
217 C25005 5.84352 10.9806 8.84126 C.2 0.0 **** -0.1268
218 C24943 17.9348 14.7784 19.7651 C.2 0.0 **** 0.0
219 H25063 23.3951 20.5358 17.9921 H 0.0 **** 0.053
220 C24933 15.7678 16.5175 13.9537 C.2 0.0 **** 0.0
221 H25102 5.22022 6.78108 13.4868 H 0.0 **** 0.053
222 H25054 19.5279 22.6985 19.7352 H 0.0 **** 0.053
223 H25071 17.2534 19.4401 10.2383 H 0.0 **** 0.053
224 C25038 -0.474298 8.21655 3.24869 C.2 0.0 **** 0.0
225 C24963 8.00964 10.9858 10.9328 C.2 0.0 **** 0.042
226 C24929 19.8341 21.151 11.8014 C.3 0.0 **** -0.106
227 H25151 -2.51408 3.58205 6.24057 H 0.0 **** 0.053
228 C25007 4.42223 12.3243 4.39194 C.2 0.0 **** 0.0265
229 C24927 17.7482 19.9936 11.0493 C.3 0.0 **** -0.106
230 C25023 14.1803 18.0598 21.4879 C.3 0.0 **** -0.159
231 H25080 21.2575 13.8968 19.4527 H 0.0 **** 0.053
232 H25117 12.5643 21.0442 5.55036 H 0.0 **** 0.053
233 C25009 3.7259 9.98547 7.99827 C.3 0.0 **** -0.053
234 H25148 -0.332309 7.36317 6.56282 H 0.0 **** 0.1268
235 H25153 -4.4474 4.84597 5.28651 H 0.0 **** 0.053
236 C24978 8.78059 9.92882 12.9563 C.3 0.0 **** 0.107
237 C24995 10.8076 20.2449 6.51859 C.3 0.0 **** -0.106
238 C24965 8.98694 12.8804 9.77023 C.2 0.0 **** 0.0
239 C24955 11.6541 13.4216 13.0438 C.2 0.0 **** 0.0
240 H25072 17.1062 20.8706 11.2566 H 0.0 **** 0.053
241 H25095 5.60606 10.4194 12.191 H 0.0 **** 0.053
242 H25112 13.6982 19.2978 7.22919 H 0.0 **** 0.053
243 H25060 19.7405 21.4406 16.0092 H 0.0 **** 0.053
244 C24935 19.0041 16.7678 16.753 C.2 0.0 **** 0.0
245 H25094 14.1576 17.6845 9.86772 H 0.0 **** 0.1268
246 C24945 16.9454 16.9554 19.0131 C.3 0.0 **** -0.106
247 C25036 -0.933378 8.70345 0.883321 C.2 0.0 **** 0.0
248 H25068 20.7069 22.5201 13.9738 H 0.0 **** 0.053
249 H25140 10.5324 9.78922 13.8034 H 0.0 **** 0.41
250 H25111 13.2831 17.3341 5.79413 H 0.0 **** 0.053
@<TRIPOS>BOND
1 93 94 1
2 136 137 1
3 214 50 1
4 172 59 un
5 112 85 un
6 145 204 un
7 73 87 1
8 89 73 1
9 52 89 1
10 82 52 1
11 69 87 1
12 69 82 1
13 95 17 1
14 156 95 1
15 178 156 1
16 89 17 1
17 73 178 1
18 19 129 1
19 9 19 1
20 26 9 1
21 95 129 1
22 17 26 1
23 71 177 un
24 111 71 un
25 119 111 un
26 9 177 1
27 19 119 1
28 105 132 1
29 179 105 un
30 57 179 un
31 111 132 un
32 71 57 un
33 176 229 1
34 226 176 1
35 177 226 1
36 57 229 1
37 145 136 un
38 220 145 un
39 179 137 1
40 105 220 un
41 244 70 un
42 140 244 2
43 119 70 1
44 132 140 un
45 7 38 2
46 174 7 1
47 122 174 1
48 244 38 1
49 70 122 2
50 6 166 1
51 218 6 1
52 106 218 2
53 7 166 1
54 38 106 1
55 126 246 1
56 143 126 1
57 139 143 1
58 106 246 1
59 218 139 1
60 200 141 un
61 140 200 un
62 220 141 un
63 3 204 un
64 64 3 1
65 141 64 un
66 239 32 un
67 34 239 un
68 84 34 un
69 3 32 un
70 204 84 un
71 171 207 un
72 90 171 un
73 187 90 un
74 34 207 un
75 239 187 un
76 225 195 un
77 154 225 un
78 238 154 un
79 90 195 un
80 171 238 un
81 51 100 un
82 136 51 un
83 84 100 un
84 63 172 un
85 100 63 un
86 207 172 un
87 59 103 un
88 238 103 un
89 112 148 un
90 142 112 un
91 103 142 un
92 154 148 un
93 93 182 1
94 58 93 1
95 236 58 1
96 225 182 1
97 195 236 1
98 44 54 1
99 203 44 1
100 94 203 1
101 58 54 1
102 108 1 1
103 62 108 1
104 40 62 1
105 94 1 1
106 203 40 1
107 68 31 un
108 144 68 un
109 59 144 un
110 63 31 un
111 22 56 1
112 4 22 1
113 124 4 1
114 68 56 1
115 31 124 1
116 237 101 1
117 192 237 1
118 42 192 1
119 4 101 1
120 22 42 1
121 206 215 un
122 144 206 un
123 142 215 un
124 125 85 un
125 39 125 un
126 215 39 un
127 161 35 un
128 217 161 un
129 148 217 un
130 85 35 un
131 228 8 1
132 190 228 un
133 125 8 1
134 35 190 1
135 18 233 1
136 15 18 1
137 161 233 1
138 190 15 un
139 162 173 1
140 113 162 1
141 138 113 1
142 18 173 1
143 233 138 1
144 205 181 1
145 48 205 1
146 228 48 un
147 15 181 un
148 173 123 1
149 181 155 un
150 123 155 un
151 126 5 1
152 5 74 1
153 5 230 1
154 236 160 1
155 199 134 1
156 152 199 un
157 183 152 1
158 48 134 un
159 205 183 un
160 175 109 un
161 91 175 1
162 47 91 un
163 183 109 un
164 152 47 un
165 214 146 un
166 193 214 1
167 247 193 1
168 91 146 un
169 175 247 un
170 224 164 un
171 209 224 un
172 109 209 un
173 247 164 un
174 14 194 un
175 147 14 un
176 193 147 un
177 164 194 un
178 216 157 un
179 224 216 un
180 155 209 un
181 123 157 un
182 67 21 un
183 216 67 un
184 194 21 un
185 116 185 1
186 189 116 1
187 55 189 1
188 67 185 1
189 21 55 1
190 55 11 2
191 69 27 1
192 69 60 1
193 87 222 1
194 87 66 1
195 73 75 1
196 89 10 1
197 52 96 1
198 52 211 1
199 17 243 1
200 95 28 1
201 156 202 1
202 156 219 1
203 178 37 1
204 178 23 1
205 19 76 1
206 9 118 1
207 26 248 1
208 26 115 1
209 119 130 1
210 229 223 1
211 229 240 1
212 176 72 1
213 176 151 1
214 226 65 1
215 226 149 1
216 174 198 1
217 174 104 1
218 122 41 1
219 166 231 1
220 166 79 1
221 6 191 1
222 6 150 1
223 246 127 1
224 246 186 1
225 126 46 1
226 143 167 1
227 143 169 1
228 139 13 1
229 139 81 1
230 200 188 1
231 32 43 1
232 187 29 1
233 51 245 1
234 93 241 1
235 58 180 1
236 236 213 1
237 54 24 1
238 54 80 1
239 44 117 1
240 44 88 1
241 203 221 1
242 94 196 1
243 1 107 1
244 1 12 1
245 108 208 1
246 108 49 1
247 62 133 1
248 62 30 1
249 40 20 1
250 22 250 1
251 4 242 1
252 101 99 1
253 101 78 1
254 237 114 1
255 237 33 1
256 192 232 1
257 192 16 1
258 42 45 1
259 42 128 1
260 206 168 1
261 39 98 1
262 217 110 1
263 233 184 1
264 18 131 1
265 173 158 1
266 162 165 1
267 162 159 1
268 113 163 1
269 113 77 1
270 138 170 1
271 138 135 1
272 5 212 1
273 74 121 1
274 74 102 1
275 74 201 1
276 230 36 1
277 230 2 1
278 230 153 1
279 160 249 1
280 134 197 1
281 199 25 1
282 47 92 1
283 146 83 1
284 14 61 1
285 147 53 1
286 157 234 1
287 185 86 1
288 185 210 1
289 116 227 1
290 116 120 1
291 189 235 1
292 189 97 1
@<TRIPOS>MOLECULE
Sketch 4
250 292
SMALL
USER_CHARGES


@<TRIPOS>ATOM
1 C17292 60.3068 49.8278 -9.32825 C.2 0.0 **** -0.1268
2 H17379 60.2176 38.301 -7.87761 H 0.0 **** 0.053
3 H17404 60.9454 46.137 -14.3909 H 0.0 **** 0.053
4 C17161 63.158 26.2144 11.9723 C.3 0.0 **** -0.053
5 H17351 61.8055 32.3007 -7.81102 H 0.0 **** 0.053
6 C17215 62.3943 36.287 -0.460396 C.2 0.0 **** 0.0
7 C17286 60.369 48.1029 -7.61023 C.2 0.0 **** 0.0
8 C17284 60.2362 50.4631 -6.92706 C.2 0.0 **** -0.1268
9 C17164 63.17 23.2416 12.5725 C.3 0.0 **** -0.106
10 C17285 60.3017 49.478 -7.95935 C.2 0.0 **** 0.0
11 C17209 62.6896 34.9625 -0.0202107 C.2 0.0 **** 0.0
12 H17399 61.4583 43.2359 -11.2329 H 0.0 **** 0.053
13 C17181 63.108 32.307 5.88572 C.2 0.0 **** 0.232
14 O17256 60.904 42.5618 -1.10002 O.3 0.0 **** -0.0685
15 H17388 60.0493 23.192 2.65247 H 0.0 **** 0.053
16 C17186 64.5618 27.4216 6.51928 C.2 0.0 **** 0.0
17 C17291 60.3497 48.87 -10.3199 C.2 0.0 **** -0.1268
18 H17312 64.6555 24.538 13.5151 H 0.0 **** 0.053
19 C17248 61.5857 39.661 1.06028 C.2 0.0 **** 0.0
20 C17246 60.1915 39.3741 7.873 C.3 0.0 **** -0.106
21 C17228 63.5394 33.4398 -3.5406 C.3 0.0 **** 0.107
22 C17235 61.6613 36.2065 -9.03741 C.3 0.0 **** 0.081
23 S17203 63.5823 28.9046 2.90237 S.2 0.0 **** 0.024
24 C17193 65.0461 23.8188 4.13033 C.2 0.0 **** 0.0
25 C17182 63.3194 31.2713 4.95758 C.2 0.0 **** 0.0
26 C17241 62.1473 38.5202 6.45717 C.3 0.0 **** 0.107
27 H17359 60.7758 36.8057 -9.29642 H 0.0 **** 0.053
28 C17157 61.8729 24.0877 12.5046 C.3 0.0 **** -0.053
29 C17288 60.4823 45.7355 -8.26224 C.2 0.0 **** 0.0
30 H17376 59.1801 41.6029 -6.64956 H 0.0 **** 0.053
31 H17307 62.571 25.5485 13.9312 H 0.0 **** 0.053
32 H17347 64.4295 33.9479 -3.96611 H 0.0 **** 0.053
33 C17242 61.5582 37.1709 6.8331 C.3 0.0 **** 0.107
34 C17207 62.9659 32.9735 3.17894 C.2 0.0 **** 0.0
35 C17198 64.2187 23.3078 2.98736 C.3 0.0 **** -0.106
36 C17244 60.0214 37.1393 6.6991 C.3 0.0 **** -0.106
37 H17365 58.3409 38.413 7.23887 H 0.0 **** 0.053
38 C17223 61.727 38.9261 -1.28343 C.2 0.0 **** 0.0
39 C17271 60.7271 24.4323 4.31356 C.3 0.0 **** -0.053
40 H17382 58.9541 39.6994 -5.47041 H 0.0 **** 0.053
41 H17335 62.7958 25.8631 5.15965 H 0.0 **** 0.053
42 O17165 65.5535 25.9006 11.4197 O.3 0.0 **** -0.32
43 H17377 61.3434 40.3121 -8.35629 H 0.0 **** 0.053
44 H17333 67.1123 24.3037 3.76033 H 0.0 **** 0.053
45 C17201 63.2258 31.6168 3.58518 C.2 0.0 **** 0.0
46 H17355 63.1705 37.4536 -6.14308 H 0.0 **** 0.053
47 C17196 62.1976 23.9645 4.31051 C.3 0.0 **** -0.053
48 C17179 63.831 30.4993 11.9745 C.3 0.0 **** -0.106
49 C17281 60.3088 48.732 -5.2159 C.2 0.0 **** 0.0
50 C17214 62.3486 36.6021 -1.84748 C.2 0.0 **** 0.0
51 H17384 59.5024 26.1376 3.7314 H 0.0 **** 0.053
52 C17176 63.6979 30.7753 9.10169 C.2 0.0 **** 0.0
53 C17294 60.5373 44.7286 -9.26488 C.2 0.0 **** 0.0
54 C17219 62.4679 35.3504 3.74414 C.2 0.0 **** 0.0
55 H17326 64.3807 30.4076 12.9266 H 0.0 **** 0.053
56 H17356 63.7102 36.8146 -8.54129 H 0.0 **** 0.053
57 C17213 62.7428 35.574 -2.75522 C.2 0.0 **** 0.042
58 H17367 60.2725 38.8287 8.82888 H 0.0 **** 0.053
59 O17180 63.1592 32.088 7.24096 O.3 0.0 **** -0.464
60 C17166 65.4673 27.1729 10.7557 C.3 0.0 **** 0.107
61 C17234 62.6812 37.0638 -8.23646 C.3 0.0 **** -0.106
62 H17383 60.4414 24.5697 5.37249 H 0.0 **** 0.053
63 H17332 66.707 22.5927 3.52039 H 0.0 **** 0.053
64 C17156 61.2244 24.0719 11.105 C.3 0.0 **** -0.106
65 C17216 62.7473 33.9935 4.16549 C.2 0.0 **** 0.0
66 C17187 65.4302 25.0664 6.19903 C.2 0.0 **** 0.0
67 H17392 60.3674 47.3752 -1.34495 H 0.0 **** 0.1268
68 C17238 61.9876 37.7222 4.22427 C.2 0.0 **** 0.042
69 C17190 66.6667 25.4767 8.72284 C.2 0.0 **** -0.1268
70 H17393 60.2698 49.1167 -3.09336 H 0.0 **** 0.1268
71 H17339 64.7771 23.4627 2.04616 H 0.0 **** 0.053
72 C17158 62.1377 25.5449 12.917 C.3 0.0 **** -0.053
73 H17403 59.5561 45.2459 -13.7578 H 0.0 **** 0.053
74 C17197 62.8485 23.9824 2.92297 C.3 0.0 **** -0.106
75 C17189 67.3661 24.6237 7.71046 C.3 0.0 **** -0.106
76 H17327 68.3228 25.1067 7.41217 H 0.0 **** 0.053
77 C17249 61.6549 39.345 2.41704 C.2 0.0 **** -0.1268
78 C17247 61.6011 39.6622 7.31666 C.3 0.0 **** -0.106
79 H17364 59.629 36.4276 7.44026 H 0.0 **** 0.053
80 C17171 64.472 28.4381 8.7891 C.2 0.0 **** 0.0
81 H17321 63.5596 32.8858 9.47221 H 0.0 **** 0.053
82 C17206 62.932 33.3125 1.79821 C.2 0.0 **** 0.0
83 C17183 63.6754 29.9689 5.46836 C.2 0.0 **** 0.0
84 H17314 63.1798 22.6398 13.4935 H 0.0 **** 0.053
85 O17240 61.788 38.7788 5.08256 O.3 0.0 **** -0.202
86 H17302 59.2776 24.865 10.4463 H 0.0 **** 0.053
87 H17397 60.2769 50.8852 -9.59959 H 0.0 **** 0.1268
88 C17259 61.115 39.8035 -5.48008 C.3 0.0 **** -0.053
89 H17323 63.7254 32.6754 11.9978 H 0.0 **** 0.053
90 C17252 61.2845 40.9884 0.621505 C.2 0.0 **** -0.1268
91 C17270 60.5463 43.9986 -6.52634 C.2 0.0 **** 0.0
92 C17282 60.3168 48.346 -3.86589 C.2 0.0 **** -0.1268
93 H17342 63.4817 30.1882 0.463606 H 0.0 **** 0.1268
94 O17274 63.8673 32.0706 -3.29835 O.3 0.0 **** -0.57
95 C17262 60.21 41.5946 -7.06006 C.3 0.0 **** -0.053
96 H17361 63.2471 38.4626 6.51397 H 0.0 **** 0.053
97 H17401 61.545 43.7341 -13.6896 H 0.0 **** 0.053
98 C17200 64.3508 27.6376 5.124 C.2 0.0 **** -0.1268
99 H17390 64.6596 32.058 -2.7395 H 0.0 **** 0.41
100 O17243 62.1756 36.1581 6.01507 O.3 0.0 **** -0.202
101 H17309 60.4274 26.4175 13.9957 H 0.0 **** 0.053
102 C17194 64.5318 24.5745 5.12953 C.2 0.0 **** 0.0
103 H17389 58.7522 23.6757 3.76557 H 0.0 **** 0.053
104 C17287 60.4212 47.1086 -8.63351 C.2 0.0 **** 0.0
105 C17278 60.458 45.9904 -4.49803 C.2 0.0 **** 0.0
106 H17308 60.9315 27.3329 12.5416 H 0.0 **** 0.053
107 H17395 60.1887 51.5143 -7.21792 H 0.0 **** 0.1268
108 C17253 61.2453 40.5608 -3.05919 C.2 0.0 **** 0.0
109 H17315 63.177 22.5279 11.7323 H 0.0 **** 0.053
110 C17195 63.0446 24.7976 5.27916 C.3 0.0 **** -0.106
111 H17316 66.5129 27.4757 10.5982 H 0.0 **** 0.053
112 C17264 59.6886 39.1733 -7.46842 C.3 0.0 **** -0.106
113 H17303 60.6011 26.0617 10.4139 H 0.0 **** 0.053
114 C17162 64.2843 25.2377 11.5281 C.3 0.0 **** 0.107
115 H17374 61.9083 39.2951 -6.04924 H 0.0 **** 0.053
116 C17277 60.3942 47.0021 -3.48615 C.2 0.0 **** 0.0
117 C17250 61.3966 40.246 -1.7004 C.2 0.0 **** 0.0
118 H17318 63.0098 28.1223 12.9898 H 0.0 **** 0.053
119 H17398 60.4093 42.5915 -9.6195 H 0.0 **** 0.1268
120 C17267 60.5614 44.6206 -4.1278 C.2 0.0 **** 0.0
121 C17299 60.5463 45.6565 -13.4863 C.3 0.0 **** -0.086
122 H17349 62.5882 31.5476 -5.57077 H 0.0 **** 0.053
123 C17293 60.4782 43.3684 -8.86279 C.2 0.0 **** -0.1268
124 H17378 59.7487 40.7233 -9.00416 H 0.0 **** 0.053
125 C17212 63.0688 34.2892 -2.36412 C.2 0.0 **** 0.0
126 H17366 59.3372 39.0496 5.91867 H 0.0 **** 0.053
127 H17352 63.091 34.2246 -8.23623 H 0.0 **** 0.053
128 C17178 64.0687 31.8683 11.3328 C.3 0.0 **** -0.106
129 C17279 60.4498 46.3625 -5.86851 C.2 0.0 **** 0.0
130 C17220 62.123 37.3011 0.517379 C.2 0.0 **** 0.0
131 H17346 61.5177 33.1242 -4.14802 H 0.0 **** 0.053
132 C17210 62.9667 33.9298 -0.98745 C.2 0.0 **** 0.0
133 C17261 60.8707 42.2878 -4.78149 C.2 0.0 **** 0.0
134 C17275 60.5504 45.2858 -1.75038 C.2 0.0 **** -0.1268
135 H17363 59.774 36.7395 5.70502 H 0.0 **** 0.053
136 C17191 66.9412 23.1905 5.60819 C.3 0.0 **** -0.106
137 C17239 61.9307 38.037 2.84188 C.2 0.0 **** 0.0
138 C17276 60.429 46.5992 -2.11002 C.2 0.0 **** -0.1268
139 C17260 61.1532 41.2968 -5.8792 C.3 0.0 **** -0.053
140 C17265 59.7936 39.1555 -5.93168 C.3 0.0 **** -0.106
141 C17159 60.7929 26.3158 12.9643 C.3 0.0 **** 0.054
142 H17310 62.6114 26.5609 11.0806 H 0.0 **** 0.053
143 C17163 64.4455 24.1025 12.5249 C.3 0.0 **** -0.106
144 C17298 61.4307 44.5425 -12.9515 C.3 0.0 **** -0.106
145 H17373 61.8266 37.5135 -4.37636 H 0.0 **** 0.1268
146 C17177 63.3416 31.9405 9.98958 C.3 0.0 **** -0.106
147 H17360 60.4174 35.2583 -7.70173 H 0.0 **** 0.353
148 H17348 63.7917 32.7076 -6.13889 H 0.0 **** 0.053
149 C17224 61.8224 38.6239 0.0983753 C.2 0.0 **** 0.0
150 C17268 60.6382 44.2587 -2.74611 C.2 0.0 **** 0.0
151 C17232 62.8145 35.3234 -6.40026 C.3 0.0 **** -0.053
152 C17269 60.45 43.001 -7.53613 C.2 0.0 **** 0.0
153 H17320 63.8296 26.5875 9.47781 H 0.0 **** 0.053
154 H17372 61.1188 41.7769 1.35643 H 0.0 **** 0.1268
155 N17236 61.1911 35.0115 -8.32016 N.3 0.0 **** -0.727
156 O17160 59.7355 25.6532 12.2603 O.3 0.0 **** -0.32
157 H17375 62.179 41.5205 -6.23431 H 0.0 **** 0.053
158 H17306 61.1352 23.6722 13.2065 H 0.0 **** 0.053
159 C17173 64.3147 28.552 7.41883 C.2 0.0 **** 0.0
160 H17331 66.4535 22.2625 5.96993 H 0.0 **** 0.053
161 C17175 63.5928 30.8755 7.74206 C.2 0.0 **** 0.232
162 C17245 59.3765 38.5295 6.88719 C.3 0.0 **** -0.106
163 H17328 67.6876 23.6661 8.16464 H 0.0 **** 0.053
164 C17202 63.3929 30.6173 2.5608 C.2 0.0 **** -0.012
165 C17283 60.2373 50.1055 -5.60481 C.2 0.0 **** -0.1268
166 H17340 64.0976 22.2106 3.07764 H 0.0 **** 0.053
167 H17368 59.6813 40.3228 8.096 H 0.0 **** 0.053
168 O17225 62.9046 35.8693 -4.09171 O.3 0.0 **** -0.202
169 H17357 62.5342 38.1334 -8.45575 H 0.0 **** 0.053
170 C17170 64.1467 29.5235 9.6798 C.2 0.0 **** 0.0
171 C17290 60.3949 47.4824 -10.0099 C.2 0.0 **** 0.0
172 H17369 62.3052 39.8564 8.13945 H 0.0 **** 0.053
173 H17341 64.5857 26.8283 4.43299 H 0.0 **** 0.1268
174 C17229 62.7349 32.6015 -5.83925 C.3 0.0 **** -0.106
175 H17396 60.3375 49.1667 -11.3632 H 0.0 **** 0.1268
176 C17280 60.3781 47.7272 -6.23432 C.2 0.0 **** 0.0
177 C17185 65.1175 26.2396 7.01282 C.2 0.0 **** 0.0
178 H17362 61.87 36.9166 7.85613 H 0.0 **** 0.053
179 H17336 62.2113 22.9163 4.66325 H 0.0 **** 0.053
180 C17266 60.6351 43.6234 -5.14123 C.2 0.0 **** 0.0
181 H17319 64.3236 27.0746 13.5432 H 0.0 **** 0.053
182 H17311 64.034 24.8034 10.5408 H 0.0 **** 0.053
183 H17337 62.9755 25.0282 2.59859 H 0.0 **** 0.053
184 C17296 60.5951 45.1045 -10.6428 C.2 0.0 **** 0.0
185 C17192 66.5127 23.465 4.16376 C.3 0.0 **** -0.106
186 H17371 61.4869 40.1233 3.15977 H 0.0 **** 0.1268
187 C17273 59.8067 23.3647 3.7131 C.3 0.0 **** -0.159
188 C17297 60.8101 44.0109 -11.6654 C.3 0.0 **** -0.106
189 H17350 60.7816 33.107 -6.61877 H 0.0 **** 0.053
190 H17400 59.8461 43.519 -11.8958 H 0.0 **** 0.053
191 H17385 60.6972 25.6542 2.50947 H 0.0 **** 0.053
192 C17226 62.2504 34.9652 -5.02642 C.3 0.0 **** 0.107
193 H17354 61.4873 37.0265 -6.44701 H 0.0 **** 0.053
194 H17343 63.2384 31.8036 -1.25637 H 0.0 **** 0.1268
195 H17313 65.3178 23.4924 12.2499 H 0.0 **** 0.053
196 C17295 60.4594 46.4471 -11.021 C.2 0.0 **** 0.052
197 C17255 61.7165 38.2707 -3.61618 C.2 0.0 **** -0.1268
198 C17289 60.5008 45.3607 -6.88837 C.2 0.0 **** 0.0
199 C17205 63.1346 32.2941 0.81686 C.2 0.0 **** 0.0
200 H17330 68.0279 23.0222 5.67614 H 0.0 **** 0.053
201 C17218 62.444 35.6635 2.35203 C.2 0.0 **** 0.0
202 H17380 58.6329 39.0744 -7.76455 H 0.0 **** 0.053
203 C17227 62.4467 33.4837 -4.61844 C.3 0.0 **** -0.053
204 C17167 64.8 28.1697 11.7202 C.3 0.0 **** -0.053
205 C17174 63.8674 29.7991 6.84487 C.2 0.0 **** 0.0
206 C17254 61.3763 39.549 -4.01924 C.2 0.0 **** 0.0
207 C17169 64.2344 29.3808 11.0554 C.2 0.0 **** 0.0
208 C17258 60.9609 41.9247 -3.43503 C.2 0.0 **** 0.0
209 H17353 63.907 35.1805 -6.34341 H 0.0 **** 0.053
210 H17324 65.15 32.0067 11.1706 H 0.0 **** 0.053
211 H17322 62.25 31.9362 10.1709 H 0.0 **** 0.053
212 C17199 63.9101 28.8365 4.61987 C.2 0.0 **** -0.012
213 O17301 59.8857 47.8489 -12.8938 O.2 0.0 **** -0.419
214 C17172 64.8152 27.0835 9.36688 C.3 0.0 **** -0.053
215 H17329 67.0517 25.4694 9.74121 H 0.0 **** 0.1268
216 H17358 62.1162 35.8816 -9.98848 H 0.0 **** 0.053
217 H17394 60.1859 50.864 -4.82157 H 0.0 **** 0.1268
218 H17345 61.1724 35.2124 -5.01 H 0.0 **** 0.053
219 C17208 62.6901 34.6452 1.3728 C.2 0.0 **** 0.0
220 H17381 59.7416 38.1245 -5.55033 H 0.0 **** 0.053
221 C17221 62.1663 36.9888 1.90118 C.2 0.0 **** 0.0
222 C17217 62.8318 33.6059 5.51882 C.2 0.0 **** -0.1268
223 C17188 66.5449 24.3368 6.49618 C.2 0.0 **** 0.0
224 C17272 60.5306 25.7716 3.59141 C.3 0.0 **** -0.159
225 C17184 65.5931 26.2294 8.3938 C.2 0.0 **** 0.0
226 C17251 61.1999 41.2628 -0.715411 C.2 0.0 **** 0.042
227 H17304 60.7584 23.0886 10.9384 H 0.0 **** 0.053
228 H17305 61.998 24.1962 10.3307 H 0.0 **** 0.053
229 H17338 62.2083 23.4836 2.17926 H 0.0 **** 0.053
230 H17334 62.7634 24.5564 6.31988 H 0.0 **** 0.053
231 C17263 60.286 40.4649 -8.08062 C.3 0.0 **** -0.106
232 H17391 60.5916 44.9995 -0.699563 H 0.0 **** 0.1268
233 C17168 63.7913 27.4285 12.6462 C.3 0.0 **** -0.106
234 H17387 59.9111 22.4059 4.24493 H 0.0 **** 0.053
235 C17257 60.824 42.8991 -2.43167 C.2 0.0 **** 0.0265
236 C17233 62.5256 36.7949 -6.74059 C.3 0.0 **** -0.106
237 H17325 62.7577 30.4087 12.2365 H 0.0 **** 0.053
238 C17222 61.943 37.9194 -2.27132 C.2 0.0 **** 0.0
239 C17155 60.1788 25.2042 10.9751 C.3 0.0 **** 0.054
240 H17344 62.6896 34.3237 6.31328 H 0.0 **** 0.1268
241 C17237 62.2068 36.4261 4.66481 C.2 0.0 **** 0.042
242 C17211 63.1353 32.6109 -0.538001 C.2 0.0 **** -0.1268
243 H17317 65.5965 28.5371 12.3953 H 0.0 **** 0.053
244 C17231 62.2589 34.3949 -7.5318 C.3 0.0 **** 0.134
245 C17300 60.286 46.763 -12.4717 C.2 0.0 **** 0.347
246 H17370 61.5909 40.5631 6.68415 H 0.0 **** 0.053
247 C17204 63.346 30.9529 1.23181 C.2 0.0 **** -0.1268
248 C17230 61.8195 33.0311 -6.99051 C.3 0.0 **** -0.106
249 H17402 62.4369 44.935 -12.7307 H 0.0 **** 0.053
250 H17386 61.2198 26.5501 3.95255 H 0.0 **** 0.053
@<TRIPOS>BOND
1 231 95 1
2 134 232 1
3 137 68 un
4 149 19 un
5 28 64 1
6 72 28 1
7 141 72 1
8 156 141 1
9 239 64 1
10 239 156 1
11 114 4 1
12 143 114 1
13 9 143 1
14 72 4 1
15 28 9 1
16 60 42 1
17 204 60 1
18 233 204 1
19 114 42 1
20 4 233 1
21 170 207 un
22 80 170 un
23 214 80 un
24 204 207 1
25 60 214 1
26 205 159 1
27 161 205 un
28 52 161 un
29 80 159 un
30 170 52 un
31 128 146 1
32 48 128 1
33 207 48 1
34 52 146 1
35 13 59 1
36 25 13 un
37 83 25 un
38 161 59 1
39 205 83 un
40 177 225 un
41 16 177 2
42 214 225 1
43 159 16 un
44 223 66 2
45 75 223 1
46 69 75 1
47 177 66 1
48 225 69 2
49 185 136 1
50 24 185 1
51 102 24 2
52 223 136 1
53 66 102 1
54 47 110 1
55 74 47 1
56 35 74 1
57 102 110 1
58 24 35 1
59 98 212 un
60 16 98 un
61 83 212 un
62 164 45 un
63 23 164 1
64 212 23 un
65 25 45 un
66 199 247 un
67 82 199 un
68 34 82 un
69 164 247 un
70 45 34 un
71 11 219 un
72 132 11 un
73 242 132 un
74 82 219 un
75 199 242 un
76 57 125 un
77 50 57 un
78 6 50 un
79 132 125 un
80 11 6 un
81 222 65 un
82 13 222 un
83 34 65 un
84 54 201 un
85 65 54 un
86 219 201 un
87 221 130 un
88 201 221 un
89 6 130 un
90 38 238 un
91 149 38 un
92 130 149 un
93 50 238 un
94 192 168 1
95 203 192 1
96 21 203 1
97 57 168 1
98 125 21 1
99 248 174 1
100 244 248 1
101 151 244 1
102 203 174 1
103 192 151 1
104 61 236 1
105 22 61 1
106 155 22 1
107 151 236 1
108 244 155 1
109 68 241 un
110 221 137 un
111 54 241 un
112 26 85 1
113 33 26 1
114 100 33 1
115 68 85 1
116 241 100 1
117 162 36 1
118 20 162 1
119 78 20 1
120 33 36 1
121 26 78 1
122 77 19 un
123 137 77 un
124 226 117 un
125 90 226 un
126 19 90 un
127 38 117 un
128 206 108 un
129 197 206 un
130 238 197 un
131 117 108 un
132 235 14 1
133 208 235 un
134 226 14 1
135 108 208 1
136 139 88 1
137 133 139 1
138 206 88 1
139 208 133 un
140 112 231 1
141 140 112 1
142 139 95 1
143 88 140 1
144 120 180 1
145 150 120 1
146 235 150 un
147 133 180 un
148 95 152 1
149 180 91 un
150 152 91 un
151 47 39 1
152 39 224 1
153 39 187 1
154 21 94 1
155 138 134 1
156 116 138 un
157 105 116 1
158 150 134 un
159 120 105 un
160 176 129 un
161 49 176 1
162 92 49 un
163 105 129 un
164 116 92 un
165 8 165 un
166 10 8 1
167 7 10 1
168 49 165 un
169 176 7 un
170 29 104 un
171 198 29 un
172 129 198 un
173 7 104 un
174 17 171 un
175 1 17 un
176 10 1 un
177 104 171 un
178 53 123 un
179 29 53 un
180 91 198 un
181 152 123 un
182 184 196 un
183 53 184 un
184 171 196 un
185 144 188 1
186 121 144 1
187 245 121 1
188 184 188 1
189 196 245 1
190 245 213 2
191 239 86 1
192 239 113 1
193 64 227 1
194 64 228 1
195 28 158 1
196 72 31 1
197 141 106 1
198 141 101 1
199 4 142 1
200 114 182 1
201 143 18 1
202 143 195 1
203 9 84 1
204 9 109 1
205 60 111 1
206 204 243 1
207 233 118 1
208 233 181 1
209 214 153 1
210 146 81 1
211 146 211 1
212 128 89 1
213 128 210 1
214 48 237 1
215 48 55 1
216 75 76 1
217 75 163 1
218 69 215 1
219 136 200 1
220 136 160 1
221 185 63 1
222 185 44 1
223 110 230 1
224 110 41 1
225 47 179 1
226 74 183 1
227 74 229 1
228 35 71 1
229 35 166 1
230 98 173 1
231 247 93 1
232 242 194 1
233 222 240 1
234 192 218 1
235 203 131 1
236 21 32 1
237 174 148 1
238 174 122 1
239 248 189 1
240 248 5 1
241 244 127 1
242 151 209 1
243 236 193 1
244 236 46 1
245 61 56 1
246 61 169 1
247 22 216 1
248 22 27 1
249 155 147 1
250 26 96 1
251 33 178 1
252 36 135 1
253 36 79 1
254 162 37 1
255 162 126 1
256 20 58 1
257 20 167 1
258 78 172 1
259 78 246 1
260 77 186 1
261 90 154 1
262 197 145 1
263 88 115 1
264 139 157 1
265 95 30 1
266 231 43 1
267 231 124 1
268 112 2 1
269 112 202 1
270 140 220 1
271 140 40 1
272 39 62 1
273 224 51 1
274 224 191 1
275 224 250 1
276 187 234 1
277 187 15 1
278 187 103 1
279 94 99 1
280 138 67 1
281 92 70 1
282 165 217 1
283 8 107 1
284 17 175 1
285 1 87 1
286 123 119 1
287 188 12 1
288 188 190 1
289 144 97 1
290 144 249 1
291 121 73 1
292 121 3 1
@<TRIPOS>MOLECULE
Sketch 4
250 292
SMALL
USER_CHARGES


@<TRIPOS>ATOM
1 C14455 23.084 46.7233 3.20899 C.2 0.0 **** 0.0
2 H14575 24.8214 35.2746 3.09697 H 0.0 **** 0.053
3 H14633 29.2202 41.7995 -1.86791 H 0.0 **** 0.053
4 H14587 29.7435 44.7824 0.402442 H 0.0 **** 0.053
5 H14620 14.9376 40.9234 5.48523 H 0.0 **** 0.053
6 C14477 21.6519 52.1069 2.57896 C.3 0.0 **** -0.053
7 C14437 30.7045 41.3989 2.97511 C.2 0.0 **** 0.0
8 C14460 21.4881 48.5415 3.5353 C.2 0.0 **** 0.0
9 C14511 12.9229 52.3238 4.52376 C.2 0.0 **** 0.0
10 C14497 15.7801 40.2751 5.19939 C.3 0.0 **** -0.106
11 O14490 16.6385 42.4979 4.8408 O.3 0.0 **** -0.202
12 C14427 23.6068 37.5938 4.03612 C.3 0.0 **** -0.106
13 H14648 12.4028 57.1124 3.80938 H 0.0 **** 0.1268
14 C14549 9.58099 61.0408 4.79465 C.3 0.0 **** -0.086
15 C14420 26.1428 37.9183 3.81436 C.2 0.0 **** 0.0
16 C14501 14.0471 48.2783 4.77261 C.2 0.0 **** 0.042
17 H14622 13.568 46.2181 5.07176 H 0.0 **** 0.1268
18 H14634 27.3903 43.3898 -2.26205 H 0.0 **** 0.053
19 C14423 27.0747 40.1645 3.40205 C.2 0.0 **** 0.0
20 C14534 5.11313 54.5807 6.92266 C.2 0.0 **** -0.1268
21 C14525 10.0736 49.3402 5.64511 C.2 0.0 **** -0.1268
22 H14610 19.1909 55.0484 1.14186 H 0.0 **** 0.353
23 C14428 23.9719 36.3141 4.78924 C.3 0.0 **** -0.106
24 H14576 25.4596 34.7212 4.64515 H 0.0 **** 0.053
25 C14435 29.5122 40.5869 3.21049 C.2 0.0 **** 0.0
26 H14596 21.6295 51.5538 1.62643 H 0.0 **** 0.053
27 H14559 27.621 33.2453 -0.438466 H 0.0 **** 0.053
28 C14495 15.9576 40.4953 2.68218 C.3 0.0 **** -0.106
29 C14500 15.0481 49.2546 4.47674 C.2 0.0 **** 0.0
30 C14496 15.507 39.5982 3.84048 C.3 0.0 **** -0.106
31 H14635 28.2832 44.696 -1.45498 H 0.0 **** 0.053
32 C14494 17.4866 40.7068 2.72075 C.3 0.0 **** -0.106
33 H14607 17.3503 56.0351 4.13424 H 0.0 **** 0.053
34 H14573 23.1034 35.64 4.84226 H 0.0 **** 0.053
35 C14409 27.8432 34.3011 -0.229178 C.3 0.0 **** 0.054
36 H14619 15.8842 39.5176 5.99054 H 0.0 **** 0.053
37 C14487 18.9644 42.8994 4.28002 C.2 0.0 **** 0.042
38 C14498 15.6958 46.5074 4.65704 C.2 0.0 **** 0.0
39 C14489 17.3492 44.7267 4.49586 C.2 0.0 **** 0.0
40 H14555 30.2304 36.9802 -0.164699 H 0.0 **** 0.053
41 C14457 22.4223 44.3702 3.51619 C.2 0.0 **** 0.0
42 H14579 31.0059 38.0122 4.91879 H 0.0 **** 0.1268
43 C14485 18.7814 56.502 2.53817 C.3 0.0 **** 0.081
44 C14443 31.6797 43.4021 1.96527 C.2 0.0 **** 0.0
45 H14644 4.7508 52.4872 7.20916 H 0.0 **** 0.1268
46 O14410 28.0357 34.9012 -1.51591 O.3 0.0 **** -0.32
47 H14618 14.4377 39.3537 3.75782 H 0.0 **** 0.053
48 H14561 30.4616 36.952 1.95754 H 0.0 **** 0.053
49 H14568 27.0364 34.4969 2.50755 H 0.0 **** 0.053
50 C14438 31.8125 41.1797 3.74152 C.2 0.0 **** 0.0
51 C14484 18.3961 55.8063 3.87398 C.3 0.0 **** -0.106
52 H14626 12.876 54.0309 2.5488 H 0.0 **** 0.053
53 C14508 13.3098 50.9821 4.57971 C.2 0.0 **** 0.0
54 H14611 17.5132 41.1858 6.17913 H 0.0 **** 0.053
55 H14604 17.9909 53.9238 2.91415 H 0.0 **** 0.053
56 C14449 26.6201 42.9257 2.90442 C.2 0.0 **** -0.012
57 C14417 27.6698 35.9109 4.06268 C.3 0.0 **** -0.053
58 C14468 19.7299 45.2074 4.00775 C.2 0.0 **** 0.0
59 H14639 29.37 43.2421 -3.90046 H 0.0 **** 0.053
60 C14509 15.299 52.9879 3.72815 C.3 0.0 **** -0.053
61 C14538 9.54987 55.8321 5.20711 C.2 0.0 **** 0.0
62 C14550 8.4731 60.0316 5.06923 C.2 0.0 **** 0.347
63 H14630 14.981 55.0435 0.974079 H 0.0 **** 0.053
64 H14617 16.0533 38.641 3.78455 H 0.0 **** 0.053
65 C14419 26.3258 36.5519 3.95568 C.2 0.0 **** 0.0
66 C14411 28.8399 35.4829 1.81974 C.3 0.0 **** -0.053
67 S14453 26.4086 44.6113 2.48481 S.2 0.0 **** 0.024
68 C14488 17.679 43.3474 4.54297 C.2 0.0 **** 0.042
69 H14609 17.8828 56.6994 1.935 H 0.0 **** 0.053
70 C14479 22.5612 53.3286 2.39932 C.3 0.0 **** -0.106
71 H14650 11.3007 59.3533 3.45898 H 0.0 **** 0.053
72 C14499 16.0311 45.1546 4.7128 C.2 0.0 **** -0.1268
73 H14574 24.261 36.568 5.82198 H 0.0 **** 0.053
74 N14486 19.7101 55.7234 1.70472 N.3 0.0 **** -0.727
75 H14552 28.5619 36.6542 -2.39431 H 0.0 **** 0.053
76 H14614 18.0001 39.921 2.14767 H 0.0 **** 0.053
77 C14454 24.4076 46.2992 2.91926 C.2 0.0 **** -0.1268
78 C14482 20.0756 53.9513 3.47806 C.3 0.0 **** -0.053
79 C14529 8.98969 53.4576 5.62182 C.2 0.0 **** 0.0
80 H14578 32.8946 39.5978 4.67218 H 0.0 **** 0.053
81 C14418 27.9743 34.8893 2.92784 C.3 0.0 **** -0.106
82 H14625 14.1184 53.8634 5.30575 H 0.0 **** 0.053
83 C14444 30.7966 42.3799 1.8696 C.2 0.0 **** 0.0
84 O14551 7.31155 60.4419 5.08614 O.2 0.0 **** -0.419
85 C14429 25.1501 35.6263 4.09551 C.3 0.0 **** -0.106
86 C14426 24.8076 38.4834 3.83764 C.2 0.0 **** 0.0
87 O14415 30.0496 36.225 3.85145 O.3 0.0 **** -0.32
88 H14645 4.12189 54.8887 7.26114 H 0.0 **** 0.1268
89 H14570 28.7241 38.0317 2.37036 H 0.0 **** 0.053
90 C14502 14.3498 46.9475 4.85693 C.2 0.0 **** -0.1268
91 O14475 19.6365 51.67 3.96672 O.3 0.0 **** -0.202
92 H14564 32.1631 33.894 0.58531 H 0.0 **** 0.053
93 H14580 33.5883 42.0918 4.52561 H 0.0 **** 0.053
94 C14528 9.35332 52.085 5.60099 C.2 0.0 **** 0.0
95 H14554 30.7792 36.249 -1.6802 H 0.0 **** 0.053
96 C14441 33.0115 42.0732 3.58711 C.3 0.0 **** -0.106
97 C14492 18.0541 40.7011 4.15552 C.3 0.0 **** 0.107
98 H14591 28.7308 43.1257 2.7322 H 0.0 **** 0.1268
99 C14421 27.2581 38.8098 3.618 C.2 0.0 **** 0.0
100 H14563 32.189 35.3278 2.77348 H 0.0 **** 0.053
101 H14628 13.8772 56.4055 2.53199 H 0.0 **** 0.053
102 C14446 30.4447 42.9901 -0.578893 C.3 0.0 **** -0.053
103 C14539 9.91996 54.4569 5.19506 C.2 0.0 **** 0.0
104 H14624 16.0676 53.6099 4.21188 H 0.0 **** 0.053
105 C14505 16.9687 51.1484 3.84476 C.2 0.0 **** -0.1268
106 C14458 20.7515 46.182 3.75716 C.2 0.0 **** 0.0
107 C14510 13.932 53.4201 4.30724 C.3 0.0 **** -0.053
108 H14652 10.9879 60.4291 6.31532 H 0.0 **** 0.053
109 C14464 18.7742 49.4034 3.92891 C.2 0.0 **** 0.0
110 H14649 12.1944 58.8202 4.88583 H 0.0 **** 0.053
111 C14520 11.198 54.0714 4.74049 C.2 0.0 **** 0.0
112 C14517 10.6609 51.6959 5.19732 C.2 0.0 **** 0.0
113 C14445 30.017 42.1125 0.602905 C.3 0.0 **** -0.106
114 C14431 23.1263 41.671 3.61722 C.2 0.0 **** 0.232
115 H14585 28.9368 42.2334 0.776428 H 0.0 **** 0.053
116 H14600 21.3289 53.9543 0.73542 H 0.0 **** 0.053
117 C14521 29.4441 42.8753 -1.74801 C.3 0.0 **** -0.053
118 H14595 19.5597 52.4279 2.04445 H 0.0 **** 0.053
119 C14513 14.3352 55.5243 3.00333 C.3 0.0 **** -0.106
120 C14478 22.1291 51.1224 3.65632 C.3 0.0 **** 0.107
121 H14589 31.8773 45.449 1.40468 H 0.0 **** 0.053
122 C14471 18.3947 45.6614 4.22735 C.2 0.0 **** 0.0
123 C14407 30.3096 34.8016 -0.138104 C.3 0.0 **** -0.053
124 C14472 17.3973 49.8198 4.03029 C.2 0.0 **** 0.0
125 C14474 16.7312 47.4636 4.392 C.2 0.0 **** 0.0
126 C14469 20.0454 43.8157 4.02598 C.2 0.0 **** 0.0
127 O14493 19.2165 41.5459 4.26165 O.3 0.0 **** -0.202
128 H14606 19.0204 56.1899 4.69678 H 0.0 **** 0.053
129 H14608 19.2449 57.4804 2.75001 H 0.0 **** 0.053
130 H14571 22.8131 38.1471 4.5584 H 0.0 **** 0.053
131 H14601 22.4536 55.21 1.2632 H 0.0 **** 0.053
132 C14548 10.9572 60.5577 5.22095 C.3 0.0 **** -0.106
133 C14543 11.7229 56.3805 4.23704 C.2 0.0 **** -0.1268
134 H14553 27.9708 36.821 -0.718761 H 0.0 **** 0.053
135 C14451 23.7789 43.9584 3.26431 C.2 0.0 **** 0.0
136 C14452 24.752 44.9719 2.94467 C.2 0.0 **** -0.012
137 H14612 18.4223 39.7022 4.42976 H 0.0 **** 0.053
138 H14598 22.8687 53.7167 3.38551 H 0.0 **** 0.053
139 C14527 8.40872 51.0928 6.01915 C.2 0.0 **** 0.0
140 C14413 31.2923 34.9945 2.23171 C.3 0.0 **** -0.106
141 C14459 20.441 47.5766 3.76194 C.2 0.0 **** 0.0
142 H14599 23.4794 53.0268 1.87964 H 0.0 **** 0.053
143 C14537 8.25564 56.2258 5.65088 C.2 0.0 **** 0.0
144 C14412 30.1707 35.9982 2.43863 C.3 0.0 **** 0.107
145 H14632 14.5584 52.7974 1.70439 H 0.0 **** 0.053
146 H14590 32.7816 44.3388 0.383314 H 0.0 **** 0.053
147 C14436 28.201 41.0575 3.11574 C.2 0.0 **** 0.0
148 C14424 25.7445 40.7255 3.42526 C.2 0.0 **** 0.0
149 H14613 17.7467 41.6684 2.25503 H 0.0 **** 0.053
150 H14569 28.5181 34.0322 3.35539 H 0.0 **** 0.053
151 C14448 31.8159 44.4618 0.911344 C.3 0.0 **** -0.106
152 H14588 30.8652 45.1044 -0.934899 H 0.0 **** 0.053
153 H14623 17.6997 51.899 3.58877 H 0.0 **** 0.1268
154 H14583 32.028 43.9518 4.01895 H 0.0 **** 0.053
155 C14450 27.9025 42.4347 2.88782 C.2 0.0 **** -0.1268
156 H14572 23.1904 37.3228 3.0474 H 0.0 **** 0.053
157 H14646 6.29109 58.9818 6.13991 H 0.0 **** 0.1268
158 C14465 19.1 48.0185 3.9661 C.2 0.0 **** 0.0
159 H14636 27.6778 43.3202 -0.506821 H 0.0 **** 0.053
160 H14577 31.8028 40.4302 5.74922 H 0.0 **** 0.053
161 C14405 28.6049 36.2089 -1.39097 C.3 0.0 **** 0.054
162 H14616 15.4505 41.4679 2.76563 H 0.0 **** 0.053
163 H14615 15.6685 40.0568 1.71579 H 0.0 **** 0.053
164 H14584 30.1437 41.0473 0.339148 H 0.0 **** 0.053
165 H14565 32.2427 35.6463 0.390826 H 0.0 **** 0.053
166 C14533 5.45999 53.2559 6.89682 C.2 0.0 **** -0.1268
167 H14653 9.57277 61.2208 3.70363 H 0.0 **** 0.053
168 H14557 29.2513 33.4686 1.18833 H 0.0 **** 0.053
169 C14523 30.0643 43.375 -3.05687 C.3 0.0 **** -0.159
170 H14627 14.8819 55.8832 3.89192 H 0.0 **** 0.053
171 C14481 20.702 55.0132 2.51318 C.3 0.0 **** 0.134
172 C14433 25.4962 42.0847 3.19853 C.2 0.0 **** 0.0
173 C14545 8.84989 58.5939 5.22867 C.2 0.0 **** 0.052
174 C14473 16.3982 48.8388 4.30476 C.2 0.0 **** 0.0
175 C14434 29.7233 39.25 3.75976 C.2 0.0 **** 0.0
176 C14530 7.69908 53.8448 6.05298 C.2 0.0 **** 0.0
177 H14647 4.70576 57.2557 6.89775 H 0.0 **** 0.1268
178 H14560 28.2974 36.3334 1.37663 H 0.0 **** 0.053
179 C14467 21.8172 42.041 3.83509 C.2 0.0 **** -0.1268
180 H14581 33.6828 41.6529 2.81082 H 0.0 **** 0.053
181 C14414 31.5927 34.8235 0.731436 C.3 0.0 **** -0.106
182 O14430 23.3652 40.3204 3.6938 O.3 0.0 **** -0.464
183 C14532 7.13499 51.4929 6.43595 C.2 0.0 **** -0.1268
184 H14593 23.55 48.7873 2.93971 H 0.0 **** 0.1268
185 C14476 20.2048 52.5283 2.93739 C.3 0.0 **** 0.107
186 H14594 21.1105 41.2528 4.04914 H 0.0 **** 0.1268
187 H14566 28.9585 37.1559 5.27246 H 0.0 **** 0.053
188 C14526 8.81116 49.7161 6.01135 C.2 0.0 **** -0.1268
189 H14629 16.3061 55.271 2.12057 H 0.0 **** 0.053
190 H14637 30.9955 42.8336 -3.28703 H 0.0 **** 0.053
191 H14586 31.4209 42.6178 -0.942083 H 0.0 **** 0.053
192 C14536 7.33173 55.2228 6.07395 C.2 0.0 **** 0.0
193 C14544 10.4867 56.8145 4.78355 C.2 0.0 **** 0.0
194 C14406 30.0553 36.1422 -0.857829 C.3 0.0 **** -0.106
195 C14542 5.69564 56.9657 6.53908 C.2 0.0 **** -0.1268
196 C14439 31.8814 40.0438 4.70906 C.3 0.0 **** -0.106
197 C14518 11.0418 50.318 5.24439 C.2 0.0 **** 0.0
198 H14651 11.7374 61.2856 4.9509 H 0.0 **** 0.053
199 H14641 10.3668 48.2906 5.66085 H 0.0 **** 0.1268
200 H14556 30.4159 34.0326 -0.91708 H 0.0 **** 0.053
201 H14558 26.9538 34.755 0.255889 H 0.0 **** 0.053
202 H14605 18.2528 53.7692 4.65065 H 0.0 **** 0.053
203 H14640 23.8469 50.3879 4.21802 H 0.0 **** 0.41
204 C14531 6.75884 52.8455 6.46398 C.2 0.0 **** 0.0
205 C14491 17.0335 41.1526 5.18669 C.3 0.0 **** 0.107
206 H14638 30.304 44.4482 -2.99037 H 0.0 **** 0.053
207 C14519 12.0675 55.0486 4.18096 C.2 0.0 **** 0.0
208 C14466 21.4099 43.3906 3.79327 C.2 0.0 **** 0.0
209 H14562 30.9847 34.0343 2.67653 H 0.0 **** 0.053
210 C14516 11.5959 52.6908 4.7937 C.2 0.0 **** 0.0
211 C14522 28.1241 43.6067 -1.47126 C.3 0.0 **** -0.159
212 C14462 21.1788 49.9292 3.652 C.2 0.0 **** 0.0
213 C14483 18.6028 54.2974 3.75331 C.3 0.0 **** -0.106
214 C14432 24.1511 42.5915 3.33238 C.2 0.0 **** 0.0
215 C14425 24.6572 39.8315 3.66522 C.2 0.0 **** 0.232
216 C14480 21.7961 54.409 1.62777 C.3 0.0 **** -0.106
217 C14507 12.3711 49.9916 4.9156 C.2 0.0 **** 0.0265
218 H14567 27.6481 35.3118 4.99313 H 0.0 **** 0.053
219 O14506 12.7301 48.6643 4.97092 O.3 0.0 **** -0.0685
220 C14546 10.145 58.2001 4.86584 C.2 0.0 **** 0.0
221 H14631 16.3142 52.9091 1.81155 H 0.0 **** 0.053
222 C14416 28.8349 36.9061 4.20843 C.3 0.0 **** 0.107
223 H14602 21.1723 55.7803 3.15197 H 0.0 **** 0.053
224 C14547 11.2234 59.2138 4.5539 C.3 0.0 **** -0.106
225 H14603 20.631 53.982 4.43079 H 0.0 **** 0.053
226 C14463 19.8631 50.3188 3.8167 C.2 0.0 **** 0.042
227 C14512 13.2773 54.5249 3.45667 C.3 0.0 **** -0.053
228 H14621 15.258 44.4171 4.92223 H 0.0 **** 0.1268
229 C14456 22.0791 45.7502 3.4997 C.2 0.0 **** 0.0
230 C14408 29.074 34.4432 0.70351 C.3 0.0 **** -0.053
231 C14540 7.88332 57.6029 5.65518 C.2 0.0 **** 0.0
232 C14504 15.6534 51.5487 3.99288 C.2 0.0 **** 0.0
233 H14643 6.41607 50.7355 6.75604 H 0.0 **** 0.1268
234 C14541 6.58262 57.9371 6.12433 C.2 0.0 **** -0.1268
235 H14597 21.9999 51.6307 4.63427 H 0.0 **** 0.053
236 C14440 30.8371 38.9952 4.48218 C.2 0.0 **** -0.1268
237 C14535 6.03354 55.594 6.51463 C.2 0.0 **** 0.0
238 C14447 30.6626 44.4268 -0.0913207 C.3 0.0 **** -0.106
239 C14503 14.682 50.6025 4.34496 C.2 0.0 **** 0.0
240 O14524 23.5214 50.8795 3.44821 O.3 0.0 **** -0.57
241 C14442 32.5742 43.4827 3.17796 C.3 0.0 **** -0.106
242 H14582 33.4454 44.1215 2.96461 H 0.0 **** 0.053
243 H14654 9.28111 61.9852 5.27066 H 0.0 **** 0.053
244 H14642 8.08168 48.965 6.31952 H 0.0 **** 0.1268
245 C14515 15.379 53.315 2.22595 C.3 0.0 **** -0.106
246 C14461 22.775 48.08 3.21784 C.2 0.0 **** -0.1268
247 C14470 18.0725 47.0432 4.1917 C.2 0.0 **** 0.0
248 C14514 15.3024 54.8378 2.00673 C.3 0.0 **** -0.106
249 C14422 28.6472 38.2341 3.45792 C.3 0.0 **** -0.053
250 H14592 25.1553 47.0598 2.6833 H 0.0 **** 0.1268
@<TRIPOS>BOND
1 30 28 1
2 39 72 un
3 172 56 un
4 215 182 1
5 123 194 1
6 230 123 1
7 35 230 1
8 46 35 1
9 161 194 1
10 161 46 1
11 144 66 1
12 140 144 1
13 181 140 1
14 230 66 1
15 123 181 1
16 222 87 1
17 57 222 1
18 81 57 1
19 144 87 1
20 66 81 1
21 15 65 un
22 99 15 un
23 249 99 un
24 57 65 1
25 222 249 1
26 148 19 1
27 215 148 un
28 86 215 un
29 99 19 un
30 15 86 un
31 23 12 1
32 85 23 1
33 65 85 1
34 86 12 1
35 114 182 1
36 214 114 un
37 172 214 un
38 148 172 un
39 25 175 un
40 147 25 2
41 249 175 1
42 19 147 un
43 50 7 2
44 196 50 1
45 236 196 1
46 25 7 1
47 175 236 2
48 241 96 1
49 44 241 1
50 83 44 2
51 50 96 1
52 7 83 1
53 102 113 1
54 238 102 1
55 151 238 1
56 83 113 1
57 44 151 1
58 155 56 un
59 147 155 un
60 136 135 un
61 67 136 1
62 56 67 un
63 214 135 un
64 1 77 un
65 229 1 un
66 41 229 un
67 136 77 un
68 135 41 un
69 141 106 un
70 8 141 un
71 246 8 un
72 229 106 un
73 1 246 un
74 226 212 un
75 109 226 un
76 158 109 un
77 8 212 un
78 141 158 un
79 179 208 un
80 114 179 un
81 41 208 un
82 126 58 un
83 208 126 un
84 106 58 un
85 122 247 un
86 58 122 un
87 158 247 un
88 174 124 un
89 125 174 un
90 247 125 un
91 109 124 un
92 185 91 1
93 6 185 1
94 120 6 1
95 226 91 1
96 212 120 1
97 216 70 1
98 171 216 1
99 78 171 1
100 6 70 1
101 185 78 1
102 51 213 1
103 43 51 1
104 74 43 1
105 78 213 1
106 171 74 1
107 68 37 un
108 39 68 un
109 122 39 un
110 126 37 un
111 205 11 1
112 97 205 1
113 127 97 1
114 68 11 1
115 37 127 1
116 28 32 1
117 10 30 1
118 97 32 1
119 205 10 1
120 72 38 un
121 125 38 un
122 16 29 un
123 90 16 un
124 38 90 un
125 174 29 un
126 232 239 un
127 105 232 un
128 124 105 un
129 29 239 un
130 217 219 1
131 53 217 un
132 16 219 1
133 239 53 1
134 107 60 1
135 9 107 1
136 232 60 1
137 53 9 un
138 119 227 1
139 248 119 1
140 245 248 1
141 107 227 1
142 60 245 1
143 112 210 1
144 197 112 1
145 217 197 un
146 9 210 un
147 227 207 1
148 210 111 un
149 207 111 un
150 102 117 1
151 117 211 1
152 117 169 1
153 120 240 1
154 188 21 1
155 139 188 un
156 94 139 1
157 197 21 un
158 112 94 un
159 176 79 un
160 204 176 1
161 183 204 un
162 94 79 un
163 139 183 un
164 20 166 un
165 237 20 1
166 192 237 1
167 204 166 un
168 176 192 un
169 61 143 un
170 103 61 un
171 79 103 un
172 192 143 un
173 234 231 un
174 195 234 un
175 237 195 un
176 143 231 un
177 193 133 un
178 61 193 un
179 111 103 un
180 207 133 un
181 220 173 un
182 193 220 un
183 231 173 un
184 132 224 1
185 14 132 1
186 62 14 1
187 220 224 1
188 173 62 1
189 62 84 2
190 161 75 1
191 161 134 1
192 194 95 1
193 194 40 1
194 123 200 1
195 230 168 1
196 35 201 1
197 35 27 1
198 66 178 1
199 144 48 1
200 140 209 1
201 140 100 1
202 181 92 1
203 181 165 1
204 222 187 1
205 57 218 1
206 81 49 1
207 81 150 1
208 249 89 1
209 12 130 1
210 12 156 1
211 23 34 1
212 23 73 1
213 85 2 1
214 85 24 1
215 196 160 1
216 196 80 1
217 236 42 1
218 96 93 1
219 96 180 1
220 241 242 1
221 241 154 1
222 113 164 1
223 113 115 1
224 102 191 1
225 238 4 1
226 238 152 1
227 151 121 1
228 151 146 1
229 155 98 1
230 77 250 1
231 246 184 1
232 179 186 1
233 185 118 1
234 6 26 1
235 120 235 1
236 70 138 1
237 70 142 1
238 216 116 1
239 216 131 1
240 171 223 1
241 78 225 1
242 213 55 1
243 213 202 1
244 51 128 1
245 51 33 1
246 43 129 1
247 43 69 1
248 74 22 1
249 205 54 1
250 97 137 1
251 32 149 1
252 32 76 1
253 28 163 1
254 28 162 1
255 30 64 1
256 30 47 1
257 10 36 1
258 10 5 1
259 72 228 1
260 90 17 1
261 105 153 1
262 60 104 1
263 107 82 1
264 227 52 1
265 119 170 1
266 119 101 1
267 248 189 1
268 248 63 1
269 245 221 1
270 245 145 1
271 117 3 1
272 211 18 1
273 211 31 1
274 211 159 1
275 169 190 1
276 169 206 1
277 169 59 1
278 240 203 1
279 21 199 1
280 188 244 1
281 183 233 1
282 166 45 1
283 20 88 1
284 234 157 1
285 195 177 1
286 133 13 1
287 224 110 1
288 224 71 1
289 132 198 1
290 132 108 1
291 14 167 1
292 14 243 1
@<TRIPOS>MOLECULE
Sketch 4
130 142
SMALL
USER_CHARGES


@<TRIPOS>ATOM
1 C3557 22.1919 63.4006 12.9658 C.3 0.0 **** -0.106
2 C3569 17.9901 53.5659 28.9803 C.3 0.0 **** -0.159
3 H3623 16.2296 56.8729 28.0497 H 0.0 **** 0.053
4 H3585 17.833 61.9688 22.1792 H 0.0 **** 0.053
5 C3527 17.904 58.0172 24.5213 C.ar 0.0 **** 0.0
6 N3549 21.0509 60.9451 16.125 N.ar 0.0 **** -0.481
7 C3520 20.6605 53.1631 27.9803 C.3 0.0 **** -0.106
8 H3622 18.4591 52.5744 28.965 H 0.0 **** 0.053
9 H3610 28.1717 53.8324 26.5608 H 0.0 **** 0.053
10 C3539 20.1867 59.5263 20.1536 C.ar 0.0 **** 0.052
11 H3636 19.4134 65.9067 11.5127 H 0.0 **** 0.053
12 C3567 24.341 54.5935 24.8673 C.3 0.0 **** -0.159
13 H3599 24.5297 62.5116 11.6908 H 0.0 **** 0.053
14 O3577 19.7458 61.1199 18.4782 O.2 0.0 **** -0.419
15 H3618 22.6662 51.9557 30.3911 H 0.0 **** 0.053
16 C3565 27.1204 53.9438 26.8685 C.3 0.0 **** -0.159
17 C3566 25.3293 51.4058 28.7101 C.3 0.0 **** -0.159
18 C3515 23.9107 53.7632 26.0537 C.ar 0.0 **** 0.0
19 C3522 17.6582 55.4286 27.317 C.ar 0.0 **** 0.0
20 H3638 17.5516 66.0096 12.7696 H 0.0 **** 0.053
21 H3583 20.6108 53.3106 29.0725 H 0.0 **** 0.053
22 C3547 23.285 60.0333 16.2723 C.ar 0.0 **** 0.0
23 C3579 17.3571 64.945 12.5598 C.3 0.0 **** -0.159
24 H3628 14.8659 61.6182 26.5607 H 0.0 **** 0.053
25 H3607 26.6591 51.841 26.6247 H 0.0 **** 0.053
26 C3550 21.382 61.5337 14.9707 C.ar 0.0 **** 0.2405
27 H3601 22.4451 61.396 12.2712 H 0.0 **** 0.053
28 H3639 16.3711 64.6945 12.9742 H 0.0 **** 0.053
29 C3530 17.7994 59.992 23.0708 C.2 0.0 **** 0.0
30 H3605 17.0231 63.0498 14.4399 H 0.0 **** 0.1268
31 C3542 21.6202 59.6552 18.0947 C.ar 0.0 **** 0.0
32 C3568 22.5045 51.4414 29.4271 C.3 0.0 **** -0.159
33 H3587 18.6198 61.9412 24.5664 H 0.0 **** 0.053
34 O3576 22.8104 56.9994 20.2744 O.2 0.0 **** -0.419
35 C3511 24.3539 52.2203 27.8869 C.ar 0.0 **** 0.0
36 H3598 26.1467 60.8707 12.6588 H 0.0 **** 0.053
37 H3592 23.1795 57.3673 17.0797 H 0.0 **** 0.053
38 C3561 18.0686 63.1171 14.1312 C.ar 0.0 **** -0.1268
39 H3614 24.1925 55.6672 25.0692 H 0.0 **** 0.053
40 C3555 24.3945 62.17 12.7292 C.3 0.0 **** -0.106
41 C3536 16.3042 59.9952 25.0185 C.3 0.0 **** -0.106
42 H3631 17.5433 64.1312 25.1708 H 0.0 **** 0.053
43 H3616 25.3942 54.4538 24.6034 H 0.0 **** 0.053
44 C3538 20.9761 58.4609 20.6456 C.ar 0.0 **** 0.052
45 H3633 18.7808 61.1794 19.4905 H 0.0 **** 0.41
46 C3537 20.6697 57.8457 21.8829 C.ar 0.0 **** 0.042
47 H3612 26.3335 51.8491 28.7023 H 0.0 **** 0.053
48 C3534 17.5584 62.1147 24.3241 C.ar 0.0 **** -0.053
49 C3526 19.1552 57.6383 23.9078 C.ar 0.0 **** 0.0
50 C3518 20.2666 54.9492 26.2616 C.ar 0.0 **** 0.0
51 H3600 24.8372 62.9393 13.3864 H 0.0 **** 0.053
52 H3602 22.6979 64.1061 13.6534 H 0.0 **** 0.053
53 C3548 21.9776 60.2323 16.7807 C.ar 0.0 **** 0.2405
54 C3560 19.015 62.2868 14.7187 C.ar 0.0 **** -0.1268
55 H3624 16.3814 55.4283 29.0632 H 0.0 **** 0.053
56 H3582 20.2017 52.1673 27.8223 H 0.0 **** 0.053
57 H3608 27.0793 53.955 27.9684 H 0.0 **** 0.053
58 C3556 22.9035 62.0485 13.0416 C.3 0.0 **** -0.053
59 C3563 19.7754 64.163 12.7598 C.ar 0.0 **** 0.0
60 C3513 22.1072 53.101 27.5558 C.ar 0.0 **** 0.0
61 H3591 24.2318 57.5537 18.488 H 0.0 **** 0.053
62 C3521 18.4718 54.4245 27.832 C.ar 0.0 **** 0.0
63 C3519 19.794 54.202 27.3172 C.ar 0.0 **** 0.0
64 C3572 15.4419 62.1921 25.8184 C.3 0.0 **** -0.159
65 O3574 18.3055 60.927 20.4144 O.3 0.0 **** -0.452
66 H3640 17.306 64.8396 11.4642 H 0.0 **** 0.053
67 C3535 16.7165 61.4339 25.4341 C.ar 0.0 **** -0.053
68 C3524 19.4292 55.9321 25.6495 C.ar 0.0 **** 0.0
69 H3627 15.6627 63.1793 26.247 H 0.0 **** 0.053
70 C3562 18.4245 64.06 13.1539 C.ar 0.0 **** 0.0
71 H3632 16.3288 63.8709 23.8975 H 0.0 **** 0.053
72 O3575 21.4383 56.833 22.2751 O.3 0.0 **** -0.452
73 C3512 22.9994 52.2721 28.2644 C.ar 0.0 **** 0.0
74 H3604 18.7451 61.5784 15.5019 H 0.0 **** 0.1268
75 C3525 19.8811 56.6103 24.5073 C.ar 0.0 **** -0.1268
76 C3516 24.8028 52.9281 26.7502 C.ar 0.0 **** 0.0
77 H3635 21.0836 65.7593 12.0977 H 0.0 **** 0.053
78 C3573 17.3551 63.6275 24.2106 C.3 0.0 **** -0.159
79 C3570 16.3715 55.786 28.0274 C.3 0.0 **** -0.159
80 H3603 22.3196 63.8097 11.954 H 0.0 **** 0.053
81 O3571 15.9935 57.204 25.7591 O.3 0.0 **** -0.452
82 H3581 21.5848 54.4278 24.6629 H 0.0 **** 0.053
83 C3551 22.6549 61.3894 14.3785 C.ar 0.0 **** 0.0
84 C3517 21.6521 54.7682 25.7146 C.3 0.0 **** -0.106
85 C3552 23.6182 60.6111 15.0361 C.ar 0.0 **** 0.0
86 H3584 20.8202 56.3211 24.0646 H 0.0 **** 0.1268
87 C3578 20.2112 65.1907 11.7411 C.3 0.0 **** -0.159
88 H3594 24.7416 59.9047 17.8369 H 0.0 **** 0.053
89 H3634 22.1529 56.7195 21.4956 H 0.0 **** 0.41
90 H3580 22.1265 55.7621 25.6365 H 0.0 **** 0.053
91 H3609 26.7565 54.9205 26.5163 H 0.0 **** 0.053
92 H3615 23.7327 54.3652 23.9767 H 0.0 **** 0.053
93 H3596 25.3129 59.376 14.5534 H 0.0 **** 0.053
94 H3588 17.3457 61.3484 26.3341 H 0.0 **** 0.053
95 C3564 26.2468 52.8094 26.3098 C.3 0.0 **** -0.106
96 C3541 20.4709 60.155 18.8781 C.2 0.0 **** 0.367
97 C3554 25.0905 60.8305 12.9652 C.3 0.0 **** -0.106
98 H3630 18.0442 64.0486 23.4636 H 0.0 **** 0.053
99 H3617 21.4311 51.2278 29.3515 H 0.0 **** 0.053
100 H3597 24.6028 60.0616 12.3428 H 0.0 **** 0.053
101 H3589 15.3666 60.0869 24.4364 H 0.0 **** 0.053
102 H3619 23.0285 50.4778 29.4843 H 0.0 **** 0.053
103 H3593 25.0761 58.8363 16.4719 H 0.0 **** 0.053
104 C3543 22.3871 58.6249 18.6017 C.ar 0.0 **** 0.0
105 C3544 22.0887 57.9818 19.8728 C.2 0.0 **** 0.367
106 H3637 20.5101 64.7122 10.7928 H 0.0 **** 0.053
107 C3523 18.1117 56.1756 26.1753 C.ar 0.0 **** 0.0
108 C3559 20.356 62.3699 14.3204 C.ar 0.0 **** 0.0
109 C3558 20.7319 63.3045 13.333 C.ar 0.0 **** 0.0
110 C3540 19.097 59.9895 20.9205 C.ar 0.0 **** 0.042
111 H3625 15.4863 55.3648 27.5254 H 0.0 **** 0.053
112 H3629 14.7973 62.3402 24.9371 H 0.0 **** 0.053
113 H3606 26.3042 52.8082 25.2114 H 0.0 **** 0.053
114 C3531 18.8148 59.4297 22.2254 C.ar 0.0 **** 0.0
115 C3528 17.3432 57.1501 25.4919 C.ar 0.0 **** 0.042
116 C3545 23.5552 58.0999 17.8188 C.3 0.0 **** -0.106
117 H3611 25.0111 51.3376 29.7581 H 0.0 **** 0.053
118 H3620 16.9037 53.4154 28.9449 H 0.0 **** 0.053
119 H3621 18.2295 54.0205 29.9579 H 0.0 **** 0.053
120 C3546 24.2658 59.2385 17.0924 C.3 0.0 **** -0.106
121 C3514 22.5679 53.8524 26.4723 C.ar 0.0 **** 0.0
122 C3532 19.5597 58.3038 22.6838 C.ar 0.0 **** 0.0
123 C3529 17.3272 59.2808 24.1659 C.2 0.0 **** 0.0
124 H3595 25.7171 61.0181 15.032 H 0.0 **** 0.053
125 H3613 25.4246 50.3739 28.3289 H 0.0 **** 0.053
126 H3590 16.0656 59.4475 25.9352 H 0.0 **** 0.053
127 H3626 15.5669 57.7166 25.0541 H 0.0 **** 0.41
128 C3553 24.997 60.4246 14.4401 C.3 0.0 **** -0.106
129 H3586 16.2395 61.4569 22.7265 H 0.0 **** 0.053
130 C3533 17.3179 61.4207 22.9684 C.3 0.0 **** -0.106
@<TRIPOS>BOND
1 105 104 1
2 19 79 1
3 60 73 am
4 121 60 am
5 18 121 am
6 76 18 am
7 35 73 am
8 35 76 am
9 50 84 1
10 63 50 am
11 7 63 1
12 121 84 1
13 60 7 1
14 19 62 am
15 107 19 am
16 68 107 am
17 63 62 am
18 50 68 am
19 49 75 am
20 5 49 am
21 115 5 am
22 68 75 am
23 107 115 am
24 29 123 1
25 114 29 1
26 122 114 am
27 5 123 1
28 49 122 am
29 48 130 1
30 67 48 am
31 41 67 1
32 29 130 1
33 123 41 1
34 44 46 am
35 10 44 am
36 110 10 am
37 122 46 am
38 114 110 am
39 31 96 1
40 104 31 am
41 10 96 1
42 44 105 1
43 120 116 1
44 22 120 1
45 53 22 am
46 104 116 1
47 31 53 am
48 26 6 am
49 83 26 am
50 85 83 am
51 53 6 am
52 22 85 am
53 97 128 1
54 40 97 1
55 58 40 1
56 85 128 1
57 83 58 1
58 109 1 1
59 108 109 am
60 26 108 am
61 58 1 1
62 38 54 am
63 70 38 am
64 59 70 am
65 108 54 am
66 109 59 am
67 76 95 1
68 95 16 1
69 35 17 1
70 18 12 1
71 73 32 1
72 62 2 1
73 115 81 1
74 67 64 1
75 48 78 1
76 110 65 1
77 46 72 1
78 105 34 2
79 96 14 2
80 59 87 1
81 70 23 1
82 84 90 1
83 84 82 1
84 7 56 1
85 7 21 1
86 75 86 1
87 130 4 1
88 130 129 1
89 48 33 1
90 67 94 1
91 41 101 1
92 41 126 1
93 116 61 1
94 116 37 1
95 120 103 1
96 120 88 1
97 128 124 1
98 128 93 1
99 97 100 1
100 97 36 1
101 40 13 1
102 40 51 1
103 58 27 1
104 1 52 1
105 1 80 1
106 54 74 1
107 38 30 1
108 95 113 1
109 95 25 1
110 16 57 1
111 16 91 1
112 16 9 1
113 17 117 1
114 17 47 1
115 17 125 1
116 12 39 1
117 12 92 1
118 12 43 1
119 32 99 1
120 32 15 1
121 32 102 1
122 2 118 1
123 2 119 1
124 2 8 1
125 79 3 1
126 79 55 1
127 79 111 1
128 81 127 1
129 64 69 1
130 64 24 1
131 64 112 1
132 78 98 1
133 78 42 1
134 78 71 1
135 65 45 1
136 72 89 1
137 87 77 1
138 87 11 1
139 87 106 1
140 23 20 1
141 23 28 1
142 23 66 1
@<TRIPOS>MOLECULE
Sketch 4
130 142
SMALL
USER_CHARGES


@<TRIPOS>ATOM
1 C8851 28.4449 50.79 56.9954 C.ar 0.0 **** 0.0
2 H8952 27.3179 50.982 58.8391 H 0.0 **** 0.053
3 C8893 38.6666 57.0002 43.5543 C.ar 0.0 **** 0.0
4 C8885 34.5857 59.8201 42.7155 C.3 0.0 **** -0.106
5 C8903 33.8044 47.9088 49.1194 C.3 0.0 **** -0.159
6 H8942 21.1816 54.445 55.2399 H 0.0 **** 0.053
7 C8852 29.6345 50.3135 56.4537 C.ar 0.0 **** 0.0
8 H8921 30.1861 58.0719 48.3802 H 0.0 **** 0.053
9 H8945 26.5763 55.6006 53.0066 H 0.0 **** 0.053
10 C8902 33.9841 46.8245 51.7835 C.3 0.0 **** -0.159
11 H8961 33.2373 46.9804 48.9527 H 0.0 **** 0.053
12 C8884 33.5602 60.6497 43.4866 C.3 0.0 **** -0.106
13 C8853 30.1364 50.9075 55.2445 C.ar 0.0 **** 0.0
14 C8869 32.8754 54.2565 49.4932 C.ar 0.0 **** 0.052
15 H8964 29.8451 55.5492 51.1339 H 0.0 **** 0.41
16 H8919 34.2875 49.0067 53.0055 H 0.0 **** 0.053
17 C8865 33.02 47.999 51.5878 C.ar 0.0 **** -0.053
18 H8920 32.7156 48.5055 53.6545 H 0.0 **** 0.053
19 C8858 31.3802 50.5892 54.6454 C.ar 0.0 **** 0.042
20 O8907 34.599 54.447 47.9015 O.2 0.0 **** -0.419
21 C8876 31.4047 58.1757 46.5659 C.3 0.0 **** -0.106
22 C8850 26.3345 52.1832 56.9021 C.3 0.0 **** -0.106
23 C8888 37.371 57.4036 43.9275 C.ar 0.0 **** 0.0
24 C8892 39.4587 56.2744 44.469 C.ar 0.0 **** 0.0
25 O8905 29.9792 54.6464 51.6798 O.3 0.0 **** -0.452
26 C8898 23.6225 52.7442 57.7899 C.3 0.0 **** -0.159
27 C8849 27.6594 51.778 56.3101 C.ar 0.0 **** 0.0
28 C8854 29.3553 51.9138 54.5744 C.ar 0.0 **** 0.0
29 C8862 31.5834 52.8342 51.6374 C.ar 0.0 **** 0.0
30 H8968 40.8663 55.1483 43.2602 H 0.0 **** 0.053
31 H8967 39.3745 58.4211 42.0743 H 0.0 **** 0.053
32 C8881 34.7785 58.4004 44.7898 C.ar 0.0 **** 0.0
33 C8909 40.8592 55.8314 44.1254 C.3 0.0 **** -0.159
34 H8910 27.2297 52.9987 53.3061 H 0.0 **** 0.053
35 C8866 33.2022 48.9661 52.7895 C.3 0.0 **** -0.106
36 C8889 36.8487 57.0579 45.1914 C.ar 0.0 **** 0.0
37 H8951 27.3022 49.3484 58.1604 H 0.0 **** 0.053
38 C8887 36.4771 58.1531 42.971 C.3 0.0 **** -0.106
39 H8960 33.8113 48.478 48.178 H 0.0 **** 0.053
40 H8957 33.8246 46.0317 51.0398 H 0.0 **** 0.053
41 H8946 24.9518 55.6885 52.2892 H 0.0 **** 0.053
42 H8955 31.1796 49.4054 57.6997 H 0.0 **** 0.053
43 H8927 34.0952 61.367 44.1313 H 0.0 **** 0.053
44 C8875 31.2386 58.017 48.0746 C.3 0.0 **** -0.106
45 H8936 23.4663 56.4911 53.316 H 0.0 **** 0.053
46 C8890 37.636 56.3213 46.0867 C.ar 0.0 **** -0.1268
47 H8931 36.1566 59.8871 44.1773 H 0.0 **** 0.053
48 C8860 33.1654 50.959 51.3557 C.2 0.0 **** 0.0
49 C8868 31.7018 54.7758 50.0877 C.ar 0.0 **** 0.052
50 H8939 22.9172 54.4992 51.867 H 0.0 **** 0.053
51 H8918 31.9919 47.6064 51.6348 H 0.0 **** 0.053
52 C8897 25.652 55.0312 52.8148 C.3 0.0 **** -0.159
53 H8947 24.4414 52.5304 58.4879 H 0.0 **** 0.053
54 C8864 33.1857 48.7477 50.2401 C.ar 0.0 **** -0.053
55 C8883 32.6768 59.7471 44.3548 C.3 0.0 **** -0.106
56 C8863 33.9712 50.058 50.4488 C.3 0.0 **** -0.106
57 O8901 32.2857 49.87 55.3931 O.3 0.0 **** -0.452
58 C8877 32.8447 57.9828 46.1714 C.ar 0.0 **** 0.0
59 H8934 37.2084 56.0388 47.0487 H 0.0 **** 0.1268
60 H8954 29.6172 48.5516 57.7087 H 0.0 **** 0.053
61 C8843 25.4425 53.0592 56.0571 C.ar 0.0 **** 0.0
62 H8929 35.1686 60.4494 42.0245 H 0.0 **** 0.053
63 H8940 21.5108 55.5912 52.0032 H 0.0 **** 0.053
64 C8908 39.1849 57.3388 42.1758 C.3 0.0 **** -0.159
65 H8932 35.8738 57.4295 42.3886 H 0.0 **** 0.053
66 C8896 21.8388 54.3234 56.1108 C.3 0.0 **** -0.159
67 H8970 41.5022 56.6865 43.8623 H 0.0 **** 0.053
68 H8912 26.5202 52.6932 57.8678 H 0.0 **** 0.053
69 H8963 34.7787 53.3105 48.6986 H 0.0 **** 0.41
70 C8844 25.9065 53.6101 54.8605 C.ar 0.0 **** 0.0
71 H8924 30.7817 57.421 46.0494 H 0.0 **** 0.053
72 C8861 32.719 52.2721 50.9837 C.ar 0.0 **** 0.0
73 C8878 33.6162 57.0182 46.8653 C.ar 0.0 **** 0.2405
74 H8953 30.6967 48.4388 56.309 H 0.0 **** 0.053
75 C8847 27.2919 53.3264 54.3585 C.3 0.0 **** -0.106
76 C8874 31.16 56.0235 49.6249 C.2 0.0 **** 0.367
77 C8848 28.097 52.3149 55.1201 C.ar 0.0 **** 0.0
78 C8856 31.0173 52.151 52.7853 C.ar 0.0 **** 0.0
79 H8922 31.7635 58.8413 48.5931 H 0.0 **** 0.053
80 H8926 32.0924 60.3665 45.0527 H 0.0 **** 0.053
81 H8956 33.1562 49.9513 54.9722 H 0.0 **** 0.41
82 H8935 39.5388 55.3765 46.4249 H 0.0 **** 0.1268
83 H8950 28.7541 49.9597 58.9779 H 0.0 **** 0.053
84 H8969 41.3184 55.3058 44.9736 H 0.0 **** 0.053
85 H8915 34.1704 50.524 49.4835 H 0.0 **** 0.053
86 H8966 40.1217 56.8168 41.9495 H 0.0 **** 0.053
87 C8846 23.7739 54.7343 54.5226 C.ar 0.0 **** 0.0
88 N8879 34.8982 56.7688 46.563 N.ar 0.0 **** -0.481
89 H8917 32.1787 49.0506 49.9088 H 0.0 **** 0.053
90 H8911 27.8607 54.275 54.3033 H 0.0 **** 0.053
91 H8916 34.9552 49.8257 50.8968 H 0.0 **** 0.053
92 H8948 23.0766 51.7975 57.6299 H 0.0 **** 0.053
93 C8880 35.4607 57.4167 45.5373 C.ar 0.0 **** 0.2405
94 H8941 21.4636 53.467 56.6853 H 0.0 **** 0.053
95 C8895 22.1769 54.9179 52.5649 C.3 0.0 **** -0.159
96 C8845 25.0845 54.4591 54.0926 C.ar 0.0 **** 0.0
97 C8855 29.8409 52.5463 53.4198 C.ar 0.0 **** -0.1268
98 C8872 32.9851 56.2356 47.9498 C.ar 0.0 **** 0.0
99 O8906 30.1127 56.5388 50.1586 O.2 0.0 **** -0.419
100 H8914 29.293 53.3789 53.0099 H 0.0 **** 0.1268
101 H8928 32.9293 61.2386 42.8038 H 0.0 **** 0.053
102 C8871 33.5546 54.955 48.4191 C.2 0.0 **** 0.367
103 C8870 33.3987 53.0304 49.9548 C.ar 0.0 **** 0.042
104 C8891 38.9246 55.948 45.7256 C.ar 0.0 **** -0.1268
105 H8949 22.9316 53.4331 58.2942 H 0.0 **** 0.053
106 C8873 31.8295 56.7158 48.5336 C.ar 0.0 **** 0.0
107 C8900 30.3151 49.1173 57.0811 C.3 0.0 **** -0.159
108 C8857 31.7321 51.0276 53.3444 C.ar 0.0 **** 0.0
109 C8882 33.4499 58.6984 45.1252 C.ar 0.0 **** 0.0
110 O8904 34.5485 52.5927 49.4569 O.3 0.0 **** -0.452
111 H8965 38.4528 57.0714 41.3987 H 0.0 **** 0.053
112 H8944 25.9317 54.2243 52.1175 H 0.0 **** 0.053
113 C8894 22.8783 55.6529 53.7181 C.3 0.0 **** -0.106
114 H8930 34.0657 59.0603 42.1056 H 0.0 **** 0.053
115 H8943 21.7145 55.2209 56.7419 H 0.0 **** 0.053
116 C8886 35.5286 59.1145 43.6894 C.3 0.0 **** -0.053
117 H8959 35.0297 47.1624 51.7017 H 0.0 **** 0.053
118 H8937 22.1242 56.1124 54.3716 H 0.0 **** 0.053
119 C8859 32.7142 50.3727 52.5306 C.2 0.0 **** 0.0
120 H8958 33.8524 46.3857 52.7846 H 0.0 **** 0.053
121 C8841 23.2815 54.1237 55.697 C.ar 0.0 **** 0.0
122 H8923 31.0294 59.1573 46.251 H 0.0 **** 0.053
123 H8962 34.8432 47.632 49.3536 H 0.0 **** 0.053
124 H8938 21.578 54.079 52.9511 H 0.0 **** 0.053
125 H8913 25.7824 51.2703 57.1831 H 0.0 **** 0.053
126 H8925 31.9335 59.2354 43.717 H 0.0 **** 0.053
127 H8933 37.0681 58.7219 42.2398 H 0.0 **** 0.053
128 C8842 24.1265 53.3219 56.4864 C.ar 0.0 **** 0.0
129 C8899 27.9318 50.2435 58.309 C.3 0.0 **** -0.159
130 C8867 31.0653 54.0901 51.1498 C.ar 0.0 **** 0.042
@<TRIPOS>BOND
1 66 6 1
2 38 127 1
3 24 104 am
4 108 119 1
5 61 128 am
6 70 61 am
7 96 70 am
8 87 96 am
9 121 128 am
10 121 87 am
11 77 75 1
12 27 77 am
13 22 27 1
14 70 75 1
15 61 22 1
16 7 1 am
17 13 7 am
18 28 13 am
19 27 1 am
20 77 28 am
21 78 97 am
22 108 78 am
23 19 108 am
24 28 97 am
25 13 19 am
26 48 119 1
27 72 48 1
28 29 72 am
29 78 29 am
30 54 56 1
31 17 54 am
32 35 17 1
33 48 56 1
34 119 35 1
35 49 130 am
36 14 49 am
37 103 14 am
38 29 130 am
39 72 103 am
40 98 102 1
41 106 98 am
42 76 106 1
43 14 102 1
44 49 76 1
45 21 44 1
46 58 21 1
47 73 58 am
48 106 44 1
49 98 73 am
50 93 88 am
51 32 93 am
52 109 32 am
53 73 88 am
54 58 109 am
55 12 55 1
56 4 12 1
57 116 4 1
58 109 55 1
59 32 116 1
60 23 38 1
61 36 23 am
62 93 36 am
63 116 38 1
64 104 46 am
65 3 24 am
66 36 46 am
67 23 3 am
68 87 113 1
69 113 95 1
70 121 66 1
71 96 52 1
72 128 26 1
73 1 129 1
74 7 107 1
75 19 57 1
76 17 10 1
77 54 5 1
78 103 110 1
79 130 25 1
80 76 99 2
81 102 20 2
82 3 64 1
83 24 33 1
84 75 34 1
85 75 90 1
86 22 68 1
87 22 125 1
88 97 100 1
89 56 85 1
90 56 91 1
91 54 89 1
92 17 51 1
93 35 16 1
94 35 18 1
95 44 8 1
96 44 79 1
97 21 122 1
98 21 71 1
99 55 126 1
100 55 80 1
101 12 43 1
102 12 101 1
103 4 62 1
104 4 114 1
105 116 47 1
106 38 65 1
107 46 59 1
108 104 82 1
109 113 45 1
110 113 118 1
111 95 124 1
112 95 50 1
113 95 63 1
114 66 94 1
115 66 115 1
116 52 112 1
117 52 9 1
118 52 41 1
119 26 53 1
120 26 92 1
121 26 105 1
122 129 83 1
123 129 37 1
124 129 2 1
125 107 74 1
126 107 60 1
127 107 42 1
128 57 81 1
129 10 40 1
130 10 120 1
131 10 117 1
132 5 39 1
133 5 11 1
134 5 123 1
135 110 69 1
136 25 15 1
137 64 111 1
138 64 86 1
139 64 31 1
140 33 30 1
141 33 84 1
142 33 67 1
@<TRIPOS>MOLECULE
Sketch 4
130 142
SMALL
USER_CHARGES


@<TRIPOS>ATOM
1 C8239 75.5628 47.8485 68.306 C.ar 0.0 **** 0.0
2 H8302 61.8345 56.0471 75.9433 H 0.0 **** 0.053
3 H8273 76.1236 53.6926 70.5257 H 0.0 **** 0.053
4 C8225 74.1543 53.2924 71.3203 C.3 0.0 **** -0.106
5 C8252 63.2059 49.6542 67.6516 C.3 0.0 **** -0.159
6 C8234 79.1675 51.4491 69.1202 C.3 0.0 **** -0.106
7 C8216 64.2724 50.4875 69.7438 C.3 0.0 **** -0.106
8 C8212 67.9216 52.4031 71.1309 C.ar 0.0 **** 0.0
9 H8297 63.036 59.0259 76.6355 H 0.0 **** 0.053
10 H8295 68.909 57.4555 73.9764 H 0.0 **** 0.053
11 H8276 77.8929 52.7865 70.2489 H 0.0 **** 0.053
12 C8198 65.1566 55.605 73.711 C.ar 0.0 **** 0.0
13 C8238 76.628 47.4355 67.4786 C.ar 0.0 **** 0.0
14 H8299 63.7446 60.5951 77.0444 H 0.0 **** 0.053
15 H8285 73.7207 44.9869 68.2516 H 0.0 **** 0.1268
16 H8262 63.7124 57.0077 76.186 H 0.0 **** 0.053
17 C8224 71.633 53.1482 71.3973 C.2 0.0 **** 0.367
18 C8227 75.3831 51.8222 69.7293 C.ar 0.0 **** 0.0
19 H8301 60.9155 56.015 74.4321 H 0.0 **** 0.053
20 C8195 67.2226 58.8003 74.2118 C.ar 0.0 **** 0.0
21 C8200 63.8516 57.2298 75.1097 C.3 0.0 **** -0.106
22 H8303 61.5652 52.7095 72.3277 H 0.0 **** 0.053
23 O8257 71.6745 49.7509 69.0018 O.2 0.0 **** -0.419
24 C8219 70.4371 51.3467 70.2115 C.ar 0.0 **** 0.052
25 C8193 64.9745 58.2271 74.9638 C.ar 0.0 **** 0.0
26 C8210 66.7149 50.7384 69.7631 C.2 0.0 **** 0.0
27 C8233 77.8544 52.2169 69.3075 C.3 0.0 **** -0.106
28 H8316 77.5556 44.7985 65.4763 H 0.0 **** 0.053
29 H8311 64.9258 50.6023 65.4748 H 0.0 **** 0.053
30 H8293 65.9881 62.0179 76.8724 H 0.0 **** 0.053
31 O8254 69.2648 49.5865 69.1644 O.3 0.0 **** -0.452
32 H8260 66.6951 56.6336 72.669 H 0.0 **** 0.053
33 C8235 79.0412 50.433 67.9862 C.3 0.0 **** -0.106
34 H8292 66.1973 62.6073 75.2139 H 0.0 **** 0.053
35 H8287 68.1316 61.825 75.4764 H 0.0 **** 0.053
36 C8243 76.6352 46.1476 66.9114 C.ar 0.0 **** 0.0
37 C8191 65.854 60.4659 75.3479 C.ar 0.0 **** 0.0
38 C8218 70.4042 52.5045 71.023 C.ar 0.0 **** 0.052
39 H8275 77.7512 52.9715 68.507 H 0.0 **** 0.053
40 H8263 62.9034 57.7073 74.8099 H 0.0 **** 0.053
41 H8320 76.4499 43.2841 66.9136 H 0.0 **** 0.053
42 H8281 78.3754 48.7715 69.1716 H 0.0 **** 0.053
43 N8229 74.3553 49.6797 69.2847 N.ar 0.0 **** -0.481
44 C8231 76.6985 50.0157 68.8187 C.ar 0.0 **** 0.0
45 H8272 74.5601 52.7816 72.2138 H 0.0 **** 0.053
46 C8196 67.0774 60.0919 74.7496 C.ar 0.0 **** 0.0
47 H8279 80.0042 49.9366 67.7871 H 0.0 **** 0.053
48 H8270 63.3518 50.8858 70.1808 H 0.0 **** 0.053
49 C8226 75.1813 53.2403 70.1926 C.3 0.0 **** -0.106
50 H8266 66.2277 48.922 68.6855 H 0.0 **** 0.053
51 H8294 68.2655 58.0792 72.4607 H 0.0 **** 0.053
52 O8255 69.2159 54.1028 72.269 O.3 0.0 **** -0.452
53 H8298 62.8294 60.4019 75.5401 H 0.0 **** 0.053
54 H8269 64.2734 49.394 69.9187 H 0.0 **** 0.053
55 C8246 65.6462 61.8857 75.8309 C.3 0.0 **** -0.159
56 H8274 74.8218 53.8527 69.344 H 0.0 **** 0.053
57 C8242 75.5836 45.2536 67.2043 C.ar 0.0 **** 0.0
58 H8315 77.9377 46.5134 65.218 H 0.0 **** 0.053
59 H8278 79.987 52.1587 68.9301 H 0.0 **** 0.053
60 H8291 64.5868 62.1701 75.7974 H 0.0 **** 0.053
61 C8207 65.4788 52.0327 71.4397 C.ar 0.0 **** 0.0
62 H8289 68.3701 61.1147 72.4859 H 0.0 **** 0.053
63 H8282 77.4202 49.0343 66.2842 H 0.0 **** 0.053
64 H8261 67.1934 56.0101 74.2133 H 0.0 **** 0.053
65 C8201 62.8595 55.0408 74.3175 C.ar 0.0 **** 0.0
66 C8217 69.1736 53.0254 71.4895 C.ar 0.0 **** 0.042
67 H8268 63.7486 51.6938 68.0359 H 0.0 **** 0.053
68 C8192 64.8194 59.5234 75.4937 C.ar 0.0 **** 0.0
69 C8205 66.4923 53.9989 72.4374 C.ar 0.0 **** -0.1268
70 H8304 60.741 53.6945 73.5473 H 0.0 **** 0.053
71 C8249 61.6042 55.4296 75.0665 C.3 0.0 **** -0.159
72 C8258 77.7615 45.7461 65.9873 C.3 0.0 **** -0.159
73 C8253 65.6254 50.0798 66.1448 C.3 0.0 **** -0.159
74 C8223 72.8889 52.5969 70.9104 C.ar 0.0 **** 0.0
75 C8236 77.9843 49.3859 68.3356 C.3 0.0 **** -0.053
76 C8197 66.3474 56.518 73.7105 C.3 0.0 **** -0.106
77 H8296 69.2584 59.128 73.4843 H 0.0 **** 0.053
78 C8221 71.6888 50.7847 69.7419 C.2 0.0 **** 0.367
79 C8202 62.8973 53.8659 73.5735 C.ar 0.0 **** 0.0
80 C8248 63.5458 59.902 76.2159 C.3 0.0 **** -0.159
81 H8280 78.7414 50.949 67.0569 H 0.0 **** 0.053
82 H8288 67.2791 62.3493 73.142 H 0.0 **** 0.053
83 C8206 66.6489 52.8481 71.6666 C.ar 0.0 **** 0.0
84 H8313 70.3076 49.4512 68.9709 H 0.0 **** 0.41
85 H8305 61.5706 52.1885 74.01 H 0.0 **** 0.053
86 C8241 74.5373 45.6799 68.0376 C.ar 0.0 **** -0.1268
87 C8208 64.3322 52.268 72.2388 C.ar 0.0 **** 0.042
88 H8312 65.356 49.013 66.1481 H 0.0 **** 0.053
89 C8199 63.9882 55.9277 74.3643 C.ar 0.0 **** 0.0
90 C8203 64.1286 53.4838 72.937 C.ar 0.0 **** 0.0
91 H8308 62.254 49.6909 68.2035 H 0.0 **** 0.053
92 C8240 74.5135 46.96 68.5771 C.ar 0.0 **** -0.1268
93 O8256 71.6435 54.1844 72.1547 O.2 0.0 **** -0.419
94 H8290 69.0468 62.5691 73.2705 H 0.0 **** 0.053
95 H8286 69.1728 60.5831 74.8188 H 0.0 **** 0.053
96 H8307 62.9895 49.8185 66.587 H 0.0 **** 0.053
97 H8271 73.9274 54.3227 71.6222 H 0.0 **** 0.053
98 H8283 78.6527 47.9299 66.9007 H 0.0 **** 0.053
99 H8284 73.6846 47.3031 69.1962 H 0.0 **** 0.1268
100 H8264 67.3553 54.6211 72.6096 H 0.0 **** 0.1268
101 C8222 72.9455 51.4585 70.1309 C.ar 0.0 **** 0.0
102 H8317 78.7092 45.6269 66.5398 H 0.0 **** 0.053
103 C8194 66.1604 57.8795 74.3129 C.ar 0.0 **** 0.0
104 O8251 63.3938 51.273 72.3984 O.3 0.0 **** -0.452
105 H8300 61.0554 54.5481 75.4212 H 0.0 **** 0.053
106 C8259 75.5507 43.8568 66.6354 C.3 0.0 **** -0.159
107 C8213 66.5914 49.9463 68.4821 C.3 0.0 **** -0.106
108 C8250 61.6256 53.0755 73.3594 C.3 0.0 **** -0.159
109 C8244 68.2106 61.0925 74.6616 C.3 0.0 **** -0.106
110 H8319 74.6703 43.3105 67.0 H 0.0 **** 0.053
111 C8214 65.5898 50.6672 67.5576 C.ar 0.0 **** -0.053
112 C8247 68.482 58.3564 73.5057 C.3 0.0 **** -0.159
113 H8318 75.5084 43.8699 65.5339 H 0.0 **** 0.053
114 H8277 79.414 50.9134 70.0521 H 0.0 **** 0.053
115 C8209 65.5144 51.0728 70.3753 C.2 0.0 **** 0.0
116 H8265 67.5501 49.8415 67.9736 H 0.0 **** 0.053
117 H8306 63.7821 50.4397 72.0879 H 0.0 **** 0.41
118 C8220 69.2249 50.7227 69.8494 C.ar 0.0 **** 0.042
119 H8314 70.2514 54.3263 72.3639 H 0.0 **** 0.41
120 C8228 74.2669 50.95 69.7036 C.ar 0.0 **** 0.2405
121 C8204 65.2636 54.3662 73.0067 C.ar 0.0 **** 0.0
122 H8267 65.94 51.7104 67.4907 H 0.0 **** 0.053
123 C8215 64.1822 50.6959 68.2073 C.ar 0.0 **** -0.053
124 C8232 76.6257 51.333 69.2939 C.ar 0.0 **** 0.0
125 C8230 75.5277 49.2277 68.8269 C.ar 0.0 **** 0.2405
126 H8310 66.6363 50.1707 65.7206 H 0.0 **** 0.053
127 H8309 63.6173 48.6381 67.7623 H 0.0 **** 0.053
128 C8211 67.9514 51.2847 70.2472 C.ar 0.0 **** 0.0
129 C8237 77.7142 48.4352 67.168 C.3 0.0 **** -0.106
130 C8245 68.2335 61.828 73.3123 C.3 0.0 **** -0.159
@<TRIPOS>BOND
1 71 105 1
2 20 103 am
3 86 92 am
4 25 68 am
5 103 25 am
6 46 20 am
7 37 68 am
8 37 46 am
9 12 76 1
10 89 12 am
11 21 89 1
12 103 76 1
13 25 21 1
14 79 65 am
15 90 79 am
16 121 90 am
17 89 65 am
18 12 121 am
19 83 69 am
20 61 83 am
21 87 61 am
22 121 69 am
23 90 87 am
24 26 115 1
25 128 26 1
26 8 128 am
27 61 115 1
28 83 8 am
29 111 107 1
30 123 111 am
31 7 123 1
32 26 107 1
33 115 7 1
34 38 66 am
35 24 38 am
36 118 24 am
37 8 66 am
38 128 118 am
39 101 78 1
40 74 101 am
41 17 74 1
42 24 78 1
43 38 17 1
44 49 4 1
45 18 49 1
46 120 18 am
47 74 4 1
48 101 120 am
49 125 43 am
50 44 125 am
51 124 44 am
52 120 43 am
53 18 124 am
54 6 27 1
55 33 6 1
56 75 33 1
57 124 27 1
58 44 75 1
59 13 129 1
60 1 13 am
61 125 1 am
62 75 129 1
63 57 86 am
64 36 57 am
65 1 92 am
66 13 36 am
67 46 109 1
68 109 130 1
69 37 55 1
70 20 112 1
71 68 80 1
72 65 71 1
73 79 108 1
74 87 104 1
75 123 5 1
76 111 73 1
77 118 31 1
78 66 52 1
79 17 93 2
80 78 23 2
81 36 72 1
82 57 106 1
83 76 32 1
84 76 64 1
85 21 16 1
86 21 40 1
87 69 100 1
88 107 116 1
89 107 50 1
90 111 122 1
91 123 67 1
92 7 54 1
93 7 48 1
94 4 97 1
95 4 45 1
96 49 3 1
97 49 56 1
98 27 39 1
99 27 11 1
100 6 114 1
101 6 59 1
102 33 47 1
103 33 81 1
104 75 42 1
105 129 63 1
106 129 98 1
107 92 99 1
108 86 15 1
109 109 95 1
110 109 35 1
111 130 82 1
112 130 62 1
113 130 94 1
114 55 60 1
115 55 34 1
116 55 30 1
117 112 51 1
118 112 10 1
119 112 77 1
120 80 9 1
121 80 53 1
122 80 14 1
123 71 19 1
124 71 2 1
125 108 22 1
126 108 70 1
127 108 85 1
128 104 117 1
129 5 96 1
130 5 91 1
131 5 127 1
132 73 126 1
133 73 29 1
134 73 88 1
135 31 84 1
136 52 119 1
137 72 58 1
138 72 28 1
139 72 102 1
140 106 113 1
141 106 110 1
142 106 41 1
@<TRIPOS>MOLECULE
Sketch 4
130 142
SMALL
USER_CHARGES


@<TRIPOS>ATOM
1 H90 33.1859 16.3659 9.92061 H 0.0 **** 0.053
2 C17 46.1553 11.0779 10.2604 C.ar 0.0 **** 0.0
3 O66 41.7625 14.509 6.78531 O.2 0.0 **** -0.419
4 C12 49.608 10.8239 8.65055 C.ar 0.0 **** 0.0
5 C50 35.4671 11.0098 11.4062 C.ar 0.0 **** -0.1268
6 H83 37.3008 16.2573 6.84354 H 0.0 **** 0.053
7 H105 45.9173 15.5463 5.00827 H 0.0 **** 0.053
8 H76 43.6603 9.96407 13.4788 H 0.0 **** 0.053
9 H102 50.7621 18.4229 3.09016 H 0.0 **** 0.053
10 H84 38.3118 16.5102 8.26847 H 0.0 **** 0.053
11 H115 50.1326 8.8065 9.29796 H 0.0 **** 0.053
12 H108 52.8432 15.3661 4.71449 H 0.0 **** 0.053
13 C49 34.8758 12.2065 10.9793 C.ar 0.0 **** 0.0
14 C8 48.3872 12.9302 7.16026 C.ar 0.0 **** 0.0
15 O65 43.8936 13.6179 7.5452 O.3 0.0 **** -0.452
16 H103 50.9855 17.1166 1.91297 H 0.0 **** 0.053
17 H82 38.5877 14.2392 6.21468 H 0.0 **** 0.053
18 H121 44.9699 12.4 16.1578 H 0.0 **** 0.053
19 H118 47.4206 9.55994 14.9987 H 0.0 **** 0.053
20 C29 41.2577 12.6356 9.8707 C.ar 0.0 **** 0.052
21 H94 36.4579 10.7532 11.0311 H 0.0 **** 0.1268
22 C43 34.9167 16.1262 7.82151 C.3 0.0 **** -0.106
23 H122 44.0213 10.9075 15.9659 H 0.0 **** 0.053
24 C20 44.2059 11.1476 11.7468 C.2 0.0 **** 0.0
25 H106 46.2448 17.2741 4.74603 H 0.0 **** 0.053
26 C51 34.797 10.1931 12.3085 C.ar 0.0 **** -0.1268
27 H110 51.8584 9.97407 7.43173 H 0.0 **** 0.053
28 H128 32.7124 10.1217 14.7859 H 0.0 **** 0.053
29 H111 52.4416 11.5992 7.84241 H 0.0 **** 0.053
30 C22 44.1013 12.3024 9.56652 C.ar 0.0 **** 0.0
31 H107 52.2592 13.7901 4.1568 H 0.0 **** 0.053
32 C19 45.5202 10.7689 11.5082 C.2 0.0 **** 0.0
33 C68 31.6124 12.1978 12.9745 C.3 0.0 **** -0.159
34 C25 46.1513 11.0092 13.9903 C.ar 0.0 **** -0.053
35 C42 35.6183 15.0047 8.55723 C.ar 0.0 **** 0.0
36 C45 32.8621 15.6117 9.18178 C.3 0.0 **** -0.106
37 C54 48.2291 18.0484 3.40233 C.3 0.0 **** -0.106
38 H78 46.936 11.7809 13.947 H 0.0 **** 0.053
39 H104 46.4878 16.5456 6.34098 H 0.0 **** 0.053
40 C58 52.1132 14.872 4.04902 C.3 0.0 **** -0.159
41 H70 47.2877 14.747 7.19218 H 0.0 **** 0.053
42 H86 35.2957 16.1888 6.78967 H 0.0 **** 0.053
43 C27 43.327 13.0576 8.61063 C.ar 0.0 **** 0.042
44 C2 50.6958 15.2868 4.37402 C.ar 0.0 **** 0.0
45 H74 45.8229 13.3052 7.70726 H 0.0 **** 0.1268
46 C38 37.6105 13.7509 9.13843 C.ar 0.0 **** 0.2405
47 H81 39.709 15.5903 6.42111 H 0.0 **** 0.053
48 C18 47.4121 10.5493 9.87374 C.ar 0.0 **** 0.042
49 C52 33.54 10.546 12.8249 C.ar 0.0 **** 0.0
50 O64 41.3475 11.2674 11.7913 O.3 0.0 **** -0.452
51 C62 46.4655 10.0808 15.1679 C.3 0.0 **** -0.159
52 C5 48.0316 16.0257 4.91959 C.ar 0.0 **** 0.0
53 H95 35.2569 9.25914 12.6385 H 0.0 **** 0.1268
54 C46 33.4054 14.2449 9.59696 C.3 0.0 **** -0.053
55 H100 47.8825 20.1732 3.82679 H 0.0 **** 0.053
56 H87 33.1059 15.1988 7.08222 H 0.0 **** 0.053
57 O61 47.8396 9.34931 10.3966 O.3 0.0 **** -0.452
58 C16 45.5137 12.0275 9.38159 C.ar 0.0 **** 0.0
59 C28 41.9312 13.2246 8.77542 C.ar 0.0 **** 0.052
60 H130 31.8708 9.30984 13.457 H 0.0 **** 0.053
61 H109 52.384 15.1396 3.01876 H 0.0 **** 0.053
62 C6 48.8137 16.8141 4.05642 C.ar 0.0 **** 0.0
63 C26 46.2533 10.1709 12.6867 C.3 0.0 **** -0.106
64 C37 37.0054 14.8214 8.43468 C.ar 0.0 **** 0.0
65 C13 48.2416 11.1837 8.91622 C.ar 0.0 **** 0.0
66 C1 50.1629 16.4674 3.82418 C.ar 0.0 **** 0.0
67 C48 33.6091 12.5738 11.4796 C.ar 0.0 **** 0.0
68 H116 47.0808 8.91786 10.8206 H 0.0 **** 0.41
69 C24 44.7795 11.7256 14.0861 C.ar 0.0 **** -0.053
70 C23 43.7458 11.0257 13.1811 C.3 0.0 **** -0.106
71 H119 45.6818 9.31422 15.2781 H 0.0 **** 0.053
72 C33 39.7546 14.1421 7.9908 C.ar 0.0 **** 0.0
73 H88 32.9394 16.9256 7.44078 H 0.0 **** 0.053
74 C47 33.0263 13.8929 11.0366 C.3 0.0 **** -0.106
75 H72 50.7087 12.5247 5.00955 H 0.0 **** 0.053
76 C11 50.2813 11.4561 7.61014 C.ar 0.0 **** 0.0
77 H129 33.4708 8.72743 13.9823 H 0.0 **** 0.053
78 H85 35.1927 17.0838 8.29867 H 0.0 **** 0.053
79 H97 48.7601 18.2667 2.46565 H 0.0 **** 0.053
80 C3 49.9041 14.4941 5.22847 C.ar 0.0 **** 0.0
81 C14 47.6322 12.2488 8.16403 C.ar 0.0 **** 0.0
82 H99 47.7128 19.0991 5.24321 H 0.0 **** 0.053
83 H125 31.6524 13.2407 13.3241 H 0.0 **** 0.053
84 H123 40.3328 11.5732 11.6497 H 0.0 **** 0.41
85 H98 49.3275 19.4861 4.62027 H 0.0 **** 0.053
86 H124 43.0916 14.0906 7.03076 H 0.0 **** 0.41
87 H75 42.763 11.4723 13.3333 H 0.0 **** 0.053
88 H89 31.7608 15.5935 9.196 H 0.0 **** 0.053
89 H79 45.8104 9.18039 12.908 H 0.0 **** 0.053
90 C55 48.2884 19.2778 4.32278 C.3 0.0 **** -0.159
91 C7 47.7293 14.0703 6.43989 C.3 0.0 **** -0.106
92 H77 44.9094 12.7371 13.6672 H 0.0 **** 0.053
93 C40 35.5957 13.1106 10.0632 C.ar 0.0 **** 0.2405
94 H120 43.3145 12.4728 15.5045 H 0.0 **** 0.053
95 C32 39.0742 13.5622 9.04326 C.ar 0.0 **** 0.0
96 H92 33.389 14.6977 11.7053 H 0.0 **** 0.053
97 C10 50.4912 13.2397 5.8273 C.3 0.0 **** -0.106
98 H114 51.4355 10.0076 9.47105 H 0.0 **** 0.053
99 C57 46.6012 16.3742 5.25772 C.3 0.0 **** -0.159
100 C44 33.3906 15.9877 7.79841 C.3 0.0 **** -0.106
101 H73 51.4831 13.4718 6.2509 H 0.0 **** 0.053
102 C63 44.244 11.8843 15.511 C.3 0.0 **** -0.159
103 C41 34.9001 14.1436 9.39926 C.ar 0.0 **** 0.0
104 C30 41.9954 11.8933 10.8166 C.ar 0.0 **** 0.042
105 H96 47.186 17.8585 3.10957 H 0.0 **** 0.053
106 C34 41.1895 13.9832 7.80639 C.2 0.0 **** 0.367
107 C53 32.9453 11.7579 12.4145 C.ar 0.0 **** 0.0
108 H112 51.9104 11.2363 6.19448 H 0.0 **** 0.053
109 H126 31.2941 11.5726 13.8166 H 0.0 **** 0.053
110 C60 50.3525 9.85713 9.54438 C.3 0.0 **** -0.159
111 H127 30.8208 12.1504 12.2072 H 0.0 **** 0.053
112 N39 36.9087 12.9085 9.90971 N.ar 0.0 **** -0.481
113 C31 39.8249 12.7765 10.045 C.2 0.0 **** 0.367
114 H113 50.065 9.99814 10.593 H 0.0 **** 0.053
115 H93 31.9308 13.8903 11.1219 H 0.0 **** 0.053
116 H91 32.9417 13.4797 8.94208 H 0.0 **** 0.053
117 C9 49.6753 12.5334 6.87864 C.ar 0.0 **** 0.0
118 C35 39.0093 14.9393 6.96032 C.3 0.0 **** -0.106
119 C15 46.2863 12.5898 8.36678 C.ar 0.0 **** -0.1268
120 H117 46.5395 10.6293 16.117 H 0.0 **** 0.053
121 O67 39.2594 12.2436 11.0514 O.2 0.0 **** -0.419
122 H101 52.1 17.2832 3.28137 H 0.0 **** 0.053
123 C21 43.4347 11.7778 10.7125 C.ar 0.0 **** 0.0
124 C36 37.8793 15.7309 7.61271 C.3 0.0 **** -0.106
125 C56 51.0463 17.3676 2.98651 C.3 0.0 **** -0.159
126 C4 48.5902 14.8746 5.51054 C.ar 0.0 **** 0.0
127 C59 51.6917 11.0437 7.25193 C.3 0.0 **** -0.159
128 H71 46.8506 13.6888 5.88409 H 0.0 **** 0.053
129 C69 32.8643 9.6273 13.8123 C.3 0.0 **** -0.159
130 H80 47.3168 10.0134 12.4835 H 0.0 **** 0.053
@<TRIPOS>BOND
1 62 37 1
2 80 44 am
3 126 80 am
4 52 126 am
5 62 52 am
6 66 44 am
7 66 62 am
8 14 91 1
9 117 14 am
10 97 117 1
11 126 91 1
12 80 97 1
13 4 76 am
14 65 4 am
15 81 65 am
16 117 76 am
17 14 81 am
18 58 119 am
19 2 58 am
20 48 2 am
21 81 119 am
22 65 48 am
23 24 32 1
24 123 24 1
25 30 123 am
26 2 32 1
27 58 30 am
28 69 70 1
29 34 69 am
30 63 34 1
31 24 70 1
32 32 63 1
33 59 43 am
34 20 59 am
35 104 20 am
36 30 43 am
37 123 104 am
38 95 113 1
39 72 95 am
40 106 72 1
41 20 113 1
42 59 106 1
43 124 118 1
44 64 124 1
45 46 64 am
46 72 118 1
47 95 46 am
48 93 112 am
49 103 93 am
50 35 103 am
51 46 112 am
52 64 35 am
53 100 22 1
54 36 100 1
55 54 36 1
56 35 22 1
57 103 54 1
58 67 74 1
59 13 67 am
60 93 13 am
61 54 74 1
62 26 5 am
63 49 26 am
64 107 49 am
65 13 5 am
66 67 107 am
67 37 90 1
68 66 125 1
69 52 99 1
70 44 40 1
71 76 127 1
72 4 110 1
73 48 57 1
74 34 51 1
75 69 102 1
76 104 50 1
77 43 15 1
78 106 3 2
79 113 121 2
80 107 33 1
81 49 129 1
82 91 41 1
83 91 128 1
84 97 75 1
85 97 101 1
86 119 45 1
87 70 87 1
88 70 8 1
89 69 92 1
90 34 38 1
91 63 89 1
92 63 130 1
93 118 47 1
94 118 17 1
95 124 6 1
96 124 10 1
97 22 78 1
98 22 42 1
99 100 56 1
100 100 73 1
101 36 88 1
102 36 1 1
103 54 116 1
104 74 96 1
105 74 115 1
106 5 21 1
107 26 53 1
108 37 105 1
109 37 79 1
110 90 85 1
111 90 82 1
112 90 55 1
113 125 122 1
114 125 9 1
115 125 16 1
116 99 39 1
117 99 7 1
118 99 25 1
119 40 31 1
120 40 12 1
121 40 61 1
122 127 27 1
123 127 29 1
124 127 108 1
125 110 114 1
126 110 98 1
127 110 11 1
128 57 68 1
129 51 120 1
130 51 19 1
131 51 71 1
132 102 94 1
133 102 18 1
134 102 23 1
135 50 84 1
136 15 86 1
137 33 83 1
138 33 109 1
139 33 111 1
140 129 28 1
141 129 77 1
142 129 60 1
@<TRIPOS>MOLECULE
Sketch 4
250 292
SMALL
USER_CHARGES


@<TRIPOS>ATOM
1 C30192 19.1972 12.8461 58.5449 C.3 0.0 **** -0.106
2 H30387 14.1722 17.0295 59.9442 H 0.0 **** 0.053
3 H30312 13.7262 11.7245 50.7436 H 0.0 **** 0.053
4 C30291 8.70116 -4.17746 80.7531 C.2 0.0 **** -0.1268
5 H30321 10.777 5.5826 57.132 H 0.0 **** 0.053
6 H30331 18.9872 13.6918 56.5568 H 0.0 **** 0.053
7 C30195 15.3543 13.2919 58.8298 C.3 0.0 **** -0.106
8 C30267 8.37732 -1.37538 73.7898 C.2 0.0 **** 0.0
9 H30372 8.00423 0.13201 67.7846 H 0.0 **** 0.1268
10 H30329 16.7119 10.1859 53.8371 H 0.0 **** 0.1268
11 H30340 18.1431 15.2554 59.8372 H 0.0 **** 0.053
12 C30286 8.03427 -3.85346 78.0362 C.2 0.0 **** 0.0
13 C30216 11.6122 5.67225 62.5489 C.2 0.0 **** 0.0
14 H30350 14.3841 8.70693 72.7497 H 0.0 **** 0.053
15 C30298 12.4136 -0.680771 81.654 C.3 0.0 **** -0.106
16 C30232 15.0368 5.76532 72.6321 C.3 0.0 **** -0.053
17 C30275 7.19989 -2.22703 71.794 C.2 0.0 **** -0.1268
18 C30257 8.69447 -0.230616 71.6689 C.2 0.0 **** 0.0265
19 C30214 12.413 4.35152 68.9312 C.2 0.0 **** 0.0
20 S30203 14.9359 9.7812 62.0401 S.2 0.0 **** 0.024
21 C30163 14.107 12.3221 51.5876 C.3 0.0 **** -0.106
22 C30181 11.9865 6.73534 60.3894 C.2 0.0 **** 0.232
23 C30157 11.9989 13.6166 52.2937 C.3 0.0 **** -0.053
24 C30219 10.9614 4.69603 63.3975 C.2 0.0 **** 0.0
25 C30196 15.3707 14.5452 59.7121 C.3 0.0 **** -0.053
26 H30367 5.77732 2.18844 60.2974 H 0.0 **** 0.053
27 C30184 15.6874 10.4201 55.6853 C.2 0.0 **** 0.0
28 C30296 10.6256 -1.02538 79.9138 C.2 0.0 **** 0.0
29 H30379 12.1783 4.67586 75.5365 H 0.0 **** 0.053
30 C30198 17.8099 14.2633 60.1996 C.3 0.0 **** -0.106
31 H30369 7.27365 0.377377 60.6774 H 0.0 **** 0.053
32 C30288 9.37754 -1.79732 77.9328 C.2 0.0 **** 0.0
33 C30159 9.9891 12.1842 52.7946 C.3 0.0 **** 0.054
34 C30299 11.4095 -1.13387 82.7006 C.3 0.0 **** -0.086
35 H30318 11.0397 9.5264 52.6885 H 0.0 **** 0.053
36 C30246 5.83447 1.87495 61.3539 C.3 0.0 **** -0.106
37 C30261 9.86814 0.553653 73.645 C.2 0.0 **** 0.0
38 H30401 13.1266 0.0456371 82.0726 H 0.0 **** 0.053
39 H30390 16.5843 7.21363 67.8388 H 0.0 **** 0.41
40 C30228 15.371 6.67971 69.2701 C.3 0.0 **** 0.107
41 C30289 9.04054 -1.64959 76.5569 C.2 0.0 **** 0.0
42 C30191 19.1294 12.6953 57.0224 C.3 0.0 **** -0.106
43 C30282 6.49332 -4.48615 74.6736 C.2 0.0 **** -0.1268
44 C30248 9.39972 1.75338 67.33 C.2 0.0 **** 0.0
45 C30250 10.023 1.6764 70.0877 C.2 0.0 **** 0.0
46 C30170 12.6142 8.15461 55.8272 C.2 0.0 **** 0.0
47 C30255 11.8406 3.44462 71.2032 C.2 0.0 **** -0.1268
48 C30199 14.5956 9.47034 60.352 C.2 0.0 **** -0.012
49 O30180 11.617 6.73526 59.0662 O.3 0.0 **** -0.464
50 C30186 15.0277 10.1338 58.0266 C.2 0.0 **** 0.0
51 C30220 11.0489 3.57904 67.0143 C.2 0.0 **** 0.0
52 C30276 6.67497 -3.25195 72.531 C.2 0.0 **** -0.1268
53 H30363 7.41824 4.60671 62.7123 H 0.0 **** 0.053
54 H30349 16.1473 9.02236 70.8562 H 0.0 **** 0.053
55 H30305 12.8655 13.7224 54.2915 H 0.0 **** 0.053
56 C30218 11.327 4.60609 64.774 C.2 0.0 **** 0.0
57 C30252 8.75 0.815323 68.1922 C.2 0.0 **** -0.1268
58 C30290 9.21323 -3.0449 80.0612 C.2 0.0 **** 0.0
59 H30302 10.294 14.4867 55.1068 H 0.0 **** 0.053
60 H30326 11.222 6.88863 53.0278 H 0.0 **** 0.053
61 H30322 9.84059 6.96594 56.5712 H 0.0 **** 0.053
62 C30210 13.7392 6.23689 67.2138 C.2 0.0 **** 0.0
63 C30239 9.71153 2.76321 65.1361 C.2 0.0 **** 0.0
64 C30235 14.692 5.89686 75.6201 C.3 0.0 **** 0.081
65 H30377 12.4297 2.44554 76.246 H 0.0 **** 0.053
66 H30316 15.0949 8.62706 53.7636 H 0.0 **** 0.053
67 C30204 14.4919 8.33946 64.2232 C.2 0.0 **** -0.1268
68 C30173 14.0081 9.1774 57.5865 C.2 0.0 **** 0.0
69 H30324 11.8303 5.34306 54.8915 H 0.0 **** 0.053
70 C30207 12.5937 6.55844 63.108 C.2 0.0 **** 0.0
71 C30217 11.3427 5.80073 61.1706 C.2 0.0 **** -0.1268
72 C30294 10.2246 -0.839125 78.5544 C.2 0.0 **** 0.0
73 C30156 11.9919 14.1209 53.7516 C.3 0.0 **** -0.106
74 C30187 16.8651 11.764 57.4182 C.2 0.0 **** 0.0
75 H30336 15.6965 15.3967 59.0858 H 0.0 **** 0.053
76 C30176 11.9268 7.37173 56.8358 C.2 0.0 **** 0.0
77 C30251 9.06143 0.782224 69.5232 C.2 0.0 **** 0.042
78 H30370 6.9258 0.30016 62.4097 H 0.0 **** 0.053
79 C30226 14.2122 6.18858 71.4177 C.3 0.0 **** 0.107
80 C30269 10.2436 0.480949 76.4959 C.2 0.0 **** 0.0
81 C30224 10.3943 2.6423 67.8568 C.2 0.0 **** 0.0
82 C30230 15.4109 8.30064 72.7912 C.3 0.0 **** -0.106
83 H30373 12.5365 4.1318 71.6579 H 0.0 **** 0.1268
84 C30188 17.9842 11.8008 56.6376 C.2 0.0 **** 0.0
85 C30238 9.37753 2.83931 63.7591 C.2 0.0 **** 0.042
86 C30223 10.7017 2.59606 69.2399 C.2 0.0 **** 0.0
87 C30155 10.6962 13.6836 54.4743 C.3 0.0 **** 0.054
88 C30264 11.2186 4.14034 75.5501 C.3 0.0 **** -0.106
89 C30174 13.3224 8.39732 58.5896 C.2 0.0 **** 0.0
90 C30254 11.1663 2.56389 72.029 C.2 0.0 **** 0.0
91 C30233 14.2993 4.68552 73.4413 C.3 0.0 **** -0.106
92 H30335 14.7403 12.5145 59.3096 H 0.0 **** 0.053
93 H30388 14.5449 16.4766 61.596 H 0.0 **** 0.053
94 C30266 9.23966 -0.43348 74.4191 C.2 0.0 **** 0.0
95 C30183 13.6044 8.51225 59.9562 C.2 0.0 **** 0.0
96 H30404 11.8712 -1.63648 83.5624 H 0.0 **** 0.053
97 H30342 15.2152 9.02125 64.6763 H 0.0 **** 0.1268
98 H30333 19.4852 11.8757 58.9933 H 0.0 **** 0.053
99 H30314 13.3245 14.092 50.6206 H 0.0 **** 0.053
100 H30328 18.5907 11.6084 54.6042 H 0.0 **** 0.053
101 C30268 8.08 -1.26859 72.3947 C.2 0.0 **** 0.0
102 H30403 10.8686 -0.255962 83.1 H 0.0 **** 0.053
103 C30227 14.8524 7.3149 70.5683 C.3 0.0 **** -0.053
104 H30355 14.3285 3.72712 72.9053 H 0.0 **** 0.053
105 O30225 14.0191 4.97414 70.6386 O.3 0.0 **** -0.202
106 H30378 11.1808 2.96314 77.3879 H 0.0 **** 0.053
107 O30301 9.71135 -2.76025 82.9563 O.2 0.0 **** -0.419
108 C30161 12.3525 11.2142 53.0426 C.3 0.0 **** -0.053
109 H30303 10.8888 12.8042 55.1209 H 0.0 **** 0.053
110 H30385 14.0852 14.056 62.2533 H 0.0 **** 0.053
111 C30260 10.9316 1.3965 74.2975 C.3 0.0 **** -0.053
112 C30215 12.0682 4.43283 67.5528 C.2 0.0 **** 0.0
113 H30384 12.4389 14.088 61.5876 H 0.0 **** 0.053
114 C30300 10.3463 -2.07693 82.1514 C.2 0.0 **** 0.347
115 H30344 10.6242 5.15935 60.6817 H 0.0 **** 0.1268
116 C30182 12.947 7.63156 60.8922 C.2 0.0 **** 0.0
117 H30395 6.28833 -6.74203 78.6935 H 0.0 **** 0.1268
118 H30317 13.2183 7.95504 52.658 H 0.0 **** 0.053
119 C30253 10.2703 1.64435 71.4684 C.2 0.0 **** 0.0
120 C30297 11.6489 -0.0698239 80.4861 C.3 0.0 **** -0.106
121 H30346 14.0638 8.02934 70.283 H 0.0 **** 0.053
122 N30236 14.5454 7.0712 74.7468 N.3 0.0 **** -0.727
123 C30281 6.82525 -4.65164 76.0279 C.2 0.0 **** 0.0
124 C30258 9.59557 0.65909 72.2784 C.2 0.0 **** 0.0
125 H30357 14.3758 3.73722 75.3979 H 0.0 **** 0.053
126 H30339 18.5552 13.9655 60.9596 H 0.0 **** 0.053
127 H30392 6.00918 -3.97993 72.0641 H 0.0 **** 0.1268
128 C30206 12.9358 6.44988 64.4841 C.2 0.0 **** 0.0
129 H30304 12.0878 15.2175 53.7507 H 0.0 **** 0.053
130 C30249 9.08593 1.82752 65.973 C.2 0.0 **** -0.1268
131 C30273 13.8762 16.3214 60.7343 C.3 0.0 **** -0.159
132 H30382 9.64487 3.81357 74.0585 H 0.0 **** 0.053
133 C30167 12.9691 8.74788 53.389 C.3 0.0 **** -0.053
134 H30374 12.4691 2.76131 73.6819 H 0.0 **** 0.053
135 H30345 13.2117 6.51037 71.7627 H 0.0 **** 0.053
136 H30343 14.968 7.96082 66.7838 H 0.0 **** 0.1268
137 C30272 13.4949 13.908 61.3359 C.3 0.0 **** -0.159
138 C30278 7.84721 -2.45641 74.5477 C.2 0.0 **** 0.0
139 H30358 15.5597 6.06397 76.2807 H 0.0 **** 0.053
140 C30265 10.7405 3.91883 74.1026 C.3 0.0 **** -0.106
141 C30189 18.0873 11.0001 55.3809 C.3 0.0 **** -0.106
142 C30242 8.2863 3.21318 61.317 C.3 0.0 **** 0.107
143 O30256 8.40804 -0.140495 70.326 O.3 0.0 **** -0.0685
144 C30200 15.2814 10.2208 59.4287 C.2 0.0 **** -0.1268
145 H30399 12.3522 0.22175 79.6935 H 0.0 **** 0.053
146 C30164 13.4034 13.6904 51.642 C.3 0.0 **** -0.106
147 H30323 10.0627 5.37762 54.7034 H 0.0 **** 0.053
148 C30293 10.6047 0.310656 77.8136 C.2 0.0 **** -0.1268
149 C30190 16.7705 10.4934 54.8798 C.2 0.0 **** -0.1268
150 H30311 14.2083 12.1628 53.7233 H 0.0 **** 0.053
151 H30309 9.26022 12.1547 51.9725 H 0.0 **** 0.053
152 H30351 16.0157 9.03369 73.3424 H 0.0 **** 0.053
153 C30283 6.32688 -5.74947 76.7955 C.2 0.0 **** -0.1268
154 C30201 13.2339 7.54609 62.2786 C.2 0.0 **** 0.0
155 C30158 11.4438 12.1834 52.2573 C.3 0.0 **** -0.053
156 H30371 8.33965 1.15315 65.5559 H 0.0 **** 0.1268
157 H30356 15.9387 4.29579 74.7855 H 0.0 **** 0.053
158 C30287 8.88137 -2.90213 78.6812 C.2 0.0 **** 0.0
159 C30211 14.2719 7.23226 66.3799 C.2 0.0 **** -0.1268
160 H30308 9.82819 11.2921 53.4354 H 0.0 **** 0.053
161 C30172 14.3201 9.95628 55.2418 C.3 0.0 **** -0.053
162 H30313 15.1884 12.4455 51.4326 H 0.0 **** 0.053
163 C30284 6.66637 -5.89737 78.1142 C.2 0.0 **** -0.1268
164 H30381 10.9941 4.78472 73.4725 H 0.0 **** 0.053
165 H30394 5.67018 -6.46971 76.3041 H 0.0 **** 0.1268
166 H30359 13.8032 5.85346 76.2669 H 0.0 **** 0.053
167 C30263 11.39 2.80703 76.32 C.3 0.0 **** -0.106
168 H30380 10.5001 4.78589 76.0784 H 0.0 **** 0.053
169 H30353 15.9775 5.33791 72.2454 H 0.0 **** 0.053
170 C30193 17.8494 13.2755 59.0705 C.2 0.0 **** 0.0
171 H30375 11.8147 0.736796 74.412 H 0.0 **** 0.053
172 H30402 12.9944 -1.54486 81.2917 H 0.0 **** 0.053
173 H30334 14.8374 13.514 57.8791 H 0.0 **** 0.053
174 H30360 13.572 7.16971 74.4558 H 0.0 **** 0.353
175 C30244 7.08205 4.02076 61.8446 C.3 0.0 **** -0.106
176 C30166 14.3027 9.38837 53.8138 C.3 0.0 **** 0.107
177 H30393 5.83896 -5.21772 74.1945 H 0.0 **** 0.1268
178 O30240 8.4438 1.92768 63.3233 O.3 0.0 **** -0.202
179 H30391 6.96427 -2.12778 70.7345 H 0.0 **** 0.1268
180 C30247 7.08183 0.993239 61.5688 C.3 0.0 **** -0.106
181 C30213 13.5136 5.14777 69.3683 C.2 0.0 **** 0.042
182 O30165 14.6677 10.3589 52.8179 O.3 0.0 **** -0.32
183 H30386 13.5976 12.853 61.0395 H 0.0 **** 0.053
184 C30179 11.0841 7.19759 54.0778 C.3 0.0 **** -0.106
185 H30397 7.51562 -5.95921 80.6827 H 0.0 **** 0.1268
186 C30295 10.0834 -2.06603 80.68 C.2 0.0 **** 0.052
187 H30306 11.3057 14.2562 51.7281 H 0.0 **** 0.053
188 C30171 13.6759 9.03246 56.2509 C.2 0.0 **** 0.0
189 H30354 13.235 4.96766 73.5162 H 0.0 **** 0.053
190 H30352 16.416 6.79246 73.935 H 0.0 **** 0.053
191 C30270 9.52271 -0.545345 75.8243 C.2 0.0 **** 0.0
192 C30231 15.3948 6.97533 73.5589 C.3 0.0 **** 0.134
193 C30178 10.9369 5.9802 54.9937 C.3 0.0 **** -0.106
194 H30398 11.1601 1.10332 78.3076 H 0.0 **** 0.1268
195 C30285 7.52387 -4.95954 78.7665 C.2 0.0 **** 0.0
196 C30245 5.88865 3.1244 62.2401 C.3 0.0 **** -0.106
197 H30400 11.1488 0.859876 80.8175 H 0.0 **** 0.053
198 H30338 16.3779 15.2092 61.5338 H 0.0 **** 0.053
199 H30332 19.968 13.5763 58.8367 H 0.0 **** 0.053
200 C30280 7.6891 -3.70041 76.6608 C.2 0.0 **** 0.0
201 H30362 8.27063 3.15371 60.2195 H 0.0 **** 0.053
202 H30364 6.78506 4.73831 61.0657 H 0.0 **** 0.053
203 C30222 11.6759 3.47228 69.8048 C.2 0.0 **** 0.0
204 H30347 16.0474 5.85164 69.5668 H 0.0 **** 0.053
205 C30162 13.8624 11.5467 52.871 C.3 0.0 **** 0.107
206 H30376 9.46073 2.20728 75.624 H 0.0 **** 0.053
207 O30160 9.66094 13.3639 53.5384 O.3 0.0 **** -0.32
208 H30383 13.2692 14.7711 59.3791 H 0.0 **** 0.053
209 C30169 12.2349 8.06843 54.4972 C.2 0.0 **** 0.0
210 H30368 4.92715 1.28679 61.5556 H 0.0 **** 0.053
211 C30237 9.9456 3.79104 62.9263 C.2 0.0 **** 0.042
212 C30279 8.19259 -2.60745 75.9169 C.2 0.0 **** 0.0
213 H30325 10.1398 7.77776 54.0995 H 0.0 **** 0.053
214 H30310 12.0864 11.2955 54.1087 H 0.0 **** 0.053
215 H30315 14.0256 14.4011 52.2104 H 0.0 **** 0.053
216 C30209 12.7112 5.37121 66.6918 C.2 0.0 **** 0.0
217 C30175 12.3038 7.5012 58.1438 C.2 0.0 **** 0.232
218 H30330 20.072 12.2913 56.6198 H 0.0 **** 0.053
219 C30168 12.1074 9.7751 52.5973 C.3 0.0 **** -0.106
220 H30348 16.8581 7.49543 71.3852 H 0.0 **** 0.053
221 O30243 9.53104 3.87462 61.6159 O.3 0.0 **** -0.202
222 C30277 6.98735 -3.41553 73.9213 C.2 0.0 **** 0.0
223 C30208 12.3278 5.47629 65.3195 C.2 0.0 **** 0.0
224 C30259 11.3866 2.65064 73.5159 C.3 0.0 **** -0.053
225 H30320 13.6767 10.8592 55.2637 H 0.0 **** 0.053
226 C30271 13.9577 14.8743 60.2377 C.3 0.0 **** -0.053
227 C30262 10.4667 1.75158 75.7224 C.3 0.0 **** -0.053
228 C30194 16.7316 12.7619 58.5042 C.2 0.0 **** 0.0
229 H30365 4.95304 3.69732 62.1618 H 0.0 **** 0.053
230 C30234 14.8704 4.55679 74.8525 C.3 0.0 **** -0.106
231 H30307 11.4219 11.843 51.2085 H 0.0 **** 0.053
232 H30327 18.7821 10.1451 55.5355 H 0.0 **** 0.053
233 H30396 8.95343 -4.30103 81.8008 H 0.0 **** 0.1268
234 C30221 10.702 3.65964 65.6404 C.2 0.0 **** 0.0
235 H30389 12.8546 16.5724 61.0579 H 0.0 **** 0.053
236 C30197 16.4168 14.3728 60.8191 C.3 0.0 **** -0.106
237 H30366 5.99572 2.81336 63.2899 H 0.0 **** 0.053
238 H30361 9.24878 1.30178 61.5238 H 0.0 **** 0.053
239 H30341 16.0767 10.8823 59.7714 H 0.0 **** 0.1268
240 C30212 14.1833 6.04265 68.5554 C.2 0.0 **** 0.0
241 C30241 8.33826 1.80606 61.8882 C.3 0.0 **** 0.107
242 C30185 15.8051 10.8137 57.0869 C.2 0.0 **** 0.0
243 O30274 16.1336 7.66396 68.5697 O.3 0.0 **** -0.57
244 C30205 13.9016 7.34203 65.0432 C.2 0.0 **** 0.0
245 H30319 12.363 9.70677 51.5282 H 0.0 **** 0.053
246 C30229 15.92 8.07621 71.3634 C.3 0.0 **** -0.106
247 C30202 14.1784 8.44482 62.8922 C.2 0.0 **** -0.012
248 H30337 16.1974 13.4501 61.3808 H 0.0 **** 0.053
249 C30292 7.88905 -5.09814 80.1244 C.2 0.0 **** -0.1268
250 C30177 10.8066 6.44116 56.4458 C.3 0.0 **** -0.106
@<TRIPOS>BOND
1 36 196 1
2 103 121 1
3 244 159 un
4 23 73 1
5 155 23 1
6 33 155 1
7 207 33 1
8 87 73 1
9 87 207 1
10 205 108 1
11 21 205 1
12 146 21 1
13 155 108 1
14 23 146 1
15 176 182 1
16 133 176 1
17 219 133 1
18 205 182 1
19 108 219 1
20 46 209 un
21 188 46 un
22 161 188 un
23 133 209 1
24 176 161 1
25 89 68 1
26 217 89 un
27 76 217 un
28 188 68 un
29 46 76 un
30 193 250 1
31 184 193 1
32 209 184 1
33 76 250 1
34 22 49 1
35 116 22 un
36 95 116 un
37 217 49 1
38 89 95 un
39 242 27 un
40 50 242 2
41 161 27 1
42 68 50 un
43 84 74 2
44 141 84 1
45 149 141 1
46 242 74 1
47 27 149 2
48 1 42 1
49 170 1 1
50 228 170 2
51 84 42 1
52 74 228 1
53 25 7 1
54 236 25 1
55 30 236 1
56 228 7 1
57 170 30 1
58 144 48 un
59 50 144 un
60 95 48 un
61 247 154 un
62 20 247 1
63 48 20 un
64 116 154 un
65 244 67 un
66 128 244 un
67 70 128 un
68 247 67 un
69 154 70 un
70 216 223 un
71 62 216 un
72 159 62 un
73 128 223 un
74 181 240 un
75 19 181 un
76 112 19 un
77 62 240 un
78 216 112 un
79 71 13 un
80 22 71 un
81 70 13 un
82 24 56 un
83 13 24 un
84 223 56 un
85 234 51 un
86 56 234 un
87 112 51 un
88 86 203 un
89 81 86 un
90 51 81 un
91 19 203 un
92 79 105 1
93 103 79 1
94 40 103 1
95 181 105 1
96 240 40 1
97 82 246 1
98 192 82 1
99 16 192 1
100 103 246 1
101 79 16 1
102 230 91 1
103 64 230 1
104 122 64 1
105 16 91 1
106 192 122 1
107 85 211 un
108 63 85 un
109 234 63 un
110 24 211 un
111 241 178 1
112 142 241 1
113 221 142 1
114 85 178 1
115 211 221 1
116 196 175 1
117 180 36 1
118 142 175 1
119 241 180 1
120 130 44 un
121 63 130 un
122 81 44 un
123 77 45 un
124 57 77 un
125 44 57 un
126 86 45 un
127 90 119 un
128 47 90 un
129 203 47 un
130 45 119 un
131 18 143 1
132 124 18 un
133 77 143 1
134 119 124 1
135 111 224 1
136 37 111 1
137 90 224 1
138 124 37 un
139 167 227 1
140 88 167 1
141 140 88 1
142 111 227 1
143 224 140 1
144 8 94 1
145 101 8 1
146 18 101 un
147 37 94 un
148 227 80 1
149 94 191 un
150 80 191 un
151 25 226 1
152 226 137 1
153 226 131 1
154 40 243 1
155 52 17 1
156 222 52 un
157 138 222 1
158 101 17 un
159 8 138 un
160 200 212 un
161 123 200 1
162 43 123 un
163 138 212 un
164 222 43 un
165 163 153 un
166 195 163 1
167 12 195 1
168 123 153 un
169 200 12 un
170 32 158 un
171 41 32 un
172 212 41 un
173 12 158 un
174 4 58 un
175 249 4 un
176 195 249 un
177 158 58 un
178 72 148 un
179 32 72 un
180 191 41 un
181 80 148 un
182 28 186 un
183 72 28 un
184 58 186 un
185 15 120 1
186 34 15 1
187 114 34 1
188 28 120 1
189 186 114 1
190 114 107 2
191 87 59 1
192 87 109 1
193 73 129 1
194 73 55 1
195 23 187 1
196 155 231 1
197 33 160 1
198 33 151 1
199 108 214 1
200 205 150 1
201 21 3 1
202 21 162 1
203 146 99 1
204 146 215 1
205 176 66 1
206 133 118 1
207 219 35 1
208 219 245 1
209 161 225 1
210 250 5 1
211 250 61 1
212 193 147 1
213 193 69 1
214 184 213 1
215 184 60 1
216 141 232 1
217 141 100 1
218 149 10 1
219 42 218 1
220 42 6 1
221 1 199 1
222 1 98 1
223 7 173 1
224 7 92 1
225 25 75 1
226 236 248 1
227 236 198 1
228 30 126 1
229 30 11 1
230 144 239 1
231 67 97 1
232 159 136 1
233 71 115 1
234 79 135 1
235 40 204 1
236 246 220 1
237 246 54 1
238 82 14 1
239 82 152 1
240 192 190 1
241 16 169 1
242 91 189 1
243 91 104 1
244 230 157 1
245 230 125 1
246 64 139 1
247 64 166 1
248 122 174 1
249 241 238 1
250 142 201 1
251 175 53 1
252 175 202 1
253 196 229 1
254 196 237 1
255 36 26 1
256 36 210 1
257 180 31 1
258 180 78 1
259 130 156 1
260 57 9 1
261 47 83 1
262 224 134 1
263 111 171 1
264 227 206 1
265 167 65 1
266 167 106 1
267 88 29 1
268 88 168 1
269 140 164 1
270 140 132 1
271 226 208 1
272 137 113 1
273 137 110 1
274 137 183 1
275 131 2 1
276 131 93 1
277 131 235 1
278 243 39 1
279 17 179 1
280 52 127 1
281 43 177 1
282 153 165 1
283 163 117 1
284 4 233 1
285 249 185 1
286 148 194 1
287 120 145 1
288 120 197 1
289 15 38 1
290 15 172 1
291 34 102 1
292 34 96 1
@<TRIPOS>MOLECULE
Sketch 4
130 142
SMALL
USER_CHARGES


@<TRIPOS>ATOM
1 C8583 62.2223 1.43099 37.7864 C.ar 0.0 **** 0.0
2 H8693 65.4764 -1.10031 43.445 H 0.0 **** 0.053
3 H8690 65.0598 -2.5172 40.124 H 0.0 **** 0.053
4 H8680 59.8136 6.71043 35.6347 H 0.0 **** 0.053
5 H8681 62.8718 2.88694 34.0647 H 0.0 **** 0.053
6 C8616 53.9297 6.13129 45.5934 C.3 0.0 **** -0.106
7 C8640 65.0888 -1.62071 42.5613 C.3 0.0 **** -0.159
8 H8688 64.3002 1.38602 35.4748 H 0.0 **** 0.053
9 H8708 53.9386 4.3825 55.916 H 0.0 **** 0.053
10 C8607 58.8935 2.69354 44.4261 C.ar 0.0 **** 0.042
11 H8686 59.0077 4.70547 38.3296 H 0.0 **** 0.053
12 H8663 53.0136 6.5158 45.1283 H 0.0 **** 0.053
13 H8679 60.5025 6.19608 37.1999 H 0.0 **** 0.053
14 C8584 61.3311 2.17743 38.5605 C.ar 0.0 **** 0.0
15 H8697 65.8934 2.01074 49.2321 H 0.0 **** 0.053
16 H8666 51.3621 6.90725 46.1995 H 0.0 **** 0.053
17 H8674 54.754 2.9286 50.8419 H 0.0 **** 0.1268
18 H8675 54.7191 2.32822 53.2702 H 0.0 **** 0.1268
19 O8644 59.1552 2.48754 48.5648 O.3 0.0 **** -0.452
20 H8702 63.7734 2.81257 50.374 H 0.0 **** 0.053
21 H8651 60.1362 1.60805 40.2397 H 0.0 **** 0.053
22 H8687 63.4857 -0.101474 35.9847 H 0.0 **** 0.053
23 H8658 64.9439 2.31122 46.9516 H 0.0 **** 0.053
24 H8701 64.6658 4.02469 49.4261 H 0.0 **** 0.053
25 H8705 52.2482 7.0572 54.1905 H 0.0 **** 0.053
26 C8639 64.8287 -1.54728 39.6658 C.3 0.0 **** -0.159
27 H8672 52.7086 7.49399 51.4782 H 0.0 **** 0.053
28 C8634 59.8243 4.53937 35.953 C.3 0.0 **** -0.106
29 C8581 61.6206 2.75712 35.8339 C.ar 0.0 **** 0.0
30 H8696 63.1914 -1.32487 45.6479 H 0.0 **** 0.41
31 H8656 62.0065 1.2619 49.0779 H 0.0 **** 0.053
32 C8632 53.454 3.97548 53.84 C.ar 0.0 **** 0.0
33 C8626 51.4742 6.42359 50.0708 C.3 0.0 **** -0.053
34 H8703 58.255 2.96435 48.8897 H 0.0 **** 0.41
35 C8629 53.4589 4.62432 51.0964 C.ar 0.0 **** 0.0
36 H8698 65.9358 0.473502 48.3345 H 0.0 **** 0.053
37 H8671 50.7068 5.62542 50.129 H 0.0 **** 0.053
38 H8694 65.9214 -1.75913 41.8623 H 0.0 **** 0.053
39 C8612 55.7191 4.29149 46.8546 C.ar 0.0 **** 0.0
40 C8613 55.6529 4.34218 45.4762 C.ar 0.0 **** 0.0
41 C8601 60.2088 2.13547 46.4325 C.ar 0.0 **** 0.0
42 C8630 54.1774 3.51342 51.5586 C.ar 0.0 **** -0.1268
43 C8638 63.3139 0.897167 35.5643 C.3 0.0 **** -0.159
44 C8594 62.0993 0.798647 42.0765 C.ar 0.0 **** 0.0
45 C8598 62.9149 -0.190095 44.13 C.ar 0.0 **** 0.042
46 H8652 62.7254 -0.641175 37.9502 H 0.0 **** 0.053
47 C8648 52.0004 5.99746 54.355 C.3 0.0 **** -0.159
48 C8643 63.6936 3.52074 49.5357 C.3 0.0 **** -0.159
49 H8692 64.3832 -1.74662 38.6835 H 0.0 **** 0.053
50 H8682 61.6888 4.19317 34.2045 H 0.0 **** 0.053
51 C8600 61.4361 1.69165 47.0314 C.2 0.0 **** 0.0
52 C8609 57.962 3.17875 46.6498 C.ar 0.0 **** 0.052
53 C8587 61.177 1.92434 40.0315 C.3 0.0 **** -0.106
54 H8670 51.5068 8.53026 49.6098 H 0.0 **** 0.053
55 H8669 49.9218 7.92994 50.139 H 0.0 **** 0.053
56 H8695 64.7566 -2.61351 42.9031 H 0.0 **** 0.053
57 C8588 62.123 0.940401 40.6548 C.ar 0.0 **** 0.0
58 H8655 61.2095 2.81845 48.8708 H 0.0 **** 0.053
59 H8668 49.85 8.34073 47.6752 H 0.0 **** 0.053
60 H8661 54.7031 5.20478 43.7683 H 0.0 **** 0.053
61 H8678 61.4424 5.98161 35.7113 H 0.0 **** 0.053
62 H8706 52.2345 5.75512 55.3979 H 0.0 **** 0.053
63 H8653 64.0913 0.4322 38.0912 H 0.0 **** 0.053
64 C8602 60.0758 2.10969 45.0132 C.ar 0.0 **** 0.0
65 H8660 64.3725 0.141601 46.3374 H 0.0 **** 0.053
66 C8624 50.417 7.48009 48.0612 C.3 0.0 **** -0.106
67 C8642 65.269 1.23023 48.7759 C.3 0.0 **** -0.159
68 C8615 54.4503 4.93511 44.8015 C.3 0.0 **** -0.106
69 C8635 60.426 5.94224 36.1321 C.3 0.0 **** -0.159
70 H8683 61.1633 2.57398 33.7106 H 0.0 **** 0.053
71 H8684 60.1381 4.46779 39.6709 H 0.0 **** 0.053
72 C8620 53.5078 5.00665 49.673 C.ar 0.0 **** 0.2405
73 C8611 56.9092 3.69903 47.5005 C.2 0.0 **** 0.367
74 C8608 57.8651 3.2263 45.2396 C.ar 0.0 **** 0.052
75 C8636 61.8478 3.12156 34.382 C.3 0.0 **** -0.159
76 H8664 54.6727 6.95002 45.5472 H 0.0 **** 0.053
77 C8606 63.6349 0.599337 47.0035 C.3 0.0 **** -0.106
78 C8597 62.1328 0.711625 44.894 C.ar 0.0 **** 0.0
79 H8667 49.7576 6.59927 47.9861 H 0.0 **** 0.053
80 H8699 64.6944 0.741632 49.5791 H 0.0 **** 0.053
81 C8593 63.0256 -0.0949975 42.7208 C.ar 0.0 **** 0.0
82 H8704 57.7808 3.21485 42.974 H 0.0 **** 0.41
83 C8590 63.0385 0.320849 38.4015 C.3 0.0 **** -0.106
84 C8585 60.5417 3.18804 37.9758 C.ar 0.0 **** 0.0
85 H8710 52.468 3.42272 55.6936 H 0.0 **** 0.053
86 C8605 64.329 1.79748 47.7073 C.ar 0.0 **** -0.053
87 O8647 57.0414 3.65049 48.7642 O.2 0.0 **** -0.419
88 C8628 52.7344 5.41464 52.0131 C.ar 0.0 **** 0.0
89 H8662 53.6639 4.15917 44.744 H 0.0 **** 0.053
90 C8618 54.595 4.83871 47.6446 C.ar 0.0 **** 0.2405
91 C8586 60.6712 3.46538 36.603 C.ar 0.0 **** 0.0
92 C8622 52.6546 6.28391 47.8031 C.ar 0.0 **** 0.0
93 C8591 63.9047 -0.725258 40.5366 C.ar 0.0 **** 0.0
94 H8707 50.9082 5.90354 54.2289 H 0.0 **** 0.053
95 C8637 59.5892 3.94965 38.8672 C.3 0.0 **** -0.159
96 C8617 53.7008 5.75117 47.032 C.ar 0.0 **** 0.0
97 H8691 65.7874 -1.02955 39.4858 H 0.0 **** 0.053
98 H8709 54.0646 2.67145 55.4456 H 0.0 **** 0.053
99 C8589 62.9935 0.185128 39.9013 C.ar 0.0 **** 0.0
100 C8596 61.1048 1.46733 44.2174 C.ar 0.0 **** 0.0
101 H8677 59.7025 4.32744 34.8819 H 0.0 **** 0.053
102 N8619 54.4757 4.46447 48.9262 N.ar 0.0 **** -0.481
103 O8646 56.5665 3.8374 43.3479 O.2 0.0 **** -0.419
104 H8673 51.1798 6.91267 52.1444 H 0.0 **** 0.053
105 H8689 62.9272 0.762995 34.5451 H 0.0 **** 0.053
106 C8604 63.2841 2.80987 48.2436 C.ar 0.0 **** -0.053
107 H8657 63.1509 3.58296 47.469 H 0.0 **** 0.053
108 C8595 61.1351 1.49171 42.8241 C.ar 0.0 **** -0.1268
109 H8659 63.399 -0.141643 47.7919 H 0.0 **** 0.053
110 C8623 51.6642 7.25622 47.1991 C.3 0.0 **** -0.106
111 C8649 53.4826 3.59131 55.2985 C.3 0.0 **** -0.159
112 O8645 58.7276 2.74902 43.1071 O.3 0.0 **** -0.452
113 C8599 62.3532 0.960091 46.2888 C.2 0.0 **** 0.0
114 H8700 62.9444 4.27971 49.8058 H 0.0 **** 0.053
115 C8582 62.3647 1.71277 36.4132 C.ar 0.0 **** 0.0
116 H8654 60.3783 2.05719 42.3053 H 0.0 **** 0.1268
117 C8603 61.9094 2.12888 48.3983 C.3 0.0 **** -0.106
118 C8610 59.1091 2.6122 47.2442 C.ar 0.0 **** 0.042
119 C8621 52.5637 5.91804 49.1537 C.ar 0.0 **** 0.0
120 H8685 58.8825 3.27024 39.3716 H 0.0 **** 0.053
121 C8625 50.8028 7.68352 49.5255 C.3 0.0 **** -0.106
122 C8592 63.9691 -0.829577 41.9224 C.ar 0.0 **** 0.0
123 C8614 56.7014 3.80165 44.6237 C.2 0.0 **** 0.367
124 C8631 54.1612 3.19581 52.911 C.ar 0.0 **** -0.1268
125 H8676 58.8076 4.51924 36.3724 H 0.0 **** 0.053
126 C8633 52.7425 5.10623 53.3861 C.ar 0.0 **** 0.0
127 C8627 52.0142 6.63132 51.4869 C.3 0.0 **** -0.106
128 H8665 52.177 8.22118 47.0352 H 0.0 **** 0.053
129 O8641 63.5578 -1.23596 44.7537 O.3 0.0 **** -0.452
130 H8650 61.2701 2.88362 40.57 H 0.0 **** 0.053
@<TRIPOS>BOND
1 40 39 am
2 74 123 1
3 96 6 1
4 1 115 am
5 14 1 am
6 84 14 am
7 91 84 am
8 29 115 am
9 29 91 am
10 57 53 1
11 99 57 am
12 83 99 1
13 14 53 1
14 1 83 1
15 122 93 am
16 81 122 am
17 44 81 am
18 99 93 am
19 57 44 am
20 100 108 am
21 78 100 am
22 45 78 am
23 44 108 am
24 81 45 am
25 51 113 1
26 41 51 1
27 64 41 am
28 78 113 1
29 100 64 am
30 106 117 1
31 86 106 am
32 77 86 1
33 51 117 1
34 113 77 1
35 74 10 am
36 52 74 am
37 118 52 am
38 64 10 am
39 41 118 am
40 39 73 1
41 123 40 1
42 52 73 1
43 6 68 1
44 90 96 am
45 40 68 1
46 39 90 am
47 72 102 am
48 119 72 am
49 92 119 am
50 90 102 am
51 96 92 am
52 66 110 1
53 121 66 1
54 33 121 1
55 92 110 1
56 119 33 1
57 88 127 1
58 35 88 am
59 72 35 am
60 33 127 1
61 124 42 am
62 32 124 am
63 126 32 am
64 35 42 am
65 88 126 am
66 91 28 1
67 28 69 1
68 29 75 1
69 84 95 1
70 115 43 1
71 93 26 1
72 122 7 1
73 45 129 1
74 86 67 1
75 106 48 1
76 118 19 1
77 10 112 1
78 123 103 2
79 73 87 2
80 126 47 1
81 32 111 1
82 53 130 1
83 53 21 1
84 83 46 1
85 83 63 1
86 108 116 1
87 117 58 1
88 117 31 1
89 106 107 1
90 86 23 1
91 77 109 1
92 77 65 1
93 68 60 1
94 68 89 1
95 6 12 1
96 6 76 1
97 110 128 1
98 110 16 1
99 66 79 1
100 66 59 1
101 121 55 1
102 121 54 1
103 33 37 1
104 127 27 1
105 127 104 1
106 42 17 1
107 124 18 1
108 28 125 1
109 28 101 1
110 69 61 1
111 69 13 1
112 69 4 1
113 75 5 1
114 75 50 1
115 75 70 1
116 95 71 1
117 95 120 1
118 95 11 1
119 43 22 1
120 43 8 1
121 43 105 1
122 26 3 1
123 26 97 1
124 26 49 1
125 7 2 1
126 7 38 1
127 7 56 1
128 129 30 1
129 67 15 1
130 67 36 1
131 67 80 1
132 48 114 1
133 48 24 1
134 48 20 1
135 19 34 1
136 112 82 1
137 47 25 1
138 47 62 1
139 47 94 1
140 111 9 1
141 111 98 1
142 111 85 1
@<TRIPOS>MOLECULE
Sketch 4
250 292
SMALL
USER_CHARGES


@<TRIPOS>ATOM
1 H13874 24.0744 6.99285 63.5806 H 0.0 **** 0.053
2 C13688 22.2279 11.2468 83.1031 C.2 0.0 **** 0.0
3 C13780 23.1892 0.59183 57.9485 C.2 0.0 **** 0.0
4 H13900 25.6114 7.01451 56.238 H 0.0 **** 0.053
5 H13802 28.4774 6.22135 85.1969 H 0.0 **** 0.053
6 C13719 23.3747 3.84385 73.6493 C.2 0.0 **** 0.0
7 N13736 26.2529 11.2849 64.5038 N.3 0.0 **** -0.727
8 H13844 23.1177 3.03425 76.2917 H 0.0 **** 0.1268
9 C13730 26.0378 12.0606 66.8356 C.3 0.0 **** -0.106
10 C13667 22.1331 4.69053 84.5286 C.3 0.0 **** -0.053
11 H13866 25.0319 -1.11371 72.7057 H 0.0 **** 0.053
12 C13782 22.7659 -1.35889 59.3669 C.2 0.0 **** -0.1268
13 C13704 24.0995 8.8446 74.5916 C.2 0.0 **** -0.1268
14 C13724 23.5448 3.58834 68.7167 C.2 0.0 **** 0.0
15 C13737 23.2016 2.41453 73.6498 C.2 0.0 **** 0.042
16 C13684 22.3555 8.41086 83.2764 C.2 0.0 **** 0.0
17 C13798 23.9547 7.41386 54.908 C.3 0.0 **** -0.106
18 H13864 25.2918 -0.0976962 75.565 H 0.0 **** 0.053
19 H13807 24.7005 4.52202 87.7079 H 0.0 **** 0.053
20 H13869 21.6942 -2.2045 74.1416 H 0.0 **** 0.053
21 H13878 26.112 7.179 60.2267 H 0.0 **** 0.053
22 H13856 23.3804 10.878 63.3955 H 0.0 **** 0.053
23 H13848 24.1422 12.3456 67.8577 H 0.0 **** 0.053
24 C13716 23.4346 4.63782 74.8587 C.2 0.0 **** 0.0
25 C13760 24.209 5.22222 62.3754 C.3 0.0 **** -0.053
26 C13742 23.3276 0.323999 74.7858 C.3 0.0 **** 0.107
27 C13657 25.9595 6.2603 87.485 C.3 0.0 **** -0.053
28 C13658 25.2454 5.03263 86.8964 C.3 0.0 **** -0.053
29 C13761 24.057 3.73616 62.5638 C.2 0.0 **** 0.0
30 C13787 23.6337 2.55639 56.505 C.2 0.0 **** 0.0
31 H13843 24.2868 9.76386 72.1327 H 0.0 **** 0.1268
32 C13727 25.0059 10.4321 68.4193 C.3 0.0 **** -0.053
33 H13805 26.0928 7.58505 85.7586 H 0.0 **** 0.053
34 C13701 23.7215 6.85337 75.9649 C.2 0.0 **** 0.0
35 C13705 23.9784 8.07813 73.4027 C.2 0.0 **** 0.0
36 C13738 23.1039 1.69421 72.4692 C.2 0.0 **** 0.042
37 H13849 25.538 12.4642 68.9319 H 0.0 **** 0.053
38 H13853 23.3656 10.7307 66.1373 H 0.0 **** 0.053
39 C13775 23.1267 -0.418211 62.9557 C.2 0.0 **** -0.1268
40 C13722 23.9358 5.61914 67.3568 C.2 0.0 **** 0.0
41 C13746 23.8743 -2.32009 74.0692 C.3 0.0 **** -0.106
42 C13671 22.751 6.24091 82.0821 C.2 0.0 **** 0.0
43 C13799 24.553 6.68557 53.716 C.3 0.0 **** -0.086
44 C13696 26.7509 11.5924 81.3039 C.3 0.0 **** -0.053
45 C13708 23.6696 5.90647 72.297 C.2 0.0 **** 0.0
46 H13892 22.6621 -2.22935 61.9226 H 0.0 **** 0.1268
47 C13663 23.5061 7.00319 87.7037 C.3 0.0 **** -0.106
48 C13794 24.2728 4.69841 57.5441 C.2 0.0 **** 0.0
49 H13819 22.6561 4.19083 86.5844 H 0.0 **** 0.053
50 C13785 22.9952 0.394066 55.5052 C.2 0.0 **** 0.0
51 C13699 23.7159 8.40587 78.5837 C.2 0.0 **** -0.012
52 C13673 23.0468 6.97289 80.9454 C.2 0.0 **** 0.0
53 H13901 24.1687 8.49261 54.8655 H 0.0 **** 0.053
54 H13832 22.9499 14.418 81.943 H 0.0 **** 0.053
55 H13839 24.7329 14.1437 80.0991 H 0.0 **** 0.053
56 C13776 22.9207 -1.17265 61.8343 C.2 0.0 **** -0.1268
57 C13766 23.9534 2.93187 61.4188 C.2 0.0 **** 0.0
58 C13713 23.8958 7.84731 68.5436 C.2 0.0 **** 0.042
59 C13721 23.4418 3.73381 71.1683 C.2 0.0 **** 0.0
60 C13750 23.7288 3.4253 66.2697 C.2 0.0 **** 0.0
61 H13842 24.2847 9.91725 74.4999 H 0.0 **** 0.1268
62 C13717 23.287 4.09158 76.1505 C.2 0.0 **** -0.1268
63 H13858 25.3462 11.9829 62.747 H 0.0 **** 0.053
64 C13749 23.2003 1.56375 70.023 C.2 0.0 **** -0.1268
65 O13660 27.585 4.6518 86.1251 O.3 0.0 **** -0.32
66 H13852 24.6559 12.3638 65.2258 H 0.0 **** 0.053
67 C13733 24.2783 9.40827 64.6916 C.3 0.0 **** -0.106
68 H13867 23.8259 -2.5043 75.1562 H 0.0 **** 0.053
69 H13837 25.9355 12.1347 79.3782 H 0.0 **** 0.053
70 C13687 23.122 10.577 82.319 C.2 0.0 **** 0.0
71 H13893 22.494 -2.41217 59.4654 H 0.0 **** 0.1268
72 C13773 29.2706 11.6866 81.0295 C.3 0.0 **** -0.159
73 H13841 23.6608 10.1681 79.7736 H 0.0 **** 0.1268
74 C13726 24.8302 9.56488 67.1477 C.3 0.0 **** 0.107
75 C13753 23.9611 4.00739 65.0145 C.2 0.0 **** 0.0
76 H13898 25.0399 6.41926 58.6209 H 0.0 **** 0.1268
77 C13772 27.923 10.2485 79.4649 C.3 0.0 **** -0.159
78 H13814 24.994 7.0693 89.2727 H 0.0 **** 0.053
79 C13691 22.2879 12.7466 83.1838 C.3 0.0 **** -0.106
80 H13863 25.2921 0.811263 74.0474 H 0.0 **** 0.053
81 O13774 23.8794 11.0419 70.4483 O.3 0.0 **** -0.57
82 H13850 26.9552 11.4633 66.9867 H 0.0 **** 0.053
83 H13851 26.3626 13.0968 66.6696 H 0.0 **** 0.053
84 H13828 21.1122 11.0213 84.9042 H 0.0 **** 0.053
85 C13751 23.5026 2.01711 66.3624 C.2 0.0 **** 0.042
86 H13880 27.4743 7.25331 62.1343 H 0.0 **** 0.053
87 C13674 23.1972 6.30369 79.6749 C.2 0.0 **** 0.0
88 C13676 22.7911 4.13386 80.7712 C.2 0.0 **** 0.0
89 H13883 28.1133 9.96718 81.5885 H 0.0 **** 0.053
90 C13796 24.2915 5.31091 56.2527 C.2 0.0 **** 0.0
91 H13811 23.959 7.62301 85.7018 H 0.0 **** 0.053
92 H13899 24.0714 7.28188 57.0599 H 0.0 **** 0.053
93 C13745 25.0145 -1.33647 73.7828 C.3 0.0 **** -0.106
94 H13808 25.94 3.62386 85.3713 H 0.0 **** 0.053
95 C13778 23.3744 0.773597 60.392 C.2 0.0 **** 0.0
96 H13877 24.6265 7.5426 61.1171 H 0.0 **** 0.053
97 H13829 21.0063 8.54531 84.9141 H 0.0 **** 0.1268
98 C13720 23.5753 4.36562 69.9044 C.2 0.0 **** 0.0
99 O13756 23.4697 1.23677 65.2166 O.3 0.0 **** -0.0685
100 H13806 26.6863 5.89837 88.2267 H 0.0 **** 0.053
101 C13797 24.5268 6.80334 56.1816 C.3 0.0 **** -0.106
102 H13904 24.1564 7.02727 52.7494 H 0.0 **** 0.053
103 C13757 23.6244 1.80686 63.9738 C.2 0.0 **** 0.0265
104 C13706 23.7579 6.66928 73.491 C.2 0.0 **** 0.0
105 H13902 22.8591 7.29275 54.911 H 0.0 **** 0.053
106 C13781 22.8409 -0.790813 58.085 C.2 0.0 **** 0.0
107 C13792 23.0703 1.00396 54.2329 C.2 0.0 **** -0.1268
108 C13702 23.9761 8.26506 75.8286 C.2 0.0 **** -0.012
109 H13884 28.78 9.5912 79.2545 H 0.0 **** 0.053
110 H13830 21.2928 13.1486 83.4328 H 0.0 **** 0.053
111 C13764 26.4041 7.31066 62.3858 C.3 0.0 **** -0.106
112 C13762 25.1761 5.46894 61.2021 C.3 0.0 **** -0.053
113 H13871 23.0452 0.487686 70.0839 H 0.0 **** 0.1268
114 C13759 24.6122 6.03364 63.6283 C.3 0.0 **** -0.053
115 H13815 25.2572 8.25511 87.9924 H 0.0 **** 0.053
116 C13754 24.2451 5.37683 64.9325 C.2 0.0 **** 0.0
117 C13690 21.5028 9.06504 84.0964 C.2 0.0 **** -0.1268
118 C13669 22.4179 4.06896 83.2015 C.2 0.0 **** 0.0
119 C13686 23.2458 8.42406 80.9947 C.2 0.0 **** 0.0
120 C13765 26.1093 6.38952 63.5848 C.3 0.0 **** -0.106
121 C13711 24.0651 8.70161 72.1618 C.2 0.0 **** -0.1268
122 H13831 22.9649 13.0413 84.0113 H 0.0 **** 0.053
123 H13824 20.7958 2.38171 81.6952 H 0.0 **** 0.053
124 C13689 21.2085 10.5224 83.9201 C.3 0.0 **** -0.106
125 C13693 24.1062 12.6588 81.4938 C.2 0.0 **** 0.0
126 C13739 23.2496 2.3193 71.2038 C.2 0.0 **** 0.0
127 C13698 25.1851 13.4976 80.8736 C.3 0.0 **** -0.106
128 C13682 23.5509 6.26759 77.2452 C.2 0.0 **** 0.0
129 C13790 23.7329 3.14435 55.2091 C.2 0.0 **** 0.0
130 H13823 21.8555 0.9571 81.7867 H 0.0 **** 0.053
131 C13795 24.0933 4.54291 55.0973 C.2 0.0 **** 0.052
132 C13784 22.647 -0.981986 55.6651 C.2 0.0 **** -0.1268
133 H13873 24.4341 7.19848 65.9905 H 0.0 **** 0.1268
134 H13827 20.2021 10.6476 83.4631 H 0.0 **** 0.053
135 C13771 28.0178 10.8162 80.8871 C.3 0.0 **** -0.053
136 C13741 22.4379 -0.234352 73.6879 C.3 0.0 **** 0.107
137 C13734 24.2495 10.2009 63.3858 C.3 0.0 **** -0.106
138 H13817 21.1848 4.2396 84.8787 H 0.0 **** 0.053
139 H13822 23.7035 2.19658 80.7334 H 0.0 **** 0.053
140 H13834 25.7855 10.0734 82.5157 H 0.0 **** 0.053
141 C13681 23.3408 4.87715 77.281 C.2 0.0 **** 0.232
142 H13896 23.4911 2.76647 53.0948 H 0.0 **** 0.1268
143 C13668 23.1798 4.3412 85.6271 C.3 0.0 **** -0.106
144 H13888 29.2263 12.5493 80.3457 H 0.0 **** 0.053
145 H13881 26.3983 6.87563 64.5289 H 0.0 **** 0.053
146 H13885 27.9382 11.0621 78.7234 H 0.0 **** 0.053
147 C13662 23.4708 6.76528 86.2036 C.3 0.0 **** 0.107
148 C13694 24.2535 11.3348 81.7371 C.2 0.0 **** 0.0
149 H13859 26.2718 10.4846 62.5793 H 0.0 **** 0.053
150 H13887 29.371 12.073 82.056 H 0.0 **** 0.053
151 H13846 25.9291 10.1183 68.9321 H 0.0 **** 0.053
152 C13714 23.8644 6.4207 68.5534 C.2 0.0 **** 0.0
153 C13728 23.8388 10.1121 69.3645 C.3 0.0 **** 0.107
154 C13677 22.6878 2.63248 80.6818 C.3 0.0 **** -0.106
155 H13809 26.487 3.2184 87.0276 H 0.0 **** 0.053
156 H13825 23.3803 2.14835 83.3317 H 0.0 **** 0.053
157 O13680 23.1773 4.19853 78.4642 O.3 0.0 **** -0.464
158 C13678 21.8418 2.05727 81.8183 C.3 0.0 **** -0.106
159 C13707 23.6411 6.05582 74.7687 C.2 0.0 **** 0.0
160 C13767 23.612 1.55655 61.5559 C.2 0.0 **** 0.0
161 C13747 22.5253 -1.75786 73.5757 C.3 0.0 **** -0.106
162 H13855 23.4026 8.75154 64.7843 H 0.0 **** 0.053
163 H13838 27.1528 13.28 79.9756 H 0.0 **** 0.053
164 H13861 21.4007 0.0989679 73.859 H 0.0 **** 0.053
165 C13692 22.8063 13.329 81.8657 C.3 0.0 **** -0.106
166 H13835 25.5392 9.87243 80.7971 H 0.0 **** 0.053
167 C13723 23.7304 4.21064 67.4565 C.2 0.0 **** 0.0
168 C13770 24.1127 3.50574 60.1102 C.2 0.0 **** 0.0
169 H13810 24.7488 5.59687 84.8804 H 0.0 **** 0.053
170 C13789 23.8211 2.74036 58.9622 C.2 0.0 **** 0.0
171 C13697 26.3073 12.645 80.2818 C.3 0.0 **** -0.106
172 C13672 22.7293 6.95403 83.4154 C.3 0.0 **** -0.053
173 C13800 24.3583 5.17536 53.7691 C.2 0.0 **** 0.347
174 C13710 23.9141 7.98561 70.9642 C.2 0.0 **** 0.0
175 H13865 25.9863 -1.78205 74.0412 H 0.0 **** 0.053
176 C13715 23.7288 5.78956 69.8218 C.2 0.0 **** 0.0
177 C13793 24.6581 5.40603 58.7129 C.2 0.0 **** -0.1268
178 C13755 24.2276 6.14389 66.0829 C.2 0.0 **** -0.1268
179 C13679 22.3683 2.56746 83.1618 C.3 0.0 **** -0.106
180 C13791 23.427 2.3281 54.0849 C.2 0.0 **** -0.1268
181 C13777 23.0198 -0.608305 60.5194 C.2 0.0 **** 0.0
182 H13818 23.6838 3.39389 85.3848 H 0.0 **** 0.053
183 C13664 24.9543 7.21223 88.1824 C.3 0.0 **** -0.106
184 H13804 27.5033 7.63027 86.8268 H 0.0 **** 0.053
185 H13816 20.8446 6.40428 84.2509 H 0.0 **** 0.053
186 H13845 25.784 9.05578 66.914 H 0.0 **** 0.053
187 H13897 22.8375 0.405347 53.3497 H 0.0 **** 0.1268
188 C13695 25.5858 10.6374 81.5871 C.3 0.0 **** -0.106
189 H13836 26.986 12.1284 82.2424 H 0.0 **** 0.053
190 H13854 25.1627 8.74809 64.6836 H 0.0 **** 0.053
191 H13812 23.0555 6.1307 88.2038 H 0.0 **** 0.053
192 C13700 23.5674 9.08237 79.7695 C.2 0.0 **** -0.1268
193 C13779 23.4561 1.36449 59.1032 C.2 0.0 **** 0.0
194 H13882 26.6952 5.45873 63.5233 H 0.0 **** 0.053
195 C13718 23.4907 4.48608 72.3801 C.2 0.0 **** 0.0
196 C13712 23.8952 8.6224 69.6878 C.2 0.0 **** 0.0
197 H13894 22.3086 -2.60767 57.0212 H 0.0 **** 0.1268
198 C13685 22.9846 9.12929 82.1712 C.2 0.0 **** 0.0
199 O13743 23.1308 1.74979 74.8536 O.3 0.0 **** -0.202
200 C13768 23.4608 0.971691 62.8524 C.2 0.0 **** 0.0
201 H13903 25.6451 6.85639 53.6871 H 0.0 **** 0.053
202 H13857 24.1179 9.52594 62.525 H 0.0 **** 0.053
203 S13703 24.2319 9.3381 77.1957 S.2 0.0 **** 0.024
204 H13870 22.3646 -2.01124 72.5165 H 0.0 **** 0.053
205 H13840 25.5962 14.1935 81.6307 H 0.0 **** 0.053
206 H13875 23.2169 5.58997 62.0454 H 0.0 **** 0.053
207 H13886 27.0024 9.66731 79.3038 H 0.0 **** 0.053
208 C13752 23.3252 1.3998 67.5695 C.2 0.0 **** -0.1268
209 C13655 27.4565 5.91385 85.4614 C.3 0.0 **** 0.054
210 C13709 23.7622 6.55318 71.0264 C.2 0.0 **** 0.0
211 H13826 21.7474 2.19912 83.9959 H 0.0 **** 0.053
212 C13729 25.138 11.9189 68.0677 C.3 0.0 **** -0.106
213 C13788 23.9123 3.32843 57.6683 C.2 0.0 **** 0.0
214 C13763 25.5534 6.9447 61.144 C.3 0.0 **** -0.106
215 H13820 23.7913 6.94728 83.7345 H 0.0 **** 0.053
216 H13862 22.9693 -0.0429383 75.7582 H 0.0 **** 0.053
217 C13675 23.0398 4.88454 79.6558 C.2 0.0 **** 0.232
218 C13683 23.5112 6.98907 78.495 C.2 0.0 **** 0.0
219 O13725 23.8329 8.52271 67.3438 O.3 0.0 **** -0.202
220 H13860 26.8391 10.4886 64.7574 H 0.0 **** 0.353
221 O13801 24.4894 4.54061 52.7214 O.2 0.0 **** -0.419
222 O13740 22.8859 0.33613 72.4391 O.3 0.0 **** -0.202
223 C13786 23.2714 1.18331 56.6532 C.2 0.0 **** 0.0
224 C13732 24.3719 10.3384 65.9126 C.3 0.0 **** -0.053
225 H13889 30.1795 11.1161 80.7848 H 0.0 **** 0.053
226 H13847 22.9052 10.2792 68.7884 H 0.0 **** 0.053
227 C13731 25.3079 11.551 65.5891 C.3 0.0 **** 0.134
228 H13821 22.2826 2.34282 79.7016 H 0.0 **** 0.053
229 C13769 24.6154 4.8284 59.962 C.2 0.0 **** 0.0
230 O13665 22.0919 6.73484 85.8037 O.3 0.0 **** -0.32
231 C13656 26.7627 6.95765 86.3677 C.3 0.0 **** -0.106
232 C13783 22.5743 -1.55516 56.907 C.2 0.0 **** -0.1268
233 H13813 22.8834 7.87432 87.9529 H 0.0 **** 0.053
234 C13748 23.3539 2.16817 68.7754 C.2 0.0 **** 0.0
235 H13891 23.0312 -0.860207 63.9474 H 0.0 **** 0.1268
236 C13735 25.564 11.0165 63.2324 C.3 0.0 **** 0.081
237 H13890 23.0568 10.9359 70.9505 H 0.0 **** 0.41
238 H13872 23.1661 0.322032 67.6181 H 0.0 **** 0.1268
239 H13879 26.1988 8.3523 62.6705 H 0.0 **** 0.053
240 C13744 24.8154 -0.0268355 74.5762 C.3 0.0 **** -0.106
241 C13661 24.2102 5.44869 85.8301 C.3 0.0 **** -0.053
242 C13659 26.302 4.04824 86.3311 C.3 0.0 **** 0.054
243 H13803 26.8874 5.77572 84.5203 H 0.0 **** 0.053
244 H13876 26.0998 4.89833 61.4266 H 0.0 **** 0.053
245 C13670 22.6401 4.8043 82.0481 C.2 0.0 **** 0.0
246 C13666 21.9035 6.21164 84.4779 C.3 0.0 **** 0.107
247 H13895 22.4352 -1.56914 54.7693 H 0.0 **** 0.1268
248 H13868 24.0645 -3.29402 73.5947 H 0.0 **** 0.053
249 H13833 22.0534 13.158 81.0722 H 0.0 **** 0.053
250 C13758 23.898 3.17836 63.8352 C.2 0.0 **** 0.0
@<TRIPOS>BOND
1 116 114 1
2 168 170 un
3 47 147 1
4 232 197 1
5 43 102 1
6 27 231 1
7 28 27 1
8 242 28 1
9 65 242 1
10 209 231 1
11 209 65 1
12 147 241 1
13 183 47 1
14 28 241 1
15 27 183 1
16 246 230 1
17 10 246 1
18 143 10 1
19 147 230 1
20 241 143 1
21 245 118 un
22 42 245 un
23 172 42 un
24 10 118 1
25 246 172 1
26 87 52 1
27 217 87 un
28 88 217 un
29 42 52 un
30 245 88 un
31 158 154 1
32 179 158 1
33 118 179 1
34 88 154 1
35 141 157 1
36 128 141 un
37 218 128 un
38 217 157 1
39 87 218 un
40 198 16 un
41 119 198 2
42 172 16 1
43 52 119 un
44 2 70 2
45 124 2 1
46 117 124 1
47 198 70 1
48 16 117 2
49 165 79 1
50 125 165 1
51 148 125 2
52 2 79 1
53 70 148 1
54 44 188 1
55 171 44 1
56 127 171 1
57 148 188 1
58 125 127 1
59 192 51 un
60 119 192 un
61 218 51 un
62 108 34 un
63 203 108 1
64 51 203 un
65 128 34 un
66 35 13 un
67 104 35 un
68 159 104 un
69 108 13 un
70 34 159 un
71 210 45 un
72 174 210 un
73 121 174 un
74 104 45 un
75 35 121 un
76 58 196 un
77 152 58 un
78 176 152 un
79 174 196 un
80 210 176 un
81 62 24 un
82 141 62 un
83 159 24 un
84 6 195 un
85 24 6 un
86 45 195 un
87 59 98 un
88 195 59 un
89 176 98 un
90 167 40 un
91 14 167 un
92 98 14 un
93 152 40 un
94 74 219 1
95 32 74 1
96 153 32 1
97 58 219 1
98 196 153 1
99 9 212 1
100 227 9 1
101 224 227 1
102 32 212 1
103 74 224 1
104 137 67 1
105 236 137 1
106 7 236 1
107 224 67 1
108 227 7 1
109 36 15 un
110 126 36 un
111 59 126 un
112 6 15 un
113 136 222 1
114 26 136 1
115 199 26 1
116 36 222 1
117 15 199 1
118 93 240 1
119 41 93 1
120 161 41 1
121 26 240 1
122 136 161 1
123 64 234 un
124 126 64 un
125 14 234 un
126 85 60 un
127 208 85 un
128 234 208 un
129 167 60 un
130 116 75 un
131 178 116 un
132 40 178 un
133 60 75 un
134 103 99 1
135 250 103 un
136 85 99 1
137 75 250 1
138 25 114 1
139 29 25 1
140 250 29 un
141 214 112 1
142 111 214 1
143 120 111 1
144 25 112 1
145 114 120 1
146 160 57 1
147 200 160 1
148 103 200 un
149 29 57 un
150 112 229 1
151 57 168 un
152 229 168 un
153 44 135 1
154 135 77 1
155 135 72 1
156 153 81 1
157 56 39 1
158 181 56 un
159 95 181 1
160 200 39 un
161 160 95 un
162 3 193 un
163 106 3 1
164 12 106 un
165 95 193 un
166 181 12 un
167 132 232 un
168 50 132 1
169 223 50 1
170 106 232 un
171 3 223 un
172 213 30 un
173 170 213 un
174 193 170 un
175 223 30 un
176 180 129 un
177 107 180 un
178 50 107 un
179 30 129 un
180 48 177 un
181 213 48 un
182 229 177 un
183 90 131 un
184 48 90 un
185 129 131 un
186 17 101 1
187 43 17 1
188 173 43 1
189 90 101 1
190 131 173 1
191 173 221 2
192 209 5 1
193 209 243 1
194 231 184 1
195 231 33 1
196 27 100 1
197 28 19 1
198 242 94 1
199 242 155 1
200 241 169 1
201 147 91 1
202 47 191 1
203 47 233 1
204 183 78 1
205 183 115 1
206 246 185 1
207 10 138 1
208 143 182 1
209 143 49 1
210 172 215 1
211 154 228 1
212 154 139 1
213 158 130 1
214 158 123 1
215 179 156 1
216 179 211 1
217 124 134 1
218 124 84 1
219 117 97 1
220 79 110 1
221 79 122 1
222 165 54 1
223 165 249 1
224 188 140 1
225 188 166 1
226 44 189 1
227 171 69 1
228 171 163 1
229 127 55 1
230 127 205 1
231 192 73 1
232 13 61 1
233 121 31 1
234 62 8 1
235 74 186 1
236 32 151 1
237 153 226 1
238 212 23 1
239 212 37 1
240 9 82 1
241 9 83 1
242 227 66 1
243 224 38 1
244 67 190 1
245 67 162 1
246 137 22 1
247 137 202 1
248 236 63 1
249 236 149 1
250 7 220 1
251 136 164 1
252 26 216 1
253 240 80 1
254 240 18 1
255 93 175 1
256 93 11 1
257 41 68 1
258 41 248 1
259 161 20 1
260 161 204 1
261 64 113 1
262 208 238 1
263 178 133 1
264 114 1 1
265 25 206 1
266 112 244 1
267 214 96 1
268 214 21 1
269 111 239 1
270 111 86 1
271 120 145 1
272 120 194 1
273 135 89 1
274 77 109 1
275 77 146 1
276 77 207 1
277 72 150 1
278 72 144 1
279 72 225 1
280 81 237 1
281 39 235 1
282 56 46 1
283 12 71 1
284 132 247 1
285 180 142 1
286 107 187 1
287 177 76 1
288 101 92 1
289 101 4 1
290 17 53 1
291 17 105 1
292 43 201 1
@<TRIPOS>MOLECULE
Sketch 4
130 142
SMALL
USER_CHARGES


@<TRIPOS>ATOM
1 C9377 61.1302 19.2032 23.1548 C.ar 0.0 **** 0.0
2 H9490 57.4226 31.4704 15.8637 H 0.0 **** 0.053
3 O9427 58.25 23.6426 18.5143 O.2 0.0 **** -0.419
4 C9422 65.6715 20.7893 21.7284 C.3 0.0 **** -0.159
5 C9387 57.9357 19.5848 21.0836 C.ar 0.0 **** 0.042
6 O9424 60.0937 22.9337 19.9138 O.3 0.0 **** -0.452
7 C9408 55.8428 27.6313 15.2718 C.ar 0.0 **** 0.0
8 C9391 57.5456 22.6487 18.8788 C.2 0.0 **** 0.367
9 H9446 51.8547 22.9577 15.6737 H 0.0 **** 0.053
10 C9390 59.4349 21.8276 20.2364 C.ar 0.0 **** 0.042
11 H9487 55.2246 30.1011 13.857 H 0.0 **** 0.053
12 C9384 63.5798 20.6933 20.2007 C.ar 0.0 **** -0.053
13 C9375 59.2457 17.6816 23.0063 C.ar 0.0 **** -0.1268
14 C9400 55.4675 25.5062 16.5304 C.ar 0.0 **** 0.2405
15 H9464 56.7365 14.4993 21.1704 H 0.0 **** 0.053
16 C9413 56.5027 28.8621 15.0989 C.ar 0.0 **** 0.0
17 C9406 53.7722 26.2523 14.836 C.3 0.0 **** -0.053
18 C9418 57.8482 10.9527 26.2581 C.3 0.0 **** -0.159
19 H9488 58.7723 30.6517 15.0629 H 0.0 **** 0.053
20 C9374 59.7921 16.8768 24.0176 C.ar 0.0 **** 0.0
21 C9380 61.4472 20.9263 21.4387 C.2 0.0 **** 0.0
22 H9462 55.595 9.41238 23.4467 H 0.0 **** 0.053
23 C9423 64.4997 21.3184 19.1492 C.3 0.0 **** -0.159
24 H9456 54.0304 12.3763 22.0776 H 0.0 **** 0.053
25 H9431 57.1597 15.9718 23.6512 H 0.0 **** 0.053
26 H9478 66.1 20.3923 22.6616 H 0.0 **** 0.053
27 H9472 60.3869 13.9576 27.8034 H 0.0 **** 0.053
28 C9386 63.4415 20.2949 22.7245 C.3 0.0 **** -0.106
29 C9428 56.244 29.6785 13.8538 C.3 0.0 **** -0.159
30 C9429 58.1279 30.6291 15.9571 C.3 0.0 **** -0.159
31 H9444 54.4794 20.9134 16.2381 H 0.0 **** 0.053
32 C9379 61.9564 20.1604 22.4789 C.2 0.0 **** 0.0
33 H9465 55.5549 15.2414 22.2442 H 0.0 **** 0.053
34 N9399 56.009 24.6474 17.4008 N.ar 0.0 **** -0.481
35 C9371 60.7631 15.3345 26.1698 C.ar 0.0 **** 0.0
36 H9447 51.2791 25.2555 15.1738 H 0.0 **** 0.053
37 C9414 54.7348 11.5664 22.3181 C.3 0.0 **** -0.106
38 H9448 51.1186 24.3467 13.6618 H 0.0 **** 0.053
39 C9368 59.1473 15.6502 24.3663 C.ar 0.0 **** 0.0
40 C9407 54.8934 27.0971 14.2281 C.3 0.0 **** -0.106
41 H9439 63.6394 21.3084 23.1242 H 0.0 **** 0.053
42 C9370 58.9498 13.6066 25.81 C.3 0.0 **** -0.106
43 H9482 64.9982 22.2189 19.5382 H 0.0 **** 0.053
44 H9467 58.2512 11.5709 27.0699 H 0.0 **** 0.053
45 H9484 56.2499 18.7129 20.9557 H 0.0 **** 0.41
46 H9455 58.3548 28.8514 17.9637 H 0.0 **** 0.1268
47 C9419 61.2242 14.4922 27.3384 C.3 0.0 **** -0.159
48 C9411 57.6461 28.5036 17.209 C.ar 0.0 **** -0.1268
49 H9445 52.8879 22.8135 14.2594 H 0.0 **** 0.053
50 H9433 59.7314 12.8377 25.9327 H 0.0 **** 0.053
51 H9471 61.9598 13.7299 27.0266 H 0.0 **** 0.053
52 H9485 56.3272 29.0593 12.9476 H 0.0 **** 0.053
53 C9366 55.8454 12.0947 23.2015 C.ar 0.0 **** 0.0
54 H9457 54.1435 10.8173 22.8624 H 0.0 **** 0.053
55 C9397 54.3743 22.9913 16.7458 C.ar 0.0 **** 0.0
56 H9432 58.5184 13.7159 26.8244 H 0.0 **** 0.053
57 C9396 53.8898 21.5744 16.9013 C.3 0.0 **** -0.106
58 H9438 64.4787 19.0598 21.2944 H 0.0 **** 0.053
59 C9362 57.355 11.7907 25.1 C.ar 0.0 **** 0.0
60 H9470 61.6955 15.1047 28.1174 H 0.0 **** 0.053
61 C9405 52.8547 25.6653 13.7641 C.3 0.0 **** -0.106
62 C9415 55.2706 10.9486 21.0168 C.3 0.0 **** -0.159
63 C9376 59.8649 18.8466 22.5568 C.ar 0.0 **** 0.0
64 C9382 59.2864 19.738 21.5691 C.ar 0.0 **** 0.0
65 H9466 55.1024 13.8258 21.2682 H 0.0 **** 0.053
66 C9393 55.4613 21.3294 18.8129 C.ar 0.0 **** 0.0
67 H9441 53.782 20.0541 18.4711 H 0.0 **** 0.053
68 C9417 55.9084 14.27 21.8612 C.3 0.0 **** -0.159
69 C9364 57.4078 13.8551 23.823 C.ar 0.0 **** 0.0
70 C9372 61.4671 16.4788 25.8084 C.ar 0.0 **** 0.0
71 H9434 58.3042 17.3989 22.5645 H 0.0 **** 0.1268
72 C9367 57.9663 15.2201 23.5466 C.3 0.0 **** -0.106
73 H9454 57.2283 26.6329 18.2238 H 0.0 **** 0.1268
74 C9381 60.0592 20.833 21.0829 C.ar 0.0 **** 0.0
75 C9361 56.3696 11.2843 24.2325 C.ar 0.0 **** 0.0
76 H9474 63.2192 15.875 26.9242 H 0.0 **** 0.053
77 C9404 51.8474 24.71 14.4021 C.3 0.0 **** -0.106
78 H9468 58.6518 10.2622 25.9461 H 0.0 **** 0.053
79 H9460 54.4553 10.547 20.3952 H 0.0 **** 0.053
80 H9440 63.8117 19.5765 23.4621 H 0.0 **** 0.053
81 C9363 57.8803 13.0803 24.8847 C.ar 0.0 **** 0.0
82 H9479 65.5623 21.8791 21.848 H 0.0 **** 0.053
83 H9449 52.3452 26.4795 13.2249 H 0.0 **** 0.053
84 H9483 59.4206 23.4389 19.2543 H 0.0 **** 0.41
85 H9477 66.3909 20.6072 20.9182 H 0.0 **** 0.053
86 C9401 54.3404 25.1861 15.7437 C.ar 0.0 **** 0.0
87 O9426 55.3134 19.3488 20.107 O.2 0.0 **** -0.419
88 H9469 57.0421 10.3384 26.6815 H 0.0 **** 0.053
89 C9410 57.0167 27.2754 17.3691 C.ar 0.0 **** -0.1268
90 H9453 54.4435 27.914 13.647 H 0.0 **** 0.053
91 H9458 55.9729 10.1309 21.2398 H 0.0 **** 0.053
92 H9442 53.3731 21.6909 18.9991 H 0.0 **** 0.053
93 H9459 55.818 11.7006 20.4292 H 0.0 **** 0.053
94 C9398 55.5004 23.4109 17.4963 C.ar 0.0 **** 0.2405
95 C9403 52.5646 23.5186 15.0464 C.3 0.0 **** -0.106
96 H9476 62.5306 20.0595 24.9272 H 0.0 **** 0.41
97 C9369 59.6115 14.9047 25.4269 C.ar 0.0 **** 0.0
98 H9463 54.9931 9.81359 25.0649 H 0.0 **** 0.053
99 C9392 56.1604 22.4479 18.4041 C.ar 0.0 **** 0.0
100 O9421 62.4361 19.1295 25.1876 O.3 0.0 **** -0.452
101 H9461 56.6508 9.22282 24.852 H 0.0 **** 0.053
102 H9451 53.1654 26.927 15.4731 H 0.0 **** 0.053
103 H9481 65.2807 20.6126 18.8282 H 0.0 **** 0.053
104 H9436 62.923 22.4984 21.218 H 0.0 **** 0.053
105 H9452 55.455 26.4733 13.5056 H 0.0 **** 0.053
106 H9437 63.0599 19.8464 19.7234 H 0.0 **** 0.053
107 H9450 53.4687 25.1191 13.0263 H 0.0 **** 0.053
108 C9412 57.4061 29.3107 16.0856 C.ar 0.0 **** 0.0
109 C9420 62.7981 16.7754 26.4629 C.3 0.0 **** -0.159
110 C9409 56.1044 26.8302 16.403 C.ar 0.0 **** 0.0
111 C9402 53.7753 23.9087 15.8669 C.ar 0.0 **** 0.0
112 H9443 52.8423 21.4713 16.5919 H 0.0 **** 0.053
113 C9416 55.8784 9.86281 24.4069 C.3 0.0 **** -0.159
114 C9394 56.0251 20.3469 19.7268 C.2 0.0 **** 0.367
115 C9385 64.3134 20.1377 21.4487 C.ar 0.0 **** -0.053
116 H9435 62.034 22.1411 19.7405 H 0.0 **** 0.053
117 C9395 54.0516 21.1104 18.3461 C.3 0.0 **** -0.106
118 H9475 62.7184 17.5548 27.237 H 0.0 **** 0.053
119 C9383 62.4736 21.6801 20.6252 C.3 0.0 **** -0.106
120 C9389 58.113 21.6586 19.7736 C.ar 0.0 **** 0.052
121 C9373 60.9602 17.3013 24.7436 C.ar 0.0 **** 0.0
122 C9388 57.3721 20.529 20.1924 C.ar 0.0 **** 0.052
123 C9365 56.3817 13.3766 22.9836 C.ar 0.0 **** 0.0
124 O9425 57.1756 18.5585 21.4563 O.3 0.0 **** -0.452
125 H9486 56.9473 30.5135 13.7565 H 0.0 **** 0.053
126 H9430 58.2436 15.2826 22.4798 H 0.0 **** 0.053
127 H9480 63.9189 21.6114 18.262 H 0.0 **** 0.053
128 H9473 63.5204 17.1425 25.7242 H 0.0 **** 0.053
129 H9489 58.7629 30.8104 16.8348 H 0.0 **** 0.053
130 C9378 61.5196 18.5405 24.3454 C.ar 0.0 **** 0.042
@<TRIPOS>BOND
1 122 114 1
2 81 59 am
3 69 81 am
4 123 69 am
5 53 123 am
6 75 59 am
7 75 53 am
8 39 72 1
9 97 39 am
10 42 97 1
11 69 72 1
12 81 42 1
13 70 35 am
14 121 70 am
15 20 121 am
16 97 35 am
17 39 20 am
18 63 13 am
19 1 63 am
20 130 1 am
21 20 13 am
22 121 130 am
23 21 32 1
24 74 21 1
25 64 74 am
26 1 32 1
27 63 64 am
28 12 119 1
29 115 12 am
30 28 115 1
31 21 119 1
32 32 28 1
33 122 5 am
34 120 122 am
35 10 120 am
36 64 5 am
37 74 10 am
38 99 8 1
39 66 99 am
40 114 66 1
41 120 8 1
42 57 117 1
43 55 57 1
44 94 55 am
45 66 117 1
46 99 94 am
47 14 34 am
48 86 14 am
49 111 86 am
50 94 34 am
51 55 111 am
52 77 95 1
53 61 77 1
54 17 61 1
55 111 95 1
56 86 17 1
57 7 40 1
58 110 7 am
59 14 110 am
60 17 40 1
61 48 89 am
62 108 48 am
63 16 108 am
64 110 89 am
65 7 16 am
66 53 37 1
67 37 62 1
68 75 113 1
69 123 68 1
70 59 18 1
71 35 47 1
72 70 109 1
73 130 100 1
74 115 4 1
75 12 23 1
76 10 6 1
77 5 124 1
78 114 87 2
79 8 3 2
80 16 29 1
81 108 30 1
82 72 126 1
83 72 25 1
84 42 56 1
85 42 50 1
86 13 71 1
87 119 116 1
88 119 104 1
89 12 106 1
90 115 58 1
91 28 41 1
92 28 80 1
93 117 67 1
94 117 92 1
95 57 112 1
96 57 31 1
97 95 49 1
98 95 9 1
99 77 36 1
100 77 38 1
101 61 83 1
102 61 107 1
103 17 102 1
104 40 105 1
105 40 90 1
106 89 73 1
107 48 46 1
108 37 24 1
109 37 54 1
110 62 91 1
111 62 93 1
112 62 79 1
113 113 101 1
114 113 22 1
115 113 98 1
116 68 15 1
117 68 33 1
118 68 65 1
119 18 44 1
120 18 78 1
121 18 88 1
122 47 60 1
123 47 51 1
124 47 27 1
125 109 128 1
126 109 76 1
127 109 118 1
128 100 96 1
129 4 85 1
130 4 26 1
131 4 82 1
132 23 127 1
133 23 103 1
134 23 43 1
135 6 84 1
136 124 45 1
137 29 52 1
138 29 125 1
139 29 11 1
140 30 19 1
141 30 129 1
142 30 2 1
@<TRIPOS>MOLECULE
Sketch 4
250 292
SMALL
USER_CHARGES


@<TRIPOS>ATOM
1 C22238 27.7557 28.0206 59.1732 C.2 0.0 **** 0.042
2 C22237 26.8518 28.691 59.9829 C.2 0.0 **** 0.042
3 C22269 40.7155 27.9762 58.4124 C.2 0.0 **** 0.0
4 C22176 20.5129 31.2377 62.6611 C.2 0.0 **** 0.0
5 C22172 18.7765 33.8655 64.9036 C.3 0.0 **** -0.053
6 C22296 44.3113 28.0641 57.3357 C.2 0.0 **** 0.0
7 H22375 38.7267 29.683 58.3253 H 0.0 **** 0.053
8 H22313 14.7562 35.1029 66.844 H 0.0 **** 0.053
9 C22170 19.4639 32.0282 63.2754 C.2 0.0 **** 0.0
10 H22380 39.7873 28.5 62.612 H 0.0 **** 0.053
11 C22299 47.1367 28.6697 57.5442 C.3 0.0 **** -0.086
12 H22393 38.8446 23.4052 52.6872 H 0.0 **** 0.1268
13 C22159 15.7864 29.8239 67.0093 C.3 0.0 **** 0.054
14 C22192 22.0182 38.6879 67.9504 C.3 0.0 **** -0.106
15 S22203 25.5703 34.0559 65.5638 S.2 0.0 **** 0.024
16 C22216 26.3579 30.4809 61.7182 C.2 0.0 **** 0.0
17 H22350 36.2689 32.7942 65.8862 H 0.0 **** 0.053
18 C22290 44.6117 26.5337 55.4218 C.2 0.0 **** 0.0
19 C22175 21.8172 31.5412 62.9373 C.2 0.0 **** 0.232
20 C22267 38.14 26.1762 56.3198 C.2 0.0 **** 0.0
21 C22197 23.8936 35.8649 69.8862 C.3 0.0 **** -0.106
22 H22397 45.4729 24.6397 52.6955 H 0.0 **** 0.1268
23 H22344 24.5062 29.581 61.0206 H 0.0 **** 0.1268
24 C22229 35.0779 34.3735 65.0111 C.3 0.0 **** -0.106
25 H22363 26.3687 26.2314 60.8859 H 0.0 **** 0.053
26 H22401 46.4848 30.4856 58.55 H 0.0 **** 0.053
27 C22252 32.3525 27.0115 57.7613 C.2 0.0 **** -0.1268
28 C22210 31.05 32.3489 62.7672 C.2 0.0 **** 0.0
29 C22185 20.5974 35.2815 65.9156 C.2 0.0 **** 0.0
30 C22181 24.1137 31.0452 62.4791 C.2 0.0 **** 0.232
31 C22279 40.3858 25.7932 55.3782 C.2 0.0 **** 0.0
32 H22316 17.5297 34.6525 63.3615 H 0.0 **** 0.053
33 C22242 25.2182 27.1027 59.2862 C.3 0.0 **** 0.107
34 H22310 17.3386 31.7839 66.1944 H 0.0 **** 0.053
35 C22226 35.2498 32.5618 63.2304 C.3 0.0 **** 0.107
36 H22343 30.4939 33.6967 64.3612 H 0.0 **** 0.1268
37 H22305 17.2721 32.6861 68.5844 H 0.0 **** 0.053
38 H22342 28.293 34.1311 65.1322 H 0.0 **** 0.1268
39 C22228 33.141 33.8749 63.3882 C.3 0.0 **** 0.107
40 C22191 20.525 38.7044 67.6109 C.3 0.0 **** -0.106
41 C22271 23.0903 33.4779 70.4279 C.3 0.0 **** -0.053
42 C22202 26.5281 33.1738 64.3846 C.2 0.0 **** -0.012
43 C22177 20.1663 30.0926 61.7438 C.3 0.0 **** -0.106
44 H22303 18.0735 30.614 67.8756 H 0.0 **** 0.053
45 H22383 22.2066 32.8382 70.25 H 0.0 **** 0.053
46 H22322 20.1605 29.1519 62.3263 H 0.0 **** 0.053
47 H22326 16.755 30.7396 61.733 H 0.0 **** 0.053
48 C22248 31.4268 27.7643 58.5498 C.2 0.0 **** 0.0
49 C22264 39.3925 29.2117 61.8706 C.3 0.0 **** -0.106
50 H22306 14.5631 31.3176 68.8631 H 0.0 **** 0.053
51 H22360 38.0933 31.7944 64.6192 H 0.0 **** 0.353
52 C22168 16.0317 31.811 64.4952 C.3 0.0 **** -0.106
53 C22178 18.7944 30.2847 61.0964 C.3 0.0 **** -0.106
54 C22247 25.6606 25.7619 57.177 C.3 0.0 **** -0.106
55 C22196 22.7059 34.8995 69.967 C.3 0.0 **** -0.053
56 H22381 37.2408 29.1507 62.256 H 0.0 **** 0.053
57 C22194 21.8221 36.2286 67.981 C.2 0.0 **** 0.0
58 C22245 25.9814 24.6522 59.4313 C.3 0.0 **** -0.106
59 C22206 28.267 31.7261 62.6704 C.2 0.0 **** 0.0
60 H22318 16.0808 30.7274 64.312 H 0.0 **** 0.053
61 H22384 24.4215 31.838 69.8938 H 0.0 **** 0.053
62 H22403 47.387 28.1558 58.4908 H 0.0 **** 0.053
63 C22263 40.3311 29.2605 60.6392 C.3 0.0 **** -0.106
64 C22173 21.1732 33.368 64.4448 C.2 0.0 **** 0.0
65 C22265 37.9546 28.8108 61.4904 C.3 0.0 **** -0.106
66 H22334 20.9826 34.4213 68.7382 H 0.0 **** 0.053
67 H22339 24.2273 37.9644 69.3972 H 0.0 **** 0.053
68 O22160 16.3548 29.5182 68.2885 O.3 0.0 **** -0.32
69 C22227 34.3128 33.315 64.2074 C.3 0.0 **** -0.053
70 H22378 41.3549 28.9959 60.9396 H 0.0 **** 0.053
71 H22364 24.6796 25.7079 60.8378 H 0.0 **** 0.053
72 H22328 18.229 38.2533 66.2531 H 0.0 **** 0.053
73 H22336 22.0025 35.3103 70.7153 H 0.0 **** 0.053
74 H22379 39.3775 30.1992 62.3531 H 0.0 **** 0.053
75 H22371 29.6731 26.7819 57.781 H 0.0 **** 0.1268
76 O22240 27.374 27.0652 58.2598 O.3 0.0 **** -0.202
77 H22386 24.1097 32.9564 68.5446 H 0.0 **** 0.053
78 H22392 36.5939 23.7742 53.6347 H 0.0 **** 0.1268
79 N22236 38.4591 32.7412 64.5115 N.3 0.0 **** -0.727
80 C22259 37.574 29.4188 60.1283 C.3 0.0 **** -0.053
81 C22286 42.6274 25.4363 54.4206 C.2 0.0 **** 0.0
82 H22307 14.3549 31.329 66.4007 H 0.0 **** 0.053
83 C22255 35.2168 30.0566 60.5992 C.2 0.0 **** -0.1268
84 C22189 19.0392 37.6701 65.7733 C.3 0.0 **** -0.106
85 H22390 31.7398 35.2012 63.6768 H 0.0 **** 0.41
86 H22361 25.724 27.9415 57.3723 H 0.0 **** 0.053
87 C22275 36.1901 25.0761 55.2795 C.2 0.0 **** -0.1268
88 H22394 41.0767 23.0381 51.7229 H 0.0 **** 0.1268
89 H22315 15.2061 34.0071 68.9364 H 0.0 **** 0.053
90 C22291 45.4022 25.9174 54.4124 C.2 0.0 **** -0.1268
91 C22156 16.6295 31.8709 68.9529 C.3 0.0 **** -0.106
92 H22359 40.0646 31.8405 63.534 H 0.0 **** 0.053
93 C22163 14.8519 34.0088 66.7937 C.3 0.0 **** -0.106
94 H22357 39.5045 32.3445 61.2993 H 0.0 **** 0.053
95 C22208 29.1734 31.0146 61.8413 C.2 0.0 **** 0.0
96 C22223 33.3012 28.9932 59.5643 C.2 0.0 **** 0.0
97 C22214 32.8939 30.8164 61.1815 C.2 0.0 **** 0.0
98 O22180 22.7789 30.7575 62.3288 O.3 0.0 **** -0.464
99 C22220 30.9996 29.53 60.2387 C.2 0.0 **** 0.0
100 C22183 23.5743 32.7842 64.1063 C.2 0.0 **** 0.0
101 H22372 31.9832 26.2545 57.0686 H 0.0 **** 0.1268
102 H22333 22.6016 38.8929 67.0321 H 0.0 **** 0.053
103 C22280 41.2235 25.1846 54.4142 C.2 0.0 **** 0.0
104 C22174 22.2164 32.5797 63.8325 C.2 0.0 **** 0.0
105 C22266 38.7048 27.0504 57.2912 C.2 0.0 **** 0.0
106 H22349 34.474 34.6843 65.8731 H 0.0 **** 0.053
107 H22354 37.4125 31.3915 62.3345 H 0.0 **** 0.053
108 H22335 22.5159 34.1812 67.9344 H 0.0 **** 0.053
109 C22283 41.5183 23.7033 52.4671 C.2 0.0 **** -0.1268
110 C22161 16.3112 32.1094 65.9657 C.3 0.0 **** -0.053
111 C22235 39.4788 32.768 63.4519 C.3 0.0 **** 0.081
112 C22186 21.5594 34.4113 65.399 C.2 0.0 **** 0.0
113 C22209 30.5709 31.3073 61.893 C.2 0.0 **** 0.0
114 H22353 36.2934 34.2228 62.4074 H 0.0 **** 0.053
115 H22337 24.549 35.5601 69.0539 H 0.0 **** 0.053
116 C22231 37.3521 33.6546 64.2246 C.3 0.0 **** 0.134
117 C22257 35.9202 26.6857 57.1693 C.2 0.0 **** 0.0265
118 C22190 18.517 36.3598 65.2713 C.2 0.0 **** -0.1268
119 H22385 25.1956 33.4363 69.8671 H 0.0 **** 0.053
120 H22404 48.0831 29.049 57.1334 H 0.0 **** 0.053
121 H22369 24.8673 25.9725 56.4444 H 0.0 **** 0.053
122 H22308 16.5203 29.5742 66.2147 H 0.0 **** 0.053
123 H22325 17.6332 29.6461 62.8022 H 0.0 **** 0.053
124 C22215 31.496 30.5612 61.1037 C.2 0.0 **** 0.0
125 C22268 36.7257 25.9707 56.2628 C.2 0.0 **** 0.0
126 C22171 19.8464 33.11 64.1476 C.2 0.0 **** 0.0
127 H22356 38.9344 33.9708 61.6994 H 0.0 **** 0.053
128 H22358 40.1706 33.6019 63.6594 H 0.0 **** 0.053
129 C22230 36.4293 33.7921 65.4393 C.3 0.0 **** -0.106
130 C22199 23.9145 33.8019 65.0578 C.2 0.0 **** -0.012
131 C22179 17.7471 30.5558 62.1791 C.3 0.0 **** -0.106
132 H22338 24.4952 35.8299 70.8074 H 0.0 **** 0.053
133 O22274 32.3773 34.733 64.2375 O.3 0.0 **** -0.57
134 C22212 32.4322 32.6989 62.7237 C.2 0.0 **** 0.0
135 H22332 22.2689 39.4796 68.6736 H 0.0 **** 0.053
136 H22340 22.9288 37.6948 70.5524 H 0.0 **** 0.053
137 C22294 42.9154 27.7576 57.3669 C.2 0.0 **** 0.0
138 H22319 14.9989 32.1269 64.2794 H 0.0 **** 0.053
139 H22362 24.1378 27.1505 59.0886 H 0.0 **** 0.053
140 H22389 23.6181 32.4246 72.2678 H 0.0 **** 0.053
141 H22348 35.2344 35.2743 64.3931 H 0.0 **** 0.053
142 C22262 39.8077 28.3172 59.5622 C.3 0.0 **** -0.053
143 C22244 25.5595 25.9161 60.2115 C.3 0.0 **** -0.106
144 H22377 40.3726 30.2808 60.2214 H 0.0 **** 0.053
145 C22169 18.1322 31.7262 63.0395 C.2 0.0 **** 0.0
146 O22225 34.6156 32.3483 61.9376 O.3 0.0 **** -0.202
147 O22243 25.5162 28.3623 59.9193 O.3 0.0 **** -0.202
148 C22284 42.8651 23.9531 52.4717 C.2 0.0 **** -0.1268
149 C22260 38.4722 28.8471 59.007 C.3 0.0 **** -0.053
150 C22258 36.4743 27.5969 58.0846 C.2 0.0 **** 0.0
151 H22317 16.3916 32.8117 62.646 H 0.0 **** 0.053
152 C22184 19.2505 35.2272 65.3534 C.2 0.0 **** 0.0
153 C22158 15.3526 31.3062 66.8701 C.3 0.0 **** -0.053
154 C22281 40.6563 24.3085 53.4332 C.2 0.0 **** 0.0
155 C22285 43.4528 24.8209 53.4422 C.2 0.0 **** 0.0
156 H22341 23.265 35.3929 66.3114 H 0.0 **** 0.1268
157 H22355 37.0347 32.4484 60.9751 H 0.0 **** 0.053
158 C22282 39.2727 24.0694 53.4412 C.2 0.0 **** -0.1268
159 C22200 22.9539 34.5838 65.6509 C.2 0.0 **** -0.1268
160 H22302 17.8115 30.117 69.5694 H 0.0 **** 0.053
161 C22166 17.4318 33.9029 64.1604 C.3 0.0 **** 0.107
162 C22198 23.3878 37.2848 69.6317 C.3 0.0 **** -0.106
163 H22391 35.113 24.9113 55.2547 H 0.0 **** 0.1268
164 C22213 33.3024 31.9315 61.9727 C.2 0.0 **** 0.042
165 C22205 28.7753 32.7049 63.5786 C.2 0.0 **** 0.0
166 C22188 20.1774 37.5361 66.7312 C.2 0.0 **** 0.0
167 H22320 18.6433 33.2739 65.8321 H 0.0 **** 0.053
168 C22182 24.5655 32.0224 63.3844 C.2 0.0 **** 0.0
169 O22256 34.5602 26.487 57.1019 O.3 0.0 **** -0.0685
170 H22400 45.0083 28.6368 59.2929 H 0.0 **** 0.053
171 H22346 33.8888 32.5868 64.9171 H 0.0 **** 0.053
172 H22398 42.494 28.8145 59.2148 H 0.0 **** 0.1268
173 C22277 38.4288 24.6679 54.3825 C.2 0.0 **** 0.0
174 C22300 46.6378 27.5903 56.5915 C.2 0.0 **** 0.347
175 H22395 43.5176 23.4935 51.7267 H 0.0 **** 0.1268
176 H22365 25.77 23.7569 60.0342 H 0.0 **** 0.053
177 C22288 42.3613 26.8972 56.3796 C.2 0.0 **** 0.0
178 H22321 20.9498 29.973 60.9818 H 0.0 **** 0.053
179 H22368 25.466 23.632 57.5703 H 0.0 **** 0.053
180 H22376 39.5861 27.3464 60.0498 H 0.0 **** 0.053
181 C22162 16.2019 33.6432 66.2003 C.3 0.0 **** 0.107
182 C22239 29.1508 28.2654 59.2565 C.2 0.0 **** 0.0
183 C22157 15.2489 31.938 68.2678 C.3 0.0 **** -0.053
184 C22217 24.9593 30.3035 61.6834 C.2 0.0 **** -0.1268
185 H22366 27.0664 24.6775 59.2513 H 0.0 **** 0.053
186 C22211 30.1373 32.9866 63.6217 C.2 0.0 **** -0.1268
187 C22254 36.0978 29.2848 59.8641 C.2 0.0 **** 0.0
188 H22387 22.5477 33.8311 72.5155 H 0.0 **** 0.053
189 H22347 33.5827 34.4843 62.5728 H 0.0 **** 0.053
190 C22276 37.0111 24.4504 54.3831 C.2 0.0 **** -0.1268
191 H22324 18.8322 31.1453 60.409 H 0.0 **** 0.053
192 O22301 47.4763 26.8701 56.0475 O.2 0.0 **** -0.419
193 C22167 17.0006 32.5636 63.5364 C.3 0.0 **** -0.053
194 H22327 19.3447 38.3049 64.9124 H 0.0 **** 0.053
195 C22218 28.6735 30.0013 60.9583 C.2 0.0 **** 0.0
196 O22165 16.3504 34.3819 64.9778 O.3 0.0 **** -0.32
197 H22323 18.5226 29.3972 60.5048 H 0.0 **** 0.053
198 C22241 25.9611 27.0404 57.9621 C.3 0.0 **** 0.107
199 H22370 26.5683 25.5161 56.6047 H 0.0 **** 0.053
200 H22314 13.6231 33.3876 68.4622 H 0.0 **** 0.053
201 H22311 16.9929 33.9709 66.9023 H 0.0 **** 0.053
202 H22352 37.8159 34.639 64.0418 H 0.0 **** 0.053
203 C22246 25.2549 24.5816 58.0835 C.3 0.0 **** -0.106
204 C22253 35.596 28.3741 58.9252 C.2 0.0 **** 0.0
205 C22155 17.3116 30.511 68.6741 C.3 0.0 **** 0.054
206 C22278 38.9883 25.5408 55.3707 C.2 0.0 **** 0.0
207 H22402 45.8994 30.3116 56.8815 H 0.0 **** 0.053
208 H22388 24.2765 34.0709 72.1596 H 0.0 **** 0.053
209 C22249 30.053 27.5383 58.466 C.2 0.0 **** -0.1268
210 C22261 37.8587 27.7795 58.1405 C.2 0.0 **** 0.0
211 C22201 25.968 32.2192 63.4619 C.2 0.0 **** 0.0
212 H22382 37.85 27.7157 61.4335 H 0.0 **** 0.053
213 H22329 17.5187 36.3474 64.8371 H 0.0 **** 0.1268
214 C22232 36.56 33.2859 62.9254 C.3 0.0 **** -0.053
215 H22373 35.6289 30.7613 61.3042 H 0.0 **** 0.1268
216 C22287 43.2054 26.2949 55.4041 C.2 0.0 **** 0.0
217 C22298 46.1121 29.7596 57.8117 C.3 0.0 **** -0.106
218 C22204 27.88 33.3994 64.4341 C.2 0.0 **** -0.1268
219 C22164 14.6892 33.3815 68.1902 C.3 0.0 **** -0.106
220 C22234 38.8965 32.9168 62.0181 C.3 0.0 **** -0.106
221 H22312 14.0646 33.6469 66.1129 H 0.0 **** 0.053
222 H22331 19.9312 38.6472 68.5459 H 0.0 **** 0.053
223 H22399 44.0554 29.8684 58.4598 H 0.0 **** 0.053
224 C22289 40.9582 26.6534 56.3675 C.2 0.0 **** 0.0
225 C22250 34.2085 28.2134 58.7936 C.2 0.0 **** 0.0
226 H22367 24.1663 24.6066 58.2627 H 0.0 **** 0.053
227 C22187 20.8794 36.3713 66.848 C.2 0.0 **** 0.0
228 C22272 24.2658 32.8954 69.6325 C.3 0.0 **** -0.159
229 H22345 35.4842 31.562 63.6414 H 0.0 **** 0.053
230 C22293 42.0655 28.2463 58.3936 C.2 0.0 **** -0.1268
231 C22195 21.9862 34.8661 68.6139 C.3 0.0 **** -0.106
232 C22233 37.4449 32.4408 61.994 C.3 0.0 **** -0.106
233 C22273 23.3975 33.4482 71.9287 C.3 0.0 **** -0.159
234 C22297 44.8288 29.1029 58.3056 C.3 0.0 **** -0.106
235 C22270 40.1289 27.2407 57.3452 C.2 0.0 **** 0.0
236 C22251 33.6954 27.239 57.8825 C.2 0.0 **** 0.042
237 H22396 46.4718 26.0981 54.4109 H 0.0 **** 0.1268
238 C22219 27.2749 29.7257 60.8902 C.2 0.0 **** 0.0
239 H22330 20.2399 39.6455 67.114 H 0.0 **** 0.053
240 H22374 37.7976 30.4938 60.2067 H 0.0 **** 0.053
241 C22222 33.8178 29.9792 60.457 C.2 0.0 **** 0.0
242 C22295 45.162 27.4185 56.4282 C.2 0.0 **** 0.052
243 C22292 44.8388 25.0944 53.4597 C.2 0.0 **** -0.1268
244 C22221 29.6061 29.2724 60.1608 C.2 0.0 **** 0.0
245 C22224 31.9054 28.7735 59.4493 C.2 0.0 **** 0.0
246 C22207 26.8681 31.4751 62.6197 C.2 0.0 **** 0.0
247 C22193 22.3947 37.337 68.5077 C.2 0.0 **** 0.0
248 H22351 36.9252 34.4026 66.2064 H 0.0 **** 0.053
249 H22309 14.927 29.1458 66.911 H 0.0 **** 0.053
250 H22304 16.4995 32.0283 70.0345 H 0.0 **** 0.053
@<TRIPOS>BOND
1 103 31 un
2 210 105 un
3 58 185 1
4 80 240 1
5 183 91 1
6 153 183 1
7 13 153 1
8 68 13 1
9 205 91 1
10 205 68 1
11 181 110 1
12 93 181 1
13 219 93 1
14 153 110 1
15 183 219 1
16 161 196 1
17 193 161 1
18 52 193 1
19 181 196 1
20 110 52 1
21 9 145 un
22 126 9 un
23 5 126 un
24 193 145 1
25 161 5 1
26 104 64 1
27 19 104 un
28 4 19 un
29 126 64 un
30 9 4 un
31 53 43 1
32 131 53 1
33 145 131 1
34 4 43 1
35 30 98 1
36 168 30 un
37 100 168 un
38 19 98 1
39 104 100 un
40 29 152 un
41 112 29 2
42 5 152 1
43 64 112 un
44 166 227 2
45 84 166 1
46 118 84 1
47 29 227 1
48 152 118 2
49 14 40 1
50 247 14 1
51 57 247 2
52 166 40 1
53 227 57 1
54 55 231 1
55 21 55 1
56 162 21 1
57 57 231 1
58 247 162 1
59 159 130 un
60 112 159 un
61 100 130 un
62 42 211 un
63 15 42 1
64 130 15 un
65 168 211 un
66 165 218 un
67 59 165 un
68 246 59 un
69 42 218 un
70 211 246 un
71 113 95 un
72 28 113 un
73 186 28 un
74 59 95 un
75 165 186 un
76 164 134 un
77 97 164 un
78 124 97 un
79 28 134 un
80 113 124 un
81 184 16 un
82 30 184 un
83 246 16 un
84 238 195 un
85 16 238 un
86 95 195 un
87 244 99 un
88 195 244 un
89 124 99 un
90 96 241 un
91 245 96 un
92 99 245 un
93 97 241 un
94 35 146 1
95 69 35 1
96 39 69 1
97 164 146 1
98 134 39 1
99 129 24 1
100 116 129 1
101 214 116 1
102 69 24 1
103 35 214 1
104 220 232 1
105 111 220 1
106 79 111 1
107 214 232 1
108 116 79 1
109 1 2 un
110 182 1 un
111 244 182 un
112 238 2 un
113 198 76 1
114 33 198 1
115 147 33 1
116 1 76 1
117 2 147 1
118 58 143 1
119 203 58 1
120 54 203 1
121 33 143 1
122 198 54 1
123 209 48 un
124 182 209 un
125 245 48 un
126 236 225 un
127 27 236 un
128 48 27 un
129 96 225 un
130 187 204 un
131 83 187 un
132 241 83 un
133 225 204 un
134 117 169 1
135 150 117 un
136 236 169 1
137 204 150 1
138 149 80 1
139 210 149 1
140 187 80 1
141 150 210 un
142 63 142 1
143 49 63 1
144 65 49 1
145 149 142 1
146 80 65 1
147 20 105 1
148 125 20 1
149 117 125 un
150 142 3 1
151 105 235 un
152 3 235 un
153 55 41 1
154 41 228 1
155 41 233 1
156 39 133 1
157 190 87 1
158 173 190 un
159 206 173 1
160 125 87 un
161 20 206 un
162 154 103 1
163 158 154 un
164 206 31 un
165 173 158 un
166 148 109 un
167 155 148 1
168 81 155 1
169 154 109 un
170 103 81 un
171 177 216 un
172 224 177 un
173 31 224 un
174 81 216 un
175 90 18 un
176 243 90 un
177 155 243 un
178 216 18 un
179 137 230 un
180 177 137 un
181 235 224 un
182 3 230 un
183 6 242 un
184 137 6 un
185 18 242 un
186 217 234 1
187 11 217 1
188 174 11 1
189 6 234 1
190 242 174 1
191 174 192 2
192 205 160 1
193 205 44 1
194 91 250 1
195 91 37 1
196 183 50 1
197 153 82 1
198 13 122 1
199 13 249 1
200 110 34 1
201 181 201 1
202 93 221 1
203 93 8 1
204 219 200 1
205 219 89 1
206 161 32 1
207 193 151 1
208 52 60 1
209 52 138 1
210 5 167 1
211 43 178 1
212 43 46 1
213 53 197 1
214 53 191 1
215 131 123 1
216 131 47 1
217 84 194 1
218 84 72 1
219 118 213 1
220 40 239 1
221 40 222 1
222 14 135 1
223 14 102 1
224 231 66 1
225 231 108 1
226 55 73 1
227 21 115 1
228 21 132 1
229 162 67 1
230 162 136 1
231 159 156 1
232 218 38 1
233 186 36 1
234 184 23 1
235 35 229 1
236 69 171 1
237 39 189 1
238 24 141 1
239 24 106 1
240 129 17 1
241 129 248 1
242 116 202 1
243 214 114 1
244 232 107 1
245 232 157 1
246 220 127 1
247 220 94 1
248 111 128 1
249 111 92 1
250 79 51 1
251 198 86 1
252 33 139 1
253 143 25 1
254 143 71 1
255 58 176 1
256 203 226 1
257 203 179 1
258 54 121 1
259 54 199 1
260 209 75 1
261 27 101 1
262 83 215 1
263 149 7 1
264 142 180 1
265 63 144 1
266 63 70 1
267 49 74 1
268 49 10 1
269 65 56 1
270 65 212 1
271 41 45 1
272 228 61 1
273 228 119 1
274 228 77 1
275 233 188 1
276 233 208 1
277 233 140 1
278 133 85 1
279 87 163 1
280 190 78 1
281 158 12 1
282 109 88 1
283 148 175 1
284 90 237 1
285 243 22 1
286 230 172 1
287 234 223 1
288 234 170 1
289 217 26 1
290 217 207 1
291 11 62 1
292 11 120 1
@<TRIPOS>MOLECULE
Sketch 4
250 292
SMALL
USER_CHARGES


@<TRIPOS>ATOM
1 H14122 12.7451 50.4735 50.1582 H 0.0 **** 0.1268
2 H14108 21.3435 46.4955 58.801 H 0.0 **** 0.053
3 C14005 17.4209 48.8192 53.7328 C.2 0.0 **** -0.1268
4 C13987 17.2143 52.1876 45.9335 C.2 0.0 **** 0.042
5 C14015 16.8433 49.3571 56.769 C.3 0.0 **** -0.106
6 H14086 30.1299 55.5608 43.8544 H 0.0 **** 0.053
7 O14051 10.2689 44.2954 64.1995 O.2 0.0 **** -0.419
8 C14002 13.7067 50.2285 50.6103 C.2 0.0 **** -0.1268
9 O13993 17.1317 52.8264 44.7165 O.3 0.0 **** -0.202
10 C13946 29.2129 55.1685 44.3325 C.3 0.0 **** -0.053
11 C13952 23.4751 51.7475 46.3631 C.2 0.0 **** -0.012
12 H14153 12.9187 44.888 64.7077 H 0.0 **** 0.053
13 H14061 27.1612 55.8541 38.1509 H 0.0 **** 0.053
14 H14138 30.0214 56.5843 46.6354 H 0.0 **** 0.053
15 C13962 21.1314 49.129 51.4122 C.2 0.0 **** 0.0
16 C13937 28.2043 52.8088 41.3924 C.2 0.0 **** 0.0
17 C13969 18.5116 51.8555 46.4624 C.2 0.0 **** 0.0
18 C13959 19.8482 50.2396 49.6203 C.2 0.0 **** 0.0
19 H14144 5.43826 46.5319 57.4168 H 0.0 **** 0.1268
20 H14145 5.40955 45.4006 59.627 H 0.0 **** 0.1268
21 C13916 25.0699 54.0866 37.685 C.3 0.0 **** 0.107
22 C14048 13.6884 43.7388 63.0507 C.3 0.0 **** -0.106
23 C14021 28.5322 56.3473 45.0595 C.3 0.0 **** -0.053
24 H14071 19.624 53.82 40.548 H 0.0 **** 0.053
25 C13988 16.0495 51.8788 46.619 C.2 0.0 **** 0.042
26 O13975 20.0221 48.182 53.2509 O.3 0.0 **** -0.202
27 C13984 19.8697 46.4089 57.1865 C.3 0.0 **** -0.106
28 C14003 15.0194 48.886 53.8051 C.2 0.0 **** 0.0
29 C14029 10.0421 47.003 57.5287 C.2 0.0 **** 0.0
30 H14116 13.9422 54.5632 46.5157 H 0.0 **** 0.053
31 H14106 20.3462 45.4425 56.9565 H 0.0 **** 0.053
32 H14079 27.1998 52.7088 37.6083 H 0.0 **** 0.1268
33 H14100 22.9515 49.7227 56.002 H 0.0 **** 0.053
34 C13961 22.2948 50.2264 49.5154 C.2 0.0 **** -0.1268
35 C13985 20.7259 47.1982 58.2165 C.3 0.0 **** 0.081
36 C13980 23.2803 48.6781 55.8537 C.3 0.0 **** -0.106
37 C14030 8.81656 46.5774 58.093 C.2 0.0 **** 0.0
38 N13986 21.6164 48.2 57.6109 N.3 0.0 **** -0.727
39 H14141 10.0894 49.3029 52.7013 H 0.0 **** 0.1268
40 C13948 30.4878 53.0201 44.4934 C.3 0.0 **** -0.106
41 C13973 16.2192 49.5866 51.7736 C.2 0.0 **** 0.0
42 H14135 27.8056 55.3407 46.8504 H 0.0 **** 0.053
43 H14072 20.1518 55.492 40.372 H 0.0 **** 0.053
44 C14039 11.2599 46.7974 58.2503 C.2 0.0 **** 0.0
45 H14082 31.4334 51.2234 42.8009 H 0.0 **** 0.053
46 H14101 24.1791 48.5422 56.4705 H 0.0 **** 0.053
47 H14105 19.0569 46.7248 55.1832 H 0.0 **** 0.053
48 C13992 15.8635 53.4465 44.4277 C.3 0.0 **** 0.107
49 H14081 31.1032 52.5166 40.7052 H 0.0 **** 0.053
50 C13932 22.2457 52.615 44.3848 C.2 0.0 **** 0.0
51 C13974 16.1815 50.1353 50.4669 C.2 0.0 **** 0.0
52 H14125 15.0348 46.5439 56.3327 H 0.0 **** 0.053
53 C14018 11.3109 48.622 54.3697 C.2 0.0 **** 0.0
54 C14034 6.35008 45.7389 59.1877 C.2 0.0 **** -0.1268
55 C13929 21.3296 55.1867 37.8547 C.3 0.0 **** -0.106
56 H14104 19.2739 48.1907 56.1381 H 0.0 **** 0.053
57 H14070 25.6862 55.1594 39.4534 H 0.0 **** 0.053
58 C14014 17.1896 48.8256 58.1727 C.3 0.0 **** -0.106
59 H14075 21.1816 56.2598 38.0899 H 0.0 **** 0.053
60 H14127 16.5824 46.7261 58.3902 H 0.0 **** 0.053
61 H14094 18.8929 52.9528 43.9416 H 0.0 **** 0.1268
62 H14088 30.2014 54.4201 46.1316 H 0.0 **** 0.053
63 C13918 24.0928 56.2603 36.8082 C.3 0.0 **** -0.106
64 H14078 29.4142 51.9642 38.4355 H 0.0 **** 0.053
65 C13924 23.2731 53.2616 42.2504 C.2 0.0 **** 0.0
66 C13955 22.2625 50.8525 48.2732 C.2 0.0 **** 0.0
67 C14033 6.36512 46.3605 57.9672 C.2 0.0 **** -0.1268
68 C13957 21.0023 51.7834 46.372 C.2 0.0 **** 0.0
69 C14050 11.266 44.3848 63.4815 C.2 0.0 **** 0.347
70 H14119 13.0916 52.6441 43.3557 H 0.0 **** 0.053
71 C13911 25.3198 56.8496 37.4985 C.3 0.0 **** -0.053
72 H14134 26.8522 56.7643 46.3825 H 0.0 **** 0.053
73 C13913 27.4057 56.467 36.1109 C.3 0.0 **** -0.106
74 C14044 12.4576 45.9651 60.2307 C.2 0.0 **** 0.0
75 H14085 27.2828 54.5097 43.609 H 0.0 **** 0.053
76 C14046 12.4481 45.2647 61.4767 C.2 0.0 **** 0.0
77 C13941 30.3827 51.7095 40.9486 C.3 0.0 **** -0.106
78 H14123 18.3501 48.6052 54.2368 H 0.0 **** 0.1268
79 H14124 17.0736 47.4133 55.9483 H 0.0 **** 0.053
80 H14058 23.7574 58.7595 38.1647 H 0.0 **** 0.053
81 C13996 13.2839 54.518 44.4616 C.3 0.0 **** -0.106
82 C13935 26.832 53.1188 40.9957 C.2 0.0 **** 0.0
83 C14017 11.2945 48.0421 55.677 C.2 0.0 **** 0.0
84 O13910 25.2434 60.1189 38.6891 O.3 0.0 **** -0.32
85 O13990 14.7957 52.1364 46.1146 O.3 0.0 **** -0.202
86 C14023 29.5556 57.1824 45.836 C.3 0.0 **** -0.159
87 H14152 13.4179 42.844 62.4665 H 0.0 **** 0.053
88 C13940 27.3837 52.6353 38.6788 C.2 0.0 **** -0.1268
89 C14028 10.0602 47.6414 56.2603 C.2 0.0 **** 0.0
90 H14118 12.2413 54.8198 44.6392 H 0.0 **** 0.053
91 C13971 17.3533 50.9683 48.4731 C.2 0.0 **** 0.0
92 H14137 30.3572 57.5446 45.1731 H 0.0 **** 0.053
93 C13949 24.7501 52.5676 44.0436 C.2 0.0 **** -0.012
94 C14031 7.59324 46.7978 57.3813 C.2 0.0 **** 0.0
95 H14096 22.4407 50.0666 53.4985 H 0.0 **** 0.053
96 C14016 12.51 47.818 56.3836 C.2 0.0 **** 0.0
97 C13994 15.6837 54.7532 45.2282 C.3 0.0 **** -0.106
98 H14098 23.691 47.3663 54.1716 H 0.0 **** 0.053
99 H14109 20.0769 47.7234 58.9329 H 0.0 **** 0.053
100 C13907 27.0178 58.7273 37.277 C.3 0.0 **** -0.053
101 H14057 25.379 58.3227 35.9326 H 0.0 **** 0.053
102 H14113 16.2725 54.6702 46.1532 H 0.0 **** 0.053
103 C13943 29.8476 52.6248 43.1949 C.2 0.0 **** 0.0
104 H14111 14.975 51.5081 44.1522 H 0.0 **** 0.053
105 H14143 6.69451 47.5917 55.5878 H 0.0 **** 0.1268
106 C14001 13.7616 49.6953 51.8683 C.2 0.0 **** 0.042
107 O14024 23.6096 48.6042 51.5369 O.3 0.0 **** -0.57
108 H14149 14.5169 44.7341 61.3231 H 0.0 **** 0.053
109 C13923 24.3941 53.411 41.3528 C.2 0.0 **** 0.0
110 C14041 8.72983 44.6694 61.8813 C.2 0.0 **** -0.1268
111 C13960 21.1184 49.8639 50.1897 C.2 0.0 **** 0.0
112 C14019 13.6678 47.1709 58.4807 C.2 0.0 **** 0.0
113 C14037 10.008 45.7268 60.0924 C.2 0.0 **** 0.0
114 C13958 19.8072 50.8801 48.3439 C.2 0.0 **** 0.0
115 S13953 25.0578 52.1467 45.714 S.2 0.0 **** 0.024
116 C13970 17.3901 50.3703 49.7598 C.2 0.0 **** 0.0
117 C13919 22.69 54.7407 38.3121 C.2 0.0 **** 0.0
118 H14063 28.195 55.7409 35.8692 H 0.0 **** 0.053
119 O13915 26.1355 54.5965 36.8657 O.3 0.0 **** -0.32
120 H14150 14.155 45.8153 62.6718 H 0.0 **** 0.053
121 H14131 17.7263 49.8144 56.2977 H 0.0 **** 0.053
122 C13912 26.5416 55.9233 37.2359 C.3 0.0 **** 0.107
123 C13906 27.2763 58.7378 38.7978 C.3 0.0 **** -0.106
124 C13997 13.3692 52.9808 44.3657 C.3 0.0 **** -0.106
125 H14120 12.6628 52.5095 45.0662 H 0.0 **** 0.053
126 C14036 8.79619 45.9367 59.3672 C.2 0.0 **** 0.0
127 C13981 22.1799 47.7321 56.3439 C.3 0.0 **** 0.134
128 H14080 30.6988 50.8223 40.3768 H 0.0 **** 0.053
129 H14059 24.1932 60.0184 36.9681 H 0.0 **** 0.053
130 H14089 30.6608 52.1103 45.0968 H 0.0 **** 0.053
131 H14117 13.5818 54.9684 43.4993 H 0.0 **** 0.053
132 C13934 26.5756 53.2595 39.5647 C.2 0.0 **** 0.0
133 C13954 23.4755 51.1691 47.6067 C.2 0.0 **** -0.1268
134 C13938 29.0047 52.1298 40.5198 C.2 0.0 **** 0.0
135 H14112 15.903 53.648 43.3477 H 0.0 **** 0.053
136 C13966 19.7487 52.1186 45.7574 C.2 0.0 **** 0.0
137 C13944 28.7968 53.2914 42.6608 C.2 0.0 **** 0.0
138 C13951 22.2399 52.0576 45.689 C.2 0.0 **** 0.0
139 C14042 7.56229 44.8676 61.1741 C.2 0.0 **** -0.1268
140 H14102 22.6486 46.7582 56.5662 H 0.0 **** 0.053
141 H14054 28.1837 59.3267 39.0017 H 0.0 **** 0.053
142 C13978 22.3088 48.4528 52.1077 C.3 0.0 **** 0.107
143 H14068 23.2209 56.9133 36.9618 H 0.0 **** 0.053
144 H14083 29.8026 50.5355 42.6715 H 0.0 **** 0.053
145 H14148 14.5679 46.4692 60.2716 H 0.0 **** 0.1268
146 H14055 27.4714 57.7136 39.1531 H 0.0 **** 0.053
147 H14067 23.3808 54.2929 36.3925 H 0.0 **** 0.053
148 C13905 26.0606 59.3228 39.5541 C.3 0.0 **** 0.054
149 C13968 18.5527 51.2369 47.7478 C.2 0.0 **** 0.0
150 H14126 14.5841 48.9958 58.0524 H 0.0 **** 0.053
151 C13998 14.9149 50.4721 49.8848 C.2 0.0 **** 0.0
152 C13926 21.755 54.0767 40.488 C.2 0.0 **** 0.0
153 H14151 14.6617 43.5428 63.5255 H 0.0 **** 0.053
154 H14114 16.1186 55.5754 44.6412 H 0.0 **** 0.053
155 C14026 8.88317 48.4774 54.2628 C.2 0.0 **** -0.1268
156 C13942 30.4097 51.4357 42.4551 C.3 0.0 **** -0.106
157 C13991 14.7599 52.439 44.703 C.3 0.0 **** 0.107
158 H14115 14.0667 56.1317 45.7001 H 0.0 **** 0.053
159 H14132 16.0764 50.1461 56.8217 H 0.0 **** 0.053
160 H14129 18.2083 48.413 58.1625 H 0.0 **** 0.053
161 C13908 25.5647 58.2961 37.0194 C.3 0.0 **** -0.053
162 C14025 10.069 48.8439 53.6896 C.2 0.0 **** -0.1268
163 H14128 16.0972 47.7659 59.7374 H 0.0 **** 0.053
164 C13922 25.3955 54.123 39.1866 C.3 0.0 **** -0.053
165 C14007 12.5623 48.9252 53.8003 C.2 0.0 **** 0.0265
166 H14052 26.3728 59.9877 40.3709 H 0.0 **** 0.053
167 H14062 26.7778 56.5726 35.2115 H 0.0 **** 0.053
168 H14066 24.9848 53.027 37.4028 H 0.0 **** 0.053
169 C14004 16.2448 48.6365 54.4367 C.2 0.0 **** 0.0
170 C13989 16.0814 51.2929 47.9109 C.2 0.0 **** 0.0
171 H14107 18.8782 46.1825 57.61 H 0.0 **** 0.053
172 H14139 29.0785 58.054 46.3092 H 0.0 **** 0.053
173 H14099 24.469 48.9447 54.0307 H 0.0 **** 0.053
174 H14154 12.4433 43.187 64.7813 H 0.0 **** 0.053
175 H14077 28.3236 50.7415 39.036 H 0.0 **** 0.053
176 C13947 29.6419 54.0316 45.2667 C.3 0.0 **** -0.106
177 H14053 25.4464 58.5103 39.9916 H 0.0 **** 0.053
178 H14064 28.3642 58.3375 35.5984 H 0.0 **** 0.053
179 H14103 21.3959 46.564 54.6806 H 0.0 **** 0.053
180 C13976 21.0139 48.6071 54.228 C.3 0.0 **** 0.107
181 H14142 7.94249 48.6461 53.7357 H 0.0 **** 0.1268
182 C13972 17.46 49.2499 52.3925 C.2 0.0 **** 0.0
183 C13914 28.0151 57.8243 36.5069 C.3 0.0 **** -0.106
184 C14013 16.2009 47.7299 58.6436 C.3 0.0 **** -0.106
185 C13977 22.3604 48.9692 53.5528 C.3 0.0 **** -0.053
186 C14008 13.7635 48.6438 54.4732 C.2 0.0 **** 0.0
187 C14020 12.4797 47.2438 57.7014 C.2 0.0 **** 0.0
188 H14136 26.675 55.2385 45.4831 H 0.0 **** 0.053
189 C13927 20.3653 54.4569 40.0443 C.3 0.0 **** -0.106
190 C14010 14.9985 47.646 56.4441 C.3 0.0 **** -0.053
191 C13982 21.1005 47.467 55.2413 C.3 0.0 **** -0.053
192 C14040 9.98682 45.1016 61.3745 C.2 0.0 **** 0.0
193 C13921 24.1891 53.8535 40.0576 C.2 0.0 **** 0.0
194 C14032 7.62971 47.4315 56.1288 C.2 0.0 **** -0.1268
195 H14110 21.1051 49.0688 57.45 H 0.0 **** 0.353
196 C13909 24.6033 59.3062 37.6978 C.3 0.0 **** 0.054
197 C14038 11.2385 46.1661 59.5268 C.2 0.0 **** 0.0
198 C13920 22.8798 54.2276 39.5853 C.2 0.0 **** 0.0
199 C14009 16.3213 48.2139 55.8798 C.3 0.0 **** -0.053
200 O14006 12.5682 49.476 52.5394 O.3 0.0 **** -0.0685
201 C13965 18.6441 49.9908 50.3439 C.2 0.0 **** 0.0
202 C13917 23.7729 54.8136 37.2871 C.3 0.0 **** -0.053
203 C14035 7.55738 45.5114 59.9164 C.2 0.0 **** 0.0
204 H14093 23.2604 50.0478 49.978 H 0.0 **** 0.1268
205 H14076 21.2689 55.1096 36.756 H 0.0 **** 0.053
206 H14130 17.1903 49.6602 58.8906 H 0.0 **** 0.053
207 C14000 15.0083 49.3793 52.4918 C.2 0.0 **** 0.0
208 C14049 12.6157 44.0232 64.0889 C.3 0.0 **** -0.086
209 C13995 14.2061 55.0492 45.5648 C.3 0.0 **** -0.106
210 H14133 28.0938 56.9914 44.2754 H 0.0 **** 0.053
211 H14140 23.6089 48.1352 50.6883 H 0.0 **** 0.41
212 H14121 13.9382 51.29 48.1503 H 0.0 **** 0.1268
213 C13931 20.9927 52.9163 43.8209 C.2 0.0 **** 0.232
214 H14091 26.823 52.3996 43.5972 H 0.0 **** 0.1268
215 C14027 8.83274 47.8525 55.5529 C.2 0.0 **** 0.0
216 C14011 13.735 48.0895 55.7558 C.2 0.0 **** 0.0
217 C13964 18.6787 49.3931 51.635 C.2 0.0 **** 0.0
218 H14060 25.1226 56.8847 38.5818 H 0.0 **** 0.053
219 C13983 19.7323 47.2162 55.8967 C.3 0.0 **** -0.106
220 H14056 27.1246 59.7636 36.9246 H 0.0 **** 0.053
221 H14073 19.227 54.745 38.2163 H 0.0 **** 0.053
222 H14092 24.4179 50.931 48.1052 H 0.0 **** 0.1268
223 C13945 28.3111 54.6051 43.2284 C.3 0.0 **** -0.106
224 C13979 23.5512 48.4439 54.3638 C.3 0.0 **** -0.106
225 C13950 25.8414 52.6827 43.2179 C.2 0.0 **** -0.1268
226 H14147 6.61382 44.5201 61.5892 H 0.0 **** 0.1268
227 H14065 28.9062 57.6579 37.1343 H 0.0 **** 0.053
228 C13956 21.0142 51.1719 47.6558 C.2 0.0 **** 0.0
229 H14084 28.2399 55.3326 42.4001 H 0.0 **** 0.053
230 C13933 23.4208 52.8332 43.5752 C.2 0.0 **** 0.0
231 C14047 13.7804 44.9366 62.1133 C.3 0.0 **** -0.106
232 O13930 20.875 53.4724 42.5703 O.3 0.0 **** -0.464
233 H14087 28.7425 53.5276 45.6567 H 0.0 **** 0.053
234 H14074 20.2962 53.3246 38.2051 H 0.0 **** 0.053
235 H14097 22.0691 47.3707 52.1627 H 0.0 **** 0.053
236 C14043 13.6491 46.5194 59.6935 C.2 0.0 **** -0.1268
237 C13936 25.7362 53.1135 41.861 C.2 0.0 **** 0.0
238 C13928 20.2173 54.3764 38.5245 C.3 0.0 **** -0.106
239 C14022 27.3994 55.8942 45.9897 C.3 0.0 **** -0.159
240 C14012 14.8566 47.9258 57.9522 C.3 0.0 **** -0.053
241 C13999 14.8925 51.0373 48.6098 C.2 0.0 **** -0.1268
242 H14069 24.2936 56.2418 35.7254 H 0.0 **** 0.053
243 C14045 11.2367 44.896 62.0772 C.2 0.0 **** 0.052
244 H14146 8.70221 44.1854 62.8516 H 0.0 **** 0.1268
245 H14095 20.603 49.5009 54.7337 H 0.0 **** 0.053
246 C13967 19.798 52.6868 44.4676 C.2 0.0 **** -0.1268
247 C13939 28.5601 51.8247 39.1268 C.3 0.0 **** -0.106
248 C13963 19.9483 48.9371 52.1003 C.2 0.0 **** 0.042
249 C13925 21.9788 53.5959 41.7483 C.2 0.0 **** 0.232
250 H14090 31.4951 53.4375 44.2992 H 0.0 **** 0.053
@<TRIPOS>BOND
1 55 59 1
2 74 76 un
3 48 97 1
4 191 179 1
5 100 123 1
6 161 100 1
7 196 161 1
8 84 196 1
9 148 123 1
10 148 84 1
11 122 71 1
12 73 122 1
13 183 73 1
14 161 71 1
15 100 183 1
16 21 119 1
17 202 21 1
18 63 202 1
19 122 119 1
20 71 63 1
21 198 117 un
22 193 198 un
23 164 193 un
24 202 117 1
25 21 164 1
26 65 109 1
27 249 65 un
28 152 249 un
29 193 109 un
30 198 152 un
31 238 189 1
32 55 238 1
33 117 55 1
34 152 189 1
35 213 232 1
36 50 213 un
37 230 50 un
38 249 232 1
39 65 230 un
40 82 132 un
41 237 82 2
42 164 132 1
43 109 237 un
44 134 16 2
45 247 134 1
46 88 247 1
47 82 16 1
48 132 88 2
49 156 77 1
50 103 156 1
51 137 103 2
52 134 77 1
53 16 137 1
54 10 223 1
55 176 10 1
56 40 176 1
57 137 223 1
58 103 40 1
59 225 93 un
60 237 225 un
61 230 93 un
62 11 138 un
63 115 11 1
64 93 115 un
65 50 138 un
66 66 133 un
67 228 66 un
68 68 228 un
69 11 133 un
70 138 68 un
71 18 114 un
72 111 18 un
73 34 111 un
74 228 114 un
75 66 34 un
76 248 15 un
77 217 248 un
78 201 217 un
79 111 15 un
80 18 201 un
81 246 136 un
82 213 246 un
83 68 136 un
84 17 149 un
85 136 17 un
86 114 149 un
87 91 116 un
88 149 91 un
89 201 116 un
90 41 182 un
91 51 41 un
92 116 51 un
93 217 182 un
94 180 26 1
95 185 180 1
96 142 185 1
97 248 26 1
98 15 142 1
99 36 224 1
100 127 36 1
101 191 127 1
102 185 224 1
103 180 191 1
104 27 219 1
105 35 27 1
106 38 35 1
107 191 219 1
108 127 38 1
109 25 4 un
110 170 25 un
111 91 170 un
112 17 4 un
113 157 85 1
114 48 157 1
115 9 48 1
116 25 85 1
117 4 9 1
118 209 97 1
119 81 209 1
120 124 81 1
121 157 124 1
122 241 151 un
123 170 241 un
124 51 151 un
125 106 207 un
126 8 106 un
127 151 8 un
128 41 207 un
129 169 28 un
130 3 169 un
131 182 3 un
132 207 28 un
133 165 200 1
134 186 165 un
135 106 200 1
136 28 186 1
137 190 199 1
138 216 190 1
139 169 199 1
140 186 216 un
141 184 240 1
142 58 184 1
143 5 58 1
144 190 240 1
145 199 5 1
146 83 96 1
147 53 83 1
148 165 53 un
149 216 96 un
150 240 112 1
151 96 187 un
152 112 187 un
153 10 23 1
154 23 239 1
155 23 86 1
156 142 107 1
157 155 162 1
158 215 155 un
159 89 215 1
160 53 162 un
161 83 89 un
162 37 29 un
163 94 37 1
164 194 94 un
165 89 29 un
166 215 194 un
167 54 67 un
168 203 54 1
169 126 203 1
170 94 67 un
171 37 126 un
172 197 113 un
173 44 197 un
174 29 44 un
175 126 113 un
176 110 192 un
177 139 110 un
178 203 139 un
179 113 192 un
180 74 236 un
181 197 74 un
182 187 44 un
183 112 236 un
184 76 243 un
185 192 243 un
186 22 231 1
187 208 22 1
188 69 208 1
189 76 231 1
190 243 69 1
191 69 7 2
192 148 166 1
193 148 177 1
194 123 141 1
195 123 146 1
196 100 220 1
197 161 101 1
198 196 80 1
199 196 129 1
200 71 218 1
201 122 13 1
202 73 167 1
203 73 118 1
204 183 178 1
205 183 227 1
206 21 168 1
207 202 147 1
208 63 143 1
209 63 242 1
210 164 57 1
211 189 24 1
212 189 43 1
213 238 221 1
214 238 234 1
215 55 205 1
216 247 175 1
217 247 64 1
218 88 32 1
219 77 128 1
220 77 49 1
221 156 45 1
222 156 144 1
223 223 229 1
224 223 75 1
225 10 6 1
226 176 233 1
227 176 62 1
228 40 130 1
229 40 250 1
230 225 214 1
231 133 222 1
232 34 204 1
233 246 61 1
234 180 245 1
235 185 95 1
236 142 235 1
237 224 98 1
238 224 173 1
239 36 33 1
240 36 46 1
241 127 140 1
242 219 56 1
243 219 47 1
244 27 31 1
245 27 171 1
246 35 2 1
247 35 99 1
248 38 195 1
249 157 104 1
250 48 135 1
251 97 102 1
252 97 154 1
253 209 158 1
254 209 30 1
255 81 131 1
256 81 90 1
257 124 70 1
258 124 125 1
259 241 212 1
260 8 1 1
261 3 78 1
262 199 79 1
263 190 52 1
264 240 150 1
265 184 60 1
266 184 163 1
267 58 160 1
268 58 206 1
269 5 121 1
270 5 159 1
271 23 210 1
272 239 72 1
273 239 42 1
274 239 188 1
275 86 92 1
276 86 14 1
277 86 172 1
278 107 211 1
279 162 39 1
280 155 181 1
281 194 105 1
282 67 19 1
283 54 20 1
284 110 244 1
285 139 226 1
286 236 145 1
287 231 108 1
288 231 120 1
289 22 153 1
290 22 87 1
291 208 12 1
292 208 174 1
@<TRIPOS>MOLECULE
Sketch 4
250 292
SMALL
USER_CHARGES


@<TRIPOS>ATOM
1 C28985 71.6802 -6.39998 43.2418 C.3 0.0 **** 0.081
2 O28990 68.7116 6.38663 37.437 O.3 0.0 **** -0.202
3 C29036 70.3419 -8.13414 31.3913 C.2 0.0 **** 0.0
4 H29081 72.7298 12.1441 53.1229 H 0.0 **** 0.053
5 H29057 67.2389 18.0476 48.1981 H 0.0 **** 0.053
6 C28959 70.6498 2.65438 42.3082 C.2 0.0 **** 0.0
7 C28916 70.8016 15.3002 47.2655 C.3 0.0 **** 0.107
8 C28922 70.4734 13.8626 47.6988 C.3 0.0 **** -0.053
9 H29113 66.569 7.01043 39.3403 H 0.0 **** 0.053
10 H29123 70.8298 -2.25953 40.8766 H 0.0 **** 0.1268
11 C28961 71.1523 2.81616 44.6994 C.2 0.0 **** -0.1268
12 C28957 70.167 6.21131 43.4837 C.2 0.0 **** 0.0
13 C29018 69.444 -2.56642 33.9807 C.2 0.0 **** 0.0
14 C29022 67.5568 7.758 50.4668 C.3 0.0 **** -0.159
15 C28942 73.2137 10.1648 52.3747 C.3 0.0 **** -0.106
16 C28924 70.1656 10.6272 45.6813 C.2 0.0 **** 0.0
17 C29028 69.6932 -4.67184 32.7136 C.2 0.0 **** 0.0
18 C29050 71.3164 -12.4383 33.8327 C.2 0.0 **** 0.347
19 H29132 68.3175 -4.44428 39.1041 H 0.0 **** 0.053
20 C28983 72.0231 -4.17354 42.1042 C.3 0.0 **** -0.106
21 H29143 69.2598 -4.11963 29.3535 H 0.0 **** 0.1268
22 H29086 68.8989 9.81582 52.9347 H 0.0 **** 0.053
23 H29092 71.2183 4.41079 46.8079 H 0.0 **** 0.1268
24 H29070 69.4781 13.8665 48.1877 H 0.0 **** 0.053
25 C29021 67.5606 8.80007 51.5928 C.3 0.0 **** -0.053
26 C28921 70.2947 12.9212 46.529 C.2 0.0 **** 0.0
27 H29115 64.8643 7.75159 37.4034 H 0.0 **** 0.053
28 C28925 69.7199 11.1623 44.4347 C.2 0.0 **** 0.232
29 H29101 71.4693 -4.28834 46.7456 H 0.0 **** 0.053
30 C28963 71.323 -0.0663035 42.3516 C.2 0.0 **** 0.042
31 N28986 71.0383 -5.5439 44.251 N.3 0.0 **** -0.727
32 C29045 71.1561 -10.9527 33.7947 C.2 0.0 **** 0.052
33 C28992 68.0656 8.37098 38.5978 C.3 0.0 **** 0.107
34 H29095 70.287 -2.46239 43.2826 H 0.0 **** 0.053
35 C29015 69.2276 -4.5673 39.7125 C.3 0.0 **** -0.106
36 H29118 66.0184 8.40974 35.3025 H 0.0 **** 0.053
37 O28910 64.8493 15.8148 48.5818 O.3 0.0 **** -0.32
38 H29116 66.1421 6.5725 37.0601 H 0.0 **** 0.053
39 C28911 68.2606 16.1667 47.9895 C.3 0.0 **** -0.053
40 C28943 71.7988 9.72571 52.0877 C.2 0.0 **** 0.0
41 C28958 70.3338 4.04757 42.2909 C.2 0.0 **** 0.0
42 C28929 69.0021 15.3093 43.8028 C.3 0.0 **** -0.106
43 H29140 73.1171 1.19959 45.7005 H 0.0 **** 0.41
44 C28970 70.0249 2.48766 39.929 C.2 0.0 **** 0.0
45 C28954 70.9303 4.92792 45.8898 C.2 0.0 **** -0.1268
46 C29035 70.3816 -8.803 30.139 C.2 0.0 **** 0.0
47 C29019 70.3018 -6.84562 36.3289 C.2 0.0 **** 0.0
48 C28933 70.2884 9.24198 45.8445 C.2 0.0 **** 0.0
49 C29025 69.1574 -1.8851 32.7528 C.2 0.0 **** -0.1268
50 C28988 69.076 5.86703 38.6576 C.2 0.0 **** 0.042
51 C29033 69.8072 -6.73645 28.9809 C.2 0.0 **** -0.1268
52 H29073 68.9377 14.796 41.6863 H 0.0 **** 0.053
53 C28997 68.0497 8.25191 36.0625 C.3 0.0 **** -0.106
54 H29119 68.5568 9.1406 35.6579 H 0.0 **** 0.053
55 C28905 65.5585 14.802 49.3037 C.3 0.0 **** 0.054
56 C28991 68.7506 7.82791 37.3549 C.3 0.0 **** 0.107
57 H29138 67.2449 7.36996 53.2091 H 0.0 **** 0.053
58 H29145 70.1473 -8.60541 27.9907 H 0.0 **** 0.1268
59 H29149 72.1124 -10.1768 36.9313 H 0.0 **** 0.053
60 H29087 70.1459 7.53371 51.3397 H 0.0 **** 0.053
61 H29133 67.0491 9.7068 51.2213 H 0.0 **** 0.053
62 C28923 70.4488 11.5627 46.744 C.2 0.0 **** 0.0
63 C28920 69.8012 13.4369 45.2769 C.2 0.0 **** 0.0
64 H29093 71.3966 2.34902 45.6484 H 0.0 **** 0.1268
65 C28946 68.9852 9.2323 51.999 C.3 0.0 **** -0.053
66 C28913 69.3501 17.4712 49.8695 C.3 0.0 **** -0.106
67 C29031 69.7627 -6.02937 30.2223 C.2 0.0 **** 0.0
68 H29091 71.3431 9.20223 49.1079 H 0.0 **** 0.1268
69 H29129 70.0569 -6.11427 40.9836 H 0.0 **** 0.053
70 C29010 70.5841 -4.72095 37.5741 C.3 0.0 **** -0.053
71 C28939 73.2791 13.4375 50.3911 C.3 0.0 **** -0.106
72 C29013 70.2123 -6.80043 38.9261 C.3 0.0 **** -0.106
73 H29094 69.2269 8.79904 41.4483 H 0.0 **** 0.1268
74 C29048 72.4944 -12.117 36.0643 C.3 0.0 **** -0.106
75 H29135 67.9577 6.79847 50.8283 H 0.0 **** 0.053
76 C28917 69.9565 15.831 46.0936 C.3 0.0 **** -0.053
77 C28951 70.3026 6.97249 44.6984 C.2 0.0 **** 0.0
78 C28995 65.9543 7.62023 37.3378 C.3 0.0 **** -0.106
79 H29066 71.8618 15.311 46.9731 H 0.0 **** 0.053
80 C29005 70.5685 -1.74257 39.9667 C.2 0.0 **** -0.1268
81 C28966 69.7547 6.8567 42.2692 C.2 0.0 **** 0.0
82 H29109 70.8868 -6.98187 42.7496 H 0.0 **** 0.053
83 H29108 72.3288 -7.12313 43.7647 H 0.0 **** 0.053
84 H29107 72.4402 -6.10993 41.2043 H 0.0 **** 0.053
85 H29104 70.9503 -4.17972 41.8452 H 0.0 **** 0.053
86 H29125 71.6675 -4.88295 37.4055 H 0.0 **** 0.053
87 H29054 66.0891 15.3933 51.3486 H 0.0 **** 0.053
88 C28907 66.8468 16.8869 49.9745 C.3 0.0 **** -0.053
89 C28932 70.0813 8.37339 44.7102 C.2 0.0 **** 0.0
90 C29017 69.6841 -3.97624 33.9546 C.2 0.0 **** 0.0
91 C28968 69.8964 4.68036 41.0806 C.2 0.0 **** 0.0
92 C28973 70.0725 0.313378 38.7841 C.2 0.0 **** 0.0
93 H29089 71.9935 7.77747 52.9299 H 0.0 **** 0.053
94 C29026 69.1455 -2.56137 31.5646 C.2 0.0 **** -0.1268
95 H29053 66.1123 14.1625 48.5876 H 0.0 **** 0.053
96 C29007 69.5278 -1.90785 35.2221 C.2 0.0 **** 0.0265
97 C28931 69.6894 8.96141 43.4939 C.2 0.0 **** 0.232
98 O28975 71.7842 -1.36495 42.3717 O.3 0.0 **** -0.202
99 H29082 73.5288 9.80406 53.3663 H 0.0 **** 0.053
100 H29153 70.8609 -13.46 35.632 H 0.0 **** 0.053
101 H29141 68.9578 -0.814086 32.7839 H 0.0 **** 0.1268
102 H29075 67.8959 15.3414 43.8654 H 0.0 **** 0.053
103 C28998 69.4278 2.32744 37.5268 C.2 0.0 **** 0.0
104 C28952 70.6734 6.27508 45.9036 C.2 0.0 **** -0.012
105 C29000 69.8698 -0.464885 37.6101 C.2 0.0 **** 0.0
106 O29024 72.4696 0.492573 45.8453 O.3 0.0 **** -0.57
107 H29059 65.1527 17.4304 47.4103 H 0.0 **** 0.053
108 C28938 72.7433 12.1743 50.9812 C.2 0.0 **** 0.0
109 C29009 70.428 -4.00026 38.9331 C.3 0.0 **** -0.053
110 C29043 70.6321 -8.18144 36.2812 C.2 0.0 **** -0.1268
111 H29058 65.9862 15.9502 46.8439 H 0.0 **** 0.053
112 C29034 70.1077 -8.07226 28.9426 C.2 0.0 **** -0.1268
113 C28981 71.8911 -4.41663 44.6302 C.3 0.0 **** 0.134
114 C28978 72.2314 -0.131356 44.5825 C.3 0.0 **** 0.107
115 H29084 69.1012 11.1199 50.9353 H 0.0 **** 0.053
116 C29008 69.8651 -2.59791 36.399 C.2 0.0 **** 0.0
117 O29051 71.0421 -13.1819 32.8895 O.2 0.0 **** -0.419
118 H29102 72.8555 -4.85933 44.9326 H 0.0 **** 0.053
119 C28906 66.526 15.4226 50.3387 C.3 0.0 **** -0.106
120 H29103 73.2487 -3.11243 43.534 H 0.0 **** 0.053
121 C28987 69.1655 6.63742 39.8068 C.2 0.0 **** 0.042
122 C28944 71.0902 10.3799 51.1369 C.2 0.0 **** 0.0
123 C29049 71.7738 -13.0808 35.1364 C.3 0.0 **** -0.086
124 H29098 73.041 -2.36249 45.8929 H 0.0 **** 0.053
125 C29044 70.8065 -8.869 35.0515 C.2 0.0 **** 0.0
126 C29004 70.3523 -2.50002 38.8302 C.2 0.0 **** 0.0
127 C28999 69.1868 3.7012 37.5144 C.2 0.0 **** -0.1268
128 C28936 70.8672 11.0319 48.0444 C.2 0.0 **** 0.0
129 H29130 68.5027 -6.53953 40.2585 H 0.0 **** 0.053
130 H29146 71.1681 -11.9434 31.2361 H 0.0 **** 0.1268
131 C28982 72.1994 -3.44132 43.4449 C.3 0.0 **** -0.053
132 C29030 70.0368 -6.7415 31.4344 C.2 0.0 **** 0.0
133 H29061 69.4048 15.3375 49.666 H 0.0 **** 0.053
134 H29077 74.2877 13.2531 49.9596 H 0.0 **** 0.053
135 C29002 69.2585 1.53322 36.3495 C.2 0.0 **** -0.1268
136 H29079 72.5375 15.0911 49.105 H 0.0 **** 0.1268
137 C29047 71.5924 -10.9118 36.3009 C.3 0.0 **** -0.106
138 O28993 68.8292 7.97155 39.7526 O.3 0.0 **** -0.202
139 C29037 70.6006 -8.85711 32.5951 C.2 0.0 **** 0.0
140 C28908 67.0423 16.9929 48.4533 C.3 0.0 **** -0.053
141 C28926 69.5175 12.4959 44.2107 C.2 0.0 **** 0.0
142 H29142 68.9307 -2.03346 30.6338 H 0.0 **** 0.1268
143 C29027 69.4261 -3.96631 31.496 C.2 0.0 **** 0.0
144 H29088 69.4605 7.33072 52.9643 H 0.0 **** 0.053
145 H29065 68.2585 16.8111 51.6272 H 0.0 **** 0.053
146 H29105 72.5318 -3.62048 41.303 H 0.0 **** 0.053
147 O28915 70.7122 16.247 48.3437 O.3 0.0 **** -0.32
148 H29152 73.4338 -11.7779 35.5978 H 0.0 **** 0.053
149 C28969 69.6034 6.07688 41.0586 C.2 0.0 **** 0.0
150 H29100 70.222 -3.576 45.7175 H 0.0 **** 0.053
151 C28989 69.3347 4.47202 38.6769 C.2 0.0 **** 0.0
152 C29038 70.5499 -8.16913 33.8405 C.2 0.0 **** 0.0
153 H29139 65.7425 8.02291 52.5221 H 0.0 **** 0.053
154 C28956 70.4481 4.81725 43.4782 C.2 0.0 **** 0.0
155 C28937 71.7376 11.475 50.3789 C.2 0.0 **** 0.0
156 C29003 70.0312 -1.85844 37.6269 C.2 0.0 **** 0.0
157 H29127 71.3011 -6.79167 39.1037 H 0.0 **** 0.053
158 C28980 71.3149 -3.68054 45.8436 C.3 0.0 **** -0.106
159 C28984 72.5132 -5.6182 42.1875 C.3 0.0 **** -0.106
160 C29046 71.1772 -10.2488 35.0064 C.2 0.0 **** 0.0
161 C28979 71.9422 -2.2875 45.9613 C.3 0.0 **** -0.106
162 H29117 66.4014 9.58559 36.5632 H 0.0 **** 0.053
163 H29052 64.791 14.1821 49.787 H 0.0 **** 0.053
164 H29071 69.3427 12.3195 42.0778 H 0.0 **** 0.053
165 C28996 66.5462 8.53466 36.2594 C.3 0.0 **** -0.106
166 C28947 69.9289 8.05873 52.2843 C.3 0.0 **** -0.106
167 C29039 70.2545 -6.77656 33.8828 C.2 0.0 **** 0.0
168 H29150 70.6943 -11.2272 36.8649 H 0.0 **** 0.053
169 C29029 69.9979 -6.05829 32.6727 C.2 0.0 **** 0.0
170 H29062 69.343 18.3524 49.2078 H 0.0 **** 0.053
171 H29063 70.2493 17.5473 50.4975 H 0.0 **** 0.053
172 H29147 70.7508 -10.692 29.156 H 0.0 **** 0.1268
173 C28974 69.8517 1.71337 38.7515 C.2 0.0 **** 0.0
174 C28967 69.528 8.24745 42.3267 C.2 0.0 **** -0.1268
175 H29072 67.8916 12.9147 42.881 H 0.0 **** 0.053
176 C28914 68.079 17.4369 50.7374 C.3 0.0 **** -0.106
177 H29076 69.3242 16.3535 43.6509 H 0.0 **** 0.053
178 H29099 71.7183 -1.81784 46.9275 H 0.0 **** 0.053
179 C28949 70.6833 8.75723 47.1353 C.2 0.0 **** -0.012
180 H29154 72.3739 -13.9618 34.8677 H 0.0 **** 0.053
181 C28977 71.4072 -1.40334 44.8283 C.3 0.0 **** -0.053
182 O29006 69.3025 -0.550433 35.2359 O.3 0.0 **** -0.0685
183 H29085 69.4173 9.72145 49.9357 H 0.0 **** 0.053
184 H29090 71.0763 8.89812 53.9281 H 0.0 **** 0.053
185 H29110 70.1514 -5.18766 43.8924 H 0.0 **** 0.353
186 H29111 69.8087 8.13833 37.3609 H 0.0 **** 0.053
187 H29126 68.8386 -5.95825 37.5226 H 0.0 **** 0.053
188 H29069 69.0643 17.7087 46.7475 H 0.0 **** 0.053
189 C28971 69.7527 3.88041 39.9074 C.2 0.0 **** 0.0
190 C28919 69.5775 14.7918 45.0911 C.2 0.0 **** 0.0
191 H29106 73.5791 -5.62061 42.4666 H 0.0 **** 0.053
192 H29074 70.497 14.4853 42.482 H 0.0 **** 0.053
193 C28941 73.3043 11.6912 52.2894 C.3 0.0 **** -0.106
194 H29124 71.3177 -4.24399 39.5337 H 0.0 **** 0.053
195 H29122 68.9492 2.00663 35.4171 H 0.0 **** 0.1268
196 H29136 68.1637 8.06896 49.6029 H 0.0 **** 0.053
197 H29055 67.4549 14.8315 50.3732 H 0.0 **** 0.053
198 C28962 71.5278 0.678239 43.4978 C.2 0.0 **** 0.0
199 H29097 73.2038 -0.456891 44.1585 H 0.0 **** 0.053
200 H29096 70.3897 -1.07888 45.0987 H 0.0 **** 0.053
201 C28934 71.4311 13.3146 48.7302 C.2 0.0 **** 0.0
202 C28964 70.7572 0.463767 41.1535 C.2 0.0 **** 0.0
203 H29137 66.7398 9.03157 53.6052 H 0.0 **** 0.053
204 C28960 71.1145 2.04318 43.5286 C.2 0.0 **** 0.0
205 C29041 70.9417 -10.8835 31.2801 C.2 0.0 **** -0.1268
206 C29012 69.9337 -6.11714 37.5923 C.3 0.0 **** -0.053
207 C29014 69.4677 -6.04917 40.058 C.3 0.0 **** -0.106
208 H29080 74.3449 12.0353 52.4008 H 0.0 **** 0.053
209 H29131 69.0713 -3.97527 40.6269 H 0.0 **** 0.053
210 C28950 70.9765 9.61389 48.1678 C.2 0.0 **** -0.1268
211 H29128 69.8994 -7.85409 38.9089 H 0.0 **** 0.053
212 H29067 70.5898 16.5596 45.5522 H 0.0 **** 0.053
213 S28953 70.7475 7.04321 47.4817 S.2 0.0 **** 0.024
214 H29056 65.9631 17.4858 50.2387 H 0.0 **** 0.053
215 C28965 70.4867 1.86083 41.1339 C.2 0.0 **** 0.0
216 O28930 69.4331 10.3069 43.3881 O.3 0.0 **** -0.464
217 H29144 69.598 -6.18498 28.0625 H 0.0 **** 0.1268
218 C28940 72.3891 14.0404 49.3489 C.2 0.0 **** -0.1268
219 C29023 66.7757 8.27951 52.8013 C.3 0.0 **** -0.159
220 H29068 67.9279 16.648 45.9026 H 0.0 **** 0.053
221 C28909 65.7365 16.5589 47.738 C.3 0.0 **** 0.054
222 C28972 70.4827 -0.337002 39.9861 C.2 0.0 **** 0.0
223 C28918 68.7522 16.6589 46.631 C.3 0.0 **** -0.106
224 C28994 66.5969 7.9119 38.7112 C.3 0.0 **** -0.106
225 C29040 70.8889 -10.2536 32.5545 C.2 0.0 **** 0.0
226 C28955 70.8436 4.17287 44.6905 C.2 0.0 **** 0.0
227 H29120 68.1988 7.43903 35.3352 H 0.0 **** 0.053
228 H29060 67.9334 15.1205 47.8795 H 0.0 **** 0.053
229 C28912 69.4376 16.225 49.0049 C.3 0.0 **** 0.107
230 H29121 68.8733 4.18389 36.5901 H 0.0 **** 0.1268
231 C29020 70.1909 -6.10333 35.1203 C.2 0.0 **** 0.0
232 H29064 67.8714 18.4524 51.1067 H 0.0 **** 0.053
233 C29016 69.9615 -4.68449 35.1581 C.2 0.0 **** 0.0
234 H29151 72.7538 -12.6 37.0186 H 0.0 **** 0.053
235 C28948 71.2365 8.58128 52.879 C.3 0.0 **** -0.106
236 C29042 70.6983 -10.1798 30.119 C.2 0.0 **** -0.1268
237 C28976 71.3365 -2.18148 43.4906 C.3 0.0 **** 0.107
238 C28945 69.6119 10.1403 50.9348 C.3 0.0 **** -0.106
239 C29001 69.4792 0.184642 36.3983 C.2 0.0 **** 0.042
240 H29078 73.4722 14.1638 51.2047 H 0.0 **** 0.053
241 H29112 68.1366 9.46797 38.5953 H 0.0 **** 0.053
242 C28935 71.2753 11.9 49.059 C.2 0.0 **** 0.0
243 C28927 68.996 12.9834 42.8828 C.3 0.0 **** -0.106
244 C29032 69.4622 -4.65904 30.2815 C.2 0.0 **** -0.1268
245 H29114 66.0351 8.69408 39.2425 H 0.0 **** 0.053
246 H29083 73.9048 9.71814 51.634 H 0.0 **** 0.053
247 C29011 70.0842 -3.97767 36.3639 C.2 0.0 **** 0.0
248 H29148 70.7178 -8.73006 37.2153 H 0.0 **** 0.1268
249 C28928 69.4042 14.4323 42.6146 C.3 0.0 **** -0.106
250 H29134 66.5308 7.5771 50.1127 H 0.0 **** 0.053
@<TRIPOS>BOND
1 74 148 1
2 249 243 1
3 56 186 1
4 88 214 1
5 88 119 1
6 140 88 1
7 221 140 1
8 37 221 1
9 55 119 1
10 55 37 1
11 229 39 1
12 66 229 1
13 176 66 1
14 140 39 1
15 88 176 1
16 7 147 1
17 76 7 1
18 223 76 1
19 229 147 1
20 39 223 1
21 63 190 un
22 26 63 un
23 8 26 un
24 76 190 1
25 7 8 1
26 16 62 1
27 28 16 un
28 141 28 un
29 26 62 un
30 63 141 un
31 42 249 1
32 190 42 1
33 141 243 1
34 97 216 1
35 89 97 un
36 48 89 un
37 28 216 1
38 16 48 un
39 242 201 un
40 128 242 2
41 8 201 1
42 62 128 un
43 108 155 2
44 71 108 1
45 218 71 1
46 242 155 1
47 201 218 2
48 15 193 1
49 40 15 1
50 122 40 2
51 108 193 1
52 155 122 1
53 65 238 1
54 166 65 1
55 235 166 1
56 122 238 1
57 40 235 1
58 210 179 un
59 128 210 un
60 48 179 un
61 104 77 un
62 213 104 1
63 179 213 un
64 89 77 un
65 226 45 un
66 154 226 un
67 12 154 un
68 104 45 un
69 77 12 un
70 6 41 un
71 204 6 un
72 11 204 un
73 154 41 un
74 226 11 un
75 30 198 un
76 202 30 un
77 215 202 un
78 204 198 un
79 6 215 un
80 174 81 un
81 97 174 un
82 12 81 un
83 149 91 un
84 81 149 un
85 41 91 un
86 189 44 un
87 91 189 un
88 215 44 un
89 92 222 un
90 173 92 un
91 44 173 un
92 202 222 un
93 237 98 1
94 181 237 1
95 114 181 1
96 30 98 1
97 198 114 1
98 158 161 1
99 113 158 1
100 131 113 1
101 181 161 1
102 237 131 1
103 159 20 1
104 1 159 1
105 31 1 1
106 131 20 1
107 113 31 1
108 50 121 un
109 151 50 un
110 189 151 un
111 149 121 un
112 56 2 1
113 33 56 1
114 138 33 1
115 50 2 1
116 121 138 1
117 78 224 1
118 165 78 1
119 53 165 1
120 33 224 1
121 56 53 1
122 127 103 un
123 151 127 un
124 173 103 un
125 239 105 un
126 135 239 un
127 103 135 un
128 92 105 un
129 126 156 un
130 80 126 un
131 222 80 un
132 105 156 un
133 96 182 1
134 116 96 un
135 239 182 1
136 156 116 1
137 70 109 1
138 247 70 1
139 126 109 1
140 116 247 un
141 72 206 1
142 207 72 1
143 35 207 1
144 70 206 1
145 109 35 1
146 90 233 1
147 13 90 1
148 96 13 un
149 247 233 un
150 206 47 1
151 233 231 un
152 47 231 un
153 65 25 1
154 25 14 1
155 25 219 1
156 114 106 1
157 94 49 1
158 143 94 un
159 17 143 1
160 13 49 un
161 90 17 un
162 132 169 un
163 67 132 1
164 244 67 un
165 17 169 un
166 143 244 un
167 112 51 un
168 46 112 1
169 3 46 1
170 67 51 un
171 132 3 un
172 152 139 un
173 167 152 un
174 169 167 un
175 3 139 un
176 205 225 un
177 236 205 un
178 46 236 un
179 139 225 un
180 125 110 un
181 152 125 un
182 231 167 un
183 47 110 un
184 160 32 un
185 125 160 un
186 225 32 un
187 74 137 1
188 123 74 1
189 18 123 1
190 160 137 1
191 32 18 1
192 18 117 2
193 55 163 1
194 55 95 1
195 119 87 1
196 119 197 1
197 140 5 1
198 221 111 1
199 221 107 1
200 39 228 1
201 229 133 1
202 66 170 1
203 66 171 1
204 176 232 1
205 176 145 1
206 7 79 1
207 76 212 1
208 223 220 1
209 223 188 1
210 8 24 1
211 243 164 1
212 243 175 1
213 249 52 1
214 249 192 1
215 42 102 1
216 42 177 1
217 71 134 1
218 71 240 1
219 218 136 1
220 193 208 1
221 193 4 1
222 15 99 1
223 15 246 1
224 238 115 1
225 238 183 1
226 65 22 1
227 166 60 1
228 166 144 1
229 235 93 1
230 235 184 1
231 210 68 1
232 45 23 1
233 11 64 1
234 174 73 1
235 237 34 1
236 181 200 1
237 114 199 1
238 161 124 1
239 161 178 1
240 158 150 1
241 158 29 1
242 113 118 1
243 131 120 1
244 20 85 1
245 20 146 1
246 159 191 1
247 159 84 1
248 1 83 1
249 1 82 1
250 31 185 1
251 33 241 1
252 224 9 1
253 224 245 1
254 78 27 1
255 78 38 1
256 165 162 1
257 165 36 1
258 53 54 1
259 53 227 1
260 127 230 1
261 135 195 1
262 80 10 1
263 109 194 1
264 70 86 1
265 206 187 1
266 72 157 1
267 72 211 1
268 207 69 1
269 207 129 1
270 35 209 1
271 35 19 1
272 25 61 1
273 14 250 1
274 14 75 1
275 14 196 1
276 219 203 1
277 219 57 1
278 219 153 1
279 106 43 1
280 49 101 1
281 94 142 1
282 244 21 1
283 51 217 1
284 112 58 1
285 205 130 1
286 236 172 1
287 110 248 1
288 137 59 1
289 137 168 1
290 74 234 1
291 123 100 1
292 123 180 1
@<TRIPOS>MOLECULE
Sketch 4
250 292
SMALL
USER_CHARGES


@<TRIPOS>ATOM
1 C24447 54.0868 30.7041 53.5497 C.3 0.0 **** -0.106
2 H24582 52.9309 26.7312 53.3123 H 0.0 **** 0.053
3 C24498 42.3345 40.9471 56.3509 C.2 0.0 **** 0.0
4 H24592 49.0026 33.9329 56.4972 H 0.0 **** 0.1268
5 H24642 37.0802 46.5529 59.1339 H 0.0 **** 0.1268
6 C24407 53.3589 31.0329 43.9511 C.3 0.0 **** -0.053
7 H24568 49.3774 32.4293 43.8879 H 0.0 **** 0.053
8 H24622 40.8494 42.5401 56.1518 H 0.0 **** 0.1268
9 C24473 43.143 40.5334 58.6374 C.2 0.0 **** 0.0
10 C24545 38.9923 46.4681 68.6646 C.2 0.0 **** 0.052
11 H24561 51.7885 29.8022 46.2002 H 0.0 **** 0.053
12 C24482 46.0822 37.8358 63.58 C.3 0.0 **** -0.053
13 H24627 43.1254 42.0377 65.6964 H 0.0 **** 0.053
14 H24619 40.8773 40.0892 49.4363 H 0.0 **** 0.053
15 H24654 39.388 46.0777 72.0379 H 0.0 **** 0.053
16 C24522 53.8788 33.5894 52.7419 C.3 0.0 **** -0.159
17 H24572 47.074 35.4178 46.8598 H 0.0 **** 0.053
18 H24578 50.9178 26.3051 48.9022 H 0.0 **** 0.053
19 C24422 49.6405 30.558 47.6152 C.3 0.0 **** -0.053
20 C24421 48.8113 31.6559 48.2427 C.2 0.0 **** 0.0
21 C24409 52.1132 33.1799 43.5261 C.3 0.0 **** 0.054
22 H24610 47.6694 39.8151 64.5836 H 0.0 **** 0.353
23 C24483 45.0974 38.9445 63.9868 C.3 0.0 **** -0.106
24 C24423 48.9807 31.9247 49.5897 C.2 0.0 **** 0.0
25 H24611 41.6719 38.6032 51.0588 H 0.0 **** 0.053
26 C24457 46.6998 35.8225 53.943 C.2 0.0 **** 0.0
27 C24519 41.3542 44.2814 64.9686 C.2 0.0 **** 0.0
28 C24431 46.8196 35.1714 51.2314 C.2 0.0 **** 0.232
29 C24512 42.5719 43.6324 64.3699 C.3 0.0 **** -0.053
30 H24597 45.9681 35.5919 61.2611 H 0.0 **** 0.053
31 C24540 38.0634 47.0671 67.7282 C.2 0.0 **** 0.0
32 H24567 47.6359 30.6032 44.8091 H 0.0 **** 0.053
33 C24505 43.9726 40.2885 60.9009 C.2 0.0 **** -0.1268
34 C24435 50.4465 29.9508 49.9232 C.2 0.0 **** 0.0
35 H24621 41.7532 41.1812 54.2921 H 0.0 **** 0.1268
36 C24467 45.9707 36.171 51.6539 C.2 0.0 **** -0.1268
37 C24548 40.2223 44.678 70.5566 C.3 0.0 **** -0.106
38 C24474 43.1602 40.2046 57.2585 C.2 0.0 **** 0.0
39 H24574 45.2325 33.05 46.2143 H 0.0 **** 0.053
40 H24601 49.2862 36.9746 64.6464 H 0.0 **** 0.053
41 H24604 45.4669 39.9061 63.5906 H 0.0 **** 0.053
42 H24595 46.9374 39.0282 62.0025 H 0.0 **** 0.053
43 H24591 50.5969 30.866 52.4579 H 0.0 **** 0.1268
44 C24458 45.729 37.1172 55.8176 C.2 0.0 **** 0.0
45 O24493 44.2153 38.1604 51.2651 O.3 0.0 **** -0.202
46 H24651 40.9047 44.1556 71.2442 H 0.0 **** 0.053
47 C24500 42.3144 41.5918 59.1047 C.2 0.0 **** 0.0
48 C24492 43.6451 39.2057 50.4537 C.3 0.0 **** 0.107
49 H24631 45.4633 41.9124 62.5751 H 0.0 **** 0.053
50 H24638 56.3628 32.5315 53.4339 H 0.0 **** 0.053
51 H24602 47.0447 37.073 65.3537 H 0.0 **** 0.053
52 H24607 44.2225 39.8097 65.7812 H 0.0 **** 0.053
53 H24584 53.2445 30.921 50.2152 H 0.0 **** 0.053
54 H24570 50.5925 31.0636 47.3549 H 0.0 **** 0.053
55 C24526 37.7698 46.0936 59.8444 C.2 0.0 **** -0.1268
56 C24521 54.7615 32.6116 51.9552 C.3 0.0 **** -0.053
57 H24643 35.9435 47.7405 60.9771 H 0.0 **** 0.1268
58 H24579 49.6224 27.7836 47.3929 H 0.0 **** 0.1268
59 C24428 45.9429 33.8384 45.9172 C.3 0.0 **** -0.106
60 H24650 41.8262 45.3114 69.253 H 0.0 **** 0.053
61 H24556 54.0297 31.3518 43.1401 H 0.0 **** 0.053
62 C24523 56.2287 32.7709 52.367 C.3 0.0 **** -0.159
63 H24589 53.5145 28.8843 54.6078 H 0.0 **** 0.053
64 C24534 35.3519 48.7603 64.8657 C.2 0.0 **** -0.1268
65 C24499 42.381 40.6329 54.9927 C.2 0.0 **** -0.1268
66 C24440 49.9643 28.1561 48.3571 C.2 0.0 **** -0.1268
67 H24580 51.5568 25.7908 51.3619 H 0.0 **** 0.053
68 C24456 46.6175 36.1227 55.3307 C.2 0.0 **** 0.0
69 H24625 41.4019 41.9459 63.7774 H 0.0 **** 0.053
70 C24442 52.2543 27.3609 52.7137 C.3 0.0 **** -0.106
71 C24465 44.7971 38.4122 57.7145 C.2 0.0 **** 0.0
72 C24436 49.8683 31.1162 50.4302 C.2 0.0 **** 0.0
73 H24562 51.2753 28.9806 43.308 H 0.0 **** 0.053
74 H24653 40.8257 46.6527 71.1852 H 0.0 **** 0.053
75 C24433 48.4424 33.3742 51.5467 C.2 0.0 **** 0.0
76 H24552 54.4716 33.7043 45.7407 H 0.0 **** 0.053
77 C24438 51.237 27.7141 50.4683 C.2 0.0 **** 0.0
78 H24581 53.0365 26.6109 50.8328 H 0.0 **** 0.053
79 C24535 36.2422 48.1908 65.8266 C.2 0.0 **** 0.0
80 C24450 49.9888 31.4894 51.8028 C.2 0.0 **** -0.1268
81 C24491 42.2616 39.5326 50.9902 C.3 0.0 **** 0.107
82 C24503 42.3161 41.9721 60.4551 C.2 0.0 **** 0.0
83 H24618 42.0059 42.4927 49.2046 H 0.0 **** 0.053
84 H24586 55.0974 30.5062 51.676 H 0.0 **** 0.053
85 H24606 44.6294 38.0929 65.9109 H 0.0 **** 0.053
86 H24599 49.1681 35.7788 62.4659 H 0.0 **** 0.053
87 C24478 46.8358 35.9957 60.6995 C.3 0.0 **** 0.107
88 C24412 51.1696 29.7975 45.2821 C.3 0.0 **** 0.107
89 H24555 53.4718 31.1134 46.1269 H 0.0 **** 0.053
90 C24439 50.3824 27.1478 49.3819 C.3 0.0 **** -0.106
91 C24537 38.1789 46.7531 66.3416 C.2 0.0 **** 0.0
92 C24460 46.4464 36.6059 58.1377 C.2 0.0 **** 0.0
93 C24472 43.9592 39.8268 59.5704 C.2 0.0 **** 0.0
94 S24453 49.6799 32.9715 54.0027 S.2 0.0 **** 0.024
95 H24554 55.0026 31.4425 45.3016 H 0.0 **** 0.053
96 C24533 35.4754 48.4792 63.5308 C.2 0.0 **** -0.1268
97 H24605 44.1197 38.7714 63.5169 H 0.0 **** 0.053
98 C24528 38.5459 45.8468 62.1705 C.2 0.0 **** 0.0
99 H24647 35.3214 49.119 67.5476 H 0.0 **** 0.1268
100 H24588 54.9506 30.9744 54.1763 H 0.0 **** 0.053
101 C24507 40.5832 43.6393 59.9488 C.2 0.0 **** 0.0265
102 H24613 45.157 40.4649 51.3317 H 0.0 **** 0.053
103 C24547 40.8471 44.8023 69.1724 C.3 0.0 **** -0.106
104 O24475 45.2988 37.9538 61.3421 O.3 0.0 **** -0.202
105 C24406 53.9181 31.6267 45.2605 C.3 0.0 **** -0.106
106 H24575 47.7628 34.0045 44.7655 H 0.0 **** 0.053
107 H24634 54.1529 34.6292 52.5084 H 0.0 **** 0.053
108 H24646 36.9006 48.1671 69.1807 H 0.0 **** 0.1268
109 O24410 53.3435 33.6915 44.0529 O.3 0.0 **** -0.32
110 H24566 48.197 29.3406 46.6221 H 0.0 **** 0.053
111 C24479 48.2637 36.2872 62.8232 C.3 0.0 **** -0.106
112 C24463 45.4632 37.8403 59.9784 C.2 0.0 **** 0.042
113 H24628 43.7856 43.6067 66.1803 H 0.0 **** 0.053
114 H24612 43.5446 38.7488 49.459 H 0.0 **** 0.053
115 H24626 43.1029 44.4508 63.8431 H 0.0 **** 0.053
116 C24509 43.3079 41.7699 62.7847 C.3 0.0 **** -0.053
117 C24511 41.3464 43.3745 62.2389 C.2 0.0 **** 0.0
118 C24502 41.4858 41.9874 56.8437 C.2 0.0 **** -0.1268
119 C24531 36.499 47.6013 63.0572 C.2 0.0 **** 0.0
120 C24489 43.2302 39.6253 54.5121 C.2 0.0 **** 0.0
121 H24639 56.5733 33.8048 52.2133 H 0.0 **** 0.053
122 C24481 47.2944 37.809 64.5704 C.3 0.0 **** 0.134
123 H24603 45.5658 36.8628 63.6416 H 0.0 **** 0.053
124 O24430 46.798 34.9284 49.8794 O.3 0.0 **** -0.464
125 H24652 39.3009 44.0773 70.4834 H 0.0 **** 0.053
126 H24598 47.6106 35.5075 63.2514 H 0.0 **** 0.053
127 C24470 44.0079 39.1685 56.7855 C.2 0.0 **** 0.0
128 C24532 36.6381 47.2964 61.6936 C.2 0.0 **** -0.1268
129 H24616 43.5076 42.151 51.2315 H 0.0 **** 0.053
130 C24468 44.9217 37.8554 54.8904 C.2 0.0 **** 0.0
131 C24461 47.3627 35.6776 57.6194 C.2 0.0 **** -0.1268
132 C24538 39.2104 45.8848 65.8842 C.2 0.0 **** 0.0
133 N24486 47.5043 39.0774 65.2696 N.3 0.0 **** -0.727
134 H24560 51.1102 31.9493 45.6224 H 0.0 **** 0.053
135 C24408 51.9746 31.6426 43.6762 C.3 0.0 **** -0.053
136 C24448 53.8416 29.1961 53.599 C.3 0.0 **** -0.106
137 C24514 44.8839 42.6703 64.5428 C.3 0.0 **** -0.106
138 C24443 52.8108 28.7589 52.5998 C.2 0.0 **** 0.0
139 C24544 40.1207 45.3096 66.813 C.2 0.0 **** 0.0
140 O24524 47.7277 34.9202 60.4016 O.3 0.0 **** -0.57
141 H24596 48.3245 37.4866 61.042 H 0.0 **** 0.053
142 C24496 42.5109 41.5393 49.4185 C.3 0.0 **** -0.106
143 H24615 44.4282 42.5173 49.7621 H 0.0 **** 0.053
144 H24608 46.4789 38.9237 67.0919 H 0.0 **** 0.053
145 H24636 52.8083 33.4628 52.5197 H 0.0 **** 0.053
146 C24444 52.3673 29.5611 51.6029 C.2 0.0 **** 0.0
147 H24644 34.7918 48.919 62.8023 H 0.0 **** 0.1268
148 C24477 47.5605 36.9672 61.6422 C.3 0.0 **** -0.053
149 C24487 44.1495 38.3648 52.6252 C.2 0.0 **** 0.042
150 C24549 39.8924 46.0729 71.0612 C.3 0.0 **** -0.086
151 C24476 46.5231 38.0103 62.1277 C.3 0.0 **** 0.107
152 C24527 37.6356 46.4315 61.2319 C.2 0.0 **** 0.0
153 H24569 49.4056 30.7233 43.4199 H 0.0 **** 0.053
154 H24583 51.282 27.3839 53.2426 H 0.0 **** 0.053
155 C24469 44.9874 37.5778 53.4921 C.2 0.0 **** 0.0
156 H24573 45.4018 34.55 45.275 H 0.0 **** 0.053
157 H24577 49.481 26.6684 49.8235 H 0.0 **** 0.053
158 C24542 36.1274 48.465 67.2078 C.2 0.0 **** -0.1268
159 C24464 44.7418 38.7084 59.1054 C.2 0.0 **** 0.0
160 C24459 45.6467 37.3783 57.2198 C.2 0.0 **** 0.0
161 H24559 52.1106 33.4793 42.4686 H 0.0 **** 0.053
162 H24553 52.7485 33.3274 46.0121 H 0.0 **** 0.053
163 H24565 53.9738 29.1097 44.7593 H 0.0 **** 0.053
164 C24413 51.8725 28.9521 44.2337 C.3 0.0 **** -0.106
165 H24571 45.6426 34.9451 47.7723 H 0.0 **** 0.053
166 H24637 56.8795 32.0995 51.7848 H 0.0 **** 0.053
167 C24484 44.9779 39.0565 65.5058 C.3 0.0 **** -0.106
168 H24600 49.0691 38.2094 63.4021 H 0.0 **** 0.053
169 H24593 48.0479 35.1638 58.2862 H 0.0 **** 0.1268
170 H24594 45.3708 36.6603 50.9008 H 0.0 **** 0.1268
171 C24466 45.8745 36.539 53.0119 C.2 0.0 **** 0.0
172 C24529 38.4207 46.1447 63.5533 C.2 0.0 **** 0.0
173 H24630 45.6051 43.4859 64.7054 H 0.0 **** 0.053
174 C24424 48.2977 33.0444 50.1937 C.2 0.0 **** 0.0
175 C24416 49.021 30.0047 46.3222 C.3 0.0 **** 0.107
176 H24624 43.3374 40.8616 63.4057 H 0.0 **** 0.053
177 C24488 43.2795 39.3205 53.1272 C.2 0.0 **** 0.042
178 C24543 41.2066 44.5447 66.312 C.2 0.0 **** -0.1268
179 C24501 41.4793 42.2888 58.1775 C.2 0.0 **** 0.042
180 C24426 47.3206 33.6261 48.0069 C.2 0.0 **** 0.0
181 C24454 48.3642 34.4456 55.7741 C.2 0.0 **** -0.1268
182 C24452 48.4428 34.1397 54.4395 C.2 0.0 **** -0.012
183 H24564 53.6609 29.076 43.0227 H 0.0 **** 0.053
184 C24420 48.006 32.5023 47.3987 C.2 0.0 **** 0.0
185 H24590 54.7889 28.6515 53.4181 H 0.0 **** 0.053
186 C24525 38.7198 45.2117 59.4099 C.2 0.0 **** -0.1268
187 O24415 49.9197 29.1586 45.5849 O.3 0.0 **** -0.32
188 O24551 38.419 47.8514 70.5512 O.2 0.0 **** -0.419
189 C24495 43.7854 41.7637 50.2401 C.3 0.0 **** -0.106
190 H24558 51.2625 33.6819 44.0327 H 0.0 **** 0.053
191 C24425 47.4699 33.844 49.3485 C.2 0.0 **** 0.232
192 C24485 46.3567 39.4298 66.1193 C.3 0.0 **** 0.081
193 C24411 50.9666 31.2553 44.7788 C.3 0.0 **** -0.053
194 H24645 34.5634 49.426 65.2222 H 0.0 **** 0.1268
195 H24585 52.3123 31.718 51.4603 H 0.0 **** 0.053
196 O24506 40.644 43.3053 58.6153 O.3 0.0 **** -0.0685
197 C24546 39.9555 45.5566 68.2113 C.2 0.0 **** 0.0
198 H24641 38.7966 44.9543 58.3536 H 0.0 **** 0.1268
199 C24513 43.572 42.9697 65.3102 C.3 0.0 **** -0.106
200 C24550 39.0173 46.8719 70.1035 C.2 0.0 **** 0.347
201 H24632 44.6273 43.463 62.5145 H 0.0 **** 0.053
202 H24635 54.0143 33.445 53.8249 H 0.0 **** 0.053
203 C24510 42.1256 42.629 63.2897 C.3 0.0 **** -0.053
204 C24419 47.8992 32.2728 46.0362 C.2 0.0 **** 0.0
205 C24455 47.45 35.4198 56.2548 C.2 0.0 **** 0.0
206 C24405 53.6148 33.141 45.3463 C.3 0.0 **** 0.054
207 C24539 39.3313 45.5768 64.4991 C.2 0.0 **** 0.0
208 H24576 46.7486 32.6487 44.2721 H 0.0 **** 0.053
209 C24445 53.0185 30.8899 51.296 C.3 0.0 **** -0.106
210 H24640 47.2146 34.2392 59.9399 H 0.0 **** 0.41
211 H24649 41.0502 43.8018 68.7654 H 0.0 **** 0.053
212 C24427 46.4688 34.5442 47.1676 C.3 0.0 **** -0.106
213 C24536 37.2745 47.3176 65.3918 C.2 0.0 **** 0.0
214 C24471 44.0629 38.8761 55.3978 C.2 0.0 **** 0.0
215 C24541 37.0034 47.9276 68.1277 C.2 0.0 **** -0.1268
216 C24446 54.2998 31.1461 52.0977 C.3 0.0 **** -0.053
217 H24633 54.6809 32.8655 50.8824 H 0.0 **** 0.053
218 C24494 44.5668 40.4421 50.4041 C.3 0.0 **** -0.106
219 C24480 48.5834 37.3431 63.8866 C.3 0.0 **** -0.106
220 C24517 39.5506 44.9461 61.7194 C.2 0.0 **** 0.0
221 C24441 52.0506 26.7745 51.3137 C.3 0.0 **** -0.106
222 C24516 40.4438 44.362 62.6617 C.2 0.0 **** 0.0
223 C24530 37.4015 47.0165 64.0034 C.2 0.0 **** 0.0
224 H24614 45.2752 40.3063 49.5738 H 0.0 **** 0.053
225 H24563 51.9024 27.9043 44.5654 H 0.0 **** 0.053
226 H24587 53.2071 31.2268 53.9596 H 0.0 **** 0.053
227 C24417 48.4739 31.0731 45.3587 C.3 0.0 **** -0.053
228 C24432 47.6544 34.4484 52.1027 C.2 0.0 **** 0.0
229 C24520 40.364 44.728 64.0499 C.2 0.0 **** 0.0
230 C24497 41.5407 40.593 50.1552 C.3 0.0 **** -0.106
231 H24617 42.7868 41.1041 48.4427 H 0.0 **** 0.053
232 H24648 41.9705 44.1904 66.9988 H 0.0 **** 0.1268
233 C24414 53.294 29.4843 43.9764 C.3 0.0 **** -0.106
234 H24629 45.3395 41.756 64.9487 H 0.0 **** 0.053
235 H24623 44.6186 39.8005 61.6135 H 0.0 **** 0.1268
236 C24437 51.3206 29.0594 50.6834 C.2 0.0 **** 0.0
237 C24451 47.5999 34.8004 53.4755 C.2 0.0 **** 0.0
238 C24418 49.5357 31.4103 44.271 C.3 0.0 **** -0.106
239 H24620 40.8955 41.1596 50.844 H 0.0 **** 0.053
240 C24508 41.4204 43.0164 60.8901 C.2 0.0 **** 0.0
241 H24557 51.5967 31.2376 42.7226 H 0.0 **** 0.053
242 C24518 39.6269 44.5978 60.3342 C.2 0.0 **** 0.0
243 C24515 44.6457 42.4905 63.0315 C.3 0.0 **** -0.106
244 C24449 49.3323 32.5718 52.335 C.2 0.0 **** -0.012
245 C24434 50.0097 29.4832 48.6102 C.2 0.0 **** 0.0
246 O24490 42.4298 40.0498 52.328 O.3 0.0 **** -0.202
247 C24429 47.1081 33.2003 45.1572 C.3 0.0 **** -0.106
248 H24609 46.41 40.5112 66.3143 H 0.0 **** 0.053
249 C24504 43.1816 41.3299 61.3503 C.2 0.0 **** 0.0
250 C24462 46.2692 36.8072 59.5387 C.2 0.0 **** 0.0
@<TRIPOS>BOND
1 19 20 un
2 29 27 1
3 101 196 1
4 87 140 1
5 209 195 1
6 66 58 1
7 65 35 1
8 6 105 1
9 135 6 1
10 21 135 1
11 109 21 1
12 206 105 1
13 206 109 1
14 88 193 1
15 164 88 1
16 233 164 1
17 135 193 1
18 6 233 1
19 175 187 1
20 227 175 1
21 238 227 1
22 88 187 1
23 193 238 1
24 184 204 un
25 20 184 un
26 227 204 1
27 175 19 1
28 174 24 1
29 191 174 un
30 180 191 un
31 20 24 un
32 184 180 un
33 59 212 1
34 247 59 1
35 204 247 1
36 180 212 1
37 28 124 1
38 228 28 un
39 75 228 un
40 191 124 1
41 174 75 un
42 34 245 un
43 72 34 2
44 19 245 1
45 24 72 un
46 77 236 2
47 90 77 1
48 66 90 1
49 34 236 1
50 245 66 2
51 70 221 1
52 138 70 1
53 146 138 2
54 77 221 1
55 236 146 1
56 216 209 1
57 1 216 1
58 136 1 1
59 146 209 1
60 138 136 1
61 80 244 un
62 72 80 un
63 75 244 un
64 182 237 un
65 94 182 1
66 244 94 un
67 228 237 un
68 205 181 un
69 68 205 un
70 26 68 un
71 182 181 un
72 237 26 un
73 160 44 un
74 92 160 un
75 131 92 un
76 68 44 un
77 205 131 un
78 112 250 un
79 159 112 un
80 71 159 un
81 92 250 un
82 160 71 un
83 36 171 un
84 28 36 un
85 26 171 un
86 155 130 un
87 171 155 un
88 44 130 un
89 214 127 un
90 130 214 un
91 71 127 un
92 9 93 un
93 38 9 un
94 127 38 un
95 159 93 un
96 151 104 1
97 148 151 1
98 87 148 1
99 112 104 1
100 250 87 1
101 219 111 1
102 122 219 1
103 12 122 1
104 148 111 1
105 151 12 1
106 167 23 1
107 192 167 1
108 133 192 1
109 12 23 1
110 122 133 1
111 177 149 un
112 120 177 un
113 214 120 un
114 155 149 un
115 81 246 1
116 48 81 1
117 45 48 1
118 177 246 1
119 149 45 1
120 189 218 1
121 142 189 1
122 230 142 1
123 48 218 1
124 81 230 1
125 65 3 un
126 120 65 un
127 38 3 un
128 179 47 un
129 118 179 un
130 3 118 un
131 9 47 un
132 249 82 un
133 33 249 un
134 93 33 un
135 47 82 un
136 240 101 un
137 179 196 1
138 82 240 1
139 203 116 1
140 117 203 1
141 249 116 1
142 240 117 un
143 199 29 1
144 137 199 1
145 243 137 1
146 203 29 1
147 116 243 1
148 220 222 1
149 242 220 1
150 101 242 un
151 117 222 un
152 222 229 un
153 27 229 un
154 216 56 1
155 56 16 1
156 56 62 1
157 55 186 1
158 152 55 un
159 98 152 1
160 242 186 un
161 220 98 un
162 223 172 un
163 119 223 1
164 128 119 un
165 98 172 un
166 152 128 un
167 64 96 un
168 79 64 1
169 213 79 1
170 119 96 un
171 223 213 un
172 132 91 un
173 207 132 un
174 172 207 un
175 213 91 un
176 215 31 un
177 158 215 un
178 79 158 un
179 91 31 un
180 139 178 un
181 132 139 un
182 229 207 un
183 27 178 un
184 197 10 un
185 139 197 un
186 31 10 un
187 37 103 1
188 150 37 1
189 200 150 1
190 197 103 1
191 10 200 1
192 200 188 2
193 206 76 1
194 206 162 1
195 105 95 1
196 105 89 1
197 6 61 1
198 135 241 1
199 21 190 1
200 21 161 1
201 193 134 1
202 88 11 1
203 164 73 1
204 164 225 1
205 233 183 1
206 233 163 1
207 175 110 1
208 227 32 1
209 238 7 1
210 238 153 1
211 19 54 1
212 212 165 1
213 212 17 1
214 59 156 1
215 59 39 1
216 247 106 1
217 247 208 1
218 90 157 1
219 90 18 1
220 221 67 1
221 221 78 1
222 70 2 1
223 70 154 1
224 209 53 1
225 216 84 1
226 1 226 1
227 1 100 1
228 136 63 1
229 136 185 1
230 80 43 1
231 181 4 1
232 131 169 1
233 36 170 1
234 151 42 1
235 148 141 1
236 87 30 1
237 111 126 1
238 111 86 1
239 219 168 1
240 219 40 1
241 122 51 1
242 12 123 1
243 23 41 1
244 23 97 1
245 167 85 1
246 167 52 1
247 192 144 1
248 192 248 1
249 133 22 1
250 81 25 1
251 48 114 1
252 218 102 1
253 218 224 1
254 189 143 1
255 189 129 1
256 142 231 1
257 142 83 1
258 230 14 1
259 230 239 1
260 118 8 1
261 33 235 1
262 116 176 1
263 203 69 1
264 29 115 1
265 199 13 1
266 199 113 1
267 137 234 1
268 137 173 1
269 243 49 1
270 243 201 1
271 56 217 1
272 16 107 1
273 16 202 1
274 16 145 1
275 62 166 1
276 62 50 1
277 62 121 1
278 140 210 1
279 186 198 1
280 55 5 1
281 128 57 1
282 96 147 1
283 64 194 1
284 215 108 1
285 158 99 1
286 178 232 1
287 103 211 1
288 103 60 1
289 37 46 1
290 37 125 1
291 150 74 1
292 150 15 1
@<TRIPOS>MOLECULE
Sketch 4
130 142
SMALL
USER_CHARGES


@<TRIPOS>ATOM
1 C3947 41.4476 37.3912 20.6708 C.3 0.0 **** -0.106
2 H4007 24.3055 27.1112 16.4615 H 0.0 **** 0.053
3 C3958 23.9586 28.0686 16.0535 C.3 0.0 **** -0.159
4 C3948 41.8189 35.9314 20.7527 C.ar 0.0 **** 0.0
5 H4015 30.8777 23.5633 16.36 H 0.0 **** 0.053
6 O3964 37.4443 30.2723 17.5087 O.3 0.0 **** -0.452
7 C3940 39.3826 35.4215 20.5412 C.ar 0.0 **** 0.2405
8 H3977 35.9014 29.0038 13.7171 H 0.0 **** 0.053
9 C3910 26.777 27.4377 16.3943 C.3 0.0 **** -0.106
10 H4011 27.4363 24.6473 14.8662 H 0.0 **** 0.053
11 H4028 45.4828 33.9645 20.0768 H 0.0 **** 0.053
12 H3996 25.5067 33.4965 17.5436 H 0.0 **** 0.053
13 H4030 45.4042 34.0493 21.8431 H 0.0 **** 0.053
14 C3909 28.2621 27.184 16.3949 C.ar 0.0 **** 0.0
15 C3956 23.0804 30.8477 16.0417 C.3 0.0 **** -0.159
16 C3949 40.7808 34.9783 20.6939 C.ar 0.0 **** 0.0
17 C3937 36.7771 36.2141 20.1545 C.ar 0.0 **** 0.0
18 H3981 33.3899 35.5651 19.9084 H 0.0 **** 0.053
19 H4000 24.7521 34.7864 15.5127 H 0.0 **** 0.053
20 H4008 23.7675 27.9127 14.9769 H 0.0 **** 0.053
21 H3987 38.2656 39.0487 22.7866 H 0.0 **** 0.053
22 H4027 44.2703 37.1224 21.7802 H 0.0 **** 0.053
23 C3914 30.5604 27.9485 16.5976 C.ar 0.0 **** 0.0
24 H4018 36.2554 24.7875 13.1973 H 0.0 **** 0.053
25 H4014 29.7388 23.7098 14.9992 H 0.0 **** 0.053
26 C3944 38.298 39.3797 21.7351 C.3 0.0 **** -0.106
27 C3923 36.911 28.4262 15.4965 C.3 0.0 **** -0.106
28 O3966 32.6705 33.4364 19.2232 O.2 0.0 **** -0.419
29 C3908 29.1557 28.2104 16.6048 C.ar 0.0 **** 0.0
30 H4012 26.7863 24.9568 16.4822 H 0.0 **** 0.053
31 H3980 34.4604 25.6357 14.8101 H 0.0 **** 0.053
32 C3906 25.4472 31.5492 16.6265 C.ar 0.0 **** 0.0
33 H3983 35.0152 37.4429 20.4135 H 0.0 **** 0.053
34 H4016 33.8579 25.1958 16.6714 H 0.0 **** 0.41
35 C3969 44.8913 33.6514 20.9529 C.3 0.0 **** -0.159
36 H4029 44.919 32.5545 21.0035 H 0.0 **** 0.053
37 C3960 30.544 24.2192 15.5406 C.3 0.0 **** -0.159
38 H3989 40.441 39.7942 21.7168 H 0.0 **** 0.053
39 C3936 35.3408 36.5546 19.8583 C.3 0.0 **** -0.106
40 C3913 31.0379 26.6203 16.3159 C.ar 0.0 **** 0.0
41 H4024 32.1156 32.2787 18.6284 H 0.0 **** 0.41
42 H3976 37.5305 27.5893 15.8689 H 0.0 **** 0.053
43 H4006 27.429 33.3131 17.1237 H 0.0 **** 0.053
44 H3975 37.5012 29.3334 15.6277 H 0.0 **** 0.053
45 H3970 29.2732 30.2871 16.1752 H 0.0 **** 0.053
46 C3954 24.9625 32.9793 16.7396 C.3 0.0 **** -0.106
47 H3997 23.9068 32.9973 17.0432 H 0.0 **** 0.053
48 C3928 34.3498 31.9846 18.3802 C.ar 0.0 **** 0.052
49 O3961 32.9296 25.1595 16.3911 O.3 0.0 **** -0.452
50 N3939 38.4935 34.512 20.1281 N.ar 0.0 **** -0.481
51 H3993 42.2187 38.0225 21.1338 H 0.0 **** 0.053
52 C3959 27.7122 24.7538 15.9302 C.3 0.0 **** -0.159
53 H4025 44.1165 37.2991 20.0272 H 0.0 **** 0.053
54 C3951 42.4207 33.2112 20.8146 C.ar 0.0 **** -0.1268
55 H4003 22.4765 30.8692 16.9658 H 0.0 **** 0.053
56 C3942 37.6998 37.158 20.6347 C.ar 0.0 **** 0.0
57 C3930 36.1479 30.5488 17.5747 C.ar 0.0 **** 0.042
58 C3934 33.9156 33.1865 19.037 C.2 0.0 **** 0.367
59 C3916 32.8401 28.819 16.8523 C.ar 0.0 **** 0.0
60 O3965 32.1045 31.3441 18.1209 O.3 0.0 **** -0.452
61 C3911 28.7319 25.8518 16.1358 C.ar 0.0 **** 0.0
62 H3992 41.3916 37.6969 19.6078 H 0.0 **** 0.053
63 O3967 37.9669 32.4028 18.5325 O.2 0.0 **** -0.419
64 C3902 24.9596 29.1783 16.2849 C.ar 0.0 **** 0.0
65 C3925 35.9021 26.8524 13.7797 C.ar 0.0 **** -0.053
66 H3982 34.4392 35.1988 21.2832 H 0.0 **** 0.053
67 C3929 35.7323 31.7316 18.2214 C.ar 0.0 **** 0.052
68 H3999 26.1903 33.7984 15.133 H 0.0 **** 0.053
69 C3927 33.3873 31.0556 17.9177 C.ar 0.0 **** 0.042
70 C3935 34.4328 35.3739 20.1909 C.3 0.0 **** -0.106
71 H3994 40.2825 32.8885 20.6473 H 0.0 **** 0.1268
72 C3963 37.8767 28.4104 13.1552 C.3 0.0 **** -0.159
73 C3941 39.032 36.7603 20.8175 C.ar 0.0 **** 0.0
74 C3926 35.2362 26.3541 15.0916 C.3 0.0 **** -0.106
75 C3933 34.9196 34.1288 19.5083 C.ar 0.0 **** 0.0
76 H3995 42.664 32.1467 20.8384 H 0.0 **** 0.1268
77 H3985 37.0924 39.0924 19.9565 H 0.0 **** 0.053
78 C3950 41.094 33.6125 20.7206 C.ar 0.0 **** -0.1268
79 C3931 36.7342 32.6602 18.7082 C.2 0.0 **** 0.367
80 H3971 29.0297 29.9349 17.86 H 0.0 **** 0.053
81 H4020 38.276 29.425 13.3016 H 0.0 **** 0.053
82 H4004 28.6023 32.323 16.2425 H 0.0 **** 0.053
83 C3943 37.2742 38.5824 20.9197 C.3 0.0 **** -0.106
84 C3915 31.457 28.9786 16.9201 C.ar 0.0 **** -0.1268
85 H3979 36.012 25.7976 15.6526 H 0.0 **** 0.053
86 C3907 28.7057 29.621 16.8485 C.3 0.0 **** -0.106
87 H3973 26.3407 26.9617 15.4998 H 0.0 **** 0.053
88 C3946 40.1036 37.6904 21.3374 C.3 0.0 **** -0.053
89 C3938 37.2264 34.8925 19.9122 C.ar 0.0 **** 0.2405
90 H3986 36.3057 38.5838 21.4435 H 0.0 **** 0.053
91 C3905 26.8105 31.243 16.7875 C.ar 0.0 **** 0.0
92 C3903 26.3247 28.8758 16.4589 C.ar 0.0 **** 0.0
93 H4019 37.6594 25.5744 13.9531 H 0.0 **** 0.053
94 H4023 37.9037 31.1376 17.9371 H 0.0 **** 0.41
95 H3988 38.0289 40.4468 21.7249 H 0.0 **** 0.053
96 H4022 38.6632 27.6946 13.4374 H 0.0 **** 0.053
97 C3919 34.7088 27.4601 15.9761 C.2 0.0 **** 0.0
98 H4002 22.976 31.8298 15.5624 H 0.0 **** 0.053
99 H4005 28.4088 32.1003 17.9784 H 0.0 **** 0.053
100 C3924 36.6149 28.212 13.9985 C.ar 0.0 **** -0.053
101 H4010 28.0904 23.7816 16.2707 H 0.0 **** 0.053
102 H3972 26.324 26.8852 17.2409 H 0.0 **** 0.053
103 C3945 39.7091 39.1597 21.1923 C.3 0.0 **** -0.106
104 C3962 36.8138 25.7339 13.2651 C.3 0.0 **** -0.159
105 H4021 37.6681 28.2771 12.0828 H 0.0 **** 0.053
106 C3901 24.5304 30.5177 16.3265 C.ar 0.0 **** 0.0
107 C3922 33.7903 29.8394 17.253 C.ar 0.0 **** 0.0
108 C3932 36.2743 33.8945 19.3787 C.ar 0.0 **** 0.0
109 C3921 35.1806 29.6245 17.0217 C.ar 0.0 **** 0.0
110 C3953 43.1634 35.5213 20.8201 C.ar 0.0 **** 0.0
111 C3912 30.0916 25.574 16.0382 C.ar 0.0 **** 0.0
112 C3918 32.4436 26.4474 16.3531 C.ar 0.0 **** 0.042
113 C3920 35.5963 28.4951 16.2384 C.2 0.0 **** 0.0
114 H4026 45.2523 36.1123 20.7016 H 0.0 **** 0.053
115 H4001 22.6243 30.1078 15.3719 H 0.0 **** 0.053
116 H3998 24.5855 33.2548 14.6092 H 0.0 **** 0.053
117 C3955 25.1301 33.756 15.424 C.3 0.0 **** -0.159
118 H3978 35.0995 27.004 13.0408 H 0.0 **** 0.053
119 H4013 31.3949 24.3213 14.8568 H 0.0 **** 0.053
120 H4009 22.9918 28.2953 16.5228 H 0.0 **** 0.053
121 C3968 44.2605 36.5606 20.8305 C.3 0.0 **** -0.159
122 C3904 27.2409 29.9045 16.6892 C.ar 0.0 **** 0.0
123 H4017 37.2232 25.9603 12.271 H 0.0 **** 0.053
124 H3990 39.7433 39.4365 20.1237 H 0.0 **** 0.053
125 H3991 40.2211 37.4733 22.4183 H 0.0 **** 0.053
126 C3952 43.4684 34.1444 20.8646 C.ar 0.0 **** 0.0
127 C3957 27.8514 32.3058 17.0497 C.3 0.0 **** -0.159
128 H3984 35.2393 36.801 18.7843 H 0.0 **** 0.053
129 H3974 31.0666 29.929 17.2452 H 0.0 **** 0.1268
130 C3917 33.3433 27.5412 16.4056 C.ar 0.0 **** 0.0
@<TRIPOS>BOND
1 60 41 1
2 127 43 1
3 111 37 1
4 92 64 am
5 122 92 am
6 91 122 am
7 32 91 am
8 106 64 am
9 106 32 am
10 29 86 1
11 14 29 am
12 9 14 1
13 122 86 1
14 92 9 1
15 111 61 am
16 40 111 am
17 23 40 am
18 14 61 am
19 29 23 am
20 59 84 am
21 130 59 am
22 112 130 am
23 23 84 am
24 40 112 am
25 113 97 1
26 109 113 1
27 107 109 am
28 130 97 1
29 59 107 am
30 100 27 1
31 65 100 am
32 74 65 1
33 113 27 1
34 97 74 1
35 48 69 am
36 67 48 am
37 57 67 am
38 107 69 am
39 109 57 am
40 108 79 1
41 75 108 am
42 58 75 1
43 67 79 1
44 48 58 1
45 39 70 1
46 17 39 1
47 89 17 am
48 75 70 1
49 108 89 am
50 7 50 am
51 73 7 am
52 56 73 am
53 89 50 am
54 17 56 am
55 26 83 1
56 103 26 1
57 88 103 1
58 56 83 1
59 73 88 1
60 4 1 1
61 16 4 am
62 7 16 am
63 88 1 1
64 54 78 am
65 126 54 am
66 110 126 am
67 16 78 am
68 4 110 am
69 32 46 1
70 46 117 1
71 106 15 1
72 91 127 1
73 64 3 1
74 61 52 1
75 112 49 1
76 65 104 1
77 100 72 1
78 57 6 1
79 69 60 1
80 58 28 2
81 79 63 2
82 110 121 1
83 126 35 1
84 86 45 1
85 86 80 1
86 9 102 1
87 9 87 1
88 84 129 1
89 27 44 1
90 27 42 1
91 100 8 1
92 65 118 1
93 74 85 1
94 74 31 1
95 70 18 1
96 70 66 1
97 39 33 1
98 39 128 1
99 83 77 1
100 83 90 1
101 26 21 1
102 26 95 1
103 103 38 1
104 103 124 1
105 88 125 1
106 1 62 1
107 1 51 1
108 78 71 1
109 54 76 1
110 46 12 1
111 46 47 1
112 117 116 1
113 117 68 1
114 117 19 1
115 15 115 1
116 15 98 1
117 15 55 1
118 127 82 1
119 127 99 1
120 3 2 1
121 3 20 1
122 3 120 1
123 52 101 1
124 52 10 1
125 52 30 1
126 37 119 1
127 37 25 1
128 37 5 1
129 49 34 1
130 104 123 1
131 104 24 1
132 104 93 1
133 72 81 1
134 72 105 1
135 72 96 1
136 6 94 1
137 121 53 1
138 121 114 1
139 121 22 1
140 35 11 1
141 35 36 1
142 35 13 1
@<TRIPOS>MOLECULE
Sketch 4
130 142
SMALL
USER_CHARGES


@<TRIPOS>ATOM
1 H1678 54.9924 24.4808 2.07285 H 0.0 **** 0.053
2 H1655 56.1373 36.6523 0.0333296 H 0.0 **** 0.1268
3 C1597 49.0486 36.0748 -1.00838 C.ar 0.0 **** 0.0
4 H1653 52.6765 39.8931 -3.47822 H 0.0 **** 0.053
5 C1570 45.3462 24.6341 5.81578 C.3 0.0 **** -0.106
6 C1567 45.8212 26.9055 3.99679 C.3 0.0 **** -0.106
7 C1578 50.6877 26.2584 4.42952 C.ar 0.0 **** 0.042
8 C1573 49.4035 25.7806 4.78979 C.ar 0.0 **** 0.0
9 H1667 43.4088 23.5502 6.95207 H 0.0 **** 0.053
10 O1625 47.7367 30.105 2.50252 O.3 0.0 **** -0.452
11 C1609 53.0671 37.3546 -1.25739 C.ar 0.0 **** 0.0
12 H1642 47.5185 35.459 1.23888 H 0.0 **** 0.053
13 C1610 54.0441 36.7535 -0.452261 C.ar 0.0 **** -0.1268
14 H1657 39.9646 27.0279 3.60739 H 0.0 **** 0.053
15 H1690 57.4153 39.4952 -1.52314 H 0.0 **** 0.053
16 C1611 55.3767 37.1189 -0.596431 C.ar 0.0 **** -0.1268
17 H1637 52.4607 27.0223 -0.230286 H 0.0 **** 0.053
18 H1654 53.7355 35.9913 0.263276 H 0.0 **** 0.1268
19 C1586 53.1911 26.3488 2.66209 C.3 0.0 **** -0.106
20 H1636 54.4517 28.487 1.55183 H 0.0 **** 0.053
21 H1652 52.2366 38.2593 -3.98421 H 0.0 **** 0.053
22 C1605 49.9441 39.5833 -3.2971 C.3 0.0 **** -0.106
23 H1633 45.2782 23.5403 5.68948 H 0.0 **** 0.053
24 H1686 56.281 39.7072 -3.58481 H 0.0 **** 0.053
25 H1659 41.6084 26.9241 1.00133 H 0.0 **** 0.053
26 H1631 45.8707 27.9549 4.34726 H 0.0 **** 0.053
27 C1580 52.3104 28.506 1.88757 C.2 0.0 **** 0.0
28 C1569 46.7423 25.0715 5.45615 C.ar 0.0 **** 0.0
29 C1575 48.4933 27.6745 3.49089 C.ar 0.0 **** -0.1268
30 C1581 51.3194 29.5423 1.81237 C.ar 0.0 **** 0.0
31 H1683 52.7914 32.1003 0.458852 H 0.0 **** 0.41
32 H1676 52.5243 26.3628 4.9626 H 0.0 **** 0.41
33 C1591 50.9545 33.0495 0.38424 C.2 0.0 **** 0.367
34 H1680 54.2878 27.8607 -1.62584 H 0.0 **** 0.053
35 C1617 43.6819 28.1836 2.66714 C.3 0.0 **** -0.159
36 H1635 53.5323 29.2438 0.254521 H 0.0 **** 0.053
37 H1674 49.8967 22.7154 6.29087 H 0.0 **** 0.053
38 H1665 44.206 28.9795 3.22151 H 0.0 **** 0.053
39 H1658 40.5584 25.6174 1.58031 H 0.0 **** 0.053
40 C1588 49.2978 31.5153 1.45682 C.ar 0.0 **** 0.052
41 C1576 49.7578 28.0725 3.06012 C.ar 0.0 **** 0.0
42 H1634 47.6454 28.282 3.22004 H 0.0 **** 0.1268
43 H1660 39.8457 27.1872 1.11378 H 0.0 **** 0.053
44 H1648 47.8101 40.0292 -3.19397 H 0.0 **** 0.053
45 C1628 55.1951 39.663 -3.44222 C.3 0.0 **** -0.159
46 H1663 39.8615 25.2603 5.46354 H 0.0 **** 0.053
47 H1646 47.3323 38.1404 -1.54391 H 0.0 **** 0.053
48 H1685 54.7372 39.4102 -4.41066 H 0.0 **** 0.053
49 C1574 48.2872 26.5275 4.27246 C.ar 0.0 **** 0.0
50 C1579 52.1109 27.4046 2.70912 C.2 0.0 **** 0.0
51 H1650 49.8949 38.951 -4.20116 H 0.0 **** 0.053
52 H1675 50.8583 24.0902 6.88708 H 0.0 **** 0.053
53 H1672 46.642 23.355 7.50301 H 0.0 **** 0.053
54 H1640 52.9228 25.4484 3.22299 H 0.0 **** 0.053
55 H1638 52.8627 25.1214 0.920731 H 0.0 **** 0.053
56 C1566 42.0563 26.5267 3.73682 C.ar 0.0 **** 0.0
57 C1608 53.4501 38.3181 -2.21376 C.ar 0.0 **** 0.0
58 H1662 39.8726 24.9301 3.72205 H 0.0 **** 0.053
59 H1630 45.9985 26.9854 2.91001 H 0.0 **** 0.053
60 O1621 51.7705 25.775 5.12959 O.3 0.0 **** -0.452
61 H1682 55.5111 27.1713 -0.534572 H 0.0 **** 0.053
62 H1641 46.5194 34.2279 0.456848 H 0.0 **** 0.053
63 H1671 47.4565 22.2346 6.40259 H 0.0 **** 0.053
64 H1684 47.2275 30.9953 2.22088 H 0.0 **** 0.41
65 H1688 57.6356 38.1638 -2.66857 H 0.0 **** 0.053
66 C1598 50.135 35.35 -0.459227 C.ar 0.0 **** 0.2405
67 C1595 47.4893 34.738 0.400304 C.3 0.0 **** -0.106
68 C1563 44.2074 25.2887 5.07302 C.ar 0.0 **** 0.0
69 H1639 54.1068 26.7645 3.12564 H 0.0 **** 0.053
70 H1632 45.1963 24.7892 6.90236 H 0.0 **** 0.053
71 O1627 52.1487 33.2559 -0.000452641 O.2 0.0 **** -0.419
72 C1616 40.4439 24.7939 4.64955 C.3 0.0 **** -0.159
73 C1568 46.9546 26.1315 4.60332 C.ar 0.0 **** 0.0
74 H1647 48.6748 40.152 -1.65285 H 0.0 **** 0.053
75 H1677 55.2619 24.8027 0.342489 H 0.0 **** 0.053
76 C1593 48.595 33.7413 0.593301 C.ar 0.0 **** 0.0
77 H1670 48.3778 23.0635 7.67306 H 0.0 **** 0.053
78 C1618 42.6396 23.6323 6.1742 C.3 0.0 **** -0.159
79 C1607 52.378 38.9067 -3.09687 C.3 0.0 **** -0.106
80 C1623 54.4859 27.0457 -0.913891 C.3 0.0 **** -0.159
81 C1622 54.97 25.2617 1.29712 C.3 0.0 **** -0.159
82 C1589 50.616 31.7946 1.02729 C.ar 0.0 **** 0.052
83 C1590 51.6264 30.8309 1.22844 C.ar 0.0 **** 0.042
84 H1681 54.4443 26.0938 -1.46456 H 0.0 **** 0.053
85 H1651 51.1833 39.7783 -1.5548 H 0.0 **** 0.053
86 C1606 51.0369 39.0456 -2.37401 C.3 0.0 **** -0.053
87 C1584 53.4634 27.0777 0.224502 C.ar 0.0 **** -0.053
88 C1585 53.5791 25.9001 1.22655 C.ar 0.0 **** -0.053
89 C1620 50.283 23.7071 6.02965 C.3 0.0 **** -0.159
90 C1602 49.3121 37.3026 -1.63774 C.ar 0.0 **** 0.0
91 C1562 42.8986 24.7952 5.24276 C.ar 0.0 **** 0.0
92 C1564 44.4365 26.3738 4.22412 C.ar 0.0 **** 0.0
93 C1577 50.8799 27.2401 3.42558 C.ar 0.0 **** 0.0
94 H1668 42.6247 22.6717 5.62943 H 0.0 **** 0.053
95 H1666 42.7926 28.6227 2.20348 H 0.0 **** 0.053
96 C1604 48.5948 39.5611 -2.58061 C.3 0.0 **** -0.106
97 C1596 47.6671 35.4833 -0.919522 C.3 0.0 **** -0.106
98 H1661 40.4829 23.7163 4.85321 H 0.0 **** 0.053
99 C1601 50.6419 37.7382 -1.7273 C.ar 0.0 **** 0.0
100 C1615 40.7102 26.7075 1.59861 C.3 0.0 **** -0.159
101 C1600 51.6555 36.9405 -1.15444 C.ar 0.0 **** 0.2405
102 H1689 57.8337 37.8696 -0.925266 H 0.0 **** 0.053
103 C1592 49.8781 34.0417 0.180757 C.ar 0.0 **** 0.0
104 H1679 55.7304 26.0149 1.55908 H 0.0 **** 0.053
105 O1626 47.0594 32.2822 1.65742 O.2 0.0 **** -0.419
106 H1644 47.5186 34.7779 -1.75907 H 0.0 **** 0.053
107 C1594 48.2609 32.4896 1.25643 C.2 0.0 **** 0.367
108 C1565 43.3664 27.0079 3.56151 C.ar 0.0 **** 0.0
109 H1669 41.6695 23.7309 6.67984 H 0.0 **** 0.053
110 C1629 57.2413 38.4173 -1.67075 C.3 0.0 **** -0.159
111 H1645 47.8285 37.6135 -3.14543 H 0.0 **** 0.053
112 C1572 49.1608 24.639 5.62937 C.ar 0.0 **** 0.0
113 H1649 50.2038 40.6021 -3.62582 H 0.0 **** 0.053
114 C1612 55.7787 38.0688 -1.54889 C.ar 0.0 **** 0.0
115 H1643 46.8925 36.2536 -1.01963 H 0.0 **** 0.053
116 N1599 51.3985 35.7944 -0.514992 N.ar 0.0 **** -0.481
117 C1587 48.9915 30.2934 2.10224 C.ar 0.0 **** 0.042
118 C1613 54.804 38.6658 -2.37618 C.ar 0.0 **** 0.0
119 C1603 48.1896 38.1242 -2.23449 C.3 0.0 **** -0.106
120 C1619 47.5701 23.1919 6.94149 C.3 0.0 **** -0.159
121 C1561 41.8324 25.3879 4.54144 C.ar 0.0 **** 0.0
122 H1656 41.035 28.2911 3.04375 H 0.0 **** 0.053
123 C1571 47.8528 24.3363 5.99388 C.ar 0.0 **** 0.0
124 C1583 53.5111 28.4246 0.973615 C.3 0.0 **** -0.106
125 O1624 52.8781 31.1332 0.906527 O.3 0.0 **** -0.452
126 C1582 50.0097 29.2933 2.31787 C.ar 0.0 **** 0.0
127 C1614 40.8912 27.2006 3.04299 C.3 0.0 **** -0.106
128 H1664 44.3619 27.8823 1.85326 H 0.0 **** 0.053
129 H1687 54.8519 40.6795 -3.18443 H 0.0 **** 0.053
130 H1673 50.9962 23.5825 5.20634 H 0.0 **** 0.053
@<TRIPOS>BOND
1 83 82 am
2 68 91 am
3 92 68 am
4 108 92 am
5 56 108 am
6 121 91 am
7 121 56 am
8 73 6 1
9 28 73 am
10 5 28 1
11 92 6 1
12 68 5 1
13 112 123 am
14 8 112 am
15 49 8 am
16 28 123 am
17 73 49 am
18 41 29 am
19 93 41 am
20 7 93 am
21 49 29 am
22 8 7 am
23 27 50 1
24 30 27 1
25 126 30 am
26 93 50 1
27 41 126 am
28 87 124 1
29 88 87 am
30 19 88 1
31 27 124 1
32 50 19 1
33 40 117 am
34 82 40 am
35 126 117 am
36 30 83 am
37 103 33 1
38 76 103 am
39 107 76 1
40 82 33 1
41 40 107 1
42 97 67 1
43 3 97 1
44 66 3 am
45 76 67 1
46 103 66 am
47 101 116 am
48 99 101 am
49 90 99 am
50 66 116 am
51 3 90 am
52 96 119 1
53 22 96 1
54 86 22 1
55 90 119 1
56 99 86 1
57 57 79 1
58 11 57 am
59 101 11 am
60 86 79 1
61 16 13 am
62 114 16 am
63 118 114 am
64 11 13 am
65 57 118 am
66 56 127 1
67 127 100 1
68 121 72 1
69 108 35 1
70 91 78 1
71 123 120 1
72 112 89 1
73 7 60 1
74 88 81 1
75 87 80 1
76 83 125 1
77 117 10 1
78 107 105 2
79 33 71 2
80 118 45 1
81 114 110 1
82 6 59 1
83 6 26 1
84 5 70 1
85 5 23 1
86 29 42 1
87 124 36 1
88 124 20 1
89 87 17 1
90 88 55 1
91 19 69 1
92 19 54 1
93 67 62 1
94 67 12 1
95 97 115 1
96 97 106 1
97 119 111 1
98 119 47 1
99 96 74 1
100 96 44 1
101 22 113 1
102 22 51 1
103 86 85 1
104 79 21 1
105 79 4 1
106 13 18 1
107 16 2 1
108 127 122 1
109 127 14 1
110 100 39 1
111 100 25 1
112 100 43 1
113 72 98 1
114 72 58 1
115 72 46 1
116 35 128 1
117 35 38 1
118 35 95 1
119 78 9 1
120 78 94 1
121 78 109 1
122 120 77 1
123 120 63 1
124 120 53 1
125 89 130 1
126 89 37 1
127 89 52 1
128 60 32 1
129 81 75 1
130 81 1 1
131 81 104 1
132 80 34 1
133 80 84 1
134 80 61 1
135 125 31 1
136 10 64 1
137 45 48 1
138 45 24 1
139 45 129 1
140 110 65 1
141 110 102 1
142 110 15 1
@<TRIPOS>MOLECULE
Sketch 4
250 292
SMALL
USER_CHARGES


@<TRIPOS>ATOM
1 C18246 32.2403 32.7676 40.9267 C.3 0.0 **** -0.106
2 H18366 32.0675 34.7221 41.8237 H 0.0 **** 0.053
3 H18401 18.7265 47.7361 49.8208 H 0.0 **** 0.053
4 C18260 24.1498 42.1554 47.2637 C.3 0.0 **** -0.053
5 C18210 30.3452 36.6212 50.7963 C.2 0.0 **** 0.0
6 H18321 35.4524 28.6115 46.2567 H 0.0 **** 0.053
7 C18265 26.3671 42.9042 48.2431 C.3 0.0 **** -0.106
8 H18376 24.7261 44.1008 46.5827 H 0.0 **** 0.053
9 O18240 30.4653 33.6013 43.5428 O.3 0.0 **** -0.202
10 C18197 38.9653 32.849 55.8677 C.3 0.0 **** -0.106
11 C18281 19.8664 43.0505 41.1573 C.2 0.0 **** 0.0
12 C18288 20.4302 44.7949 45.0211 C.2 0.0 **** 0.0
13 H18324 35.907 26.2049 46.691 H 0.0 **** 0.053
14 C18214 28.4891 37.9465 49.0466 C.2 0.0 **** 0.0
15 H18377 23.5902 43.6938 49.376 H 0.0 **** 0.053
16 C18183 35.5615 31.0898 50.5461 C.2 0.0 **** 0.0
17 C18212 29.4181 37.5745 51.3124 C.2 0.0 **** 0.0
18 C18164 43.655 25.6388 51.4196 C.3 0.0 **** -0.106
19 H18304 44.4052 28.4567 51.3367 H 0.0 **** 0.053
20 H18364 34.3763 33.1535 43.0419 H 0.0 **** 0.053
21 C18199 35.8144 31.4155 51.9198 C.2 0.0 **** -0.012
22 H18316 37.9536 25.1947 50.875 H 0.0 **** 0.053
23 O18301 17.235 48.7469 45.6889 O.2 0.0 **** -0.419
24 C18188 38.2177 27.7776 55.3403 C.2 0.0 **** 0.0
25 C18217 33.5896 32.0208 47.5152 C.2 0.0 **** -0.1268
26 H18334 40.1611 30.536 53.6103 H 0.0 **** 0.053
27 C18157 43.7928 26.672 50.2721 C.3 0.0 **** -0.053
28 C18283 18.7951 43.5238 40.3382 C.2 0.0 **** -0.1268
29 C18163 42.3136 24.8841 51.3832 C.3 0.0 **** -0.106
30 O18243 32.4514 32.3885 45.1152 O.3 0.0 **** -0.202
31 H18325 38.8537 26.9229 46.2284 H 0.0 **** 0.053
32 C18201 33.8437 32.923 50.1557 C.2 0.0 **** 0.0
33 C18179 38.0565 26.3796 46.7745 C.3 0.0 **** -0.106
34 H18370 30.0872 32.7793 41.3136 H 0.0 **** 0.053
35 C18156 43.5425 28.12 50.7416 C.3 0.0 **** -0.106
36 H18379 25.8249 43.9147 50.0819 H 0.0 **** 0.053
37 C18211 31.351 36.0433 51.5865 C.2 0.0 **** -0.1268
38 C18268 23.8452 40.5809 43.2285 C.2 0.0 **** 0.0
39 H18362 32.9435 31.3614 43.4535 H 0.0 **** 0.053
40 C18213 28.5524 38.2156 50.4466 C.2 0.0 **** 0.042
41 C18205 32.1808 35.04 51.0958 C.2 0.0 **** 0.0
42 H18339 37.8144 32.0912 57.5588 H 0.0 **** 0.053
43 C18202 33.9652 33.4354 51.4969 C.2 0.0 **** -0.012
44 H18391 24.2936 39.226 41.5846 H 0.0 **** 0.1268
45 C18280 20.0505 43.6255 42.4562 C.2 0.0 **** 0.0
46 H18314 44.4767 24.9088 51.3703 H 0.0 **** 0.053
47 C18294 20.6311 45.3682 46.3068 C.2 0.0 **** 0.0
48 O18180 35.2161 30.401 47.8432 O.3 0.0 **** -0.464
49 C18192 37.7744 29.3776 57.1963 C.3 0.0 **** -0.106
50 C18173 37.0433 29.1019 50.8171 C.2 0.0 **** 0.0
51 C18174 36.1903 29.9537 50.0223 C.2 0.0 **** 0.0
52 H18372 27.1186 37.0487 43.0573 H 0.0 **** 0.1268
53 C18170 37.5013 27.7017 48.8388 C.2 0.0 **** 0.0
54 C18177 36.4564 28.2913 46.5702 C.3 0.0 **** -0.106
55 H18356 24.5308 41.8228 53.0481 H 0.0 **** 0.053
56 H18307 43.0418 25.3235 48.7641 H 0.0 **** 0.053
57 C18226 28.222 40.1172 51.877 C.3 0.0 **** 0.107
58 C18221 30.0277 35.4288 46.6951 C.2 0.0 **** 0.0
59 H18390 29.8551 36.5095 53.8272 H 0.0 **** 0.41
60 H18367 32.9984 31.9695 40.8494 H 0.0 **** 0.053
61 C18176 36.644 28.5579 48.0421 C.2 0.0 **** 0.0
62 C18250 26.6185 38.8839 45.9116 C.2 0.0 **** 0.0
63 H18386 38.6169 33.5074 52.7451 H 0.0 **** 0.053
64 C18204 33.1616 34.455 51.9393 C.2 0.0 **** -0.1268
65 C18186 37.2646 29.4559 52.222 C.2 0.0 **** 0.0
66 C18259 25.3705 41.7378 48.1158 C.3 0.0 **** -0.053
67 C18255 26.9139 39.8258 48.5 C.2 0.0 **** -0.1268
68 H18349 30.1113 39.912 54.7888 H 0.0 **** 0.053
69 O18225 27.653 39.0923 51.014 O.3 0.0 **** -0.202
70 C18155 43.3126 29.0543 49.5306 C.3 0.0 **** 0.054
71 H18354 26.612 41.8793 50.8035 H 0.0 **** 0.053
72 C18258 24.939 40.6044 45.4261 C.2 0.0 **** 0.0
73 N18236 27.3077 43.2116 53.1268 N.3 0.0 **** -0.727
74 C18289 21.2972 43.7586 44.5707 C.2 0.0 **** 0.0
75 H18369 30.8176 31.1695 41.3666 H 0.0 **** 0.053
76 H18398 22.001 45.4842 47.9858 H 0.0 **** 0.1268
77 C18184 38.3336 27.2758 52.5432 C.2 0.0 **** 0.0
78 H18403 18.8078 49.3173 47.8872 H 0.0 **** 0.053
79 C18196 39.9798 32.3026 54.8571 C.3 0.0 **** -0.053
80 H18359 25.8811 44.3872 52.1638 H 0.0 **** 0.053
81 C18266 23.1956 42.2309 44.9594 C.2 0.0 **** 0.0
82 C18194 38.5936 30.1703 55.0081 C.2 0.0 **** 0.0
83 C18270 22.3636 43.3237 45.3845 C.2 0.0 **** 0.0
84 H18330 37.8904 27.2024 57.3804 H 0.0 **** 0.053
85 H18306 44.8178 26.6344 49.8753 H 0.0 **** 0.053
86 C18167 38.9727 25.6465 49.0226 C.3 0.0 **** -0.053
87 C18278 21.9749 42.1431 42.8263 C.2 0.0 **** 0.0
88 C18161 41.3635 26.3917 49.5812 C.3 0.0 **** -0.053
89 C18239 29.8744 35.0288 45.3329 C.2 0.0 **** 0.0
90 H18323 36.6442 26.6663 45.1404 H 0.0 **** 0.053
91 C18277 21.78 41.5697 41.5283 C.2 0.0 **** 0.0
92 C18166 38.8322 25.7712 50.5502 C.3 0.0 **** 0.107
93 C18273 41.4921 34.3164 54.556 C.3 0.0 **** -0.159
94 O18160 43.8431 28.4874 48.3278 O.3 0.0 **** -0.32
95 C18228 29.1941 38.0024 52.7594 C.3 0.0 **** 0.107
96 H18368 31.9877 33.0603 39.897 H 0.0 **** 0.053
97 C18293 21.7744 44.977 47.0518 C.2 0.0 **** -0.1268
98 C18279 21.1053 43.1695 43.2814 C.2 0.0 **** 0.0
99 H18357 24.3462 42.7127 51.5302 H 0.0 **** 0.053
100 C18234 25.0902 42.3409 52.2527 C.3 0.0 **** -0.106
101 C18296 19.7176 46.3549 46.7921 C.2 0.0 **** 0.0
102 H18344 33.5417 31.6261 46.5109 H 0.0 **** 0.1268
103 C18187 38.2263 28.8367 54.4793 C.2 0.0 **** 0.0
104 H18384 39.7848 34.8069 52.4051 H 0.0 **** 0.053
105 C18295 18.709 46.8615 45.9614 C.2 0.0 **** 0.052
106 H18337 38.0326 33.1044 55.3389 H 0.0 **** 0.053
107 H18404 17.1153 48.9065 48.19 H 0.0 **** 0.053
108 C18208 31.0852 35.1976 48.9029 C.2 0.0 **** 0.0
109 C18241 31.0575 32.3416 43.158 C.3 0.0 **** 0.107
110 H18402 17.8295 46.5613 48.8347 H 0.0 **** 0.053
111 C18272 39.3801 34.159 53.1971 C.3 0.0 **** -0.159
112 H18312 42.3444 24.0763 50.6343 H 0.0 **** 0.053
113 H18389 41.9098 35.0393 53.8388 H 0.0 **** 0.053
114 H18363 33.2947 34.3291 43.8018 H 0.0 **** 0.053
115 C18251 26.4843 38.4219 44.5657 C.2 0.0 **** 0.042
116 H18373 27.0227 40.214 49.5004 H 0.0 **** 0.1268
117 H18355 25.4913 40.5456 51.0739 H 0.0 **** 0.053
118 C18185 37.9746 28.5939 53.0601 C.2 0.0 **** 0.0
119 H18378 23.9329 45.3014 48.7205 H 0.0 **** 0.053
120 C18181 34.4825 31.43 48.3821 C.2 0.0 **** 0.232
121 H18380 26.2594 45.009 48.7644 H 0.0 **** 0.053
122 C18191 38.3694 28.0186 56.8163 C.3 0.0 **** -0.106
123 C18235 25.8981 43.5274 52.8498 C.3 0.0 **** 0.081
124 H18399 20.2283 45.984 48.8382 H 0.0 **** 0.053
125 H18365 33.6718 34.3967 41.1446 H 0.0 **** 0.053
126 C18271 40.5073 33.3645 53.8694 C.3 0.0 **** -0.053
127 H18396 16.7701 47.4787 44.1208 H 0.0 **** 0.1268
128 C18216 32.7611 33.0893 47.9163 C.2 0.0 **** 0.0
129 H18308 42.1381 27.6387 47.4889 H 0.0 **** 0.053
130 H18375 23.2471 41.7257 47.7419 H 0.0 **** 0.053
131 H18333 36.6754 29.3417 57.0674 H 0.0 **** 0.053
132 C18232 27.0316 40.7497 52.5959 C.3 0.0 **** -0.053
133 H18327 37.086 25.9766 55.0791 H 0.0 **** 0.053
134 C18291 17.4378 46.6918 43.7868 C.2 0.0 **** -0.1268
135 C18297 19.8766 46.823 48.2216 C.3 0.0 **** -0.106
136 H18395 17.1321 44.8616 40.1539 H 0.0 **** 0.1268
137 C18182 34.6469 31.8391 49.7179 C.2 0.0 **** 0.0
138 O18274 30.0488 37.4577 53.7662 O.3 0.0 **** -0.57
139 C18286 19.1765 44.6568 42.9111 C.2 0.0 **** 0.0
140 C18229 29.187 40.1147 54.2331 C.3 0.0 **** -0.106
141 C18200 36.6069 30.6235 52.7139 C.2 0.0 **** -0.1268
142 O18165 39.9507 25.1015 51.1564 O.3 0.0 **** -0.32
143 H18382 26.6876 43.2107 47.2347 H 0.0 **** 0.053
144 H18332 37.9662 29.6119 58.255 H 0.0 **** 0.053
145 C18267 23.0169 41.6616 43.6667 C.2 0.0 **** 0.0
146 C18207 32.8841 33.5369 49.2749 C.2 0.0 **** 0.0
147 C18292 17.2585 46.1127 42.5478 C.2 0.0 **** -0.1268
148 C18269 22.6418 44.0076 46.6006 C.2 0.0 **** 0.0
149 C18159 43.1025 27.3239 47.9396 C.3 0.0 **** 0.054
150 C18245 32.8381 33.9464 41.703 C.3 0.0 **** -0.106
151 H18310 41.0376 27.4441 49.5634 H 0.0 **** 0.053
152 C18206 32.0473 34.5849 49.7481 C.2 0.0 **** 0.0
153 C18264 25.7195 44.0791 49.0003 C.3 0.0 **** -0.106
154 C18284 17.9532 44.5092 40.7813 C.2 0.0 **** -0.1268
155 C18230 28.8989 41.6162 54.1307 C.3 0.0 **** -0.106
156 H18381 27.2726 42.5579 48.7639 H 0.0 **** 0.053
157 H18350 29.6118 42.0741 53.4214 H 0.0 **** 0.053
158 C18252 27.2281 37.3771 44.0914 C.2 0.0 **** -0.1268
159 C18224 28.2942 37.1302 46.3177 C.2 0.0 **** 0.0
160 H18302 43.8222 30.0189 49.6603 H 0.0 **** 0.053
161 C18299 18.0817 48.4832 47.8815 C.3 0.0 **** -0.086
162 H18303 42.2312 29.2556 49.394 H 0.0 **** 0.053
163 C18195 39.3638 31.1128 54.1123 C.3 0.0 **** -0.106
164 H18397 16.4319 46.4396 41.9133 H 0.0 **** 0.1268
165 H18347 28.1436 37.7468 53.0095 H 0.0 **** 0.053
166 H18361 30.4906 31.5361 43.6537 H 0.0 **** 0.053
167 H18341 36.7107 30.8706 53.7702 H 0.0 **** 0.1268
168 H18342 33.2571 34.8305 52.9607 H 0.0 **** 0.1268
169 H18315 43.7571 26.1602 52.3856 H 0.0 **** 0.053
170 H18358 25.4275 43.8601 53.7905 H 0.0 **** 0.053
171 C18263 24.2185 44.242 48.6535 C.3 0.0 **** -0.106
172 C18257 24.8076 40.0835 44.1274 C.2 0.0 **** 0.0265
173 C18233 26.0403 41.3486 51.5843 C.3 0.0 **** -0.106
174 C18162 41.181 25.8294 51.02 C.3 0.0 **** 0.107
175 C18231 27.4715 41.845 53.6245 C.3 0.0 **** 0.134
176 H18338 39.3365 33.7704 56.3421 H 0.0 **** 0.053
177 C18290 18.4982 46.2917 44.6465 C.2 0.0 **** 0.0
178 H18394 18.6621 43.0787 39.3504 H 0.0 **** 0.1268
179 C18169 38.1711 26.641 48.25 C.2 0.0 **** 0.0
180 C18247 30.982 32.224 41.6342 C.3 0.0 **** -0.106
181 H18343 31.5168 36.401 52.5979 H 0.0 **** 0.1268
182 H18353 26.527 39.9402 53.15 H 0.0 **** 0.053
183 H18318 40.6086 25.9674 47.5943 H 0.0 **** 0.053
184 H18319 40.8186 24.5538 48.6372 H 0.0 **** 0.053
185 H18387 42.3266 33.762 55.0136 H 0.0 **** 0.053
186 C18253 25.8756 39.9946 46.3389 C.2 0.0 **** 0.0
187 C18172 38.639 27.2061 51.0657 C.3 0.0 **** -0.053
188 C18171 37.6511 28.0001 50.2409 C.2 0.0 **** 0.0
189 H18371 28.851 35.3282 43.4584 H 0.0 **** 0.1268
190 C18244 33.3301 33.4889 43.0932 C.3 0.0 **** -0.106
191 H18329 38.6237 25.2242 53.0197 H 0.0 **** 0.1268
192 H18374 25.0036 41.5443 49.1354 H 0.0 **** 0.053
193 C18261 24.1336 41.6692 45.8388 C.2 0.0 **** 0.0
194 S18203 35.1787 32.8788 52.6386 S.2 0.0 **** 0.024
195 C18237 31.6394 33.3623 45.6522 C.2 0.0 **** 0.042
196 C18242 32.4861 32.336 43.6757 C.3 0.0 **** 0.107
197 C18282 20.7363 42.0373 40.7231 C.2 0.0 **** -0.1268
198 C18223 27.5173 38.2175 46.791 C.2 0.0 **** 0.0
199 H18326 38.2342 25.3089 46.5771 H 0.0 **** 0.053
200 H18392 22.5106 40.0944 40.109 H 0.0 **** 0.1268
201 H18335 38.7263 31.4829 53.295 H 0.0 **** 0.053
202 C18209 30.2384 36.2291 49.4129 C.2 0.0 **** 0.0
203 C18222 27.6322 38.6693 48.1396 C.2 0.0 **** 0.0
204 C18198 38.6671 31.7861 56.9251 C.3 0.0 **** -0.106
205 C18175 36.0204 29.6146 48.6456 C.2 0.0 **** 0.232
206 C18287 19.3611 45.2483 44.1975 C.2 0.0 **** 0.0
207 C18178 36.696 26.8202 46.229 C.3 0.0 **** -0.106
208 H18322 37.1687 28.9141 45.9965 H 0.0 **** 0.053
209 C18215 29.3057 36.8882 48.558 C.2 0.0 **** 0.0
210 H18305 42.6626 28.1538 51.4035 H 0.0 **** 0.053
211 H18346 30.2959 39.7988 52.4205 H 0.0 **** 0.053
212 H18385 38.8746 34.8064 53.9302 H 0.0 **** 0.053
213 H18311 41.1738 26.663 51.7486 H 0.0 **** 0.053
214 H18317 38.5704 24.6524 48.7486 H 0.0 **** 0.053
215 C18300 17.9365 48.0534 46.427 C.2 0.0 **** 0.347
216 C18275 23.6463 40.0372 41.9174 C.2 0.0 **** -0.1268
217 C18218 30.9757 34.774 47.5372 C.2 0.0 **** 0.0
218 H18351 29.0333 42.136 55.0892 H 0.0 **** 0.053
219 C18220 29.213 36.4827 47.1851 C.2 0.0 **** 0.0
220 H18328 38.7738 25.7234 55.4426 H 0.0 **** 0.053
221 H18345 28.6804 40.8754 51.2148 H 0.0 **** 0.053
222 H18400 20.6615 47.601 48.2757 H 0.0 **** 0.053
223 H18331 39.4461 27.9977 57.0812 H 0.0 **** 0.053
224 H18313 42.1038 24.4146 52.3549 H 0.0 **** 0.053
225 H18340 39.5256 31.6888 57.618 H 0.0 **** 0.053
226 C18285 18.1197 45.0989 42.0716 C.2 0.0 **** 0.0
227 C18276 22.6578 40.5176 41.1043 C.2 0.0 **** -0.1268
228 C18193 38.3608 30.4509 56.3123 C.2 0.0 **** 0.0
229 H18352 26.7905 41.7573 54.4883 H 0.0 **** 0.053
230 C18238 30.6823 33.9663 44.8514 C.2 0.0 **** 0.042
231 C18249 28.9487 35.6618 44.4903 C.2 0.0 **** -0.1268
232 C18298 18.5752 47.3721 48.7932 C.3 0.0 **** -0.106
233 C18262 23.9541 43.6833 47.2602 C.3 0.0 **** -0.053
234 C18248 28.1587 36.7145 44.9519 C.2 0.0 **** 0.0
235 H18383 41.0573 32.8179 53.0817 H 0.0 **** 0.053
236 C18190 38.3788 26.2198 53.3859 C.2 0.0 **** -0.1268
237 C18158 42.834 26.3483 49.1148 C.3 0.0 **** -0.053
238 C18219 31.8058 33.7275 47.0349 C.2 0.0 **** 0.0
239 C18254 26.0554 40.4845 47.6391 C.2 0.0 **** 0.0
240 C18227 29.304 39.5327 52.8192 C.3 0.0 **** -0.053
241 O18256 25.5946 39.039 43.6995 O.3 0.0 **** -0.0685
242 H18348 28.3717 39.6114 54.7807 H 0.0 **** 0.053
243 H18320 39.5936 27.7542 50.9318 H 0.0 **** 0.053
244 H18336 40.8463 31.9296 55.4345 H 0.0 **** 0.053
245 H18360 27.8641 43.3286 52.2791 H 0.0 **** 0.353
246 H18393 20.5877 41.5982 39.7341 H 0.0 **** 0.1268
247 C18168 40.477 25.6008 48.6231 C.3 0.0 **** -0.106
248 H18388 40.9902 34.8902 55.3513 H 0.0 **** 0.053
249 C18189 38.1 26.3718 54.8491 C.3 0.0 **** -0.106
250 H18309 43.7103 26.8482 47.1572 H 0.0 **** 0.053
@<TRIPOS>BOND
1 33 31 1
2 100 99 1
3 232 135 1
4 43 32 un
5 14 203 un
6 27 35 1
7 237 27 1
8 149 237 1
9 94 149 1
10 70 35 1
11 70 94 1
12 174 88 1
13 29 174 1
14 18 29 1
15 237 88 1
16 27 18 1
17 92 142 1
18 86 92 1
19 247 86 1
20 174 142 1
21 88 247 1
22 53 179 un
23 188 53 un
24 187 188 un
25 86 179 1
26 92 187 1
27 51 50 1
28 205 51 un
29 61 205 un
30 188 50 un
31 53 61 un
32 207 54 1
33 33 207 1
34 179 33 1
35 61 54 1
36 120 48 1
37 137 120 un
38 16 137 un
39 205 48 1
40 51 16 un
41 118 77 un
42 65 118 2
43 187 77 1
44 50 65 un
45 24 103 2
46 249 24 1
47 236 249 1
48 118 103 1
49 77 236 2
50 49 122 1
51 228 49 1
52 82 228 2
53 24 122 1
54 103 82 1
55 79 163 1
56 10 79 1
57 204 10 1
58 82 163 1
59 228 204 1
60 141 21 un
61 65 141 un
62 16 21 un
63 194 43 1
64 21 194 un
65 137 32 un
66 41 64 un
67 152 41 un
68 146 152 un
69 43 64 un
70 32 146 un
71 202 108 un
72 5 202 un
73 37 5 un
74 152 108 un
75 41 37 un
76 40 17 un
77 14 40 un
78 209 14 un
79 5 17 un
80 202 209 un
81 25 128 un
82 120 25 un
83 146 128 un
84 238 217 un
85 128 238 un
86 108 217 un
87 58 219 un
88 217 58 un
89 209 219 un
90 198 203 un
91 159 198 un
92 219 159 un
93 57 69 1
94 240 57 1
95 95 240 1
96 40 69 1
97 17 95 1
98 155 140 1
99 175 155 1
100 132 175 1
101 240 140 1
102 57 132 1
103 100 173 1
104 123 100 1
105 73 123 1
106 132 173 1
107 175 73 1
108 230 195 un
109 89 230 un
110 58 89 un
111 238 195 un
112 109 9 1
113 196 109 1
114 30 196 1
115 230 9 1
116 195 30 1
117 150 190 1
118 1 150 1
119 180 1 1
120 196 190 1
121 109 180 1
122 231 234 un
123 89 231 un
124 159 234 un
125 115 62 un
126 158 115 un
127 234 158 un
128 198 62 un
129 239 186 un
130 67 239 un
131 203 67 un
132 62 186 un
133 172 241 1
134 72 172 un
135 115 241 1
136 186 72 1
137 4 66 1
138 193 4 1
139 239 66 1
140 72 193 un
141 171 233 1
142 153 171 1
143 7 153 1
144 4 233 1
145 66 7 1
146 145 81 1
147 38 145 1
148 172 38 un
149 193 81 un
150 233 148 1
151 81 83 un
152 148 83 un
153 79 126 1
154 126 111 1
155 126 93 1
156 95 138 1
157 227 216 1
158 91 227 un
159 87 91 1
160 38 216 un
161 145 87 un
162 45 98 un
163 11 45 1
164 197 11 un
165 87 98 un
166 91 197 un
167 154 28 un
168 226 154 1
169 139 226 1
170 11 28 un
171 45 139 un
172 12 206 un
173 74 12 un
174 98 74 un
175 139 206 un
176 134 177 un
177 147 134 un
178 226 147 un
179 206 177 un
180 47 97 un
181 12 47 un
182 83 74 un
183 148 97 un
184 101 105 un
185 47 101 un
186 177 105 un
187 161 232 1
188 215 161 1
189 101 135 1
190 105 215 1
191 215 23 2
192 70 160 1
193 70 162 1
194 35 19 1
195 35 210 1
196 27 85 1
197 237 56 1
198 149 129 1
199 149 250 1
200 88 151 1
201 174 213 1
202 29 112 1
203 29 224 1
204 18 46 1
205 18 169 1
206 92 22 1
207 86 214 1
208 247 183 1
209 247 184 1
210 187 243 1
211 54 6 1
212 54 208 1
213 207 90 1
214 207 13 1
215 33 199 1
216 249 133 1
217 249 220 1
218 236 191 1
219 122 84 1
220 122 223 1
221 49 144 1
222 49 131 1
223 163 26 1
224 163 201 1
225 79 244 1
226 10 106 1
227 10 176 1
228 204 42 1
229 204 225 1
230 141 167 1
231 64 168 1
232 37 181 1
233 25 102 1
234 57 221 1
235 240 211 1
236 95 165 1
237 140 242 1
238 140 68 1
239 155 157 1
240 155 218 1
241 175 229 1
242 132 182 1
243 173 71 1
244 173 117 1
245 100 55 1
246 123 170 1
247 123 80 1
248 73 245 1
249 109 166 1
250 196 39 1
251 190 114 1
252 190 20 1
253 150 125 1
254 150 2 1
255 1 60 1
256 1 96 1
257 180 75 1
258 180 34 1
259 231 189 1
260 158 52 1
261 67 116 1
262 66 192 1
263 4 130 1
264 233 8 1
265 171 15 1
266 171 119 1
267 153 36 1
268 153 121 1
269 7 156 1
270 7 143 1
271 126 235 1
272 111 104 1
273 111 212 1
274 111 63 1
275 93 185 1
276 93 248 1
277 93 113 1
278 138 59 1
279 216 44 1
280 227 200 1
281 197 246 1
282 28 178 1
283 154 136 1
284 134 127 1
285 147 164 1
286 97 76 1
287 135 124 1
288 135 222 1
289 232 3 1
290 232 110 1
291 161 78 1
292 161 107 1
@<TRIPOS>MOLECULE
Sketch 4
250 292
SMALL
USER_CHARGES


@<TRIPOS>ATOM
1 H13651 0.556423 63.702 37.1655 H 0.0 **** 0.053
2 H13628 4.70248 62.3034 41.0513 H 0.0 **** 0.053
3 C13516 4.26878 57.4652 41.7736 C.2 0.0 **** 0.0
4 C13440 9.53824 59.1244 64.7382 C.2 0.0 **** -0.1268
5 C13538 2.6639 58.3716 38.4831 C.2 0.0 **** 0.0
6 H13576 11.3563 52.7819 62.8203 H 0.0 **** 0.053
7 H13610 6.33772 64.9737 45.7635 H 0.0 **** 0.353
8 H13620 8.39964 50.7083 51.1223 H 0.0 **** 0.053
9 C13530 2.78567 55.5369 38.2829 C.2 0.0 **** 0.0
10 H13592 8.03415 62.206 55.3149 H 0.0 **** 0.1268
11 C13469 8.34285 56.3501 53.3022 C.2 0.0 **** 0.0
12 C13422 10.8641 57.634 63.1746 C.3 0.0 **** -0.053
13 C13525 4.93903 53.8391 42.593 C.2 0.0 **** -0.1268
14 H13564 15.1491 57.6039 67.7667 H 0.0 **** 0.053
15 H13553 15.2721 57.6855 62.4921 H 0.0 **** 0.053
16 C13545 1.52418 59.9427 36.3972 C.2 0.0 **** 0.052
17 C13456 7.94583 59.1425 53.749 C.2 0.0 **** 0.0
18 C13451 8.84165 58.9422 56.0539 C.2 0.0 **** 0.0
19 C13459 7.00901 59.3951 51.4805 C.2 0.0 **** 0.0
20 C13417 11.3129 55.1612 63.8086 C.3 0.0 **** -0.053
21 H13621 7.45113 53.6211 49.322 H 0.0 **** 0.1268
22 C13536 2.20836 56.3064 37.2299 C.2 0.0 **** 0.0
23 C13500 5.85757 57.1479 46.378 C.2 0.0 **** 0.0
24 C13495 11.0891 51.9951 51.5602 C.3 0.0 **** -0.106
25 C13476 5.71372 63.1225 48.3686 C.3 0.0 **** 0.107
26 H13577 7.75624 60.2879 64.9991 H 0.0 **** 0.053
27 H13588 11.9291 65.4663 60.185 H 0.0 **** 0.053
28 H13559 16.5127 54.7958 64.2518 H 0.0 **** 0.053
29 H13570 11.9341 57.9174 63.1085 H 0.0 **** 0.053
30 H13573 10.881 51.9748 60.4629 H 0.0 **** 0.053
31 C13485 4.48009 65.2872 44.9381 C.3 0.0 **** 0.081
32 C13491 8.50046 52.2257 52.613 C.3 0.0 **** 0.107
33 C13458 7.58051 58.5741 52.5005 C.2 0.0 **** 0.0
34 H13605 3.71171 62.2532 46.4919 H 0.0 **** 0.053
35 H13596 7.25846 63.7286 49.7629 H 0.0 **** 0.053
36 H13600 7.08392 65.5984 47.9965 H 0.0 **** 0.053
37 C13436 10.0204 59.5288 61.1783 C.2 0.0 **** 0.0
38 H13561 12.6946 58.3165 65.0104 H 0.0 **** 0.053
39 C13442 8.80046 63.8592 63.3622 C.3 0.0 **** -0.106
40 C13445 11.8022 62.2579 61.4986 C.3 0.0 **** -0.106
41 H13589 9.62247 65.4911 61.3233 H 0.0 **** 0.053
42 H13583 7.86093 63.5764 62.8494 H 0.0 **** 0.053
43 H13632 6.92671 60.3944 43.4126 H 0.0 **** 0.053
44 H13644 2.40372 52.3949 36.9213 H 0.0 **** 0.1268
45 C13407 15.4973 57.4127 65.6162 C.3 0.0 **** -0.053
46 C13489 7.63502 55.2389 50.7362 C.2 0.0 **** 0.0
47 C13482 4.63666 63.8826 47.5965 C.3 0.0 **** -0.053
48 C13509 4.98092 60.258 44.3484 C.3 0.0 **** -0.053
49 C13468 7.79367 57.1741 52.2746 C.2 0.0 **** 0.0
50 C13498 6.8096 55.485 48.4584 C.2 0.0 **** 0.0
51 H13641 5.34942 53.2498 43.4128 H 0.0 **** 0.1268
52 C13541 1.06391 57.8038 35.1372 C.2 0.0 **** -0.1268
53 H13614 11.7396 52.9836 53.4006 H 0.0 **** 0.053
54 C13444 10.5115 62.4675 62.2563 C.2 0.0 **** 0.0
55 C13540 1.58222 58.5014 36.2634 C.2 0.0 **** 0.0
56 C13543 3.2402 60.4024 39.7109 C.2 0.0 **** -0.1268
57 H13613 10.9264 54.0573 52.2537 H 0.0 **** 0.053
58 C13448 10.4826 64.9157 61.7114 C.3 0.0 **** -0.106
59 H13646 0.627018 58.3795 34.3284 H 0.0 **** 0.1268
60 H13584 12.4792 61.6569 62.1318 H 0.0 **** 0.053
61 C13546 1.97071 60.5564 37.5753 C.2 0.0 **** 0.0
62 C13518 4.86299 55.2627 42.7411 C.2 0.0 **** 0.0
63 C13492 9.58854 52.8704 53.4552 C.3 0.0 **** 0.107
64 C13423 10.171 58.113 60.831 C.2 0.0 **** 0.0
65 H13653 1.79535 62.8084 35.1877 H 0.0 **** 0.053
66 C13537 2.14378 57.7297 37.3236 C.2 0.0 **** 0.0
67 H13601 6.04277 66.9878 48.3213 H 0.0 **** 0.053
68 H13639 15.4517 64.2789 59.3606 H 0.0 **** 0.053
69 C13461 7.21085 61.3387 52.9564 C.2 0.0 **** -0.1268
70 H13647 0.710917 55.9225 34.1775 H 0.0 **** 0.1268
71 H13594 9.3463 55.124 55.5812 H 0.0 **** 0.1268
72 C13480 6.06719 65.8895 48.3169 C.3 0.0 **** -0.106
73 H13572 11.812 53.8757 59.2056 H 0.0 **** 0.053
74 H13555 14.6209 58.9486 64.3411 H 0.0 **** 0.053
75 C13494 10.9112 53.0436 52.6797 C.3 0.0 **** -0.106
76 C13511 4.61857 58.0845 42.983 C.2 0.0 **** 0.0
77 C13504 5.32432 59.3357 45.4879 C.2 0.0 **** 0.0
78 H13604 5.23589 62.8222 45.813 H 0.0 **** 0.053
79 C13405 16.1143 57.8578 63.1918 C.3 0.0 **** 0.054
80 C13497 8.89802 50.8419 52.0947 C.3 0.0 **** -0.106
81 H13643 3.48212 52.2798 39.1283 H 0.0 **** 0.1268
82 H13624 4.25544 60.9936 44.7281 H 0.0 **** 0.053
83 C13523 14.6045 64.49 60.0307 C.3 0.0 **** -0.159
84 H13634 13.9721 62.63 58.0502 H 0.0 **** 0.053
85 H13603 3.73765 63.8987 48.2358 H 0.0 **** 0.053
86 C13487 8.53084 54.9557 52.9971 C.2 0.0 **** 0.042
87 C13527 3.93216 53.983 40.3684 C.2 0.0 **** 0.0
88 H13623 5.47271 60.9483 46.8484 H 0.0 **** 0.1268
89 H13599 6.35069 65.8032 50.4894 H 0.0 **** 0.053
90 H13554 16.2823 59.2818 64.8522 H 0.0 **** 0.053
91 C13474 6.61672 56.885 48.7024 C.2 0.0 **** 0.0
92 C13454 8.16198 61.1287 55.1873 C.2 0.0 **** -0.1268
93 H13635 12.6644 63.8195 58.2225 H 0.0 **** 0.053
94 C13488 8.15229 54.4221 51.7748 C.2 0.0 **** 0.042
95 H13598 4.71739 65.4068 49.9492 H 0.0 **** 0.053
96 O13551 0.942863 60.413 34.1076 O.2 0.0 **** -0.419
97 H13556 16.5207 57.1954 65.9553 H 0.0 **** 0.053
98 C13420 10.7612 55.7907 61.4165 C.2 0.0 **** 0.0
99 H13578 9.04142 60.716 66.0991 H 0.0 **** 0.053
100 H13612 9.74015 52.271 54.3641 H 0.0 **** 0.053
101 C13473 6.13773 57.7111 47.6546 C.2 0.0 **** 0.0
102 C13519 3.8311 59.665 40.7124 C.2 0.0 **** 0.0
103 C13416 10.7257 56.5214 64.2258 C.3 0.0 **** 0.107
104 C13531 2.8603 54.1108 38.1715 C.2 0.0 **** 0.0
105 H13650 2.72999 62.5733 37.555 H 0.0 **** 0.053
106 H13636 12.3947 62.131 58.7068 H 0.0 **** 0.053
107 H13622 6.62917 53.8644 47.001 H 0.0 **** 0.1268
108 C13534 1.78294 54.2237 35.9905 C.2 0.0 **** -0.1268
109 H13626 5.70803 59.9869 41.565 H 0.0 **** 0.053
110 C13462 6.10675 61.572 50.7468 C.2 0.0 **** 0.0
111 C13505 5.57759 59.881 46.7331 C.2 0.0 **** -0.1268
112 C13411 13.4876 56.3396 64.4905 C.3 0.0 **** -0.053
113 C13472 5.94444 59.1107 47.8536 C.2 0.0 **** 0.0
114 C13427 10.7856 53.97 59.6081 C.3 0.0 **** -0.106
115 C13460 6.77718 60.7947 51.7374 C.2 0.0 **** 0.0
116 C13466 8.68158 56.9365 54.5821 C.2 0.0 **** 0.0
117 C13434 10.1295 58.9012 63.5432 C.2 0.0 **** 0.0
118 H13586 12.9468 64.0031 62.0058 H 0.0 **** 0.053
119 H13566 9.65017 56.3997 64.4216 H 0.0 **** 0.053
120 C13435 10.0822 59.9352 62.5127 C.2 0.0 **** 0.0
121 C13515 6.20826 61.0722 43.9003 C.3 0.0 **** -0.106
122 H13616 10.6281 52.3667 50.6331 H 0.0 **** 0.053
123 H13652 -0.301974 62.156 37.3384 H 0.0 **** 0.053
124 H13615 12.16 51.8477 51.3575 H 0.0 **** 0.053
125 H13569 12.7045 54.5583 65.3737 H 0.0 **** 0.053
126 H13638 14.0903 65.3843 59.644 H 0.0 **** 0.053
127 C13438 9.27056 61.5438 64.1493 C.2 0.0 **** 0.0
128 C13479 5.78613 65.2917 49.6996 C.3 0.0 **** -0.106
129 C13499 7.3078 54.6876 49.4886 C.2 0.0 **** -0.1268
130 C13477 6.16221 63.8051 49.6849 C.3 0.0 **** -0.053
131 H13582 8.69813 64.914 63.6614 H 0.0 **** 0.053
132 C13425 10.1569 56.342 59.1317 C.2 0.0 **** 0.232
133 C13452 8.6769 60.3658 56.2041 C.2 0.0 **** -0.012
134 C13457 8.49077 58.344 54.792 C.2 0.0 **** 0.0
135 C13437 9.91644 61.3139 62.969 C.2 0.0 **** 0.0
136 C13507 5.24941 55.9334 43.9169 C.2 0.0 **** 0.0265
137 C13502 6.49384 54.9319 47.1778 C.2 0.0 **** -0.1268
138 H13631 6.71968 61.4814 44.7846 H 0.0 **** 0.053
139 H13608 3.86501 66.1948 44.8157 H 0.0 **** 0.053
140 H13593 7.14246 62.4087 53.1261 H 0.0 **** 0.1268
141 C13467 9.18855 56.1891 55.6653 C.2 0.0 **** -0.1268
142 C13529 3.29175 56.1769 39.4387 C.2 0.0 **** 0.0
143 C13470 6.92484 57.4496 49.9681 C.2 0.0 **** 0.0
144 C13526 4.49566 53.2306 41.4518 C.2 0.0 **** -0.1268
145 H13617 10.8523 50.3235 52.9064 H 0.0 **** 0.053
146 H13591 9.49234 61.4732 60.3746 H 0.0 **** 0.1268
147 O13430 9.9748 55.9167 57.8297 O.3 0.0 **** -0.464
148 H13629 5.4595 63.0736 43.5392 H 0.0 **** 0.053
149 C13421 10.5298 57.1673 61.7756 C.2 0.0 **** 0.0
150 C13443 9.96873 63.6972 62.4209 C.2 0.0 **** 0.0
151 H13645 1.3832 53.7372 35.0987 H 0.0 **** 0.1268
152 H13580 8.11538 62.9818 65.2437 H 0.0 **** 0.053
153 H13590 10.9789 65.5875 62.4387 H 0.0 **** 0.053
154 C13412 12.6632 57.2847 65.4108 C.3 0.0 **** 0.107
155 H13649 1.62152 62.216 38.8826 H 0.0 **** 0.053
156 C13483 4.29595 63.1596 46.2828 C.3 0.0 **** -0.106
157 C13447 11.4504 64.5586 60.5833 C.3 0.0 **** -0.106
158 C13512 4.66324 60.2618 41.8141 C.3 0.0 **** -0.053
159 C13522 13.1367 62.9438 58.694 C.3 0.0 **** -0.159
160 C13503 5.43159 57.9503 45.309 C.2 0.0 **** 0.0
161 H13562 13.232 56.2663 67.2038 H 0.0 **** 0.053
162 H13609 4.97903 65.1084 43.9741 H 0.0 **** 0.053
163 C13533 2.34335 53.4821 36.9966 C.2 0.0 **** -0.1268
164 H13567 10.7161 54.387 64.328 H 0.0 **** 0.053
165 H13627 3.64635 62.0435 42.4472 H 0.0 **** 0.053
166 C13429 11.4919 53.4456 61.9497 C.3 0.0 **** -0.106
167 C13432 9.33321 58.1521 57.1243 C.2 0.0 **** 0.0
168 C13528 3.86682 55.409 40.4858 C.2 0.0 **** 0.0
169 C13501 6.02952 55.743 46.1796 C.2 0.0 **** 0.042
170 H13637 15.0047 64.7339 61.0275 H 0.0 **** 0.053
171 C13544 2.60783 59.7878 38.5984 C.2 0.0 **** 0.0
172 C13413 13.2272 57.2997 66.8214 C.3 0.0 **** -0.106
173 H13557 14.8822 55.3522 65.7964 H 0.0 **** 0.053
174 C13419 11.1928 54.8627 62.3508 C.2 0.0 **** 0.0
175 C13446 12.4974 63.5634 61.0958 C.3 0.0 **** -0.053
176 C13449 9.49473 60.0129 58.828 C.2 0.0 **** -0.012
177 H13602 4.13509 65.9711 47.3932 H 0.0 **** 0.053
178 C13484 3.56792 64.084 45.3084 C.3 0.0 **** -0.106
179 H13640 5.3057 63.2901 52.7607 H 0.0 **** 0.41
180 C13510 4.32444 59.5529 43.139 C.3 0.0 **** -0.053
181 C13463 5.84282 61.0129 49.5107 C.2 0.0 **** 0.042
182 H13633 14.2073 62.4303 60.487 H 0.0 **** 0.053
183 H13607 3.27409 63.5355 44.3992 H 0.0 **** 0.053
184 H13654 0.0640559 62.6339 34.876 H 0.0 **** 0.053
185 H13568 13.3361 54.3122 63.7394 H 0.0 **** 0.053
186 C13409 15.8766 55.6166 63.8921 C.3 0.0 **** 0.054
187 H13642 4.55324 52.1455 41.3496 H 0.0 **** 0.1268
188 H13630 6.64403 62.526 42.3479 H 0.0 **** 0.053
189 C13549 0.8777 62.2981 35.5345 C.3 0.0 **** -0.086
190 C13513 4.62283 61.7729 42.0107 C.3 0.0 **** -0.106
191 H13619 8.48906 50.0774 52.7721 H 0.0 **** 0.053
192 H13565 14.5964 58.9856 66.818 H 0.0 **** 0.053
193 H13595 6.59048 62.9816 47.709 H 0.0 **** 0.053
194 C13548 0.64085 62.617 37.0013 C.3 0.0 **** -0.106
195 H13625 3.22599 59.6314 43.2636 H 0.0 **** 0.053
196 C13471 7.45382 56.6306 50.9995 C.2 0.0 **** 0.0
197 C13535 1.70055 55.647 36.079 C.2 0.0 **** 0.0
198 C13431 9.49291 56.7773 56.8734 C.2 0.0 **** 0.232
199 O13493 9.09978 54.1344 53.9446 O.3 0.0 **** -0.202
200 C13532 3.43313 53.3674 39.2159 C.2 0.0 **** -0.1268
201 O13524 5.81351 63.7234 52.0575 O.3 0.0 **** -0.57
202 C13414 14.6514 57.8845 66.8264 C.3 0.0 **** -0.106
203 C13514 5.77882 62.204 42.9476 C.3 0.0 **** -0.106
204 C13406 15.6049 58.4838 64.5113 C.3 0.0 **** -0.106
205 C13539 3.23182 57.6026 39.5387 C.2 0.0 **** 0.0
206 C13408 14.9252 56.1219 65.0077 C.3 0.0 **** -0.053
207 O13490 8.27128 53.0846 51.4749 O.3 0.0 **** -0.202
208 H13558 15.2793 55.2444 63.0335 H 0.0 **** 0.053
209 C13439 8.85943 60.4227 65.0467 C.3 0.0 **** -0.106
210 C13441 8.99722 62.9567 64.5837 C.3 0.0 **** -0.106
211 C13481 5.05098 65.3628 47.2991 C.3 0.0 **** 0.134
212 C13433 9.61662 58.6332 58.4556 C.2 0.0 **** 0.0
213 H13574 9.56364 52.9876 61.0952 H 0.0 **** 0.053
214 C13428 10.6184 52.9969 60.7757 C.3 0.0 **** -0.106
215 H13575 12.5575 53.3486 61.6601 H 0.0 **** 0.053
216 C13542 1.12166 56.4282 35.0539 C.2 0.0 **** -0.1268
217 H13611 7.56706 52.1845 53.1988 H 0.0 **** 0.053
218 O13506 5.7366 55.1686 44.952 O.3 0.0 **** -0.0685
219 H13563 12.564 57.8825 67.4767 H 0.0 **** 0.053
220 O13410 16.7907 56.6188 63.4308 O.3 0.0 **** -0.32
221 H13618 10.6392 49.8871 51.2085 H 0.0 **** 0.053
222 H13579 9.54281 58.3606 65.514 H 0.0 **** 0.1268
223 N13486 5.52731 65.5713 45.9311 N.3 0.0 **** -0.727
224 O13475 5.15422 61.8012 48.6141 O.3 0.0 **** -0.202
225 H13581 9.85313 63.3264 65.1843 H 0.0 **** 0.053
226 C13465 6.68844 58.8448 50.2038 C.2 0.0 **** 0.0
227 C13547 1.7951 62.04 37.8117 C.3 0.0 **** -0.106
228 O13415 11.2889 56.8778 65.4996 O.3 0.0 **** -0.32
229 C13521 13.6441 63.2981 60.0978 C.3 0.0 **** -0.053
230 H13606 2.63821 64.4419 45.779 H 0.0 **** 0.053
231 C13426 10.5538 55.3967 60.0365 C.2 0.0 **** 0.0
232 H13597 4.47841 62.9425 50.6814 H 0.0 **** 0.053
233 H13552 16.8435 58.508 62.6896 H 0.0 **** 0.053
234 S13453 9.18486 61.2527 57.6328 S.2 0.0 **** 0.024
235 C13455 7.77036 60.5456 53.9534 C.2 0.0 **** 0.0
236 H13571 10.1098 53.7133 58.7797 H 0.0 **** 0.053
237 C13517 4.34808 56.048 41.6623 C.2 0.0 **** 0.0
238 H13560 13.5573 56.7878 63.4865 H 0.0 **** 0.053
239 C13550 1.08653 60.8133 35.2638 C.2 0.0 **** 0.347
240 H13648 3.30099 61.4863 39.7576 H 0.0 **** 0.1268
241 C13508 5.11018 57.3257 44.0486 C.2 0.0 **** 0.0
242 C13450 9.66724 60.4266 60.1261 C.2 0.0 **** -0.1268
243 C13418 12.7574 55.0049 64.3683 C.3 0.0 **** -0.106
244 C13424 9.96518 57.719 59.4573 C.2 0.0 **** 0.0
245 H13585 11.6332 61.6416 60.6025 H 0.0 **** 0.053
246 C13478 5.5737 62.9975 50.8507 C.3 0.0 **** 0.107
247 C13496 10.4242 50.6703 51.9502 C.3 0.0 **** -0.106
248 C13464 6.15968 59.6645 49.1675 C.2 0.0 **** 0.0
249 C13520 3.75895 58.2446 40.6783 C.2 0.0 **** 0.0
250 H13587 10.8871 64.0946 59.7572 H 0.0 **** 0.053
@<TRIPOS>BOND
1 214 213 1
2 130 25 1
3 189 194 1
4 45 204 1
5 206 45 1
6 186 206 1
7 220 186 1
8 79 204 1
9 79 220 1
10 154 112 1
11 172 154 1
12 202 172 1
13 206 112 1
14 45 202 1
15 103 228 1
16 20 103 1
17 243 20 1
18 154 228 1
19 112 243 1
20 98 174 un
21 149 98 un
22 12 149 un
23 20 174 1
24 103 12 1
25 244 64 1
26 132 244 un
27 231 132 un
28 149 64 un
29 98 231 un
30 214 114 1
31 166 214 1
32 174 166 1
33 231 114 1
34 198 147 1
35 167 198 un
36 212 167 un
37 132 147 1
38 244 212 un
39 120 117 un
40 37 120 2
41 12 117 1
42 64 37 un
43 127 135 2
44 209 127 1
45 4 209 1
46 120 135 1
47 117 4 2
48 39 210 1
49 150 39 1
50 54 150 2
51 127 210 1
52 135 54 1
53 175 40 1
54 157 175 1
55 58 157 1
56 54 40 1
57 150 58 1
58 242 176 un
59 37 242 un
60 212 176 un
61 133 18 un
62 234 133 1
63 176 234 un
64 167 18 un
65 235 92 un
66 17 235 un
67 134 17 un
68 133 92 un
69 18 134 un
70 19 33 un
71 115 19 un
72 69 115 un
73 17 33 un
74 235 69 un
75 181 110 un
76 248 181 un
77 226 248 un
78 115 110 un
79 19 226 un
80 141 116 un
81 198 141 un
82 134 116 un
83 11 49 un
84 116 11 un
85 33 49 un
86 196 143 un
87 49 196 un
88 226 143 un
89 101 113 un
90 91 101 un
91 143 91 un
92 248 113 un
93 25 224 1
94 246 130 1
95 181 224 1
96 110 246 1
97 72 128 1
98 211 72 1
99 47 211 1
100 130 128 1
101 25 47 1
102 178 156 1
103 31 178 1
104 223 31 1
105 47 156 1
106 211 223 1
107 94 86 un
108 46 94 un
109 196 46 un
110 11 86 un
111 32 207 1
112 63 32 1
113 199 63 1
114 94 207 1
115 86 199 1
116 24 75 1
117 247 24 1
118 80 247 1
119 63 75 1
120 32 80 1
121 129 50 un
122 46 129 un
123 91 50 un
124 169 23 un
125 137 169 un
126 50 137 un
127 101 23 un
128 77 160 un
129 111 77 un
130 113 111 un
131 23 160 un
132 136 218 1
133 241 136 un
134 169 218 1
135 160 241 1
136 180 48 1
137 76 180 1
138 77 48 1
139 241 76 un
140 190 158 1
141 203 190 1
142 121 203 1
143 180 158 1
144 48 121 1
145 237 3 1
146 62 237 1
147 136 62 un
148 76 3 un
149 158 102 1
150 3 249 un
151 102 249 un
152 175 229 1
153 229 159 1
154 229 83 1
155 246 201 1
156 144 13 1
157 87 144 un
158 168 87 1
159 62 13 un
160 237 168 un
161 9 142 un
162 104 9 1
163 200 104 un
164 168 142 un
165 87 200 un
166 108 163 un
167 197 108 1
168 22 197 1
169 104 163 un
170 9 22 un
171 5 66 un
172 205 5 un
173 142 205 un
174 22 66 un
175 52 55 un
176 216 52 un
177 197 216 un
178 66 55 un
179 171 56 un
180 5 171 un
181 249 205 un
182 102 56 un
183 61 16 un
184 171 61 un
185 55 16 un
186 194 227 1
187 239 189 1
188 61 227 1
189 16 239 1
190 239 96 2
191 79 233 1
192 79 15 1
193 204 90 1
194 204 74 1
195 45 97 1
196 206 173 1
197 186 208 1
198 186 28 1
199 112 238 1
200 154 38 1
201 172 161 1
202 172 219 1
203 202 14 1
204 202 192 1
205 103 119 1
206 20 164 1
207 243 185 1
208 243 125 1
209 12 29 1
210 114 236 1
211 114 73 1
212 214 30 1
213 166 215 1
214 166 6 1
215 209 26 1
216 209 99 1
217 4 222 1
218 210 152 1
219 210 225 1
220 39 131 1
221 39 42 1
222 40 60 1
223 40 245 1
224 175 118 1
225 157 250 1
226 157 27 1
227 58 41 1
228 58 153 1
229 242 146 1
230 92 10 1
231 69 140 1
232 141 71 1
233 25 193 1
234 130 35 1
235 246 232 1
236 128 95 1
237 128 89 1
238 72 36 1
239 72 67 1
240 211 177 1
241 47 85 1
242 156 78 1
243 156 34 1
244 178 230 1
245 178 183 1
246 31 139 1
247 31 162 1
248 223 7 1
249 32 217 1
250 63 100 1
251 75 57 1
252 75 53 1
253 24 124 1
254 24 122 1
255 247 145 1
256 247 221 1
257 80 191 1
258 80 8 1
259 129 21 1
260 137 107 1
261 111 88 1
262 48 82 1
263 180 195 1
264 158 109 1
265 190 165 1
266 190 2 1
267 203 148 1
268 203 188 1
269 121 138 1
270 121 43 1
271 229 182 1
272 159 84 1
273 159 93 1
274 159 106 1
275 83 170 1
276 83 126 1
277 83 68 1
278 201 179 1
279 13 51 1
280 144 187 1
281 200 81 1
282 163 44 1
283 108 151 1
284 52 59 1
285 216 70 1
286 56 240 1
287 227 155 1
288 227 105 1
289 194 1 1
290 194 123 1
291 189 65 1
292 189 184 1
@<TRIPOS>MOLECULE
Sketch 4
250 292
SMALL
USER_CHARGES


@<TRIPOS>ATOM
1 H26133 4.25629 62.9801 -2.27092 H 0.0 **** 0.053
2 H26062 -3.97192 64.6916 -5.93557 H 0.0 **** 0.053
3 C25942 1.81886 57.3686 -3.72453 C.3 0.0 **** -0.106
4 H26091 1.53085 59.4525 -0.457698 H 0.0 **** 0.1268
5 H26096 6.99323 57.3543 8.94675 H 0.0 **** 0.053
6 C25929 -4.65475 65.1266 0.223568 C.3 0.0 **** -0.106
7 H26113 -0.179382 65.2117 8.86471 H 0.0 **** 0.053
8 H26150 9.47152 55.1869 21.5973 H 0.0 **** 0.053
9 H26142 0.341839 61.7372 21.1459 H 0.0 **** 0.1268
10 C26030 3.60863 58.7701 23.28 C.2 0.0 **** 0.0
11 C26048 8.85414 53.4302 22.6955 C.3 0.0 **** -0.106
12 H26070 -1.43234 63.11 -2.43822 H 0.0 **** 0.053
13 H26080 0.00995446 57.0614 -4.91305 H 0.0 **** 0.053
14 C25962 4.36411 57.3849 9.12684 C.2 0.0 **** 0.0
15 H26088 5.81637 59.5073 -2.34183 H 0.0 **** 0.053
16 C25923 -1.03747 61.7108 0.0558118 C.2 0.0 **** 0.0
17 C25987 -0.817738 62.6379 8.60691 C.2 0.0 **** 0.042
18 C25977 6.61888 56.3857 9.31491 C.3 0.0 **** -0.053
19 H26134 5.37764 62.8984 -0.0871102 H 0.0 **** 0.053
20 C26008 3.50151 59.3161 16.8351 C.2 0.0 **** 0.0
21 H26079 -3.15486 60.6217 -4.03287 H 0.0 **** 0.1268
22 C25936 -0.13295 60.8258 -0.683533 C.2 0.0 **** 0.0
23 C25985 9.14468 54.6216 13.5653 C.3 0.0 **** 0.081
24 H26137 6.18468 62.4329 -3.75985 H 0.0 **** 0.053
25 C25945 2.6493 60.9218 -2.40833 C.3 0.0 **** -0.106
26 H26092 3.69606 58.2916 4.25693 H 0.0 **** 0.1268
27 C26047 8.53747 54.6379 21.8219 C.3 0.0 **** -0.106
28 C26046 7.54163 55.5688 22.4772 C.2 0.0 **** 0.0
29 C25927 -3.51961 64.4676 2.35284 C.3 0.0 **** -0.106
30 C25946 4.15575 60.884 -2.68929 C.3 0.0 **** -0.053
31 O26051 8.50237 55.0794 25.9326 O.2 0.0 **** -0.419
32 H26143 0.959727 60.9554 23.4057 H 0.0 **** 0.1268
33 H26108 9.65331 53.6427 13.5534 H 0.0 **** 0.053
34 H26075 -4.14921 66.1128 0.200386 H 0.0 **** 0.053
35 H26095 7.013 57.3527 11.232 H 0.0 **** 0.053
36 H26135 5.68439 61.1568 -0.25235 H 0.0 **** 0.053
37 C25964 3.56662 58.5501 11.162 C.2 0.0 **** 0.0
38 H26131 7.15772 58.4968 14.3125 H 0.0 **** 0.053
39 C26002 0.832717 61.4389 14.4252 C.2 0.0 **** -0.1268
40 C25994 -1.17417 65.6789 8.82662 C.3 0.0 **** -0.106
41 C26012 6.60967 57.6344 17.9862 C.3 0.0 **** -0.053
42 C25905 0.272324 66.7038 -3.72776 C.3 0.0 **** 0.054
43 C25918 -3.93522 65.1896 -2.83598 C.3 0.0 **** -0.106
44 C26017 3.20617 59.5359 19.6229 C.2 0.0 **** 0.0
45 C25911 -2.61991 65.119 -3.607 C.3 0.0 **** -0.053
46 H26126 6.94781 58.6903 17.9924 H 0.0 **** 0.053
47 C26032 1.76129 60.3488 22.9784 C.2 0.0 **** -0.1268
48 C26007 2.51664 60.1596 17.3769 C.2 0.0 **** 0.0265
49 H26146 6.66147 55.8304 26.5076 H 0.0 **** 0.1268
50 H26144 1.55297 60.1759 25.6612 H 0.0 **** 0.1268
51 H26125 4.86305 56.5976 17.324 H 0.0 **** 0.053
52 H26053 0.0812067 66.1361 -2.79506 H 0.0 **** 0.053
53 H26097 4.7808 55.2983 9.20862 H 0.0 **** 0.053
54 H26076 -5.61818 65.2713 -0.293924 H 0.0 **** 0.053
55 C25982 6.93935 55.2327 11.6089 C.3 0.0 **** -0.053
56 C25937 0.453467 59.6605 -2.85196 C.2 0.0 **** 0.0
57 C25944 1.93224 59.6431 -2.77515 C.2 0.0 **** 0.0
58 H26063 -3.09765 63.2689 -6.52236 H 0.0 **** 0.053
59 C26034 3.14119 58.794 26.0667 C.2 0.0 **** -0.1268
60 C25959 2.70693 59.2033 8.93087 C.2 0.0 **** 0.0
61 H26059 -2.44342 68.5152 -3.77128 H 0.0 **** 0.053
62 C25999 -0.0213093 62.0492 12.198 C.2 0.0 **** -0.1268
63 C26004 4.55555 58.3392 14.8121 C.2 0.0 **** 0.0
64 H26078 -1.76057 58.9345 -5.19534 H 0.0 **** 0.053
65 H26102 8.46645 53.7537 11.2414 H 0.0 **** 0.053
66 H26068 -3.96139 66.0957 -2.21269 H 0.0 **** 0.053
67 H26124 5.74211 56.6466 15.254 H 0.0 **** 0.053
68 C25920 -2.87854 63.3505 0.133198 C.2 0.0 **** 0.0
69 H26061 -1.62155 63.3824 -4.4985 H 0.0 **** 0.053
70 H26074 -5.46909 63.7915 1.71103 H 0.0 **** 0.053
71 H26098 7.15304 54.3076 8.97006 H 0.0 **** 0.053
72 H26105 5.73633 55.377 13.4152 H 0.0 **** 0.053
73 C25979 7.62817 55.3022 8.91625 C.3 0.0 **** -0.106
74 H26056 -1.28459 67.1388 -6.09997 H 0.0 **** 0.053
75 C25908 -2.40302 66.4116 -4.42193 C.3 0.0 **** -0.053
76 C26041 6.03956 56.4248 25.8469 C.2 0.0 **** -0.1268
77 C26011 4.35701 58.6045 17.6806 C.2 0.0 **** 0.0
78 C25914 -1.91918 65.11 -6.55764 C.3 0.0 **** -0.106
79 C25935 -0.367557 60.5493 -2.03189 C.2 0.0 **** 0.0
80 C26027 1.95873 60.3553 21.5937 C.2 0.0 **** 0.0
81 C26035 4.19375 57.9871 25.5364 C.2 0.0 **** 0.0
82 C25921 -2.04484 62.4155 -0.579678 C.2 0.0 **** 0.0
83 H26071 -3.6501 64.097 3.37975 H 0.0 **** 0.053
84 C25956 1.91737 59.9266 6.70802 C.2 0.0 **** 0.0
85 H26115 -1.00915 67.478 10.0406 H 0.0 **** 0.053
86 H26101 9.68203 54.7785 9.50741 H 0.0 **** 0.053
87 O25910 -0.52322 67.8941 -3.72756 O.3 0.0 **** -0.32
88 H26121 -0.731317 62.7327 12.6611 H 0.0 **** 0.1268
89 C26014 8.12912 57.4902 15.9933 C.3 0.0 **** -0.106
90 H26132 6.98505 59.3548 15.8426 H 0.0 **** 0.053
91 H26085 2.48053 61.1744 -1.35043 H 0.0 **** 0.053
92 H26058 -2.08411 67.3427 -2.46636 H 0.0 **** 0.053
93 C26050 8.37586 54.8921 24.7215 C.2 0.0 **** 0.347
94 H26069 -4.75028 65.2817 -3.57105 H 0.0 **** 0.053
95 C25949 1.05135 60.3426 1.41369 C.2 0.0 **** -0.012
96 C25917 -4.18518 63.9265 -1.96053 C.3 0.0 **** -0.053
97 H26148 7.89387 56.0308 19.8203 H 0.0 **** 0.1268
98 C26023 6.25558 62.3065 -2.66797 C.3 0.0 **** -0.159
99 C26045 7.37916 55.6086 23.8686 C.2 0.0 **** 0.052
100 H26117 -3.45108 67.0003 9.54977 H 0.0 **** 0.053
101 H26116 -0.937396 65.9695 10.9682 H 0.0 **** 0.053
102 C26031 2.56058 59.5739 23.8341 C.2 0.0 **** 0.0
103 H26154 9.54861 53.122 24.7625 H 0.0 **** 0.053
104 H26138 6.91223 61.4447 -2.46873 H 0.0 **** 0.053
105 C25926 -2.67657 63.5004 1.56128 C.2 0.0 **** 0.0
106 H26060 -1.79698 65.0404 -2.87865 H 0.0 **** 0.053
107 H26140 4.50196 55.6381 6.98694 H 0.0 **** 0.41
108 C25996 -2.94235 66.544 10.4162 C.3 0.0 **** -0.106
109 C26013 7.70244 56.8085 17.3174 C.3 0.0 **** -0.106
110 C25951 1.13576 60.5849 4.4473 C.2 0.0 **** 0.0
111 C25997 -3.52246 65.1393 10.6804 C.3 0.0 **** -0.106
112 C25976 6.46144 56.4717 10.8537 C.3 0.0 **** 0.107
113 C25941 0.655448 57.8876 -4.57446 C.3 0.0 **** -0.106
114 H26151 9.60503 52.7878 22.211 H 0.0 **** 0.053
115 C25950 0.885901 60.1602 0.0626891 C.2 0.0 **** -0.1268
116 H26149 8.1349 54.3022 20.8559 H 0.0 **** 0.053
117 C26028 3.00819 59.5588 21.0316 C.2 0.0 **** 0.0
118 H26081 1.05203 58.3749 -5.48834 H 0.0 **** 0.053
119 C26043 7.03034 56.538 20.2421 C.2 0.0 **** -0.1268
120 C26044 6.7592 56.4135 21.63 C.2 0.0 **** 0.0
121 H26072 -2.97941 65.4292 2.44142 H 0.0 **** 0.053
122 H26114 -1.18196 66.3517 7.95662 H 0.0 **** 0.053
123 H26112 -3.02198 64.9209 7.92295 H 0.0 **** 0.053
124 C26042 5.01194 57.1858 26.3639 C.2 0.0 **** -0.1268
125 C26021 4.8721 62.09 -2.04617 C.3 0.0 **** -0.053
126 C26037 5.48835 57.1865 23.5957 C.2 0.0 **** 0.0
127 O26006 1.66789 60.8732 16.5621 O.3 0.0 **** -0.0685
128 O26024 5.36915 55.9141 7.32163 O.3 0.0 **** -0.57
129 C26033 2.35476 59.5609 25.2484 C.2 0.0 **** -0.1268
130 C25931 -0.65686 62.1749 4.2446 C.2 0.0 **** 0.232
131 H26127 7.30834 55.7962 17.1247 H 0.0 **** 0.053
132 C25939 -1.61108 59.0249 -4.10161 C.3 0.0 **** -0.106
133 C25963 4.34839 57.558 10.4979 C.2 0.0 **** 0.042
134 C25948 4.09539 58.4148 -3.09683 C.3 0.0 **** -0.106
135 H26093 4.43061 57.6251 6.41178 H 0.0 **** 0.1268
136 H26122 0.122899 62.117 14.9001 H 0.0 **** 0.1268
137 H26090 4.52192 58.4288 -4.11883 H 0.0 **** 0.053
138 O25975 5.06919 56.6478 11.2406 O.3 0.0 **** -0.202
139 C25981 8.41796 54.856 11.2582 C.3 0.0 **** 0.134
140 C26036 4.43046 57.9787 24.1359 C.2 0.0 **** 0.0
141 C25943 2.60143 58.535 -3.17303 C.2 0.0 **** 0.0
142 C25960 3.60331 58.2654 8.3018 C.2 0.0 **** 0.0
143 C25978 5.21895 56.1905 8.71515 C.3 0.0 **** 0.107
144 C25907 -1.40235 66.1842 -5.5667 C.3 0.0 **** -0.053
145 H26084 2.18687 61.7502 -2.97424 H 0.0 **** 0.053
146 C25992 -2.21561 64.5672 8.58106 C.3 0.0 **** 0.107
147 C26026 1.13135 61.1233 20.7089 C.2 0.0 **** -0.1268
148 C25922 -2.14328 62.335 -2.08651 C.3 0.0 **** -0.053
149 H26103 6.28842 54.3984 11.297 H 0.0 **** 0.053
150 C26015 7.00116 58.3498 15.3918 C.3 0.0 **** -0.106
151 C26029 3.82707 58.7697 21.8822 C.2 0.0 **** 0.0
152 C26049 9.34344 53.9291 24.0449 C.3 0.0 **** -0.086
153 C25984 7.64057 54.4246 13.9054 C.3 0.0 **** -0.106
154 H26067 -5.27992 63.7658 -1.99048 H 0.0 **** 0.053
155 C25940 -2.21358 60.2974 -3.59228 C.2 0.0 **** -0.1268
156 H26107 7.47769 54.537 14.9892 H 0.0 **** 0.053
157 C25980 8.82514 55.3619 9.87104 C.3 0.0 **** -0.106
158 C25958 1.85627 60.019 8.12333 C.2 0.0 **** 0.0
159 C25971 0.919292 61.0421 10.1535 C.2 0.0 **** 0.0
160 H26147 4.81862 57.1735 27.4387 H 0.0 **** 0.1268
161 C25968 0.938087 60.9383 8.73023 C.2 0.0 **** 0.0
162 C25995 -1.43907 66.4693 10.1263 C.3 0.0 **** -0.106
163 C25947 4.71926 59.5268 -2.25373 C.3 0.0 **** -0.106
164 C26018 2.33383 60.2797 18.7676 C.2 0.0 **** 0.0
165 C25970 1.79148 60.2647 10.9593 C.2 0.0 **** 0.0
166 C25991 -2.82367 64.0443 9.87168 C.3 0.0 **** 0.107
167 C25989 0.0102659 61.9332 10.8006 C.2 0.0 **** 0.0
168 C26020 5.12219 57.9977 19.9439 C.2 0.0 **** 0.0
169 O25990 -1.74503 63.5123 10.6711 O.3 0.0 **** -0.202
170 C25998 0.846429 61.3091 13.001 C.2 0.0 **** 0.0
171 H26073 -5.43102 65.4927 2.22616 H 0.0 **** 0.053
172 C25916 -3.54199 62.6907 -2.61484 C.3 0.0 **** 0.107
173 C25938 -0.156122 58.8838 -3.79438 C.2 0.0 **** 0.0
174 H26099 7.92967 55.4508 7.87167 H 0.0 **** 0.053
175 C26022 4.98755 61.9656 -0.521359 C.3 0.0 **** -0.159
176 H26111 -3.51133 63.2148 9.63684 H 0.0 **** 0.053
177 C25965 2.69164 59.3272 10.3521 C.2 0.0 **** 0.0
178 H26094 -1.46388 63.0135 5.9969 H 0.0 **** 0.1268
179 C25928 -4.87103 64.7167 1.68227 C.3 0.0 **** -0.106
180 O25930 -1.54931 62.9402 3.53386 O.3 0.0 **** -0.464
181 C25966 0.122472 61.6086 6.48196 C.2 0.0 **** 0.0
182 C26038 5.71267 57.1968 22.1898 C.2 0.0 **** 0.0
183 H26119 -4.59821 65.1197 10.4504 H 0.0 **** 0.053
184 H26057 -3.37493 66.6971 -4.85797 H 0.0 **** 0.053
185 H26086 4.29878 60.9601 -3.78343 H 0.0 **** 0.053
186 H26066 -4.18389 61.8165 -2.43171 H 0.0 **** 0.053
187 C25919 -3.83632 64.1092 -0.520545 C.2 0.0 **** 0.0
188 C25906 -0.0261456 65.8283 -4.96741 C.3 0.0 **** -0.106
189 C26016 4.24521 58.7327 19.0733 C.2 0.0 **** 0.0
190 H26136 4.02123 61.7466 -0.0421347 H 0.0 **** 0.053
191 C26003 3.58313 59.1563 15.4034 C.2 0.0 **** 0.0
192 C25969 0.0722232 61.7358 7.92348 C.2 0.0 **** 0.0
193 C25952 2.12637 59.7018 3.88595 C.2 0.0 **** -0.012
194 C26000 2.66351 59.8338 14.5887 C.2 0.0 **** 0.0
195 C25972 3.60992 58.7691 12.5866 C.2 0.0 **** 0.0
196 H26065 -1.0676 64.5003 -6.90171 H 0.0 **** 0.053
197 H26130 9.01594 58.119 16.1669 H 0.0 **** 0.053
198 H26087 4.47174 59.3582 -1.19291 H 0.0 **** 0.053
199 H26120 -3.4169 64.8704 11.7426 H 0.0 **** 0.053
200 C26025 1.30441 61.0868 19.3532 C.2 0.0 **** -0.1268
201 C25988 -0.868322 62.6987 9.99105 C.2 0.0 **** 0.042
202 C25912 -2.62636 63.8474 -4.50287 C.3 0.0 **** 0.107
203 C26019 6.26234 57.3292 19.4175 C.2 0.0 **** 0.0
204 C25932 0.25343 61.3119 3.60793 C.2 0.0 **** 0.0
205 H26123 5.30128 57.5169 13.0118 H 0.0 **** 0.1268
206 C25909 -1.90885 67.5843 -3.53559 C.3 0.0 **** 0.054
207 C26005 4.5518 58.1633 13.4405 C.2 0.0 **** -0.1268
208 C25957 1.06313 60.7061 5.88025 C.2 0.0 **** 0.0
209 C25983 6.79496 55.4312 13.127 C.3 0.0 **** -0.106
210 H26100 9.16958 56.4086 9.95474 H 0.0 **** 0.053
211 C26001 1.71178 60.7178 15.1849 C.2 0.0 **** 0.042
212 O25993 -1.63801 63.4581 7.86508 O.3 0.0 **** -0.202
213 C25925 -1.70322 62.7597 2.17262 C.2 0.0 **** 0.232
214 H26082 2.47928 56.714 -4.31447 H 0.0 **** 0.053
215 H26055 -0.0049748 64.7652 -4.6796 H 0.0 **** 0.053
216 N25986 9.38401 55.2805 12.2723 N.3 0.0 **** -0.727
217 C26040 6.32177 56.4081 24.4527 C.2 0.0 **** 0.0
218 C25934 -1.61556 61.0253 -2.62284 C.2 0.0 **** 0.0
219 H26089 4.35232 57.4207 -2.68755 H 0.0 **** 0.053
220 C25973 2.67176 59.6688 13.1752 C.2 0.0 **** 0.0
221 C26009 5.63612 57.6774 15.6253 C.3 0.0 **** -0.053
222 C25924 -0.837541 61.8614 1.4778 C.2 0.0 **** 0.0
223 H26054 0.746295 65.9674 -5.7392 H 0.0 **** 0.053
224 H26104 7.13515 56.4495 13.3825 H 0.0 **** 0.053
225 H26129 8.42245 56.7185 15.2676 H 0.0 **** 0.053
226 H26077 -2.16894 58.1558 -3.68808 H 0.0 **** 0.053
227 H26128 8.57529 56.6922 17.9754 H 0.0 **** 0.053
228 H26083 1.41699 56.7574 -2.8935 H 0.0 **** 0.053
229 H26145 2.97453 58.7827 27.1456 H 0.0 **** 0.1268
230 C25913 -2.98908 64.1932 -5.93709 C.3 0.0 **** -0.106
231 H26152 7.93874 52.8302 22.8263 H 0.0 **** 0.053
232 C25967 -0.725073 62.3258 5.61236 C.2 0.0 **** -0.1268
233 H26153 10.2913 54.4833 23.9138 H 0.0 **** 0.053
234 H26141 0.655614 61.6645 18.6951 H 0.0 **** 0.1268
235 C25961 3.68712 58.2467 6.9009 C.2 0.0 **** -0.1268
236 O25915 -3.57512 62.8737 -4.04045 O.3 0.0 **** -0.32
237 H26110 9.33092 56.2939 12.3825 H 0.0 **** 0.353
238 C25933 0.174141 61.1868 2.17194 C.2 0.0 **** 0.0
239 S25953 2.42192 59.5519 2.16084 S.2 0.0 **** 0.024
240 C25954 2.9538 58.9639 4.69331 C.2 0.0 **** -0.1268
241 H26106 7.32059 53.4045 13.6392 H 0.0 **** 0.053
242 C26010 5.32519 57.5874 17.1373 C.3 0.0 **** -0.053
243 C25974 1.7654 60.4056 12.3719 C.2 0.0 **** 0.0
244 C26039 4.88612 57.9796 21.3341 C.2 0.0 **** 0.0
245 H26118 -3.14638 67.196 11.2782 H 0.0 **** 0.053
246 H26052 1.31817 67.0395 -3.71083 H 0.0 **** 0.053
247 H26109 9.63749 55.227 14.3405 H 0.0 **** 0.053
248 H26064 -2.33887 65.5935 -7.45256 H 0.0 **** 0.053
249 H26139 6.74352 63.1992 -2.24792 H 0.0 **** 0.053
250 C25955 2.86354 59.04 6.10816 C.2 0.0 **** 0.0
@<TRIPOS>BOND
1 28 27 1
2 56 57 1
3 120 119 un
4 207 205 1
5 109 227 1
6 23 247 1
7 144 188 1
8 75 144 1
9 206 75 1
10 87 206 1
11 42 188 1
12 42 87 1
13 202 45 1
14 230 202 1
15 78 230 1
16 75 45 1
17 144 78 1
18 172 236 1
19 96 172 1
20 43 96 1
21 202 236 1
22 45 43 1
23 68 187 un
24 82 68 un
25 148 82 un
26 96 187 1
27 172 148 1
28 222 16 1
29 213 222 un
30 105 213 un
31 82 16 un
32 68 105 un
33 179 29 1
34 6 179 1
35 187 6 1
36 105 29 1
37 130 180 1
38 204 130 un
39 238 204 un
40 213 180 1
41 222 238 un
42 79 218 un
43 22 79 2
44 148 218 1
45 16 22 un
46 173 56 2
47 132 173 1
48 155 132 1
49 79 56 1
50 218 155 2
51 3 113 1
52 141 3 1
53 57 141 2
54 173 113 1
55 30 25 1
56 163 30 1
57 134 163 1
58 57 25 1
59 141 134 1
60 115 95 un
61 22 115 un
62 238 95 un
63 193 110 un
64 239 193 1
65 95 239 un
66 204 110 un
67 250 240 un
68 84 250 un
69 208 84 un
70 193 240 un
71 110 208 un
72 60 158 un
73 142 60 un
74 235 142 un
75 84 158 un
76 250 235 un
77 133 14 un
78 37 133 un
79 177 37 un
80 142 14 un
81 60 177 un
82 232 181 un
83 130 232 un
84 208 181 un
85 192 161 un
86 181 192 un
87 158 161 un
88 159 165 un
89 161 159 un
90 177 165 un
91 220 195 un
92 243 220 un
93 165 243 un
94 37 195 un
95 112 138 1
96 18 112 1
97 143 18 1
98 133 138 1
99 14 143 1
100 157 73 1
101 139 157 1
102 55 139 1
103 18 73 1
104 112 55 1
105 153 209 1
106 23 153 1
107 216 23 1
108 55 209 1
109 139 216 1
110 201 17 un
111 167 201 un
112 159 167 un
113 192 17 un
114 166 169 1
115 146 166 1
116 212 146 1
117 201 169 1
118 17 212 1
119 162 40 1
120 108 162 1
121 111 108 1
122 146 40 1
123 166 111 1
124 62 170 un
125 167 62 un
126 243 170 un
127 211 194 un
128 39 211 un
129 170 39 un
130 220 194 un
131 63 191 un
132 207 63 un
133 195 207 un
134 194 191 un
135 48 127 1
136 20 48 un
137 211 127 1
138 191 20 1
139 242 221 1
140 77 242 1
141 63 221 1
142 20 77 un
143 109 41 1
144 89 109 1
145 150 89 1
146 242 41 1
147 221 150 1
148 44 189 1
149 164 44 1
150 48 164 un
151 77 189 un
152 41 203 1
153 189 168 un
154 203 168 un
155 30 125 1
156 125 175 1
157 125 98 1
158 143 128 1
159 147 200 1
160 80 147 un
161 117 80 1
162 164 200 un
163 44 117 un
164 10 151 un
165 102 10 1
166 47 102 un
167 117 151 un
168 80 47 un
169 59 129 un
170 81 59 1
171 140 81 1
172 102 129 un
173 10 140 un
174 182 126 un
175 244 182 un
176 151 244 un
177 140 126 un
178 76 217 un
179 124 76 un
180 81 124 un
181 126 217 un
182 182 120 un
183 168 244 un
184 203 119 un
185 28 99 un
186 120 28 un
187 217 99 un
188 11 27 1
189 152 11 1
190 93 152 1
191 99 93 1
192 93 31 2
193 42 246 1
194 42 52 1
195 188 223 1
196 188 215 1
197 144 74 1
198 75 184 1
199 206 92 1
200 206 61 1
201 45 106 1
202 202 69 1
203 230 2 1
204 230 58 1
205 78 248 1
206 78 196 1
207 172 186 1
208 96 154 1
209 43 66 1
210 43 94 1
211 148 12 1
212 29 83 1
213 29 121 1
214 179 171 1
215 179 70 1
216 6 34 1
217 6 54 1
218 132 226 1
219 132 64 1
220 155 21 1
221 113 13 1
222 113 118 1
223 3 214 1
224 3 228 1
225 25 145 1
226 25 91 1
227 30 185 1
228 163 198 1
229 163 15 1
230 134 219 1
231 134 137 1
232 115 4 1
233 240 26 1
234 235 135 1
235 232 178 1
236 112 35 1
237 18 5 1
238 143 53 1
239 73 71 1
240 73 174 1
241 157 210 1
242 157 86 1
243 139 65 1
244 55 149 1
245 209 224 1
246 209 72 1
247 153 241 1
248 153 156 1
249 23 33 1
250 216 237 1
251 166 176 1
252 146 123 1
253 40 7 1
254 40 122 1
255 162 85 1
256 162 101 1
257 108 100 1
258 108 245 1
259 111 183 1
260 111 199 1
261 62 88 1
262 39 136 1
263 221 67 1
264 242 51 1
265 41 46 1
266 109 131 1
267 89 225 1
268 89 197 1
269 150 38 1
270 150 90 1
271 125 1 1
272 175 19 1
273 175 36 1
274 175 190 1
275 98 24 1
276 98 104 1
277 98 249 1
278 128 107 1
279 200 234 1
280 147 9 1
281 47 32 1
282 129 50 1
283 59 229 1
284 76 49 1
285 124 160 1
286 119 97 1
287 27 116 1
288 27 8 1
289 11 114 1
290 11 231 1
291 152 233 1
292 152 103 1
@<TRIPOS>MOLECULE
Sketch 4
130 142
SMALL
USER_CHARGES


@<TRIPOS>ATOM
1 C4327 17.4885 2.46936 64.6938 C.ar 0.0 **** 0.0
2 C4305 25.2203 3.88468 59.2777 C.ar 0.0 **** -0.1268
3 C4302 28.5557 5.00392 57.9155 C.ar 0.0 **** 0.0
4 H4398 28.7896 0.0441717 53.2319 H 0.0 **** 0.053
5 C4297 25.7483 1.69399 57.572 C.3 0.0 **** -0.106
6 C4326 17.6962 1.46232 63.5942 C.3 0.0 **** -0.106
7 C4295 25.0697 -0.36372 56.3343 C.ar 0.0 **** 0.0
8 C4292 27.5137 -0.41864 54.9323 C.ar 0.0 **** 0.0
9 H4401 30.1575 4.20951 55.4485 H 0.0 **** 0.053
10 H4415 13.5358 7.16699 68.8614 H 0.0 **** 0.053
11 C4299 27.9637 2.7736 57.0544 C.ar 0.0 **** 0.0
12 H4414 22.4654 1.87588 60.8958 H 0.0 **** 0.41
13 O4357 19.9683 5.96675 64.2562 O.2 0.0 **** -0.419
14 C4314 23.0949 9.42576 59.9891 C.ar 0.0 **** -0.053
15 N4329 18.2885 4.48656 65.7592 N.ar 0.0 **** -0.481
16 H4389 22.6625 -1.1126 54.5188 H 0.0 **** 0.053
17 H4383 13.9367 4.90362 68.6053 H 0.0 **** 0.053
18 C4294 26.0512 0.620262 56.5685 C.ar 0.0 **** 0.0
19 C4346 26.7421 -2.38973 53.555 C.3 0.0 **** -0.159
20 C4352 25.0183 11.1248 59.6256 C.3 0.0 **** -0.159
21 H4418 15.9345 9.66639 69.8555 H 0.0 **** 0.053
22 H4407 24.4093 11.8386 59.0539 H 0.0 **** 0.053
23 C4334 14.4724 1.1964 66.7224 C.3 0.0 **** -0.106
24 O4351 27.8609 6.99706 59.8892 O.3 0.0 **** -0.452
25 C4311 23.1716 6.13387 61.522 C.ar 0.0 **** 0.0
26 H4375 14.7762 1.442 64.59 H 0.0 **** 0.053
27 C4304 26.4111 3.91455 58.5361 C.ar 0.0 **** 0.0
28 H4413 20.9627 6.83748 63.7953 H 0.0 **** 0.41
29 H4363 28.7162 2.01305 55.211 H 0.0 **** 0.053
30 H4395 23.9607 -0.287101 58.1977 H 0.0 **** 0.053
31 H4390 22.4661 -2.78856 53.9345 H 0.0 **** 0.053
32 H4362 29.2177 1.1028 56.6102 H 0.0 **** 0.053
33 C4312 23.6007 4.9349 60.8808 C.ar 0.0 **** 0.0
34 C4333 15.3886 1.2923 65.4975 C.3 0.0 **** -0.106
35 C4318 21.7609 3.71225 62.0235 C.ar 0.0 **** 0.052
36 H4417 14.0597 6.41697 70.375 H 0.0 **** 0.053
37 H4361 25.589 1.23018 58.565 H 0.0 **** 0.053
38 H4408 26.0613 11.2155 59.2848 H 0.0 **** 0.053
39 C4316 25.5574 8.74778 60.1437 C.3 0.0 **** -0.106
40 H4397 29.6428 0.00128799 54.783 H 0.0 **** 0.053
41 C4337 14.6909 4.90916 67.8062 C.3 0.0 **** -0.106
42 H4399 29.1452 -1.50884 54.0061 H 0.0 **** 0.053
43 C4315 24.5273 9.68375 59.4542 C.ar 0.0 **** -0.053
44 H4420 16.3249 8.62338 71.2314 H 0.0 **** 0.053
45 H4366 23.7327 9.35604 62.0658 H 0.0 **** 0.053
46 H4372 19.6049 0.704093 64.2748 H 0.0 **** 0.053
47 C4358 14.3256 7.18418 69.6278 C.3 0.0 **** -0.159
48 H4367 22.6163 8.70449 59.3063 H 0.0 **** 0.053
49 C4323 19.918 2.49673 63.1729 C.ar 0.0 **** 0.0
50 H4411 22.1419 11.161 59.0595 H 0.0 **** 0.053
51 C4303 27.3196 5.02523 58.6495 C.ar 0.0 **** 0.0
52 H4412 22.5855 11.4048 60.7647 H 0.0 **** 0.053
53 H4369 25.872 9.25182 61.0782 H 0.0 **** 0.053
54 H4376 15.9071 0.332253 65.3504 H 0.0 **** 0.053
55 C4313 23.1541 8.72827 61.3629 C.3 0.0 **** -0.106
56 H4392 25.8012 -2.66769 53.0624 H 0.0 **** 0.053
57 H4360 24.7668 2.13935 57.3324 H 0.0 **** 0.053
58 H4410 21.1838 10.3923 60.3494 H 0.0 **** 0.053
59 C4342 16.7832 7.74822 69.298 C.ar 0.0 **** 0.0
60 H4393 27.1939 -3.31882 53.9446 H 0.0 **** 0.053
61 C4345 23.1996 -1.99132 54.1317 C.3 0.0 **** -0.159
62 C4291 26.517 -1.37183 54.653 C.ar 0.0 **** 0.0
63 H4364 24.6203 2.98949 59.2676 H 0.0 **** 0.1268
64 H4373 17.1812 0.51826 63.8108 H 0.0 **** 0.053
65 C4322 19.5454 3.62528 63.8761 C.ar 0.0 **** 0.0
66 H4368 24.5367 9.44697 58.3785 H 0.0 **** 0.053
67 H4403 28.8431 7.1403 57.7852 H 0.0 **** 0.053
68 C4339 17.0924 5.56526 67.541 C.ar 0.0 **** 0.0
69 C4300 28.34 1.61453 56.1685 C.3 0.0 **** -0.106
70 H4377 15.0353 0.765073 67.567 H 0.0 **** 0.053
71 H4406 27.5226 7.47963 60.6601 H 0.0 **** 0.41
72 C4336 15.134 3.46936 67.5399 C.3 0.0 **** -0.053
73 C4293 27.2714 0.586355 55.8897 C.ar 0.0 **** 0.0
74 C4341 18.0166 7.48048 68.6831 C.ar 0.0 **** -0.1268
75 C4298 26.7497 2.80367 57.7035 C.ar 0.0 **** 0.0
76 H4387 24.7597 -3.36007 54.7531 H 0.0 **** 0.053
77 H4386 23.7963 -2.74315 56.076 H 0.0 **** 0.053
78 C4309 25.0129 7.38321 60.4976 C.2 0.0 **** 0.0
79 H4409 24.986 11.4228 60.6858 H 0.0 **** 0.053
80 C4325 19.1851 1.20355 63.3814 C.3 0.0 **** -0.106
81 C4319 21.3863 4.88463 62.7202 C.ar 0.0 **** 0.052
82 H4379 13.2368 2.51202 67.95 H 0.0 **** 0.053
83 H4405 30.0889 6.32791 58.7283 H 0.0 **** 0.053
84 C4307 25.5986 6.15822 60.0371 C.ar 0.0 **** 0.0
85 H4388 23.6613 -1.69951 53.176 H 0.0 **** 0.053
86 H4378 13.6384 0.5113 66.5077 H 0.0 **** 0.053
87 H4391 27.414 -2.00142 52.7791 H 0.0 **** 0.053
88 C4310 23.8067 7.37691 61.1851 C.2 0.0 **** 0.0
89 C4335 13.963 2.57954 67.1245 C.3 0.0 **** -0.106
90 C4349 30.2134 3.78152 56.465 C.3 0.0 **** -0.159
91 H4365 22.1484 8.64427 61.7753 H 0.0 **** 0.053
92 H4400 31.0008 4.32116 57.0062 H 0.0 **** 0.053
93 O4356 21.367 1.40051 61.6504 O.2 0.0 **** -0.419
94 H4416 14.2882 8.15891 70.1276 H 0.0 **** 0.053
95 C4350 29.4447 6.22539 57.841 C.3 0.0 **** -0.159
96 H4394 23.2603 0.675396 56.9003 H 0.0 **** 0.053
97 C4344 24.2745 -2.44935 55.13 C.3 0.0 **** -0.106
98 C4353 22.2033 10.6687 60.0419 C.3 0.0 **** -0.159
99 C4343 15.6821 6.91062 69.0206 C.ar 0.0 **** 0.0
100 C4296 25.3112 -1.37621 55.3883 C.ar 0.0 **** 0.0
101 H4402 30.544 2.74128 56.3565 H 0.0 **** 0.053
102 H4370 26.4348 8.69364 59.4923 H 0.0 **** 0.053
103 H4404 30.0861 6.19176 56.953 H 0.0 **** 0.053
104 C4359 16.6644 8.92935 70.2288 C.3 0.0 **** -0.159
105 H4382 14.1833 5.29663 66.9013 H 0.0 **** 0.053
106 O4354 21.8057 7.15292 63.2181 O.3 0.0 **** -0.452
107 C4301 28.8843 3.86862 57.1816 C.ar 0.0 **** 0.0
108 C4324 21.0384 2.49 62.244 C.2 0.0 **** 0.367
109 C4330 17.2292 4.45948 66.5749 C.ar 0.0 **** 0.2405
110 H4396 23.0781 -1.08524 56.8766 H 0.0 **** 0.053
111 H4384 19.1238 6.22479 67.3042 H 0.0 **** 0.1268
112 H4374 17.2565 1.85174 62.6564 H 0.0 **** 0.053
113 H4380 13.443 3.04678 66.2695 H 0.0 **** 0.053
114 H4381 15.5431 3.07359 68.4914 H 0.0 **** 0.053
115 C4348 28.8391 -0.473222 54.2064 C.3 0.0 **** -0.159
116 C4338 15.8474 5.81226 68.1565 C.ar 0.0 **** 0.0
117 H4419 17.6322 9.43774 70.3353 H 0.0 **** 0.053
118 C4332 16.4018 2.41362 65.582 C.ar 0.0 **** 0.0
119 H4385 18.8621 8.13908 68.8933 H 0.0 **** 0.1268
120 C4331 16.2589 3.4356 66.5314 C.ar 0.0 **** 0.0
121 C4328 18.4122 3.53599 64.8221 C.ar 0.0 **** 0.2405
122 C4306 24.7855 4.9647 60.0441 C.ar 0.0 **** 0.0
123 O4355 23.1689 2.58037 60.5216 O.3 0.0 **** -0.452
124 C4317 22.855 3.72358 61.1255 C.ar 0.0 **** 0.042
125 C4340 18.1759 6.41295 67.8083 C.ar 0.0 **** -0.1268
126 C4321 20.2827 4.88803 63.661 C.2 0.0 **** 0.367
127 H4371 19.3686 0.53477 62.5311 H 0.0 **** 0.053
128 C4347 23.7769 -0.275676 57.1107 C.3 0.0 **** -0.159
129 C4308 26.9131 6.07106 59.5145 C.ar 0.0 **** 0.042
130 C4320 22.102 6.07943 62.496 C.ar 0.0 **** 0.042
@<TRIPOS>BOND
1 115 4 1
2 73 8 am
3 18 73 am
4 7 18 am
5 100 7 am
6 62 8 am
7 62 100 am
8 75 5 1
9 11 75 am
10 69 11 1
11 18 5 1
12 73 69 1
13 3 107 am
14 51 3 am
15 27 51 am
16 11 107 am
17 75 27 am
18 122 2 am
19 84 122 am
20 129 84 am
21 27 2 am
22 51 129 am
23 88 78 1
24 25 88 1
25 33 25 am
26 84 78 1
27 122 33 am
28 14 55 1
29 43 14 am
30 39 43 1
31 88 55 1
32 78 39 1
33 35 124 am
34 81 35 am
35 130 81 am
36 33 124 am
37 25 130 am
38 65 126 1
39 49 65 am
40 108 49 1
41 81 126 1
42 35 108 1
43 6 80 1
44 1 6 1
45 121 1 am
46 49 80 1
47 65 121 am
48 109 15 am
49 120 109 am
50 118 120 am
51 121 15 am
52 1 118 am
53 23 34 1
54 89 23 1
55 72 89 1
56 118 34 1
57 120 72 1
58 116 41 1
59 68 116 am
60 109 68 am
61 72 41 1
62 74 125 am
63 59 74 am
64 99 59 am
65 68 125 am
66 116 99 am
67 100 97 1
68 97 61 1
69 62 19 1
70 7 128 1
71 8 115 1
72 107 90 1
73 3 95 1
74 129 24 1
75 43 20 1
76 14 98 1
77 130 106 1
78 124 123 1
79 108 93 2
80 126 13 2
81 99 47 1
82 59 104 1
83 5 57 1
84 5 37 1
85 69 32 1
86 69 29 1
87 2 63 1
88 55 91 1
89 55 45 1
90 14 48 1
91 43 66 1
92 39 53 1
93 39 102 1
94 80 127 1
95 80 46 1
96 6 64 1
97 6 112 1
98 34 26 1
99 34 54 1
100 23 70 1
101 23 86 1
102 89 82 1
103 89 113 1
104 72 114 1
105 41 105 1
106 41 17 1
107 125 111 1
108 74 119 1
109 97 77 1
110 97 76 1
111 61 85 1
112 61 16 1
113 61 31 1
114 19 87 1
115 19 56 1
116 19 60 1
117 128 96 1
118 128 30 1
119 128 110 1
120 115 40 1
121 115 42 1
122 90 92 1
123 90 9 1
124 90 101 1
125 95 67 1
126 95 103 1
127 95 83 1
128 24 71 1
129 20 22 1
130 20 38 1
131 20 79 1
132 98 58 1
133 98 50 1
134 98 52 1
135 106 28 1
136 123 12 1
137 47 10 1
138 47 94 1
139 47 36 1
140 104 21 1
141 104 117 1
142 104 44 1
@<TRIPOS>MOLECULE
Sketch 4
130 142
SMALL
USER_CHARGES


@<TRIPOS>ATOM
1 C2783 9.212 57.4929 30.6701 C.ar 0.0 **** 0.0
2 C2765 12.4009 65.1248 33.5383 C.3 0.0 **** -0.106
3 H2840 4.59416 73.179 41.5483 H 0.0 **** 0.053
4 C2781 7.87723 58.2369 32.5551 C.ar 0.0 **** -0.1268
5 H2828 11.8538 76.5144 35.1483 H 0.0 **** 0.053
6 C2734 9.53858 73.334 37.818 C.ar 0.0 **** 0.0
7 C2787 11.1943 72.5001 36.135 C.3 0.0 **** -0.159
8 C2792 0.635443 67.4562 35.1827 C.3 0.0 **** -0.159
9 H2832 12.0527 77.4073 37.3146 H 0.0 **** 0.053
10 H2827 13.3311 75.7556 37.07 H 0.0 **** 0.053
11 H2855 9.629 57.0405 28.5919 H 0.0 **** 0.053
12 C2738 7.48622 71.8735 38.2631 C.ar 0.0 **** 0.0
13 H2800 8.6703 71.9022 36.5001 H 0.0 **** 0.053
14 H2836 12.1288 72.7584 35.6265 H 0.0 **** 0.053
15 N2769 10.0552 61.8196 32.6384 N.ar 0.0 **** -0.481
16 C2748 4.71611 69.364 38.158 C.ar 0.0 **** 0.042
17 H2859 6.47288 56.085 32.2299 H 0.0 **** 0.053
18 H2843 2.79676 71.173 39.1079 H 0.0 **** 0.053
19 C2778 10.0274 58.6291 30.8264 C.ar 0.0 **** 0.0
20 H2858 6.71545 56.0501 30.4679 H 0.0 **** 0.053
21 H2820 13.031 60.5203 28.7308 H 0.0 **** 0.053
22 H2845 3.32438 70.8178 40.7501 H 0.0 **** 0.053
23 H2816 14.6083 62.7054 31.3809 H 0.0 **** 0.053
24 H2807 3.59702 67.7958 33.4965 H 0.0 **** 0.053
25 C2753 3.77079 66.0064 34.631 C.3 0.0 **** -0.106
26 H2829 11.8656 74.8599 34.5098 H 0.0 **** 0.053
27 H2818 15.3715 61.0159 29.6253 H 0.0 **** 0.053
28 H2841 4.68864 74.4507 40.314 H 0.0 **** 0.053
29 H2806 3.12756 65.3293 35.2232 H 0.0 **** 0.053
30 C2776 12.3256 59.6448 30.5714 C.3 0.0 **** -0.053
31 O2791 3.61895 69.0059 38.9091 O.3 0.0 **** -0.452
32 C2755 2.10278 67.8743 35.0437 C.ar 0.0 **** -0.053
33 C2743 5.40557 70.5471 38.5213 C.ar 0.0 **** 0.0
34 H2812 12.8916 64.5282 34.3302 H 0.0 **** 0.053
35 C2774 14.5063 60.8423 30.2828 C.3 0.0 **** -0.106
36 C2786 11.582 77.1085 38.2603 C.3 0.0 **** -0.159
37 H2850 2.66872 66.0224 32.0886 H 0.0 **** 0.053
38 C2750 4.789 66.6907 35.5132 C.2 0.0 **** 0.0
39 C2777 11.1741 58.9067 29.8862 C.3 0.0 **** -0.106
40 H2849 0.557735 66.3814 35.4122 H 0.0 **** 0.053
41 H2814 12.2827 65.1504 31.3817 H 0.0 **** 0.053
42 C2757 8.48245 67.474 35.5471 C.ar 0.0 **** 0.042
43 C2771 11.8184 60.8731 31.2909 C.ar 0.0 **** 0.0
44 H2834 10.436 72.317 35.3558 H 0.0 **** 0.053
45 H2802 8.08763 73.9543 40.6056 H 0.0 **** 0.053
46 C2780 8.66395 59.3735 32.6947 C.ar 0.0 **** -0.1268
47 C2766 12.6725 64.4884 32.1781 C.3 0.0 **** -0.106
48 H2810 2.42327 68.5739 37.0508 H 0.0 **** 0.053
49 H2839 10.0767 77.0526 40.3781 H 0.0 **** 0.053
50 C2793 2.03164 66.4894 32.8543 C.3 0.0 **** -0.159
51 C2799 7.23557 56.0781 31.4395 C.3 0.0 **** -0.159
52 C2736 11.4221 74.777 37.2734 C.ar 0.0 **** 0.0
53 H2817 14.8792 60.3086 31.173 H 0.0 **** 0.053
54 H2853 6.66377 63.6939 33.8712 H 0.0 **** 0.41
55 H2821 12.7336 58.9641 31.3456 H 0.0 **** 0.053
56 C2759 8.15458 65.3164 34.4132 C.ar 0.0 **** 0.052
57 C2762 10.12 64.1142 33.4119 C.ar 0.0 **** 0.0
58 H2801 9.47473 71.1975 37.8706 H 0.0 **** 0.053
59 C2735 10.7255 73.5681 37.095 C.ar 0.0 **** 0.0
60 C2733 9.06001 74.2787 38.7286 C.ar 0.0 **** 0.0
61 C2740 7.81211 74.013 39.5343 C.3 0.0 **** -0.106
62 C2732 9.74731 75.4964 38.9023 C.ar 0.0 **** 0.0
63 C2756 2.76889 67.7345 36.4399 C.3 0.0 **** -0.106
64 C2731 10.9024 75.7606 38.1434 C.ar 0.0 **** 0.0
65 H2824 8.44694 60.1284 33.4503 H 0.0 **** 0.1268
66 C2749 4.27587 67.6295 36.3983 C.2 0.0 **** 0.0
67 C2739 7.01135 72.788 39.1764 C.ar 0.0 **** 0.0
68 H2846 3.41524 68.076 38.7208 H 0.0 **** 0.41
69 H2811 12.813 66.1394 33.607 H 0.0 **** 0.053
70 O2794 5.99836 64.358 34.3805 O.3 0.0 **** -0.452
71 H2819 13.8947 59.044 29.2073 H 0.0 **** 0.053
72 H2808 2.12809 68.9416 34.7729 H 0.0 **** 0.053
73 C2788 9.246 76.5166 39.8996 C.3 0.0 **** -0.159
74 H2815 13.8 62.8403 29.8262 H 0.0 **** 0.053
75 H2860 7.80764 55.1401 31.5224 H 0.0 **** 0.053
76 C2770 10.5638 60.8034 31.9334 C.ar 0.0 **** 0.2405
77 C2760 6.77422 65.3879 34.6952 C.ar 0.0 **** 0.042
78 H2847 0.0629748 67.6495 34.2651 H 0.0 **** 0.053
79 C2790 3.46665 71.5119 39.907 C.3 0.0 **** -0.159
80 C2744 6.70875 70.7203 37.9352 C.ar 0.0 **** 0.0
81 H2856 8.692 55.7854 29.4288 H 0.0 **** 0.053
82 H2833 12.3725 77.1028 39.0313 H 0.0 **** 0.053
83 C2779 9.75062 59.5772 31.8335 C.ar 0.0 **** 0.0
84 C2742 4.90034 71.5439 39.4259 C.ar 0.0 **** 0.0
85 O2797 7.87354 63.2471 33.327 O.2 0.0 **** -0.419
86 C2758 9.00206 66.3682 34.8324 C.ar 0.0 **** 0.052
87 H2813 13.7541 64.4077 32.0138 H 0.0 **** 0.053
88 C2773 13.9062 62.1861 30.7104 C.3 0.0 **** -0.106
89 H2844 3.13494 72.5076 40.2221 H 0.0 **** 0.053
90 C2784 12.7053 75.0434 36.5149 C.3 0.0 **** -0.106
91 C2798 9.49818 56.5177 29.5516 C.3 0.0 **** -0.159
92 C2754 2.895 67.0881 33.9673 C.ar 0.0 **** -0.053
93 C2789 5.25081 73.6301 40.7938 C.3 0.0 **** -0.159
94 C2775 13.4529 59.9759 29.5941 C.3 0.0 **** -0.106
95 H2803 7.15023 74.8936 39.4757 H 0.0 **** 0.053
96 H2838 8.60611 77.276 39.4162 H 0.0 **** 0.053
97 H2842 6.09439 74.0879 41.3248 H 0.0 **** 0.053
98 H2848 0.157748 68.009 36.0064 H 0.0 **** 0.053
99 H2822 10.8136 59.5217 29.0387 H 0.0 **** 0.053
100 C2747 5.14725 68.5274 37.0983 C.ar 0.0 **** 0.0
101 C2745 7.24855 69.7412 37.0874 C.ar 0.0 **** -0.1268
102 H2857 10.4306 55.9578 29.7378 H 0.0 **** 0.053
103 C2764 10.4095 66.3058 34.5499 C.2 0.0 **** 0.367
104 C2768 10.7333 62.9746 32.6962 C.ar 0.0 **** 0.2405
105 H2809 2.36633 66.8087 36.895 H 0.0 **** 0.053
106 H2805 4.24317 65.3943 33.8623 H 0.0 **** 0.053
107 O2795 9.33871 68.4164 35.9327 O.3 0.0 **** -0.452
108 C2763 10.9262 65.1599 33.8162 C.ar 0.0 **** 0.0
109 C2772 12.5546 62.0631 31.3805 C.ar 0.0 **** 0.0
110 C2746 6.51867 68.6339 36.6583 C.ar 0.0 **** 0.0
111 H2837 8.65114 76.0536 40.6967 H 0.0 **** 0.053
112 H2826 13.3002 74.1205 36.4499 H 0.0 **** 0.053
113 H2831 10.8678 77.8961 38.5322 H 0.0 **** 0.053
114 H2835 11.3405 71.5357 36.6488 H 0.0 **** 0.053
115 O2796 11.2129 67.2281 34.9385 O.2 0.0 **** -0.419
116 H2851 1.41748 67.2598 32.364 H 0.0 **** 0.053
117 C2767 11.9977 63.1462 32.0804 C.ar 0.0 **** 0.0
118 C2782 8.13093 57.2868 31.5531 C.ar 0.0 **** 0.0
119 C2741 5.72134 72.6091 39.782 C.ar 0.0 **** 0.0
120 C2785 12.4433 75.586 35.101 C.3 0.0 **** -0.159
121 H2823 11.5624 57.976 29.4497 H 0.0 **** 0.053
122 C2737 8.81487 72.0402 37.586 C.3 0.0 **** -0.106
123 H2825 7.03221 58.0772 33.2284 H 0.0 **** 0.1268
124 C2752 7.07347 67.5676 35.846 C.ar 0.0 **** 0.0
125 C2751 6.20867 66.547 35.3527 C.ar 0.0 **** 0.0
126 H2852 1.35364 65.7163 33.2459 H 0.0 **** 0.053
127 H2804 8.2713 69.8377 36.7615 H 0.0 **** 0.1268
128 H2854 10.2855 68.0788 35.5852 H 0.0 **** 0.41
129 C2761 8.67119 64.1646 33.6994 C.2 0.0 **** 0.367
130 H2830 13.3839 75.798 34.5694 H 0.0 **** 0.053
@<TRIPOS>BOND
1 83 46 am
2 88 23 1
3 51 20 1
4 60 62 am
5 6 60 am
6 59 6 am
7 52 59 am
8 64 62 am
9 64 52 am
10 12 122 1
11 67 12 am
12 61 67 1
13 6 122 1
14 60 61 1
15 84 119 am
16 33 84 am
17 80 33 am
18 67 119 am
19 12 80 am
20 110 101 am
21 100 110 am
22 16 100 am
23 80 101 am
24 33 16 am
25 38 66 1
26 125 38 1
27 124 125 am
28 100 66 1
29 110 124 am
30 92 25 1
31 32 92 am
32 63 32 1
33 38 25 1
34 66 63 1
35 86 42 am
36 56 86 am
37 77 56 am
38 124 42 am
39 125 77 am
40 57 129 1
41 108 57 am
42 103 108 1
43 56 129 1
44 86 103 1
45 47 2 1
46 117 47 1
47 104 117 am
48 108 2 1
49 57 104 am
50 76 15 am
51 43 76 am
52 109 43 am
53 104 15 am
54 117 109 am
55 35 88 1
56 94 35 1
57 30 94 1
58 109 88 1
59 43 30 1
60 19 39 1
61 83 19 am
62 76 83 am
63 30 39 1
64 4 46 am
65 118 4 am
66 1 118 am
67 19 1 am
68 52 90 1
69 90 120 1
70 64 36 1
71 59 7 1
72 62 73 1
73 119 93 1
74 84 79 1
75 16 31 1
76 32 8 1
77 92 50 1
78 77 70 1
79 42 107 1
80 103 115 2
81 129 85 2
82 1 91 1
83 118 51 1
84 122 13 1
85 122 58 1
86 61 45 1
87 61 95 1
88 101 127 1
89 25 106 1
90 25 29 1
91 92 24 1
92 32 72 1
93 63 105 1
94 63 48 1
95 2 69 1
96 2 34 1
97 47 87 1
98 47 41 1
99 88 74 1
100 35 53 1
101 35 27 1
102 94 71 1
103 94 21 1
104 30 55 1
105 39 99 1
106 39 121 1
107 46 65 1
108 4 123 1
109 90 112 1
110 90 10 1
111 120 5 1
112 120 26 1
113 120 130 1
114 36 113 1
115 36 9 1
116 36 82 1
117 7 44 1
118 7 114 1
119 7 14 1
120 73 111 1
121 73 96 1
122 73 49 1
123 93 3 1
124 93 28 1
125 93 97 1
126 79 18 1
127 79 89 1
128 79 22 1
129 31 68 1
130 8 78 1
131 8 98 1
132 8 40 1
133 50 37 1
134 50 116 1
135 50 126 1
136 70 54 1
137 107 128 1
138 91 11 1
139 91 81 1
140 91 102 1
141 51 17 1
142 51 75 1
@<TRIPOS>MOLECULE
Sketch 4
130 142
SMALL
USER_CHARGES


@<TRIPOS>ATOM
1 C1093 60.1532 67.1452 55.7093 C.ar 0.0 **** 0.0
2 C1050 78.3453 70.9333 58.5627 C.3 0.0 **** -0.106
3 H1149 80.5312 72.9471 61.0621 H 0.0 **** 0.053
4 C1070 69.3267 67.516 56.1397 C.ar 0.0 **** 0.042
5 H1159 72.485 63.3724 52.5339 H 0.0 **** 0.053
6 C1047 75.5118 70.4918 59.2481 C.3 0.0 **** -0.106
7 H1151 80.065 69.1394 56.4697 H 0.0 **** 0.053
8 C1042 78.6852 71.8187 60.8963 C.ar 0.0 **** 0.0
9 H1136 75.3058 72.8632 63.7281 H 0.0 **** 0.053
10 C1041 78.1998 72.1334 62.179 C.ar 0.0 **** 0.0
11 H1168 59.6626 65.2812 53.5553 H 0.0 **** 0.053
12 H1111 74.7171 71.2283 59.0188 H 0.0 **** 0.053
13 O1104 68.5762 66.808 55.3048 O.3 0.0 **** -0.452
14 C1054 75.2401 69.2782 57.0678 C.ar 0.0 **** 0.0
15 C1082 63.2146 69.7496 59.7602 C.ar 0.0 **** 0.0
16 H1164 70.8372 70.4999 59.1691 H 0.0 **** 0.41
17 H1158 74.2394 63.3647 52.8233 H 0.0 **** 0.053
18 H1114 73.4796 69.6931 58.2195 H 0.0 **** 0.1268
19 H1113 79.2718 70.3455 58.6776 H 0.0 **** 0.053
20 H1155 77.6528 68.6938 53.4313 H 0.0 **** 0.053
21 C1077 64.6099 69.7373 59.5987 C.ar 0.0 **** 0.0
22 H1127 60.901 71.4389 60.3249 H 0.0 **** 0.053
23 H1115 69.7849 65.0966 55.1216 H 0.0 **** 0.053
24 O1105 71.579 70.0166 58.5797 O.3 0.0 **** -0.452
25 H1112 78.6776 71.8641 58.0623 H 0.0 **** 0.053
26 N1079 64.3714 68.7854 57.3894 N.ar 0.0 **** -0.481
27 H1162 70.7187 62.5383 53.9316 H 0.0 **** 0.053
28 C1076 65.5595 70.2022 60.6705 C.3 0.0 **** -0.106
29 H1133 59.2619 68.0085 58.0984 H 0.0 **** 0.053
30 C1048 76.0993 69.9875 57.9627 C.ar 0.0 **** 0.0
31 H1137 76.9386 73.1883 64.264 H 0.0 **** 0.053
32 H1130 60.6037 68.4171 60.7779 H 0.0 **** 0.053
33 C1062 71.5622 68.3579 56.8168 C.ar 0.0 **** 0.0
34 H1142 78.8439 72.2985 64.2477 H 0.0 **** 0.053
35 H1150 79.5717 69.9958 54.9956 H 0.0 **** 0.053
36 H1144 74.2401 70.1522 61.6865 H 0.0 **** 0.053
37 C1045 75.9589 71.4513 61.5076 C.ar 0.0 **** 0.0
38 C1102 73.2599 63.1974 53.2973 C.3 0.0 **** -0.159
39 C1099 79.406 69.9347 56.0786 C.3 0.0 **** -0.159
40 H1165 58.7264 66.0777 56.9432 H 0.0 **** 0.053
41 H1148 80.7717 71.2024 60.872 H 0.0 **** 0.053
42 H1156 74.4341 67.5839 53.2031 H 0.0 **** 0.41
43 H1160 70.0416 62.6979 55.5682 H 0.0 **** 0.053
44 C1044 76.4641 71.0868 60.2434 C.ar 0.0 **** 0.0
45 H1135 62.4715 67.2355 53.2084 H 0.0 **** 0.1268
46 H1119 72.9093 65.6706 52.9701 H 0.0 **** 0.053
47 H1167 58.0629 67.5177 56.1596 H 0.0 **** 0.053
48 C1090 62.7958 67.9783 55.2011 C.ar 0.0 **** -0.1268
49 H1170 59.0097 66.8602 53.0929 H 0.0 **** 0.053
50 C1096 79.1611 72.6144 63.2453 C.3 0.0 **** -0.159
51 C1083 62.5862 70.2785 61.0316 C.3 0.0 **** -0.106
52 C1058 74.8457 68.0649 55.0106 C.ar 0.0 **** 0.042
53 C1097 74.4905 71.222 61.7783 C.3 0.0 **** -0.159
54 H1124 65.8908 69.3305 61.2662 H 0.0 **** 0.053
55 H1110 74.9661 69.6613 59.7291 H 0.0 **** 0.053
56 C1086 60.9064 69.2073 58.7941 C.3 0.0 **** -0.053
57 C1055 73.8725 69.1705 57.3627 C.ar 0.0 **** -0.1268
58 H1125 62.7806 69.5559 61.8446 H 0.0 **** 0.053
59 C1080 63.0455 68.7541 57.561 C.ar 0.0 **** 0.2405
60 H1169 60.5441 66.2926 52.387 H 0.0 **** 0.053
61 C1052 77.1701 68.9018 55.5498 C.ar 0.0 **** 0.0
62 H1146 74.1815 71.5448 62.7777 H 0.0 **** 0.053
63 C1056 72.9921 68.4244 56.5811 C.ar 0.0 **** 0.0
64 H1134 63.8306 68.2763 55.0326 H 0.0 **** 0.1268
65 H1123 65.0699 70.8899 61.371 H 0.0 **** 0.053
66 C1073 67.4066 69.9818 59.0201 C.ar 0.0 **** 0.0
67 C1100 77.8182 68.1783 54.3903 C.3 0.0 **** -0.159
68 H1143 79.2392 73.7157 63.2592 H 0.0 **** 0.053
69 C1094 76.3003 72.405 63.8328 C.3 0.0 **** -0.106
70 C1098 80.1405 72.0527 60.5583 C.3 0.0 **** -0.159
71 H1161 71.6044 61.8784 55.3259 H 0.0 **** 0.053
72 C1059 72.7615 66.676 54.85 C.2 0.0 **** 0.0
73 C1068 69.488 69.172 57.9215 C.ar 0.0 **** 0.052
74 H1139 75.5375 70.4464 64.417 H 0.0 **** 0.053
75 C1092 60.7179 66.9645 54.429 C.ar 0.0 **** 0.0
76 H1118 73.8421 63.9084 55.2358 H 0.0 **** 0.053
77 O1106 69.5402 70.8032 59.6463 O.2 0.0 **** -0.419
78 C1075 66.7781 70.8775 60.0477 C.3 0.0 **** -0.106
79 H1154 78.8985 68.0771 54.5439 H 0.0 **** 0.053
80 H1122 66.4672 71.8155 59.5503 H 0.0 **** 0.053
81 C1065 73.0746 64.1492 54.4834 C.ar 0.0 **** -0.053
82 C1066 73.3552 65.5918 53.9807 C.3 0.0 **** -0.106
83 H1131 60.5439 70.0787 58.2121 H 0.0 **** 0.053
84 C1074 68.8563 70.0173 58.8967 C.2 0.0 **** 0.367
85 H1138 77.2085 70.7513 64.927 H 0.0 **** 0.053
86 C1081 62.4159 69.2343 58.7292 C.ar 0.0 **** 0.0
87 C1069 68.6964 68.3424 57.0937 C.ar 0.0 **** 0.052
88 H1145 73.8606 71.7456 61.0405 H 0.0 **** 0.053
89 C1043 77.8106 71.2843 59.9294 C.ar 0.0 **** 0.0
90 H1129 59.2962 69.478 60.2145 H 0.0 **** 0.053
91 C1088 60.9104 67.7675 56.7191 C.ar 0.0 **** 0.0
92 C1078 65.1454 69.2391 58.3854 C.ar 0.0 **** 0.2405
93 H1120 74.4388 65.6916 53.8665 H 0.0 **** 0.053
94 C1071 67.2505 68.3207 57.202 C.2 0.0 **** 0.367
95 H1141 80.1716 72.2183 63.0831 H 0.0 **** 0.053
96 H1117 71.8461 64.2039 56.2498 H 0.0 **** 0.053
97 H1157 73.204 62.1432 53.602 H 0.0 **** 0.053
98 C1051 77.9537 69.6683 56.4064 C.ar 0.0 **** 0.0
99 C1061 70.7699 67.4632 56.0393 C.ar 0.0 **** 0.0
100 H1132 60.6191 67.0711 58.7293 H 0.0 **** 0.053
101 C1067 70.8967 69.1954 57.7859 C.ar 0.0 **** 0.042
102 C1064 71.6867 64.0582 55.1688 C.ar 0.0 **** -0.053
103 C1091 62.0363 67.3883 54.1984 C.ar 0.0 **** -0.1268
104 H1140 75.8588 71.5328 65.7974 H 0.0 **** 0.053
105 H1126 63.0888 71.2097 61.3359 H 0.0 **** 0.053
106 C1046 76.8252 71.9963 62.4725 C.ar 0.0 **** 0.0
107 C1108 58.7521 66.6682 56.0147 C.3 0.0 **** -0.159
108 C1085 60.3901 69.3492 60.2254 C.3 0.0 **** -0.106
109 C1072 66.6133 69.1921 58.2115 C.ar 0.0 **** 0.0
110 O1107 66.5759 67.5496 56.4489 O.2 0.0 **** -0.419
111 C1049 77.4204 70.1918 57.6329 C.ar 0.0 **** 0.0
112 O1101 75.2303 67.7941 53.7165 O.3 0.0 **** -0.452
113 C1103 70.9753 62.7153 54.9867 C.3 0.0 **** -0.159
114 C1057 73.5397 67.7241 55.4429 C.ar 0.0 **** 0.0
115 C1053 75.7739 68.7315 55.848 C.ar 0.0 **** 0.0
116 C1095 76.2189 71.2179 64.8056 C.3 0.0 **** -0.159
117 C1063 70.7883 65.2264 54.7153 C.3 0.0 **** -0.106
118 H1166 58.3451 66.0464 55.2091 H 0.0 **** 0.053
119 H1116 70.6889 65.2038 53.6142 H 0.0 **** 0.053
120 H1153 77.3999 67.1709 54.2789 H 0.0 **** 0.053
121 H1147 80.2948 72.1888 59.4807 H 0.0 **** 0.053
122 C1084 61.078 70.5253 60.9167 C.3 0.0 **** -0.106
123 H1128 60.6549 70.7026 61.9171 H 0.0 **** 0.053
124 C1060 71.42 66.5207 55.1728 C.2 0.0 **** 0.0
125 H1152 79.7501 70.8796 56.5167 H 0.0 **** 0.053
126 H1121 67.5254 71.1536 60.8023 H 0.0 **** 0.053
127 C1109 59.9445 66.3176 53.307 C.3 0.0 **** -0.159
128 C1089 62.2369 68.1779 56.4706 C.ar 0.0 **** 0.0
129 C1087 60.3593 67.9525 58.1112 C.3 0.0 **** -0.106
130 H1163 67.5807 66.9988 55.645 H 0.0 **** 0.41
@<TRIPOS>BOND
1 89 8 am
2 44 89 am
3 37 44 am
4 106 37 am
5 10 8 am
6 10 106 am
7 30 6 1
8 111 30 am
9 2 111 1
10 44 6 1
11 89 2 1
12 61 98 am
13 115 61 am
14 14 115 am
15 111 98 am
16 30 14 am
17 63 57 am
18 114 63 am
19 52 114 am
20 14 57 am
21 115 52 am
22 124 72 1
23 99 124 1
24 33 99 am
25 114 72 1
26 63 33 am
27 102 117 1
28 81 102 am
29 82 81 1
30 124 117 1
31 72 82 1
32 73 101 am
33 87 73 am
34 4 87 am
35 33 101 am
36 99 4 am
37 109 94 1
38 66 109 am
39 84 66 1
40 87 94 1
41 73 84 1
42 28 78 1
43 21 28 1
44 92 21 am
45 66 78 1
46 109 92 am
47 59 26 am
48 86 59 am
49 15 86 am
50 92 26 am
51 21 15 am
52 122 51 1
53 108 122 1
54 56 108 1
55 15 51 1
56 86 56 1
57 91 129 1
58 128 91 am
59 59 128 am
60 56 129 1
61 103 48 am
62 75 103 am
63 1 75 am
64 128 48 am
65 91 1 am
66 106 69 1
67 69 116 1
68 10 50 1
69 37 53 1
70 8 70 1
71 98 39 1
72 61 67 1
73 52 112 1
74 81 38 1
75 102 113 1
76 4 13 1
77 101 24 1
78 84 77 2
79 94 110 2
80 1 107 1
81 75 127 1
82 6 55 1
83 6 12 1
84 2 25 1
85 2 19 1
86 57 18 1
87 117 23 1
88 117 119 1
89 102 96 1
90 81 76 1
91 82 46 1
92 82 93 1
93 78 126 1
94 78 80 1
95 28 65 1
96 28 54 1
97 51 58 1
98 51 105 1
99 122 22 1
100 122 123 1
101 108 90 1
102 108 32 1
103 56 83 1
104 129 100 1
105 129 29 1
106 48 64 1
107 103 45 1
108 69 9 1
109 69 31 1
110 116 85 1
111 116 74 1
112 116 104 1
113 50 95 1
114 50 34 1
115 50 68 1
116 53 36 1
117 53 88 1
118 53 62 1
119 70 121 1
120 70 41 1
121 70 3 1
122 39 35 1
123 39 7 1
124 39 125 1
125 67 120 1
126 67 79 1
127 67 20 1
128 112 42 1
129 38 97 1
130 38 17 1
131 38 5 1
132 113 43 1
133 113 71 1
134 113 27 1
135 13 130 1
136 24 16 1
137 107 40 1
138 107 118 1
139 107 47 1
140 127 11 1
141 127 60 1
142 127 49 1
@<TRIPOS>MOLECULE
Sketch 4
188 213
SMALL
USER_CHARGES


@<TRIPOS>ATOM
1 H10946 41.354 0.945876 41.4637 H 0.0 **** 0.053
2 C10822 40.7547 2.84604 47.6046 C.2 0.0 **** 0.0
3 C10819 41.0832 0.434942 47.6409 C.2 0.0 **** 0.052
4 C10777 43.8296 -1.53226 71.918 C.3 0.0 **** -0.106
5 C10794 41.6187 -1.89954 61.2526 C.2 0.0 **** -0.1268
6 O10887 35.4423 -1.58773 49.8655 O.3 0.0 **** -0.452
7 C10856 42.5561 2.9396 37.6881 C.ar 0.0 **** 0.0
8 H10897 27.6402 2.36602 52.3006 H 0.0 **** 0.053
9 C10882 30.977 1.02975 50.2023 C.3 0.0 **** -0.106
10 C10834 41.7826 4.16894 41.2615 C.ar 0.0 **** 0.0
11 H10939 41.2077 9.1485 40.1737 H 0.0 **** 0.1268
12 H10952 44.3611 3.51819 35.1598 H 0.0 **** 0.053
13 H10951 41.2943 3.70281 35.2133 H 0.0 **** 0.053
14 C10837 40.9484 6.60317 44.0915 C.3 0.0 **** -0.106
15 H10959 39.4375 -2.99327 49.8921 H 0.0 **** 0.41
16 H10918 39.1225 -5.73436 57.0564 H 0.0 **** 0.053
17 C10779 43.7794 -1.20426 69.5436 C.ar 0.0 **** 0.0
18 H10935 39.9888 6.48147 44.6272 H 0.0 **** 0.053
19 C10780 43.7687 -2.61449 69.7928 C.ar 0.0 **** 0.0
20 H10908 45.2237 -0.251732 70.8189 H 0.0 **** 0.053
21 H10945 43.0547 1.20776 41.7484 H 0.0 **** 0.053
22 C10875 33.4075 0.344785 50.2278 C.2 0.0 **** 0.367
23 N10842 40.7579 10.2959 41.8185 N.ar 0.0 **** -0.481
24 H10960 43.3213 -1.32867 37.7994 H 0.0 **** 0.41
25 C10782 43.479 -3.49989 68.7869 C.ar 0.0 **** 0.042
26 C10885 27.9185 4.04344 50.9685 C.3 0.0 **** -0.106
27 H10916 40.7756 -6.15003 59.5959 H 0.0 **** 0.1268
28 C10852 42.1684 1.66989 41.2744 C.3 0.0 **** -0.106
29 C10805 39.4081 -3.95128 54.7137 C.ar 0.0 **** -0.1268
30 C10812 38.783 -2.63465 52.7131 C.ar 0.0 **** -0.1268
31 H10958 38.6334 2.30192 53.5389 H 0.0 **** 0.053
32 H10962 40.4481 13.1481 46.6139 H 0.0 **** 0.053
33 C10820 40.7407 1.62315 48.3354 C.2 0.0 **** 0.0
34 O10889 33.0608 -0.765003 49.7256 O.2 0.0 **** -0.419
35 H10906 44.4142 -1.3901 72.837 H 0.0 **** 0.053
36 C10874 35.754 -0.395152 50.389 C.2 0.0 **** 0.042
37 H10944 42.7805 4.97503 39.5487 H 0.0 **** 0.053
38 O10890 34.4867 4.052 51.7196 O.2 0.0 **** -0.419
39 O10867 43.3319 0.748449 34.862 O.2 0.0 **** -0.419
40 H10942 40.2055 12.4205 43.1695 H 0.0 **** 0.1268
41 H10936 41.6912 6.72346 44.9026 H 0.0 **** 0.053
42 H10904 35.9805 3.86756 51.9302 H 0.0 **** 0.41
43 C10835 41.4904 5.37163 41.9403 C.ar 0.0 **** 0.0
44 H10891 31.939 4.05797 52.2955 H 0.0 **** 0.053
45 C10789 42.8606 -3.89007 66.4277 C.ar 0.0 **** -0.1268
46 H10894 30.7473 0.0628731 50.6882 H 0.0 **** 0.053
47 C10790 42.2234 -4.28321 64.0881 C.2 0.0 **** -0.1268
48 H10948 41.6263 4.84821 37.35 H 0.0 **** 0.053
49 C10850 42.3212 2.94233 39.0765 C.ar 0.0 **** 0.0
50 C10827 41.3772 1.67193 45.5592 C.2 0.0 **** 0.0
51 H10953 43.3112 3.00771 33.8143 H 0.0 **** 0.053
52 H10922 38.4347 -3.54658 52.2203 H 0.0 **** 0.1268
53 C10879 31.7738 3.67677 51.2703 C.3 0.0 **** -0.106
54 H10955 41.6868 -6.26811 62.8369 H 0.0 **** 0.41
55 C10868 39.7004 12.9208 45.8373 C.3 0.0 **** -0.159
56 H10915 42.2758 -0.439421 63.4021 H 0.0 **** 0.1268
57 C10815 39.6903 0.798448 50.4555 C.2 0.0 **** 0.0
58 C10795 41.2705 -2.76656 60.2208 C.2 0.0 **** 0.2405
59 C10845 40.3551 9.19964 45.3525 C.ar 0.0 **** -0.1268
60 C10849 41.9919 4.2331 39.7738 C.3 0.0 **** -0.106
61 C10785 43.4962 -0.69146 68.3072 C.ar 0.0 **** -0.1268
62 H10924 39.5816 4.6448 47.7437 H 0.0 **** 0.053
63 H10905 42.7622 -1.46957 72.1781 H 0.0 **** 0.053
64 H10950 42.3738 5.08424 34.9458 H 0.0 **** 0.053
65 C10816 38.9513 1.05147 51.8343 C.3 0.0 **** 0.0
66 H10902 29.6833 5.31349 51.0843 H 0.0 **** 0.053
67 C10863 39.3128 2.27299 52.6771 C.3 0.0 **** -0.159
68 C10883 28.5305 1.66063 50.4627 C.3 0.0 **** -0.106
69 H10940 40.395 8.30263 45.972 H 0.0 **** 0.1268
70 C10806 39.3024 -2.71224 54.0314 C.ar 0.0 **** 0.0
71 C10860 43.1989 1.76264 35.5395 C.2 0.0 **** 0.347
72 H10943 41.0833 4.6731 39.32 H 0.0 **** 0.053
73 C10823 40.4464 4.18396 48.2503 C.3 0.0 **** -0.106
74 C10881 29.9749 2.07123 50.6157 C.2 0.0 **** 0.0
75 H10909 45.1599 -3.18503 71.3485 H 0.0 **** 0.053
76 H10947 42.7877 -0.375607 39.6881 H 0.0 **** 0.1268
77 C10810 39.121 -0.211568 52.7039 C.ar 0.0 **** 0.0
78 C10792 41.9282 -2.38242 62.5429 C.2 0.0 **** 0.0
79 C10871 36.5198 2.11648 51.4864 C.2 0.0 **** 0.042
80 H10964 41.644 -0.829106 61.0482 H 0.0 **** 0.1268
81 C10824 40.2243 4.15532 49.7666 C.3 0.0 **** -0.106
82 C10791 41.9034 -3.81921 62.8065 C.2 0.0 **** 0.0
83 O10862 41.4803 -6.05181 61.9144 O.3 0.0 **** -0.452
84 H10913 42.8471 -4.96456 66.6138 H 0.0 **** 0.1268
85 H10929 42.0691 3.07202 49.9984 H 0.0 **** 0.053
86 C10833 41.8503 2.96635 41.9663 C.ar 0.0 **** 0.0
87 C10778 44.1445 -0.487136 70.823 C.3 0.0 **** -0.106
88 O10865 41.9995 -1.74574 47.8255 O.2 0.0 **** -0.419
89 H10914 42.2269 -5.35232 64.3253 H 0.0 **** 0.1268
90 H10933 42.6987 1.20236 43.9515 H 0.0 **** 0.053
91 C10807 39.6999 -1.49332 54.6914 C.ar 0.0 **** 0.0
92 C10825 41.025 2.98758 50.3466 C.3 0.0 **** -0.106
93 C10880 30.3369 3.27833 51.0846 C.2 0.0 **** 0.0
94 C10814 39.3394 -0.525261 49.9547 C.2 0.0 **** 0.0
95 H10931 40.0316 4.64051 45.6582 H 0.0 **** 0.053
96 H10900 27.8694 4.2436 49.8849 H 0.0 **** 0.053
97 C10818 41.1745 -0.924171 48.2319 C.2 0.0 **** 0.367
98 C10857 42.4594 4.25449 36.9457 C.3 0.0 **** -0.106
99 H10927 40.5365 5.11423 50.2074 H 0.0 **** 0.053
100 H10892 32.0155 4.55251 50.6367 H 0.0 **** 0.053
101 H10912 42.8925 -0.0329662 65.7675 H 0.0 **** 0.1268
102 C10859 43.3546 3.13819 34.9036 C.3 0.0 **** -0.086
103 H10934 41.0146 0.906551 43.6046 H 0.0 **** 0.053
104 H10898 26.5254 2.36432 50.9212 H 0.0 **** 0.053
105 C10843 40.5368 10.2963 43.1705 C.ar 0.0 **** 0.2405
106 C10796 41.2205 -4.20319 60.4733 C.2 0.0 **** 0.0
107 C10831 41.6107 2.94763 43.3557 C.ar 0.0 **** 0.0
108 C10846 40.0728 10.4187 45.9352 C.ar 0.0 **** -0.1268
109 C10836 41.255 5.35198 43.3159 C.ar 0.0 **** 0.0
110 H10896 28.4182 0.617399 50.8065 H 0.0 **** 0.053
111 H10956 39.1932 3.213 52.139 H 0.0 **** 0.053
112 C10799 40.5198 -4.52471 58.2074 C.2 0.0 **** 0.0
113 H10921 39.9221 0.646052 54.5125 H 0.0 **** 0.1268
114 H10923 37.785 -2.06931 50.2056 H 0.0 **** 0.053
115 H10949 43.3731 4.84239 37.1585 H 0.0 **** 0.053
116 C10873 34.7896 0.612141 50.5718 C.2 0.0 **** 0.052
117 H10919 39.1155 -4.86858 54.1971 H 0.0 **** 0.1268
118 C10832 41.6902 1.63572 44.0876 C.3 0.0 **** -0.106
119 C10853 42.7214 0.559635 39.1228 C.ar 0.0 **** -0.1268
120 O10864 39.9033 -2.69532 49.094 O.3 0.0 **** -0.4365
121 H10899 27.1936 4.71431 51.4552 H 0.0 **** 0.053
122 O10861 43.4544 -4.86344 68.9703 O.3 0.0 **** -0.452
123 C10870 37.4737 1.05722 51.3856 C.2 0.0 **** 0.0
124 C10841 41.0317 9.1354 41.2569 C.ar 0.0 **** 0.1137
125 C10869 37.0798 -0.142301 50.8098 C.2 0.0 **** 0.0
126 C10793 42.2588 -1.51435 63.5964 C.2 0.0 **** -0.1268
127 C10803 39.8666 -3.97487 56.0091 C.ar 0.0 **** 0.0
128 C10855 42.8888 1.74432 36.9988 C.ar 0.0 **** 0.052
129 C10821 40.461 1.70728 49.7762 C.2 0.0 **** 0.0
130 C10847 40.0101 11.6107 45.1637 C.ar 0.0 **** 0.0
131 C10781 44.0978 -2.89853 71.2385 C.3 0.0 **** -0.106
132 H10903 34.4359 -1.52765 49.6822 H 0.0 **** 0.41
133 H10895 28.2736 1.64525 49.3862 H 0.0 **** 0.053
134 C10840 41.4377 6.65399 41.1517 C.3 0.0 **** -0.106
135 C10784 43.1821 -1.5806 67.2293 C.ar 0.0 **** 0.0
136 H10963 38.7187 12.8842 46.3365 H 0.0 **** 0.053
137 C10783 43.1711 -3.02061 67.4667 C.ar 0.0 **** 0.0
138 H10938 40.7049 6.55147 40.3294 H 0.0 **** 0.053
139 C10798 40.8267 -5.07608 59.4141 C.2 0.0 **** -0.1268
140 C10844 40.5951 9.10142 43.9575 C.ar 0.0 **** 0.0
141 C10829 41.0177 4.16686 45.4969 C.3 0.0 **** -0.106
142 C10848 40.2414 11.5309 43.8009 C.ar 0.0 **** -0.1268
143 O10888 36.8619 3.32842 51.9367 O.3 0.0 **** -0.452
144 H10925 41.2956 4.8567 48.0356 H 0.0 **** 0.053
145 H10901 29.336 4.44399 52.5719 H 0.0 **** 0.053
146 C10797 41.5405 -4.69194 61.7426 C.2 0.0 **** 0.042
147 C10787 42.5634 -1.97865 64.8851 C.ar 0.0 **** 0.0
148 C10811 38.6898 -1.41606 52.088 C.ar 0.0 **** 0.0
149 C10876 32.4009 1.38027 50.4921 C.ar 0.0 **** 0.0
150 C10813 38.1676 -1.16934 50.6985 C.3 0.0 **** -0.053
151 C10838 40.8917 7.87236 43.3003 C.ar 0.0 **** 0.0
152 H10937 42.4039 6.80619 40.6341 H 0.0 **** 0.053
153 C10804 40.0571 -5.16442 56.9247 C.3 0.0 **** -0.106
154 C10828 41.0512 2.85933 46.2302 C.2 0.0 **** 0.0
155 C10872 35.1763 1.86621 51.106 C.2 0.0 **** 0.052
156 H10930 41.6972 -0.445453 45.7904 H 0.0 **** 0.1268
157 H10932 41.7206 4.86652 45.9886 H 0.0 **** 0.053
158 C10858 42.2974 4.10235 35.4365 C.3 0.0 **** -0.106
159 C10817 40.0953 -1.34249 49.1532 C.2 0.0 **** 0.0265
160 H10954 43.6738 -5.04812 69.8978 H 0.0 **** 0.41
161 C10886 29.3358 4.33897 51.4701 C.3 0.0 **** -0.106
162 C10809 39.6064 -0.256455 53.9901 C.ar 0.0 **** -0.1268
163 H10941 39.8917 10.4742 47.011 H 0.0 **** 0.1268
164 C10877 32.7679 2.59417 50.9944 C.ar 0.0 **** 0.0
165 H10926 39.1591 4.01478 50.0077 H 0.0 **** 0.053
166 C10884 27.5634 2.57539 51.2203 C.3 0.0 **** -0.106
167 H10928 41.0573 2.99922 51.4321 H 0.0 **** 0.053
168 N10801 40.9678 -2.23719 58.9829 N.2 0.0 **** -0.481
169 C10808 40.1536 -1.54433 56.0307 C.ar 0.0 **** -0.1268
170 C10802 40.2226 -2.76521 56.6766 C.ar 0.0 **** 0.0
171 H10893 30.8741 0.798037 49.1242 H 0.0 **** 0.053
172 H10917 40.8052 -5.86809 56.5219 H 0.0 **** 0.053
173 C10800 40.6148 -3.09039 58.0482 C.2 0.0 **** 0.2405
174 C10839 41.1135 7.89065 41.9384 C.ar 0.0 **** 0.0
175 H10961 39.6903 13.7476 45.1147 H 0.0 **** 0.053
176 H10910 43.4943 -3.70948 71.6807 H 0.0 **** 0.053
177 C10786 42.8815 -1.1098 65.9522 C.ar 0.0 **** -0.1268
178 H10911 43.5014 0.383601 68.1187 H 0.0 **** 0.1268
179 C10851 42.4066 1.74269 39.7916 C.ar 0.0 **** 0.0
180 C10830 41.3059 4.13325 44.0232 C.ar 0.0 **** 0.0
181 H10920 40.4379 -0.628821 56.5526 H 0.0 **** 0.1268
182 C10878 34.1754 2.89922 51.2901 C.2 0.0 **** 0.367
183 C10854 42.9595 0.538719 37.7495 C.ar 0.0 **** 0.042
184 O10866 43.282 -0.629974 37.1247 O.3 0.0 **** -0.452
185 H10907 43.6041 0.460441 70.9571 H 0.0 **** 0.053
186 C10788 42.5507 -3.41233 65.1371 C.ar 0.0 **** 0.0
187 C10826 41.4144 0.48779 46.2808 C.2 0.0 **** -0.1268
188 H10957 40.3372 2.17804 53.0587 H 0.0 **** 0.053
@<TRIPOS>BOND
1 135 137 am
2 67 188 1
3 73 2 1
4 187 156 1
5 17 87 1
6 19 17 am
7 131 19 1
8 4 87 1
9 4 131 1
10 137 25 am
11 61 135 am
12 19 25 am
13 17 61 am
14 147 177 am
15 186 147 un
16 45 186 am
17 135 177 am
18 137 45 am
19 82 47 un
20 78 82 un
21 126 78 un
22 186 47 un
23 147 126 un
24 58 5 un
25 106 58 un
26 146 106 un
27 78 5 un
28 82 146 un
29 112 139 un
30 173 112 un
31 168 173 un
32 106 139 un
33 58 168 un
34 127 170 am
35 153 127 1
36 173 170 1
37 112 153 1
38 70 29 am
39 91 70 am
40 169 91 am
41 127 29 am
42 170 169 am
43 77 162 am
44 148 77 am
45 30 148 am
46 91 162 am
47 70 30 am
48 94 150 1
49 57 94 1
50 65 57 1
51 148 150 1
52 77 65 1
53 94 159 2
54 159 97 1
55 97 3 1
56 3 33 un
57 33 129 1
58 57 129 2
59 81 73 1
60 92 81 1
61 33 2 un
62 129 92 1
63 50 187 un
64 154 50 un
65 2 154 un
66 3 187 un
67 180 141 1
68 107 180 am
69 118 107 1
70 154 141 1
71 50 118 1
72 10 86 am
73 43 10 am
74 109 43 am
75 107 86 am
76 180 109 am
77 151 14 1
78 174 151 am
79 134 174 1
80 109 14 1
81 43 134 1
82 23 124 am
83 105 23 am
84 140 105 am
85 174 124 am
86 151 140 am
87 108 59 am
88 130 108 am
89 142 130 am
90 140 59 am
91 105 142 am
92 49 60 1
93 179 49 am
94 28 179 1
95 10 60 1
96 86 28 1
97 183 119 am
98 128 183 am
99 7 128 am
100 179 119 am
101 49 7 am
102 158 98 1
103 102 158 1
104 71 102 1
105 7 98 1
106 128 71 1
107 25 122 1
108 146 83 1
109 65 67 1
110 159 120 1
111 97 88 2
112 183 184 1
113 71 39 2
114 130 55 1
115 79 123 un
116 155 79 un
117 116 155 un
118 36 116 un
119 125 123 un
120 125 36 un
121 149 22 1
122 164 149 am
123 182 164 1
124 116 22 1
125 155 182 1
126 93 53 1
127 74 93 2
128 9 74 1
129 164 53 1
130 149 9 1
131 166 68 1
132 26 166 1
133 161 26 1
134 74 68 1
135 93 161 1
136 36 6 1
137 79 143 1
138 22 34 2
139 182 38 2
140 53 44 1
141 53 100 1
142 9 171 1
143 9 46 1
144 68 133 1
145 68 110 1
146 166 8 1
147 166 104 1
148 26 121 1
149 26 96 1
150 161 145 1
151 161 66 1
152 6 132 1
153 143 42 1
154 65 123 1
155 150 125 1
156 4 63 1
157 4 35 1
158 87 185 1
159 87 20 1
160 131 75 1
161 131 176 1
162 61 178 1
163 177 101 1
164 45 84 1
165 47 89 1
166 126 56 1
167 139 27 1
168 153 172 1
169 153 16 1
170 29 117 1
171 169 181 1
172 162 113 1
173 30 52 1
174 150 114 1
175 73 62 1
176 73 144 1
177 81 165 1
178 81 99 1
179 92 167 1
180 92 85 1
181 141 95 1
182 141 157 1
183 118 90 1
184 118 103 1
185 14 18 1
186 14 41 1
187 134 152 1
188 134 138 1
189 124 11 1
190 59 69 1
191 108 163 1
192 142 40 1
193 60 72 1
194 60 37 1
195 28 21 1
196 28 1 1
197 119 76 1
198 98 48 1
199 98 115 1
200 158 64 1
201 158 13 1
202 102 12 1
203 102 51 1
204 122 160 1
205 83 54 1
206 67 111 1
207 67 31 1
208 120 15 1
209 184 24 1
210 55 175 1
211 55 32 1
212 55 136 1
213 5 80 1
@<TRIPOS>MOLECULE
Sketch 4
130 142
SMALL
USER_CHARGES


@<TRIPOS>ATOM
1 H5835 12.6069 21.659 50.0803 H 0.0 **** 0.053
2 H5828 14.248 20.3666 58.2669 H 0.0 **** 0.053
3 H5823 11.8232 19.1616 60.9188 H 0.0 **** 0.053
4 H5847 0.360383 6.97876 44.874 H 0.0 **** 0.053
5 H5811 0.618227 8.55316 48.6663 H 0.0 **** 0.053
6 C5753 5.56279 12.388 51.5997 C.ar 0.0 **** 0.0
7 H5790 11.1293 16.6184 54.5777 H 0.0 **** 0.053
8 C5755 4.67152 11.7995 52.6544 C.3 0.0 **** -0.106
9 C5742 9.20498 15.5798 50.4564 C.ar 0.0 **** 0.0
10 C5739 10.8856 16.7193 48.4533 C.2 0.0 **** 0.0
11 C5722 12.3774 19.3203 57.8928 C.ar 0.0 **** 0.0
12 C5756 4.40931 10.3235 52.3688 C.3 0.0 **** -0.106
13 C5750 8.13902 14.1598 48.7209 C.ar 0.0 **** 0.042
14 C5723 11.9865 19.0893 56.559 C.ar 0.0 **** 0.0
15 C5788 1.4095 7.09599 44.5528 C.3 0.0 **** -0.159
16 H5808 0.879022 6.69093 51.9209 H 0.0 **** 0.053
17 C5757 3.90011 10.1413 50.9638 C.ar 0.0 **** 0.0
18 C5730 12.373 20.0845 55.4926 C.3 0.0 **** -0.106
19 H5830 13.2797 22.564 52.6401 H 0.0 **** 0.053
20 H5837 14.1692 15.5722 45.2593 H 0.0 **** 0.053
21 C5746 11.912 17.0996 47.4114 C.3 0.0 **** -0.106
22 H5829 12.8869 20.9384 59.2458 H 0.0 **** 0.053
23 H5833 13.6457 20.2543 49.8577 H 0.0 **** 0.053
24 H5792 11.8638 21.0455 55.7034 H 0.0 **** 0.053
25 H5807 0.263505 8.16157 51.1488 H 0.0 **** 0.053
26 H5801 5.12039 11.9533 53.6438 H 0.0 **** 0.053
27 C5744 12.0377 14.5835 46.9633 C.ar 0.0 **** -0.053
28 C5761 2.59213 9.02681 49.2698 C.ar 0.0 **** 0.0
29 H5814 3.6217 11.6944 46.3702 H 0.0 **** 0.1268
30 H5810 2.25938 6.24528 49.8186 H 0.0 **** 0.053
31 H5812 2.87225 6.84215 47.5214 H 0.0 **** 0.053
32 H5849 2.30177 10.2425 42.1411 H 0.0 **** 0.053
33 C5734 11.1406 18.2125 52.3953 C.ar 0.0 **** 0.0
34 C5764 1.12775 7.47791 51.193 C.3 0.0 **** -0.106
35 H5820 11.45 14.4297 60.5968 H 0.0 **** 0.053
36 C5780 13.2449 20.9381 50.6153 C.3 0.0 **** -0.159
37 C5752 5.43429 11.9904 50.2835 C.ar 0.0 **** 0.0
38 H5827 12.9911 21.3763 57.5344 H 0.0 **** 0.053
39 C5721 12.0365 18.3897 58.8916 C.ar 0.0 **** 0.0
40 O5787 6.26719 12.2386 48.0362 O.2 0.0 **** -0.419
41 H5796 10.2815 15.4365 46.008 H 0.0 **** 0.053
42 H5799 11.3787 17.4628 46.5114 H 0.0 **** 0.053
43 O5781 11.6141 19.5121 49.001 O.3 0.0 **** -0.452
44 H5838 13.8945 17.2883 45.6463 H 0.0 **** 0.053
45 C5789 2.02456 9.31834 42.6661 C.3 0.0 **** -0.159
46 H5841 13.5403 13.3875 45.9167 H 0.0 **** 0.053
47 C5770 3.14477 10.7908 45.9907 C.ar 0.0 **** -0.1268
48 C5724 11.2481 17.9478 56.2387 C.ar 0.0 **** 0.0
49 C5726 11.2326 17.2718 58.5773 C.ar 0.0 **** 0.0
50 H5802 3.71348 12.3527 52.6507 H 0.0 **** 0.053
51 C5743 10.5193 14.847 46.9128 C.3 0.0 **** -0.106
52 C5765 1.36348 6.89077 49.8023 C.3 0.0 **** -0.106
53 C5772 2.2925 9.44564 44.1452 C.ar 0.0 **** 0.0
54 C5762 2.95478 9.16179 50.6176 C.ar 0.0 **** 0.0
55 C5760 3.16835 9.90059 48.3232 C.ar 0.0 **** 0.2405
56 H5817 10.7738 16.8377 60.6375 H 0.0 **** 0.053
57 C5728 11.3857 18.5613 53.7592 C.ar 0.0 **** 0.0
58 H5815 3.10805 11.428 43.9363 H 0.0 **** 0.1268
59 H5819 11.76 14.5343 58.8413 H 0.0 **** 0.053
60 C5763 2.36245 8.24999 51.6707 C.3 0.0 **** -0.106
61 H5822 12.713 17.6322 60.8126 H 0.0 **** 0.053
62 C5783 12.4601 13.5942 45.8745 C.3 0.0 **** -0.159
63 H5813 1.16945 6.80952 47.0544 H 0.0 **** 0.053
64 H5836 11.1257 19.2136 48.2175 H 0.0 **** 0.41
65 H5825 9.12029 16.1272 56.3123 H 0.0 **** 0.053
66 C5733 11.6888 19.0245 51.3408 C.ar 0.0 **** 0.0
67 C5758 4.41646 10.9738 49.9403 C.ar 0.0 **** 0.2405
68 C5738 11.3756 18.6175 50.0203 C.ar 0.0 **** 0.042
69 H5840 11.9252 12.641 45.9987 H 0.0 **** 0.053
70 C5737 10.7857 17.3617 49.7312 C.ar 0.0 **** 0.0
71 H5804 5.35132 9.7559 52.4909 H 0.0 **** 0.053
72 O5785 8.34651 15.3261 52.7054 O.3 0.0 **** -0.452
73 H5797 12.2271 14.1034 47.9375 H 0.0 **** 0.053
74 H5798 13.6433 15.843 47.6764 H 0.0 **** 0.053
75 H5850 0.961313 9.11337 42.4625 H 0.0 **** 0.053
76 H5800 12.5712 17.9062 47.7462 H 0.0 **** 0.053
77 H5818 12.7855 15.4374 59.9718 H 0.0 **** 0.053
78 C5766 1.57928 8.01387 48.7886 C.3 0.0 **** -0.053
79 H5809 0.515377 6.26301 49.486 H 0.0 **** 0.053
80 H5848 2.60047 8.49052 42.2207 H 0.0 **** 0.053
81 H5791 9.73595 17.642 54.7584 H 0.0 **** 0.053
82 C5740 10.1224 15.5962 48.1637 C.2 0.0 **** 0.0
83 H5834 14.0882 21.4845 51.0527 H 0.0 **** 0.053
84 C5725 10.8552 17.0397 57.2424 C.ar 0.0 **** 0.0
85 C5729 12.0993 19.6994 54.062 C.ar 0.0 **** 0.0
86 C5731 12.6296 20.5262 53.0142 C.ar 0.0 **** 0.0
87 C5751 6.31748 12.5851 49.2585 C.2 0.0 **** 0.367
88 C5727 10.8414 17.6553 54.8243 C.3 0.0 **** -0.106
89 H5794 9.82635 16.5973 52.9069 H 0.0 **** 0.1268
90 H5795 9.98581 13.901 46.8176 H 0.0 **** 0.053
91 H5844 7.5933 14.7312 53.1636 H 0.0 **** 0.41
92 C5735 10.3212 17.1124 52.0999 C.ar 0.0 **** -0.1268
93 N5759 4.03338 10.8631 48.6605 N.ar 0.0 **** -0.481
94 O5786 6.56429 13.7639 53.2498 O.2 0.0 **** -0.419
95 H5803 3.70526 9.92049 53.1072 H 0.0 **** 0.053
96 O5784 7.97818 13.8447 47.4416 O.3 0.0 **** -0.452
97 C5777 10.0477 15.8315 56.8299 C.3 0.0 **** -0.159
98 C5779 13.3904 21.7764 53.3961 C.3 0.0 **** -0.159
99 C5748 7.38535 13.9854 51.0327 C.ar 0.0 **** 0.052
100 H5821 13.4907 19.1407 60.3176 H 0.0 **** 0.053
101 H5843 7.21348 13.0977 47.4654 H 0.0 **** 0.41
102 C5736 10.1064 16.6641 50.7977 C.ar 0.0 **** 0.0
103 C5749 7.28288 13.5813 49.6813 C.ar 0.0 **** 0.052
104 H5846 1.43022 7.02328 43.4594 H 0.0 **** 0.053
105 H5806 2.10597 8.83455 52.5677 H 0.0 **** 0.053
106 C5741 9.15619 15.1136 49.1099 C.ar 0.0 **** 0.0
107 C5732 12.4833 20.1748 51.6761 C.ar 0.0 **** 0.0
108 C5774 10.8113 16.3144 59.6723 C.3 0.0 **** -0.106
109 H5793 13.4457 20.3222 55.5924 H 0.0 **** 0.053
110 C5776 12.5414 18.5903 60.3048 C.3 0.0 **** -0.159
111 C5745 12.8173 15.9238 46.9523 C.ar 0.0 **** -0.053
112 H5839 12.6285 16.3497 44.8229 H 0.0 **** 0.053
113 C5768 2.24578 8.57423 46.4179 C.ar 0.0 **** 0.0
114 C5782 13.4153 16.2986 45.5925 C.3 0.0 **** -0.159
115 C5767 1.96896 7.47339 47.4115 C.3 0.0 **** -0.106
116 H5842 12.2299 13.9816 44.8707 H 0.0 **** 0.053
117 H5805 3.14158 7.53596 51.9934 H 0.0 **** 0.053
118 C5769 2.83164 9.76587 46.8938 C.ar 0.0 **** 0.0
119 H5826 9.77522 15.1877 57.6724 H 0.0 **** 0.053
120 H5824 10.6116 15.2127 56.1124 H 0.0 **** 0.053
121 H5816 9.7845 15.965 59.4893 H 0.0 **** 0.053
122 C5747 8.31922 14.9751 51.4224 C.ar 0.0 **** 0.042
123 C5778 13.1613 20.563 58.2508 C.3 0.0 **** -0.159
124 H5831 14.4706 21.5774 53.511 H 0.0 **** 0.053
125 C5773 1.99059 8.40141 45.0448 C.ar 0.0 **** 0.0
126 H5845 1.96315 6.23585 44.9592 H 0.0 **** 0.053
127 C5754 6.51857 13.4022 52.0192 C.2 0.0 **** 0.367
128 C5771 2.8665 10.6278 44.6393 C.ar 0.0 **** -0.1268
129 H5832 13.0372 22.186 54.3504 H 0.0 **** 0.053
130 C5775 11.7534 15.1051 59.7819 C.3 0.0 **** -0.159
@<TRIPOS>BOND
1 66 68 am
2 103 87 1
3 106 82 1
4 14 11 am
5 48 14 am
6 84 48 am
7 49 84 am
8 39 11 am
9 39 49 am
10 57 88 1
11 85 57 am
12 18 85 1
13 48 88 1
14 14 18 1
15 107 86 am
16 66 107 am
17 33 66 am
18 85 86 am
19 57 33 am
20 102 92 am
21 70 102 am
22 68 70 am
23 33 92 am
24 82 10 1
25 9 106 am
26 70 10 1
27 102 9 am
28 27 51 1
29 111 27 am
30 21 111 1
31 82 51 1
32 10 21 1
33 99 122 am
34 103 99 am
35 13 103 am
36 9 122 am
37 106 13 am
38 37 87 1
39 6 37 am
40 127 6 1
41 99 127 1
42 12 8 1
43 17 12 1
44 67 17 am
45 6 8 1
46 37 67 am
47 55 93 am
48 28 55 am
49 54 28 am
50 67 93 am
51 17 54 am
52 34 60 1
53 52 34 1
54 78 52 1
55 54 60 1
56 28 78 1
57 113 115 1
58 118 113 am
59 55 118 am
60 78 115 1
61 128 47 am
62 53 128 am
63 125 53 am
64 118 47 am
65 113 125 am
66 49 108 1
67 108 130 1
68 39 110 1
69 84 97 1
70 11 123 1
71 86 98 1
72 107 36 1
73 68 43 1
74 111 114 1
75 27 62 1
76 13 96 1
77 122 72 1
78 127 94 2
79 87 40 2
80 125 15 1
81 53 45 1
82 88 7 1
83 88 81 1
84 18 24 1
85 18 109 1
86 92 89 1
87 51 90 1
88 51 41 1
89 27 73 1
90 111 74 1
91 21 42 1
92 21 76 1
93 8 26 1
94 8 50 1
95 12 95 1
96 12 71 1
97 60 117 1
98 60 105 1
99 34 25 1
100 34 16 1
101 52 79 1
102 52 30 1
103 78 5 1
104 115 31 1
105 115 63 1
106 47 29 1
107 128 58 1
108 108 121 1
109 108 56 1
110 130 77 1
111 130 59 1
112 130 35 1
113 110 100 1
114 110 61 1
115 110 3 1
116 97 120 1
117 97 65 1
118 97 119 1
119 123 38 1
120 123 2 1
121 123 22 1
122 98 19 1
123 98 124 1
124 98 129 1
125 36 23 1
126 36 83 1
127 36 1 1
128 43 64 1
129 114 20 1
130 114 44 1
131 114 112 1
132 62 69 1
133 62 46 1
134 62 116 1
135 96 101 1
136 72 91 1
137 15 126 1
138 15 104 1
139 15 4 1
140 45 80 1
141 45 32 1
142 45 75 1
@<TRIPOS>MOLECULE
Sketch 4
250 292
SMALL
USER_CHARGES


@<TRIPOS>ATOM
1 H28886 48.2189 4.98327 13.8677 H 0.0 **** 0.053
2 C28700 51.4609 5.75224 14.9885 C.2 0.0 **** -0.1268
3 H28807 49.3066 5.02006 23.9284 H 0.0 **** 0.053
4 C28788 50.3699 22.4544 -0.552892 C.2 0.0 **** 0.0
5 C28684 52.4537 4.5904 18.4356 C.2 0.0 **** 0.0
6 C28698 50.732 1.25734 13.3779 C.3 0.0 **** -0.106
7 C28695 49.7595 3.16499 15.4432 C.3 0.0 **** -0.106
8 O28801 50.1318 24.0528 -5.41732 O.2 0.0 **** -0.419
9 C28717 50.8095 11.8785 14.63 C.2 0.0 **** -0.1268
10 C28668 50.7975 6.53902 22.4639 C.3 0.0 **** -0.106
11 C28745 48.0816 17.3697 15.3078 C.3 0.0 **** -0.106
12 H28884 46.4626 4.79343 13.6494 H 0.0 **** 0.053
13 H28832 53.0862 0.268385 14.061 H 0.0 **** 0.053
14 O28743 50.5208 14.5389 14.8015 O.3 0.0 **** -0.202
15 H28826 51.805 9.41696 22.4051 H 0.0 **** 0.053
16 H28839 51.3168 1.21649 12.4409 H 0.0 **** 0.053
17 C28694 51.2008 2.71777 15.3625 C.2 0.0 **** 0.0
18 C28758 50.2459 19.2288 4.70381 C.2 0.0 **** 0.0
19 C28711 51.0313 10.1227 8.74483 C.2 0.0 **** -0.1268
20 C28798 51.1872 20.5792 -5.03928 C.3 0.0 **** -0.106
21 H28854 50.0963 13.9763 2.31009 H 0.0 **** 0.053
22 H28849 50.3909 8.5442 3.86051 H 0.0 **** 0.053
23 C28784 50.7903 27.2963 0.204548 C.2 0.0 **** -0.1268
24 H28840 50.4538 0.207388 13.5943 H 0.0 **** 0.053
25 H28877 50.4453 16.9929 0.0212054 H 0.0 **** 0.053
26 C28723 50.5512 16.4357 7.21646 C.2 0.0 **** 0.0
27 C28690 53.4047 3.73935 18.8814 C.2 0.0 **** -0.1268
28 C28731 50.494 11.1501 1.5671 C.3 0.0 **** 0.134
29 C28771 47.4239 3.01582 14.4636 C.3 0.0 **** -0.053
30 C28737 50.6044 14.6339 13.4304 C.2 0.0 **** 0.042
31 C28724 50.5876 16.2931 8.62648 C.2 0.0 **** 0.0
32 C28681 50.8926 10.6078 15.156 C.2 0.0 **** 0.232
33 H28802 45.9864 4.39003 20.4589 H 0.0 **** 0.053
34 C28669 51.5328 8.20154 20.6657 C.2 0.0 **** 0.0
35 C28687 52.149 3.20422 16.3907 C.2 0.0 **** 0.0
36 H28811 50.6835 3.66992 20.6924 H 0.0 **** 0.053
37 H28891 50.2924 22.6341 7.04377 H 0.0 **** 0.1268
38 C28713 51.0914 12.8203 6.18164 C.2 0.0 **** 0.042
39 C28732 51.1651 12.1213 2.59551 C.3 0.0 **** -0.053
40 C28759 50.1159 16.8746 2.92997 C.3 0.0 **** -0.053
41 H28836 48.6715 1.35935 15.0319 H 0.0 **** 0.053
42 C28670 51.4811 8.18714 19.2809 C.2 0.0 **** 0.0
43 H28869 51.1569 18.4122 16.4748 H 0.0 **** 0.053
44 H28815 49.4965 1.69977 22.1211 H 0.0 **** 0.053
45 H28847 52.5401 10.8375 5.21967 H 0.0 **** 0.053
46 H28873 50.48 14.6582 4.31697 H 0.0 **** 0.1268
47 C28718 50.7543 13.5703 11.2319 C.2 0.0 **** 0.0
48 H28888 46.5929 1.69106 12.9432 H 0.0 **** 0.053
49 H28833 53.7301 1.92147 14.1075 H 0.0 **** 0.053
50 H28872 50.3301 19.643 9.48147 H 0.0 **** 0.1268
51 C28661 50.0038 5.35358 21.9215 C.3 0.0 **** -0.053
52 C28782 50.5339 25.5765 3.49634 C.2 0.0 **** -0.1268
53 C28674 51.2743 8.15308 16.4267 C.2 0.0 **** 0.0
54 C28697 49.4735 2.10564 13.1958 C.3 0.0 **** -0.106
55 C28699 51.2021 6.93122 14.3337 C.2 0.0 **** -0.012
56 C28775 50.3038 22.7936 5.96567 C.2 0.0 **** -0.1268
57 H28830 54.4321 0.765809 16.1865 H 0.0 **** 0.053
58 C28742 50.0464 15.7204 15.476 C.3 0.0 **** 0.107
59 H28850 48.8377 10.2039 2.58502 H 0.0 **** 0.053
60 C28658 48.8881 4.95445 22.9102 C.3 0.0 **** -0.053
61 H28851 49.748 9.12251 1.52582 H 0.0 **** 0.053
62 C28686 51.6239 5.67969 16.4049 C.2 0.0 **** 0.0
63 H28820 50.7484 5.32265 19.42 H 0.0 **** 0.053
64 C28766 50.1852 20.7366 2.7997 C.2 0.0 **** 0.0
65 C28753 50.3277 17.8943 5.24657 C.2 0.0 **** 0.0
66 H28893 50.5897 26.4342 4.17035 H 0.0 **** 0.1268
67 C28696 48.812 2.34836 14.557 C.3 0.0 **** -0.053
68 H28887 46.3265 1.13155 14.6132 H 0.0 **** 0.053
69 H28845 49.5093 12.4127 3.94287 H 0.0 **** 0.053
70 H28903 49.4415 21.4368 -5.97521 H 0.0 **** 0.053
71 C28693 51.612 1.78143 14.4747 C.2 0.0 **** 0.0
72 C28727 50.5184 10.582 4.57209 C.3 0.0 **** -0.053
73 H28841 51.5847 4.84009 14.4052 H 0.0 **** 0.1268
74 H28875 51.4231 18.32 2.00725 H 0.0 **** 0.053
75 C28754 50.3225 16.7651 4.41738 C.2 0.0 **** 0.0
76 C28752 50.3889 18.7557 8.85019 C.2 0.0 **** -0.1268
77 H28879 49.0378 15.2339 0.70359 H 0.0 **** 0.053
78 C28683 51.1232 8.17985 15.0349 C.2 0.0 **** 0.0
79 C28796 50.4164 21.5295 -2.83774 C.2 0.0 **** 0.0
80 C28715 50.8244 13.8486 8.36506 C.2 0.0 **** 0.0
81 C28729 50.69 9.52633 3.47307 C.3 0.0 **** -0.106
82 C28789 50.32 22.2505 0.855709 C.2 0.0 **** 0.0
83 H28848 51.7541 9.44518 3.19248 H 0.0 **** 0.053
84 C28705 50.9708 9.97605 10.1272 C.2 0.0 **** 0.0
85 C28679 51.2843 9.46901 21.434 C.3 0.0 **** -0.106
86 C28792 50.7944 26.3706 -2.1014 C.2 0.0 **** -0.1268
87 C28676 51.2226 9.4102 18.5461 C.2 0.0 **** 0.0
88 C28748 50.4919 17.4623 9.45158 C.2 0.0 **** 0.0
89 H28819 51.264 6.22504 23.411 H 0.0 **** 0.053
90 C28708 50.8622 12.4162 10.3876 C.2 0.0 **** 0.0
91 C28750 50.4179 17.7286 6.6368 C.2 0.0 **** 0.0
92 C28755 50.4716 15.5101 4.97857 C.2 0.0 **** -0.1268
93 H28809 47.3093 6.18403 23.8297 H 0.0 **** 0.053
94 O28665 52.3353 4.64027 21.4769 O.3 0.0 **** -0.32
95 C28800 50.3677 22.9806 -4.85833 C.2 0.0 **** 0.347
96 H28858 50.5921 12.3327 -1.05164 H 0.0 **** 0.053
97 H28897 50.9193 27.3808 -2.49701 H 0.0 **** 0.1268
98 C28768 50.254 21.6512 5.10168 C.2 0.0 **** 0.0
99 O28725 51.308 12.9253 4.82458 O.3 0.0 **** -0.202
100 C28795 50.4786 22.8219 -3.3762 C.2 0.0 **** 0.052
101 C28721 50.6743 14.857 10.6194 C.2 0.0 **** 0.0
102 C28712 51.2256 11.5593 6.73134 C.2 0.0 **** 0.0
103 H28825 50.2064 9.56319 21.6749 H 0.0 **** 0.053
104 C28685 51.9992 4.49986 17.0505 C.2 0.0 **** 0.0
105 H28896 50.7516 25.4697 -4.04185 H 0.0 **** 0.1268
106 C28728 51.582 10.5156 5.67751 C.3 0.0 **** 0.107
107 H28852 51.3005 10.7798 0.911288 H 0.0 **** 0.053
108 C28716 50.7958 12.107 13.2384 C.2 0.0 **** 0.0
109 H28878 48.9331 17.5432 -0.715008 H 0.0 **** 0.053
110 C28719 50.7183 13.4284 12.6514 C.2 0.0 **** 0.0
111 N28736 49.5342 11.8109 0.681735 N.3 0.0 **** -0.727
112 C28761 50.223 19.4348 3.32178 C.2 0.0 **** 0.0
113 C28797 50.4831 20.3006 -3.71693 C.3 0.0 **** -0.106
114 H28835 49.6672 4.23243 15.1912 H 0.0 **** 0.053
115 C28793 50.0328 20.0564 -0.868228 C.2 0.0 **** -0.1268
116 C28777 50.4137 24.2913 4.03485 C.2 0.0 **** 0.0
117 H28902 52.2368 20.8497 -4.83865 H 0.0 **** 0.053
118 C28673 51.532 6.93437 17.1568 C.2 0.0 **** 0.0
119 H28900 49.4611 19.9253 -3.91409 H 0.0 **** 0.053
120 C28701 50.9346 9.6338 12.9577 C.2 0.0 **** 0.0
121 C28786 50.5905 24.8757 -0.189801 C.2 0.0 **** 0.0
122 H28862 50.3076 15.5508 16.5303 H 0.0 **** 0.053
123 H28823 51.4916 11.6248 21.196 H 0.0 **** 0.053
124 C28720 50.691 15.0019 9.20768 C.2 0.0 **** 0.0
125 H28813 51.7479 2.40822 22.58 H 0.0 **** 0.053
126 H28837 49.7525 3.07588 12.7533 H 0.0 **** 0.053
127 H28824 52.8142 10.6663 20.4939 H 0.0 **** 0.053
128 H28868 48.6276 19.2353 16.3033 H 0.0 **** 0.053
129 H28866 48.1276 17.7686 14.2837 H 0.0 **** 0.053
130 C28757 50.2395 20.3273 5.58025 C.2 0.0 **** 0.0265
131 C28776 50.3758 24.0575 5.4495 C.2 0.0 **** -0.1268
132 H28880 47.5793 16.2311 0.679943 H 0.0 **** 0.053
133 H28817 52.7456 7.34304 22.1336 H 0.0 **** 0.053
134 C28706 50.906 11.1244 10.9747 C.2 0.0 **** 0.0
135 C28678 51.7227 10.7026 20.6412 C.3 0.0 **** -0.106
136 H28806 47.6244 3.29112 23.3918 H 0.0 **** 0.053
137 C28707 50.8763 10.9542 12.3863 C.2 0.0 **** 0.0
138 O28680 50.8975 10.55 16.5285 O.3 0.0 **** -0.464
139 H28865 47.0363 17.4439 15.6419 H 0.0 **** 0.053
140 H28899 51.0089 19.5002 -3.17765 H 0.0 **** 0.053
141 H28808 47.9548 6.83581 22.2918 H 0.0 **** 0.053
142 C28677 51.0277 10.713 19.2792 C.3 0.0 **** -0.106
143 C28794 50.2906 21.3356 -1.42707 C.2 0.0 **** 0.0
144 H28861 51.9063 16.7125 15.0531 H 0.0 **** 0.053
145 H28885 47.5886 4.0015 12.5271 H 0.0 **** 0.053
146 C28704 50.9833 8.67882 10.704 C.2 0.0 **** -0.1268
147 C28714 50.839 13.9962 6.94966 C.2 0.0 **** 0.0
148 C28657 48.4215 3.51003 22.6664 C.3 0.0 **** -0.053
149 H28827 55.0044 2.98302 17.6705 H 0.0 **** 0.053
150 O28740 50.5229 17.0553 13.5542 O.3 0.0 **** -0.202
151 H28804 47.1918 2.4955 21.1994 H 0.0 **** 0.053
152 C28735 50.1784 12.8315 -0.158859 C.3 0.0 **** 0.081
153 C28656 47.7923 3.41604 21.261 C.3 0.0 **** -0.106
154 H28822 49.9449 10.8848 19.4293 H 0.0 **** 0.053
155 H28842 51.0161 7.81508 10.0361 H 0.0 **** 0.1268
156 C28726 50.5409 12.0158 3.9859 C.3 0.0 **** 0.107
157 H28805 48.5839 3.335 20.4993 H 0.0 **** 0.053
158 C28664 49.583 2.50399 22.8702 C.3 0.0 **** -0.106
159 H28864 48.0242 15.336 16.1132 H 0.0 **** 0.053
160 C28781 50.5956 25.793 2.11036 C.2 0.0 **** 0.0
161 C28739 50.5815 16.0343 11.4222 C.2 0.0 **** 0.0
162 H28860 48.7973 12.2375 1.24475 H 0.0 **** 0.353
163 H28889 45.3668 2.48448 13.9545 H 0.0 **** 0.053
164 H28901 51.1922 19.6792 -5.67274 H 0.0 **** 0.053
165 C28702 50.9675 8.50383 12.0642 C.2 0.0 **** -0.012
166 C28738 50.578 15.8848 12.8332 C.2 0.0 **** 0.042
167 H28874 50.8341 16.1941 2.44745 H 0.0 **** 0.053
168 C28751 50.3587 18.8749 7.48833 C.2 0.0 **** 0.042
169 C28790 50.5525 23.971 -2.49724 C.2 0.0 **** 0.0
170 H28876 48.4716 18.7736 1.50184 H 0.0 **** 0.053
171 C28778 50.3425 23.1653 3.15233 C.2 0.0 **** 0.0
172 C28709 50.922 12.5589 8.96734 C.2 0.0 **** 0.0
173 H28838 48.7763 1.61553 12.499 H 0.0 **** 0.053
174 C28691 53.3815 1.07623 16.0689 C.3 0.0 **** -0.106
175 H28846 49.5424 10.4169 5.0558 H 0.0 **** 0.053
176 H28831 52.762 0.277131 16.5244 H 0.0 **** 0.053
177 H28853 52.2251 11.8337 2.69928 H 0.0 **** 0.053
178 H28844 50.7632 12.7002 15.3294 H 0.0 **** 0.1268
179 C28767 50.2445 21.8498 3.68521 C.2 0.0 **** 0.0
180 C28746 48.9988 18.2042 16.2088 C.3 0.0 **** -0.106
181 C28762 49.4939 18.5703 1.12406 C.3 0.0 **** -0.053
182 C28733 51.0938 13.5666 2.07508 C.3 0.0 **** -0.106
183 H28859 49.3908 13.5138 -0.511688 H 0.0 **** 0.053
184 H28904 50.9508 22.0395 -6.67067 H 0.0 **** 0.053
185 H28882 47.9625 17.0784 2.89177 H 0.0 **** 0.053
186 C28787 50.5104 23.7671 -1.08602 C.2 0.0 **** 0.0
187 C28682 50.9631 9.44776 14.3635 C.2 0.0 **** 0.0
188 H28894 50.7756 27.9529 2.24537 H 0.0 **** 0.1268
189 H28856 52.288 13.2001 0.318437 H 0.0 **** 0.053
190 C28760 50.3721 18.288 2.3577 C.3 0.0 **** -0.053
191 C28667 51.9118 7.01249 21.4849 C.3 0.0 **** -0.053
192 C28722 50.631 15.2962 6.36139 C.2 0.0 **** 0.0
193 C28783 50.726 27.1053 1.5594 C.2 0.0 **** -0.1268
194 C28779 50.4024 23.3657 1.74769 C.2 0.0 **** 0.0
195 H28890 52.4839 9.09717 6.66776 H 0.0 **** 0.41
196 O28660 46.5333 5.32001 22.1786 O.3 0.0 **** -0.32
197 C28688 53.1443 2.3662 16.8032 C.2 0.0 **** 0.0
198 H28867 48.9906 17.773 17.2245 H 0.0 **** 0.053
199 H28818 50.12 7.37264 22.7009 H 0.0 **** 0.053
200 C28671 51.6568 6.96664 18.5347 C.2 0.0 **** 0.0
201 C28734 51.3022 13.6272 0.562787 C.3 0.0 **** -0.106
202 H28857 51.3124 14.6722 0.214125 H 0.0 **** 0.053
203 H28810 49.5221 5.66288 20.9801 H 0.0 **** 0.053
204 H28828 54.1613 1.74855 18.5706 H 0.0 **** 0.053
205 C28763 49.418 17.3257 0.247267 C.3 0.0 **** -0.106
206 H28855 51.8201 14.1953 2.60793 H 0.0 **** 0.053
207 H28870 50.5668 19.0307 14.9266 H 0.0 **** 0.053
208 C28655 46.9213 4.66028 20.9686 C.3 0.0 **** 0.054
209 C28749 50.5007 17.3067 10.8376 C.2 0.0 **** -0.1268
210 H28821 51.3845 11.5483 18.6596 H 0.0 **** 0.053
211 H28863 48.2308 15.4113 14.3579 H 0.0 **** 0.053
212 C28744 48.5224 15.8899 15.304 C.3 0.0 **** -0.106
213 H28834 49.4355 3.094 16.4969 H 0.0 **** 0.053
214 C28780 50.5309 24.6723 1.22069 C.2 0.0 **** 0.0
215 H28829 53.7738 3.80149 19.9038 H 0.0 **** 0.1268
216 H28871 50.4382 18.1853 11.4778 H 0.0 **** 0.1268
217 C28765 48.7201 16.3695 2.52184 C.3 0.0 **** -0.106
218 H28803 47.4681 5.37509 20.3216 H 0.0 **** 0.053
219 C28710 51.0583 11.3878 8.13755 C.2 0.0 **** 0.0
220 C28730 49.8579 9.9378 2.25395 C.3 0.0 **** -0.106
221 O28756 50.2562 20.1463 6.94423 O.3 0.0 **** -0.0685
222 H28814 49.4967 2.02306 23.8561 H 0.0 **** 0.053
223 C28791 50.7101 25.3031 -2.97081 C.2 0.0 **** -0.1268
224 C28692 53.0122 1.23098 14.5907 C.3 0.0 **** -0.106
225 C28772 47.4291 4.27177 13.5824 C.3 0.0 **** -0.159
226 C28741 50.8268 16.9174 14.9592 C.3 0.0 **** 0.107
227 O28774 51.7075 9.15347 6.08953 O.3 0.0 **** -0.57
228 C28770 50.1658 20.9496 1.37793 C.2 0.0 **** 0.0
229 H28812 51.229 3.68259 23.6934 H 0.0 **** 0.053
230 C28672 51.7961 5.65739 19.2785 C.3 0.0 **** -0.053
231 C28769 49.9382 19.8605 0.491342 C.2 0.0 **** 0.0
232 H28883 47.1496 3.31971 15.4904 H 0.0 **** 0.053
233 C28773 46.3663 2.02384 13.9687 C.3 0.0 **** -0.159
234 C28764 48.635 16.2153 0.991514 C.3 0.0 **** -0.106
235 C28747 50.4409 18.2209 15.6616 C.3 0.0 **** -0.106
236 H28881 48.5168 15.4102 3.02123 H 0.0 **** 0.053
237 C28663 50.9692 3.16413 22.7563 C.3 0.0 **** -0.106
238 C28666 52.4394 5.82185 20.6645 C.3 0.0 **** 0.107
239 H28816 53.5193 5.9528 20.5013 H 0.0 **** 0.053
240 H28895 50.8971 28.3005 -0.210196 H 0.0 **** 0.1268
241 C28675 51.1474 9.35839 17.1818 C.2 0.0 **** 0.232
242 S28703 50.9056 6.83581 12.6117 S.2 0.0 **** 0.024
243 H28898 49.8613 19.2109 -1.52904 H 0.0 **** 0.1268
244 C28662 50.983 4.18114 21.6278 C.3 0.0 **** 0.107
245 C28659 47.6673 5.90735 22.8282 C.3 0.0 **** 0.054
246 H28892 50.418 24.9215 6.11508 H 0.0 **** 0.1268
247 H28843 51.0253 9.2278 8.13047 H 0.0 **** 0.1268
248 C28785 50.7248 26.1938 -0.701344 C.2 0.0 **** 0.0
249 C28799 50.4774 21.7336 -5.72692 C.3 0.0 **** -0.086
250 C28689 53.9853 2.67968 17.9972 C.3 0.0 **** -0.106
@<TRIPOS>BOND
1 81 83 1
2 153 151 1
3 212 211 1
4 23 240 1
5 217 185 1
6 181 231 1
7 148 153 1
8 60 148 1
9 245 60 1
10 196 245 1
11 208 153 1
12 208 196 1
13 244 51 1
14 237 244 1
15 158 237 1
16 60 51 1
17 148 158 1
18 238 94 1
19 191 238 1
20 10 191 1
21 244 94 1
22 51 10 1
23 42 34 un
24 200 42 un
25 230 200 un
26 191 34 1
27 238 230 1
28 53 118 1
29 241 53 un
30 87 241 un
31 200 118 un
32 42 87 un
33 135 142 1
34 85 135 1
35 34 85 1
36 87 142 1
37 32 138 1
38 187 32 un
39 78 187 un
40 241 138 1
41 53 78 un
42 104 5 un
43 62 104 2
44 230 5 1
45 118 62 un
46 197 35 2
47 250 197 1
48 27 250 1
49 104 35 1
50 5 27 2
51 224 174 1
52 71 224 1
53 17 71 2
54 197 174 1
55 35 17 1
56 67 7 1
57 54 67 1
58 6 54 1
59 17 7 1
60 71 6 1
61 2 55 un
62 62 2 un
63 78 55 un
64 165 120 un
65 242 165 1
66 55 242 un
67 187 120 un
68 84 146 un
69 134 84 un
70 137 134 un
71 165 146 un
72 120 137 un
73 172 90 un
74 219 172 un
75 19 219 un
76 134 90 un
77 84 19 un
78 38 102 un
79 147 38 un
80 80 147 un
81 219 102 un
82 172 80 un
83 9 108 un
84 32 9 un
85 137 108 un
86 110 47 un
87 108 110 un
88 90 47 un
89 101 124 un
90 47 101 un
91 80 124 un
92 26 192 un
93 31 26 un
94 124 31 un
95 147 192 un
96 156 99 1
97 72 156 1
98 106 72 1
99 38 99 1
100 102 106 1
101 220 81 1
102 28 220 1
103 39 28 1
104 72 81 1
105 156 39 1
106 201 182 1
107 152 201 1
108 111 152 1
109 39 182 1
110 28 111 1
111 166 30 un
112 161 166 un
113 101 161 un
114 110 30 un
115 226 150 1
116 58 226 1
117 14 58 1
118 166 150 1
119 30 14 1
120 11 212 1
121 180 11 1
122 235 180 1
123 58 212 1
124 226 235 1
125 209 88 un
126 161 209 un
127 31 88 un
128 168 91 un
129 76 168 un
130 88 76 un
131 26 91 un
132 75 65 un
133 92 75 un
134 192 92 un
135 91 65 un
136 130 221 1
137 18 130 un
138 168 221 1
139 65 18 1
140 190 40 1
141 112 190 1
142 75 40 1
143 18 112 un
144 205 181 1
145 234 205 1
146 217 234 1
147 190 181 1
148 40 217 1
149 179 64 1
150 98 179 1
151 130 98 un
152 112 64 un
153 64 228 un
154 231 228 un
155 67 29 1
156 29 225 1
157 29 233 1
158 106 227 1
159 131 56 1
160 116 131 un
161 171 116 1
162 98 56 un
163 179 171 un
164 214 194 un
165 160 214 1
166 52 160 un
167 171 194 un
168 116 52 un
169 23 193 un
170 248 23 1
171 121 248 1
172 160 193 un
173 214 121 un
174 4 186 un
175 82 4 un
176 194 82 un
177 121 186 un
178 223 169 un
179 86 223 un
180 248 86 un
181 186 169 un
182 143 115 un
183 4 143 un
184 228 82 un
185 231 115 un
186 79 100 un
187 143 79 un
188 169 100 un
189 20 113 1
190 249 20 1
191 95 249 1
192 79 113 1
193 100 95 1
194 95 8 2
195 208 33 1
196 208 218 1
197 153 157 1
198 148 136 1
199 60 3 1
200 245 141 1
201 245 93 1
202 51 203 1
203 244 36 1
204 237 229 1
205 237 125 1
206 158 222 1
207 158 44 1
208 238 239 1
209 191 133 1
210 10 199 1
211 10 89 1
212 230 63 1
213 142 210 1
214 142 154 1
215 135 123 1
216 135 127 1
217 85 103 1
218 85 15 1
219 250 149 1
220 250 204 1
221 27 215 1
222 174 57 1
223 174 176 1
224 224 13 1
225 224 49 1
226 7 213 1
227 7 114 1
228 67 41 1
229 54 126 1
230 54 173 1
231 6 16 1
232 6 24 1
233 2 73 1
234 146 155 1
235 19 247 1
236 9 178 1
237 156 69 1
238 72 175 1
239 106 45 1
240 81 22 1
241 220 59 1
242 220 61 1
243 28 107 1
244 39 177 1
245 182 21 1
246 182 206 1
247 201 189 1
248 201 202 1
249 152 96 1
250 152 183 1
251 111 162 1
252 226 144 1
253 58 122 1
254 212 159 1
255 11 139 1
256 11 129 1
257 180 198 1
258 180 128 1
259 235 43 1
260 235 207 1
261 209 216 1
262 76 50 1
263 92 46 1
264 40 167 1
265 190 74 1
266 181 170 1
267 205 25 1
268 205 109 1
269 234 77 1
270 234 132 1
271 217 236 1
272 29 232 1
273 225 12 1
274 225 145 1
275 225 1 1
276 233 68 1
277 233 48 1
278 233 163 1
279 227 195 1
280 56 37 1
281 131 246 1
282 52 66 1
283 193 188 1
284 223 105 1
285 86 97 1
286 115 243 1
287 113 140 1
288 113 119 1
289 20 164 1
290 20 117 1
291 249 70 1
292 249 184 1
@<TRIPOS>MOLECULE
Sketch 4
250 292
SMALL
USER_CHARGES


@<TRIPOS>ATOM
1 H28149 50.553 77.7732 76.6603 H 0.0 **** 0.053
2 C28021 50.6691 58.8752 61.2119 C.3 0.0 **** -0.053
3 C27977 52.3522 68.7351 69.2502 C.3 0.0 **** -0.053
4 C28037 46.8841 77.0037 79.6228 C.2 0.0 **** 0.0
5 C28027 44.4896 72.4521 79.8619 C.2 0.0 **** 0.0
6 H28121 45.1342 64.1858 74.9697 H 0.0 **** 0.1268
7 H28058 45.729 52.403 64.3521 H 0.0 **** 0.053
8 O27993 46.0098 60.2576 72.1144 O.3 0.0 **** -0.202
9 C28028 45.4443 73.0236 78.9599 C.2 0.0 **** 0.0
10 C27942 55.6274 56.5593 63.3294 C.3 0.0 **** -0.106
11 C27906 48.0158 52.6061 61.6112 C.3 0.0 **** -0.106
12 H28104 50.9641 71.7377 71.6738 H 0.0 **** 0.053
13 H28099 53.7315 68.9553 67.5998 H 0.0 **** 0.053
14 C27966 48.2407 61.0399 70.428 C.2 0.0 **** 0.0
15 H28073 45.8771 53.3952 70.3218 H 0.0 **** 0.053
16 H28075 45.9789 52.8857 67.9008 H 0.0 **** 0.053
17 C28035 45.4684 77.1465 81.6374 C.2 0.0 **** 0.0
18 C28043 48.6246 76.0926 76.4314 C.2 0.0 **** -0.1268
19 C28031 44.5015 74.5114 81.1851 C.2 0.0 **** 0.0
20 C27907 47.8533 51.1361 62.0497 C.3 0.0 **** -0.053
21 H28137 50.9307 58.6496 59.0537 H 0.0 **** 0.053
22 C27925 48.5387 56.6654 68.4271 C.2 0.0 **** 0.232
23 O27975 51.4456 68.7963 71.5639 O.3 0.0 **** -0.202
24 C27908 47.2454 51.0993 63.4613 C.3 0.0 **** -0.053
25 H28096 51.5649 68.5638 68.4988 H 0.0 **** 0.053
26 C27921 49.7624 54.7033 66.8576 C.2 0.0 **** 0.0
27 H28116 42.6305 62.2487 73.1355 H 0.0 **** 0.053
28 C27958 49.2319 63.7096 70.7705 C.2 0.0 **** 0.0
29 C27935 52.0304 55.3835 65.1847 C.2 0.0 **** 0.0
30 H28057 47.1025 50.0455 63.7537 H 0.0 **** 0.053
31 C27951 49.8932 60.6779 68.597 C.2 0.0 **** 0.0
32 C27980 53.1736 70.9256 68.3833 C.3 0.0 **** -0.106
33 C28016 46.8889 72.8326 76.9789 C.2 0.0 **** 0.0
34 H28060 48.0433 52.8348 64.4513 H 0.0 **** 0.053
35 H28115 41.5096 61.2738 72.169 H 0.0 **** 0.053
36 C27949 51.1174 58.6996 66.6332 C.2 0.0 **** -0.012
37 C27959 49.7513 65.0285 70.949 C.2 0.0 **** 0.0
38 C27965 49.167 65.913 71.9038 C.2 0.0 **** 0.0
39 H28142 43.3043 70.6863 80.3111 H 0.0 **** 0.1268
40 H28079 52.5722 52.0333 65.6955 H 0.0 **** 0.1268
41 C28032 44.0374 73.2075 80.9487 C.2 0.0 **** -0.1268
42 C27964 49.6495 67.243 72.0577 C.2 0.0 **** 0.0
43 C27927 46.8359 55.0919 69.3616 C.3 0.0 **** -0.106
44 C27983 52.0039 71.5398 71.9863 C.3 0.0 **** -0.106
45 C27987 46.5545 61.5126 72.2698 C.2 0.0 **** 0.042
46 C27937 53.1531 55.6404 64.2847 C.2 0.0 **** 0.0
47 H28085 51.2646 57.7738 63.5517 H 0.0 **** 0.053
48 O28051 48.1571 81.1701 79.6989 O.2 0.0 **** -0.419
49 C28013 49.3417 74.6286 73.8973 C.3 0.0 **** -0.106
50 C28026 44.0411 71.1102 79.6265 C.2 0.0 **** -0.1268
51 H28154 50.4077 81.5916 78.6732 H 0.0 **** 0.053
52 C27976 51.7627 69.6 70.3923 C.3 0.0 **** 0.107
53 C28034 44.5142 76.55 82.5171 C.2 0.0 **** -0.1268
54 O27930 47.9236 57.6226 69.2111 O.3 0.0 **** -0.464
55 C27957 49.3067 61.5287 69.5996 C.2 0.0 **** 0.0
56 H28098 54.4369 69.3435 69.1708 H 0.0 **** 0.053
57 C27985 52.6642 73.7132 70.8868 C.3 0.0 **** 0.081
58 C27950 51.7308 57.741 65.8646 C.2 0.0 **** -0.1268
59 C28018 45.496 70.9087 77.6851 C.2 0.0 **** 0.0
60 H28150 49.4966 79.0428 76.0347 H 0.0 **** 0.053
61 C27982 52.6926 70.7027 70.8956 C.3 0.0 **** -0.053
62 H28093 52.0986 64.9892 68.4398 H 0.0 **** 0.1268
63 C28011 47.4695 72.038 75.9788 C.2 0.0 **** 0.0
64 H28100 52.1636 71.0091 67.9428 H 0.0 **** 0.053
65 C28010 48.6249 72.6092 75.2006 C.3 0.0 **** -0.053
66 C28001 46.2491 68.0367 75.5405 C.2 0.0 **** 0.042
67 C27999 45.9439 64.5495 74.3389 C.2 0.0 **** -0.1268
68 H28064 49.0149 49.3539 61.5428 H 0.0 **** 0.053
69 C27994 43.6046 60.7482 71.9002 C.3 0.0 **** -0.106
70 C27963 50.8179 67.5943 71.3175 C.2 0.0 **** 0.042
71 H28069 47.9929 50.1764 65.9311 H 0.0 **** 0.053
72 C27991 44.7768 60.5684 74.1538 C.3 0.0 **** 0.107
73 C27992 44.7174 60.0643 72.7216 C.3 0.0 **** 0.107
74 H28127 50.3543 74.431 74.2882 H 0.0 **** 0.053
75 C28015 48.5071 72.5393 72.6672 C.3 0.0 **** -0.106
76 H28067 48.896 51.1371 67.7581 H 0.0 **** 0.053
77 C27909 45.8551 51.786 63.4379 C.3 0.0 **** 0.054
78 C27956 49.7852 62.8556 69.7805 C.2 0.0 **** 0.0
79 C28049 49.8779 80.8045 78.118 C.3 0.0 **** -0.086
80 H28152 51.2923 79.2212 78.5162 H 0.0 **** 0.053
81 C27919 48.1132 53.0726 67.6956 C.2 0.0 **** 0.0
82 C27969 47.6461 61.9113 71.4198 C.2 0.0 **** 0.0
83 H28066 50.9004 52.0662 67.1968 H 0.0 **** 0.053
84 N27986 52.471 72.9092 69.6705 N.3 0.0 **** -0.727
85 C27998 46.3936 65.8619 74.4837 C.2 0.0 **** 0.0
86 C28038 47.3401 76.2533 78.5022 C.2 0.0 **** 0.0
87 C27938 54.1859 54.7487 64.2489 C.2 0.0 **** 0.0
88 C27916 50.1459 52.2305 66.4134 C.3 0.0 **** 0.107
89 C27922 50.3319 53.6709 65.9108 C.3 0.0 **** -0.053
90 H28063 50.8915 49.8972 63.2829 H 0.0 **** 0.053
91 H28072 45.9079 55.3397 68.8123 H 0.0 **** 0.053
92 O28024 53.4313 66.629 68.8535 O.3 0.0 **** -0.57
93 H28077 54.8042 53.5017 65.8785 H 0.0 **** 0.053
94 H28088 53.2212 59.9225 61.0131 H 0.0 **** 0.053
95 C27995 42.4267 61.2297 72.7746 C.3 0.0 **** -0.106
96 H28128 49.2501 75.7181 73.7824 H 0.0 **** 0.053
97 H28068 46.7912 51.461 66.1206 H 0.0 **** 0.053
98 H28055 48.9255 53.0343 62.0612 H 0.0 **** 0.053
99 C27947 53.1552 59.1739 61.8174 C.3 0.0 **** -0.106
100 C27946 52.0072 58.191 61.5623 C.3 0.0 **** -0.053
101 H28145 44.1675 77.1306 83.3743 H 0.0 **** 0.1268
102 C27960 50.8588 65.4747 70.141 C.2 0.0 **** 0.0
103 H28129 50.1124 73.8441 72.0215 H 0.0 **** 0.053
104 H28054 48.1511 52.6402 60.5193 H 0.0 **** 0.053
105 O27915 50.441 51.2425 65.4116 O.3 0.0 **** -0.32
106 C28007 46.0696 70.1656 76.6359 C.2 0.0 **** 0.0265
107 C28039 46.868 74.9277 78.2823 C.2 0.0 **** 0.0
108 C28004 48.666 70.3785 73.9411 C.2 0.0 **** 0.0
109 H28153 49.4137 81.2942 77.2419 H 0.0 **** 0.053
110 C27955 50.8357 63.3464 68.9457 C.2 0.0 **** 0.0
111 C27905 46.7868 53.4423 62.0385 C.3 0.0 **** 0.054
112 C28041 46.8729 79.0289 80.983 C.2 0.0 **** -0.1268
113 H28120 43.3718 61.1731 75.6354 H 0.0 **** 0.053
114 H28090 54.8017 58.0531 60.9477 H 0.0 **** 0.053
115 H28122 44.9944 66.3935 76.0781 H 0.0 **** 0.1268
116 H28061 50.1443 52.2646 63.6361 H 0.0 **** 0.053
117 C28008 47.0609 70.7131 75.8037 C.2 0.0 **** 0.0
118 C27928 46.7981 53.6165 69.7612 C.3 0.0 **** -0.106
119 H28112 44.586 58.9729 72.7314 H 0.0 **** 0.053
120 H28108 53.6012 74.2853 70.7773 H 0.0 **** 0.053
121 H28087 52.9617 59.7171 62.7568 H 0.0 **** 0.053
122 H28136 50.3204 59.6266 63.2544 H 0.0 **** 0.053
123 H28056 47.1291 50.6732 61.3636 H 0.0 **** 0.053
124 H28119 43.5409 59.4186 75.492 H 0.0 **** 0.053
125 C27924 49.6301 57.0381 67.585 C.2 0.0 **** 0.0
126 H28110 51.4769 72.7264 69.5279 H 0.0 **** 0.353
127 C27981 53.1887 71.6356 69.7404 C.3 0.0 **** 0.134
128 C27926 48.0237 55.4001 68.4859 C.2 0.0 **** 0.0
129 H28052 46.482 54.1461 61.252 H 0.0 **** 0.053
130 C27967 47.8348 59.7039 70.2295 C.2 0.0 **** -0.1268
131 H28107 52.2479 73.4369 73.0231 H 0.0 **** 0.053
132 C27979 53.5235 69.4443 68.5599 C.3 0.0 **** -0.106
133 C27984 52.713 72.8767 72.1962 C.3 0.0 **** -0.106
134 C28019 48.1354 74.8282 76.1909 C.2 0.0 **** 0.0
135 C28022 50.2875 59.9753 62.211 C.3 0.0 **** -0.159
136 H28138 51.4521 60.229 59.6915 H 0.0 **** 0.053
137 H28146 47.2277 80.0383 81.1613 H 0.0 **** 0.1268
138 C28003 47.6836 69.8778 74.8054 C.2 0.0 **** 0.0
139 H28118 41.3329 60.575 74.548 H 0.0 **** 0.053
140 H28131 48.7256 71.9222 71.7826 H 0.0 **** 0.053
141 C27931 48.4279 58.8985 69.282 C.2 0.0 **** 0.232
142 H28062 49.3403 49.3366 63.9251 H 0.0 **** 0.053
143 C27945 51.8536 57.2645 62.7738 C.3 0.0 **** -0.106
144 C27913 49.8281 50.1597 63.3784 C.3 0.0 **** -0.106
145 H28086 52.2972 57.5694 60.6945 H 0.0 **** 0.053
146 C28045 48.3165 78.8978 78.9159 C.2 0.0 **** 0.052
147 S27953 51.6419 60.3539 66.4092 S.2 0.0 **** 0.024
148 C27973 47.9164 67.6574 73.7694 C.2 0.0 **** 0.0
149 C28000 47.296 68.5333 74.7038 C.2 0.0 **** 0.0
150 C28020 47.3117 74.1945 77.1625 C.2 0.0 **** 0.0
151 C27914 49.1845 50.3439 61.992 C.3 0.0 **** -0.106
152 H28070 49.7278 53.7975 64.9895 H 0.0 **** 0.053
153 H28124 50.1393 71.8921 73.8596 H 0.0 **** 0.053
154 C28046 48.8141 78.1223 77.86 C.2 0.0 **** 0.0
155 H28065 49.8878 50.8726 61.3278 H 0.0 **** 0.053
156 H28133 49.8921 58.0902 61.2544 H 0.0 **** 0.053
157 C28012 48.3234 74.0885 74.8948 C.3 0.0 **** -0.053
158 H28101 53.8587 71.4399 67.6953 H 0.0 **** 0.053
159 C27918 47.8521 51.2684 65.9025 C.3 0.0 **** -0.106
160 H28083 55.9246 56.9347 64.3276 H 0.0 **** 0.053
161 C27962 51.4321 66.7531 70.4091 C.2 0.0 **** 0.0
162 H28140 53.7872 65.8369 69.2849 H 0.0 **** 0.41
163 H28144 43.3156 74.8326 82.9757 H 0.0 **** 0.1268
164 C28002 45.8028 66.7482 75.438 C.2 0.0 **** -0.1268
165 C28047 49.9254 78.6227 76.9643 C.3 0.0 **** -0.106
166 H28103 53.5719 70.2021 71.3353 H 0.0 **** 0.053
167 C27923 50.2362 56.0015 66.7832 C.2 0.0 **** 0.0
168 H28135 50.9747 60.8309 62.1231 H 0.0 **** 0.053
169 H28109 51.8462 74.4475 70.9305 H 0.0 **** 0.053
170 H28074 47.6522 53.3949 70.4215 H 0.0 **** 0.053
171 C28030 45.4605 75.0887 80.2914 C.2 0.0 **** 0.0
172 C27920 48.6311 54.3579 67.6811 C.2 0.0 **** 0.0
173 C28042 45.9669 78.4516 81.8482 C.2 0.0 **** -0.1268
174 C27934 51.7539 53.987 65.5113 C.2 0.0 **** 0.0
175 H28139 49.7198 59.8759 59.5176 H 0.0 **** 0.053
176 C27996 42.2353 60.3035 73.9808 C.3 0.0 **** -0.106
177 H28053 47.0131 54.0284 62.9516 H 0.0 **** 0.053
178 C27948 54.4718 58.4075 61.9438 C.3 0.0 **** -0.106
179 C27943 54.3579 57.2409 62.8809 C.2 0.0 **** 0.0
180 C27989 46.5132 63.6906 73.3873 C.2 0.0 **** 0.0
181 H28084 51.2494 56.3833 62.4929 H 0.0 **** 0.053
182 C28048 50.7841 79.6776 77.651 C.3 0.0 **** -0.106
183 H28102 54.236 71.8945 69.9725 H 0.0 **** 0.053
184 C27911 48.1945 51.7443 64.4933 C.3 0.0 **** -0.053
185 C27912 49.6896 51.4287 64.2021 C.3 0.0 **** 0.107
186 C28017 45.9322 72.2592 77.8636 C.2 0.0 **** 0.0
187 H28141 44.1837 69.341 78.433 H 0.0 **** 0.1268
188 C28033 44.0455 75.2814 82.2996 C.2 0.0 **** -0.1268
189 C27939 54.1289 53.4563 64.9956 C.3 0.0 **** -0.106
190 C27997 43.4651 60.3497 74.9108 C.3 0.0 **** -0.106
191 O27990 45.0348 61.9883 74.0999 O.3 0.0 **** -0.202
192 C27940 52.7497 53.0759 65.4369 C.2 0.0 **** -0.1268
193 H28132 47.4097 72.6063 72.7352 H 0.0 **** 0.053
194 C28005 49.2828 69.5233 73.0464 C.2 0.0 **** -0.1268
195 H28094 47.0466 59.2674 70.825 H 0.0 **** 0.1268
196 H28081 55.2436 54.6407 62.3894 H 0.0 **** 0.053
197 H28082 56.4505 56.7983 62.6381 H 0.0 **** 0.053
198 H28080 56.2772 54.5318 63.8254 H 0.0 **** 0.053
199 C27941 55.3968 55.0474 63.4098 C.3 0.0 **** -0.106
200 C28040 47.3516 78.3341 79.8377 C.2 0.0 **** 0.0
201 C28036 45.9405 76.4127 80.5167 C.2 0.0 **** 0.0
202 H28092 52.1648 62.9127 67.2948 H 0.0 **** 0.1268
203 C27944 53.1695 56.7744 63.3325 C.2 0.0 **** 0.0
204 H28059 45.0444 51.0446 63.4072 H 0.0 **** 0.053
205 H28091 52.5811 58.0251 65.245 H 0.0 **** 0.1268
206 H28147 45.6221 79.0103 82.7209 H 0.0 **** 0.1268
207 H28134 49.2707 60.3437 62.0085 H 0.0 **** 0.053
208 C28009 49.0421 71.8364 73.928 C.3 0.0 **** -0.053
209 C27971 47.5827 64.1245 72.5466 C.2 0.0 **** 0.0
210 H28078 54.5711 52.6567 64.3696 H 0.0 **** 0.053
211 C28014 49.1403 73.9365 72.5261 C.3 0.0 **** -0.106
212 C27961 51.3383 64.6311 69.1269 C.2 0.0 **** -0.1268
213 C28025 44.524 70.3649 78.587 C.2 0.0 **** -0.1268
214 H28125 49.4905 72.6031 75.8927 H 0.0 **** 0.053
215 O27910 45.6492 52.6081 62.2826 O.3 0.0 **** -0.32
216 C27972 48.9753 68.1523 72.951 C.2 0.0 **** 0.0
217 H28076 46.911 51.6705 68.7754 H 0.0 **** 0.053
218 H28130 48.5046 74.5634 71.882 H 0.0 **** 0.053
219 C28044 48.2815 76.8214 77.6004 C.2 0.0 **** 0.0
220 H28126 47.3301 74.1151 74.4031 H 0.0 **** 0.053
221 O28006 45.649 68.8651 76.4768 O.3 0.0 **** -0.0685
222 H28106 53.7583 72.6872 72.4881 H 0.0 **** 0.053
223 H28113 44.0501 61.5991 71.3647 H 0.0 **** 0.053
224 C27968 48.1488 63.2369 71.5829 C.2 0.0 **** 0.0
225 C27988 46.0414 62.3607 73.2391 C.2 0.0 **** 0.042
226 H28143 43.3106 72.7701 81.6368 H 0.0 **** 0.1268
227 C27932 49.4675 59.3341 68.4404 C.2 0.0 **** 0.0
228 H28148 49.2568 76.5577 75.6799 H 0.0 **** 0.1268
229 H28151 51.5628 80.0485 76.9673 H 0.0 **** 0.053
230 C27952 50.9284 61.2253 67.7573 C.2 0.0 **** -0.012
231 C28029 45.9239 74.3415 79.1829 C.2 0.0 **** 0.0
232 C27970 48.0669 65.4499 72.6996 C.2 0.0 **** 0.0
233 H28089 55.2804 59.0721 62.299 H 0.0 **** 0.053
234 C27978 52.7099 67.3646 69.8431 C.3 0.0 **** 0.107
235 C27936 51.3302 56.3709 65.8807 C.2 0.0 **** 0.0
236 H28105 51.9423 70.9648 72.9202 H 0.0 **** 0.053
237 H28097 53.3827 67.5543 70.7048 H 0.0 **** 0.053
238 C28023 50.6925 59.4366 59.7865 C.3 0.0 **** -0.159
239 C27933 50.0562 58.3711 67.5404 C.2 0.0 **** 0.0
240 C27954 51.374 62.5106 67.9321 C.2 0.0 **** -0.1268
241 C28050 48.7297 80.3317 79.001 C.2 0.0 **** 0.347
242 H28095 50.8157 70.0612 70.0543 H 0.0 **** 0.053
243 H28114 43.255 60.035 71.1394 H 0.0 **** 0.053
244 C27974 47.4692 66.3173 73.6515 C.2 0.0 **** 0.0
245 H28111 45.6256 60.09 74.6702 H 0.0 **** 0.053
246 H28117 42.0805 59.2727 73.6187 H 0.0 **** 0.053
247 H28071 46.8462 55.7416 70.2486 H 0.0 **** 0.053
248 H28123 50.0468 69.9302 72.4029 H 0.0 **** 0.1268
249 C27917 48.753 51.9223 66.9912 C.3 0.0 **** -0.053
250 C27929 46.8941 52.741 68.5094 C.3 0.0 **** -0.106
@<TRIPOS>BOND
1 37 38 un
2 73 72 1
3 99 100 1
4 133 131 1
5 179 178 1
6 185 184 1
7 192 40 1
8 67 6 1
9 151 144 1
10 79 51 1
11 249 81 1
12 20 11 1
13 24 20 1
14 77 24 1
15 215 77 1
16 111 11 1
17 111 215 1
18 144 185 1
19 24 184 1
20 20 151 1
21 88 105 1
22 249 88 1
23 159 249 1
24 185 105 1
25 184 159 1
26 172 81 un
27 26 172 un
28 89 26 un
29 88 89 1
30 125 167 1
31 22 125 un
32 128 22 un
33 26 167 un
34 172 128 un
35 118 43 1
36 250 118 1
37 81 250 1
38 128 43 1
39 141 54 1
40 227 141 un
41 239 227 un
42 22 54 1
43 125 239 un
44 29 174 un
45 235 29 2
46 89 174 1
47 167 235 un
48 87 46 2
49 189 87 1
50 192 189 1
51 29 46 1
52 174 192 2
53 10 199 1
54 179 10 1
55 203 179 2
56 87 199 1
57 46 203 1
58 100 143 1
59 178 99 1
60 203 143 1
61 58 36 un
62 235 58 un
63 239 36 un
64 230 31 un
65 147 230 1
66 36 147 un
67 227 31 un
68 110 240 un
69 78 110 un
70 55 78 un
71 230 240 un
72 31 55 un
73 37 28 un
74 102 37 un
75 212 102 un
76 78 28 un
77 110 212 un
78 70 161 un
79 42 70 un
80 38 42 un
81 102 161 un
82 130 14 un
83 141 130 un
84 55 14 un
85 82 224 un
86 14 82 un
87 28 224 un
88 209 232 un
89 224 209 un
90 38 232 un
91 148 216 un
92 244 148 un
93 232 244 un
94 42 216 un
95 52 23 1
96 3 52 1
97 234 3 1
98 70 23 1
99 161 234 1
100 32 132 1
101 127 32 1
102 61 127 1
103 3 132 1
104 52 61 1
105 133 44 1
106 57 133 1
107 84 57 1
108 61 44 1
109 127 84 1
110 225 45 un
111 180 225 un
112 209 180 un
113 82 45 un
114 72 191 1
115 8 73 1
116 225 191 1
117 45 8 1
118 95 69 1
119 176 95 1
120 190 176 1
121 73 69 1
122 72 190 1
123 67 85 un
124 180 67 un
125 244 85 un
126 66 149 un
127 164 66 un
128 85 164 un
129 148 149 un
130 108 138 un
131 194 108 un
132 216 194 un
133 149 138 un
134 106 221 1
135 117 106 un
136 66 221 1
137 138 117 1
138 65 208 1
139 63 65 1
140 108 208 1
141 117 63 un
142 49 157 1
143 211 49 1
144 75 211 1
145 65 157 1
146 208 75 1
147 186 33 1
148 59 186 1
149 106 59 un
150 63 33 un
151 157 134 1
152 33 150 un
153 134 150 un
154 100 2 1
155 2 135 1
156 2 238 1
157 234 92 1
158 50 213 1
159 5 50 un
160 9 5 1
161 59 213 un
162 186 9 un
163 171 231 un
164 19 171 1
165 41 19 un
166 9 231 un
167 5 41 un
168 53 188 un
169 17 53 1
170 201 17 1
171 19 188 un
172 171 201 un
173 86 4 un
174 107 86 un
175 231 107 un
176 201 4 un
177 112 200 un
178 173 112 un
179 17 173 un
180 4 200 un
181 219 18 un
182 86 219 un
183 150 107 un
184 134 18 un
185 154 146 un
186 219 154 un
187 200 146 un
188 182 165 1
189 79 182 1
190 241 79 1
191 154 165 1
192 146 241 1
193 241 48 2
194 111 129 1
195 111 177 1
196 11 104 1
197 11 98 1
198 20 123 1
199 24 30 1
200 77 7 1
201 77 204 1
202 184 34 1
203 185 116 1
204 144 142 1
205 144 90 1
206 151 68 1
207 151 155 1
208 88 83 1
209 249 76 1
210 159 97 1
211 159 71 1
212 89 152 1
213 43 247 1
214 43 91 1
215 118 15 1
216 118 170 1
217 250 16 1
218 250 217 1
219 189 93 1
220 189 210 1
221 199 198 1
222 199 196 1
223 10 197 1
224 10 160 1
225 143 181 1
226 143 47 1
227 100 145 1
228 99 121 1
229 99 94 1
230 178 233 1
231 178 114 1
232 58 205 1
233 240 202 1
234 212 62 1
235 130 195 1
236 52 242 1
237 3 25 1
238 234 237 1
239 132 56 1
240 132 13 1
241 32 64 1
242 32 158 1
243 127 183 1
244 61 166 1
245 44 12 1
246 44 236 1
247 133 222 1
248 57 120 1
249 57 169 1
250 84 126 1
251 72 245 1
252 73 119 1
253 69 223 1
254 69 243 1
255 95 35 1
256 95 27 1
257 176 246 1
258 176 139 1
259 190 124 1
260 190 113 1
261 164 115 1
262 194 248 1
263 208 153 1
264 65 214 1
265 157 220 1
266 49 74 1
267 49 96 1
268 211 103 1
269 211 218 1
270 75 140 1
271 75 193 1
272 2 156 1
273 135 207 1
274 135 168 1
275 135 122 1
276 238 21 1
277 238 136 1
278 238 175 1
279 92 162 1
280 213 187 1
281 50 39 1
282 41 226 1
283 188 163 1
284 53 101 1
285 112 137 1
286 173 206 1
287 18 228 1
288 165 1 1
289 165 60 1
290 182 229 1
291 182 80 1
292 79 109 1
@<TRIPOS>MOLECULE
Sketch 4
250 292
SMALL
USER_CHARGES


@<TRIPOS>ATOM
1 C27033 51.6634 40.5428 23.5012 C.2 0.0 **** -0.1268
2 H27101 51.9049 37.4179 5.76664 H 0.0 **** 0.053
3 H27126 52.159 37.3476 15.4982 H 0.0 **** 0.053
4 C26943 64.0676 41.3616 -2.07912 C.2 0.0 **** 0.0
5 H27089 62.162 40.5322 -2.55191 H 0.0 **** 0.053
6 H27091 63.9991 41.6888 0.962145 H 0.0 **** 0.1268
7 C26964 56.907 40.3298 10.334 C.2 0.0 **** 0.0
8 C26999 60.7571 41.3144 13.5586 C.2 0.0 **** -0.1268
9 C26971 60.5101 41.1346 11.112 C.2 0.0 **** 0.0
10 C26942 63.8517 42.673 -2.79385 C.3 0.0 **** -0.106
11 H27132 53.6339 36.9771 13.8392 H 0.0 **** 0.053
12 C26931 64.8777 41.8942 6.74964 C.2 0.0 **** 0.232
13 C26928 70.0126 43.9912 6.60237 C.3 0.0 **** -0.106
14 H27061 70.3244 42.1508 -0.257429 H 0.0 **** 0.053
15 C26967 64.3831 41.8444 8.03455 C.2 0.0 **** -0.1268
16 C27041 47.2689 39.2485 21.8325 C.2 0.0 **** -0.1268
17 C26994 65.5674 40.281 12.2689 C.3 0.0 **** -0.106
18 H27115 66.2422 39.1144 13.9781 H 0.0 **** 0.053
19 C27015 53.0975 37.5356 13.0558 C.3 0.0 **** -0.106
20 H27079 68.8293 44.9629 -0.470988 H 0.0 **** 0.1268
21 H27062 73.1122 43.3814 -0.38769 H 0.0 **** 0.053
22 H27086 65.3031 38.6046 -2.16557 H 0.0 **** 0.053
23 O27051 45.0307 37.9664 20.7237 O.2 0.0 **** -0.419
24 N26986 51.1285 37.3388 8.48259 N.3 0.0 **** -0.727
25 C26948 63.2103 40.1925 -2.46682 C.3 0.0 **** -0.106
26 C26988 62.6817 41.6845 12.0858 C.2 0.0 **** 0.042
27 C27049 44.654 37.947 18.3887 C.3 0.0 **** -0.086
28 H27102 50.9378 38.9719 7.24459 H 0.0 **** 0.053
29 C26979 53.5744 38.8314 6.00541 C.3 0.0 **** -0.106
30 C26995 65.6714 40.0355 13.7897 C.3 0.0 **** -0.106
31 O26930 66.2106 42.2134 6.65581 O.3 0.0 **** -0.464
32 C26949 64.0146 41.5557 3.08496 C.2 0.0 **** -0.012
33 C26939 66.9294 44.5847 -1.55969 C.3 0.0 **** -0.106
34 C26929 70.8894 43.6049 5.40882 C.3 0.0 **** -0.106
35 H27127 50.2592 38.6894 13.5364 H 0.0 **** 0.053
36 C26940 67.9229 44.3599 -0.462381 C.2 0.0 **** -0.1268
37 C26922 68.6832 43.133 1.6211 C.3 0.0 **** -0.053
38 C27035 49.4688 39.9019 22.6556 C.2 0.0 **** 0.0
39 C26941 65.2015 43.3568 -3.0297 C.3 0.0 **** -0.106
40 C26934 67.7117 43.441 0.506343 C.2 0.0 **** 0.0
41 H27128 49.8988 37.1247 14.2804 H 0.0 **** 0.053
42 H27121 61.3919 41.5102 14.4213 H 0.0 **** 0.1268
43 C27034 50.3311 40.3105 23.7186 C.2 0.0 **** -0.1268
44 H27057 73.7904 41.7437 1.16074 H 0.0 **** 0.053
45 H27088 62.8163 38.1434 -1.85742 H 0.0 **** 0.053
46 H27069 72.8233 43.6564 2.13935 H 0.0 **** 0.053
47 H27137 65.4495 36.2169 -2.10394 H 0.0 **** 0.053
48 C26924 66.0287 42.2633 4.23463 C.2 0.0 **** 0.0
49 C26907 72.7762 40.4117 -0.200736 C.3 0.0 **** -0.053
50 C26914 72.703 41.4584 -1.34184 C.3 0.0 **** -0.106
51 H27129 51.2584 37.2789 11.9386 H 0.0 **** 0.053
52 C27026 55.5338 40.7478 20.4154 C.2 0.0 **** -0.1268
53 C26961 58.6157 40.4676 6.41931 C.2 0.0 **** -0.1268
54 C27046 47.4766 38.5402 18.1178 C.2 0.0 **** 0.0
55 C26998 59.4118 41.0001 13.7502 C.2 0.0 **** 0.0
56 C27001 57.5318 40.5824 15.2196 C.2 0.0 **** 0.042
57 H27116 64.6643 39.8882 14.2071 H 0.0 **** 0.053
58 H27075 71.3773 42.633 5.62325 H 0.0 **** 0.053
59 C26908 72.8997 41.0935 1.17164 C.3 0.0 **** -0.053
60 H27149 47.0116 38.7868 16.0423 H 0.0 **** 0.053
61 C27012 51.5514 38.2207 15.1856 C.3 0.0 **** -0.053
62 C26955 59.9737 40.7154 6.24472 C.2 0.0 **** 0.0
63 C26947 63.3279 39.0384 -1.47142 C.3 0.0 **** -0.106
64 O27024 55.8782 40.3808 5.44676 O.3 0.0 **** -0.57
65 H27107 50.248 39.2905 11.1253 H 0.0 **** 0.053
66 C26913 72.264 42.8487 -0.847191 C.3 0.0 **** -0.106
67 C26973 57.2282 40.4096 12.7827 C.2 0.0 **** 0.0
68 C27032 53.5947 40.6265 21.9556 C.2 0.0 **** -0.1268
69 C26960 58.0161 40.5044 7.68778 C.2 0.0 **** 0.0
70 C26918 72.0121 43.0225 2.53085 C.3 0.0 **** -0.106
71 C26952 61.8606 40.9879 4.73305 C.2 0.0 **** -0.012
72 H27099 54.0238 38.5149 5.05566 H 0.0 **** 0.053
73 C26965 58.2863 40.6295 10.1522 C.2 0.0 **** 0.0
74 H27125 51.9557 40.2582 14.6863 H 0.0 **** 0.053
75 H27142 56.1686 41.0489 21.2507 H 0.0 **** 0.1268
76 C26927 68.8527 43.003 6.73034 C.3 0.0 **** -0.106
77 C27050 45.5209 38.1953 19.6168 C.2 0.0 **** 0.347
78 O27006 57.0241 40.5098 16.5079 O.3 0.0 **** -0.0685
79 H27066 69.4648 45.1174 1.67896 H 0.0 **** 0.053
80 C26932 64.0938 41.6364 5.61047 C.2 0.0 **** 0.0
81 H27056 73.6696 39.7863 -0.342911 H 0.0 **** 0.053
82 H27136 64.2696 38.3334 1.51563 H 0.0 **** 0.053
83 H27122 59.4737 41.1146 15.9333 H 0.0 **** 0.1268
84 O26915 70.6951 44.0451 0.490325 O.3 0.0 **** -0.32
85 C27031 52.2327 40.3875 22.1995 C.2 0.0 **** 0.0
86 S26953 62.4113 40.8549 3.07027 S.2 0.0 **** 0.024
87 H27152 45.1047 39.7454 17.2804 H 0.0 **** 0.053
88 H27095 54.3022 38.1515 8.99771 H 0.0 **** 0.053
89 O26975 54.7339 40.155 9.27115 O.3 0.0 **** -0.202
90 C27038 49.7058 39.1424 18.9817 C.2 0.0 **** 0.0
91 H27059 74.1624 39.9346 2.55453 H 0.0 **** 0.053
92 H27076 71.7105 44.3285 5.27029 H 0.0 **** 0.053
93 H27139 65.0322 35.3004 -0.630428 H 0.0 **** 0.053
94 H27097 54.8325 41.1838 7.04295 H 0.0 **** 0.053
95 C27011 53.5133 39.5432 15.9003 C.2 0.0 **** 0.0
96 C26911 71.6749 41.9865 1.46198 C.3 0.0 **** -0.053
97 C27048 45.1578 38.6532 17.1411 C.3 0.0 **** -0.106
98 C26996 66.3287 41.2322 14.4864 C.3 0.0 **** -0.106
99 C27021 65.0408 37.4682 -0.359122 C.3 0.0 **** -0.053
100 C27022 64.1802 37.4188 0.910027 C.3 0.0 **** -0.159
101 H27082 63.3218 42.5039 -3.74427 H 0.0 **** 0.053
102 H27109 49.9984 37.1268 10.2211 H 0.0 **** 0.053
103 C27027 54.1495 40.4813 20.68 C.2 0.0 **** 0.0
104 H27133 66.1026 37.4809 -0.0519273 H 0.0 **** 0.053
105 C27016 53.0117 39.5418 17.2107 C.2 0.0 **** 0.0
106 C26984 50.5918 39.236 10.08 C.3 0.0 **** -0.106
107 H27067 71.2301 44.9214 3.10767 H 0.0 **** 0.053
108 C26972 56.3812 40.1486 11.6644 C.2 0.0 **** 0.0
109 C26974 58.5903 40.7577 12.6 C.2 0.0 **** 0.0
110 H27154 43.6245 38.2196 18.6612 H 0.0 **** 0.053
111 C26917 70.7969 43.9253 2.89491 C.3 0.0 **** -0.053
112 H27053 70.7177 39.1683 1.82447 H 0.0 **** 0.053
113 C26966 63.0334 41.5329 8.29933 C.2 0.0 **** 0.0
114 H27141 57.1063 40.8687 18.9706 H 0.0 **** 0.1268
115 H27147 47.675 39.8124 23.8579 H 0.0 **** 0.1268
116 C26978 55.5041 40.3278 6.82447 C.3 0.0 **** 0.107
117 H27105 52.4559 40.2833 10.5293 H 0.0 **** 0.053
118 C26954 60.5346 40.7057 4.94046 C.2 0.0 **** -0.1268
119 C27029 51.9317 39.8227 19.8223 C.2 0.0 **** 0.0
120 C27010 52.544 39.3226 14.7695 C.3 0.0 **** -0.053
121 H27100 53.1462 36.9186 6.9199 H 0.0 **** 0.053
122 C27025 56.0555 40.6465 19.1558 C.2 0.0 **** -0.1268
123 H27123 54.4315 39.4468 11.1024 H 0.0 **** 0.1268
124 H27085 65.2163 39.9498 0.564732 H 0.0 **** 0.053
125 C27019 50.8287 38.657 16.4305 C.2 0.0 **** 0.0
126 C26916 69.8782 44.0981 1.67218 C.3 0.0 **** 0.107
127 C27003 55.3629 39.9089 14.3084 C.2 0.0 **** 0.0
128 C26989 61.3093 41.3754 12.2706 C.2 0.0 **** 0.0
129 C27044 48.8777 38.7259 17.9033 C.2 0.0 **** 0.0
130 H27096 55.3808 38.2028 6.98356 H 0.0 **** 0.053
131 H27124 52.5275 39.5362 12.6341 H 0.0 **** 0.053
132 C26925 66.7895 42.4635 5.42634 C.2 0.0 **** 0.232
133 C26959 58.8518 40.7088 8.84475 C.2 0.0 **** 0.0
134 C27018 55.2303 40.2579 18.0502 C.2 0.0 **** 0.0
135 H27138 63.7623 36.1504 -1.53632 H 0.0 **** 0.053
136 H27090 63.4888 39.8479 -3.48188 H 0.0 **** 0.053
137 C27014 51.6308 37.0764 12.9527 C.3 0.0 **** -0.106
138 H27052 71.2027 37.6521 1.01796 H 0.0 **** 0.053
139 C27043 49.4846 38.4535 16.6493 C.2 0.0 **** -0.1268
140 H27087 62.8298 39.3212 -0.529664 H 0.0 **** 0.053
141 H27151 44.5432 38.4008 16.2636 H 0.0 **** 0.053
142 C26905 71.4771 38.7059 1.16255 C.3 0.0 **** 0.054
143 C27023 64.8115 36.2122 -1.20605 C.3 0.0 **** -0.159
144 C27047 46.6095 38.2501 16.913 C.3 0.0 **** -0.106
145 C26976 54.1018 39.1086 8.4808 C.3 0.0 **** 0.107
146 C26906 71.559 39.4642 -0.183026 C.3 0.0 **** -0.106
147 C26983 52.1108 39.3819 10.0049 C.3 0.0 **** -0.106
148 C27002 58.8485 40.9161 15.0621 C.2 0.0 **** -0.1268
149 C27009 53.164 39.0387 13.3817 C.3 0.0 **** -0.053
150 H27065 71.9974 41.1022 -2.11035 H 0.0 **** 0.053
151 C27037 49.1514 39.3116 20.2821 C.2 0.0 **** 0.0
152 C27028 53.3114 40.0698 19.5938 C.2 0.0 **** 0.0
153 O26993 64.6113 41.9277 10.705 O.3 0.0 **** -0.202
154 C26936 65.9311 42.2965 1.73868 C.2 0.0 **** 0.0
155 H27068 72.4 42.5251 3.43215 H 0.0 **** 0.053
156 H27114 66.4725 39.923 11.7567 H 0.0 **** 0.053
157 C27004 54.5611 39.5732 13.2097 C.2 0.0 **** 0.0
158 C26968 61.0896 41.1997 9.80933 C.2 0.0 **** 0.0
159 C26958 60.2465 40.9665 8.67301 C.2 0.0 **** 0.0
160 C27045 46.9355 38.6303 19.4075 C.2 0.0 **** 0.052
161 C27008 54.8515 39.8642 15.6569 C.2 0.0 **** 0.0
162 H27117 67.3188 41.4101 14.0327 H 0.0 **** 0.053
163 H27143 54.2345 40.9418 22.7828 H 0.0 **** 0.1268
164 H27071 68.1645 43.3031 7.53355 H 0.0 **** 0.053
165 C26982 52.6032 39.3978 8.5482 C.3 0.0 **** -0.053
166 H27073 70.6039 44.0097 7.53054 H 0.0 **** 0.053
167 H27103 52.455 40.4099 8.13492 H 0.0 **** 0.053
168 H27060 70.8728 41.3387 1.85049 H 0.0 **** 0.053
169 C27020 51.634 39.2159 17.4615 C.2 0.0 **** 0.0
170 H27146 46.2178 39.0578 22.021 H 0.0 **** 0.1268
171 C26923 66.6804 42.5356 2.97534 C.2 0.0 **** 0.0
172 C26957 62.1891 41.2716 7.16777 C.2 0.0 **** 0.0
173 H27140 56.2573 41.2583 5.28413 H 0.0 **** 0.41
174 C26956 60.8099 40.9901 7.37016 C.2 0.0 **** 0.0
175 H27070 69.0685 42.1151 1.40878 H 0.0 **** 0.053
176 O26990 63.3925 41.9417 13.2353 O.3 0.0 **** -0.202
177 C26991 64.6867 42.5473 13.0258 C.3 0.0 **** 0.107
178 H27112 66.3392 42.2493 11.6895 H 0.0 **** 0.053
179 C26909 73.1054 40.0119 2.2638 C.3 0.0 **** 0.054
180 H27111 64.524 43.5859 12.6926 H 0.0 **** 0.053
181 H27084 66.5426 39.8945 -0.572127 H 0.0 **** 0.053
182 H27118 66.5056 41.0209 15.5512 H 0.0 **** 0.053
183 H27145 49.9004 40.4378 24.7137 H 0.0 **** 0.1268
184 C26992 65.3758 41.7709 11.9163 C.3 0.0 **** 0.107
185 C26944 65.025 41.2861 -1.12431 C.2 0.0 **** 0.0
186 H27108 49.1934 38.0164 8.92102 H 0.0 **** 0.053
187 C26920 68.7537 43.1355 4.1694 C.2 0.0 **** 0.0
188 C26933 64.7117 41.7948 4.31542 C.2 0.0 **** 0.0
189 H27077 66.3709 45.5279 -1.37033 H 0.0 **** 0.053
190 H27054 71.6428 38.7593 -1.02432 H 0.0 **** 0.053
191 H27134 64.4718 36.5651 1.5402 H 0.0 **** 0.053
192 H27144 52.3162 40.8538 24.3188 H 0.0 **** 0.1268
193 C27000 56.6931 40.3015 14.0969 C.2 0.0 **** 0.0
194 C27040 47.7695 39.0464 20.5164 C.2 0.0 **** 0.0
195 H27092 59.8798 40.4765 4.09665 H 0.0 **** 0.1268
196 H27153 44.6575 36.8537 18.2229 H 0.0 **** 0.053
197 C26935 66.4729 42.6671 0.506329 C.2 0.0 **** 0.0
198 H27083 63.2111 43.3358 -2.18054 H 0.0 **** 0.053
199 H27098 53.0511 39.7824 5.80657 H 0.0 **** 0.053
200 C26981 51.7643 38.3922 7.69019 C.3 0.0 **** 0.134
201 C27042 48.0913 39.6625 22.8595 C.2 0.0 **** -0.1268
202 C26919 70.0872 43.5115 4.1414 C.2 0.0 **** 0.0
203 C27036 50.0008 39.7328 21.3496 C.2 0.0 **** 0.0
204 C27007 55.7021 40.1961 16.7253 C.2 0.0 **** 0.0265
205 C26997 65.4571 42.4972 14.3469 C.3 0.0 **** -0.106
206 C26969 62.478 41.4803 9.63554 C.2 0.0 **** 0.0
207 C27017 53.8555 39.9411 18.2855 C.2 0.0 **** 0.0
208 O26910 72.7428 38.6949 1.8316 O.3 0.0 **** -0.32
209 H27135 63.1177 37.2928 0.650501 H 0.0 **** 0.053
210 C26946 64.8061 38.7485 -1.18799 C.3 0.0 **** -0.053
211 C26963 56.104 40.2513 9.15698 C.2 0.0 **** 0.042
212 H27119 66.0782 43.4014 14.4311 H 0.0 **** 0.053
213 H27063 71.911 43.4671 -1.68486 H 0.0 **** 0.053
214 H27058 72.5141 40.2759 3.16553 H 0.0 **** 0.053
215 C26945 65.442 39.9687 -0.512353 C.3 0.0 **** -0.106
216 H27055 70.6324 40.0396 -0.336996 H 0.0 **** 0.053
217 H27064 73.6826 41.5478 -1.83482 H 0.0 **** 0.053
218 C26980 52.5847 37.7929 6.54395 C.3 0.0 **** -0.106
219 C26987 63.2589 41.6986 10.8253 C.2 0.0 **** 0.042
220 C26937 65.7995 42.5005 -0.780244 C.2 0.0 **** 0.0
221 C26926 68.0975 42.8618 5.43322 C.2 0.0 **** 0.0
222 C26977 54.6803 39.0509 7.04484 C.3 0.0 **** -0.053
223 C26921 67.99 42.9827 2.95663 C.2 0.0 **** 0.0
224 H27104 52.5732 38.5243 10.5232 H 0.0 **** 0.053
225 H27078 67.4474 44.7763 -2.51976 H 0.0 **** 0.053
226 C26938 65.9679 43.4559 -1.74039 C.2 0.0 **** 0.0
227 H27094 65.0717 42.0629 8.83743 H 0.0 **** 0.1268
228 C27030 51.3861 39.9812 21.1179 C.2 0.0 **** 0.0
229 H27113 64.7178 39.7202 11.8529 H 0.0 **** 0.053
230 H27120 64.7112 42.5443 15.1552 H 0.0 **** 0.053
231 H27072 69.2533 42.0145 7.02474 H 0.0 **** 0.053
232 C26950 64.5929 41.8163 1.86696 C.2 0.0 **** -0.1268
233 H27074 69.6123 45.0053 6.44135 H 0.0 **** 0.053
234 H27131 53.6331 37.3405 12.1144 H 0.0 **** 0.053
235 C27005 55.0744 39.6967 11.9317 C.2 0.0 **** -0.1268
236 H27150 46.6596 37.1726 16.6663 H 0.0 **** 0.053
237 H27080 65.069 44.3602 -3.46493 H 0.0 **** 0.053
238 H27110 51.8483 36.8115 8.97838 H 0.0 **** 0.353
239 C26962 56.6097 40.3571 7.87509 C.2 0.0 **** 0.0
240 C26951 62.7339 41.3021 5.83527 C.2 0.0 **** 0.0
241 C26912 71.1615 42.7205 0.19024 C.3 0.0 **** 0.107
242 C26985 50.1573 37.8867 9.44167 C.3 0.0 **** 0.081
243 C26970 59.1339 40.8375 11.2908 C.2 0.0 **** 0.0
244 H27093 58.0222 40.2097 5.54773 H 0.0 **** 0.1268
245 H27148 48.8849 38.031 15.8476 H 0.0 **** 0.1268
246 C27039 51.087 39.3995 18.7483 C.2 0.0 **** 0.0
247 H27130 51.5767 35.9869 13.1012 H 0.0 **** 0.053
248 C27013 50.7203 37.7916 13.982 C.3 0.0 **** -0.106
249 H27106 50.123 40.0781 9.54611 H 0.0 **** 0.053
250 H27081 65.7922 42.7693 -3.76172 H 0.0 **** 0.053
@<TRIPOS>BOND
1 49 50 1
2 99 100 1
3 77 27 1
4 242 186 1
5 49 146 1
6 59 49 1
7 179 59 1
8 208 179 1
9 142 146 1
10 142 208 1
11 241 96 1
12 66 241 1
13 50 66 1
14 59 96 1
15 126 84 1
16 111 126 1
17 70 111 1
18 241 84 1
19 96 70 1
20 187 202 un
21 223 187 un
22 37 223 un
23 111 202 1
24 126 37 1
25 48 171 1
26 132 48 un
27 221 132 un
28 223 171 un
29 187 221 un
30 13 76 1
31 34 13 1
32 202 34 1
33 221 76 1
34 12 31 1
35 80 12 un
36 188 80 un
37 132 31 1
38 48 188 un
39 197 40 un
40 154 197 2
41 37 40 1
42 171 154 un
43 226 220 2
44 33 226 1
45 36 33 1
46 197 220 1
47 40 36 2
48 10 39 1
49 4 10 1
50 185 4 2
51 226 39 1
52 220 185 1
53 210 215 1
54 63 210 1
55 25 63 1
56 185 215 1
57 4 25 1
58 232 32 un
59 154 232 un
60 188 32 un
61 71 240 un
62 86 71 1
63 32 86 un
64 80 240 un
65 62 118 un
66 174 62 un
67 172 174 un
68 71 118 un
69 240 172 un
70 133 159 un
71 69 133 un
72 53 69 un
73 174 159 un
74 62 53 un
75 211 239 un
76 7 211 un
77 73 7 un
78 69 239 un
79 133 73 un
80 15 113 un
81 12 15 un
82 172 113 un
83 206 158 un
84 113 206 un
85 159 158 un
86 9 243 un
87 158 9 un
88 73 243 un
89 67 108 un
90 109 67 un
91 243 109 un
92 7 108 un
93 145 89 1
94 222 145 1
95 116 222 1
96 211 89 1
97 239 116 1
98 218 29 1
99 200 218 1
100 165 200 1
101 222 29 1
102 145 165 1
103 106 147 1
104 242 106 1
105 24 242 1
106 165 147 1
107 200 24 1
108 26 219 un
109 128 26 un
110 9 128 un
111 206 219 un
112 177 176 1
113 184 177 1
114 153 184 1
115 26 176 1
116 219 153 1
117 30 17 1
118 98 30 1
119 205 98 1
120 184 17 1
121 177 205 1
122 8 55 un
123 128 8 un
124 109 55 un
125 56 193 un
126 148 56 un
127 55 148 un
128 67 193 un
129 157 127 un
130 235 157 un
131 108 235 un
132 193 127 un
133 204 78 1
134 161 204 un
135 56 78 1
136 127 161 1
137 120 149 1
138 95 120 1
139 157 149 1
140 161 95 un
141 248 61 1
142 137 248 1
143 19 137 1
144 120 61 1
145 149 19 1
146 207 105 1
147 134 207 1
148 204 134 un
149 95 105 un
150 61 125 1
151 105 169 un
152 125 169 un
153 210 99 1
154 99 143 1
155 116 64 1
156 52 122 1
157 103 52 un
158 152 103 1
159 134 122 un
160 207 152 un
161 228 119 un
162 85 228 1
163 68 85 un
164 152 119 un
165 103 68 un
166 43 1 un
167 38 43 1
168 203 38 1
169 85 1 un
170 228 203 un
171 90 151 un
172 246 90 un
173 119 246 un
174 203 151 un
175 16 194 un
176 201 16 un
177 38 201 un
178 151 194 un
179 129 139 un
180 90 129 un
181 169 246 un
182 125 139 un
183 54 160 un
184 129 54 un
185 194 160 un
186 97 144 1
187 27 97 1
188 54 144 1
189 160 77 1
190 77 23 2
191 142 138 1
192 142 112 1
193 146 190 1
194 146 216 1
195 49 81 1
196 59 44 1
197 179 214 1
198 179 91 1
199 96 168 1
200 241 14 1
201 66 21 1
202 66 213 1
203 50 217 1
204 50 150 1
205 126 79 1
206 111 107 1
207 70 155 1
208 70 46 1
209 37 175 1
210 76 164 1
211 76 231 1
212 13 166 1
213 13 233 1
214 34 58 1
215 34 92 1
216 33 189 1
217 33 225 1
218 36 20 1
219 39 237 1
220 39 250 1
221 10 101 1
222 10 198 1
223 215 181 1
224 215 124 1
225 210 22 1
226 63 140 1
227 63 45 1
228 25 5 1
229 25 136 1
230 232 6 1
231 118 195 1
232 53 244 1
233 15 227 1
234 145 88 1
235 222 130 1
236 116 94 1
237 29 199 1
238 29 72 1
239 218 121 1
240 218 2 1
241 200 28 1
242 165 167 1
243 147 224 1
244 147 117 1
245 106 249 1
246 106 65 1
247 242 102 1
248 24 238 1
249 177 180 1
250 184 178 1
251 17 229 1
252 17 156 1
253 30 18 1
254 30 57 1
255 98 162 1
256 98 182 1
257 205 212 1
258 205 230 1
259 8 42 1
260 148 83 1
261 235 123 1
262 149 131 1
263 120 74 1
264 61 3 1
265 248 35 1
266 248 41 1
267 137 51 1
268 137 247 1
269 19 234 1
270 19 11 1
271 99 104 1
272 100 191 1
273 100 209 1
274 100 82 1
275 143 47 1
276 143 135 1
277 143 93 1
278 64 173 1
279 122 114 1
280 52 75 1
281 68 163 1
282 1 192 1
283 43 183 1
284 16 170 1
285 201 115 1
286 139 245 1
287 144 60 1
288 144 236 1
289 97 141 1
290 97 87 1
291 27 196 1
292 27 110 1
@<TRIPOS>MOLECULE
Sketch 4
130 142
SMALL
USER_CHARGES


@<TRIPOS>ATOM
1 C4480 35.2778 47.7901 37.5611 C.3 0.0 **** -0.159
2 C4445 30.8355 48.3614 41.8835 C.ar 0.0 **** -0.053
3 H4544 27.8289 51.6492 34.9956 H 0.0 **** 0.41
4 H4536 32.0369 46.5438 38.6373 H 0.0 **** 0.41
5 C4473 17.6806 48.2725 39.7896 C.ar 0.0 **** 0.0
6 H4528 37.5431 53.7533 33.1806 H 0.0 **** 0.053
7 H4527 37.0979 52.178 32.5051 H 0.0 **** 0.053
8 H4543 25.0857 48.6586 39.3331 H 0.0 **** 0.41
9 C4427 32.475 51.9938 34.6043 C.3 0.0 **** -0.106
10 C4472 18.3461 47.0823 40.152 C.ar 0.0 **** 0.0
11 H4498 31.5627 49.1878 41.9201 H 0.0 **** 0.053
12 C4453 24.4626 51.4046 35.8128 C.ar 0.0 **** 0.0
13 C4433 33.1013 49.0009 36.9233 C.ar 0.0 **** 0.0
14 H4529 37.1673 53.6016 31.4562 H 0.0 **** 0.053
15 C4444 29.4123 48.9717 41.9629 C.ar 0.0 **** -0.053
16 C4454 25.9113 51.3593 35.681 C.2 0.0 **** 0.367
17 C4479 36.614 49.2097 35.4033 C.3 0.0 **** -0.159
18 C4471 19.6445 46.8523 39.6699 C.ar 0.0 **** -0.1268
19 H4520 32.2819 58.2441 32.3696 H 0.0 **** 0.053
20 C4430 35.3118 51.4004 34.0623 C.3 0.0 **** -0.106
21 O4485 28.6429 51.2031 35.5148 O.3 0.0 **** -0.452
22 N4459 21.6427 49.8551 37.5306 N.ar 0.0 **** -0.481
23 H4522 35.308 56.7512 31.654 H 0.0 **** 0.053
24 H4515 20.1585 45.9342 39.963 H 0.0 **** 0.1268
25 H4538 32.1676 46.9451 42.857 H 0.0 **** 0.053
26 C4456 22.492 52.8775 35.4502 C.3 0.0 **** -0.106
27 C4452 23.7864 50.7132 36.7986 C.ar 0.0 **** 0.0
28 C4462 20.2555 51.9355 36.2517 C.ar 0.0 **** 0.0
29 C4429 34.5099 50.5737 35.0335 C.ar 0.0 **** 0.0
30 C4482 31.1711 47.3855 43.0158 C.3 0.0 **** -0.159
31 H4493 36.267 51.675 34.5412 H 0.0 **** 0.053
32 H4503 21.9067 53.4089 34.6897 H 0.0 **** 0.053
33 H4500 32.1279 47.5468 40.3713 H 0.0 **** 0.053
34 C4461 19.5703 50.9747 37.0091 C.ar 0.0 **** 0.0
35 C4436 30.3031 49.6191 37.3208 C.ar 0.0 **** 0.0
36 H4496 28.4491 47.177 41.2039 H 0.0 **** 0.053
37 C4424 33.3099 52.9135 33.7625 C.ar 0.0 **** 0.0
38 C4476 35.6725 55.7272 31.4998 C.3 0.0 **** -0.159
39 C4425 32.6918 54.0571 33.2179 C.ar 0.0 **** 0.0
40 H4533 34.9406 47.8444 38.603 H 0.0 **** 0.053
41 C4478 36.8774 53.2516 32.456 C.3 0.0 **** -0.159
42 H4539 30.4419 46.5601 43.0463 H 0.0 **** 0.053
43 C4489 17.7019 46.0581 41.0528 C.3 0.0 **** -0.159
44 H4524 31.0605 54.3765 34.6003 H 0.0 **** 0.053
45 H4526 30.8265 55.1846 33.0427 H 0.0 **** 0.053
46 C4455 23.7012 52.2102 34.8008 C.3 0.0 **** -0.106
47 H4540 27.843 49.5231 43.3592 H 0.0 **** 0.053
48 C4439 30.3197 48.2332 39.3666 C.2 0.0 **** 0.0
49 H4492 35.6123 50.7552 33.2134 H 0.0 **** 0.053
50 H4495 27.4502 48.6242 41.1104 H 0.0 **** 0.053
51 C4470 20.2873 47.7692 38.8476 C.ar 0.0 **** -0.1268
52 C4421 34.8257 54.7161 32.2434 C.ar 0.0 **** 0.0
53 C4483 28.8121 49.0025 43.3705 C.3 0.0 **** -0.159
54 C4447 28.0783 50.5384 36.5196 C.ar 0.0 **** 0.042
55 H4523 35.6716 55.5404 30.4115 H 0.0 **** 0.053
56 C4422 35.4219 53.544 32.7441 C.ar 0.0 **** 0.0
57 C4466 18.0657 50.9576 37.1482 C.3 0.0 **** -0.053
58 C4423 34.658 52.6453 33.5148 C.ar 0.0 **** 0.0
59 C4431 35.1644 49.4982 35.7247 C.ar 0.0 **** 0.0
60 H4497 29.4838 50.0141 41.6112 H 0.0 **** 0.053
61 H4504 22.8408 53.6427 36.1693 H 0.0 **** 0.053
62 C4463 19.5027 53.0485 35.5549 C.3 0.0 **** -0.106
63 C4458 22.3102 50.7916 36.8419 C.ar 0.0 **** 0.2405
64 H4494 30.5823 51.0179 35.7406 H 0.0 **** 0.1268
65 H4511 17.6849 50.2041 36.4294 H 0.0 **** 0.053
66 C4450 26.7514 49.1469 38.5928 C.ar 0.0 **** 0.042
67 H4519 32.1368 57.0739 33.7107 H 0.0 **** 0.053
68 H4507 17.7943 52.0438 34.6844 H 0.0 **** 0.053
69 H4505 19.6893 53.9915 36.0998 H 0.0 **** 0.053
70 H4510 17.6794 53.0333 37.5883 H 0.0 **** 0.053
71 H4541 29.4729 49.5266 44.0775 H 0.0 **** 0.053
72 H4545 16.2486 49.6003 40.7299 H 0.0 **** 0.053
73 C4440 28.973 48.5024 39.5708 C.2 0.0 **** 0.0
74 C4488 16.2985 48.5812 40.3172 C.3 0.0 **** -0.159
75 H4537 31.1682 47.8772 43.9984 H 0.0 **** 0.053
76 C4449 25.9983 49.8931 37.6621 C.ar 0.0 **** 0.052
77 C4435 31.071 50.297 36.3755 C.ar 0.0 **** -0.1268
78 H4546 15.9946 47.8835 41.1059 H 0.0 **** 0.053
79 H4542 28.6441 47.9858 43.7562 H 0.0 **** 0.053
80 H4531 37.2979 49.7787 36.0576 H 0.0 **** 0.053
81 H4501 24.3717 52.9415 34.332 H 0.0 **** 0.053
82 H4502 23.361 51.5302 33.9972 H 0.0 **** 0.053
83 C4474 32.7991 56.1799 31.8342 C.3 0.0 **** -0.106
84 C4443 28.4682 48.2586 40.9741 C.3 0.0 **** -0.106
85 H4521 36.7174 55.6992 31.834 H 0.0 **** 0.053
86 C4428 33.1863 50.8601 35.2828 C.ar 0.0 **** 0.0
87 C4475 32.7328 57.3502 32.8282 C.3 0.0 **** -0.159
88 C4432 34.4996 48.756 36.6956 C.ar 0.0 **** 0.0
89 H4547 15.5426 48.5261 39.5152 H 0.0 **** 0.053
90 H4509 16.3436 52.2091 36.7583 H 0.0 **** 0.053
91 H4506 19.9155 53.2024 34.5458 H 0.0 **** 0.053
92 H4517 33.3484 56.4934 30.9359 H 0.0 **** 0.053
93 H4491 31.6486 51.5868 33.9894 H 0.0 **** 0.053
94 H4513 16.5633 50.4048 38.5845 H 0.0 **** 0.053
95 C4437 30.9781 48.6639 38.168 C.ar 0.0 **** 0.0
96 H4518 33.7417 57.6123 33.1819 H 0.0 **** 0.053
97 H4525 30.6164 53.4249 33.1869 H 0.0 **** 0.053
98 C4467 17.6582 50.4901 38.5466 C.3 0.0 **** -0.106
99 H4490 31.9564 52.5891 35.376 H 0.0 **** 0.053
100 H4499 30.6711 46.5845 40.6801 H 0.0 **** 0.053
101 C4438 32.2841 48.2508 37.8047 C.ar 0.0 **** 0.042
102 C4442 28.8682 49.7814 37.461 C.ar 0.0 **** 0.0
103 C4468 18.3185 49.1903 38.9346 C.ar 0.0 **** 0.0
104 H4535 35.145 46.7441 37.2432 H 0.0 **** 0.053
105 O4481 32.7778 47.0536 38.2728 O.3 0.0 **** -0.452
106 H4548 17.4768 46.4784 42.0468 H 0.0 **** 0.053
107 H4534 36.3489 48.0209 37.5435 H 0.0 **** 0.053
108 H4550 16.7487 45.6941 40.6369 H 0.0 **** 0.053
109 C4464 17.9928 52.8043 35.458 C.3 0.0 **** -0.106
110 C4448 26.6686 50.5957 36.6339 C.ar 0.0 **** 0.052
111 O4486 26.4832 51.9872 34.7188 O.2 0.0 **** -0.419
112 C4451 24.5534 49.9212 37.7828 C.2 0.0 **** 0.367
113 C4465 17.4404 52.3059 36.7925 C.3 0.0 **** -0.106
114 H4532 36.8586 49.4832 34.3697 H 0.0 **** 0.053
115 C4469 19.627 48.9455 38.4681 C.ar 0.0 **** 0.0
116 C4434 32.445 50.0654 36.2107 C.ar 0.0 **** 0.0
117 C4426 33.4468 54.9514 32.4378 C.ar 0.0 **** 0.0
118 H4516 31.7848 55.9354 31.4861 H 0.0 **** 0.053
119 H4530 36.8514 48.1454 35.5259 H 0.0 **** 0.053
120 C4441 28.1982 49.1402 38.5438 C.ar 0.0 **** 0.0
121 C4477 31.2277 54.2818 33.5146 C.3 0.0 **** -0.159
122 C4446 31.0486 47.6158 40.5376 C.3 0.0 **** -0.106
123 O4487 23.9901 49.2876 38.7304 O.2 0.0 **** -0.419
124 H4508 17.4883 53.7286 35.138 H 0.0 **** 0.053
125 H4512 17.935 51.275 39.2771 H 0.0 **** 0.053
126 H4514 21.3079 47.6073 38.5008 H 0.0 **** 0.1268
127 C4457 21.6561 51.8587 36.1781 C.ar 0.0 **** 0.0
128 H4549 18.3656 45.1944 41.1946 H 0.0 **** 0.053
129 O4484 26.1139 48.4169 39.4996 O.3 0.0 **** -0.452
130 C4460 20.3135 49.9539 37.6394 C.ar 0.0 **** 0.2405
@<TRIPOS>BOND
1 130 22 am
2 58 56 am
3 37 58 am
4 39 37 am
5 117 39 am
6 52 56 am
7 52 117 am
8 86 9 1
9 29 86 am
10 20 29 1
11 37 9 1
12 58 20 1
13 88 59 am
14 13 88 am
15 116 13 am
16 29 59 am
17 86 116 am
18 35 77 am
19 95 35 am
20 101 95 am
21 116 77 am
22 13 101 am
23 73 48 1
24 120 73 1
25 102 120 am
26 95 48 1
27 35 102 am
28 15 84 1
29 2 15 am
30 122 2 1
31 73 84 1
32 48 122 1
33 110 54 am
34 76 110 am
35 66 76 am
36 102 54 am
37 120 66 am
38 27 112 1
39 12 27 am
40 16 12 1
41 76 112 1
42 110 16 1
43 26 46 1
44 127 26 1
45 63 127 am
46 12 46 1
47 27 63 am
48 34 130 am
49 28 34 am
50 63 22 am
51 127 28 am
52 109 62 1
53 113 109 1
54 57 113 1
55 28 62 1
56 34 57 1
57 103 98 1
58 115 103 am
59 130 115 am
60 57 98 1
61 18 51 am
62 10 18 am
63 5 10 am
64 115 51 am
65 103 5 am
66 117 83 1
67 83 87 1
68 52 38 1
69 39 121 1
70 56 41 1
71 59 17 1
72 88 1 1
73 101 105 1
74 2 30 1
75 15 53 1
76 66 129 1
77 54 21 1
78 16 111 2
79 112 123 2
80 5 74 1
81 10 43 1
82 9 99 1
83 9 93 1
84 20 49 1
85 20 31 1
86 77 64 1
87 84 50 1
88 84 36 1
89 15 60 1
90 2 11 1
91 122 100 1
92 122 33 1
93 46 81 1
94 46 82 1
95 26 32 1
96 26 61 1
97 62 69 1
98 62 91 1
99 109 68 1
100 109 124 1
101 113 90 1
102 113 70 1
103 57 65 1
104 98 125 1
105 98 94 1
106 51 126 1
107 18 24 1
108 83 118 1
109 83 92 1
110 87 96 1
111 87 67 1
112 87 19 1
113 38 85 1
114 38 23 1
115 38 55 1
116 121 44 1
117 121 97 1
118 121 45 1
119 41 7 1
120 41 6 1
121 41 14 1
122 17 119 1
123 17 80 1
124 17 114 1
125 1 40 1
126 1 107 1
127 1 104 1
128 105 4 1
129 30 75 1
130 30 25 1
131 30 42 1
132 53 47 1
133 53 71 1
134 53 79 1
135 129 8 1
136 21 3 1
137 74 72 1
138 74 78 1
139 74 89 1
140 43 106 1
141 43 128 1
142 43 108 1
@<TRIPOS>MOLECULE
Sketch 4
130 142
SMALL
USER_CHARGES


@<TRIPOS>ATOM
1 C534 77.876 69.5508 27.8124 C.ar 0.0 **** 0.0
2 C575 80.0454 71.5489 20.3362 C.3 0.0 **** -0.159
3 C548 72.3073 69.7437 26.1451 C.ar 0.0 **** 0.052
4 H644 73.9574 69.2355 24.6757 H 0.0 **** 0.41
5 C535 76.553 69.7126 27.3735 C.ar 0.0 **** -0.1268
6 O586 72.7783 69.1255 23.9014 O.2 0.0 **** -0.419
7 C528 78.922 69.3945 26.8515 C.ar 0.0 **** 0.0
8 H611 63.6543 68.6111 23.9664 H 0.0 **** 0.053
9 H648 61.6045 70.5875 30.0796 H 0.0 **** 0.053
10 H615 64.5718 68.8522 29.9611 H 0.0 **** 0.1268
11 H603 68.6038 69.6276 21.6019 H 0.0 **** 0.053
12 H601 70.9831 69.2566 22.3919 H 0.0 **** 0.053
13 C537 75.8048 70.0614 29.6555 C.ar 0.0 **** 0.0
14 C523 81.014 69.2722 24.8299 C.ar 0.0 **** 0.0
15 C588 61.1886 70.4801 27.1441 C.3 0.0 **** -0.159
16 C574 80.1538 70.0493 20.655 C.3 0.0 **** -0.106
17 C547 73.6799 69.7334 26.4906 C.ar 0.0 **** 0.042
18 H646 60.6097 70.6255 28.0633 H 0.0 **** 0.053
19 C568 63.5388 69.9593 26.39 C.ar 0.0 **** 0.0
20 C546 75.1732 71.2376 31.8773 C.3 0.0 **** -0.106
21 C567 63.1927 70.4246 24.9974 C.3 0.0 **** -0.106
22 H600 76.2381 71.1531 32.1141 H 0.0 **** 0.053
23 C524 79.7029 69.5232 24.4191 C.ar 0.0 **** 0.0
24 C560 65.8689 69.6013 25.5637 C.ar 0.0 **** 0.2405
25 C579 81.9357 68.7259 29.0781 C.3 0.0 **** -0.159
26 H598 75.5969 73.3372 31.6353 H 0.0 **** 0.053
27 H641 73.1503 75.048 32.109 H 0.0 **** 0.053
28 H617 80.9342 69.5973 20.0276 H 0.0 **** 0.053
29 H633 79.3899 70.2023 31.5763 H 0.0 **** 0.053
30 C553 70.4971 69.44 24.464 C.ar 0.0 **** 0.0
31 O581 77.2629 69.2739 31.4154 O.3 0.0 **** -0.452
32 H591 77.849 68.7284 25.1281 H 0.0 **** 0.053
33 H642 72.1882 73.7622 32.874 H 0.0 **** 0.053
34 H621 83.8474 70.0639 22.0482 H 0.0 **** 0.053
35 O587 69.0539 70.3225 27.682 O.2 0.0 **** -0.419
36 H637 74.5437 74.0854 33.7621 H 0.0 **** 0.053
37 C521 81.7836 69.6077 22.5434 C.ar 0.0 **** 0.0
38 H622 82.6955 70.4732 20.7711 H 0.0 **** 0.053
39 H616 79.2196 69.5442 20.3687 H 0.0 **** 0.053
40 H606 66.6898 69.225 21.1517 H 0.0 **** 0.053
41 C564 64.5725 69.5232 21.4916 C.3 0.0 **** -0.106
42 H626 77.829 70.1963 21.6122 H 0.0 **** 0.053
43 C554 71.9132 69.4271 24.8002 C.2 0.0 **** 0.367
44 H595 71.7388 72.0236 30.5058 H 0.0 **** 0.053
45 C582 74.6934 73.017 33.5545 C.3 0.0 **** -0.159
46 C531 80.5135 69.0384 28.669 C.ar 0.0 **** 0.0
47 H590 77.9853 70.4557 25.2682 H 0.0 **** 0.053
48 C550 71.7187 70.3512 28.4315 C.ar 0.0 **** 0.042
49 C576 82.9228 69.7387 21.5547 C.3 0.0 **** -0.159
50 C545 74.7782 72.7296 32.0521 C.ar 0.0 **** -0.053
51 H627 83.517 68.3956 25.2265 H 0.0 **** 0.053
52 H629 84.0416 68.4874 23.5389 H 0.0 **** 0.053
53 H614 66.2672 68.8695 28.1217 H 0.0 **** 0.1268
54 C571 64.2858 69.1623 28.9537 C.ar 0.0 **** -0.1268
55 H618 80.9758 72.0689 20.611 H 0.0 **** 0.053
56 C522 82.0622 69.3047 23.8889 C.ar 0.0 **** 0.0
57 C555 70.119 69.1039 23.0508 C.3 0.0 **** -0.106
58 C532 79.5393 69.2672 29.6355 C.ar 0.0 **** 0.0
59 H640 71.7454 74.3588 31.2583 H 0.0 **** 0.053
60 H596 72.4546 71.2653 31.9248 H 0.0 **** 0.053
61 H610 63.8233 71.2877 22.4985 H 0.0 **** 0.053
62 O584 70.7872 70.5404 29.3579 O.3 0.0 **** -0.452
63 H639 73.8577 72.4616 34.0098 H 0.0 **** 0.053
64 H624 77.5759 70.9095 23.2125 H 0.0 **** 0.053
65 C526 80.4499 69.7944 22.118 C.ar 0.0 **** 0.0
66 C562 66.4341 69.7725 23.2169 C.ar 0.0 **** 0.0
67 C563 66.0402 69.8742 21.759 C.3 0.0 **** -0.106
68 C536 75.4955 69.9537 28.2489 C.ar 0.0 **** 0.0
69 C578 83.482 69.0159 24.3223 C.3 0.0 **** -0.159
70 C552 69.5165 69.7113 25.3976 C.ar 0.0 **** 0.0
71 H607 64.4396 68.4305 21.5596 H 0.0 **** 0.053
72 C530 81.3262 68.9641 26.2737 C.3 0.0 **** -0.106
73 C570 65.2322 69.1566 27.9365 C.ar 0.0 **** -0.1268
74 H631 82.5329 69.6452 29.2124 H 0.0 **** 0.053
75 C577 77.9683 70.0247 22.6845 C.3 0.0 **** -0.159
76 H612 63.4145 71.5058 24.9056 H 0.0 **** 0.053
77 H609 62.5998 70.0192 22.2834 H 0.0 **** 0.053
78 H643 69.8736 70.4806 28.8056 H 0.0 **** 0.41
79 C527 78.5671 69.5266 25.3996 C.3 0.0 **** -0.106
80 H620 79.854 71.721 19.2656 H 0.0 **** 0.053
81 H650 61.103 68.9454 29.6495 H 0.0 **** 0.053
82 C557 67.7857 69.7808 23.599 C.ar 0.0 **** 0.0
83 H647 60.6352 69.7646 26.5121 H 0.0 **** 0.053
84 C583 72.5943 74.1182 31.9154 C.3 0.0 **** -0.159
85 C539 74.8333 70.6627 30.5217 C.2 0.0 **** 0.0
86 H597 73.7956 73.4506 30.278 H 0.0 **** 0.053
87 N559 67.1565 69.5627 25.9229 N.ar 0.0 **** -0.481
88 H636 76.389 69.1745 31.8254 H 0.0 **** 0.41
89 C561 65.455 69.6971 24.2179 C.ar 0.0 **** 0.0
90 H613 62.1181 70.3115 24.7977 H 0.0 **** 0.053
91 C558 68.0993 69.6746 24.9765 C.ar 0.0 **** 0.2405
92 H632 82.4476 68.1195 28.321 H 0.0 **** 0.053
93 C529 80.207 69.1288 27.2688 C.ar 0.0 **** 0.0
94 H628 84.0353 69.9456 24.5447 H 0.0 **** 0.053
95 H592 81.7081 67.9263 26.3401 H 0.0 **** 0.053
96 H649 62.4541 69.1925 30.7846 H 0.0 **** 0.053
97 C566 63.9739 69.6718 23.9189 C.3 0.0 **** -0.053
98 C540 73.5336 70.8809 30.0847 C.2 0.0 **** 0.0
99 H602 69.869 68.0273 23.0027 H 0.0 **** 0.053
100 H594 76.3385 69.6366 26.3201 H 0.0 **** 0.1268
101 C569 64.865 69.5508 26.6428 C.ar 0.0 **** 0.0
102 H630 81.9717 68.1695 30.0233 H 0.0 **** 0.053
103 O585 74.5534 69.4216 25.5367 O.3 0.0 **** -0.452
104 H599 74.6186 70.6676 32.6479 H 0.0 **** 0.053
105 H605 66.2417 70.9042 21.4133 H 0.0 **** 0.053
106 H635 79.7249 68.4754 31.6611 H 0.0 **** 0.053
107 C542 74.109 70.048 27.8323 C.ar 0.0 **** 0.0
108 H634 81.0118 69.6092 31.1829 H 0.0 **** 0.053
109 C543 72.6922 71.7705 30.9702 C.3 0.0 **** -0.106
110 C580 79.9421 69.3906 31.0882 C.3 0.0 **** -0.159
111 C589 61.9814 69.5732 29.8691 C.3 0.0 **** -0.159
112 C556 68.9121 69.9278 22.611 C.3 0.0 **** -0.106
113 H623 83.1399 68.7802 21.0512 H 0.0 **** 0.053
114 H604 69.2026 70.9936 22.5464 H 0.0 **** 0.053
115 C565 63.6616 70.1955 22.5176 C.3 0.0 **** -0.106
116 H638 75.6195 72.6976 34.0569 H 0.0 **** 0.053
117 C572 62.9635 69.5745 28.724 C.ar 0.0 **** 0.0
118 C549 71.3209 70.0412 27.1141 C.ar 0.0 **** 0.052
119 C573 62.5896 69.9902 27.4286 C.ar 0.0 **** 0.0
120 H593 82.1785 69.5844 26.5991 H 0.0 **** 0.053
121 C551 69.9085 70.0351 26.7854 C.2 0.0 **** 0.367
122 C525 79.4087 69.7727 23.0635 C.ar 0.0 **** 0.0
123 C544 73.4859 73.06 31.2614 C.ar 0.0 **** -0.053
124 C538 77.0793 69.6264 30.097 C.ar 0.0 **** 0.042
125 C541 73.12 70.4264 28.7869 C.ar 0.0 **** 0.0
126 H625 77.3224 69.1824 22.9822 H 0.0 **** 0.053
127 C533 78.1809 69.4841 29.2175 C.ar 0.0 **** 0.0
128 H645 61.2045 71.4368 26.6 H 0.0 **** 0.053
129 H619 79.2294 72.0083 20.9137 H 0.0 **** 0.053
130 H608 64.3028 69.8172 20.4659 H 0.0 **** 0.053
@<TRIPOS>BOND
1 66 67 1
2 125 98 1
3 14 56 am
4 23 14 am
5 122 23 am
6 65 122 am
7 37 56 am
8 37 65 am
9 7 79 1
10 93 7 am
11 72 93 1
12 23 79 1
13 14 72 1
14 58 46 am
15 127 58 am
16 1 127 am
17 93 46 am
18 7 1 am
19 68 5 am
20 13 68 am
21 124 13 am
22 1 5 am
23 127 124 am
24 98 85 1
25 107 125 am
26 13 85 1
27 68 107 am
28 123 109 1
29 50 123 am
30 20 50 1
31 98 109 1
32 85 20 1
33 3 17 am
34 118 3 am
35 48 118 am
36 107 17 am
37 125 48 am
38 70 121 1
39 30 70 am
40 43 30 1
41 118 121 1
42 3 43 1
43 112 57 1
44 82 112 1
45 91 82 am
46 30 57 1
47 70 91 am
48 24 87 am
49 89 24 am
50 66 89 am
51 91 87 am
52 82 66 am
53 41 67 1
54 115 41 1
55 97 115 1
56 89 97 1
57 19 21 1
58 101 19 am
59 24 101 am
60 97 21 1
61 54 73 am
62 117 54 am
63 119 117 am
64 101 73 am
65 19 119 am
66 65 16 1
67 16 2 1
68 37 49 1
69 122 75 1
70 56 69 1
71 46 25 1
72 58 110 1
73 124 31 1
74 50 45 1
75 123 84 1
76 48 62 1
77 17 103 1
78 43 6 2
79 121 35 2
80 119 15 1
81 117 111 1
82 79 47 1
83 79 32 1
84 72 95 1
85 72 120 1
86 5 100 1
87 109 44 1
88 109 60 1
89 123 86 1
90 50 26 1
91 20 104 1
92 20 22 1
93 57 12 1
94 57 99 1
95 112 11 1
96 112 114 1
97 67 105 1
98 67 40 1
99 41 71 1
100 41 130 1
101 115 77 1
102 115 61 1
103 97 8 1
104 21 76 1
105 21 90 1
106 73 53 1
107 54 10 1
108 16 39 1
109 16 28 1
110 2 55 1
111 2 129 1
112 2 80 1
113 49 34 1
114 49 38 1
115 49 113 1
116 75 64 1
117 75 126 1
118 75 42 1
119 69 51 1
120 69 94 1
121 69 52 1
122 25 102 1
123 25 74 1
124 25 92 1
125 110 29 1
126 110 108 1
127 110 106 1
128 31 88 1
129 45 36 1
130 45 116 1
131 45 63 1
132 84 59 1
133 84 27 1
134 84 33 1
135 62 78 1
136 103 4 1
137 15 128 1
138 15 18 1
139 15 83 1
140 111 9 1
141 111 96 1
142 111 81 1
@<TRIPOS>MOLECULE
Sketch 4
250 292
SMALL
USER_CHARGES


@<TRIPOS>ATOM
1 H23081 23.3356 -13.1912 27.785 H 0.0 **** 0.053
2 H23149 25.1566 13.6642 33.8053 H 0.0 **** 0.053
3 H23091 23.5248 -8.10574 26.8905 H 0.0 **** 0.1268
4 C23049 25.745 16.9619 34.5459 C.3 0.0 **** -0.086
5 C22980 27.5531 2.88781 33.1784 C.3 0.0 **** -0.106
6 C23021 27.7515 -9.18446 25.6196 C.3 0.0 **** -0.053
7 H23084 25.2579 -10.4435 25.0 H 0.0 **** 0.053
8 H23154 25.5613 17.6711 35.3655 H 0.0 **** 0.053
9 C22998 21.8472 5.22523 24.7638 C.2 0.0 **** 0.0
10 H23080 21.8348 -12.7923 28.6397 H 0.0 **** 0.053
11 H23093 24.7074 -1.00104 29.548 H 0.0 **** 0.1268
12 C23003 23.3267 7.86768 27.7174 C.2 0.0 **** 0.0
13 C22932 22.4812 -4.16453 24.6552 C.2 0.0 **** 0.0
14 H23064 22.9742 -15.3051 19.8563 H 0.0 **** 0.053
15 H23108 27.2533 6.58254 35.0386 H 0.0 **** 0.053
16 C22987 21.3238 0.709371 22.9816 C.2 0.0 **** 0.042
17 C22969 21.9184 0.108845 24.1473 C.2 0.0 **** 0.0
18 H23145 21.1518 19.4288 27.723 H 0.0 **** 0.1268
19 C22913 21.688 -13.9289 20.9201 C.3 0.0 **** -0.106
20 C22979 26.5419 1.79295 32.8223 C.3 0.0 **** -0.106
21 H23137 29.3056 -10.7129 25.7809 H 0.0 **** 0.053
22 C22997 19.4326 2.52266 19.664 C.3 0.0 **** -0.106
23 C23017 22.579 12.0205 27.1828 C.2 0.0 **** 0.0
24 C22945 25.3245 -9.85426 25.9321 C.3 0.0 **** -0.106
25 H23127 25.3849 9.91355 32.157 H 0.0 **** 0.053
26 C23031 21.463 16.1206 26.8731 C.2 0.0 **** 0.0
27 C23046 24.8472 15.2437 32.3931 C.2 0.0 **** 0.0
28 H23075 20.5134 -7.91615 18.6472 H 0.0 **** 0.053
29 H23115 22.6667 2.27404 18.37 H 0.0 **** 0.053
30 C23032 21.1016 15.201 25.8754 C.2 0.0 **** -0.1268
31 H23099 27.0054 0.79854 32.8012 H 0.0 **** 0.053
32 H23078 20.8861 -13.2237 26.2655 H 0.0 **** 0.053
33 C22946 26.7441 -9.9509 26.5022 C.3 0.0 **** -0.053
34 C23012 25.2742 10.746 30.1811 C.3 0.0 **** -0.053
35 H23114 22.373 0.147173 19.3857 H 0.0 **** 0.053
36 C22989 21.5679 2.96206 23.9091 C.2 0.0 **** 0.0
37 H23150 26.6141 14.5926 33.4413 H 0.0 **** 0.053
38 C22984 25.6165 6.7135 33.5928 C.3 0.0 **** -0.106
39 H23142 20.5036 13.2581 24.0956 H 0.0 **** 0.1268
40 H23131 26.5485 7.19807 29.6081 H 0.0 **** 0.053
41 H23148 25.671 12.6668 32.1144 H 0.0 **** 0.1268
42 H23086 27.0414 -11.0162 26.4935 H 0.0 **** 0.053
43 C22968 22.3398 0.987196 25.1901 C.2 0.0 **** 0.0
44 C22916 20.2286 -10.7521 22.0942 C.3 0.0 **** 0.107
45 C22943 24.5376 -10.7004 28.1566 C.2 0.0 **** 0.0
46 C22982 25.5393 4.37778 32.6146 C.3 0.0 **** -0.053
47 C22942 23.4711 -11.3827 28.9778 C.3 0.0 **** -0.106
48 H23133 27.5214 -9.45187 24.5721 H 0.0 **** 0.053
49 C22912 21.7223 -12.4739 21.3559 C.3 0.0 **** 0.107
50 H23055 24.499 -12.2987 21.4244 H 0.0 **** 0.053
51 C23014 26.8842 8.94912 30.8742 C.3 0.0 **** -0.106
52 H23077 20.0437 -11.8049 26.8333 H 0.0 **** 0.053
53 H23123 24.6458 5.64826 29.8839 H 0.0 **** 0.1268
54 H23090 26.401 -11.4085 28.9442 H 0.0 **** 0.053
55 H23068 20.9855 -10.2876 18.7561 H 0.0 **** 0.053
56 C23034 21.4463 18.3792 27.7831 C.2 0.0 **** -0.1268
57 C22977 25.9362 2.10268 31.448 C.3 0.0 **** -0.053
58 C22931 21.8598 -3.6142 23.5195 C.2 0.0 **** 0.232
59 H23124 24.4664 7.89634 30.8291 H 0.0 **** 0.053
60 C23038 23.7588 14.7917 30.2276 C.2 0.0 **** 0.0
61 C22978 24.6444 1.33066 31.1432 C.3 0.0 **** 0.107
62 H23088 27.7571 -9.45127 28.3725 H 0.0 **** 0.053
63 O22910 24.998 -11.3102 18.3037 O.3 0.0 **** -0.32
64 C23025 21.3938 11.5746 25.0636 C.2 0.0 **** -0.1268
65 C23010 24.1731 9.74599 29.781 C.3 0.0 **** -0.053
66 H23063 21.3362 -14.5544 21.7531 H 0.0 **** 0.053
67 C22996 20.4977 2.37934 18.5574 C.3 0.0 **** -0.106
68 C22906 24.8892 -12.5504 20.4255 C.3 0.0 **** -0.106
69 H23060 22.7065 -10.7209 20.5146 H 0.0 **** 0.053
70 C22940 20.7429 -11.642 24.8129 C.2 0.0 **** -0.1268
71 H23120 19.3022 3.58004 19.9411 H 0.0 **** 0.053
72 C22973 22.9421 5.56406 26.9408 C.2 0.0 **** 0.0
73 H23071 19.8675 -4.7706 20.6743 H 0.0 **** 0.053
74 C22962 24.2193 1.67591 29.7194 C.2 0.0 **** 0.0
75 H23053 24.8234 -10.3719 20.1515 H 0.0 **** 0.053
76 C22981 26.8228 4.19696 33.4928 C.3 0.0 **** 0.134
77 C23026 21.0753 12.8996 24.9534 C.2 0.0 **** -0.1268
78 C23015 26.2156 8.24464 29.6785 C.3 0.0 **** -0.106
79 C22992 20.7083 0.579667 20.6836 C.3 0.0 **** 0.107
80 C22909 23.5795 -11.2991 18.1024 C.3 0.0 **** 0.054
81 C22938 22.1802 -11.6404 26.8639 C.2 0.0 **** 0.0
82 C23035 22.2059 17.9536 28.9154 C.2 0.0 **** 0.0
83 H23087 26.3125 -8.48033 28.0248 H 0.0 **** 0.053
84 C23041 23.3301 18.4328 31.025 C.2 0.0 **** -0.1268
85 C23040 23.7617 17.0836 31.1556 C.2 0.0 **** 0.0
86 H23129 26.9765 8.2385 31.7077 H 0.0 **** 0.053
87 C22988 21.1239 2.07833 22.8916 C.2 0.0 **** 0.042
88 H23067 18.9155 -10.3074 20.4681 H 0.0 **** 0.053
89 O22915 20.4417 -12.164 21.927 O.3 0.0 **** -0.32
90 H23059 23.4404 -11.566 17.0454 H 0.0 **** 0.053
91 C22926 20.79 -6.47641 21.5962 C.2 0.0 **** 0.0
92 C23020 23.7754 12.5194 29.2946 C.2 0.0 **** 0.0
93 C22972 23.5703 5.06354 28.1201 C.2 0.0 **** 0.0
94 C22917 19.9838 -10.139 20.7038 C.3 0.0 **** -0.053
95 C23013 26.082 10.1873 31.3468 C.3 0.0 **** -0.106
96 C22974 22.4614 4.68204 25.9404 C.2 0.0 **** 0.0
97 C22995 21.9025 2.27218 19.1611 C.3 0.0 **** -0.106
98 H23089 25.7091 -10.0439 29.8117 H 0.0 **** 0.053
99 C22929 19.6948 -7.98846 19.3913 C.3 0.0 **** -0.106
100 C22961 24.1745 -0.585049 28.6987 C.2 0.0 **** -0.1268
101 C23044 24.5249 14.337 31.336 C.2 0.0 **** 0.0
102 C22914 23.081 -14.3829 20.4468 C.3 0.0 **** -0.106
103 C22960 23.9269 0.795048 28.6362 C.2 0.0 **** 0.0
104 C22933 22.5445 -5.60293 24.7601 C.2 0.0 **** 0.0
105 H23065 23.7 -14.6414 21.3217 H 0.0 **** 0.053
106 C22991 19.7979 1.76802 20.944 C.3 0.0 **** 0.107
107 H23082 23.928 -11.9099 29.8297 H 0.0 **** 0.053
108 H23062 20.9512 -14.03 20.107 H 0.0 **** 0.053
109 H23134 28.2578 -7.1519 25.0202 H 0.0 **** 0.053
110 C22908 22.8205 -12.2786 19.0349 C.3 0.0 **** -0.053
111 H23076 18.9171 -8.6141 18.9215 H 0.0 **** 0.053
112 H23128 26.768 10.9423 31.7565 H 0.0 **** 0.053
113 H23092 24.5316 -3.20517 28.6889 H 0.0 **** 0.1268
114 C22967 21.6773 -2.26056 23.3393 C.2 0.0 **** -0.1268
115 H23061 22.4905 -12.3632 22.1455 H 0.0 **** 0.053
116 O22990 20.5109 2.67405 21.8136 O.3 0.0 **** -0.202
117 C22958 22.945 0.465432 26.3809 C.2 0.0 **** 0.0
118 H23097 23.8622 1.73629 31.8177 H 0.0 **** 0.053
119 C23045 24.5352 16.6055 32.2832 C.2 0.0 **** 0.052
120 H23057 22.0742 -12.8197 18.4295 H 0.0 **** 0.053
121 N22986 27.7404 5.33504 33.4254 N.3 0.0 **** -0.727
122 H23143 20.5174 15.5481 25.0203 H 0.0 **** 0.1268
123 H23141 21.0778 10.8626 24.3013 H 0.0 **** 0.1268
124 H23118 20.429 3.23191 17.8659 H 0.0 **** 0.053
125 C23047 25.5264 14.6829 33.6228 C.3 0.0 **** -0.106
126 C23007 22.4414 9.72994 26.3806 C.2 0.0 **** 0.0265
127 H23121 20.9266 4.74476 22.8788 H 0.0 **** 0.1268
128 C23019 24.6645 12.1131 30.3283 C.2 0.0 **** 0.0
129 C23011 23.5639 10.2019 28.4818 C.2 0.0 **** 0.0
130 H23069 20.1387 -11.7589 19.2542 H 0.0 **** 0.053
131 H23095 26.4002 4.0855 30.6613 H 0.0 **** 0.053
132 H23146 23.6149 19.1435 31.7934 H 0.0 **** 0.1268
133 C23043 24.995 12.9975 31.3305 C.2 0.0 **** -0.1268
134 C22956 23.1474 -0.934243 26.5045 C.2 0.0 **** 0.0
135 H23066 19.3028 -10.6785 22.6835 H 0.0 **** 0.053
136 O22975 24.3481 3.83325 30.6347 O.3 0.0 **** -0.202
137 C22934 21.4314 -10.5826 24.3323 C.2 0.0 **** 0.0
138 C22947 26.735 -9.49674 27.9661 C.3 0.0 **** -0.106
139 O23006 22.0075 8.8428 25.4224 O.3 0.0 **** -0.0685
140 H23113 22.7881 1.13095 20.7961 H 0.0 **** 0.053
141 H23117 20.2953 1.47356 17.9605 H 0.0 **** 0.053
142 C22963 24.0928 3.04003 29.5368 C.2 0.0 **** 0.042
143 H23107 25.3684 7.77262 33.4182 H 0.0 **** 0.053
144 C23029 22.6011 14.3109 28.0939 C.2 0.0 **** 0.0
145 C23016 23.3298 11.5743 28.3071 C.2 0.0 **** 0.0
146 H23112 20.1674 -0.159185 20.0753 H 0.0 **** 0.053
147 H23074 18.2828 -6.65777 20.3366 H 0.0 **** 0.053
148 C22959 23.3457 1.34209 27.4354 C.2 0.0 **** 0.0
149 C23009 24.6836 8.28708 29.8233 C.3 0.0 **** -0.053
150 H23104 25.9252 6.20265 31.5258 H 0.0 **** 0.053
151 C22939 20.9188 -12.1175 26.2217 C.3 0.0 **** -0.106
152 H23151 25.8175 15.1354 35.7262 H 0.0 **** 0.053
153 H23126 25.9582 10.8295 29.3125 H 0.0 **** 0.053
154 H23072 21.076 -5.57413 19.675 H 0.0 **** 0.053
155 H23138 29.4706 -9.37742 26.9481 H 0.0 **** 0.053
156 C22954 24.0243 -2.83962 27.7932 C.2 0.0 **** -0.1268
157 H23094 21.1851 -1.94547 22.4309 H 0.0 **** 0.1268
158 C22921 21.2644 -8.56046 22.8576 C.2 0.0 **** 0.0
159 H23109 27.6963 7.41568 33.5422 H 0.0 **** 0.053
160 C23022 27.6228 -7.66209 25.76 C.3 0.0 **** -0.159
161 C23008 23.1268 9.28349 27.5234 C.2 0.0 **** 0.0
162 C22923 21.8712 -7.8316 23.8656 C.2 0.0 **** 0.0
163 C22936 22.4924 -8.48523 25.0209 C.2 0.0 **** 0.0
164 H23073 18.8511 -6.08388 18.7527 H 0.0 **** 0.053
165 H23106 24.9947 6.37559 34.4372 H 0.0 **** 0.053
166 C22937 22.9 -10.6048 26.342 C.2 0.0 **** 0.0
167 C22918 20.7699 -10.9337 19.6199 C.3 0.0 **** -0.106
168 C23033 21.0893 17.498 26.797 C.2 0.0 **** -0.1268
169 C22925 21.3556 -5.77688 22.6259 C.2 0.0 **** 0.232
170 C22952 23.6178 -3.71593 26.8196 C.2 0.0 **** -0.012
171 C22985 27.124 6.56597 33.9432 C.3 0.0 **** 0.081
172 C22919 20.1903 -8.66183 20.6401 C.2 0.0 **** 0.0
173 C23028 22.2259 13.3946 27.076 C.2 0.0 **** 0.0
174 H23054 25.7519 -13.2172 20.5764 H 0.0 **** 0.053
175 O22993 20.9446 -0.0982517 21.9329 O.3 0.0 **** -0.202
176 C22911 22.0624 -11.5409 20.1587 C.3 0.0 **** -0.053
177 C22948 25.8717 -10.4471 28.7955 C.3 0.0 **** -0.106
178 C23030 22.2225 15.6709 28.0011 C.2 0.0 **** 0.0
179 H23085 25.1234 -8.81674 25.6245 H 0.0 **** 0.053
180 C22999 21.4034 4.34845 23.774 C.2 0.0 **** -0.1268
181 C23004 24.0162 7.37153 28.8316 C.2 0.0 **** 0.0
182 C23042 22.5792 18.8467 29.9447 C.2 0.0 **** -0.1268
183 H23083 22.7788 -10.6282 29.3986 H 0.0 **** 0.053
184 H23110 28.0334 5.47264 32.4573 H 0.0 **** 0.353
185 H23119 18.4567 2.16289 19.3051 H 0.0 **** 0.053
186 C22994 22.0342 0.988085 20.0084 C.3 0.0 **** -0.106
187 C22970 22.614 3.27918 26.097 C.2 0.0 **** 0.0
188 C22983 25.2839 5.87286 32.3612 C.3 0.0 **** -0.106
189 H23103 24.6815 3.96053 33.1688 H 0.0 **** 0.053
190 C22976 25.6265 3.61286 31.295 C.3 0.0 **** 0.107
191 H23152 24.2091 15.5445 35.0917 H 0.0 **** 0.053
192 O23024 24.8621 -0.0428638 31.4701 O.3 0.0 **** -0.57
193 C23036 22.599 16.593 29.0222 C.2 0.0 **** 0.0
194 C22965 23.196 2.75428 27.2985 C.2 0.0 **** 0.0
195 C23039 23.375 13.8691 29.2129 C.2 0.0 **** 0.0
196 H23101 28.1887 2.61141 34.0307 H 0.0 **** 0.053
197 C23023 29.1894 -9.62547 25.9122 C.3 0.0 **** -0.159
198 H23058 23.1973 -10.268 18.2548 H 0.0 **** 0.053
199 H23056 24.325 -13.7821 18.7677 H 0.0 **** 0.053
200 C23018 22.1389 11.0913 26.1884 C.2 0.0 **** 0.0
201 C22907 23.8131 -13.3002 19.6134 C.3 0.0 **** -0.053
202 H23136 26.5891 -7.31183 25.6185 H 0.0 **** 0.053
203 C23002 21.7007 6.64079 24.6219 C.2 0.0 **** -0.1268
204 C22955 23.7891 -1.4445 27.6746 C.2 0.0 **** 0.0
205 C22905 25.3177 -11.2544 19.6981 C.3 0.0 **** 0.054
206 C22941 22.6813 -12.3496 28.0909 C.3 0.0 **** -0.106
207 C22950 23.1097 -7.64378 25.995 C.2 0.0 **** -0.1268
208 H23122 21.2207 7.04872 23.7317 H 0.0 **** 0.1268
209 H23111 18.898 1.42295 21.4799 H 0.0 **** 0.053
210 H23116 22.0863 3.15121 19.7964 H 0.0 **** 0.053
211 C22928 19.1664 -6.58183 19.6823 C.3 0.0 **** -0.106
212 H23125 23.3729 9.84106 30.5419 H 0.0 **** 0.053
213 C22944 24.2561 -10.3492 26.8793 C.2 0.0 **** 0.0
214 C22922 21.3346 -10.0699 22.9148 C.3 0.0 **** -0.053
215 C22924 21.9305 -6.39152 23.7795 C.2 0.0 **** 0.0
216 C23000 22.8143 6.97085 26.768 C.2 0.0 **** 0.0
217 C23050 25.1006 17.5483 33.296 C.2 0.0 **** 0.347
218 C22964 23.6326 3.63755 28.3254 C.2 0.0 **** 0.0
219 H23070 22.3108 -10.3058 22.4446 H 0.0 **** 0.053
220 C23037 23.37 16.1587 30.1427 C.2 0.0 **** 0.0
221 H23135 27.9512 -7.33813 26.7597 H 0.0 **** 0.053
222 O23051 25.1312 18.7715 33.1521 O.2 0.0 **** -0.419
223 H23100 28.2299 3.04861 32.3198 H 0.0 **** 0.053
224 H23052 26.4037 -11.0988 19.753 H 0.0 **** 0.053
225 C22971 22.1796 2.40034 25.0707 C.2 0.0 **** 0.0
226 C23027 21.4615 13.8517 25.9543 C.2 0.0 **** 0.0
227 H23098 25.7448 1.75443 33.5845 H 0.0 **** 0.053
228 C22935 22.3474 -9.86079 25.2117 C.2 0.0 **** 0.0
229 C22951 22.9385 -3.24941 25.6376 C.2 0.0 **** 0.0
230 S22953 24.0566 -5.39636 27.0832 S.2 0.0 **** 0.024
231 C23005 24.1236 6.00449 29.01 C.2 0.0 **** -0.1268
232 H23139 29.9029 -9.11882 25.2447 H 0.0 **** 0.053
233 C22949 23.1571 -6.27724 25.8679 C.2 0.0 **** -0.012
234 H23079 20.0392 -12.1825 24.1821 H 0.0 **** 0.1268
235 H23153 26.8356 16.9662 34.3634 H 0.0 **** 0.053
236 H23144 20.5097 17.831 25.9341 H 0.0 **** 0.1268
237 H23105 24.2465 6.02806 32.0351 H 0.0 **** 0.053
238 C22927 20.2481 -5.76069 20.385 C.3 0.0 **** -0.106
239 H23130 27.906 9.25079 30.597 H 0.0 **** 0.053
240 H23102 26.4825 4.14842 34.5413 H 0.0 **** 0.053
241 C23048 25.2857 15.5467 34.8548 C.3 0.0 **** -0.106
242 C22920 20.7298 -7.92275 21.6809 C.2 0.0 **** 0.0
243 H23096 26.6702 1.81621 30.678 H 0.0 **** 0.053
244 H23147 22.2601 19.8889 29.8761 H 0.0 **** 0.1268
245 H23132 26.4971 8.72419 28.7276 H 0.0 **** 0.053
246 C22957 22.7332 -1.83265 25.4828 C.2 0.0 **** 0.0
247 H23140 24.0028 -0.489865 31.4259 H 0.0 **** 0.41
248 C22966 22.1019 -1.31934 24.2998 C.2 0.0 **** 0.0
249 O22930 21.3904 -4.40165 22.4964 O.3 0.0 **** -0.464
250 C23001 22.167 7.47665 25.5984 C.2 0.0 **** 0.042
@<TRIPOS>BOND
1 84 85 un
2 162 163 un
3 103 74 un
4 126 200 un
5 170 156 un
6 180 9 un
7 145 92 un
8 201 68 1
9 110 201 1
10 80 110 1
11 63 80 1
12 205 68 1
13 205 63 1
14 49 176 1
15 19 49 1
16 102 19 1
17 110 176 1
18 201 102 1
19 44 89 1
20 94 44 1
21 167 94 1
22 49 89 1
23 176 167 1
24 242 172 un
25 158 242 un
26 214 158 un
27 94 172 1
28 44 214 1
29 215 162 1
30 169 215 un
31 91 169 un
32 158 162 un
33 242 91 un
34 211 238 1
35 99 211 1
36 172 99 1
37 91 238 1
38 58 249 1
39 13 58 un
40 104 13 un
41 169 249 1
42 215 104 un
43 228 137 un
44 163 228 2
45 214 137 1
46 81 166 2
47 151 81 1
48 70 151 1
49 228 166 1
50 137 70 2
51 47 206 1
52 45 47 1
53 213 45 2
54 81 206 1
55 166 213 1
56 33 24 1
57 138 33 1
58 177 138 1
59 213 24 1
60 45 177 1
61 207 233 un
62 163 207 un
63 104 233 un
64 170 229 un
65 230 170 1
66 233 230 un
67 13 229 un
68 204 156 un
69 134 204 un
70 246 134 un
71 229 246 un
72 148 117 un
73 103 148 un
74 100 103 un
75 134 117 un
76 204 100 un
77 142 74 un
78 218 142 un
79 194 218 un
80 148 194 un
81 114 248 un
82 58 114 un
83 246 248 un
84 17 43 un
85 248 17 un
86 117 43 un
87 225 187 un
88 43 225 un
89 194 187 un
90 72 93 un
91 96 72 un
92 187 96 un
93 218 93 un
94 190 136 1
95 57 190 1
96 61 57 1
97 142 136 1
98 74 61 1
99 5 20 1
100 76 5 1
101 46 76 1
102 57 20 1
103 190 46 1
104 38 188 1
105 171 38 1
106 121 171 1
107 46 188 1
108 76 121 1
109 87 16 un
110 36 87 un
111 225 36 un
112 17 16 un
113 106 116 1
114 79 106 1
115 175 79 1
116 87 116 1
117 16 175 1
118 97 186 1
119 67 97 1
120 22 67 1
121 79 186 1
122 106 22 1
123 36 180 un
124 96 9 un
125 250 216 un
126 203 250 un
127 9 203 un
128 72 216 un
129 181 12 un
130 231 181 un
131 93 231 un
132 216 12 un
133 126 139 1
134 161 126 un
135 250 139 1
136 12 161 1
137 65 149 1
138 129 65 1
139 181 149 1
140 161 129 un
141 95 34 1
142 51 95 1
143 78 51 1
144 65 34 1
145 149 78 1
146 23 145 1
147 200 23 1
148 129 145 un
149 34 128 1
150 128 92 un
151 33 6 1
152 6 160 1
153 6 197 1
154 61 192 1
155 77 64 1
156 226 77 un
157 173 226 1
158 200 64 un
159 23 173 un
160 178 144 un
161 26 178 1
162 30 26 un
163 173 144 un
164 226 30 un
165 56 168 un
166 82 56 1
167 193 82 1
168 26 168 un
169 178 193 un
170 60 220 un
171 195 60 un
172 144 195 un
173 193 220 un
174 182 84 un
175 82 182 un
176 220 85 un
177 101 133 un
178 60 101 un
179 92 195 un
180 128 133 un
181 27 119 un
182 101 27 un
183 85 119 un
184 241 125 1
185 4 241 1
186 217 4 1
187 27 125 1
188 119 217 1
189 217 222 2
190 205 224 1
191 205 75 1
192 68 174 1
193 68 50 1
194 201 199 1
195 110 120 1
196 80 198 1
197 80 90 1
198 176 69 1
199 49 115 1
200 19 108 1
201 19 66 1
202 102 14 1
203 102 105 1
204 44 135 1
205 94 88 1
206 167 55 1
207 167 130 1
208 214 219 1
209 238 73 1
210 238 154 1
211 211 164 1
212 211 147 1
213 99 28 1
214 99 111 1
215 151 52 1
216 151 32 1
217 70 234 1
218 206 10 1
219 206 1 1
220 47 107 1
221 47 183 1
222 24 7 1
223 24 179 1
224 33 42 1
225 138 83 1
226 138 62 1
227 177 98 1
228 177 54 1
229 207 3 1
230 156 113 1
231 100 11 1
232 114 157 1
233 190 131 1
234 57 243 1
235 61 118 1
236 20 227 1
237 20 31 1
238 5 223 1
239 5 196 1
240 76 240 1
241 46 189 1
242 188 150 1
243 188 237 1
244 38 165 1
245 38 143 1
246 171 15 1
247 171 159 1
248 121 184 1
249 106 209 1
250 79 146 1
251 186 140 1
252 186 35 1
253 97 29 1
254 97 210 1
255 67 141 1
256 67 124 1
257 22 185 1
258 22 71 1
259 180 127 1
260 203 208 1
261 231 53 1
262 149 59 1
263 65 212 1
264 34 153 1
265 95 25 1
266 95 112 1
267 51 86 1
268 51 239 1
269 78 40 1
270 78 245 1
271 6 48 1
272 160 109 1
273 160 221 1
274 160 202 1
275 197 21 1
276 197 155 1
277 197 232 1
278 192 247 1
279 64 123 1
280 77 39 1
281 30 122 1
282 168 236 1
283 56 18 1
284 84 132 1
285 182 244 1
286 133 41 1
287 125 2 1
288 125 37 1
289 241 152 1
290 241 191 1
291 4 235 1
292 4 8 1
@<TRIPOS>MOLECULE
Sketch 4
250 292
SMALL
USER_CHARGES


@<TRIPOS>ATOM
1 C18679 71.5803 37.0515 45.8711 C.3 0.0 **** -0.106
2 C18723 59.5272 39.2918 55.9168 C.2 0.0 **** 0.0
3 H18884 72.4544 43.8559 53.5292 H 0.0 **** 0.053
4 C18798 50.9296 40.2723 65.555 C.3 0.0 **** -0.106
5 C18790 48.7846 39.9153 61.8618 C.2 0.0 **** 0.0
6 H18902 50.8332 39.1751 65.511 H 0.0 **** 0.053
7 C18697 74.9432 41.4185 55.6172 C.3 0.0 **** -0.106
8 C18702 68.7378 39.2056 54.5949 C.2 0.0 **** -0.012
9 H18863 63.1303 40.4053 49.3432 H 0.0 **** 0.053
10 C18718 63.7534 38.7985 53.4125 C.2 0.0 **** 0.0
11 C18729 64.3852 40.8801 61.8875 C.3 0.0 **** -0.106
12 C18785 47.4705 39.0862 59.4572 C.2 0.0 **** 0.0
13 O18801 47.5262 40.8417 64.3655 O.2 0.0 **** -0.419
14 H18885 72.8132 43.085 55.0885 H 0.0 **** 0.053
15 C18728 64.4119 39.4638 59.7364 C.3 0.0 **** 0.107
16 C18754 58.1032 39.9723 58.263 C.2 0.0 **** 0.0
17 H18821 68.5857 37.1435 47.6188 H 0.0 **** 0.053
18 H18833 75.7641 37.1446 55.8267 H 0.0 **** 0.053
19 C18663 77.8565 38.07 46.9534 C.3 0.0 **** -0.106
20 C18668 74.6379 37.7801 45.9231 C.3 0.0 **** -0.106
21 C18701 68.0539 38.9047 53.3628 C.2 0.0 **** 0.0
22 H18849 65.4175 41.2488 61.8362 H 0.0 **** 0.053
23 C18715 62.3698 39.2087 55.9062 C.2 0.0 **** 0.0
24 C18662 76.4797 38.1078 47.5946 C.3 0.0 **** 0.107
25 H18859 59.0683 42.2634 63.6993 H 0.0 **** 0.053
26 H18855 59.8441 39.2337 61.186 H 0.0 **** 0.053
27 C18749 60.1578 38.5521 52.321 C.2 0.0 **** -0.1268
28 H18894 47.0279 38.2363 56.1615 H 0.0 **** 0.1268
29 H18898 53.48 41.1303 62.6035 H 0.0 **** 0.1268
30 C18700 72.4482 38.6111 53.0964 C.2 0.0 **** -0.1268
31 H18891 53.7638 38.6384 53.7093 H 0.0 **** 0.1268
32 H18868 60.4241 39.089 46.2595 H 0.0 **** 0.053
33 C18685 74.4475 37.903 51.827 C.2 0.0 **** 0.0
34 C18720 61.6375 39.0112 54.6886 C.2 0.0 **** 0.0
35 C18714 61.676 39.4291 57.129 C.2 0.0 **** 0.0
36 C18689 76.6252 36.0762 52.1001 C.3 0.0 **** -0.106
37 H18860 60.8911 42.7141 62.4582 H 0.0 **** 0.353
38 C18768 53.8936 39.1767 55.8147 C.2 0.0 **** 0.0
39 C18747 61.2239 37.5966 47.6242 C.3 0.0 **** -0.106
40 H18892 51.3101 38.3393 53.7235 H 0.0 **** 0.1268
41 H18899 52.6418 40.2707 64.2397 H 0.0 **** 0.053
42 H18882 57.0512 42.4952 58.9868 H 0.0 **** 0.053
43 H18893 49.1674 38.297 54.9509 H 0.0 **** 0.1268
44 C18795 49.4845 40.3202 63.0637 C.2 0.0 **** 0.052
45 C18763 55.8788 41.5235 61.6049 C.3 0.0 **** -0.106
46 H18805 76.6441 40.7717 48.3831 H 0.0 **** 0.053
47 N18736 61.1098 42.1647 63.2903 N.3 0.0 **** -0.727
48 C18655 75.5018 42.102 47.0921 C.3 0.0 **** 0.054
49 H18861 62.4652 36.511 49.064 H 0.0 **** 0.053
50 C18709 63.7959 39.1994 55.8654 C.2 0.0 **** 0.0
51 C18762 55.0907 41.1025 60.3699 C.3 0.0 **** -0.053
52 C18692 76.5385 37.8588 55.4861 C.3 0.0 **** -0.106
53 H18838 75.0689 42.2965 56.2693 H 0.0 **** 0.053
54 C18724 60.2179 39.0221 54.7084 C.2 0.0 **** 0.0
55 C18687 75.3836 38.0728 52.9367 C.2 0.0 **** 0.0
56 C18705 66.6236 39.3316 55.7924 C.2 0.0 **** 0.0
57 C18793 52.9787 40.7159 61.733 C.2 0.0 **** -0.1268
58 C18659 75.146 40.8511 45.1227 C.3 0.0 **** 0.054
59 H18890 66.1645 38.6219 59.5759 H 0.0 **** 0.41
60 C18780 49.6108 39.1556 58.2485 C.2 0.0 **** 0.0
61 O18774 65.8311 39.4727 59.9002 O.3 0.0 **** -0.57
62 C18732 61.694 40.1857 61.8202 C.3 0.0 **** -0.053
63 H18802 75.4838 43.1437 47.4403 H 0.0 **** 0.053
64 H18866 60.9347 40.1629 48.5102 H 0.0 **** 0.053
65 H18903 49.6544 42.0089 65.6844 H 0.0 **** 0.053
66 H18843 66.5232 39.7541 57.8807 H 0.0 **** 0.1268
67 C18783 47.5296 38.537 57.0831 C.2 0.0 **** -0.1268
68 C18794 51.6036 40.3736 61.8188 C.2 0.0 **** 0.0
69 H18830 77.6928 36.2597 54.543 H 0.0 **** 0.053
70 C18782 49.6827 38.603 55.8641 C.2 0.0 **** -0.1268
71 H18851 63.9206 42.2098 63.5781 H 0.0 **** 0.053
72 C18666 74.6958 36.6196 48.181 C.3 0.0 **** 0.107
73 H18825 71.5155 38.0409 45.3756 H 0.0 **** 0.053
74 H18856 59.8824 39.3449 63.7231 H 0.0 **** 0.053
75 C18755 59.4848 39.9152 58.2579 C.2 0.0 **** -0.1268
76 H18818 73.9216 38.2696 45.2468 H 0.0 **** 0.053
77 C18765 57.6061 41.9332 59.7547 C.3 0.0 **** -0.106
78 H18886 72.4872 42.081 53.6589 H 0.0 **** 0.053
79 C18786 48.8709 39.323 59.4564 C.2 0.0 **** 0.0
80 H18844 66.1712 38.1777 50.0486 H 0.0 **** 0.1268
81 C18797 51.6594 40.7585 64.3089 C.3 0.0 **** -0.106
82 H18873 60.004 40.1558 59.1722 H 0.0 **** 0.1268
83 H18872 57.47 38.6111 52.635 H 0.0 **** 0.1268
84 O18725 61.8487 39.5208 59.5466 O.3 0.0 **** -0.202
85 H18850 63.2865 42.7388 62.0166 H 0.0 **** 0.053
86 C18675 69.9909 37.9729 49.71 C.2 0.0 **** 0.232
87 C18738 62.2546 38.3296 51.0704 C.2 0.0 **** 0.042
88 C18744 63.0861 39.8779 48.3793 C.3 0.0 **** -0.106
89 C18731 62.1309 41.1711 62.9557 C.3 0.0 **** 0.134
90 C18760 55.8972 40.0679 59.5625 C.3 0.0 **** -0.053
91 H18879 57.9491 42.126 61.8858 H 0.0 **** 0.053
92 C18722 60.2383 39.5416 57.1284 C.2 0.0 **** 0.0
93 C18713 62.4667 39.5009 58.3148 C.2 0.0 **** 0.042
94 C18742 63.4137 38.3914 48.6317 C.3 0.0 **** 0.107
95 C18695 74.8812 40.5727 53.2645 C.3 0.0 **** -0.106
96 C18750 58.1047 39.3313 55.9279 C.2 0.0 **** 0.0
97 H18870 60.2001 37.4854 48.0133 H 0.0 **** 0.053
98 H18862 64.0038 37.9718 47.8046 H 0.0 **** 0.053
99 H18896 46.8148 39.7758 62.7403 H 0.0 **** 0.1268
100 C18691 77.29 37.255 54.2961 C.3 0.0 **** -0.106
101 H18824 70.2168 35.5545 46.6181 H 0.0 **** 0.053
102 H18804 77.5944 42.1242 47.7503 H 0.0 **** 0.053
103 H18827 76.288 35.0993 52.5118 H 0.0 **** 0.053
104 S18703 70.4779 39.4183 54.7081 S.2 0.0 **** 0.024
105 C18656 76.8168 41.3905 47.4882 C.3 0.0 **** -0.106
106 H18806 77.7622 41.1858 45.5782 H 0.0 **** 0.053
107 H18815 78.8457 39.8376 47.737 H 0.0 **** 0.053
108 H18809 75.2641 40.9755 44.0371 H 0.0 **** 0.053
109 C18672 74.2543 37.5211 49.3447 C.3 0.0 **** -0.053
110 H18895 45.7469 38.5114 58.2707 H 0.0 **** 0.1268
111 C18771 74.4704 43.0426 53.6742 C.3 0.0 **** -0.053
112 H18869 61.4192 36.7244 46.9826 H 0.0 **** 0.053
113 C18676 70.4881 37.6445 48.4793 C.2 0.0 **** 0.0
114 C18698 75.8785 40.2907 56.053 C.3 0.0 **** -0.106
115 C18694 75.3577 39.2544 53.829 C.2 0.0 **** 0.0
116 H18828 77.7168 35.9417 51.9698 H 0.0 **** 0.053
117 H18817 73.9044 35.8257 46.3618 H 0.0 **** 0.053
118 C18800 48.7455 40.673 64.3141 C.2 0.0 **** 0.347
119 C18674 70.805 38.1688 50.8667 C.2 0.0 **** 0.0
120 H18876 54.9838 41.9967 59.7231 H 0.0 **** 0.053
121 C18686 73.0859 38.2066 51.8849 C.2 0.0 **** 0.0
122 C18707 66.6145 38.8657 53.3733 C.2 0.0 **** 0.0
123 C18735 59.8867 41.5371 63.8133 C.3 0.0 **** 0.081
124 H18880 56.9264 43.397 61.2068 H 0.0 **** 0.053
125 C18657 77.3295 40.5098 46.3301 C.3 0.0 **** -0.053
126 H18808 74.1032 40.5289 45.3254 H 0.0 **** 0.053
127 H18874 57.8822 39.919 60.3645 H 0.0 **** 0.053
128 C18664 78.4112 39.496 46.7831 C.3 0.0 **** -0.106
129 C18752 58.0371 38.8026 53.5465 C.2 0.0 **** -0.1268
130 C18699 71.0917 38.8033 53.1892 C.2 0.0 **** -0.012
131 C18776 51.8354 38.6316 54.6344 C.2 0.0 **** -0.1268
132 H18877 56.1646 40.6164 62.1643 H 0.0 **** 0.053
133 C18684 74.9434 37.1962 50.6489 C.2 0.0 **** 0.0
134 H18829 76.337 35.7661 49.9186 H 0.0 **** 0.1268
135 C18775 53.1923 38.7988 54.6233 C.2 0.0 **** -0.1268
136 C18741 62.1665 37.546 48.8284 C.3 0.0 **** 0.107
137 H18834 75.3406 40.707 52.2689 H 0.0 **** 0.053
138 C18764 57.1365 42.3169 61.1707 C.3 0.0 **** -0.106
139 C18781 48.9406 38.7619 57.0454 C.2 0.0 **** 0.0
140 H18831 78.1596 37.895 54.043 H 0.0 **** 0.053
141 C18730 63.4693 41.8478 62.6442 C.3 0.0 **** -0.106
142 C18733 60.1595 40.1311 61.7354 C.3 0.0 **** -0.106
143 H18867 62.1527 38.7899 46.0558 H 0.0 **** 0.053
144 C18727 63.8411 40.6879 60.4667 C.3 0.0 **** -0.053
145 C18678 70.167 36.583 46.2254 C.3 0.0 **** -0.106
146 H18901 51.5038 40.5184 66.4611 H 0.0 **** 0.053
147 H18813 78.5326 37.4596 47.5691 H 0.0 **** 0.053
148 C18772 72.972 43.0077 54.0018 C.3 0.0 **** -0.159
149 H18816 74.5854 35.5801 48.5232 H 0.0 **** 0.053
150 C18681 68.028 38.3994 51.012 C.2 0.0 **** 0.232
151 C18788 50.93 39.9689 60.6337 C.2 0.0 **** 0.0
152 C18671 72.7515 37.5937 49.4962 C.2 0.0 **** 0.0
153 O18660 75.3494 42.1597 45.6697 O.3 0.0 **** -0.32
154 C18769 53.6892 40.5908 60.5603 C.2 0.0 **** 0.0
155 C18745 61.7019 40.0821 47.7261 C.3 0.0 **** -0.106
156 H18840 76.9067 40.6803 56.1857 H 0.0 **** 0.053
157 C18688 76.3825 37.1574 53.1017 C.2 0.0 **** 0.0
158 C18716 65.89 38.6151 52.1593 C.2 0.0 **** 0.0
159 C18746 61.3566 38.9012 46.8118 C.3 0.0 **** -0.106
160 H18900 51.8551 41.8441 64.395 H 0.0 **** 0.053
161 H18820 74.5451 38.564 49.105 H 0.0 **** 0.053
162 C18712 63.8482 39.4612 58.3189 C.2 0.0 **** 0.0
163 H18854 59.8088 40.9958 61.1461 H 0.0 **** 0.053
164 C18711 65.9469 39.5016 56.9962 C.2 0.0 **** -0.1268
165 H18881 58.6684 42.1851 59.6157 H 0.0 **** 0.053
166 H18845 61.8463 41.5061 60.1246 H 0.0 **** 0.053
167 C18751 57.3874 39.0611 54.7216 C.2 0.0 **** 0.042
168 C18717 66.6505 38.3838 50.9943 C.2 0.0 **** -0.1268
169 C18739 61.56 38.5597 52.2861 C.2 0.0 **** 0.0
170 H18875 55.8014 39.1054 60.1036 H 0.0 **** 0.053
171 H18883 74.5792 43.0769 52.5747 H 0.0 **** 0.053
172 C18706 65.9025 39.0673 54.5877 C.2 0.0 **** 0.0
173 C18796 50.8769 40.4782 63.0453 C.2 0.0 **** 0.0
174 H18848 64.4215 39.9092 62.4108 H 0.0 **** 0.053
175 H18835 73.7975 40.5469 53.0736 H 0.0 **** 0.053
176 H18832 77.2158 38.0285 56.3376 H 0.0 **** 0.053
177 H18822 69.3991 38.5029 46.8472 H 0.0 **** 0.053
178 C18758 55.9545 39.6226 57.0718 C.2 0.0 **** 0.0
179 C18719 64.4423 38.5974 52.179 C.2 0.0 **** 0.0
180 H18858 60.019 41.3725 64.896 H 0.0 **** 0.053
181 H18823 69.5258 36.5676 45.3308 H 0.0 **** 0.053
182 H18857 58.4259 40.0894 63.0493 H 0.0 **** 0.053
183 C18778 51.742 39.2157 57.027 C.2 0.0 **** 0.0
184 H18878 55.2658 42.1364 62.2809 H 0.0 **** 0.053
185 C18670 71.9166 37.4446 48.3308 C.2 0.0 **** 0.0
186 H18887 76.1802 44.3664 53.992 H 0.0 **** 0.053
187 C18748 59.4667 38.7887 53.5092 C.2 0.0 **** 0.0
188 C18757 55.2944 39.3038 55.8727 C.2 0.0 **** 0.0265
189 H18865 61.6943 41.0259 47.1615 H 0.0 **** 0.053
190 O18665 76.0922 36.7518 47.8653 O.3 0.0 **** -0.32
191 C18784 46.8234 38.6916 58.2465 C.2 0.0 **** -0.1268
192 H18897 45.6866 39.0438 60.6767 H 0.0 **** 0.1268
193 H18836 76.2978 41.9773 54.0603 H 0.0 **** 0.053
194 C18726 62.2976 40.5559 60.4665 C.3 0.0 **** 0.107
195 C18792 46.7598 39.2459 60.6679 C.2 0.0 **** -0.1268
196 O18743 64.2617 38.2313 49.7856 O.3 0.0 **** -0.202
197 H18837 73.8987 41.0811 55.718 H 0.0 **** 0.053
198 C18708 64.4841 39.0213 54.6261 C.2 0.0 **** 0.0
199 H18888 75.0257 44.3261 55.3479 H 0.0 **** 0.053
200 H18842 68.57 39.6305 56.6881 H 0.0 **** 0.1268
201 C18759 57.4005 40.4265 59.5148 C.3 0.0 **** -0.053
202 C18737 63.6383 38.3846 51.0037 C.2 0.0 **** 0.042
203 H18810 74.7663 39.4212 47.2967 H 0.0 **** 0.053
204 H18812 77.77 37.5692 45.9756 H 0.0 **** 0.053
205 O18680 68.624 38.1544 49.7987 O.3 0.0 **** -0.464
206 C18777 51.0646 38.8162 55.8298 C.2 0.0 **** 0.0
207 H18846 64.1167 41.5734 59.872 H 0.0 **** 0.053
208 C18766 53.8164 39.7995 58.2119 C.2 0.0 **** 0.0
209 C18767 53.1509 39.4129 57.0141 C.2 0.0 **** 0.0
210 H18826 72.0477 36.3771 45.1338 H 0.0 **** 0.053
211 H18839 75.5855 39.8986 57.0441 H 0.0 **** 0.053
212 C18661 75.4548 38.8289 46.673 C.3 0.0 **** -0.053
213 C18791 47.388 39.6469 61.8285 C.2 0.0 **** -0.1268
214 C18799 49.5517 40.9124 65.5846 C.3 0.0 **** -0.086
215 C18683 70.2199 38.5641 52.0757 C.2 0.0 **** 0.0
216 H18853 62.071 39.1803 62.0732 H 0.0 **** 0.053
217 C18787 49.5265 39.7309 60.6574 C.2 0.0 **** 0.0
218 C18690 75.9644 36.3198 50.7788 C.2 0.0 **** -0.1268
219 C18773 75.1108 44.31 54.2496 C.3 0.0 **** -0.159
220 H18841 73.0615 38.7345 53.9887 H 0.0 **** 0.1268
221 C18789 51.6703 39.7926 59.4299 C.2 0.0 **** 0.0
222 C18673 72.2277 37.9699 50.7207 C.2 0.0 **** 0.0
223 C18696 75.2138 41.7775 54.1519 C.3 0.0 **** -0.053
224 O18740 61.4638 38.0755 49.9736 O.3 0.0 **** -0.202
225 C18753 57.3971 39.6462 57.0977 C.2 0.0 **** 0.0
226 C18704 68.0408 39.4107 55.7581 C.2 0.0 **** -0.1268
227 H18871 59.6019 38.364 51.4038 H 0.0 **** 0.1268
228 H18803 74.6288 41.58 47.5325 H 0.0 **** 0.053
229 H18807 76.5061 39.1925 44.8323 H 0.0 **** 0.053
230 C18693 75.8925 39.1574 55.0694 C.2 0.0 **** 0.0
231 C18770 53.0578 40.0441 59.4085 C.2 0.0 **** 0.0
232 C18710 64.5499 39.3944 57.0788 C.2 0.0 **** 0.0
233 C18734 59.5203 40.1939 63.1216 C.3 0.0 **** -0.106
234 C18677 69.5713 37.504 47.2908 C.3 0.0 **** -0.106
235 C18658 76.1349 39.7939 45.679 C.3 0.0 **** -0.053
236 C18667 73.8935 36.8035 46.8804 C.3 0.0 **** -0.053
237 O18756 56.0007 39.0674 54.7157 O.3 0.0 **** -0.0685
238 C18682 68.7821 38.65 52.1727 C.2 0.0 **** 0.0
239 H18904 48.9308 40.5775 66.4276 H 0.0 **** 0.053
240 H18864 63.8791 40.2988 47.744 H 0.0 **** 0.053
241 C18761 55.2177 39.8646 58.2343 C.2 0.0 **** 0.0
242 C18779 51.0072 39.3822 58.2307 C.2 0.0 **** 0.0
243 C18721 62.3273 38.7931 53.4675 C.2 0.0 **** 0.0
244 C18669 72.4545 37.1409 47.0903 C.2 0.0 **** 0.0
245 H18811 76.5576 38.6458 48.5591 H 0.0 **** 0.053
246 H18852 62.266 40.5624 63.8661 H 0.0 **** 0.053
247 H18847 64.0016 38.5672 60.2454 H 0.0 **** 0.053
248 H18889 74.6148 45.2142 53.8653 H 0.0 **** 0.053
249 H18819 75.332 37.2024 45.2925 H 0.0 **** 0.053
250 H18814 79.2356 39.4737 46.0547 H 0.0 **** 0.053
@<TRIPOS>BOND
1 162 15 1
2 7 223 1
3 62 216 1
4 125 105 1
5 235 125 1
6 58 235 1
7 153 58 1
8 48 105 1
9 48 153 1
10 24 212 1
11 19 24 1
12 128 19 1
13 235 212 1
14 125 128 1
15 72 190 1
16 236 72 1
17 20 236 1
18 24 190 1
19 212 20 1
20 185 244 un
21 152 185 un
22 109 152 un
23 236 244 1
24 72 109 1
25 119 222 1
26 86 119 un
27 113 86 un
28 152 222 un
29 185 113 un
30 145 234 1
31 1 145 1
32 244 1 1
33 113 234 1
34 150 205 1
35 238 150 un
36 215 238 un
37 86 205 1
38 119 215 un
39 33 133 un
40 121 33 2
41 109 133 1
42 222 121 un
43 157 55 2
44 36 157 1
45 218 36 1
46 33 55 1
47 133 218 2
48 52 100 1
49 230 52 1
50 115 230 2
51 157 100 1
52 55 115 1
53 223 95 1
54 114 7 1
55 115 95 1
56 230 114 1
57 30 130 un
58 121 30 un
59 215 130 un
60 8 21 un
61 104 8 1
62 130 104 un
63 238 21 un
64 56 226 un
65 172 56 un
66 122 172 un
67 8 226 un
68 21 122 un
69 50 198 un
70 232 50 un
71 164 232 un
72 172 198 un
73 56 164 un
74 93 162 un
75 35 93 un
76 23 35 un
77 232 162 un
78 50 23 un
79 168 158 un
80 150 168 un
81 122 158 un
82 179 10 un
83 158 179 un
84 198 10 un
85 243 34 un
86 10 243 un
87 23 34 un
88 2 92 un
89 54 2 un
90 34 54 un
91 35 92 un
92 194 84 1
93 144 194 1
94 15 144 1
95 93 84 1
96 141 11 1
97 89 141 1
98 62 89 1
99 144 11 1
100 194 62 1
101 233 142 1
102 123 233 1
103 47 123 1
104 62 142 1
105 89 47 1
106 87 202 un
107 169 87 un
108 243 169 un
109 179 202 un
110 136 224 1
111 94 136 1
112 196 94 1
113 87 224 1
114 202 196 1
115 155 88 1
116 159 155 1
117 39 159 1
118 94 88 1
119 136 39 1
120 27 187 un
121 169 27 un
122 54 187 un
123 167 96 un
124 129 167 un
125 187 129 un
126 2 96 un
127 16 225 un
128 75 16 un
129 92 75 un
130 96 225 un
131 188 237 1
132 178 188 un
133 167 237 1
134 225 178 1
135 90 201 1
136 241 90 1
137 16 201 1
138 178 241 un
139 45 51 1
140 138 45 1
141 77 138 1
142 90 51 1
143 201 77 1
144 209 208 1
145 38 209 1
146 188 38 un
147 241 208 un
148 51 154 1
149 208 231 un
150 154 231 un
151 223 111 1
152 111 148 1
153 111 219 1
154 15 61 1
155 131 135 1
156 206 131 un
157 183 206 1
158 38 135 un
159 209 183 un
160 60 242 un
161 139 60 1
162 70 139 un
163 183 242 un
164 206 70 un
165 191 67 un
166 12 191 1
167 79 12 1
168 139 67 un
169 60 79 un
170 151 217 un
171 221 151 un
172 242 221 un
173 79 217 un
174 213 5 un
175 195 213 un
176 12 195 un
177 217 5 un
178 68 57 un
179 151 68 un
180 231 221 un
181 154 57 un
182 173 44 un
183 68 173 un
184 5 44 un
185 4 81 1
186 214 4 1
187 118 214 1
188 173 81 1
189 44 118 1
190 118 13 2
191 48 63 1
192 48 228 1
193 105 102 1
194 105 46 1
195 125 106 1
196 235 229 1
197 58 126 1
198 58 108 1
199 212 203 1
200 24 245 1
201 19 204 1
202 19 147 1
203 128 250 1
204 128 107 1
205 72 149 1
206 236 117 1
207 20 76 1
208 20 249 1
209 109 161 1
210 234 17 1
211 234 177 1
212 145 181 1
213 145 101 1
214 1 73 1
215 1 210 1
216 36 103 1
217 36 116 1
218 218 134 1
219 100 69 1
220 100 140 1
221 52 176 1
222 52 18 1
223 95 137 1
224 95 175 1
225 223 193 1
226 7 197 1
227 7 53 1
228 114 211 1
229 114 156 1
230 30 220 1
231 226 200 1
232 164 66 1
233 168 80 1
234 194 166 1
235 144 207 1
236 15 247 1
237 11 174 1
238 11 22 1
239 141 85 1
240 141 71 1
241 89 246 1
242 142 163 1
243 142 26 1
244 233 74 1
245 233 182 1
246 123 180 1
247 123 25 1
248 47 37 1
249 136 49 1
250 94 98 1
251 88 9 1
252 88 240 1
253 155 189 1
254 155 64 1
255 159 143 1
256 159 32 1
257 39 112 1
258 39 97 1
259 27 227 1
260 129 83 1
261 75 82 1
262 201 127 1
263 90 170 1
264 51 120 1
265 45 132 1
266 45 184 1
267 138 91 1
268 138 124 1
269 77 165 1
270 77 42 1
271 111 171 1
272 148 3 1
273 148 14 1
274 148 78 1
275 219 186 1
276 219 199 1
277 219 248 1
278 61 59 1
279 135 31 1
280 131 40 1
281 70 43 1
282 67 28 1
283 191 110 1
284 213 99 1
285 195 192 1
286 57 29 1
287 81 41 1
288 81 160 1
289 4 146 1
290 4 6 1
291 214 65 1
292 214 239 1
@<TRIPOS>MOLECULE
Sketch 4
130 142
SMALL
USER_CHARGES


@<TRIPOS>ATOM
1 H5054 -0.43764 24.5226 4.20973 H 0.0 **** 0.053
2 C4990 4.93844 9.33035 4.03076 C.ar 0.0 **** -0.1268
3 H5011 4.18231 21.6018 0.0187974 H 0.0 **** 0.053
4 H5048 2.21811 27.2677 -2.01381 H 0.0 **** 0.053
5 H5024 5.50116 12.628 -2.0521 H 0.0 **** 0.053
6 C5009 4.23486 6.10796 5.92726 C.3 0.0 **** -0.159
7 H5058 -3.38958 18.5642 5.84015 H 0.0 **** 0.053
8 C4950 2.6558 24.9211 0.351374 C.3 0.0 **** -0.106
9 H5021 6.63724 14.7886 -1.55011 H 0.0 **** 0.053
10 C4954 2.06522 21.457 1.85716 C.ar 0.0 **** 0.0
11 H5014 3.11283 19.9272 0.779991 H 0.0 **** 0.1268
12 C4976 6.39908 12.6184 -1.4055 C.3 0.0 **** -0.106
13 C4978 5.50707 11.93 0.841938 C.ar 0.0 **** 0.2405
14 H5012 3.39064 25.5548 0.885865 H 0.0 **** 0.053
15 C4969 3.3948 14.983 1.98218 C.ar 0.0 **** 0.052
16 C4980 5.71407 9.79981 1.7045 C.ar 0.0 **** 0.2405
17 H5020 -1.21235 19.5271 4.90468 H 0.0 **** 0.053
18 H5033 6.31961 5.9811 1.24535 H 0.0 **** 0.053
19 H5069 3.95801 6.67464 6.82657 H 0.0 **** 0.053
20 C4999 1.22185 25.6107 2.75169 C.3 0.0 **** -0.159
21 C4951 1.47967 24.1501 2.45512 C.ar 0.0 **** 0.0
22 C4955 2.44173 20.1303 1.59848 C.ar 0.0 **** -0.1268
23 H5018 -2.61094 18.3458 3.4696 H 0.0 **** 0.053
24 C4973 5.47739 14.3014 0.176302 C.ar 0.0 **** 0.0
25 C4974 5.01477 15.6789 0.257832 C.2 0.0 **** 0.367
26 O5006 5.56415 16.5795 -0.473198 O.2 0.0 **** -0.419
27 C5000 0.013392 23.5422 4.40029 C.3 0.0 **** -0.159
28 H5031 7.83891 7.88672 1.19306 H 0.0 **** 0.053
29 H5030 6.39948 7.35008 -1.45034 H 0.0 **** 0.053
30 H5034 4.86004 10.4069 4.18233 H 0.0 **** 0.1268
31 C4960 0.657643 16.9518 3.73078 C.2 0.0 **** 0.0
32 H5035 4.23947 8.79748 5.99424 H 0.0 **** 0.1268
33 H5028 8.59304 8.1583 -2.47924 H 0.0 **** 0.053
34 C4949 2.21945 23.811 1.27168 C.ar 0.0 **** 0.0
35 H5041 3.4978 27.0207 -4.15456 H 0.0 **** 0.053
36 O5007 3.32948 12.7271 2.65118 O.2 0.0 **** -0.419
37 C4975 6.58804 14.001 -0.787673 C.3 0.0 **** -0.106
38 C4967 3.49253 17.3337 1.26629 C.ar 0.0 **** 0.042
39 C4964 -1.74665 16.3693 3.60827 C.ar 0.0 **** -0.053
40 C4943 3.24182 24.5206 -0.980181 C.ar 0.0 **** 0.0
41 H5027 9.11378 8.65804 -0.861534 H 0.0 **** 0.053
42 C4992 4.64403 7.04128 4.81502 C.ar 0.0 **** 0.0
43 H5043 5.22923 26.6481 -4.23034 H 0.0 **** 0.053
44 C4953 1.30379 21.7887 3.0327 C.ar 0.0 **** 0.0
45 C4986 6.92998 7.92593 0.559269 C.3 0.0 **** -0.053
46 C4989 5.38502 8.85694 2.78962 C.ar 0.0 **** 0.0
47 C4991 4.58466 8.42799 5.02613 C.ar 0.0 **** -0.1268
48 C4972 4.95802 13.2973 0.969346 C.ar 0.0 **** 0.0
49 H5022 7.54683 14.0319 -0.236646 H 0.0 **** 0.053
50 C4945 4.11092 22.8161 -2.49243 C.ar 0.0 **** 0.0
51 C4958 0.944083 20.6996 3.86445 C.ar 0.0 **** 0.042
52 N4979 5.28667 11.06 1.83764 N.ar 0.0 **** -0.481
53 H5060 -2.4479 14.3562 3.19323 H 0.0 **** 0.053
54 H5026 8.21627 10.6269 -1.94739 H 0.0 **** 0.053
55 C4963 -0.370871 15.9247 4.14409 C.3 0.0 **** -0.106
56 C4968 3.95332 15.9987 1.17194 C.ar 0.0 **** 0.052
57 C4948 2.49152 22.4948 0.97217 C.ar 0.0 **** 0.0
58 H5016 -0.41966 15.8367 5.24536 H 0.0 **** 0.053
59 C5002 -3.19012 17.5804 5.38818 C.3 0.0 **** -0.159
60 O5001 0.48813 20.9852 5.13199 O.3 0.0 **** -0.452
61 C5008 5.11668 5.07251 3.27642 C.3 0.0 **** -0.159
62 C4984 8.22831 8.50828 -1.50167 C.3 0.0 **** -0.106
63 H5063 2.42833 13.4956 3.39727 H 0.0 **** 0.41
64 H5044 3.47988 20.757 -2.68205 H 0.0 **** 0.053
65 H5042 4.08555 25.7847 -5.27364 H 0.0 **** 0.053
66 C4971 3.86827 13.6138 1.91627 C.2 0.0 **** 0.367
67 H5055 0.500531 23.5725 5.38755 H 0.0 **** 0.053
68 C4985 7.31682 7.47116 -0.847524 C.3 0.0 **** -0.106
69 H5050 1.16343 25.8001 3.83096 H 0.0 **** 0.053
70 O5005 4.07803 18.2443 0.492832 O.3 0.0 **** -0.452
71 H5017 -1.6036 16.5557 2.53117 H 0.0 **** 0.053
72 C4995 3.9866 22.9425 -5.80407 C.3 0.0 **** -0.159
73 C4957 1.0884 19.3504 3.45561 C.ar 0.0 **** 0.0
74 H5049 3.94929 27.6297 -2.11244 H 0.0 **** 0.053
75 H5046 4.8688 21.1602 -3.70277 H 0.0 **** 0.053
76 H5023 7.24932 12.3822 -2.05718 H 0.0 **** 0.053
77 H5059 -2.80647 16.9195 6.18198 H 0.0 **** 0.053
78 H5065 4.62183 4.83742 2.32177 H 0.0 **** 0.053
79 H5062 -2.91697 14.9587 4.7993 H 0.0 **** 0.053
80 C4994 5.02082 23.4325 -4.77819 C.3 0.0 **** -0.106
81 C4959 0.333102 18.2704 4.02033 C.2 0.0 **** 0.0
82 C4977 6.22318 11.5803 -0.329442 C.ar 0.0 **** 0.0
83 H5070 5.04821 5.41463 6.19502 H 0.0 **** 0.053
84 C4956 1.99425 19.0586 2.36931 C.ar 0.0 **** 0.0
85 C4944 3.52786 23.1831 -1.26293 C.ar 0.0 **** 0.0
86 H5064 4.81511 17.7029 -0.0501453 H 0.0 **** 0.41
87 H5052 2.01804 26.249 2.34946 H 0.0 **** 0.053
88 C4966 -0.934214 18.4724 4.81835 C.3 0.0 **** -0.106
89 H5051 0.273899 25.9568 2.3032 H 0.0 **** 0.053
90 H5047 3.22879 27.1695 -0.562995 H 0.0 **** 0.053
91 C4998 3.21275 26.9653 -1.64079 C.3 0.0 **** -0.159
92 H5056 0.530765 20.1711 5.65826 H 0.0 **** 0.41
93 H5057 -4.14499 17.1673 5.03492 H 0.0 **** 0.053
94 C4952 0.976197 23.1635 3.2969 C.ar 0.0 **** 0.0
95 C4941 4.03304 25.1474 -3.19694 C.ar 0.0 **** 0.0
96 H5039 3.46995 22.0449 -5.4329 H 0.0 **** 0.053
97 H5032 5.01579 6.9333 0.529748 H 0.0 **** 0.053
98 C4988 5.46059 7.467 2.56144 C.ar 0.0 **** 0.0
99 H5067 6.15552 4.70993 3.19329 H 0.0 **** 0.053
100 C4942 3.50248 25.5128 -1.94597 C.ar 0.0 **** 0.0
101 H5010 2.66513 21.2972 -0.773176 H 0.0 **** 0.053
102 H5053 -0.798312 22.809 4.47556 H 0.0 **** 0.053
103 C4993 5.07528 6.55589 3.56232 C.ar 0.0 **** 0.0
104 H5036 5.78107 22.653 -4.62179 H 0.0 **** 0.053
105 O5004 1.8943 14.3718 3.69793 O.3 0.0 **** -0.452
106 C5003 -2.77873 15.2476 3.74668 C.3 0.0 **** -0.159
107 H5019 -0.765731 18.0915 5.84443 H 0.0 **** 0.053
108 C4997 4.40584 21.3537 -2.72974 C.3 0.0 **** -0.159
109 C4970 2.35275 15.3076 2.87593 C.ar 0.0 **** 0.042
110 H5061 -3.75868 15.5521 3.34895 H 0.0 **** 0.053
111 C4962 2.42729 17.6879 2.17357 C.ar 0.0 **** 0.0
112 C4982 6.71442 10.2698 -0.448269 C.ar 0.0 **** 0.0
113 C4996 4.21988 26.202 -4.26718 C.3 0.0 **** -0.159
114 C4981 6.4425 9.35613 0.580113 C.ar 0.0 **** 0.0
115 C4983 7.49394 9.84245 -1.67335 C.3 0.0 **** -0.106
116 C4987 5.89755 6.9945 1.19702 C.3 0.0 **** -0.106
117 C4947 3.23479 22.0975 -0.269293 C.3 0.0 **** -0.106
118 H5066 4.625 4.48869 4.06298 H 0.0 **** 0.053
119 H5045 5.06949 20.9469 -1.94904 H 0.0 **** 0.053
120 C4946 4.38425 23.8042 -3.45543 C.ar 0.0 **** 0.0
121 H5037 5.56548 24.293 -5.1901 H 0.0 **** 0.053
122 H5068 3.36973 5.48897 5.63787 H 0.0 **** 0.053
123 H5029 7.80635 6.48563 -0.797688 H 0.0 **** 0.053
124 C4961 1.8107 16.6488 2.93044 C.ar 0.0 **** 0.0
125 H5025 6.79435 9.77107 -2.52569 H 0.0 **** 0.053
126 H5040 4.45899 22.6985 -6.76833 H 0.0 **** 0.053
127 H5038 3.22104 23.7142 -5.97734 H 0.0 **** 0.053
128 H5015 -0.131835 14.9319 3.76231 H 0.0 **** 0.053
129 H5013 1.79723 25.5926 0.180674 H 0.0 **** 0.053
130 C4965 -2.16739 17.7141 4.25534 C.ar 0.0 **** -0.053
@<TRIPOS>BOND
1 25 26 2
2 120 50 am
3 40 100 am
4 85 40 am
5 50 85 am
6 95 100 am
7 95 120 am
8 57 117 1
9 34 57 am
10 8 34 1
11 85 117 1
12 40 8 1
13 94 21 am
14 44 94 am
15 10 44 am
16 34 21 am
17 57 10 am
18 84 22 am
19 73 84 am
20 51 73 am
21 10 22 am
22 44 51 am
23 31 81 1
24 124 31 1
25 111 124 am
26 73 81 1
27 84 111 am
28 39 55 1
29 130 39 am
30 88 130 1
31 31 55 1
32 81 88 1
33 56 38 am
34 15 56 am
35 109 15 am
36 111 38 am
37 124 109 am
38 48 66 1
39 24 48 am
40 25 24 1
41 15 66 1
42 56 25 1
43 12 37 1
44 82 12 1
45 13 82 am
46 24 37 1
47 48 13 am
48 16 52 am
49 114 16 am
50 112 114 am
51 13 52 am
52 82 112 am
53 62 115 1
54 68 62 1
55 45 68 1
56 112 115 1
57 114 45 1
58 98 116 1
59 46 98 am
60 16 46 am
61 45 116 1
62 47 2 am
63 42 47 am
64 103 42 am
65 46 2 am
66 98 103 am
67 120 80 1
68 80 72 1
69 95 113 1
70 50 108 1
71 100 91 1
72 21 20 1
73 94 27 1
74 51 60 1
75 130 59 1
76 39 106 1
77 109 105 1
78 38 70 1
79 66 36 2
80 103 61 1
81 42 6 1
82 117 101 1
83 117 3 1
84 8 14 1
85 8 129 1
86 22 11 1
87 55 128 1
88 55 58 1
89 39 71 1
90 130 23 1
91 88 107 1
92 88 17 1
93 37 9 1
94 37 49 1
95 12 76 1
96 12 5 1
97 115 125 1
98 115 54 1
99 62 41 1
100 62 33 1
101 68 123 1
102 68 29 1
103 45 28 1
104 116 97 1
105 116 18 1
106 2 30 1
107 47 32 1
108 80 104 1
109 80 121 1
110 72 127 1
111 72 96 1
112 72 126 1
113 113 35 1
114 113 65 1
115 113 43 1
116 108 64 1
117 108 119 1
118 108 75 1
119 91 90 1
120 91 4 1
121 91 74 1
122 20 69 1
123 20 89 1
124 20 87 1
125 27 102 1
126 27 1 1
127 27 67 1
128 60 92 1
129 59 93 1
130 59 7 1
131 59 77 1
132 106 53 1
133 106 110 1
134 106 79 1
135 105 63 1
136 70 86 1
137 61 78 1
138 61 118 1
139 61 99 1
140 6 122 1
141 6 19 1
142 6 83 1
@<TRIPOS>MOLECULE
Sketch 4
250 292
SMALL
USER_CHARGES


@<TRIPOS>ATOM
1 C18507 75.2953 74.3743 43.0825 C.2 0.0 **** 0.0265
2 C18459 72.8811 66.8027 46.1039 C.2 0.0 **** 0.0
3 C18550 75.7695 77.4938 32.7838 C.2 0.0 **** 0.347
4 H18636 67.5992 60.706 50.9662 H 0.0 **** 0.053
5 C18416 72.2627 59.2047 57.3467 C.3 0.0 **** 0.107
6 H18570 70.4331 59.5493 56.2551 H 0.0 **** 0.053
7 O18475 73.0825 67.2789 41.9592 O.3 0.0 **** -0.202
8 C18500 74.437 71.8678 44.022 C.2 0.0 **** 0.0
9 H18591 70.6196 59.133 51.1687 H 0.0 **** 0.1268
10 C18433 71.6577 62.3046 51.9607 C.2 0.0 **** 0.0
11 C18537 76.5053 77.8687 36.5503 C.2 0.0 **** 0.0
12 H18577 73.1645 55.7839 54.0169 H 0.0 **** 0.053
13 H18594 73.2611 66.528 52.4522 H 0.0 **** 0.1268
14 H18568 70.9694 61.4267 59.6536 H 0.0 **** 0.053
15 H18593 71.5079 63.8036 45.1409 H 0.0 **** 0.1268
16 C18454 71.426 63.1341 47.6848 C.2 0.0 **** -0.1268
17 C18520 75.1848 75.2785 38.9325 C.2 0.0 **** 0.0
18 C18474 74.1297 70.3501 45.9325 C.2 0.0 **** 0.0
19 C18534 78.3415 80.854 37.9345 C.2 0.0 **** -0.1268
20 C18435 71.0435 58.457 53.7471 C.2 0.0 **** 0.0
21 H18649 75.0029 73.9496 34.2671 H 0.0 **** 0.053
22 H18563 70.337 56.2595 59.1956 H 0.0 **** 0.053
23 C18411 69.9557 59.7035 58.8166 C.3 0.0 **** -0.053
24 C18467 72.9052 65.8159 51.7223 C.2 0.0 **** -0.1268
25 C18476 71.9443 66.8367 41.1666 C.3 0.0 **** 0.107
26 H18629 71.7046 70.6208 38.1645 H 0.0 **** 0.053
27 C18482 72.4516 66.7745 39.7269 C.3 0.0 **** -0.053
28 H18600 69.5386 66.0089 39.8732 H 0.0 **** 0.053
29 C18540 76.5265 78.1399 35.15 C.2 0.0 **** 0.0
30 H18654 75.7672 76.5317 30.8905 H 0.0 **** 0.053
31 H18614 71.9552 70.0003 53.5932 H 0.0 **** 0.053
32 H18634 65.9161 61.2825 50.9128 H 0.0 **** 0.053
33 C18470 73.7207 69.0944 46.4538 C.2 0.0 **** 0.0
34 C18406 67.0915 58.9193 58.3044 C.3 0.0 **** -0.106
35 C18407 67.8022 58.6384 59.6445 C.3 0.0 **** -0.053
36 C18521 66.094 59.2113 51.5649 C.3 0.0 **** -0.053
37 H18631 71.4771 70.8269 40.5267 H 0.0 **** 0.053
38 C18542 77.7865 80.1836 35.6071 C.2 0.0 **** -0.1268
39 O18410 66.824 61.1014 59.4083 O.3 0.0 **** -0.32
40 C18439 72.1393 55.9101 54.4299 C.3 0.0 **** -0.106
41 H18590 67.5838 55.4676 50.3043 H 0.0 **** 0.053
42 C18456 72.4077 65.3619 48.0501 C.2 0.0 **** 0.0
43 H18625 75.2573 72.3256 39.3411 H 0.0 **** 0.053
44 H18576 73.3332 62.5977 59.2697 H 0.0 **** 0.053
45 C18549 75.2791 76.3824 31.8641 C.3 0.0 **** -0.086
46 C18419 72.4475 61.7384 57.5221 C.2 0.0 **** 0.0
47 C18447 67.4698 57.6255 50.0719 C.3 0.0 **** -0.106
48 O18493 73.7794 68.3337 52.0172 O.3 0.0 **** -0.202
49 C18457 72.412 65.116 49.4508 C.2 0.0 **** 0.0
50 O18415 71.7292 58.1178 58.1221 O.3 0.0 **** -0.32
51 C18446 67.0737 58.0209 51.4988 C.3 0.0 **** -0.053
52 C18469 73.3325 67.4037 49.8194 C.2 0.0 **** 0.0
53 C18532 77.6242 79.1603 41.1712 C.2 0.0 **** -0.1268
54 H18589 68.7053 56.1069 49.1098 H 0.0 **** 0.053
55 H18611 75.967 69.7064 52.2115 H 0.0 **** 0.053
56 C18423 71.6563 60.8494 53.9863 C.2 0.0 **** 0.0
57 H18555 67.7171 58.5719 57.467 H 0.0 **** 0.053
58 H18607 73.4874 69.1994 37.4364 H 0.0 **** 0.053
59 C18409 68.144 61.1128 59.9654 C.3 0.0 **** 0.054
60 C18424 71.8844 62.1148 53.3293 C.2 0.0 **** 0.0
61 C18429 72.8138 62.9336 58.3563 C.3 0.0 **** -0.106
62 C18501 74.9292 72.8683 44.9162 C.2 0.0 **** 0.042
63 H18605 73.9195 68.3792 39.7507 H 0.0 **** 0.053
64 H18573 73.8933 64.8177 58.1774 H 0.0 **** 0.053
65 C18530 77.074 78.5102 38.8754 C.2 0.0 **** 0.0
66 C18427 72.9497 64.3264 56.2831 C.3 0.0 **** -0.106
67 C18412 70.3245 58.2547 58.3869 C.3 0.0 **** 0.107
68 C18516 75.2161 74.9727 40.337 C.2 0.0 **** 0.0
69 C18441 70.7766 54.8514 52.5125 C.3 0.0 **** -0.106
70 C18465 73.2932 68.056 45.561 C.2 0.0 **** 0.0
71 C18438 71.16 56.0648 53.3127 C.2 0.0 **** 0.0
72 H18574 74.633 63.4496 57.316 H 0.0 **** 0.053
73 H18623 73.0284 69.2315 41.5975 H 0.0 **** 0.1268
74 C18431 72.4826 64.5913 52.1914 C.2 0.0 **** 0.232
75 H18641 76.4231 76.3341 44.6165 H 0.0 **** 0.1268
76 C18449 71.151 61.1922 51.2103 C.2 0.0 **** -0.012
77 C18442 70.4003 55.2546 51.0838 C.3 0.0 **** -0.106
78 H18603 73.2957 66.0643 39.7167 H 0.0 **** 0.053
79 H18571 73.5794 64.9799 55.6624 H 0.0 **** 0.053
80 H18557 69.3312 59.5442 60.8684 H 0.0 **** 0.053
81 C18533 78.3016 80.608 39.2814 C.2 0.0 **** -0.1268
82 S18453 70.7173 61.3563 49.5231 S.2 0.0 **** 0.024
83 H18598 71.8983 64.0605 40.1666 H 0.0 **** 0.053
84 C18523 64.6837 58.7902 51.1395 C.3 0.0 **** -0.159
85 H18567 73.2883 60.3468 58.8332 H 0.0 **** 0.053
86 C18497 75.3235 71.6391 53.0137 C.3 0.0 **** -0.106
87 H18628 72.4809 72.861 36.8473 H 0.0 **** 0.053
88 H18643 78.0856 79.8644 41.8672 H 0.0 **** 0.1268
89 C18484 73.0627 68.2313 37.7463 C.3 0.0 **** -0.106
90 C18529 76.445 77.3413 39.3648 C.2 0.0 **** 0.0
91 C18479 70.9913 64.5571 40.552 C.3 0.0 **** -0.106
92 C18426 72.5226 63.1189 55.4878 C.2 0.0 **** 0.0
93 C18535 77.751 79.9494 37.0 C.2 0.0 **** 0.0
94 H18583 71.3052 55.6163 50.5584 H 0.0 **** 0.053
95 H18599 70.3348 63.7636 40.9308 H 0.0 **** 0.053
96 C18509 73.5335 71.4933 40.3335 C.3 0.0 **** -0.053
97 H18624 73.8601 70.613 39.7592 H 0.0 **** 0.053
98 C18541 77.1965 79.3158 34.7119 C.2 0.0 **** -0.1268
99 C18408 68.8511 59.7344 59.8939 C.3 0.0 **** -0.053
100 C18504 73.7824 71.1983 41.7889 C.2 0.0 **** 0.0
101 C18458 72.8704 66.5937 47.5171 C.2 0.0 **** 0.0
102 C18428 73.6726 63.9268 57.5698 C.3 0.0 **** -0.106
103 C18526 76.9828 77.7063 43.0742 C.2 0.0 **** -0.1268
104 C18437 70.5841 57.2694 53.0294 C.2 0.0 **** 0.0
105 C18536 77.1108 78.7736 37.4741 C.2 0.0 **** 0.0
106 H18572 72.0546 64.9225 56.5438 H 0.0 **** 0.053
107 C18485 71.6588 68.0323 37.1089 C.3 0.0 **** 0.081
108 C18491 75.071 70.3491 52.2305 C.3 0.0 **** 0.107
109 H18627 73.669 71.6776 37.4127 H 0.0 **** 0.053
110 H18554 66.1559 58.3403 58.2681 H 0.0 **** 0.053
111 H18645 78.8315 81.7498 37.548 H 0.0 **** 0.1268
112 C18422 71.5108 59.4261 56.0247 C.3 0.0 **** -0.053
113 H18619 76.1105 71.4539 53.7599 H 0.0 **** 0.053
114 H18616 72.9417 72.2957 51.8516 H 0.0 **** 0.053
115 H18617 73.9378 71.723 54.6929 H 0.0 **** 0.053
116 C18436 71.1551 59.7299 53.1842 C.2 0.0 **** 0.0
117 C18452 71.4371 62.8819 49.0329 C.2 0.0 **** -0.012
118 C18528 76.4088 77.0812 40.7604 C.2 0.0 **** 0.0
119 H18580 71.6035 54.1234 52.5163 H 0.0 **** 0.053
120 C18473 74.0542 70.5983 44.5388 C.2 0.0 **** 0.0
121 H18620 75.7254 72.3744 52.2998 H 0.0 **** 0.053
122 H18578 71.9473 54.9509 54.9494 H 0.0 **** 0.053
123 H18618 74.1597 73.267 53.8649 H 0.0 **** 0.053
124 C18483 72.959 68.1518 39.2685 C.3 0.0 **** -0.106
125 H18588 66.5821 57.5236 49.4288 H 0.0 **** 0.053
126 C18471 73.7474 68.866 47.8543 C.2 0.0 **** 0.0
127 H18559 68.0102 61.4389 61.0064 H 0.0 **** 0.053
128 H18597 73.3439 64.8447 42.1569 H 0.0 **** 0.053
129 C18499 74.6401 71.1416 48.1769 C.2 0.0 **** -0.1268
130 H18652 76.5609 74.7825 32.5446 H 0.0 **** 0.053
131 H18579 72.5606 56.874 56.3873 H 0.0 **** 0.1268
132 C18417 72.3481 60.4428 58.2571 C.3 0.0 **** -0.053
133 H18613 72.0457 70.1116 51.8301 H 0.0 **** 0.053
134 H18653 74.1997 76.5638 31.707 H 0.0 **** 0.053
135 C18517 75.804 75.8911 41.2523 C.2 0.0 **** 0.0
136 C18538 75.8634 76.6989 37.0467 C.2 0.0 **** 0.0
137 C18461 71.9357 64.5665 45.7838 C.2 0.0 **** -0.1268
138 C18531 77.6702 79.4329 39.7945 C.2 0.0 **** 0.0
139 C18513 72.8974 72.3908 37.7494 C.3 0.0 **** -0.106
140 H18587 68.099 58.4207 49.6398 H 0.0 **** 0.053
141 H18569 71.5708 59.8577 60.2072 H 0.0 **** 0.053
142 H18561 69.7699 57.9854 57.4672 H 0.0 **** 0.053
143 H18582 70.0224 54.3907 50.515 H 0.0 **** 0.053
144 C18468 73.3215 67.6219 48.4091 C.2 0.0 **** 0.0
145 C18492 73.8984 69.5521 52.777 C.3 0.0 **** 0.107
146 C18487 73.795 68.4859 50.6488 C.2 0.0 **** 0.042
147 C18518 75.832 75.6028 42.653 C.2 0.0 **** 0.0
148 H18566 73.2819 58.885 57.0843 H 0.0 **** 0.053
149 H18622 75.3729 73.4291 46.9291 H 0.0 **** 0.1268
150 C18544 75.256 75.7829 36.1445 C.2 0.0 **** 0.0
151 H18626 72.7446 74.0046 39.1416 H 0.0 **** 0.053
152 C18451 71.9493 63.8534 49.9657 C.2 0.0 **** 0.0
153 C18440 72.1263 57.047 55.4041 C.2 0.0 **** -0.1268
154 C18488 74.2555 69.6741 50.1027 C.2 0.0 **** 0.042
155 C18421 71.8831 60.7251 55.3459 C.2 0.0 **** 0.0
156 C18498 74.5967 71.3883 46.8047 C.2 0.0 **** 0.0
157 C18495 72.8064 71.878 52.8602 C.3 0.0 **** -0.106
158 H18630 70.8055 72.1341 38.3188 H 0.0 **** 0.053
159 O18490 74.7521 70.7043 50.8675 O.3 0.0 **** -0.202
160 C18472 73.5832 69.5958 43.6393 C.2 0.0 **** 0.0
161 C18508 74.7736 73.4411 42.1704 C.2 0.0 **** 0.0
162 C18478 72.3755 64.9188 42.6937 C.3 0.0 **** 0.107
163 C18548 75.4836 74.99 32.4373 C.3 0.0 **** -0.106
164 H18612 74.1398 69.2119 53.794 H 0.0 **** 0.053
165 C18505 73.4285 69.9579 42.2872 C.2 0.0 **** -0.1268
166 C18525 76.4221 76.5533 43.5489 C.2 0.0 **** -0.1268
167 C18502 75.0055 72.6473 46.2634 C.2 0.0 **** -0.1268
168 C18547 74.8262 74.9337 33.8108 C.3 0.0 **** -0.106
169 H18585 68.6877 59.3243 52.1147 H 0.0 **** 0.053
170 C18514 71.7756 71.6565 38.5255 C.3 0.0 **** -0.106
171 H18609 71.2091 69.0048 36.8592 H 0.0 **** 0.053
172 H18595 71.1765 67.6297 41.2384 H 0.0 **** 0.053
173 H18633 66.0492 59.5253 52.6238 H 0.0 **** 0.053
174 H18602 71.8852 65.6268 37.99 H 0.0 **** 0.053
175 C18448 68.2624 56.3187 50.1 C.3 0.0 **** -0.106
176 C18489 74.2188 69.9121 48.7043 C.2 0.0 **** 0.0
177 H18562 70.487 57.5483 60.3994 H 0.0 **** 0.053
178 C18462 72.5707 65.9353 43.8142 C.2 0.0 **** 0.0
179 C18481 71.3604 66.2503 38.7341 C.3 0.0 **** 0.134
180 H18639 63.9738 59.6254 51.2392 H 0.0 **** 0.053
181 H18637 64.3182 57.951 51.7521 H 0.0 **** 0.053
182 H18644 78.7541 81.3045 39.9895 H 0.0 **** 0.1268
183 C18445 68.3391 58.3002 52.3177 C.3 0.0 **** -0.106
184 C18460 72.4497 65.746 45.2229 C.2 0.0 **** 0.0
185 H18650 73.7299 75.0345 33.7004 H 0.0 **** 0.053
186 H18635 66.5177 60.1782 49.6586 H 0.0 **** 0.053
187 C18510 74.3196 72.7091 39.7906 C.3 0.0 **** -0.053
188 C18545 75.9109 77.1945 34.2414 C.2 0.0 **** 0.052
189 H18565 67.9701 56.5904 58.9322 H 0.0 **** 0.053
190 O18551 75.968 78.6047 32.2895 O.2 0.0 **** -0.419
191 C18511 74.7391 73.7392 40.8055 C.2 0.0 **** 0.0
192 H18564 68.2332 56.7553 60.6695 H 0.0 **** 0.053
193 H18575 71.897 63.4507 58.7041 H 0.0 **** 0.053
194 H18648 73.964 74.0447 36.0079 H 0.0 **** 0.1268
195 C18450 70.9352 59.968 51.7939 C.2 0.0 **** -0.1268
196 O18430 72.5626 64.4358 53.554 O.3 0.0 **** -0.464
197 H18604 72.2476 68.9216 39.614 H 0.0 **** 0.053
198 C18414 68.4423 57.2276 59.698 C.3 0.0 **** -0.106
199 H18632 71.6706 72.5788 40.5121 H 0.0 **** 0.053
200 H18553 67.5566 60.8984 57.4725 H 0.0 **** 0.053
201 C18512 73.5552 73.4219 38.6592 C.3 0.0 **** -0.053
202 H18647 78.2968 81.0758 35.238 H 0.0 **** 0.1268
203 H18615 71.9175 72.3566 53.2967 H 0.0 **** 0.053
204 C18477 71.3618 65.504 41.6999 C.3 0.0 **** -0.053
205 C18546 75.3486 76.01 34.7362 C.2 0.0 **** 0.0
206 H18552 65.812 60.6138 57.7173 H 0.0 **** 0.053
207 H18581 69.9128 54.3523 52.9969 H 0.0 **** 0.053
208 C18503 74.324 72.158 42.654 C.2 0.0 **** 0.0
209 C18527 77.0125 78.0065 41.672 C.2 0.0 **** 0.0
210 H18638 64.6733 58.4698 50.0855 H 0.0 **** 0.053
211 H18586 66.564 57.1485 51.949 H 0.0 **** 0.053
212 C18515 72.0292 71.648 40.0449 C.3 0.0 **** -0.106
213 C18455 71.92 64.357 47.1592 C.2 0.0 **** 0.0
214 O18524 71.9443 63.6022 43.042 O.3 0.0 **** -0.57
215 N18486 70.7072 67.3144 37.9706 N.3 0.0 **** -0.727
216 C18432 71.999 63.5694 51.3543 C.2 0.0 **** 0.0
217 H18584 68.0932 58.2934 53.3947 H 0.0 **** 0.053
218 H18621 75.0009 71.9164 48.8515 H 0.0 **** 0.1268
219 C18519 74.4549 74.4521 38.0334 C.2 0.0 **** 0.0
220 C18494 72.5802 70.3539 52.7601 C.3 0.0 **** -0.106
221 C18418 71.2127 60.4064 59.3219 C.3 0.0 **** -0.106
222 C18420 72.2938 61.849 56.1493 C.2 0.0 **** 0.0
223 C18496 74.0531 72.1851 53.6974 C.3 0.0 **** -0.106
224 C18480 70.3241 65.3667 39.4351 C.3 0.0 **** -0.106
225 C18443 69.3588 56.3457 51.1244 C.2 0.0 **** 0.0
226 H18592 71.0425 62.3872 46.986 H 0.0 **** 0.1268
227 C18522 66.5645 60.4118 50.7335 C.3 0.0 **** -0.159
228 H18558 68.7564 61.8735 59.4376 H 0.0 **** 0.053
229 C18434 71.5935 58.2474 55.0839 C.2 0.0 **** 0.0
230 C18466 72.8878 66.1311 50.3478 C.2 0.0 **** 0.0
231 C18464 73.2655 68.288 44.1571 C.2 0.0 **** 0.0
232 H18596 70.4454 65.7259 42.2699 H 0.0 **** 0.053
233 C18444 69.447 57.3 52.0813 C.2 0.0 **** 0.0
234 C18405 66.808 60.4312 58.1432 C.3 0.0 **** 0.054
235 H18642 77.434 78.4223 43.7634 H 0.0 **** 0.1268
236 H18610 70.2624 67.9667 38.6177 H 0.0 **** 0.353
237 C18463 72.9414 67.1741 43.3262 C.2 0.0 **** 0.042
238 H18646 77.2262 79.5284 33.6486 H 0.0 **** 0.1268
239 C18413 69.9652 57.256 59.4739 C.3 0.0 **** -0.106
240 H18601 69.8277 64.7276 38.6921 H 0.0 **** 0.053
241 C18539 75.8349 76.4311 38.4452 C.2 0.0 **** 0.0
242 C18543 74.524 74.6903 36.679 C.2 0.0 **** -0.1268
243 H18560 69.5822 60.254 57.9383 H 0.0 **** 0.053
244 O18506 75.3334 74.1028 44.431 O.3 0.0 **** -0.0685
245 H18556 67.0424 58.7191 60.4355 H 0.0 **** 0.053
246 H18606 73.7555 67.4513 37.3921 H 0.0 **** 0.053
247 H18651 75.0622 74.2193 31.7741 H 0.0 **** 0.053
248 C18425 72.3333 63.2039 54.1363 C.2 0.0 **** 0.232
249 H18608 71.757 67.4737 36.1627 H 0.0 **** 0.053
250 H18640 72.6643 63.1848 43.5396 H 0.0 **** 0.41
@<TRIPOS>BOND
1 35 34 1
2 91 95 1
3 77 143 1
4 74 24 un
5 99 35 1
6 59 99 1
7 39 59 1
8 234 34 1
9 234 39 1
10 67 23 1
11 239 67 1
12 198 239 1
13 99 23 1
14 35 198 1
15 5 50 1
16 132 5 1
17 221 132 1
18 67 50 1
19 23 221 1
20 222 46 un
21 155 222 un
22 112 155 un
23 132 46 1
24 5 112 1
25 60 56 1
26 248 60 un
27 92 248 un
28 155 56 un
29 222 92 un
30 102 66 1
31 61 102 1
32 46 61 1
33 92 66 1
34 74 196 1
35 216 74 un
36 10 216 un
37 248 196 1
38 60 10 un
39 20 229 un
40 116 20 2
41 112 229 1
42 56 116 un
43 71 104 2
44 40 71 1
45 153 40 1
46 20 104 1
47 229 153 2
48 77 69 1
49 225 77 1
50 233 225 2
51 71 69 1
52 104 233 1
53 51 183 1
54 47 51 1
55 175 47 1
56 233 183 1
57 225 175 1
58 195 76 un
59 116 195 un
60 10 76 un
61 117 152 un
62 82 117 1
63 76 82 un
64 216 152 un
65 213 16 un
66 42 213 un
67 49 42 un
68 117 16 un
69 152 49 un
70 2 101 un
71 184 2 un
72 137 184 un
73 42 101 un
74 213 137 un
75 237 178 un
76 231 237 un
77 70 231 un
78 184 178 un
79 2 70 un
80 24 230 un
81 49 230 un
82 52 144 un
83 230 52 un
84 101 144 un
85 126 33 un
86 144 126 un
87 70 33 un
88 120 160 un
89 18 120 un
90 33 18 un
91 231 160 un
92 25 7 1
93 204 25 1
94 162 204 1
95 237 7 1
96 178 162 1
97 224 91 1
98 179 224 1
99 27 179 1
100 204 91 1
101 25 27 1
102 89 124 1
103 107 89 1
104 215 107 1
105 27 124 1
106 179 215 1
107 154 146 un
108 176 154 un
109 126 176 un
110 52 146 un
111 108 159 1
112 145 108 1
113 48 145 1
114 154 159 1
115 146 48 1
116 157 220 1
117 223 157 1
118 86 223 1
119 145 220 1
120 108 86 1
121 129 156 un
122 176 129 un
123 18 156 un
124 62 8 un
125 167 62 un
126 156 167 un
127 120 8 un
128 100 208 un
129 165 100 un
130 160 165 un
131 8 208 un
132 1 244 1
133 161 1 un
134 62 244 1
135 208 161 1
136 187 96 1
137 191 187 1
138 100 96 1
139 161 191 un
140 139 201 1
141 170 139 1
142 212 170 1
143 187 201 1
144 96 212 1
145 135 68 1
146 147 135 1
147 1 147 un
148 191 68 un
149 201 219 1
150 68 17 un
151 219 17 un
152 51 36 1
153 36 227 1
154 36 84 1
155 162 214 1
156 103 166 1
157 209 103 un
158 118 209 1
159 147 166 un
160 135 118 un
161 65 90 un
162 138 65 1
163 53 138 un
164 118 90 un
165 209 53 un
166 19 81 un
167 93 19 1
168 105 93 1
169 138 81 un
170 65 105 un
171 136 11 un
172 241 136 un
173 90 241 un
174 105 11 un
175 98 29 un
176 38 98 un
177 93 38 un
178 11 29 un
179 150 242 un
180 136 150 un
181 17 241 un
182 219 242 un
183 205 188 un
184 150 205 un
185 29 188 un
186 163 168 1
187 45 163 1
188 3 45 1
189 205 168 1
190 188 3 1
191 3 190 2
192 234 206 1
193 234 200 1
194 34 110 1
195 34 57 1
196 35 245 1
197 99 80 1
198 59 228 1
199 59 127 1
200 23 243 1
201 67 142 1
202 239 177 1
203 239 22 1
204 198 192 1
205 198 189 1
206 5 148 1
207 132 85 1
208 221 14 1
209 221 141 1
210 112 6 1
211 66 79 1
212 66 106 1
213 102 64 1
214 102 72 1
215 61 193 1
216 61 44 1
217 40 12 1
218 40 122 1
219 153 131 1
220 69 119 1
221 69 207 1
222 77 94 1
223 183 217 1
224 183 169 1
225 51 211 1
226 47 140 1
227 47 125 1
228 175 54 1
229 175 41 1
230 195 9 1
231 16 226 1
232 137 15 1
233 24 13 1
234 25 172 1
235 204 232 1
236 162 128 1
237 91 83 1
238 224 28 1
239 224 240 1
240 179 174 1
241 27 78 1
242 124 197 1
243 124 63 1
244 89 246 1
245 89 58 1
246 107 249 1
247 107 171 1
248 215 236 1
249 108 55 1
250 145 164 1
251 220 133 1
252 220 31 1
253 157 203 1
254 157 114 1
255 223 115 1
256 223 123 1
257 86 113 1
258 86 121 1
259 129 218 1
260 167 149 1
261 165 73 1
262 96 97 1
263 187 43 1
264 201 151 1
265 139 109 1
266 139 87 1
267 170 26 1
268 170 158 1
269 212 37 1
270 212 199 1
271 36 173 1
272 227 32 1
273 227 186 1
274 227 4 1
275 84 181 1
276 84 210 1
277 84 180 1
278 214 250 1
279 166 75 1
280 103 235 1
281 53 88 1
282 81 182 1
283 19 111 1
284 98 238 1
285 38 202 1
286 242 194 1
287 168 21 1
288 168 185 1
289 163 247 1
290 163 130 1
291 45 134 1
292 45 30 1
@<TRIPOS>MOLECULE
Sketch 4
130 142
SMALL
USER_CHARGES


@<TRIPOS>ATOM
1 C8466 51.3562 48.6698 40.4228 C.ar 0.0 **** 0.0
2 C8506 43.2314 54.0767 42.6084 C.3 0.0 **** -0.159
3 H8563 50.7165 46.9875 45.2249 H 0.0 **** 0.053
4 H8533 51.9994 52.0294 31.4738 H 0.0 **** 0.053
5 H8572 53.7944 42.3811 39.2643 H 0.0 **** 0.053
6 C8469 52.628 46.617 40.9476 C.2 0.0 **** 0.0
7 C8503 58.6989 47.2542 29.8721 C.ar 0.0 **** 0.0
8 H8539 55.7982 50.423 27.0405 H 0.0 **** 0.053
9 H8559 44.3707 53.9754 44.9421 H 0.0 **** 0.053
10 C8478 52.2305 49.6675 36.8346 C.ar 0.0 **** 0.052
11 C8481 53.8778 48.6936 35.2262 C.2 0.0 **** 0.367
12 C8480 53.5227 47.6953 37.4542 C.ar 0.0 **** 0.042
13 C8463 50.5359 48.8258 43.1928 C.ar 0.0 **** 0.0
14 C8492 54.1359 50.5977 30.6238 C.ar 0.0 **** 0.0
15 H8527 51.5443 44.4668 39.1839 H 0.0 **** 0.053
16 H8580 61.4331 46.4643 30.2388 H 0.0 **** 0.053
17 H8523 46.5915 50.959 44.8475 H 0.0 **** 0.053
18 N8489 55.3304 49.188 32.7391 N.ar 0.0 **** -0.481
19 H8547 43.6624 54.8402 40.2552 H 0.0 **** 0.053
20 C8485 52.1877 51.7574 33.6093 C.3 0.0 **** -0.106
21 C8497 56.7277 48.5151 28.8782 C.3 0.0 **** -0.106
22 C8519 60.6685 45.9733 30.862 C.3 0.0 **** -0.159
23 C8458 48.8139 50.4705 42.4966 C.ar 0.0 **** 0.0
24 H8561 47.8042 49.3442 46.5446 H 0.0 **** 0.053
25 H8565 51.5374 48.3152 46.0404 H 0.0 **** 0.053
26 H8578 60.4411 45.0056 30.3854 H 0.0 **** 0.053
27 H8520 47.8958 50.4965 40.5816 H 0.0 **** 0.053
28 H8538 53.8635 51.9556 27.431 H 0.0 **** 0.053
29 C8488 54.1663 49.827 32.9225 C.ar 0.0 **** 0.2405
30 C8487 53.5257 50.5531 31.8882 C.ar 0.0 **** 0.0
31 C8504 44.2307 53.9882 39.8577 C.3 0.0 **** -0.106
32 H8564 49.8488 47.9269 46.4504 H 0.0 **** 0.053
33 H8558 44.1127 52.2271 45.0625 H 0.0 **** 0.053
34 H8575 58.2569 46.4494 27.9088 H 0.0 **** 0.053
35 H8526 54.5139 44.9332 39.6833 H 0.0 **** 0.053
36 H8522 47.6693 52.3285 44.824 H 0.0 **** 0.053
37 H8570 52.8217 42.8579 37.854 H 0.0 **** 0.053
38 H8540 54.4596 49.4916 27.7429 H 0.0 **** 0.053
39 H8549 43.828 52.1821 38.7023 H 0.0 **** 0.053
40 C8467 51.8946 47.7603 41.4069 C.ar 0.0 **** 0.0
41 C8451 44.549 53.3973 42.3004 C.ar 0.0 **** 0.0
42 H8528 51.2758 43.9774 41.3721 H 0.0 **** 0.053
43 C8464 49.897 49.6007 42.1617 C.ar 0.0 **** 0.0
44 H8525 53.7252 45.1233 38.1204 H 0.0 **** 0.053
45 C8500 57.8527 47.97 32.462 C.ar 0.0 **** -0.1268
46 H8576 59.8948 46.0802 28.4872 H 0.0 **** 0.053
47 C8477 51.5976 49.6629 38.1006 C.ar 0.0 **** 0.042
48 C8512 53.0781 42.9017 41.8159 C.3 0.0 **** -0.159
49 H8542 55.9307 47.7712 28.6838 H 0.0 **** 0.053
50 H8556 46.0922 52.94 38.524 H 0.0 **** 0.053
51 H8546 44.9224 54.4178 39.1181 H 0.0 **** 0.053
52 C8507 46.7045 52.4279 39.2732 C.3 0.0 **** -0.159
53 C8483 52.5589 50.6778 34.5838 C.ar 0.0 **** 0.0
54 C8471 52.8296 47.6229 38.7231 C.ar 0.0 **** 0.0
55 H8529 53.9447 45.2636 41.9482 H 0.0 **** 0.053
56 C8484 51.896 50.6874 35.8794 C.2 0.0 **** 0.367
57 H8548 42.5659 52.5796 39.8831 H 0.0 **** 0.053
58 C8452 45.3041 52.8377 43.3475 C.ar 0.0 **** 0.0
59 H8524 49.9456 50.2338 40.1136 H 0.0 **** 0.1268
60 C8482 53.5221 49.7458 34.2513 C.ar 0.0 **** 0.0
61 H8532 52.921 52.5804 33.7034 H 0.0 **** 0.053
62 H8554 46.7374 51.361 38.9972 H 0.0 **** 0.053
63 C8510 50.5678 47.9969 45.6263 C.3 0.0 **** -0.159
64 H8579 61.1094 45.7686 31.847 H 0.0 **** 0.053
65 H8531 51.209 52.1751 33.8773 H 0.0 **** 0.053
66 C8499 57.1287 48.4143 31.3474 C.ar 0.0 **** 0.0
67 H8544 57.4913 48.2286 33.4573 H 0.0 **** 0.1268
68 C8496 56.0767 49.8788 29.1166 C.3 0.0 **** -0.053
69 C8472 51.9101 48.6517 39.0821 C.ar 0.0 **** 0.0
70 H8567 52.6808 41.9275 41.4994 H 0.0 **** 0.053
71 C8490 55.888 49.1918 31.5236 C.ar 0.0 **** 0.2405
72 C8479 53.2021 48.6926 36.5094 C.ar 0.0 **** 0.052
73 H8555 47.7389 52.7977 39.1794 H 0.0 **** 0.053
74 C8501 58.9921 47.196 32.2802 C.ar 0.0 **** -0.1268
75 H8534 51.3924 50.479 32.0606 H 0.0 **** 0.053
76 C8456 45.0138 53.3212 40.969 C.ar 0.0 **** 0.0
77 C8459 48.4187 50.6054 43.8086 C.ar 0.0 **** 0.0
78 H8530 52.39 45.4582 42.778 H 0.0 **** 0.053
79 C8513 52.8108 42.7607 38.9498 C.3 0.0 **** -0.159
80 O8517 54.7348 47.7907 34.9672 O.2 0.0 **** -0.419
81 O8514 54.4985 46.8384 37.1803 O.3 0.0 **** -0.452
82 C8508 44.8493 53.0002 44.7806 C.3 0.0 **** -0.159
83 C8468 51.6151 48.0091 42.7738 C.ar 0.0 **** 0.042
84 C8473 53.5502 45.1705 39.1955 C.3 0.0 **** -0.106
85 H8552 42.5155 53.963 41.784 H 0.0 **** 0.053
86 C8460 47.2768 51.5137 44.1843 C.3 0.0 **** -0.106
87 C8474 52.5029 44.1128 39.5976 C.ar 0.0 **** -0.053
88 C8462 50.069 48.9334 44.5483 C.ar 0.0 **** 0.0
89 H8569 54.1533 42.9248 41.5762 H 0.0 **** 0.053
90 C8502 59.432 46.8264 30.9992 C.ar 0.0 **** 0.0
91 C8454 46.9071 51.994 41.7308 C.ar 0.0 **** 0.0
92 H8545 59.5576 46.8525 33.1491 H 0.0 **** 0.1268
93 O8515 50.7108 50.6229 38.3502 O.3 0.0 **** -0.452
94 H8560 49.4323 49.8964 46.9854 H 0.0 **** 0.053
95 H8577 59.4984 47.709 27.9063 H 0.0 **** 0.053
96 C8494 54.44 51.586 28.2925 C.3 0.0 **** -0.106
97 C8453 46.4842 52.1254 43.0554 C.ar 0.0 **** 0.0
98 C8518 59.1119 46.8471 28.4766 C.3 0.0 **** -0.159
99 C8476 52.8552 45.3835 41.7904 C.3 0.0 **** -0.106
100 H8562 48.2199 51.0602 46.4354 H 0.0 **** 0.053
101 H8551 42.7632 53.6559 43.5073 H 0.0 **** 0.053
102 C8486 52.2072 51.2177 32.1819 C.3 0.0 **** -0.106
103 H8566 53.2559 47.1845 43.3179 H 0.0 **** 0.41
104 C8475 52.3487 44.0671 41.1398 C.ar 0.0 **** -0.053
105 C8491 55.332 49.8915 30.4314 C.ar 0.0 **** 0.0
106 C8465 50.3618 49.5537 40.8386 C.ar 0.0 **** -0.1268
107 H8574 50.6957 51.2125 37.4652 H 0.0 **** 0.41
108 O8511 52.4407 47.4904 43.7462 O.3 0.0 **** -0.452
109 H8573 54.777 47.0927 36.1798 H 0.0 **** 0.41
110 C8493 53.5016 51.3653 29.4839 C.3 0.0 **** -0.106
111 C8495 55.1859 50.2979 27.9476 C.3 0.0 **** -0.106
112 C8509 48.6108 50.0482 46.2738 C.3 0.0 **** -0.159
113 H8571 52.0563 42.0057 39.218 H 0.0 **** 0.053
114 C8457 48.1421 51.2166 41.3814 C.3 0.0 **** -0.106
115 C8498 57.5601 48.0613 30.0517 C.ar 0.0 **** 0.0
116 O8516 51.0394 51.6042 36.1497 O.2 0.0 **** -0.419
117 H8557 45.6846 52.9229 45.4876 H 0.0 **** 0.053
118 H8536 53.1352 52.3376 29.8481 H 0.0 **** 0.053
119 C8505 43.2702 53.0141 39.1573 C.3 0.0 **** -0.159
120 C8455 46.186 52.5989 40.6817 C.ar 0.0 **** 0.0
121 H8541 56.8967 50.6199 29.2042 H 0.0 **** 0.053
122 H8543 57.3313 48.5683 27.9616 H 0.0 **** 0.053
123 H8550 42.69 53.517 38.368 H 0.0 **** 0.053
124 H8537 55.1765 52.3665 28.5468 H 0.0 **** 0.053
125 H8568 52.9784 42.9725 42.91 H 0.0 **** 0.053
126 H8553 43.3601 55.1594 42.7825 H 0.0 **** 0.053
127 H8535 52.6037 50.8153 29.1489 H 0.0 **** 0.053
128 H8521 48.8768 51.8947 40.905 H 0.0 **** 0.053
129 C8461 49.0673 49.852 44.8452 C.ar 0.0 **** 0.0
130 C8470 53.0479 46.5288 39.6271 C.2 0.0 **** 0.0
@<TRIPOS>BOND
1 120 52 1
2 97 58 am
3 91 97 am
4 120 91 am
5 76 120 am
6 41 58 am
7 41 76 am
8 23 114 1
9 77 23 am
10 86 77 1
11 91 114 1
12 97 86 1
13 88 129 am
14 13 88 am
15 43 13 am
16 77 129 am
17 23 43 am
18 1 106 am
19 40 1 am
20 83 40 am
21 43 106 am
22 13 83 am
23 130 6 1
24 54 130 1
25 69 54 am
26 40 6 1
27 1 69 am
28 87 84 1
29 104 87 am
30 99 104 1
31 130 84 1
32 6 99 1
33 10 47 am
34 72 10 am
35 12 72 am
36 69 47 am
37 54 12 am
38 60 11 1
39 53 60 am
40 56 53 1
41 72 11 1
42 10 56 1
43 102 20 1
44 30 102 1
45 29 30 am
46 53 20 1
47 60 29 am
48 71 18 am
49 105 71 am
50 14 105 am
51 29 18 am
52 30 14 am
53 96 110 1
54 111 96 1
55 68 111 1
56 14 110 1
57 105 68 1
58 115 21 1
59 66 115 am
60 71 66 am
61 68 21 1
62 74 45 am
63 90 74 am
64 7 90 am
65 66 45 am
66 115 7 am
67 76 31 1
68 31 119 1
69 41 2 1
70 58 82 1
71 129 112 1
72 88 63 1
73 83 108 1
74 104 48 1
75 87 79 1
76 12 81 1
77 47 93 1
78 56 116 2
79 11 80 2
80 7 98 1
81 90 22 1
82 114 27 1
83 114 128 1
84 86 36 1
85 86 17 1
86 106 59 1
87 84 44 1
88 84 35 1
89 87 15 1
90 104 42 1
91 99 55 1
92 99 78 1
93 20 65 1
94 20 61 1
95 102 4 1
96 102 75 1
97 110 127 1
98 110 118 1
99 96 124 1
100 96 28 1
101 111 8 1
102 111 38 1
103 68 121 1
104 21 49 1
105 21 122 1
106 45 67 1
107 74 92 1
108 31 51 1
109 31 19 1
110 119 57 1
111 119 39 1
112 119 123 1
113 2 101 1
114 2 85 1
115 2 126 1
116 52 62 1
117 52 73 1
118 52 50 1
119 82 117 1
120 82 33 1
121 82 9 1
122 112 94 1
123 112 24 1
124 112 100 1
125 63 3 1
126 63 32 1
127 63 25 1
128 108 103 1
129 48 70 1
130 48 125 1
131 48 89 1
132 79 37 1
133 79 113 1
134 79 5 1
135 81 109 1
136 93 107 1
137 98 34 1
138 98 46 1
139 98 95 1
140 22 26 1
141 22 64 1
142 22 16 1
@<TRIPOS>MOLECULE
Sketch 4
130 142
SMALL
USER_CHARGES


@<TRIPOS>ATOM
1 C3440 11.6761 59.6047 38.4155 C.3 0.0 **** -0.159
2 C3406 13.9844 60.8992 42.862 C.3 0.0 **** -0.106
3 C3413 22.0674 64.0664 40.6967 C.ar 0.0 **** 0.0
4 C3431 21.6094 68.3788 47.0219 C.ar 0.0 **** -0.1268
5 H3491 11.9028 57.6925 35.8487 H 0.0 **** 0.053
6 H3490 11.1848 59.3153 35.8818 H 0.0 **** 0.053
7 H3473 26.4161 68.1406 46.6607 H 0.0 **** 0.053
8 C3414 21.0442 63.3184 39.9813 C.2 0.0 **** 0.367
9 C3432 22.5915 68.7622 47.9491 C.ar 0.0 **** 0.0
10 H3493 11.7622 59.3181 39.4702 H 0.0 **** 0.053
11 H3472 25.93 66.4479 46.5307 H 0.0 **** 0.053
12 H3479 20.9773 56.581 34.5134 H 0.0 **** 0.053
13 H3476 20.8396 58.5245 32.9093 H 0.0 **** 0.053
14 C3408 19.8147 63.0086 40.6572 C.ar 0.0 **** 0.052
15 C3443 15.9985 60.0169 46.0425 C.3 0.0 **** -0.159
16 H3469 28.1442 67.7862 44.7826 H 0.0 **** 0.053
17 H3466 26.724 65.9746 41.13 H 0.0 **** 0.053
18 C3435 20.9092 56.42 33.4271 C.3 0.0 **** -0.159
19 H3480 21.9246 56.2519 33.0358 H 0.0 **** 0.053
20 C3409 19.6146 63.4477 41.9867 C.ar 0.0 **** 0.052
21 C3429 23.2825 67.4406 45.5566 C.ar 0.0 **** 0.0
22 C3430 21.9395 67.7185 45.845 C.ar 0.0 **** -0.1268
23 H3504 20.0233 62.3018 38.5131 H 0.0 **** 0.41
24 H3456 15.3841 62.4211 44.628 H 0.0 **** 0.053
25 N3419 22.6657 66.0425 43.7034 N.ar 0.0 **** -0.481
26 C3422 25.3041 65.9361 42.7465 C.ar 0.0 **** 0.0
27 H3461 23.4583 63.6772 39.1229 H 0.0 **** 0.053
28 H3458 14.4593 58.9183 43.567 H 0.0 **** 0.053
29 H3467 27.3869 67.9471 42.3674 H 0.0 **** 0.053
30 C3418 22.968 65.2975 42.6308 C.ar 0.0 **** 0.2405
31 C3434 20.2344 57.6208 32.7453 C.3 0.0 **** -0.106
32 H3501 15.7693 58.9695 46.2906 H 0.0 **** 0.053
33 H3506 24.6209 69.154 49.6252 H 0.0 **** 0.053
34 O3444 18.1839 63.6286 43.8546 O.3 0.0 **** -0.452
35 C3449 22.1742 69.4647 49.2171 C.3 0.0 **** -0.159
36 C3404 15.8102 60.2911 44.5485 C.ar 0.0 **** -0.053
37 C3438 15.2428 57.0458 32.1561 C.3 0.0 **** -0.159
38 H3487 14.3387 57.6464 32.3158 H 0.0 **** 0.053
39 C3424 27.633 66.9731 42.8224 C.3 0.0 **** -0.106
40 C3442 13.2929 59.9347 45.0532 C.3 0.0 **** -0.159
41 C3407 18.8075 62.2842 39.976 C.ar 0.0 **** 0.042
42 H3452 14.2709 59.194 33.8432 H 0.0 **** 0.053
43 H3465 27.1469 64.8936 42.4496 H 0.0 **** 0.053
44 H3499 13.2292 60.9179 45.5463 H 0.0 **** 0.053
45 H3510 22.6663 70.4452 49.3186 H 0.0 **** 0.053
46 H3488 14.9916 56.0037 32.4221 H 0.0 **** 0.053
47 C3448 25.0314 68.8278 48.6627 C.3 0.0 **** -0.159
48 H3451 17.4836 60.5702 36.0316 H 0.0 **** 0.053
49 C3421 24.9851 66.679 43.8922 C.ar 0.0 **** 0.0
50 H3495 11.1049 60.546 38.3924 H 0.0 **** 0.053
51 H3471 25.8798 68.5506 44.3183 H 0.0 **** 0.053
52 H3509 21.0874 69.6238 49.2324 H 0.0 **** 0.053
53 C3426 26.0031 67.4997 44.6496 C.3 0.0 **** -0.053
54 H3477 20.2275 57.4676 31.6575 H 0.0 **** 0.053
55 C3385 18.5957 58.5742 34.43 C.ar 0.0 **** 0.0
56 C3398 14.0489 60.9066 39.797 C.ar 0.0 **** 0.042
57 H3460 13.2101 60.3955 42.2754 H 0.0 **** 0.053
58 C3427 25.7142 67.4657 46.1515 C.3 0.0 **** -0.106
59 C3393 14.1524 60.2872 38.527 C.ar 0.0 **** 0.0
60 C3428 24.2846 67.8262 46.4714 C.ar 0.0 **** 0.0
61 H3470 27.6267 66.0878 44.7985 H 0.0 **** 0.053
62 C3402 17.5617 61.9558 40.6268 C.ar 0.0 **** 0.0
63 H3505 25.6951 67.9702 48.8516 H 0.0 **** 0.053
64 H3464 24.6843 63.2895 41.2578 H 0.0 **** 0.053
65 H3484 19.7106 58.7043 36.2777 H 0.0 **** 0.053
66 C3437 19.7237 59.1358 35.2632 C.3 0.0 **** -0.159
67 C3415 23.3394 64.3744 39.9619 C.3 0.0 **** -0.106
68 H3463 25.4446 64.6209 40.3828 H 0.0 **** 0.053
69 C3425 27.4359 67.0715 44.3343 C.3 0.0 **** -0.106
70 H3502 15.3453 60.6587 46.6525 H 0.0 **** 0.053
71 H3497 13.4571 59.1754 45.8301 H 0.0 **** 0.053
72 C3394 15.4753 60.2266 37.9632 C.ar 0.0 **** 0.0
73 H3486 20.7128 58.9385 34.8375 H 0.0 **** 0.053
74 O3441 12.7924 61.2575 40.2378 O.3 0.0 **** -0.452
75 H3507 25.6679 69.6434 48.2791 H 0.0 **** 0.053
76 H3503 19.1015 64.124 44.091 H 0.0 **** 0.41
77 H3455 17.0997 62.0279 44.6826 H 0.0 **** 0.053
78 H3508 22.4428 68.8784 50.1113 H 0.0 **** 0.053
79 H3489 15.4612 57.0599 31.0798 H 0.0 **** 0.053
80 C3412 21.8868 64.5191 41.9887 C.ar 0.0 **** 0.0
81 H3475 20.5628 68.5978 47.2448 H 0.0 **** 0.1268
82 O3446 21.2499 62.9602 38.7661 O.2 0.0 **** -0.419
83 C3417 24.2825 65.2132 42.109 C.ar 0.0 **** 0.0
84 C3401 17.3939 62.3287 41.9926 C.ar 0.0 **** 0.0
85 H3459 13.5119 61.7754 43.347 H 0.0 **** 0.053
86 H3453 14.2072 57.6101 34.5676 H 0.0 **** 0.053
87 C3389 14.5905 59.1821 35.9549 C.ar 0.0 **** 0.0
88 C3397 15.1841 61.2173 40.5864 C.ar 0.0 **** 0.0
89 O3447 20.4123 64.5737 43.8936 O.2 0.0 **** -0.419
90 C3395 16.5688 60.7876 38.6404 C.ar 0.0 **** -0.1268
91 H3468 28.682 66.7558 42.5705 H 0.0 **** 0.053
92 H3498 12.3191 59.7346 44.5801 H 0.0 **** 0.053
93 C3420 23.6462 66.694 44.338 C.ar 0.0 **** 0.2405
94 C3400 16.2255 61.8895 42.7025 C.2 0.0 **** 0.0
95 H3494 11.0876 58.8334 37.9059 H 0.0 **** 0.053
96 H3483 18.0357 57.0152 30.4037 H 0.0 **** 0.053
97 C3436 17.9678 56.4214 31.3321 C.3 0.0 **** -0.159
98 C3388 15.6711 59.6397 36.6751 C.ar 0.0 **** 0.0
99 C3410 18.404 63.1377 42.6413 C.ar 0.0 **** 0.042
100 H3457 16.5425 59.6726 44.0041 H 0.0 **** 0.053
101 C3387 17.0742 59.5482 36.1513 C.3 0.0 **** -0.106
102 C3405 14.4056 59.9296 44.0 C.ar 0.0 **** -0.053
103 O3445 19.0513 61.9225 38.719 O.3 0.0 **** -0.452
104 H3474 21.1748 67.3903 45.1411 H 0.0 **** 0.1268
105 H3481 17.1557 55.696 31.1959 H 0.0 **** 0.053
106 C3403 16.1583 61.7537 44.206 C.3 0.0 **** -0.106
107 H3500 17.0391 60.2177 46.3376 H 0.0 **** 0.053
108 C3383 16.1896 58.2982 34.1434 C.ar 0.0 **** 0.0
109 C3433 23.9445 68.4702 47.6754 C.ar 0.0 **** 0.0
110 C3399 15.1324 61.3874 42.0091 C.2 0.0 **** 0.0
111 C3392 13.0441 59.7483 37.7864 C.ar 0.0 **** 0.0
112 H3478 20.3189 55.5048 33.267 H 0.0 **** 0.053
113 H3454 17.5231 60.8369 38.1422 H 0.0 **** 0.1268
114 C3411 20.6252 64.2102 42.694 C.2 0.0 **** 0.367
115 C3423 26.7254 65.8907 42.2278 C.3 0.0 **** -0.106
116 C3381 17.7299 57.2985 32.5431 C.ar 0.0 **** 0.0
117 C3439 12.1076 58.7622 35.6658 C.3 0.0 **** -0.159
118 C3386 18.8239 57.847 33.2478 C.ar 0.0 **** 0.0
119 C3384 17.2752 58.7834 34.876 C.ar 0.0 **** 0.0
120 C3416 24.5304 64.3303 40.915 C.3 0.0 **** -0.106
121 C3396 16.469 61.3011 39.9324 C.ar 0.0 **** 0.0
122 C3391 13.265 59.2604 36.5024 C.ar 0.0 **** 0.0
123 H3482 18.902 55.852 31.4226 H 0.0 **** 0.053
124 H3492 12.3112 58.8702 34.5934 H 0.0 **** 0.053
125 H3462 23.2536 65.3868 39.524 H 0.0 **** 0.053
126 H3496 12.8945 61.8852 40.9707 H 0.0 **** 0.41
127 H3485 19.6201 60.2253 35.3955 H 0.0 **** 0.053
128 H3450 17.7094 59.1038 36.9374 H 0.0 **** 0.053
129 C3390 14.7737 58.5563 34.5967 C.3 0.0 **** -0.106
130 C3382 16.413 57.5589 32.9649 C.ar 0.0 **** 0.0
@<TRIPOS>BOND
1 18 19 1
2 37 38 1
3 66 65 1
4 116 118 am
5 108 130 am
6 119 108 am
7 55 119 am
8 118 55 am
9 116 130 am
10 98 101 1
11 87 98 am
12 129 87 1
13 119 101 1
14 108 129 1
15 111 122 am
16 59 111 am
17 72 59 am
18 87 122 am
19 98 72 am
20 121 90 am
21 88 121 am
22 56 88 am
23 72 90 am
24 59 56 am
25 94 110 1
26 84 94 1
27 62 84 am
28 88 110 1
29 121 62 am
30 36 106 1
31 102 36 am
32 2 102 1
33 94 106 1
34 110 2 1
35 14 41 am
36 20 14 am
37 99 20 am
38 62 41 am
39 84 99 am
40 80 114 1
41 3 80 am
42 8 3 1
43 20 114 1
44 14 8 1
45 120 67 1
46 83 120 1
47 30 83 am
48 3 67 1
49 80 30 am
50 93 25 am
51 49 93 am
52 26 49 am
53 30 25 am
54 83 26 am
55 39 115 1
56 69 39 1
57 53 69 1
58 26 115 1
59 49 53 1
60 60 58 1
61 21 60 am
62 93 21 am
63 53 58 1
64 4 22 am
65 9 4 am
66 109 9 am
67 21 22 am
68 60 109 am
69 118 31 1
70 31 18 1
71 116 97 1
72 55 66 1
73 130 37 1
74 122 117 1
75 111 1 1
76 56 74 1
77 102 40 1
78 36 15 1
79 99 34 1
80 41 103 1
81 8 82 2
82 114 89 2
83 109 47 1
84 9 35 1
85 101 128 1
86 101 48 1
87 129 42 1
88 129 86 1
89 90 113 1
90 106 77 1
91 106 24 1
92 36 100 1
93 102 28 1
94 2 85 1
95 2 57 1
96 67 27 1
97 67 125 1
98 120 68 1
99 120 64 1
100 115 43 1
101 115 17 1
102 39 29 1
103 39 91 1
104 69 16 1
105 69 61 1
106 53 51 1
107 58 11 1
108 58 7 1
109 22 104 1
110 4 81 1
111 31 13 1
112 31 54 1
113 18 112 1
114 18 12 1
115 97 105 1
116 97 123 1
117 97 96 1
118 66 127 1
119 66 73 1
120 37 46 1
121 37 79 1
122 117 6 1
123 117 5 1
124 117 124 1
125 1 10 1
126 1 95 1
127 1 50 1
128 74 126 1
129 40 71 1
130 40 92 1
131 40 44 1
132 15 107 1
133 15 32 1
134 15 70 1
135 34 76 1
136 103 23 1
137 47 63 1
138 47 33 1
139 47 75 1
140 35 78 1
141 35 52 1
142 35 45 1
@<TRIPOS>MOLECULE
Sketch 4
250 292
SMALL
USER_CHARGES


@<TRIPOS>ATOM
1 H23581 62.6709 24.6894 22.8903 H 0.0 **** 0.053
2 H23628 43.5951 26.3689 38.4874 H 0.0 **** 0.053
3 C23534 39.4344 34.7967 41.8155 C.2 0.0 **** -0.1268
4 C23480 48.6851 22.7043 33.1794 C.3 0.0 **** -0.106
5 H23553 65.9376 28.9693 29.1707 H 0.0 **** 0.053
6 C23459 52.4237 28.8955 32.3052 C.2 0.0 **** 0.0
7 C23419 63.2057 32.6075 27.1885 C.2 0.0 **** 0.0
8 C23491 55.3921 35.5893 33.4403 C.3 0.0 **** 0.107
9 C23500 48.6609 31.2463 35.8725 C.2 0.0 **** 0.0
10 C23469 55.0663 31.6107 32.1852 C.2 0.0 **** 0.0
11 H23555 66.4233 27.9115 27.1499 H 0.0 **** 0.053
12 C23505 48.2476 28.646 35.0109 C.2 0.0 **** -0.1268
13 C23449 58.8772 27.8859 28.0767 C.2 0.0 **** -0.012
14 H23593 53.0995 25.9551 30.6605 H 0.0 **** 0.1268
15 H23651 37.7721 25.8337 38.7131 H 0.0 **** 0.053
16 H23560 65.414 30.2358 27.4804 H 0.0 **** 0.053
17 C23521 62.3072 23.8017 29.1611 C.3 0.0 **** -0.053
18 C23523 62.8042 22.4287 29.6253 C.3 0.0 **** -0.159
19 C23420 62.1403 31.7785 27.5021 C.2 0.0 **** 0.0
20 C23510 45.0667 29.1733 37.0602 C.3 0.0 **** -0.053
21 C23540 38.7872 30.6703 40.8319 C.2 0.0 **** 0.0
22 C23502 49.9968 33.2853 35.9846 C.2 0.0 **** -0.1268
23 C23418 65.6487 32.1655 26.5764 C.3 0.0 **** -0.106
24 C23520 43.2795 30.5283 38.8084 C.2 0.0 **** 0.0
25 C23487 55.2324 32.9253 32.7484 C.2 0.0 **** 0.042
26 C23416 63.7852 31.124 25.2014 C.3 0.0 **** 0.107
27 H23609 45.2238 23.6242 35.9771 H 0.0 **** 0.053
28 C23513 44.2279 26.9214 37.7783 C.3 0.0 **** -0.106
29 H23588 60.7273 22.0596 27.7057 H 0.0 **** 0.053
30 H23644 40.7813 36.4637 41.7581 H 0.0 **** 0.1268
31 H23590 61.4228 22.1884 25.3613 H 0.0 **** 0.053
32 H23564 69.2107 29.1713 25.0367 H 0.0 **** 0.053
33 C23417 64.1765 32.3165 26.0924 C.3 0.0 **** -0.053
34 C23472 49.3577 29.3385 34.4897 C.2 0.0 **** 0.0
35 H23599 50.294 22.7663 31.6911 H 0.0 **** 0.053
36 C23447 60.7606 23.0566 27.2403 C.3 0.0 **** -0.106
37 C23489 53.0736 32.8024 33.8969 C.2 0.0 **** 0.0
38 C23428 62.0618 34.5246 28.3323 C.3 0.0 **** -0.106
39 H23585 61.3671 25.8641 27.7811 H 0.0 **** 0.053
40 H23589 59.7034 22.5568 25.3988 H 0.0 **** 0.053
41 C23481 47.3522 23.4205 33.4171 C.3 0.0 **** 0.134
42 C23545 38.603 29.2787 40.4741 C.2 0.0 **** 0.052
43 H23573 62.2213 35.4595 28.891 H 0.0 **** 0.053
44 H23610 47.4094 23.493 35.4559 H 0.0 **** 0.353
45 H23586 62.8829 23.2996 27.1512 H 0.0 **** 0.053
46 C23484 45.1655 24.9545 34.2314 C.3 0.0 **** -0.106
47 H23639 63.0515 22.4386 30.6977 H 0.0 **** 0.053
48 H23607 44.4512 25.5372 34.8347 H 0.0 **** 0.053
49 H23602 46.6246 23.0275 32.6865 H 0.0 **** 0.053
50 H23605 46.3129 26.7316 33.6846 H 0.0 **** 0.053
51 H23583 59.6416 24.8357 23.4237 H 0.0 **** 0.053
52 C23452 56.5357 27.6715 29.5429 C.2 0.0 **** -0.012
53 O23430 59.2459 31.7614 29.7652 O.3 0.0 **** -0.464
54 H23598 48.778 23.498 31.1593 H 0.0 **** 0.053
55 H23574 61.4691 34.7685 27.4357 H 0.0 **** 0.053
56 H23633 63.1161 24.5334 29.3404 H 0.0 **** 0.053
57 H23584 62.9764 25.6932 27.1211 H 0.0 **** 0.053
58 H23606 44.706 24.8157 33.2397 H 0.0 **** 0.053
59 C23526 45.1121 35.2759 39.4272 C.2 0.0 **** -0.1268
60 H23615 57.4193 35.1409 36.7268 H 0.0 **** 0.053
61 H23556 69.1597 29.2393 27.3437 H 0.0 **** 0.053
62 H23645 38.6413 35.3422 42.3307 H 0.0 **** 0.1268
63 H23597 49.4481 25.9683 30.8206 H 0.0 **** 0.053
64 H23578 63.0471 27.4298 22.079 H 0.0 **** 0.053
65 C23413 67.2045 29.8683 24.6253 C.3 0.0 **** -0.106
66 C23508 46.5872 31.1928 37.1816 C.2 0.0 **** 0.0
67 H23647 37.2058 33.3387 42.2947 H 0.0 **** 0.1268
68 H23646 36.8541 30.9616 41.7537 H 0.0 **** 0.1268
69 H23579 63.4225 29.6092 23.1976 H 0.0 **** 0.1268
70 C23507 46.8265 32.519 37.5804 C.2 0.0 **** 0.0265
71 H23643 43.0175 36.3818 40.7386 H 0.0 **** 0.1268
72 H23637 63.7022 22.1218 29.0663 H 0.0 **** 0.053
73 C23478 50.3751 25.6799 31.3581 C.3 0.0 **** 0.107
74 C23460 52.1929 27.5845 31.7514 C.2 0.0 **** 0.0
75 H23630 45.8523 25.7536 38.6522 H 0.0 **** 0.053
76 H23619 55.8206 37.6913 33.6365 H 0.0 **** 0.053
77 H23576 63.9531 34.6113 27.2429 H 0.0 **** 0.053
78 H23575 64.0349 33.7764 28.7942 H 0.0 **** 0.053
79 H23629 45.6287 25.4979 36.9182 H 0.0 **** 0.053
80 C23463 50.037 27.5341 32.8595 C.2 0.0 **** 0.042
81 H23638 62.0298 21.6605 29.4704 H 0.0 **** 0.053
82 C23422 63.0475 29.9891 25.9293 C.3 0.0 **** -0.053
83 C23457 55.8134 29.6596 30.8244 C.2 0.0 **** 0.0
84 H23620 54.6055 37.0652 34.7586 H 0.0 **** 0.053
85 C23436 60.8444 28.2868 26.6612 C.2 0.0 **** 0.0
86 C23458 53.6325 29.5912 31.9956 C.2 0.0 **** 0.0
87 H23568 65.7947 32.7046 27.5242 H 0.0 **** 0.053
88 H23652 37.4749 27.5321 38.284 H 0.0 **** 0.053
89 C23527 43.8798 34.6443 39.8011 C.2 0.0 **** 0.0
90 C23431 58.1391 31.0088 30.0749 C.2 0.0 **** 0.232
91 C23548 37.9012 26.8714 39.0566 C.3 0.0 **** -0.106
92 C23455 54.3914 27.6521 30.6925 C.2 0.0 **** 0.0
93 C23433 58.9483 29.1993 28.6488 C.2 0.0 **** 0.0
94 H23596 50.8427 24.5808 33.1272 H 0.0 **** 0.053
95 H23565 67.9737 27.9256 25.2178 H 0.0 **** 0.053
96 C23443 60.9435 24.2523 25.0378 C.2 0.0 **** 0.0
97 C23409 67.6081 30.8826 28.7776 C.3 0.0 **** 0.054
98 C23461 53.2107 26.9815 30.996 C.2 0.0 **** -0.1268
99 H23611 55.0655 35.8428 32.418 H 0.0 **** 0.053
100 H23571 60.2964 33.8997 29.4498 H 0.0 **** 0.053
101 C23536 40.2182 32.6941 40.8058 C.2 0.0 **** 0.0
102 C23494 57.1289 34.2689 34.7537 C.3 0.0 **** -0.106
103 H23567 64.1767 33.2111 25.4405 H 0.0 **** 0.053
104 C23509 46.2216 28.3644 36.4254 C.3 0.0 **** -0.053
105 C23473 49.5961 30.6589 34.975 C.2 0.0 **** 0.0
106 H23625 44.3034 29.3373 36.2737 H 0.0 **** 0.053
107 H23653 37.5909 26.4011 41.1402 H 0.0 **** 0.053
108 C23515 46.7371 27.2952 37.4057 C.3 0.0 **** -0.106
109 H23587 59.8821 23.6168 27.6003 H 0.0 **** 0.053
110 C23446 62.0334 23.8099 27.6425 C.3 0.0 **** -0.053
111 C23468 53.869 30.9071 32.514 C.2 0.0 **** 0.0
112 C23517 44.6938 32.562 38.7462 C.2 0.0 **** 0.0
113 H23591 59.6302 26.4893 26.6602 H 0.0 **** 0.1268
114 H23626 45.044 28.4207 39.0636 H 0.0 **** 0.053
115 O23551 36.6344 28.9044 41.8106 O.2 0.0 **** -0.419
116 C23451 56.7873 29.0224 29.9766 C.2 0.0 **** 0.0
117 C23440 62.8064 28.8507 23.6776 C.2 0.0 **** -0.1268
118 H23648 41.8411 27.4472 38.7441 H 0.0 **** 0.1268
119 C23504 47.3498 29.2107 35.8981 C.2 0.0 **** 0.0
120 C23464 50.2691 28.775 33.5246 C.2 0.0 **** 0.0
121 C23503 47.5337 30.5362 36.3127 C.2 0.0 **** 0.0
122 C23498 50.9631 32.7002 35.1075 C.2 0.0 **** 0.0
123 C23434 62.5285 28.9185 24.9988 C.2 0.0 **** 0.0
124 C23412 65.8838 29.9798 25.3678 C.3 0.0 **** 0.107
125 C23411 66.0696 30.7066 26.7305 C.3 0.0 **** -0.053
126 H23612 57.4354 35.3076 32.8478 H 0.0 **** 0.053
127 C23437 61.6251 26.5997 24.9442 C.2 0.0 **** 0.0
128 H23563 67.0287 29.4554 23.6216 H 0.0 **** 0.053
129 H23594 57.4653 32.6308 31.2324 H 0.0 **** 0.1268
130 H23572 61.8285 33.3794 30.1478 H 0.0 **** 0.053
131 H23618 56.4816 37.3819 36.1999 H 0.0 **** 0.053
132 N23486 46.8099 23.0888 34.7353 N.3 0.0 **** -0.727
133 C23435 61.6759 27.901 25.6079 C.2 0.0 **** 0.0
134 C23533 40.6135 35.417 41.4978 C.2 0.0 **** -0.1268
135 H23616 55.7196 34.9538 36.2609 H 0.0 **** 0.053
136 C23467 57.233 31.627 30.9085 C.2 0.0 **** -0.1268
137 C23427 61.2938 33.5175 29.1889 C.3 0.0 **** -0.106
138 H23559 68.446 31.5521 29.0174 H 0.0 **** 0.053
139 H23623 48.0748 27.6293 34.6952 H 0.0 **** 0.1268
140 H23631 47.6219 26.8008 36.9771 H 0.0 **** 0.053
141 H23624 45.7996 27.8109 35.5727 H 0.0 **** 0.053
142 C23445 61.9682 25.2422 27.1004 C.3 0.0 **** -0.106
143 H23608 44.7468 22.821 34.4748 H 0.0 **** 0.053
144 C23539 42.2569 31.2487 39.4596 C.2 0.0 **** 0.0
145 H23580 61.449 25.4041 21.8234 H 0.0 **** 0.053
146 O23415 64.965 30.677 24.5122 O.3 0.0 **** -0.32
147 H23627 43.7249 26.8771 36.7973 H 0.0 **** 0.053
148 C23408 67.5192 30.6163 27.2524 C.3 0.0 **** -0.053
149 H23558 66.669 31.36 29.1277 H 0.0 **** 0.053
150 C23499 52.1193 33.3889 34.7411 C.2 0.0 **** -0.1268
151 C23511 45.4195 30.5396 37.5851 C.2 0.0 **** 0.0
152 O23524 51.21 24.9412 30.4648 O.3 0.0 **** -0.57
153 C23448 60.6904 22.9386 25.7179 C.3 0.0 **** -0.106
154 O23493 56.3933 33.6204 32.4932 O.3 0.0 **** -0.202
155 H23621 52.2885 34.3956 35.12 H 0.0 **** 0.1268
156 C23424 59.9915 30.0339 28.2298 C.2 0.0 **** 0.0
157 C23532 42.8661 35.3325 40.4757 C.2 0.0 **** -0.1268
158 C23546 39.5935 28.6041 39.7477 C.2 0.0 **** 0.0
159 S23453 57.6892 26.7215 28.6196 S.2 0.0 **** 0.024
160 H23562 67.6129 30.8828 24.4899 H 0.0 **** 0.053
161 H23649 39.9012 27.0839 38.2714 H 0.0 **** 0.053
162 H23635 60.2929 23.4716 29.9242 H 0.0 **** 0.053
163 H23582 60.5815 23.3631 23.1112 H 0.0 **** 0.053
164 C23535 39.2058 33.4271 41.4804 C.2 0.0 **** 0.0
165 C23492 56.6492 34.7391 33.3646 C.3 0.0 **** 0.107
166 C23444 61.4414 25.3316 25.6867 C.2 0.0 **** 0.0
167 C23485 45.4315 23.5755 34.8979 C.3 0.0 **** 0.081
168 H23636 60.661 25.1868 29.64 H 0.0 **** 0.053
169 C23483 46.4799 25.7163 34.0693 C.3 0.0 **** -0.106
170 H23600 49.2954 22.7618 34.0988 H 0.0 **** 0.053
171 C23522 61.0866 24.2322 29.9849 C.3 0.0 **** -0.159
172 C23542 37.9944 32.7718 41.7953 C.2 0.0 **** -0.1268
173 C23423 60.9588 29.6296 27.237 C.2 0.0 **** 0.0
174 C23450 59.7681 27.4682 27.1188 C.2 0.0 **** -0.1268
175 C23471 52.8864 31.4883 33.3706 C.2 0.0 **** 0.0
176 H23632 47.0761 27.7918 38.3287 H 0.0 **** 0.053
177 C23407 68.1366 29.2433 26.9403 C.3 0.0 **** -0.053
178 C23529 42.4616 32.6253 39.7901 C.2 0.0 **** 0.0
179 C23474 50.7535 31.3801 34.5876 C.2 0.0 **** 0.0
180 C23405 66.9921 28.631 29.1247 C.3 0.0 **** 0.054
181 C23406 67.348 28.1545 27.6969 C.3 0.0 **** -0.106
182 C23501 48.8844 32.5765 36.345 C.2 0.0 **** 0.042
183 H23592 55.1968 25.999 29.5529 H 0.0 **** 0.1268
184 H23561 65.4916 28.9588 25.5396 H 0.0 **** 0.053
185 C23531 41.6529 34.7125 40.815 C.2 0.0 **** 0.0
186 C23425 60.1448 31.3303 28.8084 C.2 0.0 **** 0.232
187 C23429 63.3983 33.9183 27.8978 C.3 0.0 **** -0.106
188 C23465 51.4558 29.479 33.1759 C.2 0.0 **** 0.0
189 H23570 63.7701 29.4789 26.5981 H 0.0 **** 0.053
190 H23617 57.6538 36.9404 34.9551 H 0.0 **** 0.053
191 C23462 50.9349 26.9535 31.9838 C.2 0.0 **** 0.0
192 H23554 67.952 27.2348 27.7311 H 0.0 **** 0.053
193 H23654 36.1114 26.9416 40.3378 H 0.0 **** 0.053
194 C23528 43.682 33.2689 39.4538 C.2 0.0 **** 0.0
195 C23456 54.6135 28.9797 31.1716 C.2 0.0 **** 0.0
196 C23549 37.1976 27.1046 40.3831 C.3 0.0 **** -0.086
197 C23538 41.0363 30.6023 39.8068 C.2 0.0 **** 0.0
198 C23541 37.7886 31.4433 41.4867 C.2 0.0 **** -0.1268
199 C23432 57.9629 29.7062 29.574 C.2 0.0 **** 0.0
200 C23530 41.4443 33.3389 40.4666 C.2 0.0 **** 0.0
201 C23479 49.4451 23.3738 32.0295 C.3 0.0 **** -0.106
202 C23421 61.9785 30.4918 26.8732 C.2 0.0 **** 0.0
203 C23525 46.0776 34.6064 38.7281 C.2 0.0 **** -0.1268
204 C23438 61.8513 26.5368 23.5996 C.2 0.0 **** 0.0
205 O23410 67.8491 29.6977 29.5461 O.3 0.0 **** -0.32
206 C23470 51.7028 30.7851 33.7155 C.2 0.0 **** 0.0
207 C23547 39.3791 27.1985 39.2317 C.3 0.0 **** -0.106
208 C23497 55.5795 36.8441 34.2957 C.3 0.0 **** -0.106
209 H23569 66.3177 32.6311 25.8357 H 0.0 **** 0.053
210 C23496 56.6681 36.6776 35.3759 C.3 0.0 **** -0.106
211 C23482 47.4595 24.9605 33.1563 C.3 0.0 **** -0.053
212 C23519 43.1336 29.127 38.6111 C.2 0.0 **** 0.0
213 C23477 49.9525 24.7427 32.4987 C.3 0.0 **** -0.053
214 H23577 61.4433 28.1068 22.1991 H 0.0 **** 0.053
215 H23650 39.8392 26.4704 39.9262 H 0.0 **** 0.053
216 C23550 37.4155 28.5035 40.9463 C.2 0.0 **** 0.347
217 H23557 68.1084 31.3911 26.734 H 0.0 **** 0.053
218 C23512 44.3697 28.3838 38.1843 C.3 0.0 **** -0.053
219 H23566 63.1157 31.4799 24.4045 H 0.0 **** 0.053
220 C23516 44.4831 31.1982 38.3963 C.2 0.0 **** 0.0
221 C23537 40.0064 31.3208 40.4777 C.2 0.0 **** 0.0
222 C23544 40.8458 29.2344 39.4683 C.2 0.0 **** 0.0
223 C23466 56.0443 30.988 31.3178 C.2 0.0 **** 0.0
224 H23603 47.1839 25.1516 32.1053 H 0.0 **** 0.053
225 H23552 67.1223 27.829 29.864 H 0.0 **** 0.053
226 C23495 56.7156 35.2332 35.8865 C.3 0.0 **** -0.106
227 H23622 50.1536 34.2947 36.3666 H 0.0 **** 0.1268
228 H23614 58.2228 34.1605 34.7181 H 0.0 **** 0.053
229 C23518 45.8917 33.2363 38.3509 C.2 0.0 **** 0.0
230 C23476 48.8834 25.4825 33.3411 C.3 0.0 **** 0.107
231 H23604 46.9444 25.833 35.0636 H 0.0 **** 0.053
232 O23506 47.9723 33.1784 37.1986 O.3 0.0 **** -0.0685
233 C23543 41.935 28.5175 38.9071 C.2 0.0 **** -0.1268
234 H23634 61.3579 24.3454 31.0452 H 0.0 **** 0.053
235 C23488 54.2526 33.5061 33.5388 C.2 0.0 **** 0.042
236 H23601 48.4977 21.6377 32.9942 H 0.0 **** 0.053
237 H23613 56.7111 33.2685 34.938 H 0.0 **** 0.053
238 C23454 55.3807 27.0204 29.8938 C.2 0.0 **** -0.1268
239 C23514 45.6299 26.2666 37.7039 C.3 0.0 **** -0.106
240 H23641 47.0012 35.1073 38.4384 H 0.0 **** 0.1268
241 C23442 60.6335 24.3649 23.5653 C.3 0.0 **** -0.106
242 C23441 61.7 25.2252 22.8812 C.3 0.0 **** -0.106
243 C23426 61.1678 32.1831 28.4987 C.2 0.0 **** 0.0
244 H23595 49.1488 25.4177 34.4129 H 0.0 **** 0.053
245 O23490 54.3611 34.7802 34.0466 O.3 0.0 **** -0.202
246 O23475 48.8231 26.898 33.0065 O.3 0.0 **** -0.202
247 H23642 45.2603 36.3206 39.7064 H 0.0 **** 0.1268
248 H23640 51.341 25.4871 29.6742 H 0.0 **** 0.41
249 C23439 62.2863 27.7365 22.8233 C.3 0.0 **** -0.106
250 C23414 68.1928 28.9884 25.4123 C.3 0.0 **** -0.106
@<TRIPOS>BOND
1 17 18 1
2 124 125 1
3 180 181 1
4 46 169 1
5 177 181 1
6 148 177 1
7 97 148 1
8 205 97 1
9 180 205 1
10 65 124 1
11 250 65 1
12 148 125 1
13 177 250 1
14 26 146 1
15 33 26 1
16 23 33 1
17 124 146 1
18 125 23 1
19 19 7 un
20 202 19 un
21 82 202 un
22 33 7 1
23 26 82 1
24 156 173 1
25 186 156 un
26 243 186 un
27 202 173 un
28 19 243 un
29 38 137 1
30 187 38 1
31 7 187 1
32 243 137 1
33 90 53 1
34 199 90 un
35 93 199 un
36 186 53 1
37 156 93 un
38 133 123 un
39 85 133 2
40 82 123 1
41 173 85 un
42 204 127 2
43 249 204 1
44 117 249 1
45 133 127 1
46 123 117 2
47 241 242 1
48 96 241 1
49 166 96 2
50 204 242 1
51 127 166 1
52 110 142 1
53 36 110 1
54 153 36 1
55 166 142 1
56 96 153 1
57 174 13 un
58 85 174 un
59 93 13 un
60 52 116 un
61 159 52 1
62 13 159 un
63 199 116 un
64 92 238 un
65 195 92 un
66 83 195 un
67 52 238 un
68 116 83 un
69 6 86 un
70 74 6 un
71 98 74 un
72 195 86 un
73 92 98 un
74 80 191 un
75 120 80 un
76 188 120 un
77 74 191 un
78 6 188 un
79 136 223 un
80 90 136 un
81 83 223 un
82 10 111 un
83 223 10 un
84 86 111 un
85 175 206 un
86 111 175 un
87 188 206 un
88 105 34 un
89 179 105 un
90 206 179 un
91 120 34 un
92 230 246 1
93 213 230 1
94 73 213 1
95 80 246 1
96 191 73 1
97 4 201 1
98 41 4 1
99 211 41 1
100 213 201 1
101 230 211 1
102 167 46 1
103 132 167 1
104 211 169 1
105 41 132 1
106 235 25 un
107 37 235 un
108 175 37 un
109 10 25 un
110 8 245 1
111 165 8 1
112 154 165 1
113 235 245 1
114 25 154 1
115 226 102 1
116 210 226 1
117 208 210 1
118 165 102 1
119 8 208 1
120 150 122 un
121 37 150 un
122 179 122 un
123 182 9 un
124 22 182 un
125 122 22 un
126 105 9 un
127 119 121 un
128 12 119 un
129 34 12 un
130 9 121 un
131 70 232 1
132 66 70 un
133 182 232 1
134 121 66 1
135 20 104 1
136 151 20 1
137 119 104 1
138 66 151 un
139 28 218 1
140 239 28 1
141 108 239 1
142 20 218 1
143 104 108 1
144 112 220 1
145 229 112 1
146 70 229 un
147 151 220 un
148 218 212 1
149 220 24 un
150 212 24 un
151 110 17 1
152 17 171 1
153 73 152 1
154 59 203 1
155 89 59 un
156 194 89 1
157 229 203 un
158 112 194 un
159 200 178 un
160 185 200 1
161 157 185 un
162 194 178 un
163 89 157 un
164 3 134 un
165 164 3 1
166 101 164 1
167 185 134 un
168 200 101 un
169 197 221 un
170 144 197 un
171 178 144 un
172 101 221 un
173 198 21 un
174 172 198 un
175 164 172 un
176 221 21 un
177 222 233 un
178 197 222 un
179 24 144 un
180 212 233 un
181 158 42 un
182 222 158 un
183 21 42 un
184 91 207 1
185 196 91 1
186 216 196 1
187 158 207 1
188 42 216 1
189 216 115 2
190 180 225 1
191 180 5 1
192 181 192 1
193 181 11 1
194 177 61 1
195 148 217 1
196 97 149 1
197 97 138 1
198 125 16 1
199 124 184 1
200 65 160 1
201 65 128 1
202 250 32 1
203 250 95 1
204 26 219 1
205 33 103 1
206 23 87 1
207 23 209 1
208 82 189 1
209 137 100 1
210 137 130 1
211 38 43 1
212 38 55 1
213 187 78 1
214 187 77 1
215 249 214 1
216 249 64 1
217 117 69 1
218 242 145 1
219 242 1 1
220 241 163 1
221 241 51 1
222 142 57 1
223 142 39 1
224 110 45 1
225 36 109 1
226 36 29 1
227 153 40 1
228 153 31 1
229 174 113 1
230 238 183 1
231 98 14 1
232 136 129 1
233 230 244 1
234 213 94 1
235 73 63 1
236 201 54 1
237 201 35 1
238 4 170 1
239 4 236 1
240 41 49 1
241 211 224 1
242 169 231 1
243 169 50 1
244 46 58 1
245 46 48 1
246 167 143 1
247 167 27 1
248 132 44 1
249 8 99 1
250 165 126 1
251 102 237 1
252 102 228 1
253 226 60 1
254 226 135 1
255 210 190 1
256 210 131 1
257 208 76 1
258 208 84 1
259 150 155 1
260 22 227 1
261 12 139 1
262 104 141 1
263 20 106 1
264 218 114 1
265 28 147 1
266 28 2 1
267 239 79 1
268 239 75 1
269 108 140 1
270 108 176 1
271 17 56 1
272 171 234 1
273 171 162 1
274 171 168 1
275 18 72 1
276 18 81 1
277 18 47 1
278 152 248 1
279 203 240 1
280 59 247 1
281 157 71 1
282 134 30 1
283 3 62 1
284 198 68 1
285 172 67 1
286 233 118 1
287 207 161 1
288 207 215 1
289 91 15 1
290 91 88 1
291 196 107 1
292 196 193 1
@<TRIPOS>MOLECULE
Sketch 4
250 292
SMALL
USER_CHARGES


@<TRIPOS>ATOM
1 H19900 9.445 29.7062 52.7949 H 0.0 **** 0.053
2 C19781 1.97536 28.1568 56.5116 C.2 0.0 **** 0.0
3 C19797 8.73257 30.5411 52.9351 C.3 0.0 **** -0.106
4 O19725 12.537 31.7208 63.526 O.3 0.0 **** -0.202
5 C19696 19.888 30.3782 76.0552 C.3 0.0 **** -0.053
6 C19715 10.778 30.3825 66.4817 C.2 0.0 **** 0.0
7 C19673 14.1267 31.2849 77.1388 C.2 0.0 **** 0.0
8 H19841 16.8347 32.38 75.2874 H 0.0 **** 0.1268
9 C19677 10.2295 29.4328 77.7861 C.3 0.0 **** -0.106
10 H19891 3.41949 27.8101 62.1864 H 0.0 **** 0.1268
11 C19687 17.5337 32.9868 77.7531 C.2 0.0 **** 0.0
12 O19660 15.5944 26.0656 81.9779 O.3 0.0 **** -0.32
13 C19788 5.86425 29.2987 55.1469 C.2 0.0 **** 0.0
14 H19873 11.3828 30.5724 62.3879 H 0.0 **** 0.1268
15 C19735 14.4819 31.572 58.8022 C.3 0.0 **** 0.081
16 C19719 9.88817 29.6203 70.6276 C.2 0.0 **** 0.0
17 C19760 8.73734 29.8703 59.3002 C.3 0.0 **** -0.053
18 C19755 10.4163 30.2217 62.7139 C.2 0.0 **** -0.1268
19 O19801 5.97288 29.5294 50.0274 O.2 0.0 **** -0.419
20 C19770 6.69785 29.1525 57.453 C.2 0.0 **** 0.0
21 H19865 6.49049 24.5373 71.7429 H 0.0 **** 0.053
22 H19845 13.8199 30.309 62.7282 H 0.0 **** 0.053
23 H19849 17.0627 32.1749 64.0517 H 0.0 **** 0.053
24 C19666 13.7861 31.8055 80.8775 C.3 0.0 **** 0.107
25 C19664 16.9866 29.5713 83.8436 C.3 0.0 **** -0.106
26 H19861 5.83199 29.4521 71.8457 H 0.0 **** 0.053
27 C19779 4.33394 28.676 56.9893 C.2 0.0 **** 0.0
28 C19734 13.1998 32.2985 59.2972 C.3 0.0 **** -0.106
29 C19682 12.883 30.5889 73.6157 C.2 0.0 **** 0.0
30 H19811 16.2581 30.7007 81.4969 H 0.0 **** 0.053
31 C19765 10.9255 28.7782 59.9755 C.3 0.0 **** -0.106
32 O19756 5.70451 28.4467 62.9441 O.3 0.0 **** -0.0685
33 H19847 13.9212 33.3657 64.714 H 0.0 **** 0.053
34 O19665 14.6371 31.8705 82.0345 O.3 0.0 **** -0.32
35 H19807 14.4811 28.4583 83.9474 H 0.0 **** 0.053
36 H19860 15.0159 30.1659 60.205 H 0.0 **** 0.353
37 H19871 6.04056 28.3175 67.8738 H 0.0 **** 0.1268
38 H19830 19.093 35.8279 78.5878 H 0.0 **** 0.053
39 C19706 12.4174 30.7049 69.865 C.2 0.0 **** 0.0
40 H19901 9.66884 31.7286 51.3771 H 0.0 **** 0.053
41 H19866 6.27461 25.7312 70.451 H 0.0 **** 0.053
42 C19747 4.73735 27.5574 71.7763 C.3 0.0 **** -0.106
43 C19676 11.5672 30.0915 77.5634 C.2 0.0 **** 0.0
44 H19855 11.9073 32.272 61.0586 H 0.0 **** 0.053
45 C19794 7.16302 29.6746 54.7064 C.2 0.0 **** 0.0
46 C19786 3.50264 28.8069 54.6739 C.2 0.0 **** 0.0
47 C19655 16.4375 26.8244 81.1043 C.3 0.0 **** 0.054
48 H19819 12.9499 30.0908 83.2116 H 0.0 **** 0.053
49 H19809 14.0753 26.2771 83.2904 H 0.0 **** 0.053
50 C19733 12.8594 31.8446 60.7157 C.3 0.0 **** -0.106
51 H19814 17.1475 29.4381 84.9239 H 0.0 **** 0.053
52 H19822 10.3619 28.3342 77.778 H 0.0 **** 0.053
53 H19892 1.59996 27.4961 60.5429 H 0.0 **** 0.1268
54 C19720 9.52309 29.8015 66.8632 C.2 0.0 **** 0.0
55 C19663 15.9997 30.7326 83.6251 C.3 0.0 **** -0.106
56 C19714 11.0702 30.6125 65.108 C.2 0.0 **** 0.0
57 H19902 8.03893 32.2615 51.8422 H 0.0 **** 0.053
58 H19886 17.9033 29.2485 74.457 H 0.0 **** 0.053
59 C19658 14.9781 28.2621 82.9826 C.3 0.0 **** -0.053
60 H19854 12.7251 30.7491 60.7125 H 0.0 **** 0.053
61 H19895 0.32586 28.2023 53.5049 H 0.0 **** 0.1268
62 C19752 6.33908 28.5942 65.2155 C.2 0.0 **** -0.1268
63 C19739 7.95332 29.028 68.5718 C.2 0.0 **** 0.0
64 H19823 8.68272 29.2881 79.3049 H 0.0 **** 0.053
65 H19846 15.2717 30.6638 64.4571 H 0.0 **** 0.053
66 C19780 3.27608 28.5498 56.0585 C.2 0.0 **** 0.0
67 C19741 6.00754 28.3918 71.5984 C.3 0.0 **** 0.107
68 H19831 19.9445 34.3121 78.9335 H 0.0 **** 0.053
69 H19806 16.7204 27.414 83.8995 H 0.0 **** 0.053
70 C19773 21.1111 28.2508 75.4139 C.3 0.0 **** -0.159
71 C19751 6.65435 28.7796 63.8979 C.2 0.0 **** 0.042
72 H19890 15.0684 33.5084 66.6615 H 0.0 **** 0.41
73 C19738 7.66076 28.8098 69.943 C.2 0.0 **** 0.042
74 H19858 15.0757 32.2558 58.1723 H 0.0 **** 0.053
75 H19881 11.7015 28.7473 60.7551 H 0.0 **** 0.053
76 C19694 18.5761 32.4007 76.8797 C.2 0.0 **** 0.0
77 C19784 1.13846 28.29 54.2287 C.2 0.0 **** -0.1268
78 H19838 21.1848 30.9073 74.3783 H 0.0 **** 0.053
79 H19874 10.4565 30.8416 60.1409 H 0.0 **** 0.053
80 C19695 18.5913 30.9025 76.6825 C.3 0.0 **** -0.106
81 C19678 9.61177 29.8491 79.1214 C.3 0.0 **** -0.106
82 H19828 17.5661 34.884 80.4587 H 0.0 **** 0.053
83 H19883 19.2396 28.3792 76.4577 H 0.0 **** 0.053
84 C19793 8.22629 29.6654 55.647 C.2 0.0 **** -0.1268
85 C19787 4.79915 29.1833 54.2092 C.2 0.0 **** 0.0
86 H19808 13.756 26.9949 81.6812 H 0.0 **** 0.053
87 C19761 7.45618 29.2543 59.7963 C.2 0.0 **** 0.0
88 H19818 12.4822 28.8329 82.0587 H 0.0 **** 0.053
89 C19708 11.4441 30.43 68.8687 C.2 0.0 **** 0.0
90 O19680 11.2517 29.8475 75.2576 O.3 0.0 **** -0.464
91 H19893 0.773485 27.612 58.2185 H 0.0 **** 0.1268
92 C19707 12.1515 30.4672 71.2417 C.2 0.0 **** 0.0
93 H19850 16.4306 30.4966 62.1602 H 0.0 **** 0.053
94 H19826 10.2104 29.947 81.2198 H 0.0 **** 0.053
95 C19662 15.421 30.682 82.2214 C.3 0.0 **** 0.107
96 H19834 18.4349 30.4242 77.6659 H 0.0 **** 0.053
97 C19683 13.7734 30.9526 74.6923 C.2 0.0 **** 0.0
98 C19724 8.56681 29.4693 65.8678 C.2 0.0 **** 0.0
99 C19701 13.1508 30.7662 72.2343 C.2 0.0 **** 0.0
100 C19730 16.4575 31.5932 62.0262 C.3 0.0 **** -0.106
101 C19769 8.01924 29.3822 56.9784 C.2 0.0 **** 0.0
102 C19758 7.21536 29.0812 61.1619 C.2 0.0 **** 0.0
103 C19693 19.5637 33.1961 76.4044 C.2 0.0 **** 0.0
104 H19872 5.36525 28.192 65.4968 H 0.0 **** 0.1268
105 C19764 11.5554 29.0135 58.5896 C.3 0.0 **** -0.106
106 C19679 10.6183 29.6145 80.2503 C.3 0.0 **** -0.106
107 C19785 2.42789 28.6804 53.7541 C.2 0.0 **** 0.0
108 H19815 17.9659 29.8352 83.4116 H 0.0 **** 0.053
109 H19884 18.6807 27.6727 74.1726 H 0.0 **** 0.053
110 C19692 19.5945 34.6472 76.8176 C.3 0.0 **** -0.106
111 H19870 4.19146 27.5965 70.8211 H 0.0 **** 0.053
112 H19864 7.94476 25.9422 72.9889 H 0.0 **** 0.053
113 C19722 10.1403 30.18 64.0942 C.2 0.0 **** 0.0
114 H19827 16.4669 35.5213 79.2626 H 0.0 **** 0.053
115 C19757 5.96047 28.629 61.6044 C.2 0.0 **** 0.0265
116 C19686 15.4583 31.8367 76.8735 C.2 0.0 **** 0.0
117 H19805 17.2641 28.8329 81.2575 H 0.0 **** 0.053
118 H19888 21.6529 28.7376 74.5873 H 0.0 **** 0.053
119 H19812 15.1678 30.674 84.3454 H 0.0 **** 0.053
120 H19887 21.7323 28.3312 76.3198 H 0.0 **** 0.053
121 C19732 13.9828 32.1977 61.7045 C.3 0.0 **** -0.053
122 H19876 9.14343 28.0952 58.1756 H 0.0 **** 0.053
123 C19684 15.569 32.5436 79.2159 C.2 0.0 **** 0.0
124 H19856 13.3561 33.3891 59.2967 H 0.0 **** 0.053
125 C19777 2.80128 28.032 58.8126 C.2 0.0 **** 0.0
126 O19774 15.4318 32.8618 66.037 O.3 0.0 **** -0.57
127 C19731 15.3773 32.0017 61.0202 C.3 0.0 **** 0.134
128 C19670 12.3676 30.5253 78.692 C.2 0.0 **** 0.0
129 H19836 20.679 30.4191 76.8273 H 0.0 **** 0.053
130 C19795 6.35665 29.8138 52.3882 C.2 0.0 **** 0.052
131 C19689 16.9546 34.5759 79.5882 C.3 0.0 **** -0.106
132 C19759 9.917 29.8953 60.2994 C.3 0.0 **** -0.053
133 C19778 4.10654 28.419 58.3674 C.2 0.0 **** 0.0
134 C19748 7.29133 28.9231 66.2306 C.2 0.0 **** 0.0
135 S19703 15.7881 31.5354 72.8684 S.2 0.0 **** 0.024
136 H19816 13.3856 32.8241 80.7692 H 0.0 **** 0.053
137 C19681 11.6178 30.0749 73.9532 C.2 0.0 **** 0.232
138 H19899 9.12908 31.1525 53.7578 H 0.0 **** 0.053
139 C19754 9.50069 29.8521 61.7458 C.2 0.0 **** 0.0
140 C19675 12.0512 30.2795 76.2985 C.2 0.0 **** 0.232
141 H19803 15.8212 27.2717 80.2989 H 0.0 **** 0.053
142 C19799 8.05225 30.5215 50.5622 C.3 0.0 **** -0.086
143 C19790 5.03079 29.4239 52.8224 C.2 0.0 **** 0.0
144 H19853 13.8848 33.2594 61.988 H 0.0 **** 0.053
145 C19671 13.6409 31.1466 78.4272 C.2 0.0 **** 0.0
146 C19744 7.53781 26.4149 72.083 C.3 0.0 **** -0.106
147 H19810 14.7304 29.0247 80.9861 H 0.0 **** 0.053
148 H19851 17.4476 31.8341 61.6156 H 0.0 **** 0.053
149 C19737 8.59949 29.0556 70.9332 C.2 0.0 **** 0.042
150 C19659 14.5189 26.8695 82.4778 C.3 0.0 **** 0.054
151 H19898 9.24213 29.8436 55.3047 H 0.0 **** 0.1268
152 C19698 20.6398 32.697 75.4852 C.3 0.0 **** -0.106
153 H19897 1.84283 28.8766 51.6828 H 0.0 **** 0.1268
154 C19753 8.22892 29.4113 62.1345 C.2 0.0 **** 0.0
155 H19862 6.92254 27.9754 73.4943 H 0.0 **** 0.053
156 N19736 15.3452 31.0778 59.8856 N.3 0.0 **** -0.727
157 H19852 15.6624 32.9816 60.6003 H 0.0 **** 0.053
158 C19669 11.9183 30.3212 79.987 C.2 0.0 **** 0.0
159 C19716 10.8778 29.9349 71.6366 C.2 0.0 **** 0.0
160 C19782 1.76876 27.9056 57.8776 C.2 0.0 **** -0.1268
161 C19792 2.67218 28.9521 52.3893 C.2 0.0 **** -0.1268
162 C19718 10.1801 29.8728 69.2537 C.2 0.0 **** 0.0
163 H19896 4.08696 29.4974 50.8794 H 0.0 **** 0.1268
164 C19712 13.2153 31.6578 65.772 C.2 0.0 **** 0.0
165 H19848 16.034 33.3511 63.2302 H 0.0 **** 0.053
166 H19843 14.9548 31.8279 67.8646 H 0.0 **** 0.1268
167 C19688 17.8583 34.076 78.509 C.2 0.0 **** 0.0
168 H19867 5.11252 26.0186 73.2723 H 0.0 **** 0.053
169 C19800 6.69764 29.9338 50.9379 C.2 0.0 **** 0.347
170 C19768 4.90744 28.3814 60.7035 C.2 0.0 **** 0.0
171 C19721 9.23027 29.5695 68.2325 C.2 0.0 **** 0.0
172 C19776 2.59419 27.8027 60.2132 C.2 0.0 **** -0.1268
173 H19880 11.9602 28.0647 58.2053 H 0.0 **** 0.053
174 H19869 4.09782 28.0395 72.5307 H 0.0 **** 0.053
175 H19885 19.3895 29.1501 73.4876 H 0.0 **** 0.053
176 H19878 10.7843 29.2549 56.5618 H 0.0 **** 0.053
177 H19817 11.8741 31.4318 81.7553 H 0.0 **** 0.053
178 C19668 13.0977 29.7367 82.1792 C.3 0.0 **** -0.106
179 C19702 14.431 31.2548 71.7888 C.2 0.0 **** -0.012
180 C19767 5.16126 28.5754 59.3093 C.2 0.0 **** 0.0
181 C19749 7.00805 28.7227 67.5815 C.2 0.0 **** -0.1268
182 C19657 16.4982 28.2428 83.2116 C.3 0.0 **** -0.053
183 C19699 15.0882 31.4813 74.4712 C.2 0.0 **** -0.012
184 H19875 8.49187 30.9213 59.0482 H 0.0 **** 0.053
185 H19840 21.6065 32.6699 76.025 H 0.0 **** 0.053
186 H19829 15.429 33.7377 80.9695 H 0.0 **** 0.1268
187 C19717 10.6572 29.7572 73.0182 C.2 0.0 **** -0.1268
188 H19903 8.71369 29.6621 50.3461 H 0.0 **** 0.053
189 H19842 15.6531 31.8469 70.1316 H 0.0 **** 0.1268
190 C19697 20.3169 31.3141 74.9197 C.3 0.0 **** -0.106
191 C19762 9.12728 29.1858 57.9764 C.3 0.0 **** -0.053
192 H19832 20.6007 35.0653 76.6585 H 0.0 **** 0.053
193 C19728 14.3671 32.4594 65.1737 C.3 0.0 **** 0.107
194 O19743 8.29455 28.7544 72.2417 O.3 0.0 **** -0.202
195 H19813 16.4957 31.7009 83.784 H 0.0 **** 0.053
196 C19745 6.33764 25.6079 71.5423 C.3 0.0 **** -0.106
197 H19868 4.18498 25.4566 71.8786 H 0.0 **** 0.053
198 H19820 15.134 30.5575 79.7446 H 0.0 **** 0.053
199 C19771 19.7411 28.9039 75.624 C.3 0.0 **** -0.053
200 H19894 -0.0688759 27.7362 55.9116 H 0.0 **** 0.1268
201 H19825 10.7916 28.5246 80.3542 H 0.0 **** 0.053
202 C19713 12.2863 31.2987 64.8138 C.2 0.0 **** 0.042
203 H19837 19.4905 31.4036 74.1958 H 0.0 **** 0.053
204 H19877 10.5922 30.7003 57.5646 H 0.0 **** 0.053
205 C19729 16.2027 32.2704 63.3769 C.3 0.0 **** -0.106
206 H19804 18.2366 27.6076 82.0855 H 0.0 **** 0.053
207 C19763 10.5393 29.5984 57.5769 C.3 0.0 **** -0.106
208 C19704 14.6814 31.4688 70.4574 C.2 0.0 **** -0.1268
209 H19882 10.4067 27.8073 60.0157 H 0.0 **** 0.053
210 C19709 11.7282 30.705 67.4959 C.2 0.0 **** 0.0
211 H19904 7.91739 31.06 49.6134 H 0.0 **** 0.053
212 H19835 17.7335 30.5802 76.0727 H 0.0 **** 0.053
213 C19742 7.16997 27.8731 72.4281 C.3 0.0 **** 0.107
214 C19710 12.9945 31.2911 67.1327 C.2 0.0 **** 0.0
215 C19691 19.1717 34.7717 78.2843 C.3 0.0 **** -0.106
216 H19879 12.404 29.7048 58.6903 H 0.0 **** 0.053
217 C19791 3.92477 29.3089 51.9352 C.2 0.0 **** -0.1268
218 C19690 15.9089 33.5882 80.0037 C.2 0.0 **** -0.1268
219 H19844 9.71795 29.3717 73.3867 H 0.0 **** 0.1268
220 C19667 12.6254 30.8451 81.1929 C.3 0.0 **** -0.053
221 C19674 13.3285 30.8521 76.0161 C.2 0.0 **** 0.0
222 C19700 15.873 31.9182 75.5099 C.2 0.0 **** -0.1268
223 C19775 3.59949 27.9732 61.1239 C.2 0.0 **** -0.1268
224 C19711 13.9593 31.4881 68.1328 C.2 0.0 **** -0.1268
225 C19727 14.9697 31.6328 64.0286 C.3 0.0 **** -0.053
226 C19726 13.8477 31.3833 62.99 C.3 0.0 **** 0.107
227 H19889 21.0072 27.1849 75.1599 H 0.0 **** 0.053
228 C19796 7.37781 29.997 53.3304 C.2 0.0 **** 0.0
229 C19672 14.553 31.4883 79.5839 C.3 0.0 **** -0.053
230 H19833 18.8978 35.2335 76.1879 H 0.0 **** 0.053
231 C19783 0.919048 28.0352 55.5565 C.2 0.0 **** -0.1268
232 C19798 8.66637 31.3735 51.6605 C.3 0.0 **** -0.106
233 H19839 20.7814 33.4309 74.6709 H 0.0 **** 0.053
234 H19821 9.5547 29.6634 76.9492 H 0.0 **** 0.053
235 C19746 5.02949 26.0961 72.1746 C.3 0.0 **** -0.106
236 C19685 16.211 32.3859 77.9134 C.2 0.0 **** 0.0
237 H19859 14.2158 30.7098 58.1728 H 0.0 **** 0.053
238 H19857 12.36 32.0967 58.6132 H 0.0 **** 0.053
239 C19750 7.92854 29.2899 63.4995 C.2 0.0 **** 0.0
240 C19705 13.6904 31.2204 69.4715 C.2 0.0 **** 0.0
241 C19661 14.5754 29.3931 82.0128 C.3 0.0 **** -0.053
242 C19723 8.87751 29.6513 64.4966 C.2 0.0 **** 0.0
243 C19789 5.63588 29.0512 56.5307 C.2 0.0 **** 0.0
244 H19824 9.35368 30.9199 79.0864 H 0.0 **** 0.053
245 H19863 8.34634 26.4344 71.3379 H 0.0 **** 0.053
246 C19656 17.2031 27.924 81.8769 C.3 0.0 **** -0.106
247 H19802 17.1233 26.1009 80.6428 H 0.0 **** 0.053
248 C19772 18.8744 28.7379 74.369 C.3 0.0 **** -0.159
249 C19766 6.45231 28.9707 58.8579 C.2 0.0 **** 0.0
250 O19740 6.4032 28.3205 70.2113 O.3 0.0 **** -0.202
@<TRIPOS>BOND
1 221 7 1
2 172 53 1
3 135 179 1
4 102 115 un
5 190 5 1
6 182 246 1
7 59 182 1
8 150 59 1
9 12 150 1
10 47 246 1
11 47 12 1
12 95 241 1
13 55 95 1
14 25 55 1
15 59 241 1
16 182 25 1
17 24 34 1
18 220 24 1
19 178 220 1
20 95 34 1
21 241 178 1
22 128 158 un
23 145 128 un
24 229 145 un
25 220 158 1
26 24 229 1
27 140 221 un
28 43 140 un
29 145 7 un
30 128 43 un
31 81 9 1
32 106 81 1
33 158 106 1
34 43 9 1
35 137 90 1
36 29 137 un
37 97 29 un
38 140 90 1
39 221 97 un
40 236 123 un
41 116 236 2
42 229 123 1
43 7 116 un
44 167 11 2
45 131 167 1
46 218 131 1
47 236 11 1
48 123 218 2
49 110 215 1
50 103 110 1
51 76 103 2
52 167 215 1
53 11 76 1
54 5 80 1
55 152 190 1
56 76 80 1
57 103 152 1
58 222 183 un
59 116 222 un
60 97 183 un
61 179 99 un
62 183 135 un
63 29 99 un
64 240 208 un
65 39 240 un
66 92 39 un
67 179 208 un
68 99 92 un
69 210 89 un
70 214 210 un
71 224 214 un
72 39 89 un
73 240 224 un
74 202 164 un
75 56 202 un
76 6 56 un
77 214 164 un
78 210 6 un
79 187 159 un
80 137 187 un
81 92 159 un
82 16 162 un
83 159 16 un
84 89 162 un
85 171 54 un
86 162 171 un
87 6 54 un
88 242 113 un
89 98 242 un
90 54 98 un
91 56 113 un
92 226 4 1
93 225 226 1
94 193 225 1
95 202 4 1
96 164 193 1
97 100 205 1
98 127 100 1
99 121 127 1
100 225 205 1
101 226 121 1
102 28 50 1
103 15 28 1
104 156 15 1
105 121 50 1
106 127 156 1
107 73 149 un
108 63 73 un
109 171 63 un
110 16 149 un
111 67 250 1
112 213 67 1
113 194 213 1
114 73 250 1
115 149 194 1
116 196 146 1
117 235 196 1
118 42 235 1
119 213 146 1
120 67 42 1
121 181 134 un
122 63 181 un
123 98 134 un
124 71 239 un
125 62 71 un
126 134 62 un
127 242 239 un
128 139 154 un
129 18 139 un
130 113 18 un
131 239 154 un
132 115 32 1
133 71 32 1
134 154 102 1
135 17 132 1
136 87 17 1
137 139 132 1
138 102 87 un
139 207 191 1
140 105 207 1
141 31 105 1
142 17 191 1
143 132 31 1
144 180 249 1
145 170 180 1
146 115 170 un
147 87 249 un
148 191 101 1
149 249 20 un
150 101 20 un
151 5 199 1
152 199 248 1
153 199 70 1
154 193 126 1
155 172 223 1
156 125 172 un
157 133 125 1
158 170 223 un
159 180 133 un
160 66 27 un
161 2 66 1
162 160 2 un
163 133 27 un
164 125 160 un
165 77 231 un
166 107 77 1
167 46 107 1
168 2 231 un
169 66 46 un
170 13 85 un
171 243 13 un
172 27 243 un
173 46 85 un
174 217 143 un
175 161 217 un
176 107 161 un
177 85 143 un
178 45 84 un
179 13 45 un
180 20 243 un
181 101 84 un
182 228 130 un
183 45 228 un
184 143 130 un
185 232 3 1
186 142 232 1
187 169 142 1
188 228 3 1
189 130 169 1
190 169 19 2
191 47 247 1
192 47 141 1
193 246 206 1
194 246 117 1
195 182 69 1
196 59 35 1
197 150 86 1
198 150 49 1
199 241 147 1
200 95 30 1
201 55 119 1
202 55 195 1
203 25 51 1
204 25 108 1
205 24 136 1
206 220 177 1
207 178 88 1
208 178 48 1
209 229 198 1
210 9 234 1
211 9 52 1
212 81 64 1
213 81 244 1
214 106 201 1
215 106 94 1
216 131 114 1
217 131 82 1
218 218 186 1
219 215 38 1
220 215 68 1
221 110 192 1
222 110 230 1
223 80 96 1
224 80 212 1
225 5 129 1
226 190 203 1
227 190 78 1
228 152 233 1
229 152 185 1
230 222 8 1
231 208 189 1
232 224 166 1
233 187 219 1
234 226 22 1
235 225 65 1
236 193 33 1
237 205 165 1
238 205 23 1
239 100 93 1
240 100 148 1
241 127 157 1
242 121 144 1
243 50 60 1
244 50 44 1
245 28 124 1
246 28 238 1
247 15 74 1
248 15 237 1
249 156 36 1
250 67 26 1
251 213 155 1
252 146 245 1
253 146 112 1
254 196 21 1
255 196 41 1
256 235 168 1
257 235 197 1
258 42 174 1
259 42 111 1
260 181 37 1
261 62 104 1
262 18 14 1
263 132 79 1
264 17 184 1
265 191 122 1
266 207 204 1
267 207 176 1
268 105 216 1
269 105 173 1
270 31 75 1
271 31 209 1
272 199 83 1
273 248 109 1
274 248 175 1
275 248 58 1
276 70 120 1
277 70 118 1
278 70 227 1
279 126 72 1
280 223 10 1
281 160 91 1
282 231 200 1
283 77 61 1
284 217 163 1
285 161 153 1
286 84 151 1
287 3 138 1
288 3 1 1
289 232 40 1
290 232 57 1
291 142 188 1
292 142 211 1
@<TRIPOS>MOLECULE
Sketch 4
250 292
SMALL
USER_CHARGES


@<TRIPOS>ATOM
1 H31119 46.517 51.2006 74.4105 H 0.0 **** 0.053
2 H31154 42.6951 42.5413 52.9787 H 0.0 **** 0.053
3 H31075 55.0437 50.733 80.1833 H 0.0 **** 0.053
4 H31076 55.5162 52.4311 80.2416 H 0.0 **** 0.053
5 C31021 60.825 44.1421 75.1088 C.3 0.0 **** -0.053
6 H31133 60.4822 44.3593 76.137 H 0.0 **** 0.053
7 H31058 57.2675 48.4385 81.82 H 0.0 **** 0.053
8 C30927 54.0594 50.7403 77.5819 C.3 0.0 **** -0.106
9 C30939 62.5109 51.374 75.8223 C.3 0.0 **** -0.106
10 H31120 45.7771 50.1744 73.1747 H 0.0 **** 0.053
11 H31132 47.0462 42.7026 63.2756 H 0.0 **** 0.053
12 C30999 47.4121 48.1714 69.5677 C.2 0.0 **** -0.1268
13 H31149 45.2283 43.4961 56.3438 H 0.0 **** 0.053
14 H31073 53.2787 52.0879 79.0968 H 0.0 **** 0.053
15 H31141 42.1149 47.4889 65.7872 H 0.0 **** 0.1268
16 C30914 61.844 49.3127 82.0241 C.3 0.0 **** -0.106
17 C30907 60.6226 48.378 82.218 C.3 0.0 **** -0.053
18 C30972 49.3635 46.1374 65.5488 C.2 0.0 **** 0.0
19 C30963 51.8795 46.0125 65.38 C.2 0.0 **** 0.042
20 H31153 42.9881 41.3462 54.2479 H 0.0 **** 0.053
21 C30941 63.9408 49.7655 74.4002 C.3 0.0 **** -0.106
22 H31104 50.5087 43.8044 62.1303 H 0.0 **** 0.053
23 H31118 45.1995 49.015 75.1797 H 0.0 **** 0.053
24 H31129 49.0478 42.4548 60.9781 H 0.0 **** 0.053
25 C31017 42.8404 45.9687 62.7772 C.2 0.0 **** 0.0
26 C30956 53.5503 47.4223 69.974 C.2 0.0 **** 0.0
27 H31135 59.8737 43.71 73.1965 H 0.0 **** 0.053
28 O30990 47.6895 49.2188 72.0715 O.3 0.0 **** -0.202
29 C30965 50.84 46.8308 67.4161 C.2 0.0 **** 0.0
30 C30940 61.3648 51.4022 76.7853 C.2 0.0 **** -0.1268
31 H31122 45.0761 47.9226 68.2231 H 0.0 **** 0.1268
32 C30931 54.0947 48.9674 73.8555 C.2 0.0 **** 0.232
33 H31056 60.6835 47.9073 83.2101 H 0.0 **** 0.053
34 H31069 58.5434 51.7402 81.6023 H 0.0 **** 0.053
35 C30995 46.907 47.778 74.6104 C.3 0.0 **** -0.106
36 H31109 50.7918 41.9663 59.8465 H 0.0 **** 0.053
37 H31054 61.3541 46.5008 81.4216 H 0.0 **** 0.053
38 H31098 55.2894 44.7879 62.6162 H 0.0 **** 0.053
39 H31101 55.1848 42.2644 61.8898 H 0.0 **** 0.053
40 C30962 53.147 46.1125 65.9219 C.2 0.0 **** 0.0
41 O30993 50.1661 49.2353 73.3961 O.3 0.0 **** -0.202
42 H31145 36.6155 46.2319 58.4886 H 0.0 **** 0.1268
43 C30950 58.9633 48.4949 73.8247 C.2 0.0 **** -0.1268
44 C31050 41.6737 42.9121 54.8034 C.2 0.0 **** 0.347
45 C31045 41.866 43.5683 56.1325 C.2 0.0 **** 0.052
46 C31036 39.9084 45.3176 58.8695 C.2 0.0 **** 0.0
47 H31059 57.7909 48.3438 83.5299 H 0.0 **** 0.053
48 H31150 44.4927 41.8939 56.2402 H 0.0 **** 0.053
49 C30949 57.75 48.2257 73.2405 C.2 0.0 **** -0.012
50 C31013 47.0712 43.011 60.2627 C.3 0.0 **** -0.106
51 C30933 56.518 48.6682 73.8267 C.2 0.0 **** 0.0
52 H31116 46.5154 47.4894 73.6237 H 0.0 **** 0.053
53 C31027 40.4867 46.7202 62.8593 C.2 0.0 **** 0.0
54 H31105 50.6444 45.5128 61.717 H 0.0 **** 0.053
55 C31011 45.1978 45.3495 62.623 C.2 0.0 **** 0.0
56 C30996 46.2832 49.1165 75.0214 C.3 0.0 **** -0.106
57 H31125 46.5186 45.6973 61.0275 H 0.0 **** 0.053
58 C30984 51.0764 44.1308 60.0808 C.3 0.0 **** -0.106
59 C31012 45.8761 43.6613 60.95 C.3 0.0 **** -0.053
60 C31042 38.4665 45.0268 56.9286 C.2 0.0 **** -0.1268
61 C30998 47.2443 47.6444 68.2872 C.2 0.0 **** 0.0
62 C30938 62.6368 50.0865 75.0755 C.2 0.0 **** 0.0
63 C31001 45.8145 47.0145 66.4361 C.2 0.0 **** 0.042
64 C30928 54.223 51.9019 78.5627 C.3 0.0 **** -0.106
65 H31117 46.714 49.4296 75.9879 H 0.0 **** 0.053
66 C30932 55.2373 48.4981 73.1826 C.2 0.0 **** 0.0
67 C30909 58.1242 48.217 82.4903 C.3 0.0 **** 0.054
68 H31064 62.3073 49.5343 82.9972 H 0.0 **** 0.053
69 H31128 46.751 42.2355 59.5524 H 0.0 **** 0.053
70 O30975 51.807 45.69 64.042 O.3 0.0 **** -0.202
71 C30979 54.9982 43.9578 63.2825 C.3 0.0 **** -0.106
72 C31046 43.1246 43.4814 56.7428 C.2 0.0 **** 0.0
73 H31148 45.2966 43.0625 58.3252 H 0.0 **** 0.1268
74 C30942 63.7003 48.8778 73.1757 C.3 0.0 **** -0.106
75 C31030 40.1094 45.7839 60.2024 C.2 0.0 **** 0.0
76 H31080 64.4577 50.6976 74.1212 H 0.0 **** 0.053
77 H31089 63.3518 46.5006 71.8628 H 0.0 **** 0.053
78 C31033 37.769 46.5527 60.265 C.2 0.0 **** -0.1268
79 C31049 42.9086 42.4315 54.0514 C.3 0.0 **** -0.086
80 C30968 51.1266 47.8497 70.0958 C.2 0.0 **** 0.0
81 C30943 62.8779 47.6774 73.5755 C.2 0.0 **** 0.0
82 C31041 39.4865 44.4053 56.2387 C.2 0.0 **** -0.1268
83 C30969 51.2724 48.3522 71.4235 C.2 0.0 **** 0.0
84 C30913 61.4756 50.6381 81.3329 C.3 0.0 **** -0.106
85 H31102 53.8683 43.7295 60.6033 H 0.0 **** 0.053
86 H31066 59.2358 52.5642 78.0713 H 0.0 **** 0.053
87 H31057 59.3343 49.9581 82.9252 H 0.0 **** 0.053
88 H31067 57.7343 52.7773 79.7731 H 0.0 **** 0.053
89 H31060 58.7192 49.1065 80.0883 H 0.0 **** 0.053
90 H31136 59.0523 44.9924 74.1125 H 0.0 **** 0.053
91 C30959 52.1288 46.9132 68.0227 C.2 0.0 **** 0.0
92 O31051 40.5704 42.6814 54.3059 O.2 0.0 **** -0.419
93 H31068 57.1819 50.6477 81.3144 H 0.0 **** 0.053
94 C30977 53.9405 44.4378 64.2838 C.3 0.0 **** -0.053
95 H31110 51.9395 41.887 61.7811 H 0.0 **** 0.353
96 C30925 55.3897 49.762 75.7053 C.2 0.0 **** 0.232
97 C30980 54.4156 42.8052 62.4579 C.3 0.0 **** -0.106
98 C30987 50.0764 48.7858 72.0977 C.2 0.0 **** 0.042
99 C30992 48.9198 49.299 74.1166 C.3 0.0 **** 0.107
100 H31142 39.8907 47.6663 64.7233 H 0.0 **** 0.1268
101 C30966 52.588 48.4046 72.0261 C.2 0.0 **** 0.0
102 C30912 60.4712 50.3959 80.2191 C.3 0.0 **** 0.107
103 H31108 52.1853 42.6093 58.9666 H 0.0 **** 0.053
104 H31140 55.8114 46.7532 65.5481 H 0.0 **** 0.41
105 H31097 54.1039 46.5594 64.073 H 0.0 **** 0.053
106 C30918 58.1326 51.0054 80.892 C.3 0.0 **** -0.106
107 C31047 44.3331 42.9614 55.9966 C.3 0.0 **** -0.106
108 C30905 59.177 46.5751 81.1616 C.3 0.0 **** 0.054
109 H31130 47.7771 41.323 61.4537 H 0.0 **** 0.053
110 H31115 46.6269 46.9848 75.319 H 0.0 **** 0.053
111 C30955 54.6798 46.9283 69.2518 C.2 0.0 **** 0.0
112 C31023 61.5786 42.8084 75.1365 C.3 0.0 **** -0.159
113 C30991 47.8997 50.0219 73.2532 C.3 0.0 **** 0.107
114 H31152 44.1376 44.1973 54.2446 H 0.0 **** 0.053
115 C30973 48.2397 46.6193 66.2844 C.2 0.0 **** 0.0
116 C30974 48.4006 47.183 67.5752 C.2 0.0 **** 0.0
117 C31000 46.9409 46.5142 65.7123 C.2 0.0 **** 0.0
118 H31077 62.4159 52.2179 75.1039 H 0.0 **** 0.053
119 C31015 47.8895 43.1033 62.691 C.3 0.0 **** -0.106
120 H31092 56.8046 46.5249 69.3037 H 0.0 **** 0.1268
121 O31006 44.5434 46.9472 65.8862 O.3 0.0 **** -0.0685
122 C30945 61.1591 46.657 75.0882 C.3 0.0 **** -0.106
123 C31022 59.5872 44.0353 74.2085 C.3 0.0 **** -0.159
124 C30957 53.725 47.9221 71.2939 C.2 0.0 **** 0.0
125 C30997 46.5521 50.1992 73.9561 C.3 0.0 **** -0.106
126 C30936 59.0812 49.1882 75.067 C.2 0.0 **** 0.0
127 H31082 64.6528 48.5529 72.7287 H 0.0 **** 0.053
128 H31121 46.5452 48.5344 70.1177 H 0.0 **** 0.1268
129 C31031 39.0336 46.4057 60.9147 C.2 0.0 **** 0.0
130 H31053 58.5807 46.9456 80.3038 H 0.0 **** 0.053
131 H31112 49.149 49.9189 74.995 H 0.0 **** 0.053
132 C30935 60.3187 49.5581 75.5973 C.2 0.0 **** 0.0
133 H31079 61.3883 52.1503 77.5759 H 0.0 **** 0.1268
134 C30951 55.0356 47.9513 71.8896 C.2 0.0 **** 0.0
135 H31131 48.793 42.937 63.2968 H 0.0 **** 0.053
136 C30948 63.2031 46.3535 72.9481 C.3 0.0 **** -0.106
137 H31100 53.9526 42.0696 63.1403 H 0.0 **** 0.053
138 H31099 55.9037 43.6568 63.8244 H 0.0 **** 0.053
139 C30983 51.1087 44.5305 61.555 C.3 0.0 **** -0.106
140 C31025 41.9504 47.1027 64.7814 C.2 0.0 **** -0.1268
141 C30981 53.3497 43.3341 61.4934 C.3 0.0 **** 0.134
142 H31111 48.3187 50.9906 72.9335 H 0.0 **** 0.053
143 O31024 55.5942 45.8373 65.3154 O.3 0.0 **** -0.57
144 C31010 46.3417 44.8854 61.7609 C.3 0.0 **** -0.053
145 H31074 54.4771 52.8178 78.005 H 0.0 **** 0.053
146 C31040 40.7641 44.1995 56.8294 C.2 0.0 **** 0.0
147 H31143 38.4246 47.3367 62.7633 H 0.0 **** 0.1268
148 C30947 62.1169 45.3106 73.2109 C.3 0.0 **** -0.106
149 C30923 57.8412 49.64 75.7043 C.2 0.0 **** 0.0
150 C31039 42.4354 44.9925 60.121 C.2 0.0 **** 0.0
151 C30919 56.6347 51.2686 78.8365 C.2 0.0 **** 0.0
152 H31123 49.9378 45.0722 63.7755 H 0.0 **** 0.1268
153 C30988 48.84 48.762 71.4709 C.2 0.0 **** 0.042
154 C30985 51.6222 42.685 59.9122 C.3 0.0 **** 0.081
155 C30954 55.9585 46.9228 69.8687 C.2 0.0 **** -0.1268
156 C31008 45.4179 45.878 63.8979 C.2 0.0 **** 0.0
157 C31043 44.5096 43.6379 58.8053 C.2 0.0 **** -0.1268
158 C30967 52.8282 48.9244 73.3148 C.2 0.0 **** -0.1268
159 H31151 45.0653 42.7073 53.9685 H 0.0 **** 0.053
160 C30982 52.5437 44.5276 62.1077 C.3 0.0 **** -0.053
161 O30930 54.1658 49.5039 75.1182 O.3 0.0 **** -0.464
162 H31107 50.0515 44.1994 59.6826 H 0.0 **** 0.053
163 H31085 60.0925 46.676 74.8171 H 0.0 **** 0.053
164 C31032 39.2468 46.8579 62.2268 C.2 0.0 **** -0.1268
165 H31078 63.464 51.5832 76.3463 H 0.0 **** 0.053
166 C31007 44.3492 46.4266 64.6273 C.2 0.0 **** 0.0265
167 S30953 57.7668 47.2599 71.7815 S.2 0.0 **** 0.024
168 H31063 62.3711 51.1254 80.9214 H 0.0 **** 0.053
169 H31114 48.8952 47.6611 75.5165 H 0.0 **** 0.053
170 H31146 39.3211 44.0503 55.2272 H 0.0 **** 0.1268
171 C30964 50.6845 46.3116 66.1002 C.2 0.0 **** 0.0
172 C31003 46.7468 45.9144 64.459 C.2 0.0 **** 0.0
173 C30920 56.6248 50.6715 77.586 C.2 0.0 **** 0.0
174 H31088 62.4496 44.3157 72.8773 H 0.0 **** 0.053
175 H31061 60.9023 49.6601 79.513 H 0.0 **** 0.053
176 C30978 54.2307 45.8186 64.8894 C.3 0.0 **** 0.107
177 C30994 48.4452 47.8933 74.5401 C.3 0.0 **** -0.106
178 H31124 48.4865 44.9406 61.8119 H 0.0 **** 0.053
179 C30921 57.8482 50.3035 76.9188 C.2 0.0 **** 0.0
180 C31005 49.1083 45.4873 64.3259 C.2 0.0 **** -0.1268
181 C30952 56.1401 47.4139 71.1363 C.2 0.0 **** -0.012
182 H31086 62.7043 45.1754 75.2622 H 0.0 **** 0.053
183 H31093 55.404 46.0458 67.4501 H 0.0 **** 0.1268
184 O30915 60.2924 51.6383 79.5213 O.3 0.0 **** -0.32
185 C31018 43.0508 46.5002 64.0884 C.2 0.0 **** 0.0
186 C30934 60.3352 50.5318 76.6859 C.2 0.0 **** 0.0
187 H31090 64.1776 45.9908 73.3296 H 0.0 **** 0.053
188 C30958 52.2705 47.3946 69.3603 C.2 0.0 **** 0.0
189 C31028 41.5665 46.0944 62.1564 C.2 0.0 **** 0.0
190 H31113 48.8458 47.1664 73.8188 H 0.0 **** 0.053
191 C31004 47.8436 45.3683 63.7796 C.2 0.0 **** 0.0
192 N30986 52.5003 42.2459 61.0074 N.3 0.0 **** -0.727
193 H31084 61.1737 46.7694 76.1871 H 0.0 **** 0.053
194 H31062 61.0293 51.3403 82.0555 H 0.0 **** 0.053
195 H31091 59.8759 48.203 73.3055 H 0.0 **** 0.1268
196 H31096 53.9103 43.7209 65.1197 H 0.0 **** 0.053
197 C31016 43.9101 45.3547 62.066 C.2 0.0 **** 0.0
198 C30924 56.5884 49.3496 75.0478 C.2 0.0 **** 0.0
199 H31083 63.1639 49.4622 72.4034 H 0.0 **** 0.053
200 C31037 40.9692 44.6816 58.1563 C.2 0.0 **** 0.0
201 C31026 40.7219 47.2018 64.1897 C.2 0.0 **** -0.1268
202 C31044 43.303 43.89 58.101 C.2 0.0 **** 0.0
203 C31020 43.6836 44.8149 60.7528 C.2 0.0 **** 0.0
204 H31144 36.9556 47.0288 60.8155 H 0.0 **** 0.1268
205 C30976 52.535 44.4969 63.635 C.3 0.0 **** 0.107
206 H31138 61.9401 42.5434 74.1301 H 0.0 **** 0.053
207 C30946 61.7593 45.3006 74.7013 C.3 0.0 **** -0.053
208 H31070 59.2841 49.527 78.2021 H 0.0 **** 0.053
209 H31087 61.2185 45.5695 72.6271 H 0.0 **** 0.053
210 H31055 60.8054 47.6334 80.1771 H 0.0 **** 0.053
211 H31137 62.4509 42.8592 75.8071 H 0.0 **** 0.053
212 H31126 45.4747 42.9303 61.6807 H 0.0 **** 0.053
213 C31038 42.2318 44.5185 58.7936 C.2 0.0 **** 0.0
214 C31014 48.0084 42.3921 61.3298 C.3 0.0 **** -0.106
215 C30906 60.5741 47.2387 81.1791 C.3 0.0 **** -0.106
216 H31139 60.9259 41.9915 75.4801 H 0.0 **** 0.053
217 H31095 51.9379 43.6277 63.9691 H 0.0 **** 0.053
218 C30970 49.6918 47.2621 68.1602 C.2 0.0 **** 0.0
219 H31071 53.3071 50.9735 76.8148 H 0.0 **** 0.053
220 H31072 53.6745 49.859 78.1292 H 0.0 **** 0.053
221 C31019 44.6957 44.0538 60.1045 C.2 0.0 **** 0.0
222 C31035 38.6393 45.4848 58.254 C.2 0.0 **** 0.0
223 C30917 57.8837 51.7089 79.5255 C.3 0.0 **** -0.053
224 C30944 61.8867 47.836 74.4845 C.2 0.0 **** 0.0
225 H31127 47.6019 43.782 59.6786 H 0.0 **** 0.053
226 C31002 45.9508 47.558 67.6834 C.2 0.0 **** -0.1268
227 C30971 49.8443 47.7784 69.4734 C.2 0.0 **** 0.0
228 H31065 62.6069 48.7865 81.427 H 0.0 **** 0.053
229 H31081 64.6032 49.2381 75.1165 H 0.0 **** 0.053
230 C31029 41.3684 45.6301 60.829 C.2 0.0 **** 0.0
231 H31147 37.4983 45.1733 56.4451 H 0.0 **** 0.1268
232 C30989 48.6804 48.235 70.1632 C.2 0.0 **** 0.0
233 C31034 37.5816 46.1104 58.9822 C.2 0.0 **** -0.1268
234 H31094 52.021 49.3148 73.9169 H 0.0 **** 0.1268
235 C30929 55.3508 51.5886 79.549 C.3 0.0 **** -0.106
236 C31009 47.68 44.6147 62.4864 C.3 0.0 **** -0.053
237 H31106 51.6909 44.8395 59.5028 H 0.0 **** 0.053
238 C30911 59.1284 49.8536 80.787 C.3 0.0 **** -0.053
239 C30960 53.2952 46.4862 67.2906 C.2 0.0 **** 0.0
240 C30922 59.166 50.4758 77.6404 C.3 0.0 **** -0.053
241 H31052 59.2484 45.4822 81.0768 H 0.0 **** 0.053
242 H31134 58.8822 43.2917 74.6094 H 0.0 **** 0.053
243 O30910 58.4646 46.8299 82.3771 O.3 0.0 **** -0.32
244 H31103 53.0399 45.467 61.8105 H 0.0 **** 0.053
245 C30961 54.5347 46.4633 67.9485 C.2 0.0 **** -0.1268
246 C30916 59.1481 51.6336 78.651 C.3 0.0 **** 0.107
247 C30908 59.3043 49.1667 82.1578 C.3 0.0 **** -0.053
248 C30937 61.6114 49.187 75.0249 C.2 0.0 **** 0.0
249 C30926 55.3675 50.3793 76.9252 C.2 0.0 **** 0.0
250 C31048 44.189 43.1235 54.4883 C.3 0.0 **** -0.106
@<TRIPOS>BOND
1 45 44 1
2 116 115 un
3 115 117 un
4 224 81 2
5 189 53 1
6 30 9 1
7 17 215 1
8 247 17 1
9 67 247 1
10 243 67 1
11 108 215 1
12 108 243 1
13 102 238 1
14 84 102 1
15 16 84 1
16 247 238 1
17 17 16 1
18 246 184 1
19 223 246 1
20 106 223 1
21 102 184 1
22 238 106 1
23 173 151 un
24 179 173 un
25 240 179 un
26 223 151 1
27 246 240 1
28 198 149 1
29 96 198 un
30 249 96 un
31 179 149 un
32 173 249 un
33 64 8 1
34 235 64 1
35 151 235 1
36 249 8 1
37 32 161 1
38 66 32 un
39 51 66 un
40 96 161 1
41 198 51 un
42 132 186 un
43 126 132 2
44 240 186 1
45 149 126 un
46 62 248 2
47 9 62 1
48 132 248 1
49 186 30 2
50 74 21 1
51 81 74 1
52 62 21 1
53 248 224 1
54 207 122 1
55 148 207 1
56 136 148 1
57 224 122 1
58 81 136 1
59 43 49 un
60 126 43 un
61 51 49 un
62 181 134 un
63 167 181 1
64 49 167 un
65 66 134 un
66 111 155 un
67 26 111 un
68 124 26 un
69 181 155 un
70 134 124 un
71 91 188 un
72 239 91 un
73 245 239 un
74 26 188 un
75 111 245 un
76 19 40 un
77 171 19 un
78 29 171 un
79 239 40 un
80 91 29 un
81 158 101 un
82 32 158 un
83 124 101 un
84 83 80 un
85 101 83 un
86 188 80 un
87 227 218 un
88 80 227 un
89 29 218 un
90 115 18 un
91 218 116 un
92 171 18 un
93 205 70 1
94 94 205 1
95 176 94 1
96 19 70 1
97 40 176 1
98 97 71 1
99 141 97 1
100 160 141 1
101 94 71 1
102 205 160 1
103 58 139 1
104 154 58 1
105 192 154 1
106 160 139 1
107 141 192 1
108 153 98 un
109 232 153 un
110 227 232 un
111 83 98 un
112 113 28 1
113 99 113 1
114 41 99 1
115 153 28 1
116 98 41 1
117 35 177 1
118 56 35 1
119 125 56 1
120 99 177 1
121 113 125 1
122 12 61 un
123 232 12 un
124 116 61 un
125 63 117 un
126 226 63 un
127 61 226 un
128 191 172 un
129 180 191 un
130 18 180 un
131 117 172 un
132 166 121 1
133 156 166 un
134 63 121 1
135 172 156 1
136 144 236 1
137 55 144 1
138 191 236 1
139 156 55 un
140 50 59 1
141 214 50 1
142 119 214 1
143 144 59 1
144 236 119 1
145 25 197 1
146 185 25 1
147 166 185 un
148 55 197 un
149 59 221 1
150 197 203 un
151 221 203 un
152 207 5 1
153 5 123 1
154 5 112 1
155 176 143 1
156 201 140 1
157 53 201 un
158 185 140 un
159 25 189 un
160 75 230 un
161 129 75 1
162 164 129 un
163 189 230 un
164 53 164 un
165 233 78 un
166 222 233 1
167 46 222 1
168 129 78 un
169 75 46 un
170 213 200 un
171 150 213 un
172 230 150 un
173 46 200 un
174 82 146 un
175 60 82 un
176 222 60 un
177 200 146 un
178 202 157 un
179 213 202 un
180 203 150 un
181 221 157 un
182 72 45 un
183 202 72 un
184 146 45 un
185 250 107 1
186 79 250 1
187 44 79 1
188 72 107 1
189 44 92 2
190 108 241 1
191 108 130 1
192 215 37 1
193 215 210 1
194 17 33 1
195 247 87 1
196 67 7 1
197 67 47 1
198 238 89 1
199 102 175 1
200 84 194 1
201 84 168 1
202 16 68 1
203 16 228 1
204 246 86 1
205 223 88 1
206 106 93 1
207 106 34 1
208 240 208 1
209 8 219 1
210 8 220 1
211 64 14 1
212 64 145 1
213 235 3 1
214 235 4 1
215 9 118 1
216 9 165 1
217 30 133 1
218 21 76 1
219 21 229 1
220 74 127 1
221 74 199 1
222 122 193 1
223 122 163 1
224 207 182 1
225 148 209 1
226 148 174 1
227 136 77 1
228 136 187 1
229 43 195 1
230 155 120 1
231 245 183 1
232 158 234 1
233 205 217 1
234 94 196 1
235 176 105 1
236 71 38 1
237 71 138 1
238 97 137 1
239 97 39 1
240 141 85 1
241 160 244 1
242 139 22 1
243 139 54 1
244 58 237 1
245 58 162 1
246 154 103 1
247 154 36 1
248 192 95 1
249 113 142 1
250 99 131 1
251 177 190 1
252 177 169 1
253 35 110 1
254 35 52 1
255 56 65 1
256 56 23 1
257 125 1 1
258 125 10 1
259 12 128 1
260 226 31 1
261 180 152 1
262 236 178 1
263 144 57 1
264 59 212 1
265 50 225 1
266 50 69 1
267 214 24 1
268 214 109 1
269 119 135 1
270 119 11 1
271 5 6 1
272 123 242 1
273 123 27 1
274 123 90 1
275 112 211 1
276 112 206 1
277 112 216 1
278 143 104 1
279 140 15 1
280 201 100 1
281 164 147 1
282 78 204 1
283 233 42 1
284 82 170 1
285 60 231 1
286 157 73 1
287 107 13 1
288 107 48 1
289 250 159 1
290 250 114 1
291 79 20 1
292 79 2 1
@<TRIPOS>MOLECULE
Sketch 4
130 142
SMALL
USER_CHARGES


@<TRIPOS>ATOM
1 C8380 17.0825 -6.34254 9.73911 C.3 0.0 **** -0.159
2 O8384 22.062 -0.39417 15.0259 O.3 0.0 **** -0.452
3 C8341 20.6002 -1.01119 13.2194 C.ar 0.0 **** 0.0
4 C8365 23.1299 8.97722 17.9789 C.3 0.0 **** -0.106
5 H8428 13.2815 -2.51716 4.18938 H 0.0 **** 0.053
6 H8434 16.746 -6.92127 8.87152 H 0.0 **** 0.053
7 O8386 18.1184 3.35595 12.5511 O.2 0.0 **** -0.419
8 H8390 16.9923 -0.239378 8.48215 H 0.0 **** 0.053
9 C8326 14.1732 1.30913 6.01446 C.ar 0.0 **** 0.0
10 C8373 25.1374 5.16712 20.5792 C.ar 0.0 **** 0.0
11 C8340 21.1826 -2.31818 13.0993 C.2 0.0 **** 0.0
12 C8372 25.0466 3.82688 21.0109 C.ar 0.0 **** 0.0
13 C8357 21.069 6.03917 15.64 C.ar 0.0 **** 0.0
14 C8343 22.6105 -2.63891 13.476 C.3 0.0 **** -0.106
15 H8416 14.0175 3.41384 6.44168 H 0.0 **** 0.053
16 O8387 22.2111 1.88759 15.8207 O.2 0.0 **** -0.419
17 H8401 18.6319 5.54293 13.2381 H 0.0 **** 0.053
18 C8335 17.8244 -1.45045 10.6906 C.ar 0.0 **** -0.1268
19 C8348 19.5928 1.65058 13.2969 C.ar 0.0 **** 0.052
20 C8342 19.4815 -0.66826 12.4047 C.ar 0.0 **** 0.0
21 C8366 23.0193 7.56672 18.5566 C.3 0.0 **** -0.053
22 C8375 15.1839 3.17392 4.6296 C.3 0.0 **** -0.159
23 C8363 21.4177 8.49007 16.1991 C.3 0.0 **** -0.106
24 H8427 12.5365 -2.96497 5.73222 H 0.0 **** 0.053
25 H8412 25.0896 7.08175 18.1971 H 0.0 **** 0.053
26 H8396 22.6452 -3.39458 14.2827 H 0.0 **** 0.053
27 H8432 13.8842 -5.18733 7.74225 H 0.0 **** 0.053
28 H8449 25.6837 2.2382 22.323 H 0.0 **** 0.053
29 H8445 26.7158 6.64349 20.4157 H 0.0 **** 0.053
30 H8440 25.2456 -2.27965 12.6979 H 0.0 **** 0.053
31 C8330 14.4459 -2.805 7.32839 C.3 0.0 **** -0.106
32 C8388 26.1428 6.11424 21.1923 C.3 0.0 **** -0.159
33 C8337 19.2374 -3.07411 11.8112 C.ar 0.0 **** 0.0
34 H8413 24.7599 7.71935 19.8106 H 0.0 **** 0.053
35 C8378 12.7482 -2.11656 5.06971 C.3 0.0 **** -0.159
36 H8430 14.7295 -6.45081 8.64557 H 0.0 **** 0.053
37 C8345 22.6756 -4.52138 11.7749 C.ar 0.0 **** -0.053
38 C8324 15.0986 -0.370469 7.5141 C.ar 0.0 **** 0.0
39 C8353 19.7109 3.96818 14.1968 C.ar 0.0 **** 0.0
40 C8356 20.2879 6.37865 14.3986 C.3 0.0 **** -0.106
41 H8423 11.6496 0.900924 4.32106 H 0.0 **** 0.053
42 C8339 20.4953 -3.3339 12.4483 C.2 0.0 **** 0.0
43 H8393 14.6158 -3.45764 6.45528 H 0.0 **** 0.053
44 H8446 26.8565 5.59264 21.8403 H 0.0 **** 0.053
45 H8398 22.6064 -4.5078 10.6757 H 0.0 **** 0.053
46 H8431 15.3508 -5.91484 7.07188 H 0.0 **** 0.053
47 H8407 21.0134 9.33716 18.1497 H 0.0 **** 0.053
48 C8383 24.8419 -3.27519 12.461 C.3 0.0 **** -0.159
49 H8418 15.2176 2.52223 3.74314 H 0.0 **** 0.053
50 C8328 16.198 -2.14032 8.99806 C.ar 0.0 **** 0.0
51 O8385 17.9969 1.09472 11.665 O.3 0.0 **** -0.452
52 H8415 24.0671 1.93104 20.7196 H 0.0 **** 0.1268
53 C8338 18.3919 -4.09532 11.3105 C.ar 0.0 **** 0.042
54 H8424 16.8795 1.78699 7.78893 H 0.0 **** 0.053
55 H8392 13.4485 -3.10969 7.70195 H 0.0 **** 0.053
56 N8359 21.9845 4.28671 17.0309 N.ar 0.0 **** -0.481
57 H8409 23.4499 9.67722 18.7669 H 0.0 **** 0.053
58 H8420 15.063 4.21488 4.2916 H 0.0 **** 0.053
59 C8382 23.4454 -5.781 12.1848 C.3 0.0 **** -0.159
60 C8358 21.2822 4.67492 15.9571 C.ar 0.0 **** 0.2405
61 H8433 18.1702 -6.45724 9.81679 H 0.0 **** 0.053
62 C8374 14.0411 2.74929 5.56548 C.3 0.0 **** -0.106
63 C8349 20.6505 1.28884 14.1634 C.ar 0.0 **** 0.052
64 C8344 23.3311 -3.19193 12.2301 C.ar 0.0 **** -0.053
65 H8414 22.6121 2.7383 18.8515 H 0.0 **** 0.1268
66 H8421 12.6434 -0.230557 3.38586 H 0.0 **** 0.053
67 H8408 21.8239 10.448 17.033 H 0.0 **** 0.053
68 C8325 14.9968 0.974188 7.1044 C.ar 0.0 **** 0.0
69 C8354 19.0947 2.99828 13.3036 C.2 0.0 **** 0.367
70 C8362 21.6205 7.01734 16.4837 C.ar 0.0 **** 0.0
71 H8437 24.4404 -5.82529 11.7211 H 0.0 **** 0.053
72 C8346 21.2301 -4.64906 12.3287 C.3 0.0 **** -0.106
73 C8367 24.3718 7.03959 19.0394 C.3 0.0 **** -0.106
74 H8447 25.6443 6.88754 21.8015 H 0.0 **** 0.053
75 H8410 23.9109 8.98495 17.1982 H 0.0 **** 0.053
76 O8381 18.4554 -5.36113 11.8488 O.3 0.0 **** -0.452
77 H8406 20.3706 8.67306 15.9121 H 0.0 **** 0.053
78 C8355 19.1665 5.36688 14.1801 C.3 0.0 **** -0.106
79 C8368 24.2878 5.62425 19.5547 C.ar 0.0 **** 0.0
80 H8404 20.9676 6.36334 13.5255 H 0.0 **** 0.053
81 C8364 21.7932 9.40161 17.3725 C.3 0.0 **** -0.106
82 C8347 19.0038 0.693412 12.4365 C.ar 0.0 **** 0.042
83 H8419 16.1544 3.08448 5.14005 H 0.0 **** 0.053
84 H8417 13.078 2.89994 5.05879 H 0.0 **** 0.053
85 H8435 16.6541 -6.79858 10.6454 H 0.0 **** 0.053
86 C8329 15.4739 -3.13469 8.37936 C.ar 0.0 **** 0.0
87 H8441 25.3644 -3.65188 11.5686 H 0.0 **** 0.053
88 C8321 13.49 0.289353 5.31601 C.ar 0.0 **** 0.0
89 H8444 17.8653 2.12216 11.9064 H 0.0 **** 0.41
90 H8402 18.4203 5.46108 14.9913 H 0.0 **** 0.053
91 H8395 23.1409 -1.76186 13.8475 H 0.0 **** 0.053
92 H8443 22.2941 0.521586 15.5267 H 0.0 **** 0.41
93 H8448 26.9907 3.34799 21.8486 H 0.0 **** 0.053
94 H8436 18.9549 -5.3108 12.6793 H 0.0 **** 0.41
95 C8370 23.3037 3.41142 19.3582 C.ar 0.0 **** -0.1268
96 H8405 22.0208 8.76147 15.3139 H 0.0 **** 0.053
97 C8360 22.5485 5.21728 17.8084 C.ar 0.0 **** 0.2405
98 C8323 14.3708 -1.37075 6.86564 C.ar 0.0 **** 0.0
99 H8450 25.7952 3.8618 23.0486 H 0.0 **** 0.053
100 C8352 20.7331 3.63306 15.0626 C.ar 0.0 **** 0.0
101 H8394 17.5233 -0.429006 10.5246 H 0.0 **** 0.1268
102 H8442 25.0821 -3.94485 13.3003 H 0.0 **** 0.053
103 H8422 13.1293 1.46362 3.52364 H 0.0 **** 0.053
104 H8403 19.8706 7.39188 14.4504 H 0.0 **** 0.053
105 C8369 23.3745 4.74562 18.9353 C.ar 0.0 **** 0.0
106 C8376 12.6893 0.622362 4.07486 C.3 0.0 **** -0.159
107 H8438 22.8885 -6.6825 11.886 H 0.0 **** 0.053
108 C8371 24.1248 2.97021 20.3884 C.ar 0.0 **** -0.1268
109 H8411 22.3528 7.61122 19.4415 H 0.0 **** 0.053
110 H8425 15.557 2.00214 8.93122 H 0.0 **** 0.053
111 C8351 21.2522 2.24927 15.0681 C.2 0.0 **** 0.367
112 H8429 11.7844 -1.72873 4.71349 H 0.0 **** 0.053
113 C8322 13.5536 -1.04243 5.76572 C.ar 0.0 **** 0.0
114 C8389 25.9226 3.29004 22.1154 C.3 0.0 **** -0.159
115 H8399 21.3128 -5.09637 13.3384 H 0.0 **** 0.053
116 C8379 14.8773 -5.57001 8.00803 C.3 0.0 **** -0.159
117 H8397 23.1592 -2.4525 11.4307 H 0.0 **** 0.053
118 C8334 17.1709 -2.47537 9.98965 C.ar 0.0 **** 0.0
119 H8426 15.6531 3.02571 7.48057 H 0.0 **** 0.053
120 C8361 22.3883 6.60083 17.5807 C.ar 0.0 **** 0.0
121 H8400 20.7018 -5.36907 11.6965 H 0.0 **** 0.053
122 C8331 15.7108 -4.5145 8.69995 C.ar 0.0 **** 0.0
123 C8350 21.1324 -0.0368909 14.1484 C.ar 0.0 **** 0.042
124 C8333 17.4291 -3.8572 10.2988 C.ar 0.0 **** 0.0
125 H8391 15.6402 -0.159157 9.57167 H 0.0 **** 0.053
126 C8377 15.8015 2.00818 7.85625 C.3 0.0 **** -0.159
127 H8439 23.5776 -5.817 13.2781 H 0.0 **** 0.053
128 C8332 16.7068 -4.88416 9.59821 C.ar 0.0 **** 0.0
129 C8336 18.8422 -1.69974 11.6097 C.ar 0.0 **** 0.0
130 C8327 16.0017 -0.689529 8.66914 C.3 0.0 **** -0.106
@<TRIPOS>BOND
1 128 122 am
2 11 42 1
3 51 89 1
4 2 92 1
5 98 113 am
6 38 98 am
7 68 38 am
8 9 68 am
9 88 113 am
10 88 9 am
11 50 130 1
12 86 50 am
13 31 86 1
14 38 130 1
15 98 31 1
16 124 128 am
17 118 124 am
18 86 122 am
19 50 118 am
20 129 18 am
21 33 129 am
22 53 33 am
23 118 18 am
24 124 53 am
25 3 11 1
26 20 3 am
27 33 42 1
28 129 20 am
29 64 14 1
30 37 64 am
31 72 37 1
32 11 14 1
33 42 72 1
34 19 82 am
35 63 19 am
36 123 63 am
37 20 82 am
38 3 123 am
39 100 111 1
40 39 100 am
41 69 39 1
42 63 111 1
43 19 69 1
44 40 78 1
45 13 40 1
46 60 13 am
47 39 78 1
48 100 60 am
49 97 56 am
50 120 97 am
51 70 120 am
52 60 56 am
53 13 70 am
54 81 23 1
55 4 81 1
56 21 4 1
57 70 23 1
58 120 21 1
59 79 73 1
60 105 79 am
61 97 105 am
62 21 73 1
63 108 95 am
64 12 108 am
65 10 12 am
66 105 95 am
67 79 10 am
68 9 62 1
69 62 22 1
70 88 106 1
71 68 126 1
72 113 35 1
73 122 116 1
74 128 1 1
75 53 76 1
76 37 59 1
77 64 48 1
78 123 2 1
79 82 51 1
80 69 7 2
81 111 16 2
82 10 32 1
83 12 114 1
84 130 8 1
85 130 125 1
86 31 55 1
87 31 43 1
88 18 101 1
89 14 91 1
90 14 26 1
91 64 117 1
92 37 45 1
93 72 115 1
94 72 121 1
95 78 17 1
96 78 90 1
97 40 104 1
98 40 80 1
99 23 96 1
100 23 77 1
101 81 47 1
102 81 67 1
103 4 57 1
104 4 75 1
105 21 109 1
106 73 25 1
107 73 34 1
108 95 65 1
109 108 52 1
110 62 15 1
111 62 84 1
112 22 49 1
113 22 83 1
114 22 58 1
115 106 66 1
116 106 103 1
117 106 41 1
118 126 54 1
119 126 110 1
120 126 119 1
121 35 24 1
122 35 5 1
123 35 112 1
124 116 36 1
125 116 46 1
126 116 27 1
127 1 61 1
128 1 6 1
129 1 85 1
130 76 94 1
131 59 71 1
132 59 107 1
133 59 127 1
134 48 30 1
135 48 87 1
136 48 102 1
137 32 29 1
138 32 44 1
139 32 74 1
140 114 93 1
141 114 28 1
142 114 99 1
@<TRIPOS>MOLECULE
Sketch 4
250 292
SMALL
USER_CHARGES


@<TRIPOS>ATOM
1 H15398 22.5701 23.2674 57.3981 H 0.0 **** 0.1268
2 H15313 34.7932 20.2101 84.0136 H 0.0 **** 0.053
3 C15284 17.6604 29.9711 56.9547 C.2 0.0 **** -0.1268
4 C15300 20.4478 25.1934 53.2343 C.2 0.0 **** 0.347
5 H15343 29.9915 20.0726 68.7577 H 0.0 **** 0.1268
6 H15389 30.3317 13.4539 76.9728 H 0.0 **** 0.053
7 C15288 20.6919 26.1309 57.4622 C.2 0.0 **** 0.0
8 H15339 35.5734 16.0474 74.7146 H 0.0 **** 0.053
9 H15312 33.5119 21.0813 84.8693 H 0.0 **** 0.053
10 H15399 23.2526 23.7261 55.5427 H 0.0 **** 0.053
11 C15191 37.0733 18.4063 77.818 C.3 0.0 **** -0.106
12 H15375 24.2206 24.75 60.6869 H 0.0 **** 0.053
13 C15168 31.2748 22.3933 83.0999 C.3 0.0 **** -0.106
14 C15260 23.4678 24.1407 61.2257 C.3 0.0 **** -0.053
15 C15261 22.5472 25.123 61.9 C.2 0.0 **** 0.0
16 C15252 22.9817 26.4319 67.2991 C.2 0.0 **** -0.1268
17 H15361 25.3161 27.8959 73.4114 H 0.0 **** 0.053
18 C15297 22.3364 23.7681 54.9373 C.3 0.0 **** -0.106
19 H15351 29.3147 17.1662 62.7279 H 0.0 **** 0.053
20 H15347 30.0714 21.3023 65.3167 H 0.0 **** 0.053
21 C15196 32.9166 15.8135 76.9326 C.3 0.0 **** -0.053
22 C15299 21.4056 24.145 52.6822 C.3 0.0 **** -0.086
23 C15248 23.9263 25.7904 68.1603 C.2 0.0 **** 0.0
24 H15353 29.2286 21.0205 62.7371 H 0.0 **** 0.053
25 C15282 18.5617 29.6104 60.5487 C.2 0.0 **** -0.1268
26 C15251 22.9154 26.0834 65.9785 C.2 0.0 **** 0.042
27 H15402 23.2677 24.9642 53.4085 H 0.0 **** 0.053
28 H15392 18.8542 29.8726 63.2219 H 0.0 **** 0.1268
29 C15209 27.6115 22.551 68.7832 C.2 0.0 **** 0.0
30 C15185 33.6948 20.1487 78.1995 C.2 0.0 **** 0.0
31 H15314 33.3831 18.8453 85.7439 H 0.0 **** 0.053
32 C15207 28.5838 22.4468 72.4315 C.2 0.0 **** 0.0
33 C15280 19.2412 28.2994 58.5953 C.2 0.0 **** 0.0
34 H15317 32.1513 24.1319 82.2283 H 0.0 **** 0.053
35 H15371 23.3363 26.864 69.9297 H 0.0 **** 0.1268
36 C15273 31.3745 13.8 76.9081 C.3 0.0 **** -0.159
37 C15241 24.3925 27.2969 73.4759 C.3 0.0 **** 0.107
38 H15323 28.331 25.9711 80.5527 H 0.0 **** 0.053
39 H15364 23.4037 24.7079 75.4776 H 0.0 **** 0.053
40 C15291 19.0544 27.5879 54.4171 C.2 0.0 **** -0.1268
41 H15366 21.8627 25.8997 73.1366 H 0.0 **** 0.053
42 C15235 27.1334 19.4962 60.1602 C.3 0.0 **** 0.081
43 C15205 29.3846 21.1542 70.4931 C.2 0.0 **** 0.0
44 H15318 30.204 22.5921 83.2548 H 0.0 **** 0.053
45 C15171 31.7151 22.0694 79.0922 C.2 0.0 **** 0.0
46 C15254 24.4185 23.6803 63.5599 C.2 0.0 **** 0.0
47 C15228 29.5818 20.5868 66.0094 C.3 0.0 **** 0.107
48 C15287 19.9095 26.9668 56.6159 C.2 0.0 **** 0.0
49 H15350 27.8821 17.6301 63.6513 H 0.0 **** 0.053
50 H15395 17.0616 30.608 56.3008 H 0.0 **** 0.1268
51 C15212 28.5785 21.3885 66.8327 C.2 0.0 **** 0.0
52 H15320 32.1557 20.6052 80.4971 H 0.0 **** 0.053
53 C15184 33.9258 20.9285 79.4128 C.2 0.0 **** 0.0
54 S15203 31.4201 19.6978 73.6194 S.2 0.0 **** 0.024
55 H15393 17.9963 30.4411 60.9768 H 0.0 **** 0.1268
56 C15247 23.1994 28.152 73.9081 C.3 0.0 **** -0.106
57 C15268 21.0028 27.2066 63.0639 C.2 0.0 **** 0.0
58 H15331 37.1572 17.5849 78.5584 H 0.0 **** 0.053
59 C15181 28.7571 23.0543 75.1503 C.2 0.0 **** 0.232
60 C15283 17.7073 30.2058 58.3034 C.2 0.0 **** -0.1268
61 C15292 18.3607 28.6409 54.9762 C.2 0.0 **** -0.1268
62 H15383 31.0154 15.6678 77.9034 H 0.0 **** 0.053
63 C15226 27.8426 20.4234 64.2362 C.3 0.0 **** 0.107
64 C15195 33.0227 17.2679 77.4053 C.3 0.0 **** -0.106
65 C15193 35.3456 17.2444 76.4633 C.2 0.0 **** 0.0
66 C15277 19.3398 28.8084 61.3899 C.2 0.0 **** 0.0
67 C15186 32.6311 20.5191 77.3744 C.2 0.0 **** 0.0
68 C15279 20.0282 27.4737 59.4322 C.2 0.0 **** 0.0
69 O15274 30.595 19.8558 66.7022 O.3 0.0 **** -0.57
70 H15387 31.9391 13.3536 77.7419 H 0.0 **** 0.053
71 H15330 38.0475 18.9207 77.8067 H 0.0 **** 0.053
72 C15238 24.9769 25.7806 71.7418 C.2 0.0 **** 0.042
73 C15294 21.4245 25.0445 56.9098 C.2 0.0 **** 0.0
74 C15233 27.2352 21.2797 61.9428 C.3 0.0 **** -0.106
75 C15176 29.7248 23.4694 78.6039 C.2 0.0 **** 0.0
76 C15232 28.2628 20.4883 62.7688 C.3 0.0 **** -0.053
77 H15365 21.2535 25.3661 74.713 H 0.0 **** 0.053
78 O15160 29.0133 18.6561 83.918 O.3 0.0 **** -0.32
79 C15289 20.7566 26.3823 58.8625 C.2 0.0 **** 0.0
80 C15216 27.7122 23.4446 72.9848 C.2 0.0 **** 0.0
81 C15208 27.6268 22.8416 70.1819 C.2 0.0 **** 0.0
82 C15213 27.6321 22.0026 66.0343 C.2 0.0 **** 0.042
83 C15204 30.2664 20.443 71.3488 C.2 0.0 **** -0.1268
84 C15179 29.6503 24.4215 81.3307 C.3 0.0 **** -0.106
85 C15199 31.5234 20.4783 75.1821 C.2 0.0 **** -0.012
86 C15229 29.6704 18.6526 64.311 C.3 0.0 **** -0.106
87 H15360 26.4964 18.5998 61.8983 H 0.0 **** 0.353
88 H15377 24.4722 22.5925 59.2929 H 0.0 **** 0.053
89 H15359 26.1024 19.3404 59.8097 H 0.0 **** 0.053
90 H15380 22.8895 20.3767 60.6398 H 0.0 **** 0.053
91 C15169 30.7205 23.4808 80.853 C.2 0.0 **** 0.0
92 C15296 21.4218 24.8356 55.4957 C.2 0.0 **** 0.0
93 C15267 20.8986 26.91 61.6685 C.2 0.0 **** 0.0
94 H15311 33.2057 19.808 82.1146 H 0.0 **** 0.053
95 C15170 30.7307 23.0192 79.5463 C.2 0.0 **** 0.0
96 H15321 28.375 25.0829 78.1737 H 0.0 **** 0.053
97 H15368 21.1668 27.8485 74.619 H 0.0 **** 0.053
98 H15355 27.3186 22.3523 62.1649 H 0.0 **** 0.053
99 H15310 30.9871 20.5014 82.1333 H 0.0 **** 0.053
100 H15306 31.1641 18.344 85.3515 H 0.0 **** 0.053
101 C15155 29.7808 18.0926 82.8488 C.3 0.0 **** 0.054
102 C15220 25.7632 24.1536 68.4751 C.2 0.0 **** 0.0
103 C15210 28.5357 21.5841 68.245 C.2 0.0 **** 0.0
104 H15376 21.775 22.9639 60.6514 H 0.0 **** 0.053
105 H15401 23.3318 23.2178 53.0878 H 0.0 **** 0.053
106 C15211 29.366 20.8782 69.1294 C.2 0.0 **** -0.1268
107 H15333 36.8018 18.6267 75.6824 H 0.0 **** 0.053
108 H15391 20.3042 28.4945 64.6741 H 0.0 **** 0.1268
109 H15400 21.8547 22.7763 55.0304 H 0.0 **** 0.053
110 C15187 34.7095 19.1562 77.8504 C.2 0.0 **** 0.0
111 C15224 24.8194 24.7995 67.6338 C.2 0.0 **** 0.0
112 H15344 27.2248 24.4623 74.8428 H 0.0 **** 0.1268
113 C15217 27.8405 23.7159 74.3627 C.2 0.0 **** -0.1268
114 C15206 28.5275 22.1579 71.0401 C.2 0.0 **** 0.0
115 H15367 22.4075 27.3586 75.7762 H 0.0 **** 0.053
116 H15303 29.707 18.7504 81.9596 H 0.0 **** 0.053
117 C15234 27.3867 21.0028 60.448 C.3 0.0 **** -0.106
118 O15165 33.722 21.8019 82.3216 O.3 0.0 **** -0.32
119 H15348 30.5085 19.2137 63.8631 H 0.0 **** 0.053
120 C15272 30.619 15.9325 75.8064 C.3 0.0 **** -0.159
121 C15262 22.6689 23.3841 60.1478 C.3 0.0 **** -0.053
122 C15253 23.626 24.7115 64.0809 C.2 0.0 **** 0.0
123 C15178 29.1462 25.321 80.1997 C.3 0.0 **** -0.106
124 C15215 26.6735 23.1932 67.921 C.2 0.0 **** 0.0
125 H15307 31.1898 20.8058 85.1364 H 0.0 **** 0.053
126 H15356 28.4037 21.285 60.1315 H 0.0 **** 0.053
127 C15197 33.6017 15.672 75.5688 C.3 0.0 **** -0.106
128 C15276 19.4336 29.0491 62.8008 C.2 0.0 **** -0.1268
129 C15286 19.1839 28.0533 57.1915 C.2 0.0 **** 0.0
130 C15293 22.0978 24.1621 57.7948 C.2 0.0 **** -0.1268
131 H15329 35.387 21.6983 80.7516 H 0.0 **** 0.1268
132 H15374 25.2359 23.0303 61.7221 H 0.0 **** 0.053
133 H15340 35.6048 15.1312 76.2156 H 0.0 **** 0.053
134 H15325 28.7945 23.8483 81.7403 H 0.0 **** 0.053
135 H15362 24.9075 26.4872 75.3954 H 0.0 **** 0.053
136 H15346 28.1816 18.9866 65.8232 H 0.0 **** 0.053
137 C15159 29.4187 20.0042 84.1846 C.3 0.0 **** 0.054
138 C15278 20.0834 27.7199 60.8297 C.2 0.0 **** 0.0
139 C15255 25.3713 23.0835 64.365 C.2 0.0 **** -0.1268
140 H15326 30.0385 25.0219 82.1708 H 0.0 **** 0.053
141 C15158 30.9579 20.1776 84.2601 C.3 0.0 **** -0.053
142 C15242 24.6301 26.1138 74.3994 C.3 0.0 **** 0.107
143 H15337 33.1523 16.3907 74.8642 H 0.0 **** 0.053
144 C15202 30.3376 20.7223 72.6897 C.2 0.0 **** -0.012
145 H15328 37.1119 20.1379 79.8962 H 0.0 **** 0.053
146 H15369 23.5673 29.0011 74.5032 H 0.0 **** 0.053
147 H15386 30.6988 17.0292 75.7609 H 0.0 **** 0.053
148 H15305 31.9118 18.1346 82.4043 H 0.0 **** 0.053
149 C15177 28.6704 24.4592 79.0297 C.3 0.0 **** -0.106
150 C15244 23.4092 25.1738 74.4813 C.3 0.0 **** -0.106
151 H15341 33.2324 19.312 75.6754 H 0.0 **** 0.1268
152 C15183 30.5915 21.4977 75.5686 C.2 0.0 **** 0.0
153 O15240 24.1152 26.7677 72.1612 O.3 0.0 **** -0.202
154 C15189 36.3616 20.4902 79.1615 C.3 0.0 **** -0.106
155 H15373 25.979 22.3029 63.9353 H 0.0 **** 0.1268
156 O15225 27.755 21.8085 64.6754 O.3 0.0 **** -0.202
157 C15164 33.1436 18.9361 84.6738 C.3 0.0 **** -0.106
158 H15394 17.144 31.0291 58.7464 H 0.0 **** 0.1268
159 C15175 29.7429 22.9727 77.3301 C.2 0.0 **** 0.232
160 C15218 26.7346 23.82 70.7325 C.2 0.0 **** 0.0
161 H15322 27.7603 23.9089 79.3351 H 0.0 **** 0.053
162 H15390 31.1829 20.5033 67.1209 H 0.0 **** 0.41
163 H15342 30.9003 19.6683 70.9112 H 0.0 **** 0.1268
164 C15182 29.6248 22.0629 74.6575 C.2 0.0 **** 0.0
165 C15200 32.5015 20.0345 76.0378 C.2 0.0 **** -0.1268
166 C15285 18.3927 28.8954 56.3656 C.2 0.0 **** 0.0
167 H15349 30.1149 17.8958 64.9697 H 0.0 **** 0.053
168 H15381 24.0702 21.1356 62.8902 H 0.0 **** 0.053
169 C15157 31.6144 18.8016 84.4585 C.3 0.0 **** -0.053
170 C15295 20.5966 25.6043 54.6637 C.2 0.0 **** 0.052
171 C15281 18.4963 29.3822 59.1648 C.2 0.0 **** 0.0
172 C15258 22.6672 25.413 63.2618 C.2 0.0 **** 0.0
173 H15319 31.8036 22.7703 83.9895 H 0.0 **** 0.053
174 C15259 24.2338 23.171 62.1551 C.3 0.0 **** -0.053
175 H15336 33.4788 15.1829 77.6466 H 0.0 **** 0.053
176 H15308 29.0067 20.6714 83.3989 H 0.0 **** 0.053
177 C15265 23.5748 21.7797 62.1481 C.3 0.0 **** -0.106
178 C15222 25.596 23.4585 65.7037 C.2 0.0 **** 0.0
179 C15174 30.6817 21.9985 76.873 C.2 0.0 **** 0.0
180 H15379 24.6337 20.6588 60.6255 H 0.0 **** 0.053
181 H15403 20.8616 23.1827 52.7106 H 0.0 **** 0.053
182 C15264 23.6604 21.1559 60.7423 C.3 0.0 **** -0.106
183 H15363 23.5507 24.3666 73.748 H 0.0 **** 0.053
184 C15245 22.0745 25.9034 74.216 C.3 0.0 **** -0.106
185 H15357 26.6879 21.6241 59.8655 H 0.0 **** 0.053
186 C15172 32.693 21.4839 80.086 C.3 0.0 **** -0.053
187 C15166 33.0107 22.4393 81.2471 C.3 0.0 **** 0.107
188 H15302 29.2993 17.1364 82.6027 H 0.0 **** 0.053
189 C15290 19.8392 26.7094 55.2145 C.2 0.0 **** 0.0
190 C15275 20.2328 28.2868 63.6065 C.2 0.0 **** -0.1268
191 C15231 28.4677 19.0669 62.1455 C.3 0.0 **** 0.134
192 C15249 24.0013 26.1071 69.5166 C.2 0.0 **** -0.1268
193 H15378 23.0145 21.7523 58.7444 H 0.0 **** 0.053
194 H15385 30.9492 15.5332 74.8349 H 0.0 **** 0.053
195 C15266 21.6422 25.8371 61.1003 C.2 0.0 **** 0.0
196 C15269 22.1258 24.3748 59.1548 C.2 0.0 **** 0.0
197 H15370 22.7564 28.5711 72.9915 H 0.0 **** 0.053
198 C15270 21.5212 25.5423 59.6983 C.2 0.0 **** 0.0
199 O15180 28.7626 23.4316 76.4713 O.3 0.0 **** -0.464
200 H15332 37.4667 17.0497 76.1518 H 0.0 **** 0.053
201 C15163 33.7037 20.2704 84.1482 C.3 0.0 **** -0.106
202 C15257 21.886 26.4296 63.8373 C.2 0.0 **** 0.0265
203 H15315 33.652 18.0993 84.1672 H 0.0 **** 0.053
204 H15334 32.8066 17.3232 78.4872 H 0.0 **** 0.053
205 H15352 29.3265 19.1459 61.457 H 0.0 **** 0.053
206 C15201 29.5151 21.7482 73.2789 C.2 0.0 **** 0.0
207 H15384 29.5562 15.6746 75.9276 H 0.0 **** 0.053
208 C15239 24.9157 25.4603 70.3609 C.2 0.0 **** 0.0
209 C15192 36.7389 17.8236 76.4418 C.3 0.0 **** -0.106
210 H15338 33.449 14.6646 75.1521 H 0.0 **** 0.053
211 H15404 21.5666 24.3833 51.6212 H 0.0 **** 0.053
212 H15324 29.9697 25.9714 79.8631 H 0.0 **** 0.053
213 C15250 23.7671 25.0761 65.4283 C.2 0.0 **** 0.0
214 O15256 21.9848 26.7273 65.1771 O.3 0.0 **** -0.0685
215 H15396 18.9998 27.407 53.349 H 0.0 **** 0.1268
216 C15190 35.1889 21.1038 79.8614 C.2 0.0 **** -0.1268
217 C15298 22.6943 24.0254 53.4786 C.3 0.0 **** -0.106
218 C15271 31.4513 15.3297 76.9456 C.3 0.0 **** -0.053
219 H15372 22.3138 27.1946 67.7009 H 0.0 **** 0.1268
220 C15214 26.6218 22.8776 66.5343 C.2 0.0 **** 0.0
221 H15304 31.4543 16.8497 83.5323 H 0.0 **** 0.053
222 H15309 28.9411 20.2607 85.1407 H 0.0 **** 0.053
223 C15198 35.094 15.9725 75.7077 C.3 0.0 **** -0.106
224 C15223 24.7339 24.4485 66.2629 C.2 0.0 **** 0.0
225 H15316 33.7116 23.1923 80.8578 H 0.0 **** 0.053
226 H15354 26.2219 20.9751 62.2567 H 0.0 **** 0.053
227 C15237 25.8366 25.1165 72.6032 C.2 0.0 **** 0.042
228 C15167 31.7886 23.1589 81.8451 C.3 0.0 **** -0.053
229 C15194 34.3805 17.8859 77.1641 C.2 0.0 **** 0.0
230 N15236 27.3405 18.6221 61.3248 N.3 0.0 **** -0.727
231 C15161 31.5239 20.89 83.0135 C.3 0.0 **** -0.053
232 O15243 25.8033 25.4095 73.9482 O.3 0.0 **** -0.202
233 C15188 35.9968 19.3597 78.2559 C.2 0.0 **** 0.0
234 O15301 19.5568 25.6078 52.4911 O.2 0.0 **** -0.419
235 C15221 25.8117 24.4686 69.8581 C.2 0.0 **** 0.0
236 H15358 27.8008 19.1562 59.3503 H 0.0 **** 0.053
237 C15219 26.7667 24.1265 72.1259 C.2 0.0 **** 0.0
238 C15173 31.6841 21.5494 77.81 C.2 0.0 **** 0.0
239 H15327 36.9047 21.2726 78.5867 H 0.0 **** 0.053
240 C15246 22.1458 27.3546 74.7042 C.3 0.0 **** -0.106
241 C15156 31.2592 17.8982 83.2596 C.3 0.0 **** -0.106
242 H15345 26.8208 20.0036 64.2945 H 0.0 **** 0.053
243 C15227 28.7923 19.5979 65.1398 C.3 0.0 **** -0.053
244 H15382 22.5275 21.8799 62.4745 H 0.0 **** 0.053
245 H15388 31.7955 13.4109 75.9673 H 0.0 **** 0.053
246 H15397 17.7705 29.2996 54.3357 H 0.0 **** 0.1268
247 C15263 23.4902 22.2124 59.6222 C.3 0.0 **** -0.106
248 C15162 33.0479 20.6396 82.8284 C.3 0.0 **** 0.107
249 C15230 28.8162 18.0197 63.2075 C.3 0.0 **** -0.106
250 H15335 32.2312 17.8662 76.9288 H 0.0 **** 0.053
@<TRIPOS>BOND
1 15 14 1
2 113 112 1
3 196 198 un
4 237 160 un
5 106 103 un
6 123 149 1
7 124 102 un
8 169 241 1
9 141 169 1
10 137 141 1
11 78 137 1
12 101 241 1
13 101 78 1
14 248 231 1
15 201 248 1
16 157 201 1
17 141 231 1
18 169 157 1
19 187 118 1
20 228 187 1
21 13 228 1
22 248 118 1
23 231 13 1
24 95 91 un
25 45 95 un
26 186 45 un
27 228 91 1
28 187 186 1
29 179 238 1
30 159 179 un
31 75 159 un
32 45 238 un
33 95 75 un
34 84 123 1
35 91 84 1
36 75 149 1
37 59 199 1
38 164 59 un
39 152 164 un
40 159 199 1
41 179 152 un
42 30 53 un
43 67 30 2
44 186 53 1
45 238 67 un
46 233 110 2
47 154 233 1
48 216 154 1
49 30 110 1
50 53 216 2
51 209 11 1
52 65 209 1
53 229 65 2
54 233 11 1
55 110 229 1
56 21 64 1
57 127 21 1
58 223 127 1
59 229 64 1
60 65 223 1
61 165 85 un
62 67 165 un
63 152 85 un
64 144 206 un
65 54 144 1
66 85 54 un
67 164 206 un
68 43 83 un
69 114 43 un
70 32 114 un
71 144 83 un
72 206 32 un
73 29 81 un
74 103 29 un
75 114 81 un
76 43 106 un
77 82 51 un
78 220 82 un
79 124 220 un
80 103 51 un
81 29 124 un
82 113 80 un
83 59 113 un
84 32 80 un
85 80 237 un
86 81 160 un
87 235 102 un
88 160 235 un
89 224 178 un
90 111 224 un
91 102 111 un
92 220 178 un
93 63 156 1
94 243 63 1
95 47 243 1
96 82 156 1
97 51 47 1
98 249 86 1
99 191 249 1
100 76 191 1
101 243 86 1
102 63 76 1
103 117 74 1
104 42 117 1
105 230 42 1
106 76 74 1
107 191 230 1
108 72 227 un
109 208 72 un
110 235 208 un
111 237 227 un
112 37 153 1
113 142 37 1
114 232 142 1
115 72 153 1
116 227 232 1
117 184 150 1
118 240 184 1
119 56 240 1
120 142 150 1
121 37 56 1
122 192 23 un
123 208 192 un
124 111 23 un
125 26 213 un
126 16 26 un
127 23 16 un
128 224 213 un
129 46 122 un
130 139 46 un
131 178 139 un
132 213 122 un
133 202 214 1
134 172 202 un
135 26 214 1
136 122 172 1
137 14 174 1
138 46 174 1
139 172 15 un
140 247 121 1
141 182 247 1
142 177 182 1
143 14 121 1
144 174 177 1
145 93 195 1
146 57 93 1
147 202 57 un
148 15 195 un
149 121 196 1
150 195 198 un
151 21 218 1
152 218 120 1
153 218 36 1
154 47 69 1
155 128 190 1
156 66 128 un
157 138 66 1
158 57 190 un
159 93 138 un
160 33 68 un
161 171 33 1
162 25 171 un
163 138 68 un
164 66 25 un
165 3 60 un
166 166 3 1
167 129 166 1
168 171 60 un
169 33 129 un
170 7 48 un
171 79 7 un
172 68 79 un
173 129 48 un
174 40 189 un
175 61 40 un
176 166 61 un
177 48 189 un
178 73 130 un
179 7 73 un
180 198 79 un
181 196 130 un
182 92 170 un
183 73 92 un
184 189 170 un
185 217 18 1
186 22 217 1
187 4 22 1
188 92 18 1
189 170 4 1
190 4 234 2
191 101 188 1
192 101 116 1
193 241 221 1
194 241 148 1
195 169 100 1
196 141 125 1
197 137 176 1
198 137 222 1
199 231 99 1
200 248 94 1
201 201 9 1
202 201 2 1
203 157 31 1
204 157 203 1
205 187 225 1
206 228 34 1
207 13 44 1
208 13 173 1
209 186 52 1
210 149 96 1
211 149 161 1
212 123 38 1
213 123 212 1
214 84 134 1
215 84 140 1
216 154 239 1
217 154 145 1
218 216 131 1
219 11 71 1
220 11 58 1
221 209 200 1
222 209 107 1
223 64 204 1
224 64 250 1
225 21 175 1
226 127 143 1
227 127 210 1
228 223 8 1
229 223 133 1
230 165 151 1
231 83 163 1
232 106 5 1
233 63 242 1
234 243 136 1
235 47 20 1
236 86 119 1
237 86 167 1
238 249 49 1
239 249 19 1
240 191 205 1
241 76 24 1
242 74 226 1
243 74 98 1
244 117 126 1
245 117 185 1
246 42 236 1
247 42 89 1
248 230 87 1
249 37 17 1
250 142 135 1
251 150 183 1
252 150 39 1
253 184 77 1
254 184 41 1
255 240 115 1
256 240 97 1
257 56 146 1
258 56 197 1
259 192 35 1
260 16 219 1
261 139 155 1
262 174 132 1
263 14 12 1
264 121 104 1
265 247 88 1
266 247 193 1
267 182 180 1
268 182 90 1
269 177 168 1
270 177 244 1
271 218 62 1
272 120 207 1
273 120 194 1
274 120 147 1
275 36 70 1
276 36 245 1
277 36 6 1
278 69 162 1
279 190 108 1
280 128 28 1
281 25 55 1
282 60 158 1
283 3 50 1
284 40 215 1
285 61 246 1
286 130 1 1
287 18 10 1
288 18 109 1
289 217 105 1
290 217 27 1
291 22 181 1
292 22 211 1
@<TRIPOS>MOLECULE
Sketch 4
188 213
SMALL
USER_CHARGES


@<TRIPOS>ATOM
1 H11654 24.7601 32.8869 8.26651 H 0.0 **** 0.053
2 C11576 23.5473 34.4129 18.7732 C.3 0.0 **** -0.106
3 C11549 9.24871 30.062 18.5483 C.2 0.0 **** 0.042
4 O11640 21.9151 33.3247 15.1884 O.3 0.0 **** -0.452
5 H11653 23.161 32.4134 7.71154 H 0.0 **** 0.053
6 C11599 30.3773 39.8854 18.3073 C.ar 0.0 **** 0.0
7 C11608 33.7876 30.5321 24.5073 C.ar 0.0 **** 0.0
8 C11560 15.8467 30.9408 18.1603 C.ar 0.0 **** -0.1268
9 C11589 29.4655 35.2535 20.5027 C.3 0.0 **** -0.106
10 C11566 21.9394 29.9256 18.8439 C.2 0.0 **** 0.0
11 O11616 21.8782 27.8503 20.0511 O.3 0.0 **** -0.4365
12 H11683 27.5283 33.64 19.6134 H 0.0 **** 0.053
13 H11686 27.9469 29.9105 21.8588 H 0.0 **** 0.053
14 H11696 32.7317 32.9886 23.796 H 0.0 **** 0.053
15 C11611 36.2624 30.1498 25.9769 C.3 0.0 **** -0.086
16 C11546 10.6417 32.5058 18.1862 C.2 0.0 **** -0.1268
17 H11644 24.4623 32.7175 10.7366 H 0.0 **** 0.053
18 C11624 22.5016 31.2751 14.1281 C.2 0.0 **** 0.052
19 H11715 29.9841 41.0226 16.5137 H 0.0 **** 0.053
20 C11607 33.9475 29.3343 25.2517 C.ar 0.0 **** 0.052
21 C11555 15.0883 28.6253 18.3917 C.ar 0.0 **** 0.0
22 H11679 23.4108 35.5048 18.751 H 0.0 **** 0.053
23 C11559 17.1828 30.4808 18.0885 C.ar 0.0 **** 0.0
24 C11633 24.0231 29.863 9.32928 C.2 0.0 **** 0.0
25 C11591 31.855 35.8707 20.9826 C.ar 0.0 **** 0.0
26 O11639 22.4066 27.8312 15.4205 O.3 0.0 **** -0.452
27 C11536 4.95516 34.9303 17.9614 C.ar 0.0 **** 0.0
28 H11695 33.1649 32.1701 22.3241 H 0.0 **** 0.053
29 H11643 22.7822 32.7123 10.313 H 0.0 **** 0.053
30 C11569 22.2507 29.1616 19.9398 C.2 0.0 **** 0.0265
31 C11621 21.7191 29.8842 16.408 C.2 0.0 **** 0.0
32 C11563 19.7974 29.5305 17.8329 C.ar 0.0 **** 0.0
33 C11534 2.80772 33.6949 18.2071 C.ar 0.0 **** 0.042
34 H11709 19.8206 33.564 18.3846 H 0.0 **** 0.053
35 C11562 19.5612 30.9306 17.8249 C.ar 0.0 **** 0.0
36 C11593 32.9241 36.7961 20.8379 C.ar 0.0 **** 0.1137
37 C11632 23.9363 31.2044 9.29578 C.2 0.0 **** 0.0
38 H11646 23.1192 28.2589 10.4452 H 0.0 **** 0.053
39 H11665 4.42503 31.5588 18.504 H 0.0 **** 0.1268
40 H11707 7.67391 28.9677 18.7087 H 0.0 **** 0.41
41 H11669 13.787 27.2982 19.5203 H 0.0 **** 0.053
42 H11670 13.665 27.0995 17.7651 H 0.0 **** 0.053
43 C11627 23.1275 29.1343 13.0146 C.2 0.0 **** 0.367
44 C11615 20.4009 33.2552 17.5061 C.3 0.0 **** -0.159
45 H11698 29.8636 29.4356 22.7538 H 0.0 **** 0.053
46 H11676 25.6988 34.1082 18.6208 H 0.0 **** 0.053
47 C11540 6.37206 32.4806 18.3116 C.ar 0.0 **** 0.0
48 C11570 23.0337 29.5874 21.1205 C.2 0.0 **** 0.367
49 C11580 26.1954 32.4552 20.7792 C.2 0.0 **** 0.0
50 H11688 28.6182 35.8022 20.9553 H 0.0 **** 0.053
51 C11577 22.4595 33.7313 19.6059 C.3 0.0 **** -0.106
52 C11542 7.10088 31.293 18.4674 C.2 0.0 **** -0.1268
53 H11659 2.14632 37.9763 16.9256 H 0.0 **** 0.053
54 H11672 15.6261 32.008 18.0987 H 0.0 **** 0.1268
55 H11710 19.7492 33.3349 16.6264 H 0.0 **** 0.053
56 C11604 30.1293 30.2746 23.4235 C.3 0.0 **** -0.106
57 C11557 16.3756 28.1512 18.309 C.ar 0.0 **** -0.1268
58 C11537 4.20852 36.1391 17.7815 C.ar 0.0 **** -0.1268
59 C11538 6.34863 34.9158 17.931 C.ar 0.0 **** -0.1268
60 C11552 13.3728 30.2241 18.3589 C.2 0.0 **** 0.2405
61 C11573 22.6534 32.2373 19.4921 C.2 0.0 **** 0.0
62 H11700 34.9319 31.9253 23.3362 H 0.0 **** 0.053
63 O11613 2.17622 32.4896 18.4118 O.3 0.0 **** -0.452
64 C11595 31.658 38.2635 19.6141 C.ar 0.0 **** 0.2405
65 O11642 22.8197 33.2595 12.8668 O.2 0.0 **** -0.419
66 C11636 24.1039 29.8191 6.79426 C.3 0.0 **** -0.106
67 C11622 21.5253 31.2578 16.3769 C.2 0.0 **** 0.0
68 H11693 28.3118 39.3333 17.9239 H 0.0 **** 0.1268
69 C11544 9.23025 32.5154 18.2238 C.2 0.0 **** 0.0
70 H11680 21.4592 34.0586 19.3379 H 0.0 **** 0.053
71 H11663 4.74955 37.073 17.6187 H 0.0 **** 0.1268
72 C11548 10.6449 30.0608 18.4939 C.2 0.0 **** 0.0
73 H11678 23.4823 34.0531 17.7345 H 0.0 **** 0.053
74 C11609 34.9398 31.5004 24.3508 C.3 0.0 **** -0.106
75 C11631 23.6258 32.026 10.515 C.3 0.0 **** -0.106
76 C11586 31.0723 32.4542 22.555 C.ar 0.0 **** 0.0
77 C11590 30.6392 36.1773 20.4064 C.ar 0.0 **** 0.0
78 H11682 25.3422 29.4817 22.1801 H 0.0 **** 0.1268
79 C11567 21.8654 31.3798 18.7675 C.2 0.0 **** 0.0
80 H11650 24.5061 29.2492 5.94287 H 0.0 **** 0.053
81 C11581 27.3245 33.437 20.6812 C.3 0.0 **** -0.106
82 O11618 32.942 27.3032 26.071 O.3 0.0 **** -0.452
83 C11596 30.5134 37.4072 19.6978 C.ar 0.0 **** 0.0
84 C11533 0.640731 35.1146 17.9977 C.3 0.0 **** -0.106
85 H11671 16.5923 27.0816 18.3618 H 0.0 **** 0.1268
86 H11691 33.8908 36.5507 21.296 H 0.0 **** 0.1268
87 H11661 0.237108 35.1814 19.0248 H 0.0 **** 0.053
88 H11681 22.6078 34.0035 20.6654 H 0.0 **** 0.053
89 C11556 13.8018 27.8474 18.5636 C.3 0.0 **** -0.106
90 H11645 24.7849 28.5256 10.8411 H 0.0 **** 0.053
91 H11677 25.1733 34.8667 20.1095 H 0.0 **** 0.053
92 C11601 32.422 32.1504 23.1443 C.3 0.0 **** -0.106
93 C11625 22.6371 29.8652 14.1658 C.2 0.0 **** 0.052
94 C11572 23.8956 31.8307 20.1652 C.2 0.0 **** 0.0
95 H11708 21.2411 33.9311 17.3488 H 0.0 **** 0.053
96 C11575 24.9086 34.0721 19.3896 C.3 0.0 **** -0.106
97 C11558 17.4482 29.0645 18.1432 C.ar 0.0 **** 0.0
98 H11660 1.71772 37.7391 18.6313 H 0.0 **** 0.053
99 C11585 29.999 31.5701 22.6715 C.ar 0.0 **** 0.0
100 H11687 29.1158 35.0241 19.4791 H 0.0 **** 0.053
101 H11702 37.0796 31.6707 24.6465 H 0.0 **** 0.053
102 C11568 20.8265 31.7948 17.6451 C.3 0.0 **** 0.0
103 C11564 18.7868 28.6163 17.9985 C.ar 0.0 **** -0.1268
104 H11712 32.0744 26.8647 26.0664 H 0.0 **** 0.41
105 C11574 24.9841 32.749 20.1283 C.2 0.0 **** 0.0
106 O11614 8.636 28.8468 18.722 O.3 0.0 **** -0.452
107 H11651 24.6925 31.743 5.9465 H 0.0 **** 0.053
108 C11626 22.2743 29.1607 15.3277 C.2 0.0 **** 0.042
109 C11545 8.49571 33.7027 18.0705 C.2 0.0 **** -0.1268
110 C11623 21.9793 31.9897 15.2365 C.2 0.0 **** 0.042
111 H11714 29.4869 41.829 18.0104 H 0.0 **** 0.053
112 C11543 8.5 31.2656 18.4215 C.2 0.0 **** 0.0
113 C11579 26.3425 31.2679 21.5108 C.2 0.0 **** 0.0
114 H11692 28.4257 37.1891 19.1231 H 0.0 **** 0.1268
115 C11547 11.3602 31.3206 18.3169 C.2 0.0 **** 0.2405
116 N11594 32.8585 37.9423 20.1907 N.ar 0.0 **** -0.481
117 C11588 29.6906 33.9727 21.2575 C.ar 0.0 **** 0.0
118 C11541 4.96205 32.4952 18.3485 C.ar 0.0 **** -0.1268
119 H11647 25.3347 28.6462 8.15178 H 0.0 **** 0.053
120 C11606 32.8303 28.4612 25.3592 C.ar 0.0 **** 0.042
121 C11531 2.8414 36.0987 17.8152 C.ar 0.0 **** 0.0
122 C11539 7.09301 33.7275 18.1001 C.ar 0.0 **** 0.0
123 H11697 29.3646 30.2341 24.2218 H 0.0 **** 0.053
124 H11685 27.4055 30.7532 23.2874 H 0.0 **** 0.053
125 C11603 31.4719 29.9883 24.0371 C.ar 0.0 **** 0.0
126 C11582 28.6125 33.0698 21.3609 C.ar 0.0 **** 0.0
127 C11635 24.3008 29.0373 8.09664 C.3 0.0 **** -0.106
128 H11674 18.9942 27.5427 17.9913 H 0.0 **** 0.1268
129 H11703 36.5676 30.1765 23.8402 H 0.0 **** 0.053
130 H11648 23.6485 28.1466 8.10992 H 0.0 **** 0.053
131 H11658 -0.372615 37.0394 17.5518 H 0.0 **** 0.053
132 C11550 11.3952 28.8497 18.5904 C.2 0.0 **** -0.1268
133 H11668 10.8696 27.902 18.7116 H 0.0 **** 0.1268
134 H11690 32.9537 34.0722 21.3102 H 0.0 **** 0.053
135 C11554 14.8209 30.0236 18.2978 C.ar 0.0 **** 0.0
136 H11699 30.7673 28.1237 24.8554 H 0.0 **** 0.1268
137 C11600 31.5585 39.4912 18.9128 C.ar 0.0 **** -0.1268
138 C11610 36.3064 30.8879 24.641 C.3 0.0 **** -0.106
139 C11561 18.2699 31.3901 17.9397 C.ar 0.0 **** -0.1268
140 C11630 22.8791 31.9933 12.9262 C.2 0.0 **** 0.367
141 C11587 30.9169 33.6672 21.85 C.ar 0.0 **** 0.0
142 H11716 11.192 33.4365 18.0475 H 0.0 **** 0.1268
143 C11634 23.8533 29.0724 10.5966 C.3 0.0 **** -0.106
144 C11592 32.0918 34.6049 21.754 C.3 0.0 **** -0.106
145 C11628 23.4332 29.8759 11.7849 C.ar 0.0 **** 0.0
146 C11605 31.6205 28.8025 24.7565 C.ar 0.0 **** -0.1268
147 C11565 21.26 29.2165 17.6706 C.3 0.0 **** -0.053
148 N11553 12.7381 31.3704 18.262 N.2 0.0 **** -0.481
149 H11684 26.9772 34.4153 21.0654 H 0.0 **** 0.053
150 H11704 35.9636 30.8536 26.7759 H 0.0 **** 0.053
151 C11532 2.13073 34.8731 18.0246 C.ar 0.0 **** 0.0
152 H11705 37.2276 29.7094 26.2597 H 0.0 **** 0.053
153 C11638 24.1381 32.0049 8.03315 C.3 0.0 **** -0.106
154 H11713 31.2167 41.7412 17.5844 H 0.0 **** 0.053
155 H11701 34.77 32.3564 25.032 H 0.0 **** 0.053
156 H11649 23.024 29.9546 6.61454 H 0.0 **** 0.053
157 H11689 32.4342 34.8693 22.7726 H 0.0 **** 0.053
158 C11612 35.236 29.0248 25.9375 C.2 0.0 **** 0.347
159 C11637 24.7706 31.1937 6.89757 C.3 0.0 **** -0.106
160 H11657 0.523692 36.3158 16.1944 H 0.0 **** 0.053
161 H11656 22.2754 33.5696 14.2515 H 0.0 **** 0.41
162 C11584 27.6229 30.9058 22.2137 C.3 0.0 **** -0.106
163 C11583 28.7611 31.8792 22.0712 C.ar 0.0 **** 0.0
164 C11571 24.0608 30.6406 20.9188 C.2 0.0 **** 0.052
165 C11597 29.3105 37.825 19.0717 C.ar 0.0 **** -0.1268
166 C11578 25.2657 30.3969 21.5903 C.2 0.0 **** -0.1268
167 C11529 0.536062 36.4845 17.2817 C.3 0.0 **** -0.106
168 C11620 30.2668 41.1906 17.5654 C.3 0.0 **** -0.159
169 H11673 18.0383 32.4543 17.9101 H 0.0 **** 0.1268
170 C11535 4.24513 33.674 18.1799 C.ar 0.0 **** 0.0
171 H11664 6.88561 35.854 17.7723 H 0.0 **** 0.1268
172 O11619 35.4855 27.9403 26.454 O.2 0.0 **** -0.419
173 H11711 21.1317 27.6723 19.4563 H 0.0 **** 0.41
174 H11675 21.4781 28.1441 17.6286 H 0.0 **** 0.053
175 C11551 12.7528 28.9273 18.5185 C.2 0.0 **** 0.0
176 H11666 6.51553 30.3808 18.624 H 0.0 **** 0.1268
177 C11602 32.5572 30.8618 23.9072 C.ar 0.0 **** 0.0
178 C11629 23.317 31.2344 11.7456 C.ar 0.0 **** 0.0
179 H11655 22.7893 27.5517 14.512 H 0.0 **** 0.41
180 H11667 9.03976 34.6381 17.9203 H 0.0 **** 0.1268
181 H11706 1.21789 32.6446 18.4028 H 0.0 **** 0.41
182 H11694 32.451 40.1181 18.8698 H 0.0 **** 0.1268
183 H11662 0.072109 34.3267 17.475 H 0.0 **** 0.053
184 O11641 23.2753 27.877 13.0517 O.2 0.0 **** -0.419
185 H11652 25.845 31.0565 7.10614 H 0.0 **** 0.053
186 C11530 1.84075 37.2212 17.6634 C.3 0.0 **** -0.106
187 O11617 22.967 28.9507 22.1745 O.2 0.0 **** -0.419
188 C11598 29.2472 39.0285 18.3988 C.ar 0.0 **** -0.1268
@<TRIPOS>BOND
1 145 143 1
2 162 163 1
3 25 36 am
4 24 127 1
5 9 100 1
6 164 94 un
7 121 186 1
8 151 121 am
9 84 151 1
10 167 186 1
11 167 84 1
12 170 33 am
13 27 170 am
14 58 27 am
15 151 33 am
16 121 58 am
17 122 59 am
18 47 122 un
19 118 47 am
20 27 59 am
21 170 118 am
22 112 52 un
23 69 112 un
24 109 69 un
25 47 52 un
26 122 109 un
27 115 16 un
28 72 115 un
29 3 72 un
30 69 16 un
31 112 3 un
32 175 132 un
33 60 175 un
34 148 60 un
35 72 132 un
36 115 148 un
37 21 135 am
38 89 21 1
39 60 135 1
40 175 89 1
41 97 57 am
42 23 97 am
43 8 23 am
44 21 57 am
45 135 8 am
46 35 139 am
47 32 35 am
48 103 32 am
49 23 139 am
50 97 103 am
51 10 147 1
52 79 10 1
53 102 79 1
54 32 147 1
55 35 102 1
56 10 30 2
57 30 48 1
58 48 164 1
59 94 61 1
60 79 61 2
61 96 105 1
62 2 96 1
63 51 2 1
64 94 105 un
65 61 51 1
66 113 166 un
67 49 113 un
68 105 49 un
69 164 166 un
70 126 81 1
71 163 126 am
72 49 81 1
73 113 162 1
74 76 99 am
75 141 76 am
76 117 141 am
77 163 99 am
78 126 117 am
79 77 9 1
80 25 77 am
81 144 25 1
82 117 9 1
83 141 144 1
84 116 36 am
85 64 116 am
86 83 64 am
87 77 83 am
88 188 165 am
89 6 188 am
90 137 6 am
91 83 165 am
92 64 137 am
93 177 92 1
94 125 177 am
95 56 125 1
96 76 92 1
97 99 56 1
98 120 146 am
99 20 120 am
100 7 20 am
101 125 146 am
102 177 7 am
103 138 74 1
104 15 138 1
105 158 15 1
106 7 74 1
107 20 158 1
108 33 63 1
109 3 106 1
110 102 44 1
111 30 11 1
112 48 187 2
113 120 82 1
114 158 172 2
115 6 168 1
116 110 67 un
117 18 110 un
118 93 18 un
119 108 93 un
120 31 67 un
121 31 108 un
122 145 43 1
123 178 145 am
124 140 178 1
125 93 43 1
126 18 140 1
127 37 75 1
128 24 37 2
129 143 24 1
130 178 75 1
131 66 127 1
132 159 66 1
133 153 159 1
134 37 153 1
135 108 26 1
136 110 4 1
137 43 184 2
138 140 65 2
139 75 29 1
140 75 17 1
141 143 90 1
142 143 38 1
143 127 119 1
144 127 130 1
145 66 156 1
146 66 80 1
147 159 107 1
148 159 185 1
149 153 5 1
150 153 1 1
151 26 179 1
152 4 161 1
153 102 67 1
154 147 31 1
155 167 160 1
156 167 131 1
157 186 53 1
158 186 98 1
159 84 87 1
160 84 183 1
161 58 71 1
162 59 171 1
163 118 39 1
164 52 176 1
165 109 180 1
166 132 133 1
167 89 41 1
168 89 42 1
169 57 85 1
170 8 54 1
171 139 169 1
172 103 128 1
173 147 174 1
174 96 46 1
175 96 91 1
176 2 73 1
177 2 22 1
178 51 70 1
179 51 88 1
180 166 78 1
181 81 12 1
182 81 149 1
183 162 124 1
184 162 13 1
185 9 50 1
186 144 157 1
187 144 134 1
188 36 86 1
189 165 114 1
190 188 68 1
191 137 182 1
192 92 28 1
193 92 14 1
194 56 123 1
195 56 45 1
196 146 136 1
197 74 62 1
198 74 155 1
199 138 101 1
200 138 129 1
201 15 150 1
202 15 152 1
203 63 181 1
204 106 40 1
205 44 95 1
206 44 34 1
207 44 55 1
208 11 173 1
209 82 104 1
210 168 154 1
211 168 111 1
212 168 19 1
213 16 142 1
@<TRIPOS>MOLECULE
Sketch 4
250 292
SMALL
USER_CHARGES


@<TRIPOS>ATOM
1 C21676 28.3837 62.7306 69.6775 C.2 0.0 **** 0.0
2 H21827 34.4082 58.3255 70.5018 H 0.0 **** 0.053
3 C21773 30.4232 56.5871 62.1149 C.3 0.0 **** -0.159
4 H21807 26.073 56.3153 72.0054 H 0.0 **** 0.053
5 H21895 29.739 86.4492 57.6635 H 0.0 **** 0.1268
6 C21778 29.8063 80.4797 59.1946 C.2 0.0 **** 0.0
7 C21767 30.0275 79.0844 59.3626 C.2 0.0 **** 0.0
8 C21719 29.3484 68.3713 65.3882 C.2 0.0 **** 0.0
9 C21668 27.272 58.6038 72.0243 C.3 0.0 **** -0.106
10 C21698 34.2674 57.2686 64.2952 C.3 0.0 **** -0.106
11 H21882 30.8415 74.534 56.6727 H 0.0 **** 0.053
12 C21758 30.6351 76.3718 59.7874 C.2 0.0 **** 0.0
13 C21667 28.3953 59.6819 72.0368 C.3 0.0 **** -0.053
14 H21802 25.7245 56.1768 67.1766 H 0.0 **** 0.053
15 H21839 35.2038 57.7344 63.9378 H 0.0 **** 0.053
16 C21739 28.7582 71.1134 64.7149 C.2 0.0 **** 0.0
17 H21850 34.6309 68.7573 56.0494 H 0.0 **** 0.053
18 C21800 34.0915 83.3055 53.0418 C.2 0.0 **** 0.347
19 H21866 24.7091 70.9487 65.6068 H 0.0 **** 0.053
20 H21892 27.5502 80.9595 61.7535 H 0.0 **** 0.1268
21 C21744 25.2819 68.9995 66.3809 C.3 0.0 **** -0.106
22 H21834 30.8883 57.4023 66.1245 H 0.0 **** 0.053
23 C21681 29.393 64.9731 67.0339 C.2 0.0 **** 0.232
24 C21792 31.4907 85.4085 55.8857 C.2 0.0 **** -0.1268
25 H21897 31.3501 86.488 55.7983 H 0.0 **** 0.1268
26 C21666 29.7285 59.0657 71.5762 C.3 0.0 **** 0.107
27 H21809 24.1537 56.8651 70.8358 H 0.0 **** 0.053
28 C21785 30.7847 84.7114 56.8916 C.2 0.0 **** 0.0
29 C21738 28.0832 70.4538 65.7744 C.2 0.0 **** 0.042
30 H21870 25.614 72.4719 67.8016 H 0.0 **** 0.053
31 H21831 34.538 55.7558 67.8478 H 0.0 **** 0.053
32 C21709 31.801 69.0229 62.5721 C.2 0.0 **** 0.0
33 H21876 31.2047 76.6943 56.157 H 0.0 **** 0.053
34 C21729 35.8199 68.3086 57.7997 C.3 0.0 **** -0.106
35 H21828 33.8557 56.6703 70.4951 H 0.0 **** 0.053
36 O21756 29.0731 76.3569 61.6371 O.3 0.0 **** -0.0685
37 H21900 34.2605 79.9962 52.781 H 0.0 **** 0.053
38 C21708 31.0769 68.3511 63.6044 C.2 0.0 **** 0.0
39 H21813 29.7034 55.1319 72.1464 H 0.0 **** 0.053
40 H21836 31.8472 56.2035 64.2854 H 0.0 **** 0.053
41 C21730 35.6679 68.911 56.399 C.3 0.0 **** -0.106
42 C21685 31.8687 59.1195 68.3484 C.2 0.0 **** 0.0
43 H21845 33.4541 70.394 57.813 H 0.0 **** 0.053
44 C21701 30.9959 64.9357 65.2417 C.2 0.0 **** 0.0
45 C21776 28.2425 80.4271 61.0988 C.2 0.0 **** -0.1268
46 H21881 31.9053 73.1458 56.8922 H 0.0 **** 0.053
47 C21793 33.0312 79.1282 55.4933 C.2 0.0 **** -0.1268
48 H21888 31.2699 56.7321 61.4252 H 0.0 **** 0.053
49 C21746 24.1528 70.8478 67.6889 C.3 0.0 **** -0.106
50 C21747 25.4894 71.4442 68.1759 C.3 0.0 **** -0.106
51 C21769 32.3363 78.4226 56.4499 C.2 0.0 **** 0.0
52 H21898 33.618 78.5767 54.7637 H 0.0 **** 0.1268
53 H21846 33.764 68.2113 58.4152 H 0.0 **** 0.053
54 C21735 35.9066 72.4699 55.144 C.3 0.0 **** 0.081
55 H21890 35.6527 67.2066 61.3162 H 0.0 **** 0.41
56 C21786 30.9916 83.3122 57.0201 C.2 0.0 **** 0.0
57 H21806 25.8708 54.5352 70.3033 H 0.0 **** 0.053
58 C21754 31.9115 74.3052 59.28 C.2 0.0 **** 0.0
59 C21788 32.0717 81.234 56.2733 C.2 0.0 **** 0.0
60 C21658 26.3267 56.5265 70.9531 C.3 0.0 **** -0.053
61 C21722 31.7601 72.3542 60.7642 C.2 0.0 **** 0.0
62 H21877 34.2001 76.1776 56.0166 H 0.0 **** 0.053
63 H21823 26.2339 63.7857 72.1802 H 0.0 **** 0.053
64 H21805 28.0672 55.903 68.6927 H 0.0 **** 0.053
65 C21761 31.251 77.064 58.7412 C.2 0.0 **** 0.0
66 O21801 33.7446 84.4065 52.6113 O.2 0.0 **** -0.419
67 C21683 30.6804 62.917 66.7548 C.2 0.0 **** 0.0
68 C21763 33.1837 76.1205 55.591 C.3 0.0 **** -0.106
69 C21715 31.4838 70.3698 62.2248 C.2 0.0 **** 0.0
70 C21700 32.0072 60.8614 66.6001 C.2 0.0 **** -0.1268
71 H21835 31.246 58.9629 65.4236 H 0.0 **** 0.053
72 H21860 34.4181 71.0564 55.2734 H 0.0 **** 0.353
73 C21714 32.1701 71.0322 61.1686 C.2 0.0 **** 0.0
74 C21692 35.3176 57.3908 66.6517 C.3 0.0 **** -0.106
75 H21855 35.0722 73.0836 58.4812 H 0.0 **** 0.053
76 C21687 32.8864 58.251 67.7597 C.2 0.0 **** 0.0
77 C21657 26.7395 55.2091 70.2767 C.3 0.0 **** -0.053
78 H21899 35.1958 79.7489 54.2585 H 0.0 **** 0.053
79 C21707 30.678 66.3087 64.9468 C.2 0.0 **** 0.0
80 H21871 27.6893 72.9701 64.9608 H 0.0 **** 0.1268
81 C21796 33.7017 81.2738 54.4242 C.2 0.0 **** 0.0
82 O21665 29.7409 57.6839 71.9729 O.3 0.0 **** -0.32
83 C21691 34.8833 56.7993 67.9959 C.3 0.0 **** -0.106
84 H21857 35.7436 74.2669 56.392 H 0.0 **** 0.053
85 O21740 27.1574 71.2129 66.4523 O.3 0.0 **** -0.202
86 H21865 23.3399 69.8678 65.9198 H 0.0 **** 0.053
87 C21688 33.765 57.6121 68.5861 C.2 0.0 **** 0.0
88 H21861 27.5378 70.712 68.4227 H 0.0 **** 0.053
89 H21842 33.3728 64.426 62.8042 H 0.0 **** 0.1268
90 C21717 29.0548 66.2785 66.7515 C.2 0.0 **** -0.1268
91 C21697 33.0708 57.7619 63.4819 C.3 0.0 **** -0.106
92 C21696 31.7688 57.2977 64.1441 C.3 0.0 **** -0.053
93 C21766 30.9305 78.4076 58.4945 C.2 0.0 **** 0.0
94 C21777 28.9081 81.1721 60.0695 C.2 0.0 **** 0.0
95 H21887 30.4449 55.5422 62.4627 H 0.0 **** 0.053
96 H21826 26.7913 61.4519 73.0032 H 0.0 **** 0.053
97 O21774 35.361 67.2687 60.3936 O.3 0.0 **** -0.57
98 C21753 30.9913 75.003 60.0731 C.2 0.0 **** 0.0
99 H21848 36.7824 68.6197 58.2408 H 0.0 **** 0.053
100 C21671 29.77 60.6731 69.6081 C.2 0.0 **** 0.0
101 H21868 23.3831 71.6333 67.6692 H 0.0 **** 0.053
102 H21894 28.5177 85.1933 59.4231 H 0.0 **** 0.1268
103 C21772 30.4279 59.0107 62.7916 C.3 0.0 **** -0.159
104 C21745 24.3135 70.2 66.309 C.3 0.0 **** -0.106
105 H21817 28.5242 59.953 73.1022 H 0.0 **** 0.053
106 C21718 30.0551 69.0359 64.3415 C.2 0.0 **** 0.0
107 C21797 34.7441 80.5246 53.6243 C.3 0.0 **** -0.106
108 C21750 30.4029 74.3613 61.1732 C.2 0.0 **** 0.0
109 H21889 29.4973 56.7406 61.54 H 0.0 **** 0.053
110 C21656 27.0532 55.484 68.7915 C.3 0.0 **** -0.106
111 C21737 28.334 69.1246 66.0784 C.2 0.0 **** 0.042
112 C21733 35.0912 72.5321 57.5314 C.3 0.0 **** -0.106
113 H21896 32.8648 85.318 54.2479 H 0.0 **** 0.1268
114 H21819 27.2557 58.0937 73.0004 H 0.0 **** 0.053
115 C21780 30.2992 82.5902 58.0367 C.2 0.0 **** 0.0
116 O21743 27.5974 68.5075 67.0646 O.3 0.0 **** -0.202
117 C21672 30.0523 59.267 70.0874 C.3 0.0 **** -0.053
118 C21728 34.8923 68.6019 60.1845 C.3 0.0 **** 0.107
119 H21858 36.8934 72.4667 54.6507 H 0.0 **** 0.053
120 C21726 34.3608 70.2948 58.4388 C.3 0.0 **** 0.107
121 H21804 27.045 54.5301 68.2422 H 0.0 **** 0.053
122 C21711 33.0561 66.9654 62.138 C.2 0.0 **** -0.1268
123 H21867 23.8034 70.0834 68.404 H 0.0 **** 0.053
124 C21732 35.4995 71.0702 57.7783 C.3 0.0 **** -0.053
125 C21742 26.3835 69.1838 67.4454 C.3 0.0 **** 0.107
126 C21712 33.6266 69.0453 60.9115 C.2 0.0 **** 0.0
127 C21659 25.06 57.0856 70.2545 C.3 0.0 **** 0.054
128 C21702 31.978 64.2711 64.4231 C.2 0.0 **** -0.012
129 H21874 33.5643 74.6646 58.0122 H 0.0 **** 0.053
130 H21904 35.8753 83.2955 51.8893 H 0.0 **** 0.053
131 H21847 35.6945 69.3102 60.4781 H 0.0 **** 0.053
132 H21844 28.2983 66.7374 67.3709 H 0.0 **** 0.1268
133 H21864 24.7342 68.0745 66.6135 H 0.0 **** 0.053
134 C21727 34.661 68.7941 58.6788 C.3 0.0 **** -0.053
135 H21852 37.0619 70.5387 56.3888 H 0.0 **** 0.053
136 H21811 29.3609 56.6794 70.2032 H 0.0 **** 0.053
137 C21720 30.4444 71.0478 62.9445 C.2 0.0 **** 0.0
138 H21853 36.3477 71.0533 58.4834 H 0.0 **** 0.053
139 C21675 29.0641 63.1729 68.577 C.2 0.0 **** 0.232
140 H21837 33.0851 58.8636 63.4498 H 0.0 **** 0.053
141 O21680 28.7044 64.4117 68.0817 O.3 0.0 **** -0.464
142 C21724 30.1113 72.3867 62.6099 C.2 0.0 **** 0.0
143 H21891 27.9666 78.5442 62.0752 H 0.0 **** 0.1268
144 C21690 32.2733 58.1287 70.5303 C.2 0.0 **** -0.1268
145 C21798 35.8306 81.4497 53.0896 C.3 0.0 **** -0.106
146 C21686 31.4181 60.312 67.7787 C.2 0.0 **** 0.0
147 H21859 35.2168 73.0023 54.4724 H 0.0 **** 0.053
148 O21660 24.8229 56.5075 68.9652 O.3 0.0 **** -0.32
149 H21893 28.0352 83.0755 60.5758 H 0.0 **** 0.1268
150 C21695 31.6458 57.9429 65.5292 C.3 0.0 **** -0.106
151 H21803 26.4551 57.4931 68.1348 H 0.0 **** 0.053
152 H21812 28.1872 55.7159 72.8485 H 0.0 **** 0.053
153 C21764 32.7029 74.6496 55.5195 C.3 0.0 **** -0.106
154 H21863 25.7704 68.8494 65.4072 H 0.0 **** 0.053
155 H21832 36.067 56.7505 66.1607 H 0.0 **** 0.053
156 H21879 33.5753 73.9886 55.4175 H 0.0 **** 0.053
157 C21689 33.6216 57.6667 70.0719 C.3 0.0 **** -0.106
158 H21873 32.9949 72.5081 59.0146 H 0.0 **** 0.1268
159 C21782 28.7192 82.5484 59.9071 C.2 0.0 **** -0.1268
160 H21849 35.8248 67.2115 57.7754 H 0.0 **** 0.053
161 C21762 32.2404 76.9219 56.4807 C.3 0.0 **** -0.053
162 H21822 26.3442 63.3797 69.7546 H 0.0 **** 0.053
163 C21759 32.4897 74.9026 58.0247 C.3 0.0 **** -0.053
164 H21825 25.9367 61.4352 71.4606 H 0.0 **** 0.053
165 H21843 33.7616 66.3959 61.5411 H 0.0 **** 0.1268
166 C21794 32.9565 80.5428 55.4007 C.2 0.0 **** 0.0
167 H21880 32.0845 74.5031 54.6206 H 0.0 **** 0.053
168 C21706 31.3635 66.9938 63.906 C.2 0.0 **** 0.0
169 C21663 28.7116 55.5352 71.8963 C.3 0.0 **** -0.106
170 H21829 31.9827 57.9 71.5543 H 0.0 **** 0.1268
171 H21814 27.5525 53.7239 71.6607 H 0.0 **** 0.053
172 H21902 36.3782 81.8908 53.9386 H 0.0 **** 0.053
173 H21840 34.4065 56.1803 64.1436 H 0.0 **** 0.053
174 C21770 31.5668 79.1217 57.421 C.2 0.0 **** 0.0
175 C21704 32.6243 64.9376 63.4136 C.2 0.0 **** -0.1268
176 C21674 30.0755 62.4143 67.9132 C.2 0.0 **** 0.0
177 H21872 28.02 74.9832 63.5607 H 0.0 **** 0.1268
178 C21661 27.4884 57.5425 70.949 C.3 0.0 **** -0.053
179 C21779 30.4972 81.1969 58.1822 C.2 0.0 **** 0.0
180 H21862 26.0978 68.7086 68.3947 H 0.0 **** 0.053
181 C21799 35.1677 82.5476 52.2745 C.3 0.0 **** -0.086
182 H21841 32.7992 60.299 66.1061 H 0.0 **** 0.1268
183 C21716 29.6727 66.9966 65.7069 C.2 0.0 **** 0.0
184 C21760 32.3626 76.4412 57.9391 C.3 0.0 **** -0.053
185 C21682 30.363 64.2539 66.3123 C.2 0.0 **** 0.0
186 C21710 32.8436 68.325 61.8616 C.2 0.0 **** 0.0
187 C21662 28.8696 56.8646 71.178 C.3 0.0 **** 0.107
188 C21705 32.353 66.3041 63.1402 C.2 0.0 **** 0.0
189 S21703 32.3712 62.5659 64.5768 S.2 0.0 **** 0.024
190 O21725 34.09 70.9932 59.687 O.3 0.0 **** -0.202
191 H21830 35.7273 56.7543 68.7026 H 0.0 **** 0.053
192 C21734 36.008 73.2039 56.5106 C.3 0.0 **** -0.106
193 H21901 36.5564 80.8857 52.4843 H 0.0 **** 0.053
194 C21679 26.8942 61.7235 71.939 C.3 0.0 **** -0.106
195 H21883 29.6394 57.3792 63.9498 H 0.0 **** 0.053
196 C21784 29.8803 85.3727 57.7777 C.2 0.0 **** -0.1268
197 C21790 32.5628 83.3562 55.1034 C.2 0.0 **** 0.0
198 C21751 29.4164 75.0492 61.9454 C.2 0.0 **** 0.042
199 H21875 33.3027 76.8755 58.3337 H 0.0 **** 0.053
200 C21787 31.8829 82.638 56.1314 C.2 0.0 **** 0.0
201 H21869 25.5065 71.4993 69.2747 H 0.0 **** 0.053
202 C21731 35.9667 70.4127 56.4364 C.3 0.0 **** 0.134
203 H21885 31.2139 59.205 62.0455 H 0.0 **** 0.053
204 C21723 30.7595 73.0293 61.5252 C.2 0.0 **** 0.0
205 C21771 30.5093 57.563 63.2929 C.3 0.0 **** -0.053
206 C21713 33.2676 70.3375 60.5776 C.2 0.0 **** 0.042
207 N21736 35.4382 71.0793 55.2455 N.3 0.0 **** -0.727
208 C21791 32.347 84.7599 55.0205 C.2 0.0 **** -0.1268
209 H21808 25.1478 58.1873 70.15 H 0.0 **** 0.053
210 H21818 26.289 59.0802 71.8947 H 0.0 **** 0.053
211 C21781 29.3947 83.2735 58.9124 C.2 0.0 **** 0.0
212 C21789 31.3875 80.5147 57.2945 C.2 0.0 **** 0.0
213 C21765 31.8986 74.2392 56.7675 C.3 0.0 **** -0.106
214 C21741 26.706 70.6465 67.7016 C.3 0.0 **** 0.107
215 H21820 29.3553 58.6417 69.4933 H 0.0 **** 0.053
216 C21678 27.0941 63.2319 71.774 C.3 0.0 **** -0.106
217 C21795 33.4672 82.6413 54.2264 C.2 0.0 **** 0.052
218 H21838 33.1365 57.4024 62.4435 H 0.0 **** 0.053
219 C21670 28.7208 61.4357 70.2365 C.2 0.0 **** 0.0
220 H21810 27.4926 58.0422 69.9671 H 0.0 **** 0.053
221 C21757 29.695 77.0218 60.6052 C.2 0.0 **** 0.0265
222 C21694 32.9395 57.9524 66.3102 C.2 0.0 **** 0.0
223 C21783 29.208 84.6812 58.7504 C.2 0.0 **** -0.1268
224 C21669 28.0288 60.9463 71.3329 C.2 0.0 **** 0.0
225 C21677 27.2915 63.5664 70.2951 C.3 0.0 **** -0.106
226 C21755 32.2729 73.0179 59.6328 C.2 0.0 **** -0.1268
227 H21816 30.5489 59.526 72.1461 H 0.0 **** 0.053
228 H21878 33.2364 76.5455 54.5786 H 0.0 **** 0.053
229 C21673 30.4126 61.1249 68.4687 C.2 0.0 **** 0.0
230 C21655 26.0265 56.4725 68.1906 C.3 0.0 **** 0.054
231 C21749 28.4516 72.4428 64.3893 C.2 0.0 **** -0.1268
232 H21824 27.9875 63.5405 72.3407 H 0.0 **** 0.053
233 C21699 31.6473 62.0872 66.0963 C.2 0.0 **** -0.012
234 H21854 34.0587 72.5479 57.142 H 0.0 **** 0.053
235 C21775 28.4691 79.0907 61.2773 C.2 0.0 **** -0.1268
236 H21815 28.5996 54.0822 70.286 H 0.0 **** 0.053
237 H21821 27.5142 64.6343 70.1575 H 0.0 **** 0.053
238 H21903 34.6666 82.1044 51.394 H 0.0 **** 0.053
239 C21748 29.1019 73.0952 63.342 C.2 0.0 **** 0.0
240 C21721 29.7574 70.3885 63.997 C.2 0.0 **** 0.0
241 C21684 31.4389 58.8033 69.708 C.2 0.0 **** 0.0
242 C21768 29.3805 78.3824 60.4277 C.2 0.0 **** 0.0
243 C21664 27.9221 54.5419 71.0244 C.3 0.0 **** -0.106
244 H21884 29.4573 59.197 62.3079 H 0.0 **** 0.053
245 C21752 28.7786 74.4438 62.9925 C.2 0.0 **** -0.1268
246 H21851 36.3221 68.4275 55.6606 H 0.0 **** 0.053
247 C21693 34.1119 57.5572 65.7597 C.2 0.0 **** 0.0
248 H21833 35.7968 58.3737 66.8254 H 0.0 **** 0.053
249 H21856 37.0444 73.173 56.8832 H 0.0 **** 0.053
250 H21886 30.549 59.7449 63.6027 H 0.0 **** 0.053
@<TRIPOS>BOND
1 7 6 un
2 24 25 1
3 41 246 1
4 153 156 1
5 77 110 1
6 60 77 1
7 127 60 1
8 148 127 1
9 230 110 1
10 230 148 1
11 187 178 1
12 169 187 1
13 243 169 1
14 60 178 1
15 77 243 1
16 26 82 1
17 13 26 1
18 9 13 1
19 187 82 1
20 178 9 1
21 219 224 un
22 100 219 un
23 117 100 un
24 13 224 1
25 26 117 1
26 176 229 1
27 139 176 un
28 1 139 un
29 100 229 un
30 219 1 un
31 216 225 1
32 194 216 1
33 224 194 1
34 1 225 1
35 23 141 1
36 185 23 un
37 67 185 un
38 139 141 1
39 176 67 un
40 42 241 un
41 146 42 2
42 117 241 1
43 229 146 un
44 87 76 2
45 157 87 1
46 144 157 1
47 42 76 1
48 241 144 2
49 74 83 1
50 247 74 1
51 222 247 2
52 87 83 1
53 76 222 1
54 92 150 1
55 91 92 1
56 10 91 1
57 222 150 1
58 247 10 1
59 70 233 un
60 146 70 un
61 67 233 un
62 128 44 un
63 189 128 1
64 233 189 un
65 185 44 un
66 188 175 un
67 168 188 un
68 79 168 un
69 128 175 un
70 44 79 un
71 32 38 un
72 186 32 un
73 122 186 un
74 168 38 un
75 188 122 un
76 206 126 un
77 73 206 un
78 69 73 un
79 186 126 un
80 32 69 un
81 90 183 un
82 23 90 un
83 79 183 un
84 8 106 un
85 183 8 un
86 38 106 un
87 240 137 un
88 106 240 un
89 69 137 un
90 204 61 un
91 142 204 un
92 137 142 un
93 73 61 un
94 120 190 1
95 134 120 1
96 118 134 1
97 206 190 1
98 126 118 1
99 41 34 1
100 202 41 1
101 124 202 1
102 134 34 1
103 120 124 1
104 192 112 1
105 54 192 1
106 207 54 1
107 124 112 1
108 202 207 1
109 29 111 un
110 16 29 un
111 240 16 un
112 8 111 un
113 214 85 1
114 125 214 1
115 116 125 1
116 29 85 1
117 111 116 1
118 104 21 1
119 49 104 1
120 50 49 1
121 125 21 1
122 214 50 1
123 231 239 un
124 16 231 un
125 142 239 un
126 198 108 un
127 245 198 un
128 239 245 un
129 204 108 un
130 58 98 un
131 226 58 un
132 61 226 un
133 108 98 un
134 221 36 1
135 12 221 un
136 198 36 1
137 98 12 1
138 184 163 1
139 65 184 1
140 58 163 1
141 12 65 un
142 68 161 1
143 153 68 1
144 213 153 1
145 184 161 1
146 163 213 1
147 7 93 1
148 242 7 1
149 221 242 un
150 65 93 un
151 161 51 1
152 93 174 un
153 51 174 un
154 92 205 1
155 205 103 1
156 205 3 1
157 118 97 1
158 45 235 1
159 94 45 un
160 6 94 1
161 242 235 un
162 115 179 un
163 211 115 1
164 159 211 un
165 6 179 un
166 94 159 un
167 196 223 un
168 28 196 1
169 56 28 1
170 211 223 un
171 115 56 un
172 59 200 un
173 212 59 un
174 179 212 un
175 56 200 un
176 208 197 un
177 24 208 un
178 28 24 un
179 200 197 un
180 166 47 un
181 59 166 un
182 174 212 un
183 51 47 un
184 81 217 un
185 166 81 un
186 197 217 un
187 145 107 1
188 181 145 1
189 18 181 1
190 81 107 1
191 217 18 1
192 18 66 2
193 230 14 1
194 230 151 1
195 110 121 1
196 110 64 1
197 77 57 1
198 60 4 1
199 127 209 1
200 127 27 1
201 178 220 1
202 187 136 1
203 169 152 1
204 169 39 1
205 243 171 1
206 243 236 1
207 26 227 1
208 13 105 1
209 9 210 1
210 9 114 1
211 117 215 1
212 225 237 1
213 225 162 1
214 216 63 1
215 216 232 1
216 194 164 1
217 194 96 1
218 157 2 1
219 157 35 1
220 144 170 1
221 83 191 1
222 83 31 1
223 74 155 1
224 74 248 1
225 150 22 1
226 150 71 1
227 92 40 1
228 91 140 1
229 91 218 1
230 10 15 1
231 10 173 1
232 70 182 1
233 175 89 1
234 122 165 1
235 90 132 1
236 120 43 1
237 134 53 1
238 118 131 1
239 34 99 1
240 34 160 1
241 41 17 1
242 202 135 1
243 124 138 1
244 112 234 1
245 112 75 1
246 192 249 1
247 192 84 1
248 54 119 1
249 54 147 1
250 207 72 1
251 214 88 1
252 125 180 1
253 21 154 1
254 21 133 1
255 104 86 1
256 104 19 1
257 49 123 1
258 49 101 1
259 50 201 1
260 50 30 1
261 231 80 1
262 245 177 1
263 226 158 1
264 163 129 1
265 184 199 1
266 161 33 1
267 68 62 1
268 68 228 1
269 153 167 1
270 213 46 1
271 213 11 1
272 205 195 1
273 103 244 1
274 103 203 1
275 103 250 1
276 3 95 1
277 3 48 1
278 3 109 1
279 97 55 1
280 235 143 1
281 45 20 1
282 159 149 1
283 223 102 1
284 196 5 1
285 208 113 1
286 47 52 1
287 107 78 1
288 107 37 1
289 145 193 1
290 145 172 1
291 181 238 1
292 181 130 1
@<TRIPOS>MOLECULE
Sketch 4
250 292
SMALL
USER_CHARGES


@<TRIPOS>ATOM
1 H14351 66.924 37.5702 10.0452 H 0.0 **** 0.053
2 H14362 66.9953 41.1074 25.9906 H 0.0 **** 0.053
3 C14269 69.6095 28.5893 15.3877 C.2 0.0 **** 0.0
4 H14392 70.0663 27.7886 22.9124 H 0.0 **** 0.1268
5 H14302 67.9725 53.1311 22.3646 H 0.0 **** 0.053
6 C14206 65.6605 41.1828 18.9885 C.2 0.0 **** 0.0
7 C14200 63.4433 47.5318 19.2207 C.2 0.0 **** -0.1268
8 C14189 59.9995 51.0179 20.1438 C.3 0.0 **** -0.106
9 H14347 64.4201 37.6683 14.2999 H 0.0 **** 0.053
10 C14175 64.5285 46.0787 23.0448 C.2 0.0 **** 0.232
11 C14208 66.0806 39.852 19.2487 C.2 0.0 **** 0.0
12 O14180 65.1256 44.8394 23.174 O.3 0.0 **** -0.464
13 C14231 66.7305 35.8319 11.3141 C.3 0.0 **** 0.134
14 H14380 70.9228 32.1109 13.2321 H 0.0 **** 0.053
15 C14198 63.0893 50.2744 15.2606 C.3 0.0 **** -0.106
16 C14298 68.9858 24.5211 11.4223 C.3 0.0 **** -0.106
17 C14186 63.167 48.3652 20.3463 C.2 0.0 **** 0.0
18 C14239 67.2194 37.712 22.1406 C.2 0.0 **** 0.0
19 H14307 64.6936 53.8085 25.8643 H 0.0 **** 0.053
20 H14401 68.7916 24.8525 10.3909 H 0.0 **** 0.053
21 C14229 65.9841 38.144 11.9503 C.3 0.0 **** -0.106
22 C14251 68.4521 33.2905 20.5516 C.2 0.0 **** 0.042
23 C14226 66.7394 36.5455 13.7825 C.3 0.0 **** 0.107
24 H14390 63.9186 39.8701 14.4728 H 0.0 **** 0.41
25 H14375 67.6712 30.2862 15.8775 H 0.0 **** 0.053
26 C14168 63.7571 51.4071 25.6878 C.3 0.0 **** -0.106
27 C14287 70.1872 24.5012 16.4027 C.2 0.0 **** 0.0
28 C14161 64.2512 52.2142 24.4903 C.3 0.0 **** -0.053
29 C14221 66.8804 38.1387 20.8207 C.2 0.0 **** 0.0
30 C14218 66.425 39.4711 20.5876 C.2 0.0 **** 0.0
31 C14248 67.817 35.4877 21.3496 C.2 0.0 **** 0.0
32 C14185 62.4528 49.5593 20.2296 C.2 0.0 **** 0.0
33 H14368 69.5882 38.5402 27.7613 H 0.0 **** 0.053
34 C14159 66.581 52.8978 25.3227 C.3 0.0 **** 0.054
35 H14305 65.1939 53.3179 22.0395 H 0.0 **** 0.053
36 H14303 66.8119 51.9132 22.9599 H 0.0 **** 0.053
37 H14359 68.5555 33.0746 10.8757 H 0.0 **** 0.053
38 C14267 69.606 28.813 19.1563 C.2 0.0 **** 0.0
39 C14286 70.3351 24.1382 17.7757 C.2 0.0 **** 0.0
40 C14264 69.88 32.0367 13.5771 C.3 0.0 **** -0.106
41 H14358 67.1296 33.3763 9.87307 H 0.0 **** 0.053
42 C14271 66.6555 50.3714 16.8376 C.3 0.0 **** -0.053
43 C14155 67.1066 52.9798 23.0234 C.3 0.0 **** 0.054
44 C14242 67.3657 40.4326 25.2057 C.3 0.0 **** 0.107
45 C14215 66.6331 37.5812 18.4228 C.2 0.0 **** 0.0
46 H14333 60.3235 49.4237 16.5211 H 0.0 **** 0.053
47 C14176 64.3729 46.8077 24.1911 C.2 0.0 **** 0.0
48 H14373 67.4625 34.7009 15.5632 H 0.0 **** 0.1268
49 C14190 60.7717 50.8527 21.4158 C.2 0.0 **** -0.1268
50 H14404 69.7091 22.5047 10.9116 H 0.0 **** 0.053
51 O14256 68.9203 32.0152 20.8293 O.3 0.0 **** -0.0685
52 H14369 66.9263 38.6399 27.6694 H 0.0 **** 0.053
53 C14280 70.2396 25.126 18.8002 C.2 0.0 **** 0.0
54 H14311 63.2456 52.6396 22.5891 H 0.0 **** 0.053
55 C14224 67.479 35.8944 20.0165 C.2 0.0 **** 0.0
56 H14355 66.1726 33.7348 14.0355 H 0.0 **** 0.053
57 C14254 68.1554 33.1633 16.8395 C.2 0.0 **** 0.0
58 O14301 70.9331 21.8726 13.0087 O.2 0.0 **** -0.419
59 C14163 62.6925 54.1524 24.0041 C.3 0.0 **** -0.106
60 H14313 61.7585 54.4409 23.501 H 0.0 **** 0.053
61 C14209 66.1608 38.9056 18.1814 C.2 0.0 **** 0.0
62 C14174 64.1461 46.5461 21.7508 C.2 0.0 **** 0.0
63 C14272 67.0398 48.8861 16.8427 C.3 0.0 **** -0.159
64 C14247 67.6235 38.4993 26.83 C.3 0.0 **** -0.106
65 C14228 65.2265 38.4246 14.396 C.3 0.0 **** 0.107
66 C14259 68.4882 32.2711 15.6732 C.3 0.0 **** -0.053
67 H14387 67.2111 52.1975 15.7727 H 0.0 **** 0.053
68 C14177 64.8478 46.2691 25.5168 C.3 0.0 **** -0.106
69 H14371 67.9134 36.1106 23.4072 H 0.0 **** 0.1268
70 H14353 65.1614 35.5185 12.7924 H 0.0 **** 0.053
71 H14342 64.7595 43.1816 16.3356 H 0.0 **** 0.1268
72 H14332 60.5165 50.8426 15.4728 H 0.0 **** 0.053
73 H14391 69.526 30.1324 22.3422 H 0.0 **** 0.1268
74 H14346 67.2088 38.6567 13.6392 H 0.0 **** 0.053
75 C14281 70.4059 24.7537 20.1733 C.2 0.0 **** 0.0
76 H14318 64.6098 51.0679 26.2945 H 0.0 **** 0.053
77 C14199 64.0458 46.3036 19.3404 C.2 0.0 **** -0.012
78 C14214 66.7578 36.6452 17.358 C.2 0.0 **** 0.0
79 C14292 70.6634 21.822 17.099 C.2 0.0 **** -0.1268
80 H14312 62.511 54.2258 25.0886 H 0.0 **** 0.053
81 C14182 64.9289 44.4277 20.7869 C.2 0.0 **** 0.0
82 C14164 63.8474 55.0805 23.5855 C.3 0.0 **** -0.106
83 C14249 67.6698 36.4069 22.3882 C.2 0.0 **** -0.1268
84 H14357 66.9553 32.1097 12.3144 H 0.0 **** 0.053
85 C14217 65.6907 42.7336 22.3846 C.2 0.0 **** -0.1268
86 H14316 61.1228 50.0415 24.0149 H 0.0 **** 0.053
87 C14178 64.0793 46.8887 26.6846 C.3 0.0 **** -0.106
88 C14270 69.6109 28.1986 16.7557 C.2 0.0 **** 0.0
89 H14400 70.398 26.1143 11.7971 H 0.0 **** 0.053
90 H14321 64.7655 45.1727 25.5265 H 0.0 **** 0.053
91 H14402 68.0313 24.1621 11.8408 H 0.0 **** 0.053
92 C14262 69.6565 30.0685 15.119 C.3 0.0 **** -0.053
93 H14388 67.2186 50.7311 14.7613 H 0.0 **** 0.053
94 H14376 70.6671 30.3869 15.4454 H 0.0 **** 0.053
95 C14179 64.1241 48.4149 26.5791 C.3 0.0 **** -0.106
96 C14234 66.6684 33.1249 11.9969 C.3 0.0 **** -0.106
97 C14233 66.7461 34.0983 13.1719 C.3 0.0 **** -0.106
98 H14337 64.5501 48.7491 15.7034 H 0.0 **** 0.053
99 H14350 68.007 37.5724 11.4406 H 0.0 **** 0.053
100 C14188 60.8123 50.7837 18.9127 C.2 0.0 **** 0.0
101 O14160 67.5661 53.2647 24.3492 O.3 0.0 **** -0.32
102 H14339 62.5819 49.6171 14.531 H 0.0 **** 0.053
103 C14216 65.862 41.7557 21.3829 C.2 0.0 **** 0.0
104 C14166 62.1169 50.5099 23.9694 C.3 0.0 **** 0.107
105 C14235 67.5945 33.6093 10.846 C.3 0.0 **** 0.081
106 C14157 65.2422 54.475 23.8866 C.3 0.0 **** -0.053
107 O14225 66.178 36.1304 15.0599 O.3 0.0 **** -0.202
108 C14184 61.9406 50.1745 21.4513 C.2 0.0 **** 0.0
109 C14273 67.4507 51.1224 15.7647 C.3 0.0 **** -0.159
110 C14204 64.9687 42.9053 17.3716 C.2 0.0 **** -0.1268
111 C14246 68.9691 39.1923 27.1278 C.3 0.0 **** -0.106
112 C14192 60.8008 50.42 16.4491 C.3 0.0 **** -0.106
113 C14227 66.3463 38.0028 13.4338 C.3 0.0 **** -0.053
114 H14378 70.0595 29.9448 12.9804 H 0.0 **** 0.053
115 H14381 69.6404 33.8641 14.754 H 0.0 **** 0.053
116 H14335 64.7605 49.2813 18.3418 H 0.0 **** 0.053
117 C14232 66.2643 35.5028 12.772 C.3 0.0 **** -0.053
118 C14284 70.7449 22.4366 19.5053 C.2 0.0 **** -0.1268
119 H14343 65.2535 40.9818 15.5981 H 0.0 **** 0.1268
120 H14382 70.6176 32.6343 15.5537 H 0.0 **** 0.053
121 C14296 69.8194 25.2498 13.6846 C.2 0.0 **** 0.0
122 C14195 64.3759 50.2321 17.9425 C.3 0.0 **** -0.106
123 C14196 65.1385 50.5932 16.6627 C.3 0.0 **** -0.053
124 H14327 59.1202 50.3365 20.1495 H 0.0 **** 0.053
125 C14197 64.5348 49.8283 15.4795 C.3 0.0 **** -0.106
126 C14167 62.8768 50.1928 25.2699 C.3 0.0 **** -0.053
127 H14326 63.5403 48.8849 27.3885 H 0.0 **** 0.053
128 H14354 67.7966 34.1677 13.5031 H 0.0 **** 0.053
129 H14397 70.8341 20.7777 17.3693 H 0.0 **** 0.1268
130 O14274 64.7218 39.6882 13.9609 O.3 0.0 **** -0.57
131 H14356 65.6253 33.0665 11.647 H 0.0 **** 0.053
132 H14396 70.6076 21.411 14.9998 H 0.0 **** 0.1268
133 C14283 70.6611 23.3838 20.4912 C.2 0.0 **** -0.1268
134 H14336 64.9827 51.6707 16.4676 H 0.0 **** 0.053
135 O14240 67.3905 38.1659 24.4549 O.3 0.0 **** -0.202
136 C14238 67.0838 38.6441 23.2018 C.2 0.0 **** 0.042
137 C14193 62.3006 50.2791 16.5373 C.2 0.0 **** 0.0
138 H14352 65.904 35.5369 10.6452 H 0.0 **** 0.053
139 C14297 69.4975 25.679 12.2704 C.3 0.0 **** -0.106
140 C14241 66.9624 39.008 25.5472 C.3 0.0 **** 0.107
141 S14203 64.4285 45.4577 17.8572 S.2 0.0 **** 0.024
142 C14300 70.3872 22.9683 12.8701 C.2 0.0 **** 0.347
143 H14334 64.5947 50.9778 18.7277 H 0.0 **** 0.053
144 H14403 70.9563 23.7552 10.9871 H 0.0 **** 0.053
145 C14170 63.7535 48.1164 24.1111 C.2 0.0 **** 0.0
146 C14222 67.3382 35.3487 17.6063 C.2 0.0 **** 0.0
147 H14323 64.5026 46.5516 27.6431 H 0.0 **** 0.053
148 C14260 68.65 30.7787 16.0438 C.3 0.0 **** -0.053
149 C14156 65.9232 53.8948 22.6299 C.3 0.0 **** -0.106
150 H14340 63.0685 51.2846 14.8072 H 0.0 **** 0.053
151 C14245 69.6989 39.5511 25.8285 C.3 0.0 **** -0.106
152 H14370 67.7652 37.4143 26.7093 H 0.0 **** 0.053
153 C14291 70.5283 22.1696 15.7711 C.2 0.0 **** -0.1268
154 C14173 63.5289 47.8488 21.6693 C.2 0.0 **** 0.0
155 H14320 63.7035 50.6052 22.5095 H 0.0 **** 0.053
156 C14211 65.4371 40.6405 16.6121 C.2 0.0 **** -0.1268
157 H14310 64.8624 51.5519 23.8565 H 0.0 **** 0.053
158 C14261 69.0238 30.483 17.4721 C.2 0.0 **** 0.0
159 C14265 69.7297 32.7796 14.9182 C.3 0.0 **** -0.106
160 C14258 68.8502 31.4356 18.4797 C.2 0.0 **** 0.0
161 H14309 66.9269 53.352 26.2619 H 0.0 **** 0.053
162 C14210 65.7834 39.3009 16.8472 C.2 0.0 **** 0.0
163 H14393 70.4326 25.4476 22.2159 H 0.0 **** 0.1268
164 C14183 64.3971 45.7594 20.6201 C.2 0.0 **** 0.0
165 H14367 68.7927 40.1159 27.7053 H 0.0 **** 0.053
166 C14230 66.9789 37.3303 11.1159 C.3 0.0 **** -0.106
167 C14244 68.8894 40.5863 25.0178 C.3 0.0 **** -0.106
168 H14349 65.989 39.2057 11.6729 H 0.0 **** 0.053
169 C14212 65.7667 38.3131 15.8182 C.2 0.0 **** 0.0
170 O14165 61.8521 51.9227 23.9416 O.3 0.0 **** -0.32
171 H14386 66.4443 48.2993 17.5585 H 0.0 **** 0.053
172 H14389 68.5341 51.0089 15.9223 H 0.0 **** 0.053
173 C14294 69.79 26.247 14.7084 C.2 0.0 **** 0.0
174 H14361 65.8629 38.9488 25.6088 H 0.0 **** 0.053
175 H14317 62.114 50.1006 26.0667 H 0.0 **** 0.053
176 H14344 65.8996 42.5115 23.4207 H 0.0 **** 0.1268
177 C14277 70.0538 27.0771 20.8585 C.2 0.0 **** 0.0
178 H14399 68.7447 26.4791 12.2995 H 0.0 **** 0.053
179 C14202 64.8419 43.831 18.3756 C.2 0.0 **** -0.012
180 H14379 69.2571 32.5305 12.8179 H 0.0 **** 0.053
181 C14275 69.633 29.3829 21.5582 C.2 0.0 **** -0.1268
182 H14315 63.7745 55.2939 22.5064 H 0.0 **** 0.053
183 C14207 65.5448 42.138 20.0358 C.2 0.0 **** 0.0
184 C14252 68.2956 34.1622 21.5934 C.2 0.0 **** -0.1268
185 C14266 69.4361 29.1805 17.7914 C.2 0.0 **** 0.0
186 C14201 65.1044 43.4783 19.7479 C.2 0.0 **** 0.0
187 C14191 60.3001 51.3009 17.5975 C.3 0.0 **** -0.106
188 C14169 63.6093 48.8922 25.2503 C.2 0.0 **** 0.0
189 C14171 63.3195 48.5884 22.8203 C.2 0.0 **** 0.0
190 C14219 66.3222 40.4105 21.6569 C.2 0.0 **** 0.0
191 H14341 63.128 47.8716 18.2344 H 0.0 **** 0.1268
192 H14308 66.5839 51.7947 25.4471 H 0.0 **** 0.053
193 H14304 66.2662 54.7253 21.9939 H 0.0 **** 0.053
194 C14289 69.8382 26.8483 17.0927 C.2 0.0 **** 0.0
195 H14384 68.1016 48.7638 17.1045 H 0.0 **** 0.053
196 H14338 65.128 49.9821 14.565 H 0.0 **** 0.053
197 C14268 69.4448 29.7831 20.1949 C.2 0.0 **** 0.0
198 C14158 65.1517 53.3768 24.9587 C.3 0.0 **** -0.053
199 C14293 69.6656 27.6279 14.4037 C.2 0.0 **** -0.1268
200 C14255 67.6454 34.4241 16.5894 C.2 0.0 **** -0.1268
201 H14377 68.408 30.4156 13.4073 H 0.0 **** 0.053
202 C14282 70.3108 25.738 21.1701 C.2 0.0 **** -0.1268
203 C14213 66.2631 37.0506 16.0824 C.2 0.0 **** 0.042
204 C14263 69.4678 30.5472 13.6842 C.3 0.0 **** -0.106
205 H14360 68.6703 35.2298 11.5146 H 0.0 **** 0.353
206 H14374 67.6538 32.3393 14.9586 H 0.0 **** 0.053
207 H14322 65.9244 46.4957 25.6341 H 0.0 **** 0.053
208 H14365 70.7011 39.9502 26.0431 H 0.0 **** 0.053
209 C14257 69.0802 31.0908 19.8226 C.2 0.0 **** 0.0265
210 H14319 63.1591 52.0803 26.3221 H 0.0 **** 0.053
211 C14295 70.134 23.9198 13.9947 C.2 0.0 **** 0.052
212 H14328 59.547 52.0276 20.0922 H 0.0 **** 0.053
213 C14162 63.024 52.7075 23.6717 C.3 0.0 **** 0.107
214 C14187 62.018 50.146 18.9635 C.2 0.0 **** 0.0
215 H14348 64.9582 37.7763 11.7771 H 0.0 **** 0.053
216 C14250 68.157 33.6735 19.2066 C.2 0.0 **** 0.0
217 C14278 69.8918 27.4592 19.4876 C.2 0.0 **** 0.0
218 H14345 67.8391 36.4728 13.8771 H 0.0 **** 0.053
219 H14364 69.1676 41.6094 25.3102 H 0.0 **** 0.053
220 H14324 63.0292 46.5563 26.6481 H 0.0 **** 0.053
221 H14395 70.9329 21.3905 19.7548 H 0.0 **** 0.1268
222 H14330 59.1994 51.3447 17.6151 H 0.0 **** 0.053
223 C14276 69.9292 28.0854 21.8711 C.2 0.0 **** -0.1268
224 C14172 62.7918 49.9992 22.6866 C.3 0.0 **** -0.053
225 H14329 60.36 51.3019 22.318 H 0.0 **** 0.1268
226 C14279 69.9859 26.4771 18.4662 C.2 0.0 **** 0.0
227 C14181 65.2426 44.0028 22.0906 C.2 0.0 **** 0.232
228 H14394 70.7853 23.1096 21.5404 H 0.0 **** 0.1268
229 H14385 66.8906 48.446 15.8446 H 0.0 **** 0.053
230 C14288 69.9429 25.8636 16.0692 C.2 0.0 **** 0.0
231 H14372 68.5383 33.853 22.6106 H 0.0 **** 0.1268
232 H14306 65.9014 55.2651 24.2748 H 0.0 **** 0.053
233 O14243 66.6491 40.8404 24.024 O.3 0.0 **** -0.202
234 C14194 62.8774 50.169 17.7576 C.2 0.0 **** 0.0
235 C14237 66.6905 39.9534 22.9716 C.2 0.0 **** 0.042
236 C14290 70.2997 23.517 15.3763 C.2 0.0 **** 0.0
237 H14383 66.926 50.798 17.8208 H 0.0 **** 0.053
238 H14363 69.1127 40.4848 23.9459 H 0.0 **** 0.053
239 C14253 68.3855 32.7644 18.1626 C.2 0.0 **** 0.0
240 C14220 67.0021 37.2064 19.7575 C.2 0.0 **** 0.0
241 H14331 60.6563 52.3407 17.45 H 0.0 **** 0.053
242 H14325 65.1695 48.753 26.7263 H 0.0 **** 0.053
243 H14398 69.6576 27.9457 13.3645 H 0.0 **** 0.1268
244 C14205 65.3592 41.5682 17.6461 C.2 0.0 **** 0.0
245 C14285 70.5852 22.7856 18.1294 C.2 0.0 **** 0.0
246 N14236 67.8896 35.0497 10.882 N.3 0.0 **** -0.727
247 H14366 69.831 38.6381 25.2292 H 0.0 **** 0.053
248 C14223 67.6511 34.9783 18.9483 C.2 0.0 **** 0.0
249 C14299 70.0185 23.4068 11.4582 C.3 0.0 **** -0.086
250 H14314 63.7355 56.0452 24.1028 H 0.0 **** 0.053
@<TRIPOS>BOND
1 96 97 1
2 123 122 1
3 125 123 1
4 186 183 un
5 16 20 1
6 65 9 1
7 197 181 un
8 43 5 1
9 32 214 1
10 106 149 1
11 198 106 1
12 34 198 1
13 101 34 1
14 43 149 1
15 43 101 1
16 213 28 1
17 59 213 1
18 82 59 1
19 198 28 1
20 106 82 1
21 104 170 1
22 126 104 1
23 26 126 1
24 213 170 1
25 28 26 1
26 145 188 un
27 189 145 un
28 224 189 un
29 126 188 1
30 104 224 1
31 62 154 1
32 10 62 un
33 47 10 un
34 189 154 un
35 145 47 un
36 87 68 1
37 95 87 1
38 188 95 1
39 47 68 1
40 227 12 1
41 81 227 un
42 164 81 un
43 10 12 1
44 62 164 un
45 32 108 un
46 17 32 2
47 224 108 1
48 154 17 un
49 100 214 2
50 8 100 1
51 49 8 1
52 108 49 2
53 112 187 1
54 137 112 1
55 234 137 2
56 100 187 1
57 214 234 1
58 15 125 1
59 234 122 1
60 137 15 1
61 7 77 un
62 17 7 un
63 164 77 un
64 179 186 un
65 141 179 1
66 77 141 un
67 81 186 un
68 244 110 un
69 6 244 un
70 183 6 un
71 179 110 un
72 61 11 un
73 162 61 un
74 156 162 un
75 6 11 un
76 244 156 un
77 203 169 un
78 78 203 un
79 45 78 un
80 162 169 un
81 61 45 un
82 85 103 un
83 227 85 un
84 183 103 un
85 190 30 un
86 103 190 un
87 11 30 un
88 29 240 un
89 30 29 un
90 45 240 un
91 248 146 un
92 55 248 un
93 240 55 un
94 78 146 un
95 23 107 1
96 113 23 1
97 65 113 1
98 203 107 1
99 169 65 1
100 166 21 1
101 13 166 1
102 117 13 1
103 113 21 1
104 23 117 1
105 105 96 1
106 246 105 1
107 117 97 1
108 13 246 1
109 136 235 un
110 18 136 un
111 29 18 un
112 190 235 un
113 140 135 1
114 44 140 1
115 233 44 1
116 136 135 1
117 235 233 1
118 151 167 1
119 111 151 1
120 64 111 1
121 44 167 1
122 140 64 1
123 83 31 un
124 18 83 un
125 55 31 un
126 22 216 un
127 184 22 un
128 31 184 un
129 248 216 un
130 57 239 un
131 200 57 un
132 146 200 un
133 216 239 un
134 209 51 1
135 160 209 un
136 22 51 1
137 239 160 1
138 148 66 1
139 158 148 1
140 57 66 1
141 160 158 un
142 204 92 1
143 40 204 1
144 159 40 1
145 148 92 1
146 66 159 1
147 38 185 1
148 197 38 1
149 209 197 un
150 158 185 un
151 92 3 1
152 185 88 un
153 3 88 un
154 123 42 1
155 42 63 1
156 42 109 1
157 65 130 1
158 223 181 1
159 177 223 un
160 217 177 1
161 38 217 un
162 53 226 un
163 75 53 1
164 202 75 un
165 217 226 un
166 177 202 un
167 118 133 un
168 245 118 1
169 39 245 1
170 75 133 un
171 53 39 un
172 230 27 un
173 194 230 un
174 226 194 un
175 39 27 un
176 153 236 un
177 79 153 un
178 245 79 un
179 27 236 un
180 173 199 un
181 230 173 un
182 88 194 un
183 3 199 un
184 121 211 un
185 173 121 un
186 236 211 un
187 16 139 1
188 249 16 1
189 142 249 1
190 121 139 1
191 211 142 1
192 142 58 2
193 43 36 1
194 149 193 1
195 149 35 1
196 106 232 1
197 198 19 1
198 34 192 1
199 34 161 1
200 28 157 1
201 213 54 1
202 59 80 1
203 59 60 1
204 82 250 1
205 82 182 1
206 104 86 1
207 126 175 1
208 26 76 1
209 26 210 1
210 224 155 1
211 68 90 1
212 68 207 1
213 87 147 1
214 87 220 1
215 95 242 1
216 95 127 1
217 8 124 1
218 8 212 1
219 49 225 1
220 187 222 1
221 187 241 1
222 112 72 1
223 112 46 1
224 122 143 1
225 122 116 1
226 123 134 1
227 125 98 1
228 125 196 1
229 15 102 1
230 15 150 1
231 7 191 1
232 110 71 1
233 156 119 1
234 85 176 1
235 23 218 1
236 113 74 1
237 21 215 1
238 21 168 1
239 166 99 1
240 166 1 1
241 13 138 1
242 117 70 1
243 97 128 1
244 97 56 1
245 96 131 1
246 96 84 1
247 105 41 1
248 105 37 1
249 246 205 1
250 140 174 1
251 44 2 1
252 167 238 1
253 167 219 1
254 151 208 1
255 151 247 1
256 111 165 1
257 111 33 1
258 64 52 1
259 64 152 1
260 83 69 1
261 184 231 1
262 200 48 1
263 66 206 1
264 148 25 1
265 92 94 1
266 204 201 1
267 204 114 1
268 40 180 1
269 40 14 1
270 159 115 1
271 159 120 1
272 42 237 1
273 63 195 1
274 63 229 1
275 63 171 1
276 109 67 1
277 109 93 1
278 109 172 1
279 130 24 1
280 181 73 1
281 223 4 1
282 202 163 1
283 133 228 1
284 118 221 1
285 153 132 1
286 79 129 1
287 199 243 1
288 139 178 1
289 139 89 1
290 16 91 1
291 249 144 1
292 249 50 1
@<TRIPOS>MOLECULE
Sketch 4
188 213
SMALL
USER_CHARGES


@<TRIPOS>ATOM
1 H11335 61.9114 43.0148 45.1088 H 0.0 **** 0.41
2 H11307 68.1274 48.8405 43.1146 H 0.0 **** 0.053
3 C11184 56.4354 45.8568 43.6152 C.ar 0.0 **** -0.1268
4 C11247 62.206 46.1539 39.8911 C.2 0.0 **** 0.042
5 H11278 64.2337 45.2997 32.6607 H 0.0 **** 0.053
6 C11252 63.3554 43.2525 36.932 C.ar 0.0 **** 0.0
7 C11210 71.9846 48.4225 45.8654 C.ar 0.0 **** 0.0
8 H11315 74.548 52.082 43.346 H 0.0 **** 0.1268
9 C11235 77.5578 47.0409 49.1801 C.3 0.0 **** -0.086
10 C11260 63.513 41.9625 32.0667 C.3 0.0 **** -0.106
11 H11270 62.9495 41.3539 36.0724 H 0.0 **** 0.053
12 C11164 46.988 47.379 44.3847 C.ar 0.0 **** 0.0
13 C11227 72.6 46.4006 47.8579 C.ar 0.0 **** 0.0
14 C11258 63.6731 42.1801 35.9403 C.3 0.0 **** -0.106
15 H11280 62.3571 47.441 38.522 H 0.0 **** 0.41
16 C11249 62.8077 43.8309 39.3127 C.2 0.0 **** 0.052
17 C11203 67.2063 47.011 45.6519 C.2 0.0 **** 0.0
18 C11215 72.5099 51.3439 43.4269 C.ar 0.0 **** 0.0
19 C11161 44.6838 50.7907 43.2027 C.ar 0.0 **** -0.1268
20 C11188 59.405 43.5668 43.7202 C.ar 0.0 **** -0.1268
21 C11156 42.6767 49.6227 43.9684 C.ar 0.0 **** 0.0
22 H11314 73.6844 49.6833 44.0688 H 0.0 **** 0.053
23 C11172 51.3206 45.0828 44.7037 C.2 0.0 **** 0.0
24 C11254 62.8642 45.5861 37.5691 C.2 0.0 **** 0.367
25 H11296 56.181 46.8754 43.3165 H 0.0 **** 0.1268
26 H11327 77.6418 46.538 47.0825 H 0.0 **** 0.053
27 C11221 69.7315 52.7625 41.3742 C.ar 0.0 **** -0.1268
28 H11306 66.3283 45.4453 46.8422 H 0.0 **** 0.1268
29 H11282 40.0807 51.6027 43.2447 H 0.0 **** 0.053
30 H11319 74.0494 48.0917 45.4914 H 0.0 **** 0.053
31 H11328 77.3235 47.9203 49.8083 H 0.0 **** 0.053
32 H11290 47.2192 45.4219 45.1873 H 0.0 **** 0.1268
33 H11291 49.5425 49.3744 43.1945 H 0.0 **** 0.1268
34 C11173 49.9378 45.0964 44.9035 C.2 0.0 **** 0.042
35 H11325 75.9176 48.9437 47.8846 H 0.0 **** 0.053
36 C11211 71.7252 49.4231 44.9041 C.ar 0.0 **** 0.0
37 H11316 68.874 52.1584 41.6739 H 0.0 **** 0.1268
38 H11297 58.5483 47.2629 42.7697 H 0.0 **** 0.1268
39 O11238 49.3791 43.9615 45.4348 O.3 0.0 **** -0.452
40 H11294 54.329 42.0355 44.4106 H 0.0 **** 0.053
41 C11181 57.0517 43.1912 44.389 C.ar 0.0 **** -0.1268
42 C11209 70.953 47.5939 46.3088 C.ar 0.0 **** 0.0
43 C11261 64.1495 43.3203 31.7574 C.3 0.0 **** -0.106
44 H11303 63.8946 50.4306 42.2606 H 0.0 **** 0.053
45 C11198 65.6743 48.1027 44.0992 C.2 0.0 **** 0.0
46 C11166 47.7606 46.2674 44.75 C.2 0.0 **** -0.1268
47 C11224 71.9057 54.3392 40.5731 C.ar 0.0 **** -0.1268
48 C11170 51.2202 47.3755 43.8059 C.2 0.0 **** -0.1268
49 H11339 70.0533 55.2278 38.0515 H 0.0 **** 0.053
50 H11318 72.7719 54.9366 40.283 H 0.0 **** 0.1268
51 C11174 52.1092 43.9338 45.0152 C.2 0.0 **** -0.1268
52 C11230 74.1272 45.2493 49.3637 C.ar 0.0 **** 0.042
53 C11197 63.3053 47.4478 43.8589 C.2 0.0 **** 0.0
54 C11219 72.1095 53.3234 41.5404 C.ar 0.0 **** 0.2405
55 C11248 62.6312 45.1875 38.9438 C.2 0.0 **** 0.052
56 H11338 69.6904 56.3792 39.3477 H 0.0 **** 0.053
57 C11233 76.0398 47.9458 47.421 C.3 0.0 **** -0.106
58 H11326 78.1933 48.1857 47.4375 H 0.0 **** 0.053
59 H11292 51.6245 43.0453 45.4209 H 0.0 **** 0.1268
60 H11322 70.8843 45.5461 46.9277 H 0.0 **** 0.053
61 H11283 42.4961 52.3572 42.1443 H 0.0 **** 0.053
62 H11295 57.3013 42.1681 44.6801 H 0.0 **** 0.1268
63 C11190 62.5912 45.047 43.8788 C.2 0.0 **** 0.0
64 C11201 63.0839 48.9233 43.6213 C.3 0.0 **** -0.106
65 C11189 61.8146 44.069 42.9948 C.3 0.0 **** -0.053
66 H11340 51.728 48.2434 43.385 H 0.0 **** 0.1268
67 C11182 58.0767 44.0358 43.891 C.ar 0.0 **** 0.0
68 H11337 71.3693 56.19 38.7758 H 0.0 **** 0.053
69 H11288 47.3526 50.5142 42.9807 H 0.0 **** 0.1268
70 C11167 49.1479 46.2305 44.5644 C.2 0.0 **** 0.0
71 C11158 43.4003 48.5269 44.3625 C.ar 0.0 **** 0.042
72 C11153 40.9715 50.9989 43.0249 C.3 0.0 **** -0.106
73 C11246 61.891 45.7267 41.2179 C.2 0.0 **** 0.0
74 H11298 59.6394 42.5249 43.9555 H 0.0 **** 0.1268
75 H11312 69.2903 51.2685 43.7601 H 0.0 **** 0.053
76 C11155 43.3289 50.7588 43.3899 C.ar 0.0 **** 0.0
77 O11241 63.9802 44.9277 47.2188 O.2 0.0 **** -0.419
78 H11305 63.3325 49.4494 44.5594 H 0.0 **** 0.053
79 C11220 71.0029 52.5136 41.9529 C.ar 0.0 **** 0.0
80 C11207 69.6522 47.7438 45.7854 C.ar 0.0 **** 0.0
81 H11333 60.3393 48.4568 42.7652 H 0.0 **** 0.053
82 C11232 74.9362 47.0455 47.932 C.ar 0.0 **** 0.0
83 H11275 63.9598 43.6171 30.7141 H 0.0 **** 0.053
84 H11286 40.5881 48.9557 43.7912 H 0.0 **** 0.053
85 C11178 55.4541 45.0014 44.0819 C.ar 0.0 **** 0.0
86 H11336 73.4909 43.877 50.518 H 0.0 **** 0.41
87 C11204 66.9533 47.9801 44.6704 C.2 0.0 **** 0.0
88 O11263 62.7618 42.1707 41.0465 O.3 0.0 **** -0.452
89 O11264 62.1013 47.4354 39.523 O.3 0.0 **** -0.452
90 H11310 68.874 45.7833 46.1514 H 0.0 **** 0.053
91 H11271 64.9074 41.1631 33.533 H 0.0 **** 0.053
92 C11196 64.6203 47.2213 44.476 C.2 0.0 **** 0.0
93 C11216 72.8584 50.3088 44.4566 C.3 0.0 **** -0.106
94 H11334 60.0945 47.7996 41.1351 H 0.0 **** 0.053
95 C11165 45.5893 47.4011 44.566 C.ar 0.0 **** -0.1268
96 C11217 73.5333 52.2056 42.9466 C.ar 0.0 **** 0.1137
97 H11313 73.296 50.8173 45.3366 H 0.0 **** 0.053
98 H11293 54.6246 42.6626 46.0398 H 0.0 **** 0.053
99 C11185 58.8102 46.2393 43.0356 C.ar 0.0 **** -0.1268
100 O11242 74.3423 44.3037 50.3227 O.3 0.0 **** -0.452
101 H11267 62.481 45.6358 34.8848 H 0.0 **** 0.053
102 C11222 69.5672 53.7619 40.4365 C.ar 0.0 **** -0.1268
103 C11259 63.8632 41.5276 33.493 C.3 0.0 **** -0.106
104 C11202 66.1672 46.186 46.0568 C.2 0.0 **** -0.1268
105 O11266 62.7649 46.7981 37.2066 O.2 0.0 **** -0.419
106 C11160 45.4772 49.6646 43.5945 C.ar 0.0 **** 0.0
107 C11223 70.6586 54.5704 40.0178 C.ar 0.0 **** 0.0
108 C11159 44.8274 48.5009 44.1893 C.ar 0.0 **** 0.0
109 N11218 73.3709 53.1558 42.0479 N.ar 0.0 **** -0.481
110 C11168 49.8202 47.393 43.9891 C.2 0.0 **** 0.0
111 H11285 40.8878 50.1676 45.0565 H 0.0 **** 0.053
112 H11309 68.4591 46.953 47.3778 H 0.0 **** 0.053
113 C11199 65.4879 49.2017 43.07 C.3 0.0 **** -0.106
114 C11200 64.062 49.3783 42.5362 C.3 0.0 **** -0.106
115 C11225 73.3952 48.2751 46.3651 C.3 0.0 **** -0.106
116 C11183 57.7691 45.3943 43.5178 C.ar 0.0 **** 0.0
117 C11186 60.095 45.7666 42.9015 C.ar 0.0 **** 0.0
118 C11245 62.1239 44.4037 41.5655 C.2 0.0 **** 0.0
119 C11228 71.1945 46.5251 47.3384 C.3 0.0 **** -0.106
120 C11180 54.5266 42.9579 44.9814 C.3 0.0 **** -0.106
121 O11237 42.8257 47.4093 44.9232 O.3 0.0 **** -0.452
122 C11193 63.0335 44.5783 45.0897 C.2 0.0 **** 0.0265
123 H11284 42.2509 52.5493 43.8913 H 0.0 **** 0.053
124 C11253 63.1993 44.5589 36.572 C.ar 0.0 **** 0.0
125 C11179 55.7673 43.67 44.4882 C.ar 0.0 **** 0.0
126 H11332 61.6359 48.5572 41.5266 H 0.0 **** 0.053
127 C11192 61.3115 46.5604 42.3816 C.3 0.0 **** 0.0
128 O11265 63.3819 41.6293 38.6611 O.2 0.0 **** -0.419
129 C11212 70.4369 49.5715 44.3879 C.ar 0.0 **** 0.0
130 C11239 60.8348 47.9406 41.9334 C.3 0.0 **** -0.159
131 C11191 62.4706 46.437 43.4551 C.2 0.0 **** 0.0
132 C11175 53.4498 43.9923 44.7833 C.2 0.0 **** 0.0
133 C11194 63.9215 45.2837 46.0396 C.2 0.0 **** 0.367
134 C11187 60.3683 44.4123 43.2287 C.ar 0.0 **** 0.0
135 C11213 70.1013 50.6254 43.3693 C.3 0.0 **** -0.106
136 H11272 63.2399 40.6674 33.794 H 0.0 **** 0.053
137 H11320 73.7472 49.2487 46.7539 H 0.0 **** 0.053
138 H11311 69.655 50.1494 42.4766 H 0.0 **** 0.053
139 H11324 75.9166 48.1063 46.3397 H 0.0 **** 0.053
140 C11244 70.4376 55.6511 38.9935 C.3 0.0 **** -0.159
141 H11287 45.18 51.6556 42.7588 H 0.0 **** 0.1268
142 H11269 64.6393 41.7116 36.2118 H 0.0 **** 0.053
143 C11229 72.8533 45.4299 48.8271 C.ar 0.0 **** -0.1268
144 H11321 70.5168 46.6828 48.1984 H 0.0 **** 0.053
145 C11169 49.0421 48.5049 43.627 C.2 0.0 **** -0.1268
146 C11205 68.0395 48.908 44.2149 C.3 0.0 **** -0.106
147 H11273 62.4171 42.0485 31.9745 H 0.0 **** 0.053
148 C11255 63.3591 45.0214 35.1589 C.3 0.0 **** -0.106
149 H11289 45.0964 46.532 45.0031 H 0.0 **** 0.1268
150 C11231 75.2037 46.0694 48.9271 C.ar 0.0 **** 0.052
151 O11240 62.7097 43.3351 45.5591 O.3 0.0 **** -0.4365
152 H11330 41.8677 47.5565 44.9778 H 0.0 **** 0.41
153 H11331 48.4178 44.0747 45.4941 H 0.0 **** 0.41
154 C11250 62.5849 43.4357 40.644 C.2 0.0 **** 0.042
155 H11268 64.1949 45.7469 35.1137 H 0.0 **** 0.053
156 C11257 63.691 42.6325 34.5068 C.2 0.0 **** 0.0
157 C11256 63.5651 43.9238 34.1536 C.2 0.0 **** 0.0
158 C11251 63.1973 42.8382 38.3315 C.2 0.0 **** 0.367
159 H11329 78.5583 46.6849 49.4587 H 0.0 **** 0.053
160 C11154 42.2881 51.8081 43.0733 C.3 0.0 **** -0.106
161 C11234 77.4449 47.4253 47.7067 C.3 0.0 **** -0.106
162 C11206 69.3997 48.7214 44.8238 C.ar 0.0 **** 0.0
163 H11299 62.0561 43.0198 43.1952 H 0.0 **** 0.053
164 H11300 66.1939 49.047 42.2367 H 0.0 **** 0.053
165 C11176 54.015 45.2097 44.2447 C.2 0.0 **** 0.2405
166 N11177 53.3431 46.2958 43.9364 N.2 0.0 **** -0.481
167 O11243 76.8936 45.0177 50.2657 O.2 0.0 **** -0.419
168 H11302 63.9007 48.7725 41.631 H 0.0 **** 0.053
169 H11279 63.0568 41.6753 40.1995 H 0.0 **** 0.41
170 C11171 51.9798 46.2602 44.1475 C.2 0.0 **** 0.2405
171 C11262 63.6149 44.387 32.7188 C.3 0.0 **** -0.106
172 C11195 64.8938 46.255 45.4774 C.2 0.0 **** 0.052
173 H11281 40.8525 50.5662 42.0201 H 0.0 **** 0.053
174 H11308 67.7071 49.9507 44.3811 H 0.0 **** 0.053
175 H11274 63.8412 41.1998 31.3441 H 0.0 **** 0.053
176 H11317 68.5803 53.9389 40.0029 H 0.0 **** 0.1268
177 H11276 65.2429 43.2399 31.8784 H 0.0 **** 0.053
178 C11236 76.5634 45.9404 49.5276 C.2 0.0 **** 0.347
179 C11214 71.2337 51.4975 42.925 C.ar 0.0 **** 0.0
180 C11163 47.6497 48.5352 43.7978 C.ar 0.0 **** 0.0
181 C11208 68.5613 46.8352 46.2827 C.3 0.0 **** -0.106
182 H11323 72.0333 44.796 49.1797 H 0.0 **** 0.1268
183 H11277 62.5994 44.7024 32.4118 H 0.0 **** 0.053
184 C11157 41.1858 49.8489 44.0408 C.3 0.0 **** -0.106
185 H11304 62.0529 49.1732 43.3885 H 0.0 **** 0.053
186 H11301 65.8034 50.1501 43.5399 H 0.0 **** 0.053
187 C11162 46.8602 49.6441 43.4213 C.ar 0.0 **** -0.1268
188 C11226 73.6424 47.2155 47.4029 C.ar 0.0 **** 0.0
@<TRIPOS>BOND
1 106 108 am
2 114 113 1
3 161 58 1
4 180 187 am
5 115 137 1
6 76 160 1
7 21 76 am
8 184 21 1
9 72 160 1
10 72 184 1
11 108 71 am
12 19 106 am
13 21 71 am
14 76 19 am
15 12 180 un
16 95 12 am
17 106 187 am
18 108 95 am
19 70 46 un
20 110 70 un
21 145 110 un
22 12 46 un
23 180 145 un
24 170 48 un
25 23 170 un
26 34 23 un
27 110 48 un
28 70 34 un
29 132 51 un
30 165 132 un
31 166 165 un
32 23 51 un
33 170 166 un
34 125 85 am
35 120 125 1
36 165 85 1
37 132 120 1
38 67 41 am
39 116 67 am
40 3 116 am
41 125 41 am
42 85 3 am
43 117 99 am
44 134 117 am
45 20 134 am
46 116 99 am
47 67 20 am
48 63 65 1
49 131 63 1
50 127 131 1
51 134 65 1
52 117 127 1
53 63 122 2
54 122 133 1
55 133 172 1
56 172 92 un
57 92 53 1
58 131 53 2
59 113 45 1
60 64 114 1
61 92 45 un
62 53 64 1
63 17 104 un
64 87 17 un
65 45 87 un
66 172 104 un
67 162 146 1
68 80 162 am
69 181 80 1
70 87 146 1
71 17 181 1
72 7 42 am
73 36 7 am
74 129 36 am
75 80 42 am
76 162 129 am
77 179 135 1
78 18 179 am
79 93 18 1
80 129 135 1
81 36 93 1
82 109 96 am
83 54 109 am
84 79 54 am
85 18 96 am
86 179 79 am
87 102 27 am
88 107 102 am
89 47 107 am
90 79 27 am
91 54 47 am
92 188 115 1
93 13 188 am
94 119 13 1
95 7 115 1
96 42 119 1
97 52 143 am
98 150 52 am
99 82 150 am
100 13 143 am
101 188 82 am
102 161 57 1
103 9 161 1
104 178 9 1
105 82 57 1
106 150 178 1
107 71 121 1
108 34 39 1
109 127 130 1
110 122 151 1
111 133 77 2
112 52 100 1
113 178 167 2
114 107 140 1
115 4 73 un
116 55 4 un
117 16 55 un
118 154 16 un
119 118 73 un
120 118 154 un
121 6 158 1
122 124 6 am
123 24 124 1
124 16 158 1
125 55 24 1
126 157 148 1
127 156 157 2
128 14 156 1
129 124 148 1
130 6 14 1
131 10 103 1
132 43 10 1
133 171 43 1
134 156 103 1
135 157 171 1
136 154 88 1
137 4 89 1
138 158 128 2
139 24 105 2
140 148 101 1
141 148 155 1
142 14 142 1
143 14 11 1
144 103 91 1
145 103 136 1
146 10 147 1
147 10 175 1
148 43 83 1
149 43 177 1
150 171 183 1
151 171 5 1
152 88 169 1
153 89 15 1
154 127 73 1
155 65 118 1
156 72 173 1
157 72 29 1
158 160 61 1
159 160 123 1
160 184 111 1
161 184 84 1
162 19 141 1
163 187 69 1
164 95 149 1
165 46 32 1
166 145 33 1
167 51 59 1
168 120 98 1
169 120 40 1
170 41 62 1
171 3 25 1
172 99 38 1
173 20 74 1
174 65 163 1
175 113 164 1
176 113 186 1
177 114 168 1
178 114 44 1
179 64 185 1
180 64 78 1
181 104 28 1
182 146 2 1
183 146 174 1
184 181 112 1
185 181 90 1
186 135 138 1
187 135 75 1
188 93 97 1
189 93 22 1
190 96 8 1
191 27 37 1
192 102 176 1
193 47 50 1
194 115 30 1
195 119 144 1
196 119 60 1
197 143 182 1
198 57 139 1
199 57 35 1
200 161 26 1
201 9 31 1
202 9 159 1
203 121 152 1
204 39 153 1
205 130 126 1
206 130 81 1
207 130 94 1
208 151 1 1
209 100 86 1
210 140 68 1
211 140 56 1
212 140 49 1
213 48 66 1
@<TRIPOS>MOLECULE
Sketch 4
130 142
SMALL
USER_CHARGES


@<TRIPOS>ATOM
1 H9044 41.0623 67.7547 15.0529 H 0.0 **** 0.1268
2 C8975 39.2609 71.7428 14.1042 C.ar 0.0 **** 0.0
3 H9056 51.8617 69.5237 15.5256 H 0.0 **** 0.053
4 C8976 38.5961 72.9521 13.8321 C.ar 0.0 **** 0.0
5 C9023 53.6576 62.2333 16.1745 C.ar 0.0 **** 0.0
6 H9048 40.1177 61.8994 12.3475 H 0.0 **** 0.053
7 H9064 49.9226 62.9797 17.0427 H 0.0 **** 0.1268
8 H9085 36.05 64.0981 16.7405 H 0.0 **** 0.053
9 H9054 49.0911 68.7125 13.7783 H 0.0 **** 0.053
10 C8999 45.5387 65.3274 15.2546 C.ar 0.0 **** 0.052
11 C9038 55.0896 61.9564 15.7786 C.3 0.0 **** -0.159
12 H9088 39.2663 59.7752 13.3656 H 0.0 **** 0.053
13 H9075 41.2328 71.255 14.8665 H 0.0 **** 0.053
14 H9049 40.6082 61.1346 15.2256 H 0.0 **** 0.053
15 H9092 42.9307 59.5733 12.4502 H 0.0 **** 0.053
16 C8995 40.7287 61.3604 13.0886 C.ar 0.0 **** -0.053
17 C8991 43.2993 64.2822 14.9782 C.ar 0.0 **** 0.0
18 C9028 34.9772 72.0242 14.6693 C.3 0.0 **** -0.159
19 C9001 46.9787 65.179 15.3399 C.2 0.0 **** 0.367
20 C8989 41.1149 63.1793 14.8661 C.2 0.0 **** 0.0
21 C9003 47.1776 67.6338 15.4935 C.ar 0.0 **** 0.0
22 H9046 42.9089 60.9995 14.7244 H 0.0 **** 0.053
23 C8996 40.3626 61.9241 14.489 C.3 0.0 **** -0.106
24 C9020 50.9695 62.7656 16.8277 C.ar 0.0 **** -0.1268
25 H9096 55.3335 60.8896 15.8389 H 0.0 **** 0.053
26 C8986 41.2243 65.6336 15.1327 C.ar 0.0 **** 0.0
27 O9031 38.4793 63.3867 16.1472 O.3 0.0 **** -0.452
28 C8997 43.5135 66.7225 15.2347 C.ar 0.0 **** 0.042
29 C9008 49.2739 66.3426 15.5709 C.ar 0.0 **** 0.2405
30 H9100 54.2809 59.884 17.6998 H 0.0 **** 0.053
31 H9078 34.4142 71.8251 13.7401 H 0.0 **** 0.053
32 H9077 34.6209 71.3098 15.4217 H 0.0 **** 0.053
33 C9010 51.1766 65.0926 15.9471 C.ar 0.0 **** 0.2405
34 C8992 42.6727 65.5568 15.1027 C.ar 0.0 **** 0.0
35 C9017 53.9156 64.6056 15.2976 C.3 0.0 **** -0.106
36 H9070 40.1763 75.0554 11.5338 H 0.0 **** 0.053
37 H9095 55.2895 62.2911 14.7492 H 0.0 **** 0.053
38 H9076 41.2479 72.5041 13.6013 H 0.0 **** 0.053
39 H9051 47.4045 69.7484 15.2927 H 0.0 **** 0.053
40 H9050 39.2774 62.0626 14.5104 H 0.0 **** 0.053
41 C8984 39.1132 66.8795 15.2346 C.ar 0.0 **** 0.0
42 C9019 51.7607 63.7765 16.2655 C.ar 0.0 **** 0.0
43 C9024 39.3719 74.1687 13.3727 C.3 0.0 **** -0.106
44 H9099 52.6381 59.2194 17.514 H 0.0 **** 0.053
45 C8979 37.0837 68.2126 15.3425 C.ar 0.0 **** 0.0
46 C9012 51.4329 67.4227 15.346 C.ar 0.0 **** 0.0
47 H9059 55.3652 67.0097 15.3122 H 0.0 **** 0.053
48 H9041 40.0051 69.515 15.6105 H 0.0 **** 0.053
49 C9015 54.2929 67.1018 15.0774 C.3 0.0 **** -0.106
50 H9066 40.3299 74.2267 13.9102 H 0.0 **** 0.053
51 C9014 53.7535 68.4715 15.4863 C.3 0.0 **** -0.106
52 C9007 50.0325 67.5015 15.273 C.ar 0.0 **** 0.0
53 H9094 43.84 68.5889 15.4041 H 0.0 **** 0.41
54 C8978 38.4427 68.1375 15.1345 C.ar 0.0 **** 0.0
55 H9071 35.428 74.0614 13.2374 H 0.0 **** 0.053
56 H9073 36.3822 74.9954 14.4034 H 0.0 **** 0.053
57 O9037 47.4948 64.0183 15.2828 O.2 0.0 **** -0.419
58 H9060 54.1851 66.9709 13.9862 H 0.0 **** 0.053
59 H9055 52.2553 68.8279 13.9605 H 0.0 **** 0.053
60 H9057 53.8177 68.5663 16.5832 H 0.0 **** 0.053
61 C8985 40.5115 66.8314 15.1286 C.ar 0.0 **** -0.1268
62 H9097 55.7967 62.4966 16.431 H 0.0 **** 0.053
63 C9013 52.2938 68.6312 15.0471 C.3 0.0 **** -0.106
64 C9005 47.9934 68.8863 15.6304 C.3 0.0 **** -0.106
65 C8998 44.9222 66.5995 15.2975 C.ar 0.0 **** 0.052
66 C9025 39.6328 74.1543 11.8582 C.3 0.0 **** -0.159
67 N9009 49.8425 65.1807 15.9224 N.ar 0.0 **** -0.481
68 C8983 38.3549 65.685 15.4989 C.ar 0.0 **** 0.0
69 O9036 45.2052 68.9487 15.4974 O.2 0.0 **** -0.419
70 C8974 38.5228 70.6244 14.541 C.ar 0.0 **** 0.0
71 C9018 53.1088 63.5092 15.9477 C.ar 0.0 **** 0.0
72 H9091 42.3244 60.3573 10.9731 H 0.0 **** 0.053
73 O9035 42.9978 67.947 15.3047 O.3 0.0 **** -0.452
74 C8971 37.1912 73.0208 13.9593 C.ar 0.0 **** 0.0
75 H9072 36.9535 74.8014 12.7367 H 0.0 **** 0.053
76 O9034 45.3106 62.9798 15.1774 O.3 0.0 **** -0.452
77 C9030 36.0685 64.5319 15.7284 C.3 0.0 **** -0.159
78 H9045 44.0831 61.9476 13.817 H 0.0 **** 0.053
79 H9058 54.3599 69.2832 15.0567 H 0.0 **** 0.053
80 H9082 34.5866 68.1422 16.2941 H 0.0 **** 0.053
81 C8990 42.4927 63.1266 14.703 C.2 0.0 **** 0.0
82 C8981 36.3247 67.0274 15.6291 C.ar 0.0 **** 0.0
83 C9016 53.513 65.9971 15.7894 C.3 0.0 **** -0.053
84 H9047 42.2713 62.5591 12.1854 H 0.0 **** 0.053
85 C8980 36.3554 69.5273 15.2383 C.3 0.0 **** -0.106
86 C9006 49.306 68.7548 14.863 C.3 0.0 **** -0.106
87 H9061 53.7611 66.0451 16.869 H 0.0 **** 0.053
88 H9098 53.7224 59.3443 16.1092 H 0.0 **** 0.053
89 H9081 34.2623 67.0615 14.9317 H 0.0 **** 0.053
90 C8993 43.0212 61.8697 14.0513 C.3 0.0 **** -0.106
91 C8973 37.1419 70.7111 14.7312 C.ar 0.0 **** 0.0
92 H9093 46.3534 63.2097 15.2325 H 0.0 **** 0.41
93 H9083 36.4543 63.7515 15.0618 H 0.0 **** 0.053
94 C8988 39.1043 64.4873 15.6048 C.ar 0.0 **** 0.042
95 H9074 40.9776 70.8054 13.1834 H 0.0 **** 0.053
96 H9087 40.4267 59.4475 12.0555 H 0.0 **** 0.053
97 C9004 45.731 67.7799 15.4278 C.2 0.0 **** 0.367
98 H9063 54.9906 64.4659 15.4773 H 0.0 **** 0.053
99 C9032 40.3175 59.8849 13.0575 C.3 0.0 **** -0.159
100 H9043 35.4656 69.3855 14.6016 H 0.0 **** 0.053
101 C8982 36.9281 65.7741 15.6522 C.ar 0.0 **** 0.0
102 H9079 34.6927 73.0292 15.0091 H 0.0 **** 0.053
103 H9089 40.9335 59.2951 13.7551 H 0.0 **** 0.053
104 H9040 39.8904 69.1114 13.9235 H 0.0 **** 0.053
105 H9069 40.225 73.2708 11.5768 H 0.0 **** 0.053
106 H9062 53.7751 64.5635 14.1999 H 0.0 **** 0.053
107 H9086 39.1624 62.7429 16.3932 H 0.0 **** 0.41
108 C9011 52.0189 66.1916 15.674 C.ar 0.0 **** 0.0
109 C8994 42.2214 61.618 12.7573 C.ar 0.0 **** -0.053
110 H9065 50.9058 60.7286 17.5164 H 0.0 **** 0.1268
111 H9090 43.9076 60.8217 11.6442 H 0.0 **** 0.053
112 H9080 34.4689 66.3988 16.5651 H 0.0 **** 0.053
113 C8977 39.266 69.3474 14.8029 C.3 0.0 **** -0.106
114 C9002 47.7995 66.4012 15.47 C.ar 0.0 **** 0.0
115 C9021 51.5221 61.5152 17.0755 C.ar 0.0 **** -0.1268
116 C9033 42.8803 60.529 11.9073 C.3 0.0 **** -0.159
117 C8987 40.4675 64.4071 15.2256 C.ar 0.0 **** 0.0
118 H9067 38.8302 75.0858 13.642 H 0.0 **** 0.053
119 C9026 36.4524 74.2818 13.5638 C.3 0.0 **** -0.159
120 C9027 40.7531 71.5847 13.9303 C.3 0.0 **** -0.159
121 H9053 49.9225 69.6479 15.0235 H 0.0 **** 0.053
122 H9042 35.9372 69.7793 16.2326 H 0.0 **** 0.053
123 C9000 44.7354 64.1749 15.126 C.ar 0.0 **** 0.042
124 C9029 34.8375 67.1628 15.8689 C.3 0.0 **** -0.159
125 H9068 38.6829 74.1031 11.3045 H 0.0 **** 0.053
126 C9022 52.8588 61.227 16.7575 C.ar 0.0 **** 0.0
127 H9084 35.0368 64.7482 15.4287 H 0.0 **** 0.053
128 C8972 36.4693 71.9166 14.4486 C.ar 0.0 **** 0.0
129 C9039 53.4021 59.8476 17.0362 C.3 0.0 **** -0.159
130 H9052 48.2073 69.0484 16.7037 H 0.0 **** 0.053
@<TRIPOS>BOND
1 20 23 1
2 2 120 1
3 18 31 1
4 119 75 1
5 91 128 am
6 70 91 am
7 2 70 am
8 4 2 am
9 74 128 am
10 74 4 am
11 54 113 1
12 45 54 am
13 85 45 1
14 70 113 1
15 91 85 1
16 101 82 am
17 68 101 am
18 41 68 am
19 45 82 am
20 54 41 am
21 26 61 am
22 117 26 am
23 94 117 am
24 41 61 am
25 68 94 am
26 81 20 1
27 17 81 1
28 34 17 am
29 117 20 1
30 26 34 am
31 109 90 1
32 16 109 am
33 23 16 1
34 81 90 1
35 65 28 am
36 10 65 am
37 123 10 am
38 34 28 am
39 17 123 am
40 114 19 1
41 21 114 am
42 97 21 1
43 10 19 1
44 65 97 1
45 86 64 1
46 52 86 1
47 29 52 am
48 21 64 1
49 114 29 am
50 33 67 am
51 108 33 am
52 46 108 am
53 29 67 am
54 52 46 am
55 51 63 1
56 49 51 1
57 83 49 1
58 46 63 1
59 108 83 1
60 71 35 1
61 42 71 am
62 33 42 am
63 83 35 1
64 115 24 am
65 126 115 am
66 5 126 am
67 42 24 am
68 71 5 am
69 4 43 1
70 43 66 1
71 74 119 1
72 128 18 1
73 82 124 1
74 101 77 1
75 94 27 1
76 16 99 1
77 109 116 1
78 123 76 1
79 28 73 1
80 97 69 2
81 19 57 2
82 5 11 1
83 126 129 1
84 113 104 1
85 113 48 1
86 85 122 1
87 85 100 1
88 61 1 1
89 90 78 1
90 90 22 1
91 109 84 1
92 16 6 1
93 23 14 1
94 23 40 1
95 64 39 1
96 64 130 1
97 86 121 1
98 86 9 1
99 63 59 1
100 63 3 1
101 51 60 1
102 51 79 1
103 49 47 1
104 49 58 1
105 83 87 1
106 35 106 1
107 35 98 1
108 24 7 1
109 115 110 1
110 43 50 1
111 43 118 1
112 66 125 1
113 66 105 1
114 66 36 1
115 119 55 1
116 119 56 1
117 120 95 1
118 120 13 1
119 120 38 1
120 18 32 1
121 18 102 1
122 124 112 1
123 124 89 1
124 124 80 1
125 77 93 1
126 77 127 1
127 77 8 1
128 27 107 1
129 99 96 1
130 99 12 1
131 99 103 1
132 116 111 1
133 116 72 1
134 116 15 1
135 76 92 1
136 73 53 1
137 11 37 1
138 11 25 1
139 11 62 1
140 129 88 1
141 129 44 1
142 129 30 1
@<TRIPOS>MOLECULE
Sketch 4
250 292
SMALL
USER_CHARGES


@<TRIPOS>ATOM
1 O22024 25.48 6.24973 53.3682 O.3 0.0 **** -0.57
2 O21990 25.4171 9.7112 42.9963 O.3 0.0 **** -0.202
3 C22029 21.7765 -3.15811 42.3992 C.2 0.0 **** 0.0
4 C22039 21.5846 -3.4405 43.7883 C.2 0.0 **** 0.0
5 H22088 24.9642 15.7602 57.3404 H 0.0 **** 0.053
6 H22139 21.952 17.5583 55.8598 H 0.0 **** 0.053
7 H22076 29.5764 20.2685 46.09 H 0.0 **** 0.053
8 S21953 26.5409 13.0965 52.6269 S.2 0.0 **** 0.024
9 C21940 30.7974 19.1797 52.7634 C.2 0.0 **** -0.1268
10 C22026 22.598 -0.230777 40.1769 C.2 0.0 **** -0.1268
11 H22113 23.5643 11.7068 44.0857 H 0.0 **** 0.053
12 C21929 28.8295 19.5417 46.4518 C.3 0.0 **** -0.106
13 H22129 20.9887 -0.27838 50.1557 H 0.0 **** 0.053
14 C21960 25.1438 7.25718 50.4562 C.2 0.0 **** 0.0
15 C22034 21.3899 -6.25494 39.5284 C.2 0.0 **** -0.1268
16 H22135 23.5955 15.0937 55.1526 H 0.0 **** 0.053
17 C22027 22.2627 -1.56659 40.5775 C.2 0.0 **** 0.0
18 C22021 24.0099 17.2325 55.2023 C.3 0.0 **** -0.053
19 C21950 27.7677 15.4683 52.5893 C.2 0.0 **** -0.1268
20 H22141 23.0486 1.77399 40.7707 H 0.0 **** 0.1268
21 H22102 23.6521 1.17967 54.1285 H 0.0 **** 0.053
22 C21916 30.1057 20.1048 50.0963 C.3 0.0 **** 0.107
23 C21907 26.949 23.8774 51.2361 C.3 0.0 **** -0.053
24 H22117 24.7763 12.9983 40.7339 H 0.0 **** 0.053
25 C21933 27.219 14.5753 50.3732 C.2 0.0 **** 0.0
26 C21962 24.9413 5.92068 50.9118 C.2 0.0 **** 0.0
27 C22013 21.0405 -1.65576 48.474 C.3 0.0 **** -0.106
28 H22057 27.9682 24.1024 49.3474 H 0.0 **** 0.053
29 C22043 21.0942 -3.93621 46.5053 C.2 0.0 **** -0.1268
30 C22031 21.8179 -3.91686 40.0576 C.2 0.0 **** 0.0
31 C21995 23.4657 11.7456 41.9066 C.3 0.0 **** -0.106
32 H22103 24.8831 2.04266 52.4249 H 0.0 **** 0.053
33 C22038 21.2654 -4.76173 44.2134 C.2 0.0 **** 0.0
34 C21984 23.2925 -0.322379 51.7111 C.3 0.0 **** -0.106
35 H22092 25.9169 10.4202 52.8578 H 0.0 **** 0.1268
36 C21911 28.1128 22.0364 49.9269 C.3 0.0 **** -0.053
37 H22123 23.3269 2.71787 49.1443 H 0.0 **** 0.1268
38 C21981 23.0006 1.8059 53.4953 C.3 0.0 **** 0.134
39 C21980 22.6739 3.08054 54.2792 C.3 0.0 **** -0.106
40 C21968 25.4036 9.10296 47.1461 C.2 0.0 **** 0.0
41 C21964 24.387 5.18594 48.6122 C.2 0.0 **** 0.0
42 C21936 28.2816 16.6846 52.0467 C.2 0.0 **** 0.0
43 H22111 27.1542 10.7903 42.6863 H 0.0 **** 0.053
44 H22125 23.3123 -1.0776 46.858 H 0.0 **** 0.053
45 C21983 23.4708 1.07032 51.1089 C.3 0.0 **** -0.106
46 H22094 26.5078 13.0221 46.1623 H 0.0 **** 0.1268
47 C21996 24.4918 11.9333 40.7836 C.3 0.0 **** -0.106
48 C21971 25.051 8.05084 46.2486 C.2 0.0 **** 0.0
49 C21941 30.3381 17.8673 56.3786 C.3 0.0 **** -0.106
50 C21977 23.8207 4.64587 52.711 C.3 0.0 **** -0.053
51 C21979 23.8169 4.09161 54.1408 C.3 0.0 **** -0.106
52 H22065 28.0259 23.8826 53.1256 H 0.0 **** 0.053
53 H22150 19.8036 -6.3725 47.9267 H 0.0 **** 0.053
54 C22032 22.1215 -2.60689 39.6533 C.2 0.0 **** -0.1268
55 C21926 28.0627 17.0772 47.7501 C.2 0.0 **** 0.0
56 H22068 28.2221 21.8315 47.772 H 0.0 **** 0.053
57 C22016 22.0808 -1.08067 44.3117 C.2 0.0 **** 0.0
58 O21993 25.9661 11.8538 44.7272 O.3 0.0 **** -0.202
59 C22010 22.3886 -0.482264 46.7144 C.3 0.0 **** -0.053
60 H22147 20.8392 -8.66853 40.6209 H 0.0 **** 0.1268
61 H22140 26.3767 6.56991 53.185 H 0.0 **** 0.41
62 H22086 25.5132 18.0934 56.476 H 0.0 **** 0.053
63 H22154 20.3553 -10.0484 47.24 H 0.0 **** 0.053
64 H22069 29.6114 22.6285 48.5235 H 0.0 **** 0.053
65 C22018 22.6271 0.513167 42.4947 C.2 0.0 **** 0.0
66 H22059 25.9055 24.0545 48.3 H 0.0 **** 0.053
67 C22009 22.4194 0.677239 47.7369 C.3 0.0 **** -0.053
68 H22067 30.6166 20.6578 48.0965 H 0.0 **** 0.053
69 C22036 21.3337 -5.52476 41.8776 C.2 0.0 **** 0.0
70 H22056 26.3807 24.8096 51.1043 H 0.0 **** 0.053
71 C21935 28.9168 17.6424 52.8396 C.2 0.0 **** 0.0
72 C21969 25.733 10.4039 46.6607 C.2 0.0 **** 0.0
73 C21944 27.9023 17.1395 55.1592 C.2 0.0 **** 0.0
74 C21928 28.9373 18.2184 45.6903 C.3 0.0 **** -0.106
75 H22107 23.1154 -1.06773 50.9194 H 0.0 **** 0.053
76 H22136 24.4393 15.6767 53.7013 H 0.0 **** 0.053
77 C22001 23.5855 3.72544 43.9702 C.2 0.0 **** 0.042
78 C21985 22.1077 -0.316302 52.7176 C.3 0.0 **** 0.081
79 H22053 25.2708 21.3095 50.547 H 0.0 **** 0.053
80 C21954 25.9667 10.6447 51.7898 C.2 0.0 **** -0.1268
81 C21978 25.1256 5.35177 52.3152 C.3 0.0 **** 0.107
82 H22149 21.5189 -5.96363 48.0234 H 0.0 **** 0.053
83 H22084 26.444 18.4319 54.2947 H 0.0 **** 0.053
84 C21998 24.3351 5.98853 44.3995 C.2 0.0 **** 0.0
85 H22061 28.6274 21.4995 51.9895 H 0.0 **** 0.053
86 H22148 20.8473 -4.1081 47.5495 H 0.0 **** 0.1268
87 H22091 27.8312 15.3136 53.6662 H 0.0 **** 0.1268
88 C22044 21.0812 -5.02801 45.5981 C.2 0.0 **** 0.0
89 H22108 22.3344 -0.990142 53.5611 H 0.0 **** 0.053
90 C22047 20.8015 -6.62964 47.5238 C.3 0.0 **** -0.106
91 C22011 22.372 -0.0894318 45.261 C.2 0.0 **** 0.0
92 C22000 23.5431 3.45381 45.3728 C.2 0.0 **** 0.0
93 C21942 29.6021 16.6173 56.8697 C.3 0.0 **** -0.106
94 H22104 22.5275 1.36532 50.6178 H 0.0 **** 0.053
95 H22145 21.2934 -7.06598 38.8039 H 0.0 **** 0.1268
96 C22005 23.3998 2.93533 48.0904 C.2 0.0 **** -0.1268
97 C21974 24.3366 5.73979 45.8119 C.2 0.0 **** 0.0
98 H22124 23.0584 0.355386 48.5733 H 0.0 **** 0.053
99 C21919 29.0019 19.3432 47.9314 C.2 0.0 **** 0.0
100 H22093 25.3188 8.1695 52.4065 H 0.0 **** 0.1268
101 H22064 28.4231 25.2517 52.0852 H 0.0 **** 0.053
102 O21975 24.4181 3.66926 50.5047 O.3 0.0 **** -0.202
103 C22042 20.9141 -7.8668 41.3587 C.2 0.0 **** -0.1268
104 H22106 24.224 -0.6151 52.2216 H 0.0 **** 0.053
105 C21921 28.7147 17.9817 49.9674 C.2 0.0 **** 0.0
106 C21967 26.4591 12.7492 47.2062 C.2 0.0 **** -0.1268
107 C21918 28.8975 21.7979 48.6397 C.3 0.0 **** -0.106
108 H22133 23.9695 18.0678 54.4795 H 0.0 **** 0.053
109 H22083 30.1083 15.7174 56.47 H 0.0 **** 0.053
110 H22074 29.9569 17.8173 45.8086 H 0.0 **** 0.053
111 C21957 26.059 11.1742 49.0096 C.2 0.0 **** 0.0
112 C21951 26.3839 12.2106 49.9548 C.2 0.0 **** 0.0
113 C22002 23.9623 4.94922 43.4905 C.2 0.0 **** -0.1268
114 H22082 29.6357 16.5436 57.9679 H 0.0 **** 0.053
115 C21997 25.7457 11.0704 41.0338 C.3 0.0 **** -0.106
116 C22008 22.7552 1.19036 44.8508 C.2 0.0 **** 0.0
117 H22115 22.5331 12.2804 41.6744 H 0.0 **** 0.053
118 H22112 26.0896 12.9838 43.064 H 0.0 **** 0.053
119 C22003 23.097 2.20168 45.8216 C.2 0.0 **** 0.0
120 C21908 27.3196 23.3572 49.8376 C.3 0.0 **** -0.053
121 C22046 20.8355 -6.36682 46.0346 C.2 0.0 **** 0.0
122 H22087 25.8272 15.1077 55.9333 H 0.0 **** 0.053
123 C21945 26.4893 17.4021 54.692 C.3 0.0 **** -0.106
124 C21909 26.0302 23.2074 48.9891 C.3 0.0 **** 0.054
125 C21972 23.9156 4.18297 47.6895 C.2 0.0 **** 0.0
126 H22137 23.1707 18.4459 56.8149 H 0.0 **** 0.053
127 H22081 29.9304 18.7629 56.8901 H 0.0 **** 0.053
128 C21912 29.0977 22.0165 51.1308 C.3 0.0 **** 0.107
129 C22022 23.6761 15.9376 54.4501 C.3 0.0 **** -0.159
130 C22020 21.6906 -2.39881 44.7329 C.2 0.0 **** 0.0
131 C21976 23.5592 3.52746 51.6714 C.3 0.0 **** 0.107
132 C22007 22.8592 1.48976 43.4816 C.2 0.0 **** 0.0265
133 C21958 25.4107 8.82805 48.5535 C.2 0.0 **** 0.0
134 O21915 30.32 21.3348 50.8091 O.3 0.0 **** -0.32
135 H22143 22.2588 -2.39807 38.59 H 0.0 **** 0.1268
136 C21966 26.0803 11.4492 47.6006 C.2 0.0 **** 0.0
137 C21931 26.792 13.7187 48.1267 C.2 0.0 **** 0.232
138 H22121 24.7136 7.45619 42.8717 H 0.0 **** 0.1268
139 C22014 20.5766 -0.335425 49.1384 C.3 0.0 **** -0.106
140 H22151 21.0624 -8.25223 48.9426 H 0.0 **** 0.053
141 C22015 21.0215 0.90484 48.3404 C.3 0.0 **** -0.106
142 H22073 28.7623 18.3724 44.6146 H 0.0 **** 0.053
143 O22051 19.6805 -9.59239 44.8668 O.2 0.0 **** -0.419
144 H22080 31.4101 17.8224 56.629 H 0.0 **** 0.053
145 H22126 20.2978 -0.926967 46.6076 H 0.0 **** 0.053
146 H22116 23.2186 10.6769 41.9898 H 0.0 **** 0.053
147 H22144 21.8161 -4.757 38.0551 H 0.0 **** 0.1268
148 H22134 22.7103 16.0314 53.9313 H 0.0 **** 0.053
149 C22035 21.2096 -6.55926 40.9124 C.2 0.0 **** 0.0
150 H22130 19.4802 -0.333339 49.2373 H 0.0 **** 0.053
151 O22006 23.2295 2.74502 43.0565 O.3 0.0 **** -0.0685
152 H22052 23.9711 22.2352 51.3462 H 0.0 **** 0.053
153 O21910 24.8332 23.191 49.7763 O.3 0.0 **** -0.32
154 H22098 24.7816 3.60105 54.3566 H 0.0 **** 0.053
155 C21914 28.2166 24.1709 52.0787 C.3 0.0 **** -0.106
156 C21959 25.104 7.51989 49.0391 C.2 0.0 **** 0.0
157 C21925 27.6584 15.9352 48.3842 C.2 0.0 **** 0.232
158 H22066 31.094 19.6226 50.0704 H 0.0 **** 0.053
159 H22101 22.467 2.82122 55.3265 H 0.0 **** 0.053
160 H22153 19.1299 -8.79216 47.4529 H 0.0 **** 0.053
161 C21943 28.1701 16.655 56.3951 C.2 0.0 **** 0.0
162 H22090 26.9881 16.8602 58.1713 H 0.0 **** 0.053
163 C22028 22.085 -1.83923 41.9724 C.2 0.0 **** 0.0
164 H22077 32.1141 18.0248 54.0004 H 0.0 **** 0.053
165 C21923 28.2573 16.8327 50.5888 C.2 0.0 **** 0.0
166 O21930 27.141 14.9326 47.5865 O.3 0.0 **** -0.464
167 C22012 21.21 -1.43932 46.9747 C.3 0.0 **** -0.053
168 H22131 21.0414 1.79591 48.9859 H 0.0 **** 0.053
169 C21924 27.7108 15.7542 49.7997 C.2 0.0 **** 0.0
170 C21948 27.1015 16.1567 57.3235 C.3 0.0 **** -0.106
171 C21934 29.6882 18.6859 52.1692 C.2 0.0 **** 0.0
172 C22019 21.3575 -2.64912 46.0932 C.2 0.0 **** 0.0
173 H22097 25.9054 4.56566 52.2417 H 0.0 **** 0.053
174 C21922 29.1591 19.1416 50.8299 C.3 0.0 **** -0.053
175 C21906 26.0045 22.864 51.9148 C.3 0.0 **** -0.106
176 C21965 24.7366 6.47997 48.1341 C.2 0.0 **** 0.0
177 C21973 23.9397 4.46601 46.2912 C.2 0.0 **** 0.0
178 H22075 27.8405 19.996 46.2411 H 0.0 **** 0.053
179 H22060 27.386 21.2167 50.0446 H 0.0 **** 0.053
180 H22054 25.4993 23.3569 52.7594 H 0.0 **** 0.053
181 H22078 31.6426 19.5485 54.7082 H 0.0 **** 0.053
182 C22030 21.6442 -4.19963 41.4509 C.2 0.0 **** 0.0
183 C22045 20.6377 -7.39476 45.1028 C.2 0.0 **** 0.052
184 C22033 21.6808 -4.98206 39.1145 C.2 0.0 **** -0.1268
185 C22023 22.9638 17.5004 56.2892 C.3 0.0 **** -0.159
186 C21982 23.8076 2.11172 52.189 C.3 0.0 **** -0.053
187 H22089 27.438 15.2063 57.7765 H 0.0 **** 0.053
188 C21952 26.3042 11.9027 51.3602 C.2 0.0 **** -0.012
189 H22055 26.5875 22.028 52.3326 H 0.0 **** 0.053
190 H22110 21.1799 1.5167 52.6195 H 0.0 **** 0.353
191 H22120 25.6074 10.0583 40.6233 H 0.0 **** 0.053
192 C21927 27.9299 17.216 46.2548 C.3 0.0 **** -0.106
193 H22095 22.5156 3.59563 51.3113 H 0.0 **** 0.053
194 C21949 27.2426 14.4719 51.8036 C.2 0.0 **** -0.012
195 H22132 20.3138 1.12751 47.5262 H 0.0 **** 0.053
196 N21986 21.7926 1.01316 53.2622 N.3 0.0 **** -0.727
197 H22122 23.9758 5.13874 42.4167 H 0.0 **** 0.1268
198 C22017 22.2491 -0.796937 42.9267 C.2 0.0 **** 0.0
199 H22146 20.4808 -9.15961 43.0078 H 0.0 **** 0.1268
200 C21963 24.5544 4.94815 50.0093 C.2 0.0 **** 0.042
201 H22072 26.9063 17.5601 46.0133 H 0.0 **** 0.053
202 H22128 20.3144 -2.45411 48.6834 H 0.0 **** 0.053
203 C21988 25.4053 9.56408 44.3641 C.2 0.0 **** 0.042
204 H22127 22.0075 -1.98333 48.8924 H 0.0 **** 0.053
205 C21961 25.3898 8.32402 51.3344 C.2 0.0 **** -0.1268
206 C21932 26.7764 13.5011 49.5164 C.2 0.0 **** 0.0
207 C21987 25.699 10.6021 45.235 C.2 0.0 **** 0.042
208 C21956 25.7227 9.86992 49.466 C.2 0.0 **** 0.0
209 H22100 21.7462 3.52535 53.8758 H 0.0 **** 0.053
210 H22085 26.235 16.7583 53.8363 H 0.0 **** 0.053
211 H22079 31.3997 19.9429 52.2735 H 0.0 **** 0.1268
212 C22004 22.9963 1.95926 47.1978 C.2 0.0 **** 0.0
213 C21989 25.0459 8.276 44.8385 C.2 0.0 **** 0.0
214 H22096 23.0151 5.39304 52.6314 H 0.0 **** 0.053
215 H22105 24.2419 1.07584 50.3265 H 0.0 **** 0.053
216 C21939 31.2413 18.7054 54.1124 C.3 0.0 **** -0.106
217 C21955 25.6869 9.60108 50.8687 C.2 0.0 **** 0.0
218 C21913 29.4613 23.4276 51.5605 C.3 0.0 **** -0.106
219 C22049 20.1613 -8.97556 47.0989 C.3 0.0 **** -0.086
220 C21994 24.0328 12.249 43.2516 C.3 0.0 **** -0.106
221 C22050 20.1495 -8.71818 45.5972 C.2 0.0 **** 0.347
222 C22040 20.8149 -7.13564 43.6887 C.2 0.0 **** 0.0
223 C21992 25.561 12.0668 43.3609 C.3 0.0 **** 0.107
224 H22119 26.6183 11.5061 40.5247 H 0.0 **** 0.053
225 C21920 28.6116 18.1615 48.5411 C.2 0.0 **** 0.0
226 C22037 21.1424 -5.81424 43.2626 C.2 0.0 **** 0.0
227 C22048 21.127 -8.08038 47.8574 C.3 0.0 **** -0.106
228 C21917 29.6845 20.4546 48.6578 C.3 0.0 **** -0.053
229 C21905 24.9722 22.3165 50.9013 C.3 0.0 **** 0.054
230 C21937 29.0235 17.576 54.2958 C.2 0.0 **** 0.0
231 H22114 23.8056 13.316 43.3918 H 0.0 **** 0.053
232 H22138 22.9613 16.691 57.0365 H 0.0 **** 0.053
233 H22118 24.0577 11.6792 39.8054 H 0.0 **** 0.053
234 H22152 22.1625 -8.29767 47.5481 H 0.0 **** 0.053
235 C21938 30.166 18.0238 54.8936 C.2 0.0 **** 0.0
236 H22142 22.7195 -0.0283524 39.1113 H 0.0 **** 0.1268
237 C22041 20.7212 -8.14922 42.6949 C.2 0.0 **** -0.1268
238 H22099 23.719 4.92047 54.8533 H 0.0 **** 0.053
239 H22071 28.0403 16.2323 45.7762 H 0.0 **** 0.053
240 C21999 24.7008 7.25427 43.9416 C.2 0.0 **** -0.1268
241 C21991 26.0703 10.908 42.5203 C.3 0.0 **** 0.107
242 H22070 28.2162 19.6823 51.0496 H 0.0 **** 0.053
243 C21970 24.7045 6.76056 46.7276 C.2 0.0 **** 0.0
244 H22063 30.2416 23.3872 52.334 H 0.0 **** 0.053
245 C22025 22.7781 0.768432 41.0925 C.2 0.0 **** -0.1268
246 H22109 21.1952 -0.701575 52.2387 H 0.0 **** 0.053
247 H22058 26.0853 22.275 48.3891 H 0.0 **** 0.053
248 H22062 29.893 23.9536 50.6937 H 0.0 **** 0.053
249 C21947 25.7611 15.9741 56.6117 C.3 0.0 **** -0.106
250 C21946 25.4359 17.2277 55.7919 C.3 0.0 **** -0.053
@<TRIPOS>BOND
1 38 39 1
2 223 220 1
3 221 219 1
4 249 250 1
5 69 226 un
6 116 91 un
7 106 46 1
8 36 179 1
9 175 189 1
10 23 175 1
11 120 23 1
12 124 120 1
13 153 124 1
14 229 175 1
15 229 153 1
16 128 36 1
17 218 128 1
18 155 218 1
19 120 36 1
20 23 155 1
21 22 134 1
22 228 22 1
23 107 228 1
24 128 134 1
25 36 107 1
26 225 99 un
27 105 225 un
28 174 105 un
29 228 99 1
30 22 174 1
31 169 165 1
32 157 169 un
33 55 157 un
34 105 165 un
35 225 55 un
36 74 192 1
37 12 74 1
38 99 12 1
39 55 192 1
40 137 166 1
41 206 137 un
42 25 206 un
43 157 166 1
44 169 25 un
45 71 171 un
46 42 71 2
47 174 171 1
48 165 42 un
49 235 230 2
50 216 235 1
51 9 216 1
52 71 230 1
53 171 9 2
54 93 49 1
55 161 93 1
56 73 161 2
57 235 49 1
58 230 73 1
59 250 123 1
60 170 249 1
61 73 123 1
62 161 170 1
63 19 194 un
64 42 19 un
65 25 194 un
66 188 112 un
67 8 188 1
68 194 8 un
69 206 112 un
70 217 80 un
71 208 217 un
72 111 208 un
73 188 80 un
74 112 111 un
75 156 133 un
76 14 156 un
77 205 14 un
78 208 133 un
79 217 205 un
80 200 26 un
81 41 200 un
82 176 41 un
83 14 26 un
84 156 176 un
85 106 136 un
86 137 106 un
87 111 136 un
88 72 40 un
89 136 72 un
90 133 40 un
91 48 243 un
92 40 48 un
93 176 243 un
94 177 125 un
95 97 177 un
96 243 97 un
97 41 125 un
98 131 102 1
99 50 131 1
100 81 50 1
101 200 102 1
102 26 81 1
103 39 51 1
104 186 38 1
105 50 51 1
106 131 186 1
107 34 45 1
108 78 34 1
109 196 78 1
110 186 45 1
111 38 196 1
112 203 207 un
113 213 203 un
114 48 213 un
115 72 207 un
116 241 2 1
117 223 241 1
118 58 223 1
119 203 2 1
120 207 58 1
121 31 220 1
122 47 31 1
123 115 47 1
124 241 115 1
125 240 84 un
126 213 240 un
127 97 84 un
128 77 92 un
129 113 77 un
130 84 113 un
131 177 92 un
132 212 119 un
133 96 212 un
134 125 96 un
135 92 119 un
136 132 151 1
137 116 132 un
138 77 151 1
139 119 116 1
140 59 67 1
141 91 59 1
142 212 67 1
143 27 167 1
144 139 27 1
145 141 139 1
146 59 167 1
147 67 141 1
148 198 57 1
149 65 198 1
150 132 65 un
151 91 57 un
152 167 172 1
153 57 130 un
154 172 130 un
155 250 18 1
156 18 129 1
157 18 185 1
158 81 1 1
159 10 245 1
160 17 10 un
161 163 17 1
162 65 245 un
163 198 163 un
164 182 3 un
165 30 182 1
166 54 30 un
167 163 3 un
168 17 54 un
169 15 184 un
170 149 15 1
171 69 149 1
172 30 184 un
173 182 69 un
174 33 226 un
175 4 33 un
176 3 4 un
177 237 222 un
178 103 237 un
179 149 103 un
180 226 222 un
181 88 29 un
182 33 88 un
183 130 4 un
184 172 29 un
185 121 183 un
186 88 121 un
187 222 183 un
188 227 90 1
189 219 227 1
190 121 90 1
191 183 221 1
192 221 143 2
193 229 152 1
194 229 79 1
195 175 180 1
196 23 70 1
197 120 28 1
198 124 247 1
199 124 66 1
200 128 85 1
201 218 248 1
202 218 244 1
203 155 101 1
204 155 52 1
205 22 158 1
206 228 68 1
207 107 56 1
208 107 64 1
209 174 242 1
210 192 239 1
211 192 201 1
212 74 142 1
213 74 110 1
214 12 178 1
215 12 7 1
216 216 164 1
217 216 181 1
218 9 211 1
219 49 144 1
220 49 127 1
221 93 114 1
222 93 109 1
223 123 83 1
224 123 210 1
225 250 62 1
226 249 122 1
227 249 5 1
228 170 187 1
229 170 162 1
230 19 87 1
231 80 35 1
232 205 100 1
233 131 193 1
234 50 214 1
235 81 173 1
236 51 154 1
237 51 238 1
238 39 209 1
239 39 159 1
240 38 21 1
241 186 32 1
242 45 94 1
243 45 215 1
244 34 104 1
245 34 75 1
246 78 89 1
247 78 246 1
248 196 190 1
249 241 43 1
250 223 118 1
251 220 11 1
252 220 231 1
253 31 117 1
254 31 146 1
255 47 24 1
256 47 233 1
257 115 224 1
258 115 191 1
259 240 138 1
260 113 197 1
261 96 37 1
262 67 98 1
263 59 44 1
264 167 145 1
265 27 204 1
266 27 202 1
267 139 13 1
268 139 150 1
269 141 168 1
270 141 195 1
271 18 108 1
272 129 148 1
273 129 16 1
274 129 76 1
275 185 126 1
276 185 232 1
277 185 6 1
278 1 61 1
279 245 20 1
280 10 236 1
281 54 135 1
282 184 147 1
283 15 95 1
284 237 199 1
285 103 60 1
286 29 86 1
287 90 82 1
288 90 53 1
289 227 140 1
290 227 234 1
291 219 160 1
292 219 63 1
@<TRIPOS>MOLECULE
Sketch 4
250 292
SMALL
USER_CHARGES


@<TRIPOS>ATOM
1 C15914 68.7354 32.0062 37.5713 C.3 0.0 **** -0.106
2 H16069 68.9894 28.828 40.1788 H 0.0 **** 0.053
3 C16037 46.4473 8.98194 37.6527 C.2 0.0 **** 0.0
4 C16044 46.0599 11.2533 36.7767 C.2 0.0 **** 0.0
5 C16008 51.8736 13.9554 37.7398 C.2 0.0 **** 0.0
6 C16030 48.7067 8.36091 38.4591 C.2 0.0 **** 0.0
7 H16059 70.4404 28.0434 36.5599 H 0.0 **** 0.053
8 C15922 64.8415 29.044 39.522 C.3 0.0 **** -0.053
9 C15967 60.9275 22.2886 38.9474 C.2 0.0 **** -0.1268
10 H16131 50.5282 17.0928 34.7819 H 0.0 **** 0.053
11 C15988 59.452 18.1579 39.2518 C.2 0.0 **** 0.042
12 C15949 60.2992 27.1384 38.0513 C.2 0.0 **** -0.012
13 C15966 59.6021 21.9122 38.6463 C.2 0.0 **** 0.0
14 C15935 62.5864 29.9674 38.8842 C.2 0.0 **** 0.0
15 C16033 49.0984 6.08233 39.3118 C.2 0.0 **** -0.1268
16 C16036 47.3425 8.02283 38.216 C.2 0.0 **** 0.0
17 C15969 59.1213 20.5501 38.747 C.2 0.0 **** 0.0
18 C15923 62.9302 27.5163 39.0583 C.2 0.0 **** 0.0
19 H16140 52.6818 24.4835 37.8849 H 0.0 **** 0.41
20 H16132 50.6312 15.3396 34.6315 H 0.0 **** 0.053
21 C15948 59.2299 32.4306 36.0077 C.3 0.0 **** -0.106
22 C16026 52.7902 9.3846 39.2088 C.2 0.0 **** -0.1268
23 C16005 51.8989 17.6398 37.1238 C.2 0.0 **** -0.1268
24 O15990 60.2174 17.0899 39.6598 O.3 0.0 **** -0.202
25 H16146 43.6192 7.06173 37.56 H 0.0 **** 0.1268
26 C15972 53.1778 18.0332 37.5632 C.2 0.0 **** 0.0
27 H16107 47.0475 18.1166 36.5359 H 0.0 **** 0.053
28 C15978 52.0362 22.802 37.1357 C.3 0.0 **** 0.107
29 C15924 62.3544 26.1984 38.9297 C.2 0.0 **** 0.0
30 H16154 40.8694 10.1435 36.2724 H 0.0 **** 0.053
31 H16117 64.193 16.4579 39.2998 H 0.0 **** 0.053
32 H16124 49.3984 16.78 37.0044 H 0.0 **** 0.053
33 C15944 61.0869 31.3348 37.2891 C.2 0.0 **** 0.0
34 O16024 52.3338 24.195 37.0271 O.3 0.0 **** -0.57
35 H16129 48.1497 17.1251 34.6568 H 0.0 **** 0.053
36 H16079 64.829 31.3464 41.0858 H 0.0 **** 0.1268
37 C15963 52.763 20.515 37.3546 C.2 0.0 **** 0.042
38 H16139 61.2685 30.1236 31.4093 H 0.0 **** 0.053
39 C15971 57.2452 18.9336 38.5485 C.2 0.0 **** 0.0
40 C16032 50.9407 7.73364 39.2412 C.2 0.0 **** -0.1268
41 H16109 46.8028 18.7375 34.274 H 0.0 **** 0.053
42 H16116 61.5901 15.9511 37.7631 H 0.0 **** 0.053
43 C15979 50.1025 23.3239 35.5163 C.3 0.0 **** -0.106
44 C15921 64.2255 27.6629 39.5231 C.2 0.0 **** 0.0
45 H16085 61.4021 29.5105 36.1721 H 0.0 **** 0.053
46 H16119 62.9269 16.2331 41.3023 H 0.0 **** 0.053
47 H16061 66.4024 30.8802 38.3478 H 0.0 **** 0.053
48 C16031 49.6002 7.38597 39.0093 C.2 0.0 **** 0.0
49 H16128 46.9229 14.7086 34.7647 H 0.0 **** 0.053
50 C15955 56.457 23.6765 37.5298 C.2 0.0 **** 0.0
51 C15928 66.4166 24.286 41.0044 C.3 0.0 **** -0.106
52 C16012 48.5945 14.0373 35.9922 C.3 0.0 **** -0.053
53 C15958 56.8544 21.3156 38.0798 C.2 0.0 **** 0.0
54 H16147 45.1544 5.4148 38.5589 H 0.0 **** 0.1268
55 C16038 46.9346 10.2817 37.3363 C.2 0.0 **** 0.0
56 H16122 56.4717 14.0942 39.0974 H 0.0 **** 0.1268
57 H16120 61.6226 15.3346 40.5154 H 0.0 **** 0.053
58 H16081 61.6736 34.1711 38.4535 H 0.0 **** 0.053
59 C15959 55.4778 21.0353 37.8199 C.2 0.0 **** 0.0
60 C15941 61.109 33.483 39.1151 C.3 0.0 **** -0.106
61 H16065 67.9982 32.6849 37.1115 H 0.0 **** 0.053
62 H16105 49.1948 18.9521 37.4881 H 0.0 **** 0.053
63 C15976 50.756 20.9339 36.1024 C.3 0.0 **** 0.107
64 C16013 47.7103 15.1313 35.4049 C.3 0.0 **** -0.106
65 C15905 67.7149 29.1226 35.1229 C.3 0.0 **** 0.054
66 H16083 59.1686 32.5261 39.162 H 0.0 **** 0.053
67 C15912 67.2483 30.5527 38.9828 C.3 0.0 **** 0.107
68 C16043 46.6047 12.4977 36.3645 C.2 0.0 **** -0.1268
69 H16153 41.9107 10.4716 34.882 H 0.0 **** 0.053
70 C15985 46.9005 19.6107 34.9361 C.3 0.0 **** 0.081
71 C16027 51.4292 9.01186 38.9516 C.2 0.0 **** 0.0
72 C16046 44.6775 10.9389 36.5935 C.2 0.0 **** 0.0
73 H16121 58.295 15.7491 39.3402 H 0.0 **** 0.1268
74 C15913 68.2895 31.6588 39.0034 C.3 0.0 **** -0.106
75 C16007 52.7723 12.9848 38.2147 C.2 0.0 **** 0.0265
76 H16057 69.9491 29.6219 38.1788 H 0.0 **** 0.053
77 H16068 68.6647 27.3863 39.2061 H 0.0 **** 0.053
78 C15907 68.896 30.7531 36.6729 C.3 0.0 **** -0.053
79 H16125 48.9207 14.8008 37.9607 H 0.0 **** 0.053
80 C15977 51.2573 22.3828 35.8806 C.3 0.0 **** -0.053
81 C16022 60.4491 28.8042 33.6839 C.3 0.0 **** -0.159
82 H16086 61.3744 32.059 34.5062 H 0.0 **** 0.053
83 C16000 53.6169 15.6586 38.0169 C.2 0.0 **** 0.0
84 H16123 51.2185 18.3951 36.7633 H 0.0 **** 0.1268
85 H16111 61.2769 17.8902 41.2456 H 0.0 **** 0.053
86 H16067 67.4201 27.9307 41.5236 H 0.0 **** 0.053
87 H16108 45.907 20.0877 34.984 H 0.0 **** 0.053
88 C16050 42.8148 9.3009 36.3988 C.2 0.0 **** 0.347
89 H16091 60.1657 29.2574 37.9245 H 0.0 **** 0.1268
90 N15986 47.8317 20.5501 34.2929 N.3 0.0 **** -0.727
91 H16134 60.7952 28.0932 32.9188 H 0.0 **** 0.053
92 H16110 48.59 20.0359 33.8429 H 0.0 **** 0.353
93 C15909 69.3676 28.281 36.5823 C.3 0.0 **** 0.054
94 H16130 48.5622 15.835 33.522 H 0.0 **** 0.053
95 H16058 68.8196 27.3856 36.9435 H 0.0 **** 0.053
96 C15983 48.8441 19.3436 36.5235 C.3 0.0 **** -0.106
97 H16082 59.2151 33.9818 38.1479 H 0.0 **** 0.053
98 C16025 53.2453 10.6504 38.9641 C.2 0.0 **** -0.1268
99 C15938 61.9413 32.2606 39.3842 C.2 0.0 **** 0.0
100 O15930 62.6681 23.8031 39.1784 O.3 0.0 **** -0.464
101 H16100 49.7718 22.1625 33.7217 H 0.0 **** 0.053
102 C15998 56.2948 16.2405 38.7166 C.2 0.0 **** 0.0
103 H16152 42.2348 11.7799 37.6449 H 0.0 **** 0.053
104 H16136 60.5484 28.3194 34.667 H 0.0 **** 0.053
105 O15993 61.2976 19.665 39.3595 O.3 0.0 **** -0.202
106 O16006 54.0725 13.313 38.5232 O.3 0.0 **** -0.0685
107 C15989 58.0996 17.8597 38.9429 C.2 0.0 **** 0.0
108 C16001 54.5079 14.6273 38.4475 C.2 0.0 **** 0.042
109 C16010 49.5356 14.6389 37.0529 C.3 0.0 **** -0.053
110 H16087 58.9762 30.3841 35.3722 H 0.0 **** 0.053
111 C16018 52.3715 11.6524 38.429 C.2 0.0 **** 0.0
112 C15970 55.8884 18.6426 38.2507 C.2 0.0 **** 0.0
113 C16028 50.544 9.99125 38.3959 C.2 0.0 **** 0.0
114 C16015 50.0396 16.153 35.0807 C.3 0.0 **** -0.106
115 C15968 57.7516 20.2653 38.4648 C.2 0.0 **** 0.0
116 H16073 67.0566 23.4018 41.1464 H 0.0 **** 0.053
117 H16149 44.095 12.9993 36.577 H 0.0 **** 0.053
118 C15960 54.586 22.11 37.4611 C.2 0.0 **** 0.0
119 C15942 59.7912 33.0903 38.441 C.3 0.0 **** -0.106
120 C15929 67.2369 25.4719 40.4914 C.3 0.0 **** -0.106
121 O15910 69.0148 28.5299 35.2162 O.3 0.0 **** -0.32
122 H16112 63.0677 18.826 39.8296 H 0.0 **** 0.053
123 H16133 62.3145 29.874 33.6628 H 0.0 **** 0.053
124 C15906 67.7052 30.5523 35.713 C.3 0.0 **** -0.106
125 C15981 48.3976 21.4986 35.2532 C.3 0.0 **** 0.134
126 C15961 55.1169 23.3966 37.2809 C.2 0.0 **** -0.1268
127 C15916 66.0133 29.1775 40.5075 C.3 0.0 **** 0.107
128 H16138 59.931 31.052 32.1196 H 0.0 **** 0.053
129 C15946 60.9276 31.0794 34.7591 C.3 0.0 **** -0.053
130 C16020 48.7754 11.9064 37.2586 C.2 0.0 **** 0.0
131 H16088 58.92 31.5571 34.0414 H 0.0 **** 0.053
132 C16014 48.5812 16.1167 34.5861 C.3 0.0 **** -0.106
133 C15937 61.8487 31.1842 38.55 C.2 0.0 **** 0.0
134 C15919 66.3699 26.6713 40.2299 C.2 0.0 **** 0.0
135 H16150 43.8173 12.1662 35.0448 H 0.0 **** 0.053
136 C16047 43.7539 12.0489 36.1432 C.3 0.0 **** -0.106
137 C16009 50.0865 16.0151 36.6132 C.3 0.0 **** -0.053
138 H16072 65.7303 23.5859 39.0806 H 0.0 **** 0.053
139 C16042 45.5198 6.40981 38.2959 C.2 0.0 **** -0.1268
140 H16080 60.9285 34.0279 40.0555 H 0.0 **** 0.053
141 C15920 65.0495 26.5227 39.8363 C.2 0.0 **** 0.0
142 H16104 49.3549 18.7526 35.7438 H 0.0 **** 0.053
143 H16095 51.0076 20.3175 35.2191 H 0.0 **** 0.053
144 C15991 61.483 17.4439 40.2585 C.3 0.0 **** 0.107
145 H16074 65.9833 24.5452 41.984 H 0.0 **** 0.053
146 C16019 47.9295 12.8152 36.5639 C.2 0.0 **** 0.0
147 C16002 55.8055 14.8983 38.783 C.2 0.0 **** -0.1268
148 H16052 67.4592 29.1232 34.0545 H 0.0 **** 0.053
149 C15956 57.3457 22.6416 37.9546 C.2 0.0 **** 0.0
150 C15964 53.6263 19.4035 37.5904 C.2 0.0 **** 0.0
151 H16093 54.4838 24.1957 36.9081 H 0.0 **** 0.1268
152 H16092 56.253 25.7713 37.0294 H 0.0 **** 0.1268
153 C15996 63.2335 15.9308 39.1607 C.3 0.0 **** -0.106
154 C15917 67.0008 27.9968 40.5014 C.3 0.0 **** -0.053
155 C15950 60.8042 28.4097 38.1719 C.2 0.0 **** -0.1268
156 C15952 58.2521 25.3145 37.65 C.2 0.0 **** -0.012
157 H16084 62.666 30.7056 36.0026 H 0.0 **** 0.053
158 C15932 60.5128 24.6496 38.4405 C.2 0.0 **** 0.0
159 H16143 51.6163 6.98813 39.6663 H 0.0 **** 0.1268
160 H16148 45.9732 13.2073 35.8368 H 0.0 **** 0.1268
161 C15934 63.8038 30.1309 39.6744 C.2 0.0 **** 0.0
162 H16151 41.6524 12.5936 36.1766 H 0.0 **** 0.053
163 H16076 68.0312 25.743 41.2073 H 0.0 **** 0.053
164 H16101 48.458 23.2954 34.0544 H 0.0 **** 0.053
165 H16103 49.0613 21.3404 37.3221 H 0.0 **** 0.053
166 C15931 61.3506 23.5961 38.8492 C.2 0.0 **** 0.232
167 C15999 57.6196 16.5446 39.0294 C.2 0.0 **** -0.1268
168 C15925 63.1733 25.0846 39.2872 C.2 0.0 **** 0.232
169 C15962 53.1959 21.8269 37.3125 C.2 0.0 **** 0.0
170 C15951 59.1757 24.3095 38.1117 C.2 0.0 **** 0.0
171 C15947 59.4296 31.3115 34.9857 C.3 0.0 **** -0.106
172 C15936 62.1213 28.6706 38.6569 C.2 0.0 **** 0.0
173 C16017 51.0196 11.3031 38.1185 C.2 0.0 **** 0.0
174 C15980 49.1693 22.6088 34.5335 C.3 0.0 **** -0.106
175 C16004 51.4586 16.3292 37.1477 C.2 0.0 **** 0.0
176 H16063 67.8766 32.5436 39.5087 H 0.0 **** 0.053
177 H16106 46.8179 19.7696 37.1229 H 0.0 **** 0.053
178 C16040 45.087 8.63942 37.3932 C.2 0.0 **** 0.0
179 H16070 65.2397 29.1534 38.4929 H 0.0 **** 0.053
180 H16056 69.7955 30.8692 36.0509 H 0.0 **** 0.053
181 H16066 65.5758 29.2703 41.5124 H 0.0 **** 0.053
182 C15973 54.0773 17.0045 37.9736 C.2 0.0 **** 0.0
183 C15954 56.9466 24.9997 37.3714 C.2 0.0 **** -0.1268
184 C16029 49.1852 9.65676 38.1538 C.2 0.0 **** 0.0
185 C15926 64.4696 25.1999 39.7068 C.2 0.0 **** 0.0
186 H16113 61.5204 18.267 37.3106 H 0.0 **** 0.053
187 H16078 63.3434 33.2761 40.6262 H 0.0 **** 0.053
188 H16077 62.3124 32.1666 41.4928 H 0.0 **** 0.053
189 C15908 69.0766 29.4822 37.519 C.3 0.0 **** -0.053
190 H16055 66.7577 30.7218 36.2486 H 0.0 **** 0.053
191 H16126 49.2394 13.6565 35.1748 H 0.0 **** 0.053
192 C15945 61.5688 30.593 36.0638 C.3 0.0 **** -0.106
193 C15974 55.4185 17.3047 38.3213 C.2 0.0 **** 0.0
194 O16051 42.3909 8.14855 36.2976 O.2 0.0 **** -0.419
195 H16127 47.2039 15.6552 36.2333 H 0.0 **** 0.053
196 H16114 63.2618 18.4862 37.5316 H 0.0 **** 0.053
197 C16041 44.6535 7.33105 37.7451 C.2 0.0 **** -0.1268
198 C15933 61.0556 25.9872 38.451 C.2 0.0 **** 0.0
199 C15940 63.9396 31.2138 40.4721 C.2 0.0 **** -0.1268
200 C15997 62.3247 16.1722 40.3835 C.3 0.0 **** -0.106
201 H16064 69.6844 32.561 37.6176 H 0.0 **** 0.053
202 H16142 53.4615 8.62908 39.6207 H 0.0 **** 0.1268
203 C15911 67.8476 29.2328 38.4185 C.3 0.0 **** -0.053
204 H16141 54.2788 10.9202 39.1809 H 0.0 **** 0.1268
205 C15987 59.9597 19.4415 39.1226 C.2 0.0 **** 0.042
206 C15927 65.2901 23.9742 40.0185 C.3 0.0 **** -0.106
207 C16003 52.3101 15.3263 37.6292 C.2 0.0 **** 0.0
208 H16097 51.3565 22.6506 37.9997 H 0.0 **** 0.053
209 C16048 42.3072 11.7892 36.545 C.3 0.0 **** -0.106
210 O15975 51.4038 20.3126 37.2485 O.3 0.0 **** -0.202
211 H16115 63.172 16.1741 36.9956 H 0.0 **** 0.053
212 H16099 50.5076 24.2524 35.0945 H 0.0 **** 0.053
213 C16034 47.786 5.7634 39.0839 C.2 0.0 **** -0.1268
214 H16137 61.5828 31.7182 32.1468 H 0.0 **** 0.053
215 H16089 58.1704 32.4965 36.3157 H 0.0 **** 0.053
216 H16071 64.6391 23.1754 40.4018 H 0.0 **** 0.053
217 C16045 44.2048 9.64102 36.8303 C.2 0.0 **** 0.052
218 O15915 66.7662 30.3887 40.3255 O.3 0.0 **** -0.32
219 C16049 41.8891 10.4389 35.9871 C.3 0.0 **** -0.086
220 S15953 58.7152 26.9776 37.3253 S.2 0.0 **** 0.024
221 H16062 69.1479 31.3157 39.6032 H 0.0 **** 0.053
222 C16039 48.2944 10.6223 37.5878 C.2 0.0 **** 0.0
223 C15992 62.1301 18.4889 39.3651 C.3 0.0 **** 0.107
224 C16011 50.5589 13.5997 37.427 C.2 0.0 **** 0.0
225 H16118 63.4729 14.8599 39.084 H 0.0 **** 0.053
226 C16035 46.8779 6.71873 38.5334 C.2 0.0 **** 0.0
227 H16054 67.7608 31.3058 34.9124 H 0.0 **** 0.053
228 C15957 58.7047 22.9543 38.234 C.2 0.0 **** 0.0
229 H16090 59.4615 33.4108 35.5471 H 0.0 **** 0.053
230 C16016 50.129 12.2724 37.5762 C.2 0.0 **** 0.0
231 H16053 66.9812 28.4793 35.6488 H 0.0 **** 0.053
232 C15995 62.5692 16.4396 37.8765 C.3 0.0 **** -0.106
233 H16075 67.7595 25.1698 39.5617 H 0.0 **** 0.053
234 H16094 61.6529 21.5583 39.2744 H 0.0 **** 0.1268
235 H16144 49.7867 5.34656 39.7317 H 0.0 **** 0.1268
236 H16098 49.5459 23.606 36.4264 H 0.0 **** 0.053
237 C16021 61.2383 30.1168 33.5938 C.3 0.0 **** -0.053
238 C15918 68.2164 28.3176 39.5829 C.3 0.0 **** -0.106
239 C15994 62.3772 17.9706 37.933 C.3 0.0 **** -0.106
240 H16102 47.5341 21.9633 35.7593 H 0.0 **** 0.053
241 C15965 54.9859 19.6979 37.8903 C.2 0.0 **** 0.0
242 C15943 60.0778 32.236 37.2306 C.2 0.0 **** 0.0
243 C15984 47.3355 19.1655 36.3606 C.3 0.0 **** -0.106
244 C16023 60.9946 30.7916 32.24 C.3 0.0 **** -0.159
245 C15939 62.883 32.2721 40.5437 C.3 0.0 **** -0.106
246 H16145 47.4067 4.76811 39.3237 H 0.0 **** 0.1268
247 H16060 67.0839 28.7242 37.8086 H 0.0 **** 0.053
248 H16096 51.9741 22.3809 35.044 H 0.0 **** 0.053
249 C15982 49.2566 20.8171 36.3707 C.3 0.0 **** -0.053
250 H16135 59.3775 28.986 33.5082 H 0.0 **** 0.053
@<TRIPOS>BOND
1 93 95 1
2 136 135 1
3 184 222 un
4 18 172 un
5 78 124 1
6 189 78 1
7 93 189 1
8 121 93 1
9 65 124 1
10 65 121 1
11 67 203 1
12 74 67 1
13 1 74 1
14 189 203 1
15 78 1 1
16 127 218 1
17 154 127 1
18 238 154 1
19 67 218 1
20 203 238 1
21 141 134 un
22 44 141 un
23 8 44 un
24 154 134 1
25 127 8 1
26 29 18 1
27 168 29 un
28 185 168 un
29 44 18 un
30 141 185 un
31 51 206 1
32 120 51 1
33 134 120 1
34 185 206 1
35 166 100 1
36 158 166 un
37 198 158 un
38 168 100 1
39 29 198 un
40 14 161 un
41 172 14 2
42 8 161 1
43 99 133 2
44 245 99 1
45 199 245 1
46 14 133 1
47 161 199 2
48 119 60 1
49 242 119 1
50 33 242 2
51 99 60 1
52 133 33 1
53 129 192 1
54 171 129 1
55 21 171 1
56 33 192 1
57 242 21 1
58 155 12 un
59 172 155 un
60 198 12 un
61 156 170 un
62 220 156 1
63 12 220 un
64 158 170 un
65 50 183 un
66 149 50 un
67 228 149 un
68 156 183 un
69 170 228 un
70 59 53 un
71 118 59 un
72 126 118 un
73 149 53 un
74 50 126 un
75 37 169 un
76 150 37 un
77 241 150 un
78 118 169 un
79 59 241 un
80 9 13 un
81 166 9 un
82 228 13 un
83 17 115 un
84 13 17 un
85 53 115 un
86 39 112 un
87 115 39 un
88 241 112 un
89 182 26 un
90 193 182 un
91 112 193 un
92 150 26 un
93 63 210 1
94 80 63 1
95 28 80 1
96 37 210 1
97 169 28 1
98 174 43 1
99 125 174 1
100 249 125 1
101 80 43 1
102 63 249 1
103 243 96 1
104 70 243 1
105 90 70 1
106 249 96 1
107 125 90 1
108 11 205 un
109 107 11 un
110 39 107 un
111 17 205 un
112 144 24 1
113 223 144 1
114 105 223 1
115 11 24 1
116 205 105 1
117 232 239 1
118 153 232 1
119 200 153 1
120 223 239 1
121 144 200 1
122 167 102 un
123 107 167 un
124 193 102 un
125 108 83 un
126 147 108 un
127 102 147 un
128 182 83 un
129 175 207 un
130 23 175 un
131 26 23 un
132 83 207 un
133 75 106 1
134 5 75 un
135 108 106 1
136 207 5 1
137 109 137 1
138 224 109 1
139 175 137 1
140 5 224 un
141 64 52 1
142 132 64 1
143 114 132 1
144 109 52 1
145 137 114 1
146 173 230 1
147 111 173 1
148 75 111 un
149 224 230 un
150 52 146 1
151 230 130 un
152 146 130 un
153 129 237 1
154 237 81 1
155 237 244 1
156 28 34 1
157 22 98 1
158 71 22 un
159 113 71 1
160 111 98 un
161 173 113 un
162 6 184 un
163 48 6 1
164 40 48 un
165 113 184 un
166 71 40 un
167 213 15 un
168 226 213 1
169 16 226 1
170 48 15 un
171 6 16 un
172 55 3 un
173 222 55 un
174 16 3 un
175 197 178 un
176 139 197 un
177 226 139 un
178 3 178 un
179 4 68 un
180 55 4 un
181 130 222 un
182 146 68 un
183 72 217 un
184 4 72 un
185 178 217 un
186 209 136 1
187 219 209 1
188 88 219 1
189 72 136 1
190 217 88 1
191 88 194 2
192 65 148 1
193 65 231 1
194 124 227 1
195 124 190 1
196 78 180 1
197 189 76 1
198 93 7 1
199 203 247 1
200 67 47 1
201 74 221 1
202 74 176 1
203 1 201 1
204 1 61 1
205 127 181 1
206 154 86 1
207 238 77 1
208 238 2 1
209 8 179 1
210 206 216 1
211 206 138 1
212 51 116 1
213 51 145 1
214 120 233 1
215 120 163 1
216 245 188 1
217 245 187 1
218 199 36 1
219 60 140 1
220 60 58 1
221 119 97 1
222 119 66 1
223 192 157 1
224 192 45 1
225 129 82 1
226 171 110 1
227 171 131 1
228 21 215 1
229 21 229 1
230 155 89 1
231 183 152 1
232 126 151 1
233 9 234 1
234 63 143 1
235 80 248 1
236 28 208 1
237 43 236 1
238 43 212 1
239 174 101 1
240 174 164 1
241 125 240 1
242 249 165 1
243 96 142 1
244 96 62 1
245 243 177 1
246 243 27 1
247 70 87 1
248 70 41 1
249 90 92 1
250 144 85 1
251 223 122 1
252 239 186 1
253 239 196 1
254 232 211 1
255 232 42 1
256 153 31 1
257 153 225 1
258 200 46 1
259 200 57 1
260 167 73 1
261 147 56 1
262 23 84 1
263 137 32 1
264 109 79 1
265 52 191 1
266 64 195 1
267 64 49 1
268 132 35 1
269 132 94 1
270 114 10 1
271 114 20 1
272 237 123 1
273 81 91 1
274 81 250 1
275 81 104 1
276 244 214 1
277 244 128 1
278 244 38 1
279 34 19 1
280 98 204 1
281 22 202 1
282 40 159 1
283 15 235 1
284 213 246 1
285 197 25 1
286 139 54 1
287 68 160 1
288 136 117 1
289 209 162 1
290 209 103 1
291 219 69 1
292 219 30 1
@<TRIPOS>MOLECULE
Sketch 4
250 292
SMALL
USER_CHARGES


@<TRIPOS>ATOM
1 H12056 38.5943 65.1719 20.7527 H 0.0 **** 0.053
2 H12090 28.5699 61.6042 21.2895 H 0.0 **** 0.053
3 C11919 38.7842 58.3373 21.0222 C.2 0.0 **** 0.0
4 C11925 36.501 56.1964 19.0657 C.2 0.0 **** 0.232
5 C12016 30.6183 42.2612 8.65232 C.2 0.0 **** 0.0
6 C11987 36.2277 51.0565 15.1027 C.2 0.0 **** 0.042
7 C11951 33.1117 54.2754 17.3966 C.2 0.0 **** 0.0
8 C12000 32.2038 45.9721 11.3984 C.2 0.0 **** 0.0
9 C12004 29.8229 45.7525 11.0161 C.2 0.0 **** 0.0
10 C12014 26.7241 45.5696 8.72465 C.3 0.0 **** -0.106
11 H12140 27.4686 51.0894 16.8903 H 0.0 **** 0.41
12 C12019 28.2167 42.0217 8.07582 C.2 0.0 **** 0.0
13 H12148 26.1719 41.6525 7.63739 H 0.0 **** 0.1268
14 C11937 32.463 59.7458 22.3213 C.2 0.0 **** 0.0
15 H12143 34.8327 38.5336 6.96474 H 0.0 **** 0.1268
16 H12061 36.3941 62.0728 22.2835 H 0.0 **** 0.053
17 H12145 32.1489 35.1173 4.99164 H 0.0 **** 0.1268
18 C11939 33.446 59.8311 24.6136 C.3 0.0 **** -0.106
19 H12138 28.9995 62.3367 17.1894 H 0.0 **** 0.053
20 O11990 37.645 49.4096 14.0236 O.3 0.0 **** -0.202
21 H12152 24.1713 37.7493 7.84883 H 0.0 **** 0.053
22 C11992 38.5588 51.4647 14.8261 C.3 0.0 **** 0.107
23 C11956 32.2536 52.3542 16.0821 C.2 0.0 **** 0.0
24 C12025 34.3846 42.0922 8.88686 C.2 0.0 **** -0.1268
25 C11949 32.7937 56.6769 19.2406 C.2 0.0 **** -0.012
26 C11950 32.6944 57.6715 20.1823 C.2 0.0 **** -0.1268
27 C12045 26.5456 37.9137 5.98992 C.2 0.0 **** 0.052
28 H12122 35.6325 45.8775 11.417 H 0.0 **** 0.1268
29 C11994 38.5746 52.0907 13.4159 C.3 0.0 **** -0.106
30 N11986 24.0414 48.1229 11.2911 N.3 0.0 **** -0.727
31 H12073 41.0828 56.1236 19.6741 H 0.0 **** 0.053
32 H12150 24.5731 40.3163 6.21704 H 0.0 **** 0.053
33 H12133 31.9946 61.9706 17.7771 H 0.0 **** 0.053
34 H12058 39.5726 61.9608 19.1353 H 0.0 **** 0.053
35 H12076 40.8902 58.0712 21.2881 H 0.0 **** 0.053
36 H12106 24.3635 45.4768 12.8848 H 0.0 **** 0.053
37 H12080 30.8699 60.1812 25.232 H 0.0 **** 0.053
38 C12050 25.3915 37.2145 5.34684 C.2 0.0 **** 0.347
39 C11969 34.9164 51.5248 15.4687 C.2 0.0 **** 0.0
40 H12066 37.3404 58.8135 23.6142 H 0.0 **** 0.053
41 H12071 38.916 55.1333 18.7943 H 0.0 **** 0.053
42 C11988 36.4039 49.9096 14.3439 C.2 0.0 **** 0.042
43 C12027 33.5679 40.1138 7.70277 C.2 0.0 **** 0.0
44 C12039 29.7981 40.252 7.47784 C.2 0.0 **** 0.0
45 C11912 37.4427 61.9496 22.6169 C.3 0.0 **** 0.107
46 C11924 35.2092 56.6679 19.4503 C.2 0.0 **** 0.0
47 C12032 33.8052 38.8885 7.07133 C.2 0.0 **** -0.1268
48 H12065 36.5821 64.7549 22.6044 H 0.0 **** 0.053
49 H12060 37.7659 61.3891 20.5359 H 0.0 **** 0.053
50 H12055 36.1454 63.364 20.6015 H 0.0 **** 0.053
51 H12085 32.1235 59.8233 19.4 H 0.0 **** 0.053
52 C11926 37.6716 56.712 19.5491 C.2 0.0 **** 0.0
53 H12128 25.9955 43.7094 7.84514 H 0.0 **** 0.053
54 C12018 33.0433 42.5664 9.0603 C.2 0.0 **** 0.0
55 C11995 39.398 51.2642 12.4044 C.3 0.0 **** -0.106
56 H12059 40.541 63.4481 19.3747 H 0.0 **** 0.053
57 H12086 30.4807 62.3619 19.7582 H 0.0 **** 0.053
58 C12008 31.3994 44.1432 9.9756 C.2 0.0 **** 0.0
59 C12043 27.1765 41.2381 7.62918 C.2 0.0 **** -0.1268
60 C11905 37.3312 63.5109 18.7813 C.3 0.0 **** 0.054
61 H12102 23.5969 48.0119 13.2976 H 0.0 **** 0.053
62 H12115 39.7659 51.9204 11.6021 H 0.0 **** 0.053
63 H12121 36.516 47.7379 12.7882 H 0.0 **** 0.1268
64 C11942 29.8451 59.9186 23.3189 C.3 0.0 **** -0.106
65 C12042 29.5213 35.7407 5.12913 C.2 0.0 **** -0.1268
66 H12067 39.4982 58.9396 22.8904 H 0.0 **** 0.053
67 C11952 31.7486 54.6832 17.6246 C.2 0.0 **** -0.012
68 H12103 25.627 47.531 14.1975 H 0.0 **** 0.053
69 H12108 22.82 46.4217 11.3913 H 0.0 **** 0.053
70 H12130 26.5186 45.9927 7.72935 H 0.0 **** 0.053
71 H12114 38.9772 53.1108 13.5 H 0.0 **** 0.053
72 H12131 27.9988 47.0965 9.63331 H 0.0 **** 0.053
73 O12024 27.0483 51.2165 16.0258 O.3 0.0 **** -0.57
74 H12147 29.7298 34.7733 4.66735 H 0.0 **** 0.1268
75 C12046 26.3017 39.1127 6.67315 C.2 0.0 **** 0.0
76 H12149 24.8919 40.1072 7.94142 H 0.0 **** 0.053
77 C12012 28.0704 43.4666 8.46766 C.3 0.0 **** -0.053
78 C11981 24.3844 48.4659 12.6719 C.3 0.0 **** 0.134
79 H12057 39.9043 63.2512 21.5905 H 0.0 **** 0.053
80 C12005 29.6088 46.8204 11.8681 C.2 0.0 **** -0.1268
81 C11979 25.0982 50.3592 14.1597 C.3 0.0 **** -0.106
82 C12035 30.6048 36.5147 5.60161 C.2 0.0 **** 0.0
83 H12107 25.116 44.8975 11.3922 H 0.0 **** 0.053
84 C12010 28.9143 43.7324 9.72857 C.3 0.0 **** -0.053
85 C11917 38.8121 59.3458 22.1226 C.3 0.0 **** -0.053
86 C11966 34.6913 52.6904 16.2978 C.2 0.0 **** 0.0
87 H12068 40.109 60.5828 20.8549 H 0.0 **** 0.053
88 C11944 31.3791 60.1611 21.4018 C.2 0.0 **** 0.0
89 C12048 23.9039 38.4236 7.01889 C.3 0.0 **** -0.106
90 H12092 29.6704 54.271 17.3061 H 0.0 **** 0.1268
91 H12099 24.906 51.3969 14.4602 H 0.0 **** 0.053
92 C11991 38.7369 49.956 14.7949 C.3 0.0 **** 0.107
93 C12015 28.0891 46.0782 9.22587 C.3 0.0 **** -0.106
94 C11943 30.1085 60.2276 21.8656 C.2 0.0 **** 0.0
95 C11923 35.1517 57.7245 20.4327 C.2 0.0 **** 0.0
96 H12141 35.2044 42.6822 9.29631 H 0.0 **** 0.1268
97 C11931 35.4867 54.5525 17.652 C.2 0.0 **** 0.232
98 H12118 41.2185 50.0581 12.3768 H 0.0 **** 0.053
99 H12120 39.8641 48.5595 13.6487 H 0.0 **** 0.053
100 H12142 35.6558 40.5622 8.10796 H 0.0 **** 0.1268
101 C11973 31.9855 47.0838 12.2596 C.2 0.0 **** 0.0
102 C11928 40.1077 56.422 20.0885 C.3 0.0 **** -0.106
103 H12146 27.4062 35.5689 4.85437 H 0.0 **** 0.1268
104 C12011 30.351 43.4059 9.41843 C.2 0.0 **** 0.0
105 C12026 34.6314 40.918 8.2314 C.2 0.0 **** -0.1268
106 H12063 37.2492 63.2283 24.3381 H 0.0 **** 0.053
107 C12013 26.6643 44.023 8.65934 C.3 0.0 **** -0.106
108 C11957 33.3485 53.1069 16.5892 C.2 0.0 **** 0.0
109 H12104 26.5548 46.9674 11.3523 H 0.0 **** 0.053
110 C11946 30.6104 61.3668 19.293 C.3 0.0 **** -0.053
111 C11967 35.7359 53.453 16.86 C.2 0.0 **** -0.1268
112 C11983 26.0909 46.6218 12.2922 C.3 0.0 **** -0.106
113 H12094 36.7699 53.1901 16.6915 H 0.0 **** 0.1268
114 C11948 28.9434 60.6033 20.9974 C.3 0.0 **** -0.106
115 C11920 37.6156 57.7733 20.5356 C.2 0.0 **** 0.0
116 C11982 25.7432 47.8511 13.1481 C.3 0.0 **** -0.053
117 C12041 28.2175 36.1772 5.23931 C.2 0.0 **** -0.1268
118 H12135 29.8547 59.9532 16.8887 H 0.0 **** 0.053
119 H12113 37.5342 52.1815 13.0714 H 0.0 **** 0.053
120 H12126 28.5438 44.0364 7.64277 H 0.0 **** 0.053
121 H12074 39.9152 55.7947 20.9739 H 0.0 **** 0.053
122 C12044 27.3873 39.934 7.10938 C.2 0.0 **** 0.0
123 H12084 32.615 61.3367 20.123 H 0.0 **** 0.053
124 H12054 36.3421 65.025 20.023 H 0.0 **** 0.053
125 C11962 28.9103 50.0224 14.785 C.2 0.0 **** 0.0
126 H12070 36.2163 60.2934 21.2079 H 0.0 **** 0.053
127 C11954 30.7001 53.9569 17.1205 C.2 0.0 **** -0.1268
128 H12137 30.1116 63.6102 17.7502 H 0.0 **** 0.053
129 H12101 23.2867 50.3117 12.9113 H 0.0 **** 0.053
130 H12096 26.961 51.0256 13.3223 H 0.0 **** 0.053
131 H12088 28.4871 61.0189 18.9131 H 0.0 **** 0.053
132 H12110 24.7782 48.4583 10.6694 H 0.0 **** 0.353
133 C12022 30.8944 60.3037 16.9798 C.3 0.0 **** -0.159
134 C11918 39.4286 60.7146 21.7092 C.3 0.0 **** -0.106
135 C12040 27.902 37.4282 5.83861 C.2 0.0 **** 0.0
136 C12009 28.6421 45.1381 10.3123 C.3 0.0 **** -0.053
137 C11970 32.8762 48.9077 13.6454 C.2 0.0 **** 0.0
138 H12153 23.6603 38.3412 4.87586 H 0.0 **** 0.053
139 C12003 31.1298 45.2967 10.7996 C.2 0.0 **** 0.0
140 H12109 23.9664 46.4542 10.0443 H 0.0 **** 0.053
141 C12007 32.7299 43.7363 9.77793 C.2 0.0 **** 0.0265
142 H12079 35.6635 59.9663 24.5678 H 0.0 **** 0.1268
143 C11933 34.0615 56.1248 18.8601 C.2 0.0 **** 0.0
144 C11959 31.3427 50.4387 14.8217 C.2 0.0 **** 0.0
145 C12030 31.405 38.5518 6.72266 C.2 0.0 **** 0.0
146 O12051 25.5126 36.3262 4.50188 O.2 0.0 **** -0.419
147 C11960 30.0062 50.848 15.1752 C.2 0.0 **** 0.0
148 C11984 24.8441 45.8077 11.9503 C.3 0.0 **** -0.106
149 C11972 30.6474 47.4899 12.5437 C.2 0.0 **** 0.0
150 C11974 33.091 47.7803 12.8096 C.2 0.0 **** 0.0
151 C12020 29.5402 41.4997 8.08227 C.2 0.0 **** 0.0
152 H12144 34.0289 36.5015 5.83727 H 0.0 **** 0.1268
153 C11989 35.2994 49.1862 13.8241 C.2 0.0 **** 0.0
154 H12069 40.0332 61.1009 22.5449 H 0.0 **** 0.053
155 O11915 37.5033 60.823 23.5052 O.3 0.0 **** -0.32
156 H12112 39.3408 51.9045 15.4613 H 0.0 **** 0.053
157 C11971 33.9843 49.6352 14.1524 C.2 0.0 **** 0.0
158 H12123 28.592 47.1418 12.0301 H 0.0 **** 0.1268
159 S11953 31.3092 56.1567 18.4741 S.2 0.0 **** 0.024
160 C11997 40.0492 49.5307 14.1328 C.3 0.0 **** -0.106
161 C11938 32.3114 59.9917 23.6553 C.2 0.0 **** 0.0
162 C12021 30.9555 61.5948 17.8063 C.3 0.0 **** -0.053
163 C12047 24.8956 39.5798 6.9772 C.3 0.0 **** -0.106
164 H12119 40.8034 49.36 14.9155 H 0.0 **** 0.053
165 C12001 33.5417 45.5485 11.1275 C.2 0.0 **** 0.042
166 H12132 28.8173 46.1374 8.40153 H 0.0 **** 0.053
167 C12023 30.051 62.6654 17.1873 C.3 0.0 **** -0.159
168 H12087 29.4465 59.5501 19.1824 H 0.0 **** 0.053
169 C11913 37.8412 63.1808 23.4129 C.3 0.0 **** -0.106
170 C11907 38.0675 64.2682 21.0923 C.3 0.0 **** -0.053
171 H12095 27.1071 49.1213 12.0673 H 0.0 **** 0.053
172 C11932 34.1905 55.0056 17.9575 C.2 0.0 **** 0.0
173 C11961 29.8332 52.0383 15.8985 C.2 0.0 **** -0.1268
174 C11965 31.5387 49.3001 13.9846 C.2 0.0 **** 0.0
175 C11906 36.8647 64.0643 20.1482 C.3 0.0 **** -0.106
176 C11963 29.1366 48.9472 13.9467 C.2 0.0 **** 0.042
177 C11935 33.7247 59.1802 21.8473 C.2 0.0 **** 0.0
178 C11909 39.534 63.0184 19.4707 C.3 0.0 **** 0.054
179 C11945 31.7537 60.6523 20.0225 C.3 0.0 **** -0.106
180 H12117 41.185 51.3164 13.6154 H 0.0 **** 0.053
181 C12002 34.6197 46.2105 11.6466 C.2 0.0 **** -0.1268
182 H12081 30.9647 61.5821 24.1501 H 0.0 **** 0.053
183 H12136 31.4832 59.4886 17.4275 H 0.0 **** 0.053
184 O11910 38.7218 63.7714 18.5617 O.3 0.0 **** -0.32
185 H12072 39.2685 56.7235 18.122 H 0.0 **** 0.053
186 H12154 23.3341 36.7894 5.65717 H 0.0 **** 0.053
187 C11978 27.4446 50.1236 15.1955 C.3 0.0 **** 0.107
188 O12006 33.7769 44.4511 10.3132 O.3 0.0 **** -0.0685
189 C12037 28.9789 38.2117 6.34963 C.2 0.0 **** 0.0
190 C11941 30.9863 60.4736 24.1762 C.3 0.0 **** -0.106
191 C11934 34.9166 59.472 22.6395 C.2 0.0 **** 0.0
192 H12134 31.2763 60.4788 15.9628 H 0.0 **** 0.053
193 H12078 33.416 60.6564 25.3517 H 0.0 **** 0.053
194 H12139 30.3333 62.867 16.1428 H 0.0 **** 0.053
195 H12083 29.7803 58.8232 23.4659 H 0.0 **** 0.053
196 C11958 32.4611 51.1917 15.2943 C.2 0.0 **** 0.0
197 H12116 38.7515 50.5064 11.9376 H 0.0 **** 0.053
198 H12125 28.5899 42.9894 10.4842 H 0.0 **** 0.053
199 H12129 25.9334 45.934 9.39558 H 0.0 **** 0.053
200 C11996 40.5647 50.5594 13.1055 C.3 0.0 **** -0.106
201 C12028 32.2209 40.5796 7.84512 C.2 0.0 **** 0.0
202 C11998 34.4206 47.3485 12.4897 C.2 0.0 **** 0.0
203 O11930 36.6081 55.1886 18.1265 O.3 0.0 **** -0.464
204 C11914 37.6423 64.4545 22.5713 C.3 0.0 **** -0.106
205 C12033 32.9966 36.8407 5.94074 C.2 0.0 **** -0.1268
206 C12029 31.1468 39.7919 7.35262 C.2 0.0 **** 0.0
207 C11999 35.5003 48.0587 13.0143 C.2 0.0 **** -0.1268
208 C11976 26.8821 48.869 13.1205 C.3 0.0 **** 0.107
209 H12089 28.108 59.9093 21.2026 H 0.0 **** 0.053
210 C11977 26.6 50.1692 13.914 C.3 0.0 **** -0.053
211 H12105 26.8458 46.0084 12.8027 H 0.0 **** 0.053
212 H12075 40.4281 58.5115 19.644 H 0.0 **** 0.053
213 H12052 36.7991 63.9888 17.9475 H 0.0 **** 0.053
214 H12098 24.7707 49.7209 14.9982 H 0.0 **** 0.053
215 O11993 37.3318 51.7665 15.5186 O.3 0.0 **** -0.202
216 C11940 34.7879 59.7657 23.9527 C.2 0.0 **** -0.1268
217 H12091 31.7056 58.0082 20.4928 H 0.0 **** 0.1268
218 C11929 40.1262 57.8925 20.5126 C.3 0.0 **** -0.106
219 C11968 33.7993 50.7855 14.9768 C.2 0.0 **** 0.0
220 C11964 30.429 48.5702 13.4735 C.2 0.0 **** 0.0
221 C11921 36.3209 58.2332 20.9707 C.2 0.0 **** 0.0
222 H12124 27.8364 45.0307 11.0545 H 0.0 **** 0.053
223 H12097 27.191 49.1751 15.7125 H 0.0 **** 0.053
224 H12151 22.8848 38.7939 7.20807 H 0.0 **** 0.053
225 C12017 31.9614 41.8122 8.50653 C.2 0.0 **** 0.0
226 C11927 39.0007 56.1973 19.0579 C.3 0.0 **** -0.106
227 H12082 28.8763 60.3418 23.6269 H 0.0 **** 0.053
228 H12053 37.1498 62.4191 18.7208 H 0.0 **** 0.053
229 C12036 30.3276 37.7595 6.22674 C.2 0.0 **** 0.0
230 H12093 28.8335 52.4192 16.0824 H 0.0 **** 0.1268
231 C11908 39.0325 63.0815 20.9368 C.3 0.0 **** -0.053
232 C11936 33.8375 58.2518 20.8104 C.2 0.0 **** 0.0
233 C11916 37.4553 59.562 22.8164 C.3 0.0 **** 0.107
234 H12064 38.2141 65.2766 23.0273 H 0.0 **** 0.053
235 C11947 29.306 60.5924 19.5125 C.3 0.0 **** -0.106
236 C11922 36.2312 59.4249 21.8973 C.3 0.0 **** -0.053
237 H12127 26.2481 43.6096 9.59383 H 0.0 **** 0.053
238 C12034 31.959 36.079 5.47224 C.2 0.0 **** -0.1268
239 H12077 33.2897 58.9201 25.2325 H 0.0 **** 0.053
240 C12049 23.9826 37.676 5.69827 C.3 0.0 **** -0.086
241 H12062 38.8969 63.0746 23.7103 H 0.0 **** 0.053
242 C12031 32.7554 38.0963 6.57947 C.2 0.0 **** 0.0
243 H12100 24.8023 50.4848 12.0207 H 0.0 **** 0.053
244 C11985 23.8583 46.674 11.1168 C.3 0.0 **** 0.081
245 C11911 38.3676 61.7613 21.3805 C.3 0.0 **** -0.053
246 O11975 28.0438 48.1642 13.6428 O.3 0.0 **** -0.202
247 H12111 38.6562 49.5616 15.8215 H 0.0 **** 0.053
248 C11955 30.9177 52.778 16.3599 C.2 0.0 **** 0.0
249 C11980 24.3343 49.9817 12.8861 C.3 0.0 **** -0.106
250 C12038 28.7231 39.4653 6.97422 C.2 0.0 **** 0.0
@<TRIPOS>BOND
1 26 25 un
2 233 236 1
3 225 201 un
4 151 44 un
5 236 126 1
6 170 175 1
7 231 170 1
8 178 231 1
9 184 178 1
10 60 175 1
11 60 184 1
12 45 245 1
13 169 45 1
14 204 169 1
15 231 245 1
16 170 204 1
17 233 155 1
18 85 233 1
19 134 85 1
20 45 155 1
21 245 134 1
22 115 3 un
23 221 115 un
24 236 221 un
25 85 3 1
26 46 95 1
27 4 46 un
28 52 4 un
29 221 95 un
30 115 52 un
31 102 226 1
32 218 102 1
33 3 218 1
34 52 226 1
35 97 203 1
36 172 97 un
37 143 172 un
38 4 203 1
39 46 143 un
40 177 191 un
41 232 177 2
42 236 191 1
43 95 232 un
44 161 14 2
45 18 161 1
46 216 18 1
47 177 14 1
48 191 216 2
49 64 190 1
50 94 64 1
51 88 94 2
52 161 190 1
53 14 88 1
54 110 179 1
55 235 110 1
56 114 235 1
57 88 179 1
58 94 114 1
59 232 26 un
60 143 25 un
61 67 7 un
62 159 67 1
63 25 159 un
64 172 7 un
65 248 127 un
66 23 248 un
67 108 23 un
68 67 127 un
69 7 108 un
70 144 196 un
71 147 144 un
72 173 147 un
73 23 196 un
74 248 173 un
75 176 125 un
76 220 176 un
77 174 220 un
78 147 125 un
79 144 174 un
80 111 86 un
81 97 111 un
82 108 86 un
83 39 219 un
84 86 39 un
85 196 219 un
86 157 137 un
87 219 157 un
88 174 137 un
89 101 149 un
90 150 101 un
91 137 150 un
92 220 149 un
93 208 246 1
94 210 208 1
95 187 210 1
96 176 246 1
97 125 187 1
98 249 81 1
99 78 249 1
100 116 78 1
101 210 81 1
102 208 116 1
103 148 112 1
104 244 148 1
105 30 244 1
106 116 112 1
107 78 30 1
108 42 6 un
109 153 42 un
110 157 153 un
111 39 6 un
112 92 20 1
113 22 92 1
114 215 22 1
115 42 20 1
116 6 215 1
117 55 29 1
118 200 55 1
119 160 200 1
120 22 29 1
121 92 160 1
122 207 202 un
123 153 207 un
124 150 202 un
125 165 8 un
126 181 165 un
127 202 181 un
128 101 8 un
129 9 139 un
130 80 9 un
131 149 80 un
132 8 139 un
133 141 188 1
134 58 141 un
135 165 188 1
136 139 58 1
137 84 136 1
138 104 84 1
139 9 136 1
140 58 104 un
141 107 77 1
142 10 107 1
143 93 10 1
144 84 77 1
145 136 93 1
146 225 5 1
147 54 225 1
148 141 54 un
149 104 5 un
150 77 12 1
151 5 151 un
152 12 151 un
153 110 162 1
154 162 133 1
155 162 167 1
156 187 73 1
157 105 24 1
158 43 105 un
159 201 43 1
160 54 24 un
161 145 206 un
162 242 145 1
163 47 242 un
164 201 206 un
165 43 47 un
166 238 205 un
167 82 238 1
168 229 82 1
169 242 205 un
170 145 229 un
171 250 189 un
172 44 250 un
173 206 44 un
174 229 189 un
175 117 135 un
176 65 117 un
177 82 65 un
178 189 135 un
179 122 59 un
180 250 122 un
181 12 59 un
182 75 27 un
183 122 75 un
184 135 27 un
185 89 163 1
186 240 89 1
187 38 240 1
188 75 163 1
189 27 38 1
190 38 146 2
191 60 213 1
192 60 228 1
193 175 124 1
194 175 50 1
195 170 1 1
196 231 79 1
197 178 34 1
198 178 56 1
199 245 49 1
200 45 16 1
201 169 241 1
202 169 106 1
203 204 234 1
204 204 48 1
205 233 40 1
206 85 66 1
207 134 87 1
208 134 154 1
209 226 41 1
210 226 185 1
211 102 31 1
212 102 121 1
213 218 212 1
214 218 35 1
215 18 239 1
216 18 193 1
217 216 142 1
218 190 37 1
219 190 182 1
220 64 227 1
221 64 195 1
222 179 123 1
223 179 51 1
224 110 57 1
225 235 168 1
226 235 131 1
227 114 209 1
228 114 2 1
229 26 217 1
230 127 90 1
231 173 230 1
232 111 113 1
233 208 171 1
234 210 130 1
235 187 223 1
236 81 214 1
237 81 91 1
238 249 243 1
239 249 129 1
240 78 61 1
241 116 68 1
242 112 109 1
243 112 211 1
244 148 36 1
245 148 83 1
246 244 69 1
247 244 140 1
248 30 132 1
249 92 247 1
250 22 156 1
251 29 119 1
252 29 71 1
253 55 62 1
254 55 197 1
255 200 180 1
256 200 98 1
257 160 164 1
258 160 99 1
259 207 63 1
260 181 28 1
261 80 158 1
262 136 222 1
263 84 198 1
264 77 120 1
265 107 237 1
266 107 53 1
267 10 199 1
268 10 70 1
269 93 72 1
270 93 166 1
271 162 33 1
272 133 192 1
273 133 118 1
274 133 183 1
275 167 128 1
276 167 19 1
277 167 194 1
278 73 11 1
279 24 96 1
280 105 100 1
281 47 15 1
282 205 152 1
283 238 17 1
284 117 103 1
285 65 74 1
286 59 13 1
287 163 76 1
288 163 32 1
289 89 224 1
290 89 21 1
291 240 138 1
292 240 186 1
@<TRIPOS>MOLECULE
Sketch 4
130 142
SMALL
USER_CHARGES


@<TRIPOS>ATOM
1 C6296 54.4089 65.6534 65.979 C.3 0.0 **** -0.159
2 H6338 51.5376 64.4686 65.2981 H 0.0 **** 0.053
3 C6285 38.6145 75.2867 60.5139 C.3 0.0 **** -0.106
4 C6272 44.8567 73.5565 59.592 C.ar 0.0 **** 0.0
5 C6274 46.7083 72.4047 60.7865 C.2 0.0 **** 0.367
6 H6320 52.6971 70.9317 54.692 H 0.0 **** 0.053
7 H6359 51.0182 71.6176 51.9202 H 0.0 **** 0.053
8 H6325 40.042 73.0881 61.7417 H 0.0 **** 0.053
9 H6311 52.0404 70.0703 62.1824 H 0.0 **** 0.053
10 H6327 39.5171 76.0522 62.3132 H 0.0 **** 0.053
11 H6310 51.5738 68.6372 61.3162 H 0.0 **** 0.053
12 C6302 51.3198 70.6124 52.2556 C.3 0.0 **** -0.159
13 H6347 56.9196 67.5073 63.5503 H 0.0 **** 0.053
14 H6355 56.3994 71.2177 57.0886 H 0.0 **** 0.053
15 H6363 46.2807 73.7359 56.3867 H 0.0 **** 0.41
16 C6281 40.9946 75.278 59.6828 C.ar 0.0 **** 0.0
17 C6286 39.648 75.96 59.6117 C.3 0.0 **** -0.053
18 H6341 55.2623 65.0647 65.6194 H 0.0 **** 0.053
19 H6319 51.75 72.2986 54.0772 H 0.0 **** 0.053
20 C6255 51.5284 70.5735 59.5038 C.ar 0.0 **** -0.1268
21 C6295 50.8419 65.2819 65.5553 C.3 0.0 **** -0.159
22 H6364 48.4282 71.4923 61.45 H 0.0 **** 0.41
23 H6326 40.9267 74.1518 62.8254 H 0.0 **** 0.053
24 H6365 37.8021 76.6982 55.8673 H 0.0 **** 0.053
25 C6289 41.5618 76.396 57.5199 C.ar 0.0 **** 0.0
26 H6358 52.4163 70.5496 52.1785 H 0.0 **** 0.053
27 C6243 54.3492 67.9436 62.9229 C.ar 0.0 **** 0.0
28 H6334 43.5923 76.6696 56.8722 H 0.0 **** 0.1268
29 H6315 47.9665 72.0307 54.6543 H 0.0 **** 0.053
30 C6300 56.0049 70.1981 57.2216 C.3 0.0 **** -0.159
31 C6269 46.9467 72.8734 58.377 C.ar 0.0 **** 0.052
32 H6370 39.9005 79.6574 54.332 H 0.0 **** 0.053
33 H6335 42.9497 78.0716 54.9024 H 0.0 **** 0.1268
34 H6330 38.3377 74.3112 60.0765 H 0.0 **** 0.053
35 H6342 53.6241 64.9443 66.2729 H 0.0 **** 0.053
36 C6245 52.0975 67.8365 63.8535 C.ar 0.0 **** 0.0
37 H6339 50.2325 65.4873 64.6626 H 0.0 **** 0.053
38 C6251 55.6087 69.4964 59.5994 C.ar 0.0 **** 0.0
39 C6291 42.1802 77.6725 55.5668 C.ar 0.0 **** -0.1268
40 H6337 52.1744 66.331 66.9034 H 0.0 **** 0.053
41 C6298 56.287 66.759 64.0437 C.3 0.0 **** -0.159
42 H6316 49.4296 72.6962 53.935 H 0.0 **** 0.053
43 C6263 49.0454 71.8894 54.5864 C.3 0.0 **** -0.106
44 H6354 56.8532 69.5075 57.2875 H 0.0 **** 0.053
45 C6266 51.6819 71.3322 54.6136 C.3 0.0 **** -0.106
46 H6348 56.496 65.7878 63.5611 H 0.0 **** 0.053
47 H6350 57.7035 69.8583 59.1564 H 0.0 **** 0.053
48 C6241 53.9189 66.621 64.9226 C.ar 0.0 **** 0.0
49 H6321 45.0004 72.3168 62.7279 H 0.0 **** 0.053
50 C6254 52.8705 70.164 59.5019 C.ar 0.0 **** 0.0
51 C6287 39.1664 76.054 58.1627 C.3 0.0 **** -0.106
52 H6362 48.6786 71.0746 51.9319 H 0.0 **** 0.053
53 H6314 50.9419 70.4391 60.3979 H 0.0 **** 0.1268
54 O6301 53.9544 71.7405 56.3756 O.3 0.0 **** -0.452
55 H6356 53.4339 72.3812 55.8655 H 0.0 **** 0.41
56 C6247 52.4554 69.137 61.7542 C.3 0.0 **** -0.106
57 H6349 56.6234 66.6797 65.0862 H 0.0 **** 0.053
58 H6368 39.8892 78.1929 53.3377 H 0.0 **** 0.053
59 C6308 38.3675 77.6416 55.8241 C.3 0.0 **** -0.159
60 C6261 48.9938 72.1353 57.1736 C.ar 0.0 **** 0.0
61 C6275 44.6107 73.0678 62.0292 C.3 0.0 **** -0.106
62 H6367 37.9097 78.3202 56.564 H 0.0 **** 0.053
63 C6293 39.8318 77.4148 56.121 C.ar 0.0 **** 0.0
64 C6250 55.3205 68.454 61.8871 C.3 0.0 **** -0.106
65 H6344 50.2144 67.8805 62.7923 H 0.0 **** 0.053
66 C6253 53.7305 70.4705 58.3892 C.ar 0.0 **** 0.0
67 C6259 51.0502 71.5794 55.964 C.2 0.0 **** 0.0
68 C6262 49.5612 71.6676 58.3951 C.ar 0.0 **** 0.0
69 C6246 52.5642 67.0197 64.8991 C.ar 0.0 **** 0.0
70 H6328 38.4382 74.6773 62.6022 H 0.0 **** 0.053
71 C6290 42.5485 76.9052 56.6649 C.ar 0.0 **** -0.1268
72 H6360 47.4209 70.3458 52.9564 H 0.0 **** 0.053
73 H6346 50.0259 67.8701 64.5524 H 0.0 **** 0.053
74 H6369 41.4032 79.1023 53.5518 H 0.0 **** 0.053
75 H6313 55.9352 67.6132 61.5233 H 0.0 **** 0.053
76 H6340 50.1758 64.9291 66.3579 H 0.0 **** 0.053
77 C6297 50.6491 68.2493 63.7361 C.3 0.0 **** -0.159
78 C6260 49.7074 71.932 55.9442 C.2 0.0 **** 0.0
79 H6352 57.4131 69.1665 60.7576 H 0.0 **** 0.053
80 H6329 37.6993 75.8985 60.5511 H 0.0 **** 0.053
81 N6279 43.1657 75.021 58.6628 N.ar 0.0 **** -0.481
82 H6322 44.7805 74.0557 62.4973 H 0.0 **** 0.053
83 C6292 40.8328 77.9387 55.2757 C.ar 0.0 **** 0.0
84 C6303 48.4881 70.3028 52.6926 C.3 0.0 **** -0.159
85 H6351 57.2896 68.1404 59.3219 H 0.0 **** 0.053
86 C6284 39.1958 75.0768 61.9112 C.3 0.0 **** -0.106
87 C6248 53.4006 69.4851 60.6421 C.ar 0.0 **** 0.0
88 C6244 52.9956 68.2827 62.8632 C.ar 0.0 **** 0.0
89 C6277 42.6465 73.854 60.7152 C.ar 0.0 **** 0.0
90 C6256 50.9219 71.1646 58.3967 C.ar 0.0 **** 0.0
91 O6307 45.192 73.9536 57.2391 O.2 0.0 **** -0.419
92 C6276 43.1202 72.88 61.7609 C.3 0.0 **** -0.106
93 C6288 40.2028 76.6604 57.2495 C.ar 0.0 **** 0.0
94 C6265 50.8745 70.3688 53.7011 C.ar 0.0 **** -0.053
95 C6242 54.8197 67.1158 63.9615 C.ar 0.0 **** 0.0
96 C6283 40.398 74.1275 61.86 C.3 0.0 **** -0.106
97 C6258 53.1257 71.1654 57.3129 C.ar 0.0 **** 0.042
98 C6270 47.7086 72.8013 57.1919 C.ar 0.0 **** 0.042
99 O6305 49.2118 71.2888 60.7602 O.3 0.0 **** -0.452
100 C6257 51.7219 71.3275 57.2053 C.ar 0.0 **** 0.0
101 H6361 48.6874 69.3219 52.2353 H 0.0 **** 0.053
102 C6264 49.35 70.5241 53.9379 C.ar 0.0 **** -0.053
103 H6324 42.9414 71.8479 61.4042 H 0.0 **** 0.053
104 H6366 38.2127 78.0815 54.8323 H 0.0 **** 0.053
105 C6280 41.9315 75.5359 58.6594 C.ar 0.0 **** 0.2405
106 C6309 40.4903 78.7667 54.0622 C.3 0.0 **** -0.159
107 H6331 39.7935 76.9977 59.9741 H 0.0 **** 0.053
108 H6317 49.0561 69.7657 54.6822 H 0.0 **** 0.053
109 C6252 55.1139 70.0818 58.4383 C.ar 0.0 **** 0.0
110 H6336 50.9088 67.3387 66.2387 H 0.0 **** 0.053
111 H6318 51.1586 69.3407 53.9758 H 0.0 **** 0.053
112 C6282 41.3668 74.4328 60.7379 C.ar 0.0 **** 0.0
113 C6267 48.7648 71.7522 59.5959 C.ar 0.0 **** 0.042
114 C6294 51.618 66.5389 65.9793 C.3 0.0 **** -0.106
115 H6345 50.5461 69.3466 63.7093 H 0.0 **** 0.053
116 C6268 47.4761 72.3371 59.5739 C.ar 0.0 **** 0.052
117 H6312 56.0491 69.1243 62.3842 H 0.0 **** 0.053
118 H6343 54.7351 66.1777 66.8944 H 0.0 **** 0.053
119 H6357 50.8866 69.879 51.5616 H 0.0 **** 0.053
120 C6271 45.6378 73.4965 58.3387 C.2 0.0 **** 0.367
121 H6332 38.9136 75.0363 57.8068 H 0.0 **** 0.053
122 C6278 43.5169 74.1803 59.6461 C.ar 0.0 **** 0.2405
123 H6323 42.5568 72.9881 62.6959 H 0.0 **** 0.053
124 O6306 47.1673 71.9533 61.8968 O.2 0.0 **** -0.419
125 H6333 38.2315 76.631 58.1389 H 0.0 **** 0.053
126 C6273 45.3862 73.0121 60.7452 C.ar 0.0 **** 0.0
127 C6249 54.7406 69.1729 60.6969 C.ar 0.0 **** 0.0
128 H6353 55.4477 69.9579 56.3083 H 0.0 **** 0.053
129 O6304 47.2473 73.3856 56.0931 O.3 0.0 **** -0.452
130 C6299 57.0767 69.1507 59.7137 C.3 0.0 **** -0.159
@<TRIPOS>BOND
1 43 42 1
2 116 113 am
3 61 49 1
4 97 100 am
5 97 54 1
6 17 107 1
7 92 103 1
8 21 2 1
9 27 95 am
10 88 27 am
11 36 88 am
12 69 36 am
13 48 95 am
14 48 69 am
15 87 56 1
16 127 87 am
17 64 127 1
18 88 56 1
19 27 64 1
20 109 38 am
21 66 109 am
22 50 66 am
23 127 38 am
24 87 50 am
25 90 20 am
26 100 90 am
27 50 20 am
28 66 97 am
29 78 67 1
30 60 78 1
31 68 60 am
32 100 67 1
33 90 68 am
34 102 43 1
35 94 102 am
36 45 94 1
37 78 43 1
38 67 45 1
39 31 116 am
40 98 31 am
41 68 113 am
42 60 98 am
43 4 120 1
44 126 4 am
45 5 126 1
46 31 120 1
47 116 5 1
48 92 61 1
49 89 92 1
50 122 89 am
51 126 61 1
52 4 122 am
53 105 81 am
54 16 105 am
55 112 16 am
56 122 81 am
57 89 112 am
58 86 96 1
59 3 86 1
60 17 3 1
61 112 96 1
62 16 17 1
63 93 51 1
64 25 93 am
65 105 25 am
66 17 51 1
67 39 71 am
68 83 39 am
69 63 83 am
70 25 71 am
71 93 63 am
72 69 114 1
73 114 21 1
74 48 1 1
75 36 77 1
76 95 41 1
77 38 130 1
78 109 30 1
79 94 12 1
80 102 84 1
81 98 129 1
82 113 99 1
83 5 124 2
84 120 91 2
85 63 59 1
86 83 106 1
87 56 11 1
88 56 9 1
89 64 117 1
90 64 75 1
91 20 53 1
92 43 29 1
93 102 108 1
94 94 111 1
95 45 19 1
96 45 6 1
97 61 82 1
98 92 123 1
99 96 8 1
100 96 23 1
101 86 10 1
102 86 70 1
103 3 80 1
104 3 34 1
105 51 121 1
106 51 125 1
107 71 28 1
108 39 33 1
109 114 110 1
110 114 40 1
111 21 37 1
112 21 76 1
113 1 18 1
114 1 35 1
115 1 118 1
116 77 65 1
117 77 115 1
118 77 73 1
119 41 13 1
120 41 46 1
121 41 57 1
122 130 47 1
123 130 85 1
124 130 79 1
125 30 128 1
126 30 44 1
127 30 14 1
128 54 55 1
129 12 119 1
130 12 26 1
131 12 7 1
132 84 72 1
133 84 101 1
134 84 52 1
135 129 15 1
136 99 22 1
137 59 24 1
138 59 104 1
139 59 62 1
140 106 58 1
141 106 74 1
142 106 32 1
@<TRIPOS>MOLECULE
Sketch 4
130 142
SMALL
USER_CHARGES


@<TRIPOS>ATOM
1 H8007 0.852433 42.4488 25.6204 H 0.0 **** 0.053
2 H8017 12.0324 35.1163 28.7807 H 0.0 **** 0.053
3 H8043 -0.921468 47.7273 29.1594 H 0.0 **** 0.053
4 C7952 3.7662 43.3055 28.5245 C.ar 0.0 **** 0.0
5 H8023 9.03547 32.161 27.478 H 0.0 **** 0.053
6 C7972 9.79314 36.7148 27.803 C.ar 0.0 **** 0.0
7 O7994 2.87141 39.7375 28.2545 O.3 0.0 **** -0.452
8 H8032 8.76978 53.1218 26.9839 H 0.0 **** 0.053
9 C7932 6.10867 51.8986 28.6897 C.ar 0.0 **** 0.0
10 C7943 1.72213 47.0275 29.411 C.ar 0.0 **** 0.0
11 C7935 7.34796 49.4559 28.0272 C.ar 0.0 **** 0.0
12 H8022 8.45413 33.3881 26.349 H 0.0 **** 0.053
13 H8010 -0.983102 44.5153 28.2617 H 0.0 **** 0.053
14 H8001 5.86316 47.5336 29.4005 H 0.0 **** 0.053
15 C7945 3.78069 45.7975 28.818 C.ar 0.0 **** -0.1268
16 H8051 -1.07318 41.4221 24.3721 H 0.0 **** 0.053
17 C7960 3.61159 40.8386 28.2894 C.ar 0.0 **** 0.042
18 C7992 -2.40173 42.6808 26.6626 C.3 0.0 **** -0.159
19 H8038 4.96599 53.689 28.2178 H 0.0 **** 0.053
20 H8060 4.81762 30.2205 29.6873 H 0.0 **** 0.053
21 H8034 7.363 47.6104 26.9013 H 0.0 **** 0.053
22 C7985 9.52139 50.5935 25.7955 C.3 0.0 **** -0.159
23 H8055 7.27738 30.8856 26.6833 H 0.0 **** 0.053
24 O7995 6.00165 44.2111 28.7296 O.3 0.0 **** -0.452
25 H8052 -1.38225 40.3495 25.757 H 0.0 **** 0.053
26 C7957 5.20104 43.159 28.5803 C.ar 0.0 **** 0.042
27 C7954 0.0391565 41.9558 26.178 C.ar 0.0 **** -0.053
28 C7946 3.1053 44.5821 28.7203 C.ar 0.0 **** 0.0
29 H8006 -0.0653263 40.8447 28.0432 H 0.0 **** 0.053
30 C7978 7.28313 33.2405 28.1427 C.ar 0.0 **** 0.0
31 H8019 11.4129 33.1409 27.3154 H 0.0 **** 0.053
32 C7958 5.80597 41.8833 28.4804 C.ar 0.0 **** 0.052
33 H8020 10.7295 34.274 26.1316 H 0.0 **** 0.053
34 H8056 6.13596 30.0246 27.7365 H 0.0 **** 0.053
35 C7970 7.67833 35.6949 28.389 C.ar 0.0 **** 0.2405
36 H8011 9.77257 41.3453 28.248 H 0.0 **** 0.053
37 H8012 9.632 40.1537 29.5463 H 0.0 **** 0.053
38 C7944 3.12344 47.0086 29.0829 C.ar 0.0 **** 0.0
39 H8048 -3.01199 43.4933 27.0863 H 0.0 **** 0.053
40 H8058 4.00317 30.5966 28.1614 H 0.0 **** 0.053
41 C7980 5.60275 34.6044 29.2471 C.ar 0.0 **** -0.1268
42 H8044 -0.758377 49.4054 29.7021 H 0.0 **** 0.053
43 C7993 -0.605692 40.9327 25.2399 C.3 0.0 **** -0.159
44 H8016 11.8302 37.3881 27.969 H 0.0 **** 0.053
45 H8045 -0.754265 48.0692 30.8789 H 0.0 **** 0.053
46 H8057 7.78143 30.3751 28.2999 H 0.0 **** 0.053
47 H8030 10.5588 50.617 25.4271 H 0.0 **** 0.053
48 C7984 9.46698 50.6626 27.3299 C.3 0.0 **** -0.106
49 H8035 7.95107 47.4388 28.552 H 0.0 **** 0.053
50 H8008 -0.793368 43.944 26.0148 H 0.0 **** 0.053
51 H8036 8.98323 48.1911 27.3151 H 0.0 **** 0.053
52 C7955 -0.919842 43.0695 26.6723 C.ar 0.0 **** -0.053
53 C7941 1.86544 49.4302 29.7943 C.ar 0.0 **** 0.0
54 H8042 1.98195 51.4108 30.6717 H 0.0 **** 0.053
55 H8049 -2.57141 41.781 27.2754 H 0.0 **** 0.053
56 C7965 9.33889 40.3698 28.5017 C.3 0.0 **** -0.106
57 H8002 4.07188 51.086 30.4854 H 0.0 **** 0.053
58 C7983 6.46744 32.1025 28.2835 C.ar 0.0 **** 0.0
59 H8054 6.98359 43.8027 28.7437 H 0.0 **** 0.41
60 H8029 9.04453 49.6705 25.4335 H 0.0 **** 0.053
61 H8003 3.42541 51.4655 28.912 H 0.0 **** 0.053
62 H8053 3.59661 38.954 28.1947 H 0.0 **** 0.41
63 C7934 6.02988 49.4775 28.5257 C.ar 0.0 **** 0.0
64 C7974 11.8716 35.2407 27.6968 C.3 0.0 **** -0.106
65 C7977 8.60783 33.1718 27.4241 C.3 0.0 **** -0.106
66 C7940 4.0224 50.7067 29.4457 C.3 0.0 **** -0.106
67 H8027 9.99763 51.5606 27.6748 H 0.0 **** 0.053
68 H8015 11.3609 36.867 26.3575 H 0.0 **** 0.053
69 C7948 1.06961 45.7699 29.4104 C.ar 0.0 **** 0.042
70 H8046 -0.373565 44.7559 30.1569 H 0.0 **** 0.41
71 C7971 9.03905 35.5568 28.041 C.ar 0.0 **** 0.0
72 H8021 9.83957 33.8624 29.0275 H 0.0 **** 0.053
73 C7975 10.9431 34.1311 27.2056 C.3 0.0 **** -0.106
74 C7938 3.86794 48.2283 29.0814 C.ar 0.0 **** 0.0
75 H8028 8.97581 51.4408 25.3526 H 0.0 **** 0.053
76 C7988 5.46054 53.2079 29.0803 C.3 0.0 **** -0.159
77 H8040 0.429238 50.6033 30.9241 H 0.0 **** 0.053
78 H8026 10.0217 49.8137 27.7559 H 0.0 **** 0.053
79 C7966 9.85285 39.2608 27.5879 C.3 0.0 **** -0.106
80 H8059 3.40975 31.3127 29.678 H 0.0 **** 0.053
81 H8013 10.9407 39.1659 27.6927 H 0.0 **** 0.053
82 H8033 8.72081 53.5312 28.7078 H 0.0 **** 0.053
83 C7982 5.22167 32.217 28.9361 C.ar 0.0 **** 0.0
84 C7999 4.31595 31.026 29.1274 C.3 0.0 **** -0.159
85 C7959 5.01599 40.7179 28.3458 C.ar 0.0 **** 0.052
86 C7947 1.66981 44.6019 28.8774 C.ar 0.0 **** 0.0
87 H8050 0.152482 40.2282 24.8669 H 0.0 **** 0.053
88 C7967 9.15376 37.9624 27.891 C.ar 0.0 **** 0.0
89 C7951 2.97568 42.139 28.3077 C.ar 0.0 **** 0.0
90 H8037 4.69657 53.0724 29.8559 H 0.0 **** 0.053
91 C7990 -0.413541 48.3803 29.8789 C.3 0.0 **** -0.159
92 C7973 11.2567 36.6187 27.4291 C.3 0.0 **** -0.106
93 N7969 7.08229 36.8851 28.5176 N.ar 0.0 **** -0.481
94 H8005 1.30506 40.4138 27.0248 H 0.0 **** 0.053
95 H8000 5.38531 47.6084 27.7308 H 0.0 **** 0.053
96 O7996 7.98476 42.8045 28.6875 O.2 0.0 **** -0.419
97 C7989 1.2445 50.7472 30.2039 C.3 0.0 **** -0.159
98 H8009 -1.0845 42.8306 28.8049 H 0.0 **** 0.053
99 C7931 7.40417 51.8894 28.1406 C.ar 0.0 **** 0.0
100 C7950 1.56066 42.2765 28.106 C.2 0.0 **** 0.0
101 C7942 1.08794 48.2785 29.727 C.ar 0.0 **** 0.0
102 C7979 6.84946 34.4965 28.6162 C.ar 0.0 **** 0.0
103 O7997 4.8709 38.3786 28.129 O.2 0.0 **** -0.419
104 C7963 7.84153 40.4516 28.4367 C.ar 0.0 **** 0.0
105 C7949 0.920192 43.4663 28.4256 C.2 0.0 **** 0.0
106 C7962 7.08919 39.2995 28.3214 C.ar 0.0 **** 0.0
107 H8039 6.19948 53.9223 29.4676 H 0.0 **** 0.053
108 C7936 8.04606 50.6646 27.8534 C.ar 0.0 **** 0.0
109 H8024 5.27016 35.5865 29.5833 H 0.0 **** 0.1268
110 C7976 9.62748 34.1662 27.9824 C.3 0.0 **** -0.053
111 C7981 4.81173 33.4738 29.4089 C.ar 0.0 **** -0.1268
112 C7961 5.61575 39.4001 28.2643 C.2 0.0 **** 0.367
113 C7968 7.78445 37.9959 28.2531 C.ar 0.0 **** 0.2405
114 C7937 5.31236 48.1686 28.6794 C.3 0.0 **** -0.106
115 H8018 12.8591 35.1763 27.2152 H 0.0 **** 0.053
116 C7987 7.95459 48.1162 27.6822 C.3 0.0 **** -0.159
117 O7991 -0.171775 45.6923 30.0012 O.3 0.0 **** -0.452
118 C7953 0.713757 41.2593 27.3769 C.3 0.0 **** -0.106
119 H8014 9.66214 39.5394 26.5341 H 0.0 **** 0.053
120 C7998 6.9317 30.7782 27.7227 C.3 0.0 **** -0.159
121 C7933 5.41827 50.6842 28.8731 C.ar 0.0 **** 0.0
122 H8041 0.827917 51.289 29.3364 H 0.0 **** 0.053
123 H8031 7.38502 54.0021 27.6419 H 0.0 **** 0.053
124 H8004 4.85152 45.7994 28.6961 H 0.0 **** 0.1268
125 C7986 8.10435 53.2008 27.8535 C.3 0.0 **** -0.159
126 C7956 -0.557784 43.5179 28.1147 C.3 0.0 **** -0.106
127 C7939 3.25808 49.4084 29.4438 C.ar 0.0 **** 0.0
128 C7964 7.23731 41.7718 28.5384 C.2 0.0 **** 0.367
129 H8047 -2.76698 42.4736 25.6473 H 0.0 **** 0.053
130 H8025 3.84147 33.558 29.9032 H 0.0 **** 0.1268
@<TRIPOS>BOND
1 126 52 1
2 100 118 1
3 121 9 am
4 63 121 am
5 11 63 am
6 108 11 am
7 99 9 am
8 99 108 am
9 74 114 1
10 127 74 am
11 66 127 1
12 63 114 1
13 121 66 1
14 101 53 am
15 10 101 am
16 38 10 am
17 127 53 am
18 74 38 am
19 28 15 am
20 86 28 am
21 69 86 am
22 38 15 am
23 10 69 am
24 100 105 1
25 89 100 1
26 4 89 am
27 86 105 1
28 28 4 am
29 27 118 1
30 52 27 am
31 105 126 1
32 32 26 am
33 85 32 am
34 17 85 am
35 4 26 am
36 89 17 am
37 106 112 1
38 104 106 am
39 128 104 1
40 85 112 1
41 32 128 1
42 79 56 1
43 88 79 1
44 113 88 am
45 104 56 1
46 106 113 am
47 35 93 am
48 71 35 am
49 6 71 am
50 113 93 am
51 88 6 am
52 64 92 1
53 73 64 1
54 110 73 1
55 6 92 1
56 71 110 1
57 30 65 1
58 102 30 am
59 35 102 am
60 110 65 1
61 111 41 am
62 83 111 am
63 58 83 am
64 102 41 am
65 30 58 am
66 108 48 1
67 48 22 1
68 99 125 1
69 11 116 1
70 9 76 1
71 53 97 1
72 101 91 1
73 69 117 1
74 52 18 1
75 27 43 1
76 17 7 1
77 26 24 1
78 128 96 2
79 112 103 2
80 58 120 1
81 83 84 1
82 114 95 1
83 114 14 1
84 66 57 1
85 66 61 1
86 15 124 1
87 118 94 1
88 118 29 1
89 27 1 1
90 52 50 1
91 126 98 1
92 126 13 1
93 56 36 1
94 56 37 1
95 79 81 1
96 79 119 1
97 92 68 1
98 92 44 1
99 64 2 1
100 64 115 1
101 73 31 1
102 73 33 1
103 110 72 1
104 65 12 1
105 65 5 1
106 41 109 1
107 111 130 1
108 48 78 1
109 48 67 1
110 22 75 1
111 22 60 1
112 22 47 1
113 125 123 1
114 125 8 1
115 125 82 1
116 116 21 1
117 116 49 1
118 116 51 1
119 76 90 1
120 76 19 1
121 76 107 1
122 97 77 1
123 97 122 1
124 97 54 1
125 91 3 1
126 91 42 1
127 91 45 1
128 117 70 1
129 18 129 1
130 18 39 1
131 18 55 1
132 43 87 1
133 43 16 1
134 43 25 1
135 7 62 1
136 24 59 1
137 120 23 1
138 120 34 1
139 120 46 1
140 84 40 1
141 84 80 1
142 84 20 1
@<TRIPOS>MOLECULE
Sketch 4
130 142
SMALL
USER_CHARGES


@<TRIPOS>ATOM
1 C6534 43.8414 44.7333 9.52272 C.2 0.0 **** 0.367
2 C6501 42.6534 53.4096 14.6082 C.ar 0.0 **** 0.0
3 C6545 44.3634 40.3507 2.14646 C.3 0.0 **** -0.106
4 C6523 40.7862 40.9769 14.0751 C.3 0.0 **** -0.106
5 C6533 44.0424 43.945 8.31591 C.ar 0.0 **** 0.0
6 C6508 42.7745 48.3663 15.7675 C.ar 0.0 **** 0.0
7 H6614 41.8462 46.8686 20.2473 H 0.0 **** 0.053
8 C6525 39.4638 41.7135 16.1123 C.ar 0.0 **** -0.053
9 H6611 41.8247 49.3296 19.8717 H 0.0 **** 0.053
10 C6520 41.6502 42.2137 14.1613 C.2 0.0 **** 0.0
11 C6518 42.439 44.7852 16.7902 C.ar 0.0 **** 0.042
12 O6561 42.6257 44.0109 17.9135 O.3 0.0 **** -0.452
13 H6612 43.4337 49.9143 19.4258 H 0.0 **** 0.053
14 C6538 44.0601 41.8567 7.00967 C.ar 0.0 **** 0.2405
15 H6616 42.7912 43.0988 17.6268 H 0.0 **** 0.41
16 H6610 43.2664 48.3911 20.3082 H 0.0 **** 0.053
17 C6554 42.6209 53.5344 12.0782 C.3 0.0 **** -0.106
18 C6507 42.8407 49.1136 14.468 C.3 0.0 **** -0.106
19 H6591 45.7758 39.3717 3.43332 H 0.0 **** 0.053
20 H6596 43.267 53.0686 11.3195 H 0.0 **** 0.053
21 H6592 42.8523 38.4937 3.46892 H 0.0 **** 0.053
22 C6509 42.8308 49.0088 16.984 C.ar 0.0 **** 0.0
23 H6624 43.7854 46.297 10.858 H 0.0 **** 0.41
24 H6627 44.7527 35.4098 3.0051 H 0.0 **** 0.053
25 H6582 45.6681 44.531 7.07514 H 0.0 **** 0.053
26 C6530 42.5746 42.0603 11.8312 C.ar 0.0 **** 0.042
27 H6608 41.8267 53.6405 17.5155 H 0.0 **** 0.053
28 H6597 43.0339 54.5401 12.2358 H 0.0 **** 0.053
29 H6584 42.8737 44.3107 5.8125 H 0.0 **** 0.053
30 C6522 42.6347 44.2045 13.0816 C.ar 0.0 **** 0.0
31 H6605 43.5901 49.8972 11.9508 H 0.0 **** 0.053
32 H6588 44.8701 42.2413 1.18083 H 0.0 **** 0.053
33 C6569 44.4208 34.0587 6.3491 C.3 0.0 **** -0.159
34 C6556 42.4838 54.9134 14.6575 C.3 0.0 **** -0.159
35 H6576 41.2148 40.1539 14.6767 H 0.0 **** 0.053
36 H6625 43.0221 35.728 3.1835 H 0.0 **** 0.053
37 C6532 43.801 42.5862 8.26981 C.ar 0.0 **** 0.0
38 H6615 43.077 45.6309 19.8963 H 0.0 **** 0.053
39 H6573 42.2025 50.8854 17.7752 H 0.0 **** 0.053
40 H6586 45.0813 43.4984 3.39302 H 0.0 **** 0.053
41 H6601 41.9947 55.232 15.5867 H 0.0 **** 0.053
42 C6524 39.3836 41.3233 14.6137 C.ar 0.0 **** -0.053
43 C6542 44.3576 41.8732 4.60345 C.ar 0.0 **** 0.0
44 H6575 40.7055 40.6065 13.0529 H 0.0 **** 0.053
45 C6559 42.8209 49.0094 19.5187 C.3 0.0 **** -0.159
46 C6541 44.4509 40.4753 4.66291 C.ar 0.0 **** 0.0
47 C6514 42.6519 46.9435 15.715 C.ar 0.0 **** 0.0
48 C6526 40.904 42.1474 16.4996 C.3 0.0 **** -0.106
49 C6558 42.8369 53.413 17.1312 C.3 0.0 **** -0.159
50 C6528 43.3387 44.0799 10.6995 C.ar 0.0 **** 0.052
51 H6602 41.8698 55.2785 13.8239 H 0.0 **** 0.053
52 H6570 42.0114 48.7677 13.8265 H 0.0 **** 0.053
53 H6600 41.1549 54.2491 10.6103 H 0.0 **** 0.053
54 C6560 42.2067 46.1671 19.4865 C.3 0.0 **** -0.159
55 H6619 39.6396 39.6988 16.9258 H 0.0 **** 0.053
56 C6515 42.7051 46.2907 14.4741 C.ar 0.0 **** -0.1268
57 C6506 42.682 52.7392 13.3655 C.ar 0.0 **** 0.0
58 H6581 44.3787 45.7341 7.1982 H 0.0 **** 0.053
59 H6613 41.4246 45.4156 19.3264 H 0.0 **** 0.053
60 H6609 43.3695 54.3692 17.0395 H 0.0 **** 0.053
61 C6516 42.5092 44.9173 14.3389 C.ar 0.0 **** 0.0
62 H6628 43.4457 33.6221 6.07739 H 0.0 **** 0.053
63 C6563 38.3839 40.2074 14.3007 C.3 0.0 **** -0.159
64 H6585 43.4541 42.9626 3.00105 H 0.0 **** 0.053
65 C6510 42.9561 50.508 17.0633 C.3 0.0 **** -0.106
66 O6564 42.4087 40.7435 11.8268 O.3 0.0 **** -0.452
67 H6595 44.7954 35.8761 8.2971 H 0.0 **** 0.1268
68 C6527 43.1394 44.8304 11.8829 C.ar 0.0 **** 0.042
69 H6594 44.7567 38.3724 8.13688 H 0.0 **** 0.1268
70 H6620 38.3223 40.046 13.2142 H 0.0 **** 0.053
71 H6593 44.2054 37.6563 2.703 H 0.0 **** 0.053
72 H6607 43.3499 52.8237 17.9013 H 0.0 **** 0.053
73 H6587 46.1064 41.6084 2.2803 H 0.0 **** 0.053
74 H6603 43.4545 55.4367 14.6022 H 0.0 **** 0.053
75 C6547 43.9372 38.2906 3.55926 C.3 0.0 **** -0.106
76 H6621 37.3762 40.4567 14.6663 H 0.0 **** 0.053
77 H6590 43.2675 40.46 2.06523 H 0.0 **** 0.053
78 C6504 42.8032 50.6118 14.5427 C.ar 0.0 **** 0.0
79 H6599 40.778 52.6518 11.3141 H 0.0 **** 0.053
80 O6567 43.0177 40.6588 9.48532 O.2 0.0 **** -0.419
81 C6519 41.6557 42.8522 15.3942 C.2 0.0 **** 0.0
82 O6565 43.4365 46.1268 11.8482 O.3 0.0 **** -0.452
83 C6512 42.5311 46.8853 18.1955 C.ar 0.0 **** 0.0
84 C6535 44.5695 44.6576 7.10452 C.3 0.0 **** -0.106
85 C6552 44.4152 35.5599 6.20093 C.ar 0.0 **** 0.0
86 C6521 42.2864 42.823 13.0274 C.ar 0.0 **** 0.0
87 C6540 44.3525 39.8433 5.92094 C.ar 0.0 **** 0.2405
88 C6551 44.6309 36.362 7.33285 C.ar 0.0 **** -0.1268
89 H6617 37.9771 40.3343 16.9521 H 0.0 **** 0.053
90 H6623 42.6407 40.4685 10.8199 H 0.0 **** 0.41
91 C6502 42.7765 52.6842 15.8075 C.ar 0.0 **** 0.0
92 H6571 43.7472 48.799 13.9149 H 0.0 **** 0.053
93 H6606 42.6692 51.1924 11.1534 H 0.0 **** 0.053
94 C6555 41.1886 53.6488 11.5327 C.3 0.0 **** -0.159
95 C6549 44.4162 38.373 6.01518 C.ar 0.0 **** 0.0
96 C6568 43.911 35.3576 3.71667 C.3 0.0 **** -0.159
97 H6629 44.6409 33.7725 7.38647 H 0.0 **** 0.053
98 H6577 39.062 42.2203 14.0594 H 0.0 **** 0.053
99 H6578 38.8046 42.581 16.2738 H 0.0 **** 0.053
100 C6548 44.207 37.5842 4.86465 C.ar 0.0 **** 0.0
101 C6511 42.7349 48.2615 18.2068 C.ar 0.0 **** 0.0
102 H6604 41.8302 49.888 12.0067 H 0.0 **** 0.053
103 C6536 43.955 44.0766 5.83416 C.3 0.0 **** -0.106
104 C6503 42.8424 51.2772 15.7701 C.ar 0.0 **** 0.0
105 H6622 38.686 39.2573 14.766 H 0.0 **** 0.053
106 C6562 39.0339 40.6062 17.0799 C.3 0.0 **** -0.159
107 C6557 42.7088 50.5533 12.0414 C.3 0.0 **** -0.159
108 H6572 43.9247 50.7569 17.5398 H 0.0 **** 0.053
109 C6531 43.287 41.9014 9.47453 C.2 0.0 **** 0.367
110 H6579 41.4557 41.2245 16.7644 H 0.0 **** 0.053
111 H6618 39.1795 40.932 18.1214 H 0.0 **** 0.053
112 C6529 43.0684 42.6919 10.6704 C.ar 0.0 **** 0.052
113 C6550 44.6234 37.749 7.25276 C.ar 0.0 **** -0.1268
114 H6574 42.9173 46.8672 13.5885 H 0.0 **** 0.1268
115 H6598 40.5294 54.1194 12.2781 H 0.0 **** 0.053
116 C6544 45.0188 41.7308 2.14439 C.3 0.0 **** -0.106
117 N6539 44.1905 40.5236 7.06088 N.ar 0.0 **** -0.481
118 H6583 44.3956 44.5589 4.95287 H 0.0 **** 0.053
119 C6546 44.6941 39.6151 3.44453 C.3 0.0 **** -0.053
120 H6589 44.6957 39.7507 1.28457 H 0.0 **** 0.053
121 C6513 42.5323 46.1914 16.9363 C.ar 0.0 **** 0.0
122 H6626 43.7446 34.3008 3.95453 H 0.0 **** 0.053
123 C6537 44.1389 42.5829 5.79568 C.ar 0.0 **** 0.0
124 C6517 42.2169 44.164 15.5359 C.ar 0.0 **** 0.0
125 H6630 45.1739 33.5893 5.6961 H 0.0 **** 0.053
126 C6543 44.4594 42.5972 3.2781 C.3 0.0 **** -0.106
127 C6505 42.736 51.334 13.3343 C.ar 0.0 **** 0.0
128 H6580 40.8282 42.7528 17.4079 H 0.0 **** 0.053
129 C6553 44.1877 36.1799 4.95405 C.ar 0.0 **** 0.0
130 O6566 44.1237 45.9854 9.51991 O.2 0.0 **** -0.419
@<TRIPOS>BOND
1 75 71 1
2 104 91 am
3 78 104 am
4 127 78 am
5 57 127 am
6 2 91 am
7 2 57 am
8 6 18 1
9 22 6 am
10 65 22 1
11 78 18 1
12 104 65 1
13 83 101 am
14 121 83 am
15 47 121 am
16 22 101 am
17 6 47 am
18 61 56 am
19 124 61 am
20 11 124 am
21 47 56 am
22 121 11 am
23 10 81 1
24 86 10 1
25 30 86 am
26 124 81 1
27 61 30 am
28 42 4 1
29 8 42 am
30 48 8 1
31 10 4 1
32 81 48 1
33 50 68 am
34 112 50 am
35 26 112 am
36 30 68 am
37 86 26 am
38 37 109 1
39 5 37 am
40 1 5 1
41 112 109 1
42 50 1 1
43 103 84 1
44 123 103 1
45 14 123 am
46 5 84 1
47 37 14 am
48 87 117 am
49 46 87 am
50 43 46 am
51 14 117 am
52 123 43 am
53 116 126 1
54 3 116 1
55 119 3 1
56 43 126 1
57 46 119 1
58 100 75 1
59 95 100 am
60 87 95 am
61 119 75 1
62 88 113 am
63 85 88 am
64 129 85 am
65 95 113 am
66 100 129 am
67 57 17 1
68 17 94 1
69 2 34 1
70 127 107 1
71 91 49 1
72 101 45 1
73 83 54 1
74 11 12 1
75 8 106 1
76 42 63 1
77 26 66 1
78 68 82 1
79 1 130 2
80 109 80 2
81 129 96 1
82 85 33 1
83 18 52 1
84 18 92 1
85 65 108 1
86 65 39 1
87 56 114 1
88 4 44 1
89 4 35 1
90 42 98 1
91 8 99 1
92 48 110 1
93 48 128 1
94 84 58 1
95 84 25 1
96 103 118 1
97 103 29 1
98 126 64 1
99 126 40 1
100 116 73 1
101 116 32 1
102 3 120 1
103 3 77 1
104 119 19 1
105 75 21 1
106 113 69 1
107 88 67 1
108 17 20 1
109 17 28 1
110 94 115 1
111 94 79 1
112 94 53 1
113 34 41 1
114 34 51 1
115 34 74 1
116 107 102 1
117 107 31 1
118 107 93 1
119 49 72 1
120 49 27 1
121 49 60 1
122 45 16 1
123 45 9 1
124 45 13 1
125 54 59 1
126 54 7 1
127 54 38 1
128 12 15 1
129 106 89 1
130 106 111 1
131 106 55 1
132 63 70 1
133 63 76 1
134 63 105 1
135 66 90 1
136 82 23 1
137 96 36 1
138 96 122 1
139 96 24 1
140 33 62 1
141 33 97 1
142 33 125 1
@<TRIPOS>MOLECULE
Sketch 4
250 292
SMALL
USER_CHARGES


@<TRIPOS>ATOM
1 C15476 48.0374 56.8006 2.70985 C.3 0.0 **** 0.107
2 C15429 56.809 45.0861 12.5741 C.3 0.0 **** -0.106
3 C15467 52.3628 48.7909 8.23457 C.2 0.0 **** -0.1268
4 C15478 49.4199 56.6632 4.77524 C.3 0.0 **** 0.107
5 C15488 48.5927 47.8122 6.19482 C.2 0.0 **** 0.042
6 C15494 50.5551 45.3155 5.69898 C.3 0.0 **** -0.106
7 H15624 43.9931 55.6781 1.19517 H 0.0 **** 0.053
8 H15619 47.8246 43.7421 7.87675 H 0.0 **** 0.053
9 C15511 42.0907 52.9771 0.343048 C.2 0.0 **** 0.0
10 C15421 57.4168 48.8492 12.0484 C.2 0.0 **** 0.0
11 H15608 45.7094 60.4993 0.183968 H 0.0 **** 0.053
12 H15616 48.848 44.9095 4.41527 H 0.0 **** 0.053
13 C15443 59.8516 54.9148 11.2406 C.2 0.0 **** 0.0
14 C15466 51.6221 49.724 7.47989 C.2 0.0 **** 0.0
15 H15579 59.4731 50.224 15.2509 H 0.0 **** 0.1268
16 H15621 46.299 47.4965 4.85759 H 0.0 **** 0.1268
17 C15503 44.0365 52.4114 1.75117 C.2 0.0 **** 0.0
18 C15523 61.9002 53.638 6.54961 C.3 0.0 **** -0.159
19 C15407 63.3242 46.7135 12.2159 C.3 0.0 **** -0.053
20 H15562 62.299 46.6439 15.0285 H 0.0 **** 0.053
21 C15420 56.8451 47.528 11.9793 C.2 0.0 **** 0.0
22 C15533 35.1158 50.0914 -1.94154 C.2 0.0 **** -0.1268
23 C15483 45.7827 57.5412 1.85568 C.3 0.0 **** -0.106
24 C15471 48.4514 50.1262 5.42529 C.2 0.0 **** 0.0
25 H15563 62.6032 48.3775 15.2155 H 0.0 **** 0.053
26 C15541 34.6896 54.5926 -3.76612 C.2 0.0 **** -0.1268
27 H15649 39.0212 58.155 -2.2324 H 0.0 **** 0.053
28 C15499 46.6983 48.508 4.80295 C.2 0.0 **** -0.1268
29 H15641 41.0655 48.3131 1.47858 H 0.0 **** 0.1268
30 C15520 40.1351 53.5861 -1.02858 C.2 0.0 **** 0.0
31 C15515 44.8712 54.9056 -0.57606 C.3 0.0 **** -0.106
32 C15414 63.6556 47.4702 13.5276 C.3 0.0 **** -0.106
33 H15594 52.0247 47.7712 8.34571 H 0.0 **** 0.1268
34 C15537 36.7575 53.9663 -2.63325 C.2 0.0 **** 0.0
35 C15534 34.3832 51.0405 -2.60393 C.2 0.0 **** -0.1268
36 C15448 60.2257 55.7998 10.0878 C.3 0.0 **** -0.106
37 C15405 62.4279 46.9221 9.8475 C.3 0.0 **** 0.054
38 C15529 38.2791 51.9902 -1.22524 C.2 0.0 **** 0.0
39 H15574 54.7723 45.5682 13.101 H 0.0 **** 0.053
40 C15469 50.3814 49.3965 6.80894 C.2 0.0 **** 0.0
41 H15612 50.4894 45.0879 7.8783 H 0.0 **** 0.053
42 C15504 44.5871 53.6915 1.60625 C.2 0.0 **** 0.0
43 H15572 55.504 45.4252 10.1248 H 0.0 **** 0.053
44 H15622 44.3905 48.1635 3.43111 H 0.0 **** 0.1268
45 H15585 59.1264 52.3982 9.38478 H 0.0 **** 0.053
46 C15526 39.2587 48.747 0.419234 C.2 0.0 **** -0.1268
47 H15589 59.6028 56.7122 10.1225 H 0.0 **** 0.053
48 H15610 47.5577 58.2696 -0.156333 H 0.0 **** 0.353
49 C15425 55.2247 48.3719 10.3818 C.2 0.0 **** 0.232
50 C15454 53.1917 53.6824 7.20139 C.2 0.0 **** -0.1268
51 C15428 55.3128 45.1168 12.2533 C.3 0.0 **** -0.106
52 H15558 60.7782 44.9642 10.8461 H 0.0 **** 0.053
53 C15510 42.5281 54.4157 0.264551 C.3 0.0 **** -0.053
54 H15598 49.166 59.2317 3.94503 H 0.0 **** 0.053
55 C15408 62.0723 45.8367 12.3813 C.3 0.0 **** -0.053
56 H15600 49.6821 58.4154 1.02654 H 0.0 **** 0.053
57 C15512 42.2126 54.9453 -1.14709 C.3 0.0 **** -0.053
58 H15588 60.4976 55.7002 7.93337 H 0.0 **** 0.053
59 C15416 58.8196 48.0972 14.0298 C.3 0.0 **** 0.107
60 C15431 53.5361 49.1379 8.86795 C.2 0.0 **** 0.232
61 H15601 49.6745 60.1111 1.5213 H 0.0 **** 0.053
62 H15628 42.5299 56.7801 -2.28039 H 0.0 **** 0.053
63 H15570 59.492 48.8453 12.1204 H 0.0 **** 0.053
64 H15606 44.7969 59.4459 2.07162 H 0.0 **** 0.053
65 C15446 60.7453 53.7128 8.8066 C.3 0.0 **** -0.053
66 H15575 57.3359 44.5338 11.7703 H 0.0 **** 0.053
67 C15444 59.6705 53.5788 11.1127 C.2 0.0 **** 0.0
68 C15527 38.4804 49.7098 -0.305007 C.2 0.0 **** 0.0
69 C15409 61.8598 44.9997 11.0931 C.3 0.0 **** 0.054
70 H15625 41.8701 54.9721 0.961501 H 0.0 **** 0.053
71 H15553 61.3478 47.169 9.81344 H 0.0 **** 0.053
72 C15412 61.1795 47.8722 13.6817 C.3 0.0 **** 0.107
73 C15484 45.0209 58.7274 1.26688 C.3 0.0 **** -0.106
74 C15532 37.1958 49.4233 -0.778147 C.2 0.0 **** -0.1268
75 C15456 51.4184 52.0544 6.68646 C.2 0.0 **** 0.0
76 C15487 49.806 48.0767 6.81124 C.2 0.0 **** 0.042
77 C15474 46.5513 50.8091 4.02344 C.2 0.0 **** 0.0
78 C15540 36.002 54.9448 -3.34514 C.2 0.0 **** 0.0
79 O15551 34.9425 57.0159 -5.16127 O.2 0.0 **** -0.419
80 H15651 37.7772 60.0203 -3.35681 H 0.0 **** 0.053
81 C15549 36.4756 58.6796 -4.47163 C.3 0.0 **** -0.086
82 C15424 55.8037 49.6771 10.4021 C.2 0.0 **** 0.0
83 C15497 47.9768 44.2671 6.92185 C.3 0.0 **** -0.106
84 C15518 41.0626 50.3538 0.720214 C.2 0.0 **** 0.0
85 C15447 60.0721 55.0884 8.74356 C.3 0.0 **** -0.106
86 H15576 57.0033 44.5223 13.5022 H 0.0 **** 0.053
87 C15507 42.3038 50.7391 1.26128 C.2 0.0 **** 0.0265
88 C15433 55.2852 50.6856 9.5808 C.2 0.0 **** 0.0
89 C15449 55.9425 51.9603 9.59796 C.2 0.0 **** -0.012
90 H15599 50.7814 58.8375 3.35192 H 0.0 **** 0.053
91 C15495 49.6005 44.3385 4.97897 C.3 0.0 **** -0.106
92 S15453 55.453 53.2496 8.52095 S.2 0.0 **** 0.024
93 C15418 59.7562 45.829 13.3772 C.3 0.0 **** -0.106
94 C15482 47.0963 57.9887 2.51807 C.3 0.0 **** -0.053
95 C15514 44.4075 56.1431 -1.36765 C.3 0.0 **** -0.106
96 H15593 51.6912 55.3553 5.8317 H 0.0 **** 0.1268
97 H15566 58.1468 48.4618 14.8199 H 0.0 **** 0.053
98 H15571 53.9981 46.0554 10.7881 H 0.0 **** 0.053
99 C15452 53.8914 52.7343 7.90317 C.2 0.0 **** -0.012
100 H15627 42.5573 56.9698 -0.521155 H 0.0 **** 0.053
101 H15620 46.9825 44.4047 6.4698 H 0.0 **** 0.053
102 C15470 47.7539 51.1313 4.70594 C.2 0.0 **** 0.0
103 H15582 60.1833 56.526 12.629 H 0.0 **** 0.053
104 C15440 59.2769 50.9365 14.4514 C.2 0.0 **** -0.1268
105 H15644 34.7072 49.0951 -1.76309 H 0.0 **** 0.1268
106 C15413 62.4447 47.5836 14.4716 C.3 0.0 **** -0.106
107 H15587 58.9999 54.9545 8.52589 H 0.0 **** 0.053
108 H15557 62.2411 45.1397 13.2192 H 0.0 **** 0.053
109 H15581 61.3326 54.5367 13.5752 H 0.0 **** 0.053
110 N15486 47.3194 59.1598 0.282589 N.3 0.0 **** -0.727
111 O15490 47.9937 46.574 6.22591 O.3 0.0 **** -0.202
112 C15426 55.7057 47.3174 11.1074 C.2 0.0 **** 0.0
113 H15653 37.0902 58.7383 -5.38904 H 0.0 **** 0.053
114 H15634 59.5508 52.328 5.81038 H 0.0 **** 0.053
115 C15542 34.1671 53.3399 -3.52044 C.2 0.0 **** -0.1268
116 C15458 50.1852 51.7537 6.0507 C.2 0.0 **** 0.0
117 H15555 62.5017 48.5234 11.321 H 0.0 **** 0.053
118 H15569 60.1716 45.4176 14.3106 H 0.0 **** 0.053
119 C15500 44.6918 51.4658 2.55408 C.2 0.0 **** 0.0
120 C15516 40.8734 52.6226 -0.257946 C.2 0.0 **** 0.0
121 H15556 64.1636 46.0502 11.9612 H 0.0 **** 0.053
122 C15531 36.4316 50.3809 -1.46421 C.2 0.0 **** 0.0
123 H15647 33.1544 53.1024 -3.85323 H 0.0 **** 0.1268
124 H15596 50.1945 56.6031 2.78713 H 0.0 **** 0.053
125 H15609 45.5626 59.0604 -0.834666 H 0.0 **** 0.053
126 C15477 49.4126 57.1639 3.3237 C.3 0.0 **** -0.053
127 C15436 57.5734 51.2092 11.2744 C.2 0.0 **** 0.0
128 C15539 38.8291 53.2881 -1.46906 C.2 0.0 **** 0.0
129 C15439 59.4773 52.3894 14.752 C.3 0.0 **** -0.106
130 C15417 58.4656 46.6337 13.7105 C.3 0.0 **** -0.053
131 H15583 58.6044 55.7329 12.795 H 0.0 **** 0.053
132 H15605 45.168 56.9843 2.57592 H 0.0 **** 0.053
133 H15554 64.0952 48.0611 10.705 H 0.0 **** 0.053
134 H15637 62.8821 53.6419 7.04852 H 0.0 **** 0.053
135 C15544 38.6295 55.5538 -2.40468 C.2 0.0 **** 0.0
136 H15626 42.6836 54.2417 -1.86286 H 0.0 **** 0.053
137 C15505 45.7317 54.0217 2.30834 C.2 0.0 **** -0.1268
138 C15479 49.7129 58.6604 3.17541 C.3 0.0 **** -0.106
139 H15632 44.8188 53.9961 -1.19536 H 0.0 **** 0.053
140 H15654 35.6297 59.3666 -4.61622 H 0.0 **** 0.053
141 O15493 50.479 47.0547 7.44264 O.3 0.0 **** -0.202
142 H15638 61.6373 54.6809 6.31095 H 0.0 **** 0.053
143 C15435 58.588 51.4975 12.1893 C.2 0.0 **** 0.0
144 H15640 50.517 56.9767 6.35768 H 0.0 **** 0.41
145 C15501 44.1669 50.14 2.65212 C.2 0.0 **** 0.042
146 C15547 38.418 57.9582 -3.12976 C.3 0.0 **** -0.106
147 C15406 63.1179 47.6624 11.0172 C.3 0.0 **** -0.106
148 H15592 53.5819 54.6981 7.10462 H 0.0 **** 0.1268
149 H15577 58.6308 52.7633 15.3693 H 0.0 **** 0.053
150 C15422 58.6831 49.0674 12.8456 C.3 0.0 **** -0.053
151 C15517 40.3332 51.3243 -0.0360839 C.2 0.0 **** 0.0
152 O15415 60.1271 48.119 14.6271 O.3 0.0 **** -0.32
153 C15480 49.2804 59.1184 1.77861 C.3 0.0 **** -0.106
154 O15430 54.1393 48.1193 9.56503 O.3 0.0 **** -0.464
155 H15635 59.1897 53.9693 6.385 H 0.0 **** 0.053
156 H15580 60.0326 55.0026 14.6865 H 0.0 **** 0.053
157 H15642 38.8324 47.7548 0.577467 H 0.0 **** 0.1268
158 C15438 59.6282 53.24 13.5334 C.2 0.0 **** 0.0
159 C15498 46.0148 49.48 4.07254 C.2 0.0 **** 0.0
160 H15636 58.6722 52.563 7.34043 H 0.0 **** 0.053
161 C15525 40.4951 49.0525 0.916504 C.2 0.0 **** -0.1268
162 H15652 36.7118 59.0153 -2.35092 H 0.0 **** 0.053
163 C15509 43.9905 54.71 0.671403 C.3 0.0 **** -0.053
164 H15604 46.0219 56.8365 1.04073 H 0.0 **** 0.053
165 H15559 62.2182 43.9689 11.2235 H 0.0 **** 0.053
166 C15427 55.0729 45.9536 10.9961 C.3 0.0 **** -0.106
167 C15465 48.2532 52.4758 4.67601 C.2 0.0 **** 0.0
168 H15603 46.8702 58.3819 3.52375 H 0.0 **** 0.053
169 C15548 37.3315 59.0184 -3.26253 C.3 0.0 **** -0.106
170 C15473 45.881 51.7988 3.2612 C.2 0.0 **** 0.0
171 C15536 36.2156 52.6684 -2.38767 C.2 0.0 **** 0.0
172 H15615 50.1658 43.7355 4.25323 H 0.0 **** 0.053
173 C15419 57.3747 46.4723 12.7043 C.2 0.0 **** 0.0
174 H15623 46.1266 55.0186 2.19146 H 0.0 **** 0.1268
175 C15460 49.9831 54.1249 5.34679 C.2 0.0 **** 0.0
176 H15614 51.5522 44.8662 5.81547 H 0.0 **** 0.053
177 H15629 44.8726 57.0421 -0.939157 H 0.0 **** 0.053
178 H15617 49.6421 42.902 6.59058 H 0.0 **** 0.053
179 H15611 48.2294 46.0225 8.20538 H 0.0 **** 0.053
180 C15502 44.8021 49.1721 3.37976 C.2 0.0 **** -0.1268
181 C15437 59.266 52.7879 12.2975 C.2 0.0 **** 0.0
182 C15508 42.8056 52.0413 1.09536 C.2 0.0 **** 0.0
183 C15546 37.8431 56.5619 -3.04404 C.2 0.0 **** 0.0
184 H15552 62.8678 47.1956 8.87878 H 0.0 **** 0.053
185 H15560 60.4331 47.097 11.7866 H 0.0 **** 0.053
186 C15442 59.6782 55.5479 12.5994 C.3 0.0 **** -0.106
187 O15475 47.308 55.8606 3.54851 O.3 0.0 **** -0.202
188 C15411 60.8354 46.6918 12.7288 C.3 0.0 **** -0.053
189 C15455 51.9438 53.3799 6.59558 C.2 0.0 **** 0.0
190 H15565 64.0216 48.4794 13.2767 H 0.0 **** 0.053
191 C15459 49.4658 52.7792 5.36368 C.2 0.0 **** 0.0
192 H15633 61.1386 51.9578 7.64748 H 0.0 **** 0.053
193 H15648 40.4559 56.7215 -2.30624 H 0.0 **** 0.1268
194 H15573 54.923 44.0969 12.1144 H 0.0 **** 0.053
195 C15492 50.0478 45.7238 7.09781 C.3 0.0 **** 0.107
196 H15586 61.781 53.8729 9.16048 H 0.0 **** 0.053
197 C15445 60.0242 52.8419 9.84157 C.3 0.0 **** -0.106
198 C15472 46.3895 53.1293 3.17699 C.2 0.0 **** 0.0
199 H15646 34.1025 55.3312 -4.30124 H 0.0 **** 0.1268
200 C15491 48.5336 45.6633 7.2081 C.3 0.0 **** 0.107
201 H15564 64.4756 46.9635 14.0582 H 0.0 **** 0.053
202 C15432 54.0906 50.4294 8.81185 C.2 0.0 **** 0.0
203 C15530 36.9785 51.6852 -1.69082 C.2 0.0 **** 0.0
204 C15462 49.1967 55.1544 4.74963 C.2 0.0 **** 0.0
205 H15645 33.3758 50.8157 -2.95988 H 0.0 **** 0.1268
206 C15461 51.2365 54.3742 5.92696 C.2 0.0 **** -0.1268
207 C15513 42.8672 56.3073 -1.34712 C.3 0.0 **** -0.106
208 H15643 36.7715 48.4322 -0.602931 H 0.0 **** 0.1268
209 H15567 58.0822 46.1897 14.6491 H 0.0 **** 0.053
210 O15410 62.5845 45.5038 9.96458 O.3 0.0 **** -0.32
211 H15591 57.4349 53.2119 10.4526 H 0.0 **** 0.1268
212 C15450 57.0145 52.207 10.42 C.2 0.0 **** -0.1268
213 H15595 48.1891 56.3066 1.73188 H 0.0 **** 0.053
214 C15522 59.4825 52.9587 6.70941 C.3 0.0 **** -0.159
215 H15597 48.5337 57.1093 5.27225 H 0.0 **** 0.053
216 H15639 61.9987 53.0947 5.5975 H 0.0 **** 0.053
217 C15550 35.9023 57.2685 -4.43136 C.2 0.0 **** 0.347
218 H15602 47.3991 60.0871 2.11828 H 0.0 **** 0.053
219 H15561 61.3388 48.7948 13.0907 H 0.0 **** 0.053
220 H15607 44.0535 58.4006 0.853193 H 0.0 **** 0.053
221 C15464 47.5531 53.4816 3.95248 C.2 0.0 **** 0.0
222 C15535 34.9095 52.3465 -2.84356 C.2 0.0 **** 0.0
223 H15630 44.7601 56.0659 -2.40766 H 0.0 **** 0.053
224 C15538 38.0709 54.2667 -2.17312 C.2 0.0 **** 0.0
225 H15631 45.9228 55.0116 -0.269616 H 0.0 **** 0.053
226 C15481 47.7519 59.1376 1.68055 C.3 0.0 **** 0.134
227 H15613 50.6807 46.23 5.10146 H 0.0 **** 0.053
228 H15590 61.2679 56.1529 10.2134 H 0.0 **** 0.053
229 C15543 39.9819 55.7812 -2.03786 C.2 0.0 **** -0.1268
230 O15524 50.5988 57.1622 5.40949 O.3 0.0 **** -0.57
231 H15650 39.1085 58.0266 -3.99158 H 0.0 **** 0.053
232 C15519 40.7345 54.8225 -1.39733 C.2 0.0 **** 0.0
233 H15568 59.5143 44.9736 12.7292 H 0.0 **** 0.053
234 C15434 58.8702 50.5153 13.2329 C.2 0.0 **** 0.0
235 C15457 52.1418 51.0601 7.4009 C.2 0.0 **** 0.0
236 O15506 42.9947 49.801 1.99349 O.3 0.0 **** -0.0685
237 C15521 60.8304 52.999 7.44113 C.3 0.0 **** -0.053
238 C15451 53.3843 51.3933 8.04789 C.2 0.0 **** 0.0
239 C15485 45.875 59.4089 0.16097 C.3 0.0 **** 0.081
240 H15584 60.6609 51.9797 10.1094 H 0.0 **** 0.053
241 C15489 47.898 48.8104 5.46374 C.2 0.0 **** 0.0
242 C15468 49.674 50.4149 6.10264 C.2 0.0 **** 0.0
243 C15463 48.0451 54.8164 4.06421 C.2 0.0 **** 0.042
244 C15441 60.2306 54.6097 13.6764 C.3 0.0 **** -0.106
245 H15578 60.3601 52.533 15.4053 H 0.0 **** 0.053
246 C15496 48.8854 43.4371 5.9917 C.3 0.0 **** -0.106
247 H15618 48.2876 42.6672 5.48208 H 0.0 **** 0.053
248 C15423 56.9381 49.8885 11.27 C.2 0.0 **** 0.0
249 C15528 39.0374 51.0097 -0.532222 C.2 0.0 **** 0.0
250 C15545 36.5798 56.2544 -3.56729 C.2 0.0 **** 0.052
@<TRIPOS>BOND
1 88 89 un
2 183 250 un
3 35 205 1
4 19 147 1
5 83 101 1
6 206 96 1
7 55 19 1
8 69 55 1
9 210 69 1
10 37 147 1
11 37 210 1
12 72 188 1
13 106 72 1
14 32 106 1
15 55 188 1
16 19 32 1
17 59 152 1
18 130 59 1
19 93 130 1
20 72 152 1
21 188 93 1
22 21 173 un
23 10 21 un
24 150 10 un
25 130 173 1
26 59 150 1
27 82 248 1
28 49 82 un
29 112 49 un
30 10 248 un
31 21 112 un
32 51 166 1
33 2 51 1
34 173 2 1
35 112 166 1
36 60 154 1
37 202 60 un
38 88 202 un
39 49 154 1
40 82 88 un
41 143 234 un
42 127 143 2
43 150 234 1
44 248 127 un
45 158 181 2
46 129 158 1
47 104 129 1
48 143 181 1
49 234 104 2
50 186 244 1
51 13 186 1
52 67 13 2
53 158 244 1
54 181 67 1
55 65 197 1
56 85 65 1
57 36 85 1
58 67 197 1
59 13 36 1
60 212 89 un
61 127 212 un
62 99 238 un
63 92 99 1
64 89 92 un
65 202 238 un
66 189 50 un
67 75 189 un
68 235 75 un
69 99 50 un
70 238 235 un
71 191 116 un
72 175 191 un
73 206 175 un
74 75 116 un
75 189 206 un
76 243 204 un
77 221 243 un
78 167 221 un
79 175 204 un
80 191 167 un
81 3 14 un
82 60 3 un
83 235 14 un
84 40 242 un
85 14 40 un
86 116 242 un
87 24 102 un
88 242 24 un
89 167 102 un
90 170 198 un
91 77 170 un
92 102 77 un
93 221 198 un
94 1 187 1
95 126 1 1
96 4 126 1
97 243 187 1
98 204 4 1
99 153 138 1
100 226 153 1
101 94 226 1
102 126 138 1
103 1 94 1
104 73 23 1
105 239 73 1
106 110 239 1
107 94 23 1
108 226 110 1
109 5 76 un
110 241 5 un
111 24 241 un
112 40 76 un
113 200 111 1
114 195 200 1
115 141 195 1
116 5 111 1
117 76 141 1
118 91 6 1
119 246 91 1
120 83 246 1
121 195 6 1
122 200 83 1
123 28 159 un
124 241 28 un
125 77 159 un
126 145 119 un
127 180 145 un
128 159 180 un
129 170 119 un
130 42 17 un
131 137 42 un
132 198 137 un
133 119 17 un
134 87 236 1
135 182 87 un
136 145 236 1
137 17 182 1
138 53 163 1
139 9 53 1
140 42 163 1
141 182 9 un
142 207 57 1
143 95 207 1
144 31 95 1
145 53 57 1
146 163 31 1
147 151 120 1
148 84 151 1
149 87 84 un
150 9 120 un
151 57 232 1
152 120 30 un
153 232 30 un
154 65 237 1
155 237 214 1
156 237 18 1
157 4 230 1
158 46 161 1
159 68 46 un
160 249 68 1
161 84 161 un
162 151 249 un
163 203 38 un
164 122 203 1
165 74 122 un
166 249 38 un
167 68 74 un
168 35 22 un
169 222 35 1
170 171 222 1
171 122 22 un
172 203 171 un
173 224 34 un
174 128 224 un
175 38 128 un
176 171 34 un
177 26 78 un
178 115 26 un
179 222 115 un
180 34 78 un
181 135 229 un
182 224 135 un
183 30 128 un
184 232 229 un
185 135 183 un
186 78 250 un
187 169 146 1
188 81 169 1
189 217 81 1
190 183 146 1
191 250 217 1
192 217 79 2
193 37 184 1
194 37 71 1
195 147 133 1
196 147 117 1
197 19 121 1
198 55 108 1
199 69 52 1
200 69 165 1
201 188 185 1
202 72 219 1
203 106 20 1
204 106 25 1
205 32 201 1
206 32 190 1
207 59 97 1
208 130 209 1
209 93 233 1
210 93 118 1
211 150 63 1
212 166 98 1
213 166 43 1
214 51 194 1
215 51 39 1
216 2 66 1
217 2 86 1
218 129 149 1
219 129 245 1
220 104 15 1
221 244 156 1
222 244 109 1
223 186 103 1
224 186 131 1
225 197 240 1
226 197 45 1
227 65 196 1
228 85 107 1
229 85 58 1
230 36 47 1
231 36 228 1
232 212 211 1
233 50 148 1
234 3 33 1
235 1 213 1
236 126 124 1
237 4 215 1
238 138 54 1
239 138 90 1
240 153 56 1
241 153 61 1
242 226 218 1
243 94 168 1
244 23 164 1
245 23 132 1
246 73 64 1
247 73 220 1
248 239 11 1
249 239 125 1
250 110 48 1
251 200 179 1
252 195 41 1
253 6 227 1
254 6 176 1
255 91 172 1
256 91 12 1
257 246 178 1
258 246 247 1
259 83 8 1
260 28 16 1
261 180 44 1
262 137 174 1
263 163 7 1
264 53 70 1
265 57 136 1
266 207 100 1
267 207 62 1
268 95 177 1
269 95 223 1
270 31 225 1
271 31 139 1
272 237 192 1
273 214 114 1
274 214 155 1
275 214 160 1
276 18 134 1
277 18 142 1
278 18 216 1
279 230 144 1
280 161 29 1
281 46 157 1
282 74 208 1
283 22 105 1
284 26 199 1
285 115 123 1
286 229 193 1
287 146 27 1
288 146 231 1
289 169 80 1
290 169 162 1
291 81 113 1
292 81 140 1
@<TRIPOS>MOLECULE
Sketch 4
250 292
SMALL
USER_CHARGES


@<TRIPOS>ATOM
1 C20545 21.1899 41.9774 28.1233 C.2 0.0 **** 0.052
2 C20500 16.3071 31.9657 26.6635 C.2 0.0 **** 0.0
3 C20422 8.88585 16.3692 29.6798 C.3 0.0 **** -0.053
4 H20614 13.714 23.1045 22.6622 H 0.0 **** 0.053
5 H20576 7.32873 16.5894 25.0498 H 0.0 **** 0.053
6 H20633 14.8003 15.6993 32.1241 H 0.0 **** 0.053
7 C20540 20.69 42.1242 26.7717 C.2 0.0 **** 0.0
8 O20506 16.2922 33.2017 24.5568 O.3 0.0 **** -0.0685
9 C20425 10.4795 19.8534 27.7215 C.2 0.0 **** 0.232
10 O20551 22.4973 44.0 28.1593 O.2 0.0 **** -0.419
11 C20468 13.7523 26.3763 27.5296 C.2 0.0 **** 0.0
12 H20578 7.18439 15.3247 33.8497 H 0.0 **** 0.053
13 C20505 17.0825 31.7314 29.3127 C.2 0.0 **** -0.1268
14 C20488 13.1115 26.6619 24.7984 C.2 0.0 **** 0.042
15 H20646 21.2771 44.1862 26.4981 H 0.0 **** 0.1268
16 H20573 8.19494 18.6679 23.8817 H 0.0 **** 0.053
17 C20444 11.3413 16.9714 33.9152 C.2 0.0 **** 0.0
18 C20412 8.43535 13.5372 29.3104 C.3 0.0 **** 0.107
19 C20407 10.1512 11.4255 28.4815 C.3 0.0 **** -0.053
20 H20577 6.89369 17.0315 33.6325 H 0.0 **** 0.053
21 H20590 12.8677 16.3216 36.6049 H 0.0 **** 0.053
22 H20572 10.4133 18.8128 24.9394 H 0.0 **** 0.053
23 C20478 15.7794 28.5695 33.1819 C.3 0.0 **** 0.107
24 C20457 13.0803 24.0067 28.9874 C.2 0.0 **** 0.0
25 H20600 19.6931 29.4223 34.253 H 0.0 **** 0.053
26 H20582 10.348 17.0559 37.1174 H 0.0 **** 0.053
27 C20439 7.61913 16.2275 33.3779 C.3 0.0 **** -0.106
28 H20616 14.5236 25.9058 21.7831 H 0.0 **** 0.053
29 C20461 14.7445 26.0255 31.6577 C.2 0.0 **** -0.1268
30 H20594 11.723 23.0493 25.9934 H 0.0 **** 0.1268
31 H20619 10.8064 25.983 21.0288 H 0.0 **** 0.053
32 H20610 20.3868 31.5866 33.3765 H 0.0 **** 0.353
33 O20490 12.8018 26.8799 23.4757 O.3 0.0 **** -0.202
34 H20612 11.522 23.8341 22.9735 H 0.0 **** 0.053
35 C20416 7.64184 15.7765 28.9992 C.3 0.0 **** 0.107
36 C20529 18.7257 38.8008 24.8994 C.2 0.0 **** 0.0
37 C20517 17.9088 36.4767 24.9865 C.2 0.0 **** 0.0
38 H20606 17.807 34.1615 34.2037 H 0.0 **** 0.053
39 C20520 19.1177 37.4549 26.9156 C.2 0.0 **** 0.0
40 C20427 9.54602 19.2248 25.4894 C.3 0.0 **** -0.106
41 C20542 20.2805 43.4442 24.756 C.2 0.0 **** -0.1268
42 H20584 12.3158 15.7543 32.4614 H 0.0 **** 0.053
43 H20588 14.8651 17.2986 35.5791 H 0.0 **** 0.053
44 C20485 19.8778 33.4438 34.0989 C.3 0.0 **** 0.081
45 C20471 14.1223 27.5644 26.8307 C.2 0.0 **** 0.0
46 C20537 20.0302 41.0207 26.1538 C.2 0.0 **** 0.0
47 H20651 21.7079 41.8553 32.0446 H 0.0 **** 0.053
48 H20629 20.4403 33.9156 31.4012 H 0.0 **** 0.053
49 C20494 13.6793 24.1922 22.8213 C.3 0.0 **** -0.106
50 C20436 10.4542 18.2719 31.1656 C.2 0.0 **** 0.0
51 H20597 15.1717 29.4508 33.4741 H 0.0 **** 0.053
52 O20475 16.435 30.5468 31.6753 O.3 0.0 **** -0.202
53 C20516 18.3993 36.3622 26.3181 C.2 0.0 **** 0.0
54 H20565 9.4883 11.0819 30.5241 H 0.0 **** 0.053
55 C20539 19.2395 38.6806 26.229 C.2 0.0 **** 0.0
56 H20654 22.4069 43.9129 30.6652 H 0.0 **** 0.053
57 C20406 11.3924 12.0807 29.1218 C.3 0.0 **** -0.106
58 C20483 17.9777 32.7348 32.5969 C.3 0.0 **** -0.106
59 H20638 16.5445 16.2025 34.6051 H 0.0 **** 0.053
60 H20591 11.4768 19.0938 32.8929 H 0.0 **** 0.1268
61 O20524 15.4688 27.4883 34.0625 O.3 0.0 **** -0.57
62 C20460 15.0189 27.2379 31.0059 C.2 0.0 **** 0.0
63 H20641 16.2078 34.699 22.569 H 0.0 **** 0.1268
64 H20625 17.7176 35.8714 29.019 H 0.0 **** 0.053
65 C20447 13.9141 17.3986 35.0338 C.3 0.0 **** -0.106
66 C20408 9.62286 12.3399 27.3642 C.3 0.0 **** -0.053
67 H20596 17.8601 28.1455 32.9659 H 0.0 **** 0.053
68 C20419 8.42607 16.9102 26.858 C.2 0.0 **** 0.0
69 C20497 11.8308 26.1412 21.3977 C.3 0.0 **** -0.106
70 H20564 8.63109 10.1031 29.3317 H 0.0 **** 0.053
71 H20563 7.30276 12.0785 30.417 H 0.0 **** 0.053
72 H20644 18.1485 41.4661 21.1587 H 0.0 **** 0.1268
73 H20630 21.7188 33.9916 30.1839 H 0.0 **** 0.053
74 C20409 10.7235 12.5197 26.2866 C.3 0.0 **** 0.054
75 C20456 13.7511 25.0847 29.6281 C.2 0.0 **** 0.0
76 C20530 18.8721 40.0236 24.203 C.2 0.0 **** 0.0
77 H20615 14.8026 24.3589 20.9643 H 0.0 **** 0.053
78 H20643 17.3621 39.1378 21.2461 H 0.0 **** 0.1268
79 H20585 12.7572 17.4417 32.3501 H 0.0 **** 0.053
80 H20617 12.3212 24.24 20.4534 H 0.0 **** 0.053
81 C20544 20.3934 39.6521 28.1716 C.2 0.0 **** 0.0
82 C20548 21.3982 41.9835 30.9963 C.3 0.0 **** -0.106
83 H20579 6.86005 15.5484 31.403 H 0.0 **** 0.1268
84 H20592 14.1238 23.7024 32.7578 H 0.0 **** 0.1268
85 C20499 14.1618 28.8764 24.7436 C.2 0.0 **** -0.1268
86 C20450 11.2951 19.218 31.8256 C.2 0.0 **** -0.1268
87 C20435 9.81091 17.2416 31.8542 C.2 0.0 **** 0.0
88 C20546 20.9801 40.7813 28.8229 C.2 0.0 **** 0.0
89 C20521 15.0692 16.3141 33.0025 C.3 0.0 **** -0.053
90 C20455 14.1149 24.9703 31.005 C.2 0.0 **** 0.0
91 H20562 7.20242 11.9157 28.6574 H 0.0 **** 0.053
92 C20526 16.9202 36.7034 22.3454 C.2 0.0 **** -0.1268
93 O20430 11.0175 20.9446 27.0665 O.3 0.0 **** -0.464
94 C20541 20.7847 43.3377 26.0354 C.2 0.0 **** -0.1268
95 H20611 10.8592 26.1793 23.3592 H 0.0 **** 0.053
96 C20510 18.4586 35.2083 28.5296 C.3 0.0 **** -0.053
97 C20536 19.5164 41.133 24.8264 C.2 0.0 **** 0.0
98 H20645 19.2546 43.4003 22.2544 H 0.0 **** 0.1268
99 S20453 12.9497 21.2969 32.0943 S.2 0.0 **** 0.024
100 C20492 12.2694 24.5565 23.3313 C.3 0.0 **** 0.107
101 C20523 16.2348 15.625 33.7195 C.3 0.0 **** -0.159
102 H20653 23.377 42.4826 30.2936 H 0.0 **** 0.053
103 C20519 19.755 37.2914 28.177 C.2 0.0 **** 0.0
104 C20469 13.083 25.308 26.8606 C.2 0.0 **** 0.0
105 H20618 13.0894 25.6387 19.6969 H 0.0 **** 0.053
106 C20511 18.1106 35.2099 27.0647 C.2 0.0 **** 0.0
107 C20446 13.8169 16.3691 33.9025 C.3 0.0 **** -0.053
108 H20553 12.135 13.8165 27.9988 H 0.0 **** 0.053
109 C20428 8.26925 18.5594 24.9745 C.3 0.0 **** -0.106
110 C20489 13.8049 27.7165 25.4468 C.2 0.0 **** 0.0
111 H20593 15.0544 25.8833 32.6882 H 0.0 **** 0.1268
112 C20525 16.7299 35.5364 23.0317 C.2 0.0 **** -0.1268
113 C20498 14.8535 29.9131 25.37 C.2 0.0 **** 0.0
114 C20503 17.0716 32.9802 27.2591 C.2 0.0 **** 0.0
115 H20598 16.8581 29.6592 35.4179 H 0.0 **** 0.053
116 C20463 15.9536 29.4745 30.9555 C.2 0.0 **** 0.042
117 C20533 18.5316 41.3852 22.1776 C.2 0.0 **** -0.1268
118 H20634 16.3044 17.6062 31.7569 H 0.0 **** 0.053
119 H20635 15.8804 18.3097 33.3316 H 0.0 **** 0.053
120 H20623 17.4031 31.6537 30.3396 H 0.0 **** 0.1268
121 C20495 14.0586 24.9425 21.5261 C.3 0.0 **** -0.106
122 C20487 12.7957 25.4858 25.4611 C.2 0.0 **** 0.042
123 H20603 16.6884 31.6654 33.963 H 0.0 **** 0.053
124 C20467 12.0293 23.0307 27.0289 C.2 0.0 **** -0.1268
125 C20459 14.726 27.351 29.5987 C.2 0.0 **** 0.0
126 C20411 9.14009 13.6912 27.9323 C.3 0.0 **** -0.053
127 H20568 8.65122 14.4645 25.9675 H 0.0 **** 0.053
128 C20472 16.2614 30.7186 28.7802 C.2 0.0 **** 0.0
129 C20466 12.7279 24.1147 27.5998 C.2 0.0 **** 0.0
130 C20437 10.0083 16.9404 33.2709 C.2 0.0 **** 0.0
131 C20423 10.161 18.5072 29.749 C.2 0.0 **** 0.0
132 O20415 7.33317 14.447 29.4508 O.3 0.0 **** -0.32
133 H20557 8.7561 11.8492 26.8907 H 0.0 **** 0.053
134 H20609 20.7359 33.8059 33.5133 H 0.0 **** 0.053
135 H20571 9.54031 20.3046 25.2822 H 0.0 **** 0.053
136 C20442 10.1493 17.2672 36.0551 C.3 0.0 **** -0.106
137 C20420 9.15467 17.8235 27.6034 C.2 0.0 **** 0.0
138 C20448 12.731 17.2306 35.9871 C.3 0.0 **** -0.106
139 C20464 15.7921 29.5879 29.5422 C.2 0.0 **** 0.0
140 C20458 14.0771 26.2727 28.9225 C.2 0.0 **** 0.0
141 C20532 17.7446 39.0402 22.2645 C.2 0.0 **** -0.1268
142 C20440 7.68589 16.063 31.8913 C.2 0.0 **** -0.1268
143 C20484 18.543 33.8818 33.433 C.3 0.0 **** -0.106
144 H20648 20.8203 38.2314 29.7554 H 0.0 **** 0.1268
145 N20486 20.0246 31.9874 34.2426 N.3 0.0 **** -0.727
146 H20632 20.2923 33.1626 28.4418 H 0.0 **** 0.053
147 H20647 20.3656 44.3913 24.219 H 0.0 **** 0.1268
148 C20418 8.18023 14.3669 26.9568 C.3 0.0 **** -0.106
149 C20482 17.661 31.507 33.467 C.3 0.0 **** -0.053
150 H20580 8.12742 16.4383 35.993 H 0.0 **** 0.053
151 H20628 21.2282 36.2803 30.3317 H 0.0 **** 0.053
152 C20414 9.04196 11.107 29.5164 C.3 0.0 **** -0.106
153 C20405 12.2923 12.72 28.0384 C.3 0.0 **** 0.054
154 H20613 14.4007 24.4252 23.6178 H 0.0 **** 0.053
155 C20426 9.74045 18.9864 26.9653 C.2 0.0 **** 0.0
156 C20462 15.5674 28.366 31.685 C.2 0.0 **** 0.0
157 C20508 17.4087 34.15 26.4844 C.2 0.0 **** 0.0
158 C20477 17.25 28.9534 33.4002 C.3 0.0 **** -0.053
159 H20620 12.083 27.1947 21.2015 H 0.0 **** 0.053
160 C20413 7.89171 12.13 29.4901 C.3 0.0 **** -0.106
161 C20424 10.7438 19.6645 29.112 C.2 0.0 **** 0.0
162 H20642 16.5536 36.8054 21.3224 H 0.0 **** 0.1268
163 C20527 17.5853 37.8262 22.9405 C.2 0.0 **** 0.0
164 H20639 17.1102 15.5369 33.0584 H 0.0 **** 0.053
165 H20649 20.6358 39.9755 30.7766 H 0.0 **** 0.053
166 C20449 11.8417 20.299 31.1786 C.2 0.0 **** -0.012
167 H20556 10.4866 10.4885 28.0136 H 0.0 **** 0.053
168 C20434 8.73168 16.5307 31.1736 C.2 0.0 **** 0.0
169 H20599 17.7152 28.1179 35.3395 H 0.0 **** 0.053
170 H20622 14.9761 31.1901 23.5989 H 0.0 **** 0.1268
171 H20575 9.07925 16.5616 24.8372 H 0.0 **** 0.053
172 C20479 17.6449 29.109 34.8738 C.3 0.0 **** -0.106
173 C20531 18.3749 40.1419 22.865 C.2 0.0 **** 0.0
174 C20528 18.0846 37.6972 24.2768 C.2 0.0 **** 0.0
175 H20560 10.0233 14.339 28.0515 H 0.0 **** 0.053
176 C20452 13.1637 22.7332 31.1058 C.2 0.0 **** -0.012
177 C20433 11.5621 20.57 29.7982 C.2 0.0 **** 0.0
178 C20535 19.6501 42.3546 24.1143 C.2 0.0 **** 0.0
179 C20443 11.4234 17.15 35.2551 C.2 0.0 **** 0.0
180 H20605 17.0821 33.044 32.0411 H 0.0 **** 0.053
181 H20589 12.6851 18.0679 36.7072 H 0.0 **** 0.053
182 C20465 15.1062 28.5273 28.8865 C.2 0.0 **** 0.0
183 H20602 18.3767 31.8687 35.4699 H 0.0 **** 0.053
184 C20502 15.238 31.089 24.6526 C.2 0.0 **** -0.1268
185 C20501 15.9364 32.0783 25.2877 C.2 0.0 **** 0.042
186 C20504 17.4872 32.8383 28.5894 C.2 0.0 **** 0.0
187 C20496 12.8149 25.2031 20.6689 C.3 0.0 **** -0.106
188 O20410 12.0313 12.1586 26.7474 O.3 0.0 **** -0.32
189 H20587 13.8884 18.4121 34.6011 H 0.0 **** 0.053
190 H20607 18.7047 34.7745 32.8079 H 0.0 **** 0.053
191 C20417 7.69381 15.7574 27.461 C.3 0.0 **** -0.053
192 C20445 12.5542 16.6402 33.0767 C.3 0.0 **** -0.106
193 C20491 11.844 25.955 22.9164 C.3 0.0 **** 0.107
194 H20559 10.54 11.8728 25.4173 H 0.0 **** 0.053
195 H20554 11.9463 11.3175 29.6895 H 0.0 **** 0.053
196 H20636 14.669 18.2525 32.0326 H 0.0 **** 0.053
197 H20574 7.39272 19.0574 25.4198 H 0.0 **** 0.053
198 H20586 13.7062 15.3752 34.3752 H 0.0 **** 0.053
199 H20595 18.4353 30.1343 31.9981 H 0.0 **** 0.053
200 C20474 15.1794 29.7824 26.7605 C.2 0.0 **** 0.0
201 H20583 9.76254 18.303 35.9987 H 0.0 **** 0.053
202 H20552 13.3573 12.5382 28.237 H 0.0 **** 0.053
203 H20601 19.426 29.8193 35.9533 H 0.0 **** 0.053
204 C20515 19.8171 33.2642 29.4304 C.3 0.0 **** -0.106
205 C20429 8.26095 17.082 25.3742 C.3 0.0 **** -0.106
206 O20493 12.1916 24.4615 24.7669 O.3 0.0 **** -0.202
207 C20481 18.7538 31.3427 34.5761 C.3 0.0 **** 0.134
208 H20558 10.7369 13.5742 25.94 H 0.0 **** 0.053
209 C20432 12.0309 21.7556 29.1212 C.2 0.0 **** 0.0
210 C20451 12.7494 22.8171 29.7283 C.2 0.0 **** 0.0
211 C20538 19.8911 39.7855 26.8479 C.2 0.0 **** 0.0
212 H20652 20.3859 42.4199 31.0004 H 0.0 **** 0.053
213 C20473 15.907 30.8166 27.4015 C.2 0.0 **** 0.0
214 H20626 20.5332 35.3613 28.0265 H 0.0 **** 0.053
215 C20438 8.94042 16.5206 34.01 C.2 0.0 **** 0.0
216 C20421 9.37218 17.6379 29.016 C.2 0.0 **** 0.0
217 H20555 11.0801 12.8533 29.8422 H 0.0 **** 0.053
218 C20514 20.6469 34.1764 30.3536 C.3 0.0 **** -0.106
219 H20637 15.9525 14.6148 34.0558 H 0.0 **** 0.053
220 H20608 19.9596 33.8996 35.1002 H 0.0 **** 0.053
221 H20561 9.15832 13.7395 30.1242 H 0.0 **** 0.053
222 H20566 6.78312 16.3851 29.3187 H 0.0 **** 0.053
223 C20518 17.2016 35.3927 24.3775 C.2 0.0 **** 0.0
224 C20513 20.3318 35.6767 30.1304 C.3 0.0 **** -0.106
225 C20476 17.5176 30.2548 32.6037 C.3 0.0 **** 0.107
226 C20507 16.9799 34.2362 25.1488 C.2 0.0 **** 0.0265
227 C20509 18.401 33.839 29.2456 C.3 0.0 **** -0.053
228 C20522 15.4977 17.6987 32.4995 C.3 0.0 **** -0.159
229 H20569 7.30747 13.7065 26.8334 H 0.0 **** 0.053
230 C20549 22.3531 42.8977 30.247 C.3 0.0 **** -0.086
231 C20441 9.09861 16.3073 35.4895 C.3 0.0 **** -0.106
232 C20470 14.8046 28.6217 27.4872 C.2 0.0 **** 0.0
233 C20431 11.6992 21.9126 27.7632 C.2 0.0 **** 0.232
234 H20604 18.7285 32.4461 31.8413 H 0.0 **** 0.053
235 H20650 22.3448 40.1454 30.365 H 0.0 **** 0.053
236 C20480 18.9698 29.8746 34.9554 C.3 0.0 **** -0.106
237 H20640 14.5083 27.3588 34.0331 H 0.0 **** 0.41
238 C20512 19.8309 35.8854 28.7059 C.3 0.0 **** -0.053
239 H20627 19.5504 36.0187 30.8302 H 0.0 **** 0.053
240 C20550 22.0178 43.042 28.7678 C.2 0.0 **** 0.347
241 C20543 20.3436 38.375 28.7895 C.2 0.0 **** -0.1268
242 H20570 9.72758 15.6607 29.5413 H 0.0 **** 0.053
243 H20624 18.0158 34.0196 30.2607 H 0.0 **** 0.053
244 H20581 9.41366 15.2605 35.6762 H 0.0 **** 0.053
245 C20547 21.358 40.6389 30.2805 C.3 0.0 **** -0.106
246 C20534 19.1443 42.4508 22.782 C.2 0.0 **** -0.1268
247 H20631 19.7489 32.2479 29.8472 H 0.0 **** 0.053
248 C20454 13.8212 23.7738 31.7106 C.2 0.0 **** -0.1268
249 H20567 6.64801 15.8433 27.1087 H 0.0 **** 0.053
250 H20621 13.8988 28.9646 23.6907 H 0.0 **** 0.1268
@<TRIPOS>BOND
1 184 185 un
2 209 233 un
3 205 109 1
4 19 57 1
5 66 19 1
6 74 66 1
7 188 74 1
8 153 57 1
9 153 188 1
10 18 126 1
11 160 18 1
12 152 160 1
13 66 126 1
14 19 152 1
15 35 132 1
16 191 35 1
17 148 191 1
18 18 132 1
19 126 148 1
20 137 68 un
21 216 137 un
22 3 216 un
23 191 68 1
24 35 3 1
25 161 131 1
26 9 161 un
27 155 9 un
28 216 131 un
29 137 155 un
30 109 40 1
31 68 205 1
32 155 40 1
33 233 93 1
34 177 209 un
35 9 93 1
36 161 177 un
37 87 168 un
38 50 87 2
39 3 168 1
40 131 50 un
41 215 130 2
42 27 215 1
43 142 27 1
44 87 130 1
45 168 142 2
46 136 231 1
47 179 136 1
48 17 179 2
49 215 231 1
50 130 17 1
51 107 192 1
52 65 107 1
53 138 65 1
54 17 192 1
55 179 138 1
56 86 166 un
57 50 86 un
58 177 166 un
59 176 210 un
60 99 176 1
61 166 99 un
62 209 210 un
63 90 248 un
64 75 90 un
65 24 75 un
66 176 248 un
67 210 24 un
68 125 140 un
69 62 125 un
70 29 62 un
71 75 140 un
72 90 29 un
73 116 156 un
74 139 116 un
75 182 139 un
76 62 156 un
77 125 182 un
78 124 129 un
79 233 124 un
80 24 129 un
81 104 11 un
82 129 104 un
83 140 11 un
84 45 232 un
85 11 45 un
86 182 232 un
87 213 128 un
88 200 213 un
89 232 200 un
90 139 128 un
91 225 52 1
92 158 225 1
93 23 158 1
94 116 52 1
95 156 23 1
96 236 172 1
97 207 236 1
98 149 207 1
99 158 172 1
100 225 149 1
101 143 58 1
102 44 143 1
103 145 44 1
104 149 58 1
105 207 145 1
106 14 122 un
107 110 14 un
108 45 110 un
109 104 122 un
110 193 33 1
111 100 193 1
112 206 100 1
113 14 33 1
114 122 206 1
115 121 49 1
116 187 121 1
117 69 187 1
118 100 49 1
119 193 69 1
120 85 113 un
121 110 85 un
122 200 113 un
123 185 2 un
124 113 184 un
125 213 2 un
126 186 114 un
127 13 186 un
128 128 13 un
129 2 114 un
130 226 8 1
131 157 226 un
132 185 8 1
133 114 157 1
134 96 227 1
135 106 96 1
136 186 227 1
137 157 106 un
138 224 238 1
139 218 224 1
140 204 218 1
141 96 238 1
142 227 204 1
143 37 53 1
144 223 37 1
145 226 223 un
146 106 53 un
147 238 103 1
148 53 39 un
149 103 39 un
150 107 89 1
151 89 228 1
152 89 101 1
153 23 61 1
154 92 112 1
155 163 92 un
156 174 163 1
157 223 112 un
158 37 174 un
159 76 36 un
160 173 76 1
161 141 173 un
162 174 36 un
163 163 141 un
164 246 117 un
165 178 246 1
166 97 178 1
167 173 117 un
168 76 97 un
169 211 46 un
170 55 211 un
171 36 55 un
172 97 46 un
173 94 7 un
174 41 94 un
175 178 41 un
176 46 7 un
177 81 241 un
178 211 81 un
179 39 55 un
180 103 241 un
181 88 1 un
182 81 88 un
183 7 1 un
184 82 245 1
185 230 82 1
186 240 230 1
187 88 245 1
188 1 240 1
189 240 10 2
190 153 202 1
191 153 108 1
192 57 195 1
193 57 217 1
194 19 167 1
195 66 133 1
196 74 208 1
197 74 194 1
198 126 175 1
199 18 221 1
200 160 91 1
201 160 71 1
202 152 70 1
203 152 54 1
204 35 222 1
205 191 249 1
206 148 127 1
207 148 229 1
208 3 242 1
209 40 135 1
210 40 22 1
211 109 16 1
212 109 197 1
213 205 171 1
214 205 5 1
215 27 20 1
216 27 12 1
217 142 83 1
218 231 150 1
219 231 244 1
220 136 26 1
221 136 201 1
222 192 42 1
223 192 79 1
224 107 198 1
225 65 189 1
226 65 43 1
227 138 181 1
228 138 21 1
229 86 60 1
230 248 84 1
231 29 111 1
232 124 30 1
233 225 199 1
234 158 67 1
235 23 51 1
236 172 115 1
237 172 169 1
238 236 25 1
239 236 203 1
240 207 183 1
241 149 123 1
242 58 234 1
243 58 180 1
244 143 38 1
245 143 190 1
246 44 220 1
247 44 134 1
248 145 32 1
249 193 95 1
250 100 34 1
251 49 154 1
252 49 4 1
253 121 77 1
254 121 28 1
255 187 80 1
256 187 105 1
257 69 31 1
258 69 159 1
259 85 250 1
260 184 170 1
261 13 120 1
262 227 243 1
263 96 64 1
264 238 214 1
265 224 239 1
266 224 151 1
267 218 48 1
268 218 73 1
269 204 247 1
270 204 146 1
271 89 6 1
272 228 118 1
273 228 119 1
274 228 196 1
275 101 219 1
276 101 59 1
277 101 164 1
278 61 237 1
279 112 63 1
280 92 162 1
281 141 78 1
282 117 72 1
283 246 98 1
284 94 15 1
285 41 147 1
286 241 144 1
287 245 165 1
288 245 235 1
289 82 47 1
290 82 212 1
291 230 102 1
292 230 56 1
@<TRIPOS>MOLECULE
Sketch 4
250 292
SMALL
USER_CHARGES


@<TRIPOS>ATOM
1 H30869 21.1296 47.1231 69.8646 H 0.0 **** 0.053
2 C30737 22.1196 43.6463 66.5812 C.2 0.0 **** 0.042
3 C30744 23.3617 44.0515 69.3588 C.3 0.0 **** -0.106
4 C30760 13.3649 35.9653 65.974 C.3 0.0 **** -0.053
5 C30694 30.8512 42.8237 58.2647 C.2 0.0 **** 0.0
6 C30741 21.3928 45.4441 68.541 C.3 0.0 **** 0.107
7 O30725 17.9091 37.2121 62.2977 O.3 0.0 **** -0.202
8 C30748 17.9843 41.2051 67.4659 C.2 0.0 **** 0.0
9 C30715 19.5871 39.7882 64.3397 C.2 0.0 **** 0.0
10 C30728 19.8715 37.4891 60.6601 C.3 0.0 **** 0.107
11 C30769 11.4424 34.6392 66.8046 C.2 0.0 **** 0.0
12 C30666 31.2977 48.2771 61.321 C.3 0.0 **** 0.107
13 H30890 20.9611 38.478 59.3792 H 0.0 **** 0.41
14 H30878 12.7488 32.5933 65.4106 H 0.0 **** 0.053
15 H30837 29.7792 40.0406 58.6375 H 0.0 **** 0.053
16 H30841 28.7078 42.8108 59.2513 H 0.0 **** 0.1268
17 H30810 32.9641 46.6767 63.137 H 0.0 **** 0.053
18 C30707 23.8195 42.2093 63.4587 C.2 0.0 **** 0.0
19 C30781 8.14706 37.5847 71.1303 C.2 0.0 **** 0.0
20 H30893 8.9245 39.2769 72.2197 H 0.0 **** 0.1268
21 C30767 11.8399 37.679 69.0076 C.2 0.0 **** 0.0
22 H30829 31.5623 48.0792 58.8047 H 0.0 **** 0.1268
23 H30903 6.86928 29.8063 66.2778 H 0.0 **** 0.053
24 H30828 31.9625 46.8572 56.686 H 0.0 **** 0.053
25 H30814 37.0597 48.0208 61.4225 H 0.0 **** 0.053
26 O30740 20.6271 44.2274 68.4033 O.3 0.0 **** -0.202
27 C30705 23.1073 40.3468 62.0118 C.2 0.0 **** 0.0
28 H30867 23.0119 46.2075 70.9968 H 0.0 **** 0.053
29 H30838 31.0588 38.921 58.1284 H 0.0 **** 0.053
30 H30839 30.0897 40.3586 56.2282 H 0.0 **** 0.053
31 C30679 29.8766 48.954 64.8918 C.3 0.0 **** -0.106
32 H30851 19.243 32.9154 59.5526 H 0.0 **** 0.053
33 O30680 26.4881 45.2561 64.4163 O.3 0.0 **** -0.464
34 H30822 28.4047 46.9291 66.1372 H 0.0 **** 0.053
35 H30826 30.2304 49.9965 64.8227 H 0.0 **** 0.053
36 C30655 34.8491 44.8378 64.0506 C.3 0.0 **** 0.054
37 H30854 16.3218 34.8007 63.0466 H 0.0 **** 0.053
38 C30798 7.1576 31.4004 64.8514 C.3 0.0 **** -0.106
39 C30711 22.1771 39.3744 61.6583 C.2 0.0 **** -0.1268
40 C30693 30.7602 42.2003 57.0659 C.2 0.0 **** 0.0
41 H30859 15.3186 32.134 62.3006 H 0.0 **** 0.053
42 C30686 29.2974 44.5295 60.4359 C.2 0.0 **** 0.0
43 H30904 5.35286 30.3486 65.5489 H 0.0 **** 0.053
44 C30791 5.45967 33.7151 69.1619 C.2 0.0 **** -0.1268
45 H30852 17.0551 33.7798 59.5761 H 0.0 **** 0.053
46 C30668 32.6456 48.7786 63.4138 C.3 0.0 **** -0.106
47 C30776 11.3434 39.5811 71.0421 C.2 0.0 **** -0.1268
48 C30719 22.4105 42.8614 65.4097 C.2 0.0 **** 0.0
49 H30894 6.71079 38.2778 72.6043 H 0.0 **** 0.1268
50 C30764 14.762 33.4008 65.1667 C.3 0.0 **** -0.106
51 H30813 34.9991 48.5355 59.895 H 0.0 **** 0.053
52 C30704 24.296 40.5012 61.251 C.2 0.0 **** -0.1268
53 C30778 10.6126 37.6301 69.7256 C.2 0.0 **** 0.0
54 H30843 22.4147 38.7085 60.8346 H 0.0 **** 0.1268
55 H30807 35.2075 48.6239 63.7093 H 0.0 **** 0.053
56 H30874 14.5852 35.8531 64.2122 H 0.0 **** 0.053
57 C30724 18.2328 40.3822 66.3179 C.2 0.0 **** 0.0
58 H30827 30.2232 46.9739 56.7659 H 0.0 **** 0.053
59 C30661 33.4893 47.6156 62.8991 C.3 0.0 **** -0.053
60 C30734 14.9665 34.1508 61.5072 C.3 0.0 **** -0.106
61 H30857 14.0669 34.1265 62.1428 H 0.0 **** 0.053
62 C30726 18.3853 35.9034 61.8737 C.3 0.0 **** 0.107
63 C30733 15.9853 35.1489 62.0549 C.3 0.0 **** -0.106
64 C30730 19.0752 33.7135 60.2887 C.3 0.0 **** -0.106
65 H30824 27.8144 49.4568 64.5012 H 0.0 **** 0.053
66 H30842 24.4635 39.8258 60.4089 H 0.0 **** 0.1268
67 H30802 35.1727 43.8155 64.2897 H 0.0 **** 0.053
68 C30797 8.4442 31.9005 65.4968 C.3 0.0 **** -0.106
69 H30861 21.0733 46.1365 67.7444 H 0.0 **** 0.053
70 H30803 33.741 44.8467 64.0216 H 0.0 **** 0.053
71 C30685 30.277 44.9861 59.5519 C.2 0.0 **** 0.0
72 C30662 33.6322 47.7387 61.3551 C.3 0.0 **** 0.107
73 C30701 24.9986 42.3828 62.6508 C.2 0.0 **** 0.0
74 H30900 9.0604 31.0367 65.8106 H 0.0 **** 0.053
75 C30747 21.1209 46.0249 69.9303 C.3 0.0 **** -0.106
76 C30717 24.5451 44.0653 64.8449 C.2 0.0 **** -0.1268
77 H30864 24.4346 44.2306 69.5217 H 0.0 **** 0.053
78 H30840 31.8365 40.4708 56.3993 H 0.0 **** 0.053
79 H30889 32.9406 38.1044 61.3363 H 0.0 **** 0.053
80 C30720 19.3771 40.5974 65.5055 C.2 0.0 **** 0.0
81 C30779 9.6341 36.6524 69.404 C.2 0.0 **** 0.0
82 C30669 30.1511 48.2465 63.5946 C.2 0.0 **** 0.0
83 C30759 14.7547 35.9243 65.2975 C.3 0.0 **** -0.053
84 H30845 18.5845 35.3216 62.7932 H 0.0 **** 0.053
85 C30762 12.8746 34.555 66.3528 C.3 0.0 **** -0.053
86 H30811 33.5676 46.7347 60.8928 H 0.0 **** 0.053
87 H30895 4.99396 36.5784 72.0297 H 0.0 **** 0.1268
88 H30902 6.59977 32.2605 64.4463 H 0.0 **** 0.053
89 C30672 30.9035 46.7978 61.186 C.3 0.0 **** -0.053
90 C30695 31.2826 42.0931 59.5153 C.3 0.0 **** -0.106
91 C30699 27.4624 42.985 60.9668 C.2 0.0 **** -0.012
92 H30863 23.2655 43.0514 68.9117 H 0.0 **** 0.053
93 H30819 33.1844 49.7113 63.184 H 0.0 **** 0.053
94 H30804 36.2887 44.6979 62.4012 H 0.0 **** 0.053
95 C30751 15.9692 39.9562 67.9635 C.2 0.0 **** 0.042
96 C30712 19.9622 38.2954 61.9519 C.2 0.0 **** 0.0
97 C30659 34.7537 46.9782 65.04 C.3 0.0 **** 0.054
98 C30750 16.2045 39.096 66.8467 C.2 0.0 **** 0.0
99 H30806 36.834 46.7953 63.3658 H 0.0 **** 0.053
100 H30871 18.7104 42.8604 68.6337 H 0.0 **** 0.1268
101 C30709 20.7454 40.016 63.5385 C.2 0.0 **** 0.0
102 H30888 32.2983 37.9232 59.69 H 0.0 **** 0.053
103 C30768 12.7915 38.7088 69.2905 C.2 0.0 **** 0.0
104 H30856 14.6415 34.481 60.5076 H 0.0 **** 0.053
105 C30770 11.13 35.6904 67.7108 C.2 0.0 **** 0.0
106 C30691 31.3194 44.3394 55.9338 C.3 0.0 **** -0.106
107 H30887 33.7665 38.8935 59.9651 H 0.0 **** 0.053
108 C30753 15.3281 38.0287 66.599 C.2 0.0 **** 0.0
109 H30850 19.5734 33.3918 61.2212 H 0.0 **** 0.053
110 C30676 28.2636 46.7251 64.0099 C.2 0.0 **** 0.0
111 C30675 27.5393 45.6383 63.605 C.2 0.0 **** 0.232
112 C30788 8.91353 34.695 68.0722 C.2 0.0 **** 0.0
113 H30834 32.0959 42.6717 59.9886 H 0.0 **** 0.053
114 H30883 32.4399 40.55 61.2808 H 0.0 **** 0.053
115 C30790 6.6916 33.6787 68.4515 C.2 0.0 **** 0.0
116 C30688 31.0049 45.0332 57.2297 C.2 0.0 **** 0.0
117 C30773 32.7819 38.6304 60.3826 C.3 0.0 **** -0.159
118 C30729 19.6644 35.0556 59.8421 C.3 0.0 **** -0.106
119 H30823 28.213 49.3816 66.2322 H 0.0 **** 0.053
120 C30690 31.1827 47.0664 58.6812 C.2 0.0 **** -0.1268
121 C30687 30.68 44.2932 58.3296 C.2 0.0 **** 0.0
122 C30787 7.66793 34.6715 68.7613 C.2 0.0 **** 0.0
123 H30877 12.8277 33.9608 64.2902 H 0.0 **** 0.053
124 C30727 19.6863 36.0129 61.0399 C.3 0.0 **** -0.053
125 H30831 32.4062 44.1224 55.8898 H 0.0 **** 0.053
126 H30846 20.5379 35.7378 61.6824 H 0.0 **** 0.053
127 C30784 5.95064 36.602 71.5042 C.2 0.0 **** -0.1268
128 H30816 30.6062 48.8506 60.6864 H 0.0 **** 0.053
129 C30763 13.224 33.5703 65.2429 C.3 0.0 **** -0.106
130 C30674 27.8377 44.8795 62.4328 C.2 0.0 **** 0.0
131 C30746 22.1313 45.5424 70.9913 C.3 0.0 **** -0.106
132 H30821 26.8378 47.3859 65.4731 H 0.0 **** 0.053
133 N30736 17.0729 32.7441 61.3546 N.3 0.0 **** -0.727
134 C30735 15.6038 32.7353 61.4245 C.3 0.0 **** 0.081
135 C30765 15.5105 34.6416 65.6891 C.3 0.0 **** -0.106
136 C30700 28.5019 43.3768 60.1594 C.2 0.0 **** -0.1268
137 H30865 23.2313 43.7331 71.5082 H 0.0 **** 0.053
138 O30743 23.02 44.6074 66.9828 O.3 0.0 **** -0.202
139 C30742 22.8545 45.0854 68.332 C.3 0.0 **** 0.107
140 C30657 35.8905 46.7896 62.8008 C.3 0.0 **** -0.053
141 H30876 13.4426 34.2532 67.2559 H 0.0 **** 0.053
142 C30667 31.2361 48.8343 62.7545 C.3 0.0 **** -0.053
143 O30665 32.602 48.5627 60.7879 O.3 0.0 **** -0.32
144 H30896 4.70633 32.9701 68.9291 H 0.0 **** 0.1268
145 H30809 35.3226 47.5737 65.7678 H 0.0 **** 0.053
146 C30777 10.3473 38.5898 70.7552 C.2 0.0 **** 0.0
147 C30656 35.4317 45.3201 62.7014 C.3 0.0 **** -0.106
148 H30898 10.7327 32.9238 65.7733 H 0.0 **** 0.1268
149 H30835 30.4729 42.0833 60.2606 H 0.0 **** 0.053
150 C30800 6.06012 31.564 67.1404 C.2 0.0 **** 0.347
151 O30774 20.9538 37.5747 59.7316 O.3 0.0 **** -0.57
152 H30817 31.0013 49.9122 62.6644 H 0.0 **** 0.053
153 C30696 31.7547 40.6578 59.2566 C.3 0.0 **** -0.053
154 H30897 4.26122 34.6634 70.6617 H 0.0 **** 0.1268
155 O30801 5.13629 31.235 67.8861 O.2 0.0 **** -0.419
156 H30853 16.9617 35.9337 60.2934 H 0.0 **** 0.053
157 C30794 9.18277 33.7382 67.0553 C.2 0.0 **** 0.0
158 H30866 21.7105 43.4556 70.6414 H 0.0 **** 0.053
159 C30714 18.6586 38.7627 64.0056 C.2 0.0 **** 0.0
160 C30789 9.89209 35.681 68.3862 C.2 0.0 **** 0.0
161 C30692 30.531 43.0309 55.827 C.3 0.0 **** -0.106
162 H30892 11.1389 40.3011 71.8365 H 0.0 **** 0.1268
163 H30862 23.4571 46.0042 68.3671 H 0.0 **** 0.053
164 C30718 21.4731 41.8448 65.0568 C.2 0.0 **** 0.0
165 H30844 24.4301 44.7467 65.675 H 0.0 **** 0.1268
166 H30880 15.0686 32.5168 65.7468 H 0.0 **** 0.053
167 C30702 25.2111 41.4783 61.5494 C.2 0.0 **** -0.012
168 H30882 15.6143 34.6099 66.7853 H 0.0 **** 0.053
169 C30783 6.89603 37.5415 71.8201 C.2 0.0 **** -0.1268
170 C30677 27.9199 47.447 65.288 C.3 0.0 **** -0.106
171 C30671 29.6696 46.4418 61.9844 C.2 0.0 **** 0.0
172 C30681 25.6532 44.2309 64.0431 C.2 0.0 **** 0.232
173 C30799 6.32824 30.6997 65.9146 C.3 0.0 **** -0.086
174 C30792 5.21924 34.66 70.1374 C.2 0.0 **** -0.1268
175 C30689 31.0954 46.523 57.2888 C.3 0.0 **** -0.106
176 H30825 30.4634 48.4904 65.71 H 0.0 **** 0.053
177 H30899 9.03975 32.4542 64.7574 H 0.0 **** 0.053
178 C30755 16.6826 37.3857 64.7205 C.2 0.0 **** -0.1268
179 C30780 8.40166 36.6248 70.0982 C.2 0.0 **** 0.0
180 C30664 36.1267 47.4376 61.4126 C.3 0.0 **** -0.106
181 C30683 27.0812 43.7426 62.1234 C.2 0.0 **** 0.0
182 H30812 35.0485 49.3376 61.4721 H 0.0 **** 0.053
183 H30818 32.5515 48.7238 64.5085 H 0.0 **** 0.053
184 H30858 15.219 32.2069 60.5358 H 0.0 **** 0.053
185 H30830 31.0974 45.0084 55.0871 H 0.0 **** 0.053
186 H30872 16.6344 41.6122 69.1377 H 0.0 **** 0.1268
187 H30860 17.4661 32.8081 62.2944 H 0.0 **** 0.353
188 H30808 33.6911 46.9578 65.3607 H 0.0 **** 0.053
189 C30713 18.8709 38.0782 62.7716 C.2 0.0 **** 0.042
190 H30875 12.6436 36.3576 65.2298 H 0.0 **** 0.053
191 C30795 6.97552 32.7149 67.408 C.2 0.0 **** 0.052
192 S30703 26.6632 41.4822 60.5609 S.2 0.0 **** 0.024
193 C30782 9.12627 38.5436 71.4358 C.2 0.0 **** -0.1268
194 C30697 30.8108 39.9862 58.253 C.3 0.0 **** -0.106
195 H30881 16.5323 34.6793 65.2822 H 0.0 **** 0.053
196 H30891 13.2531 40.4154 70.5607 H 0.0 **** 0.1268
197 C30796 8.17389 32.7953 66.6859 C.2 0.0 **** 0.0
198 C30716 23.5903 43.0583 64.5937 C.2 0.0 **** 0.0
199 H30849 20.6813 34.9447 59.4449 H 0.0 **** 0.053
200 C30775 12.5146 39.645 70.3397 C.2 0.0 **** -0.1268
201 C30673 28.9478 45.3185 61.6205 C.2 0.0 **** 0.0
202 C30710 20.9733 39.2143 62.362 C.2 0.0 **** 0.0
203 H30855 15.5363 36.1393 62.2106 H 0.0 **** 0.053
204 C30749 18.8899 42.2211 67.7707 C.2 0.0 **** -0.1268
205 C30706 22.8711 41.201 63.1324 C.2 0.0 **** 0.0
206 H30884 30.717 39.0647 62.2074 H 0.0 **** 0.053
207 C30745 22.5925 44.1107 70.6963 C.3 0.0 **** -0.106
208 O30660 35.2998 45.657 65.1347 O.3 0.0 **** -0.32
209 C30739 20.0344 42.429 66.987 C.2 0.0 **** 0.0
210 H30805 34.6682 45.2169 61.9141 H 0.0 **** 0.053
211 H30820 31.7022 46.1826 61.648 H 0.0 **** 0.053
212 C30757 13.9533 38.7665 68.4976 C.2 0.0 **** 0.0265
213 H30870 20.0976 45.7284 70.2072 H 0.0 **** 0.053
214 H30836 32.7522 40.7092 58.7815 H 0.0 **** 0.053
215 C30684 30.8088 46.3316 59.7525 C.2 0.0 **** 0.0
216 C30663 34.9689 48.3552 60.9791 C.3 0.0 **** -0.106
217 C30731 17.5725 33.8582 60.5476 C.3 0.0 **** 0.134
218 H30832 30.825 42.4632 54.9304 H 0.0 **** 0.053
219 H30901 7.38233 30.7258 64.0113 H 0.0 **** 0.053
220 C30721 20.3027 41.6194 65.8417 C.2 0.0 **** 0.0
221 H30873 16.8574 36.7027 63.9042 H 0.0 **** 0.1268
222 C30722 17.5537 38.4795 64.8879 C.2 0.0 **** 0.0
223 C30682 25.9266 43.4191 62.9274 C.2 0.0 **** 0.0
224 C30708 21.6948 41.0183 63.906 C.2 0.0 **** 0.0
225 C30670 29.379 47.1672 63.1955 C.2 0.0 **** 0.0
226 C30786 7.41789 35.6432 69.7772 C.2 0.0 **** 0.0
227 H30848 19.0523 35.4837 59.0297 H 0.0 **** 0.053
228 C30771 31.9139 39.8777 60.5785 C.3 0.0 **** -0.053
229 H30868 21.679 45.6135 71.9914 H 0.0 **** 0.053
230 C30754 15.5955 37.1493 65.5417 C.2 0.0 **** 0.0
231 C30678 28.3914 48.9012 65.2581 C.3 0.0 **** -0.106
232 C30732 17.2114 35.2642 61.1339 C.3 0.0 **** -0.053
233 C30752 16.8266 40.9753 68.2736 C.2 0.0 **** -0.1268
234 H30847 18.9395 37.8076 60.1491 H 0.0 **** 0.053
235 O30756 14.8592 39.7651 68.7724 O.3 0.0 **** -0.0685
236 C30758 14.1674 37.8654 67.4405 C.2 0.0 **** 0.0
237 C30761 13.2373 36.8549 67.182 C.2 0.0 **** 0.0
238 C30698 30.8842 40.7128 56.9102 C.3 0.0 **** -0.106
239 C30766 12.0895 36.7272 67.9787 C.2 0.0 **** 0.0
240 H30879 15.0539 33.2145 64.1234 H 0.0 **** 0.053
241 H30815 36.2639 46.6405 60.6634 H 0.0 **** 0.053
242 H30886 29.8892 40.357 61.3058 H 0.0 **** 0.053
243 C30658 34.8559 47.5828 63.6156 C.3 0.0 **** -0.053
244 C30723 17.3348 39.3281 66.0139 C.2 0.0 **** 0.0
245 C30772 30.5671 39.4957 61.2061 C.3 0.0 **** -0.159
246 C30785 6.18409 35.6334 70.4807 C.2 0.0 **** 0.0
247 H30833 29.4536 43.2636 55.723 H 0.0 **** 0.053
248 H30885 30.0564 38.7384 60.5913 H 0.0 **** 0.053
249 C30793 10.4767 33.716 66.4717 C.2 0.0 **** -0.1268
250 C30738 20.9563 43.4577 67.3115 C.2 0.0 **** 0.042
@<TRIPOS>BOND
1 60 61 1
2 95 98 un
3 133 134 1
4 164 220 un
5 139 6 1
6 232 156 1
7 140 147 1
8 243 140 1
9 97 243 1
10 208 97 1
11 36 147 1
12 36 208 1
13 72 59 1
14 216 72 1
15 180 216 1
16 243 59 1
17 140 180 1
18 12 143 1
19 142 12 1
20 46 142 1
21 72 143 1
22 59 46 1
23 225 82 un
24 171 225 un
25 89 171 un
26 142 82 1
27 12 89 1
28 130 201 1
29 111 130 un
30 110 111 un
31 171 201 un
32 225 110 un
33 231 170 1
34 31 231 1
35 82 31 1
36 110 170 1
37 172 33 1
38 223 172 un
39 181 223 un
40 111 33 1
41 130 181 un
42 71 215 un
43 42 71 2
44 89 215 1
45 201 42 un
46 116 121 2
47 175 116 1
48 120 175 1
49 71 121 1
50 215 120 2
51 161 106 1
52 40 161 1
53 5 40 2
54 116 106 1
55 121 5 1
56 153 90 1
57 194 153 1
58 238 194 1
59 5 90 1
60 40 238 1
61 136 91 un
62 42 136 un
63 181 91 un
64 167 73 un
65 192 167 1
66 91 192 un
67 223 73 un
68 27 52 un
69 205 27 un
70 18 205 un
71 167 52 un
72 73 18 un
73 101 224 un
74 202 101 un
75 39 202 un
76 205 224 un
77 27 39 un
78 189 96 un
79 159 189 un
80 9 159 un
81 202 96 un
82 101 9 un
83 76 198 un
84 172 76 un
85 18 198 un
86 48 164 un
87 198 48 un
88 224 164 un
89 220 80 un
90 9 80 un
91 244 222 un
92 57 244 un
93 80 57 un
94 159 222 un
95 62 7 1
96 124 62 1
97 10 124 1
98 189 7 1
99 96 10 1
100 64 118 1
101 217 64 1
102 232 217 1
103 124 118 1
104 62 232 1
105 60 63 1
106 134 60 1
107 232 63 1
108 217 133 1
109 250 2 un
110 209 250 un
111 220 209 un
112 48 2 un
113 6 26 1
114 138 139 1
115 250 26 1
116 2 138 1
117 207 3 1
118 131 207 1
119 75 131 1
120 139 3 1
121 6 75 1
122 204 8 un
123 209 204 un
124 57 8 un
125 233 95 un
126 8 233 un
127 244 98 un
128 230 108 un
129 178 230 un
130 222 178 un
131 98 108 un
132 212 235 1
133 236 212 un
134 95 235 1
135 108 236 1
136 4 83 1
137 237 4 1
138 230 83 1
139 236 237 un
140 129 85 1
141 50 129 1
142 135 50 1
143 4 85 1
144 83 135 1
145 21 239 1
146 103 21 1
147 212 103 un
148 237 239 un
149 85 11 1
150 239 105 un
151 11 105 un
152 153 228 1
153 228 245 1
154 228 117 1
155 10 151 1
156 47 200 1
157 146 47 un
158 53 146 1
159 103 200 un
160 21 53 un
161 179 81 un
162 19 179 1
163 193 19 un
164 53 81 un
165 146 193 un
166 127 169 un
167 246 127 1
168 226 246 1
169 19 169 un
170 179 226 un
171 112 122 un
172 160 112 un
173 81 160 un
174 226 122 un
175 44 115 un
176 174 44 un
177 246 174 un
178 122 115 un
179 157 249 un
180 112 157 un
181 105 160 un
182 11 249 un
183 197 191 un
184 157 197 un
185 115 191 un
186 38 68 1
187 173 38 1
188 150 173 1
189 197 68 1
190 191 150 1
191 150 155 2
192 36 67 1
193 36 70 1
194 147 94 1
195 147 210 1
196 140 99 1
197 243 55 1
198 97 188 1
199 97 145 1
200 59 17 1
201 72 86 1
202 216 182 1
203 216 51 1
204 180 25 1
205 180 241 1
206 12 128 1
207 142 152 1
208 46 183 1
209 46 93 1
210 89 211 1
211 170 132 1
212 170 34 1
213 231 119 1
214 231 65 1
215 31 176 1
216 31 35 1
217 175 58 1
218 175 24 1
219 120 22 1
220 106 185 1
221 106 125 1
222 161 218 1
223 161 247 1
224 90 113 1
225 90 149 1
226 153 214 1
227 194 15 1
228 194 29 1
229 238 30 1
230 238 78 1
231 136 16 1
232 52 66 1
233 39 54 1
234 76 165 1
235 62 84 1
236 124 126 1
237 10 234 1
238 118 227 1
239 118 199 1
240 64 109 1
241 64 32 1
242 217 45 1
243 63 37 1
244 63 203 1
245 60 104 1
246 134 184 1
247 134 41 1
248 133 187 1
249 6 69 1
250 139 163 1
251 3 92 1
252 3 77 1
253 207 137 1
254 207 158 1
255 131 28 1
256 131 229 1
257 75 1 1
258 75 213 1
259 204 100 1
260 233 186 1
261 178 221 1
262 83 56 1
263 4 190 1
264 85 141 1
265 129 123 1
266 129 14 1
267 50 240 1
268 50 166 1
269 135 195 1
270 135 168 1
271 228 114 1
272 245 206 1
273 245 248 1
274 245 242 1
275 117 107 1
276 117 102 1
277 117 79 1
278 151 13 1
279 200 196 1
280 47 162 1
281 193 20 1
282 169 49 1
283 127 87 1
284 44 144 1
285 174 154 1
286 249 148 1
287 68 177 1
288 68 74 1
289 38 219 1
290 38 88 1
291 173 23 1
292 173 43 1
@<TRIPOS>MOLECULE
Sketch 4
130 142
SMALL
USER_CHARGES


@<TRIPOS>ATOM
1 H4666 21.4653 19.3714 21.4359 H 0.0 **** 0.41
2 H4639 22.7317 25.4206 37.047 H 0.0 **** 0.053
3 C4588 21.3675 23.3604 31.4335 C.ar 0.0 **** 0.2405
4 C4551 11.0581 21.924 22.2227 C.ar 0.0 **** 0.0
5 H4632 18.4877 22.1819 31.6779 H 0.0 **** 0.053
6 C4606 9.61586 22.1859 21.8434 C.3 0.0 **** -0.159
7 H4651 9.48038 22.1839 20.7544 H 0.0 **** 0.053
8 H4658 11.2705 21.2369 19.2779 H 0.0 **** 0.053
9 H4670 24.7309 25.125 23.6702 H 0.0 **** 0.053
10 C4561 16.4706 19.6135 20.0259 C.ar 0.0 **** 0.0
11 C4556 11.5813 22.4463 23.4261 C.ar 0.0 **** 0.0
12 H4621 15.3295 20.8893 24.1252 H 0.0 **** 0.053
13 H4655 14.0728 22.0897 25.5633 H 0.0 **** 0.053
14 C4608 11.2881 20.5287 20.1252 C.3 0.0 **** -0.159
15 C4595 22.2874 25.3418 36.0421 C.3 0.0 **** -0.106
16 C4562 17.8527 19.6683 20.1747 C.ar 0.0 **** 0.0
17 C4577 19.1099 22.0449 26.2749 C.ar 0.0 **** 0.042
18 H4626 24.3042 21.9112 23.7489 H 0.0 **** 0.053
19 C4560 14.1112 20.19 20.7361 C.3 0.0 **** -0.106
20 C4596 23.0905 24.3509 35.2002 C.3 0.0 **** -0.053
21 C4619 28.889 22.6502 33.5065 C.3 0.0 **** -0.159
22 C4599 24.6227 23.2169 33.0567 C.ar 0.0 **** 0.0
23 H4627 22.5652 24.2708 22.916 H 0.0 **** 0.053
24 C4597 24.5256 24.8281 34.9704 C.3 0.0 **** -0.106
25 H4625 23.7741 23.1904 24.8368 H 0.0 **** 0.053
26 C4574 23.4503 23.6374 22.741 C.ar 0.0 **** -0.053
27 O4614 23.2328 22.3278 26.677 O.3 0.0 **** -0.452
28 C4570 22.1585 21.977 24.0483 C.2 0.0 **** 0.0
29 C4563 18.4018 20.2203 21.3834 C.ar 0.0 **** 0.0
30 H4664 18.1955 19.2548 18.0792 H 0.0 **** 0.053
31 C4604 10.6769 23.2037 24.3755 C.3 0.0 **** -0.106
32 C4571 21.3382 22.0376 25.2253 C.ar 0.0 **** 0.0
33 H4645 27.2482 21.5389 31.6869 H 0.0 **** 0.1268
34 C4566 19.3843 21.3954 23.8378 C.ar 0.0 **** 0.0
35 C4594 20.8261 24.9023 36.1171 C.3 0.0 **** -0.106
36 O4616 17.5691 22.4568 28.5863 O.2 0.0 **** -0.419
37 H4676 28.5123 24.4323 35.2188 H 0.0 **** 0.053
38 H4622 13.7583 19.1399 20.7376 H 0.0 **** 0.053
39 C4601 26.6979 22.199 32.3609 C.ar 0.0 **** -0.1268
40 H4633 18.447 24.3276 32.9102 H 0.0 **** 0.053
41 H4668 24.2338 22.0589 19.6762 H 0.0 **** 0.053
42 H4642 24.4946 25.8315 34.5028 H 0.0 **** 0.053
43 H4637 20.7822 23.8818 36.5327 H 0.0 **** 0.053
44 C4575 23.2109 22.8695 21.4153 C.ar 0.0 **** -0.053
45 C4584 18.8438 22.5843 28.6646 C.2 0.0 **** 0.367
46 C4602 27.4018 22.8665 33.3758 C.ar 0.0 **** 0.0
47 H4652 9.27119 23.1604 22.2132 H 0.0 **** 0.053
48 O4611 20.6275 19.4587 20.954 O.3 0.0 **** -0.452
49 C4565 18.019 21.2865 23.5786 C.ar 0.0 **** -0.1268
50 H4624 17.3264 21.5899 24.3465 H 0.0 **** 0.1268
51 C4564 17.5169 20.7848 22.3682 C.ar 0.0 **** 0.0
52 C4590 23.181 23.4543 32.8572 C.ar 0.0 **** 0.2405
53 H4623 13.9387 20.5291 19.7006 H 0.0 **** 0.053
54 C4558 16.1066 20.7844 22.1377 C.ar 0.0 **** 0.0
55 H4673 23.3594 22.5947 27.7046 H 0.0 **** 0.41
56 H4634 19.0294 25.2024 31.4916 H 0.0 **** 0.053
57 C4553 13.2402 20.9934 21.6704 C.ar 0.0 **** 0.0
58 C4573 23.5042 22.6537 23.9271 C.3 0.0 **** -0.106
59 H4679 29.2421 21.9245 32.7614 H 0.0 **** 0.053
60 H4630 22.1032 21.148 20.7595 H 0.0 **** 0.053
61 H4660 16.4758 18.1348 18.4357 H 0.0 **** 0.053
62 N4589 22.6592 23.099 31.6783 N.ar 0.0 **** -0.481
63 C4567 20.2961 20.9924 22.7928 C.ar 0.0 **** 0.0
64 H4654 14.3759 23.5867 24.6874 H 0.0 **** 0.053
65 H4629 23.4325 20.7782 21.8729 H 0.0 **** 0.053
66 H4674 17.4585 22.1231 27.2158 H 0.0 **** 0.41
67 H4640 22.3512 26.3416 35.5774 H 0.0 **** 0.053
68 C4612 24.4685 22.6654 20.5645 C.3 0.0 **** -0.159
69 C4610 18.7452 19.2503 19.0272 C.3 0.0 **** -0.159
70 H4669 25.2433 22.132 21.1382 H 0.0 **** 0.053
71 C4579 21.0927 22.5029 27.6558 C.ar 0.0 **** 0.052
72 H4662 14.8621 18.5632 19.018 H 0.0 **** 0.053
73 H4638 20.2491 25.5508 36.7937 H 0.0 **** 0.053
74 C4618 27.4235 24.5024 35.3226 C.3 0.0 **** -0.159
75 C4613 24.6759 24.5541 22.7314 C.3 0.0 **** -0.159
76 C4559 15.5942 20.1987 21.0017 C.ar 0.0 **** 0.0
77 C4568 19.7812 20.2426 21.706 C.ar 0.0 **** 0.042
78 C4576 22.5898 21.4715 21.6846 C.3 0.0 **** -0.106
79 C4554 13.7712 21.5674 22.8276 C.ar 0.0 **** 0.0
80 C4552 11.8748 21.1624 21.3667 C.ar 0.0 **** 0.0
81 C4605 10.7422 24.7231 24.1532 C.3 0.0 **** -0.159
82 C4607 13.583 22.8698 24.9578 C.3 0.0 **** -0.159
83 H4628 22.4847 23.442 20.8169 H 0.0 **** 0.053
84 H4671 24.6345 25.2713 21.8977 H 0.0 **** 0.053
85 H4635 19.9634 25.9526 34.4282 H 0.0 **** 0.053
86 C4600 25.3302 22.373 32.1899 C.ar 0.0 **** -0.1268
87 H4678 29.4486 23.5882 33.3568 H 0.0 **** 0.053
88 C4572 19.9317 21.837 25.1067 C.ar 0.0 **** 0.0
89 C4587 20.5155 23.9542 32.3973 C.ar 0.0 **** 0.0
90 C4593 20.1862 24.9117 34.7245 C.3 0.0 **** -0.106
91 H4665 19.1715 18.2455 19.1742 H 0.0 **** 0.053
92 C4586 19.0843 24.2329 32.0223 C.3 0.0 **** -0.106
93 H4631 17.5314 23.3504 30.7585 H 0.0 **** 0.053
94 H4647 9.63913 22.8616 24.262 H 0.0 **** 0.053
95 C4580 21.9144 22.3036 26.5265 C.ar 0.0 **** 0.042
96 H4667 24.8949 23.6189 20.2236 H 0.0 **** 0.053
97 H4646 10.9488 22.9725 25.416 H 0.0 **** 0.053
98 C4569 21.6599 21.427 22.875 C.2 0.0 **** 0.0
99 H4656 12.8698 23.3985 25.5985 H 0.0 **** 0.053
100 H4661 15.7456 19.6851 17.974 H 0.0 **** 0.053
101 H4636 19.2122 24.3997 34.7642 H 0.0 **** 0.053
102 C4609 15.8598 18.9651 18.8035 C.3 0.0 **** -0.159
103 H4677 27.1602 24.1265 36.3261 H 0.0 **** 0.053
104 H4659 10.2534 20.2005 20.2923 H 0.0 **** 0.053
105 H4650 10.0625 25.2599 24.8331 H 0.0 **** 0.053
106 C4581 21.7076 22.8264 28.9287 C.2 0.0 **** 0.367
107 C4603 26.7007 23.7322 34.2418 C.ar 0.0 **** 0.0
108 H4643 25.0146 24.9567 35.9461 H 0.0 **** 0.053
109 H4672 25.6071 23.9763 22.6333 H 0.0 **** 0.053
110 H4641 23.1509 23.3963 35.761 H 0.0 **** 0.053
111 H4644 24.7891 21.8818 31.3812 H 0.0 **** 0.1268
112 H4680 29.158 22.2741 34.5066 H 0.0 **** 0.053
113 H4653 8.93781 21.4201 22.2593 H 0.0 **** 0.053
114 C4591 22.4136 24.044 33.8844 C.ar 0.0 **** 0.0
115 H4648 10.4663 24.9726 23.1173 H 0.0 **** 0.053
116 H4663 19.5938 19.9371 18.9256 H 0.0 **** 0.053
117 O4615 17.7859 21.9244 26.2235 O.3 0.0 **** -0.452
118 C4592 21.0514 24.2834 33.6532 C.ar 0.0 **** 0.0
119 H4649 11.7646 25.0939 24.3192 H 0.0 **** 0.053
120 H4657 11.8627 19.6521 19.8011 H 0.0 **** 0.053
121 H4620 15.6351 22.4342 23.3892 H 0.0 **** 0.053
122 C4555 12.9477 22.2848 23.7184 C.ar 0.0 **** 0.0
123 C4583 19.4582 22.9286 29.9383 C.ar 0.0 **** 0.0
124 C4585 18.5464 23.1314 31.1133 C.3 0.0 **** -0.106
125 C4582 20.8259 23.0348 30.0964 C.ar 0.0 **** 0.0
126 O4617 22.9717 22.9397 29.0046 O.2 0.0 **** -0.419
127 C4598 25.3107 23.8892 34.0885 C.ar 0.0 **** 0.0
128 C4557 15.227 21.433 23.1658 C.3 0.0 **** -0.106
129 C4578 19.69 22.3828 27.521 C.ar 0.0 **** 0.052
130 H4675 27.15 25.5684 35.302 H 0.0 **** 0.053
@<TRIPOS>BOND
1 49 50 1
2 76 54 am
3 57 80 am
4 79 57 am
5 122 79 am
6 11 122 am
7 4 80 am
8 4 11 am
9 54 128 1
10 19 76 1
11 79 128 1
12 57 19 1
13 16 10 am
14 29 16 am
15 51 29 am
16 76 10 am
17 54 51 am
18 34 49 am
19 63 34 am
20 77 63 am
21 51 49 am
22 29 77 am
23 28 98 1
24 32 28 1
25 88 32 am
26 63 98 1
27 34 88 am
28 26 58 1
29 44 26 am
30 78 44 1
31 28 58 1
32 98 78 1
33 129 17 am
34 71 129 am
35 95 71 am
36 88 17 am
37 32 95 am
38 125 106 1
39 123 125 am
40 45 123 1
41 71 106 1
42 129 45 1
43 92 124 1
44 89 92 1
45 3 89 am
46 123 124 1
47 125 3 am
48 52 62 am
49 114 52 am
50 118 114 am
51 3 62 am
52 89 118 am
53 35 90 1
54 15 35 1
55 20 15 1
56 118 90 1
57 114 20 1
58 127 24 1
59 22 127 am
60 52 22 am
61 20 24 1
62 39 86 am
63 46 39 am
64 107 46 am
65 22 86 am
66 127 107 am
67 11 31 1
68 31 81 1
69 4 6 1
70 122 82 1
71 80 14 1
72 10 102 1
73 16 69 1
74 77 48 1
75 44 68 1
76 26 75 1
77 95 27 1
78 17 117 1
79 45 36 2
80 106 126 2
81 107 74 1
82 46 21 1
83 128 121 1
84 128 12 1
85 19 38 1
86 19 53 1
87 58 25 1
88 58 18 1
89 26 23 1
90 44 83 1
91 78 65 1
92 78 60 1
93 124 93 1
94 124 5 1
95 92 40 1
96 92 56 1
97 90 85 1
98 90 101 1
99 35 43 1
100 35 73 1
101 15 2 1
102 15 67 1
103 20 110 1
104 24 42 1
105 24 108 1
106 86 111 1
107 39 33 1
108 31 97 1
109 31 94 1
110 81 115 1
111 81 119 1
112 81 105 1
113 6 7 1
114 6 47 1
115 6 113 1
116 82 64 1
117 82 13 1
118 82 99 1
119 14 120 1
120 14 8 1
121 14 104 1
122 102 61 1
123 102 100 1
124 102 72 1
125 69 116 1
126 69 30 1
127 69 91 1
128 48 1 1
129 68 96 1
130 68 41 1
131 68 70 1
132 75 9 1
133 75 84 1
134 75 109 1
135 27 55 1
136 117 66 1
137 74 130 1
138 74 37 1
139 74 103 1
140 21 87 1
141 21 59 1
142 21 112 1
@<TRIPOS>MOLECULE
Sketch 4
130 142
SMALL
USER_CHARGES


@<TRIPOS>ATOM
1 H3843 51.8814 33.1922 42.8596 H 0.0 **** 0.053
2 H3852 47.1955 39.6885 52.9948 H 0.0 **** 0.053
3 C3815 45.6283 45.3245 56.0359 C.3 0.0 **** -0.106
4 C3787 54.0486 38.4665 47.0642 C.ar 0.0 **** 0.0
5 H3841 50.0843 35.217 46.6427 H 0.0 **** 0.053
6 C3782 54.5993 35.3731 44.895 C.ar 0.0 **** 0.0
7 C3779 52.3849 34.3407 44.583 C.ar 0.0 **** 0.0
8 C3807 47.2372 42.4605 53.2867 C.ar 0.0 **** 0.0
9 C3777 50.2973 35.351 45.5642 C.3 0.0 **** -0.106
10 H3888 57.8837 41.354 45.2447 H 0.0 **** 0.053
11 C3792 52.0696 39.233 48.3666 C.ar 0.0 **** 0.0
12 H3842 51.8562 32.2849 44.3475 H 0.0 **** 0.053
13 C3791 52.824 40.3647 48.7942 C.ar 0.0 **** 0.0
14 C3806 46.3765 41.6007 52.3998 C.3 0.0 **** -0.106
15 H3871 47.5411 31.474 41.4685 H 0.0 **** 0.053
16 C3829 54.4252 33.2547 43.5428 C.3 0.0 **** -0.159
17 H3881 54.4692 33.5282 42.4737 H 0.0 **** 0.053
18 H3860 45.4421 45.9838 55.1698 H 0.0 **** 0.053
19 H3883 56.3213 36.5314 44.2978 H 0.0 **** 0.053
20 C3772 49.2639 32.5205 43.2259 C.ar 0.0 **** 0.0
21 H3851 46.5178 39.6796 51.3621 H 0.0 **** 0.053
22 C3822 51.7257 46.6231 56.7636 C.ar 0.0 **** 0.0
23 C3801 50.5586 41.8533 51.4635 C.2 0.0 **** 0.367
24 C3805 47.088 40.2907 52.0731 C.3 0.0 **** -0.106
25 N3809 49.475 43.2059 53.8165 N.ar 0.0 **** -0.481
26 H3896 50.6258 48.8249 57.7756 H 0.0 **** 0.053
27 H3848 55.4025 41.3281 44.9027 H 0.0 **** 0.053
28 H3867 45.3046 32.7037 43.9732 H 0.0 **** 0.053
29 H3857 45.0828 43.3542 56.7128 H 0.0 **** 0.053
30 H3876 46.3914 35.552 45.767 H 0.0 **** 0.053
31 O3836 48.226 38.6796 50.097 O.2 0.0 **** -0.419
32 H3870 44.0709 34.7816 43.327 H 0.0 **** 0.053
33 C3823 50.3437 46.9061 56.7931 C.ar 0.0 **** 0.0
34 H3879 49.2913 30.5314 42.3592 H 0.0 **** 0.053
35 C3778 51.7818 35.3133 45.3487 C.ar 0.0 **** 0.0
36 C3814 44.8452 44.0233 55.8689 C.3 0.0 **** -0.106
37 H3873 46.7023 30.8416 42.8964 H 0.0 **** 0.053
38 H3893 52.4551 42.6039 51.1163 H 0.0 **** 0.41
39 H3882 53.8475 32.3249 43.6118 H 0.0 **** 0.053
40 H3872 46.0876 32.2827 42.0674 H 0.0 **** 0.053
41 H3889 57.6728 42.3699 46.6888 H 0.0 **** 0.053
42 C3817 47.9609 46.3096 56.1374 C.3 0.0 **** -0.106
43 C3784 52.5735 36.3278 45.97 C.ar 0.0 **** 0.0
44 H3856 44.81 42.3101 54.5456 H 0.0 **** 0.053
45 H3866 45.4478 33.8961 45.2446 H 0.0 **** 0.053
46 C3804 48.9533 39.6617 50.4892 C.2 0.0 **** 0.367
47 H3874 47.806 36.5541 45.4086 H 0.0 **** 0.053
48 H3845 54.0725 42.7797 48.6457 H 0.0 **** 0.053
49 H3861 47.3154 44.5041 57.0799 H 0.0 **** 0.053
50 C3775 48.0676 34.4791 44.8611 C.ar 0.0 **** 0.0
51 C3793 54.6811 42.0502 48.1109 C.3 0.0 **** -0.106
52 H3895 49.1249 48.6979 56.8352 H 0.0 **** 0.053
53 C3816 47.1252 45.0284 56.1217 C.3 0.0 **** -0.053
54 C3803 48.4573 40.5607 51.5208 C.ar 0.0 **** 0.0
55 H3899 53.7477 47.1178 57.3275 H 0.0 **** 0.053
56 C3794 54.8383 42.4844 46.6398 C.ar 0.0 **** -0.053
57 H3868 45.4585 34.5428 42.2282 H 0.0 **** 0.053
58 H3844 50.9198 37.1247 47.0782 H 0.0 **** 0.1268
59 H3880 55.4491 33.0295 43.8669 H 0.0 **** 0.053
60 H3854 46.1653 42.1448 51.4597 H 0.0 **** 0.053
61 C3789 54.6804 39.7259 47.3292 C.2 0.0 **** 0.0
62 O3834 53.0917 42.1406 50.3929 O.3 0.0 **** -0.452
63 C3839 52.7319 47.5203 57.4404 C.3 0.0 **** -0.159
64 C3790 54.0644 40.6708 48.1388 C.2 0.0 **** 0.0
65 C3781 53.8061 34.3549 44.3758 C.ar 0.0 **** 0.0
66 H3891 55.2893 44.2906 45.492 H 0.0 **** 0.053
67 H3859 45.3057 45.8708 56.9364 H 0.0 **** 0.053
68 C3786 52.6548 38.3129 47.4096 C.ar 0.0 **** 0.0
69 C3799 51.0435 40.9687 50.4217 C.ar 0.0 **** 0.052
70 C3833 55.1938 43.9698 46.5404 C.3 0.0 **** -0.159
71 C3827 47.486 35.555 45.7478 C.3 0.0 **** -0.159
72 O3835 49.9822 38.0211 48.5493 O.3 0.0 **** -0.452
73 H3878 50.0258 31.7722 41.3303 H 0.0 **** 0.053
74 H3886 56.391 37.8862 47.176 H 0.0 **** 0.41
75 H3885 56.7379 35.1004 45.2361 H 0.0 **** 0.053
76 H3887 57.2332 43.0038 45.0846 H 0.0 **** 0.053
77 C3825 45.1701 34.7486 43.2704 C.3 0.0 **** -0.159
78 H3900 52.5219 47.626 58.5168 H 0.0 **** 0.053
79 H3884 56.2263 34.9339 43.5388 H 0.0 **** 0.053
80 C3780 51.5697 33.2639 43.9155 C.3 0.0 **** -0.106
81 C3795 55.8187 41.5373 45.9008 C.ar 0.0 **** -0.053
82 H3853 45.4046 41.3913 52.8633 H 0.0 **** 0.053
83 H3846 55.6736 42.0482 48.5984 H 0.0 **** 0.053
84 H3890 54.411 44.5805 47.0142 H 0.0 **** 0.053
85 C3785 51.9625 37.2481 46.8352 C.ar 0.0 **** -0.1268
86 H3850 56.3184 39.4467 45.9189 H 0.0 **** 0.053
87 H3858 43.7601 44.2047 55.8973 H 0.0 **** 0.053
88 C3830 56.0465 35.484 44.4694 C.3 0.0 **** -0.159
89 C3821 52.1746 45.4835 56.0775 C.ar 0.0 **** -0.1268
90 H3862 47.7125 46.9056 55.2376 H 0.0 **** 0.053
91 C3773 50.0681 33.3988 43.9789 C.ar 0.0 **** 0.0
92 C3774 49.4707 34.3799 44.7734 C.ar 0.0 **** 0.0
93 H3898 52.7209 48.5358 57.0116 H 0.0 **** 0.053
94 C3832 57.2299 42.1043 45.7155 C.3 0.0 **** -0.159
95 C3810 48.9671 44.0314 54.7379 C.ar 0.0 **** 0.2405
96 C3788 54.7032 37.3862 46.4215 C.ar 0.0 **** 0.042
97 H3863 47.6598 46.9161 57.0028 H 0.0 **** 0.053
98 C3820 51.2905 44.6315 55.4272 C.ar 0.0 **** -0.1268
99 C3812 46.7075 43.2915 54.2875 C.ar 0.0 **** 0.0
100 C3808 48.6397 42.454 53.0859 C.ar 0.0 **** 0.2405
101 C3811 47.5858 44.1049 55.0178 C.ar 0.0 **** 0.0
102 C3800 52.326 41.1874 49.8762 C.ar 0.0 **** 0.042
103 H3897 49.258 47.8824 58.3989 H 0.0 **** 0.053
104 C3826 47.0061 31.7691 42.3801 C.3 0.0 **** -0.159
105 C3796 55.9483 40.1789 46.6428 C.3 0.0 **** -0.106
106 H3864 51.6412 43.7657 54.8656 H 0.0 **** 0.1268
107 O3837 51.2874 42.8178 51.8578 O.2 0.0 **** -0.419
108 C3819 49.9146 44.8951 55.4666 C.ar 0.0 **** 0.0
109 H3840 49.9424 36.3751 45.3542 H 0.0 **** 0.053
110 C3824 45.7505 33.6795 44.2096 C.3 0.0 **** -0.106
111 C3776 47.2599 33.5971 44.1207 C.ar 0.0 **** 0.0
112 C3828 49.9025 31.4437 42.3776 C.3 0.0 **** -0.159
113 C3783 53.9951 36.3607 45.7475 C.ar 0.0 **** 0.0
114 C3797 50.7606 39.0274 48.9388 C.ar 0.0 **** 0.042
115 C3798 50.2611 39.8932 49.9409 C.ar 0.0 **** 0.052
116 C3802 49.2104 41.6066 52.0165 C.ar 0.0 **** 0.0
117 C3818 49.4433 46.0301 56.1588 C.ar 0.0 **** 0.0
118 H3865 53.2465 45.276 56.0489 H 0.0 **** 0.1268
119 H3847 53.8455 42.3507 46.1793 H 0.0 **** 0.053
120 H3875 47.8459 35.457 46.7852 H 0.0 **** 0.053
121 C3813 45.2178 43.3328 54.5524 C.3 0.0 **** -0.106
122 C3838 49.8186 48.1428 57.4849 C.3 0.0 **** -0.159
123 H3894 49.1022 38.1173 49.1388 H 0.0 **** 0.41
124 C3771 47.8632 32.6491 43.2652 C.ar 0.0 **** 0.0
125 H3855 44.7273 43.8545 53.7109 H 0.0 **** 0.053
126 O3831 56.0747 37.2815 46.4861 O.3 0.0 **** -0.452
127 H3877 50.8971 31.1655 42.7476 H 0.0 **** 0.053
128 H3849 56.7349 40.3082 47.4114 H 0.0 **** 0.053
129 H3892 56.1452 44.1883 47.0479 H 0.0 **** 0.053
130 H3869 45.5617 35.7436 43.5292 H 0.0 **** 0.053
@<TRIPOS>BOND
1 24 21 1
2 81 27 1
3 23 107 2
4 64 51 1
5 91 20 am
6 92 91 am
7 50 92 am
8 111 50 am
9 124 20 am
10 124 111 am
11 35 9 1
12 7 35 am
13 80 7 1
14 92 9 1
15 91 80 1
16 6 65 am
17 113 6 am
18 43 113 am
19 7 65 am
20 35 43 am
21 68 85 am
22 4 68 am
23 96 4 am
24 43 85 am
25 113 96 am
26 64 61 1
27 13 64 1
28 11 13 am
29 4 61 1
30 68 11 am
31 56 51 1
32 81 56 am
33 105 81 1
34 61 105 1
35 115 114 am
36 69 115 am
37 102 69 am
38 11 114 am
39 13 102 am
40 116 23 1
41 54 116 am
42 46 54 1
43 69 23 1
44 115 46 1
45 14 24 1
46 8 14 1
47 100 8 am
48 54 24 1
49 116 100 am
50 95 25 am
51 101 95 am
52 99 101 am
53 100 25 am
54 8 99 am
55 36 121 1
56 3 36 1
57 53 3 1
58 99 121 1
59 101 53 1
60 117 42 1
61 108 117 am
62 95 108 am
63 53 42 1
64 89 98 am
65 22 89 am
66 33 22 am
67 108 98 am
68 117 33 am
69 111 110 1
70 110 77 1
71 124 104 1
72 50 71 1
73 20 112 1
74 65 16 1
75 6 88 1
76 96 126 1
77 81 94 1
78 56 70 1
79 102 62 1
80 114 72 1
81 46 31 2
82 33 122 1
83 22 63 1
84 9 109 1
85 9 5 1
86 80 12 1
87 80 1 1
88 85 58 1
89 51 48 1
90 51 83 1
91 56 119 1
92 105 128 1
93 105 86 1
94 24 2 1
95 14 82 1
96 14 60 1
97 121 125 1
98 121 44 1
99 36 29 1
100 36 87 1
101 3 67 1
102 3 18 1
103 53 49 1
104 42 90 1
105 42 97 1
106 98 106 1
107 89 118 1
108 110 45 1
109 110 28 1
110 77 57 1
111 77 130 1
112 77 32 1
113 104 15 1
114 104 40 1
115 104 37 1
116 71 47 1
117 71 120 1
118 71 30 1
119 112 127 1
120 112 73 1
121 112 34 1
122 16 59 1
123 16 17 1
124 16 39 1
125 88 19 1
126 88 79 1
127 88 75 1
128 126 74 1
129 94 76 1
130 94 10 1
131 94 41 1
132 70 84 1
133 70 66 1
134 70 129 1
135 62 38 1
136 72 123 1
137 122 52 1
138 122 26 1
139 122 103 1
140 63 93 1
141 63 55 1
142 63 78 1
@<TRIPOS>MOLECULE
Sketch 4
250 292
SMALL
USER_CHARGES


@<TRIPOS>ATOM
1 C12929 53.8576 57.2473 24.0795 C.3 0.0 **** -0.106
2 H13082 61.0108 47.7141 24.5368 H 0.0 **** 0.053
3 C13049 80.251 67.5917 14.8507 C.3 0.0 **** -0.086
4 C12938 58.4926 49.9895 25.173 C.2 0.0 **** 0.0
5 C12998 65.4982 64.3532 19.3785 C.2 0.0 **** 0.0
6 H13121 63.5726 65.2047 19.8236 H 0.0 **** 0.1268
7 H13068 52.2218 55.1679 23.4832 H 0.0 **** 0.053
8 N12986 73.3854 58.0782 16.5178 N.3 0.0 **** -0.727
9 H13132 71.0689 63.3663 15.1867 H 0.0 **** 0.053
10 C12964 67.8362 60.7583 19.3085 C.2 0.0 **** 0.0
11 C12949 60.5298 54.2413 22.2607 C.2 0.0 **** -0.012
12 O12910 51.6295 52.8527 20.0715 O.3 0.0 **** -0.32
13 C13050 79.4443 68.8839 14.8817 C.2 0.0 **** 0.347
14 C12952 62.7137 55.6401 21.2846 C.2 0.0 **** -0.012
15 H13137 58.6375 48.1642 18.1409 H 0.0 **** 0.053
16 C12908 51.567 52.693 22.5583 C.3 0.0 **** -0.053
17 C12911 52.8446 53.098 23.3234 C.3 0.0 **** -0.053
18 H13131 71.0226 61.7506 15.89 H 0.0 **** 0.053
19 C12988 62.2059 63.0141 20.5178 C.2 0.0 **** 0.042
20 H13146 78.8821 71.4418 15.2697 H 0.0 **** 0.1268
21 H13143 71.0032 72.9394 17.2885 H 0.0 **** 0.1268
22 C12932 60.55 56.733 21.8339 C.2 0.0 **** 0.0
23 C12909 51.3492 53.5557 21.2881 C.3 0.0 **** 0.054
24 C13029 73.1344 69.7105 16.6957 C.2 0.0 **** 0.0
25 H13118 58.4871 66.4527 19.3266 H 0.0 **** 0.053
26 H13114 58.3227 62.5181 19.0157 H 0.0 **** 0.053
27 C13037 75.9013 69.9281 15.9889 C.2 0.0 **** 0.0
28 C12945 58.8909 50.4706 21.4913 C.3 0.0 **** -0.106
29 C13046 77.453 67.5773 15.6016 C.2 0.0 **** 0.0
30 C12984 74.0753 59.9953 18.0304 C.3 0.0 **** -0.106
31 C12917 53.871 54.8464 24.8959 C.3 0.0 **** -0.053
32 C12972 68.4022 61.9997 18.8414 C.2 0.0 **** 0.0
33 O12975 69.9563 59.5813 19.2626 O.3 0.0 **** -0.202
34 C13020 73.3124 67.2648 16.5655 C.2 0.0 **** 0.0
35 C12996 58.634 65.4444 19.7407 C.3 0.0 **** -0.106
36 O13051 79.964 69.8985 14.4145 O.2 0.0 **** -0.419
37 H13144 72.9712 74.3353 16.8141 H 0.0 **** 0.1268
38 H13103 72.2006 58.4132 19.6476 H 0.0 **** 0.053
39 C12937 58.6494 50.7306 24.0376 C.2 0.0 **** 0.0
40 C12934 56.8361 52.2672 24.777 C.2 0.0 **** 0.0
41 H13089 62.1156 48.4331 22.3194 H 0.0 **** 0.053
42 H13061 54.1358 51.3846 23.7754 H 0.0 **** 0.053
43 C12905 52.8681 52.1408 20.1653 C.3 0.0 **** 0.054
44 C13007 69.2731 66.9306 17.8399 C.2 0.0 **** 0.0265
45 H13091 60.4719 52.1895 22.8182 H 0.0 **** 0.1268
46 C12973 67.6119 63.1859 18.9062 C.2 0.0 **** 0.0
47 C13036 75.1147 71.0969 16.2207 C.2 0.0 **** 0.0
48 H13150 78.1459 65.8453 14.5223 H 0.0 **** 0.053
49 C12961 65.99 57.0345 20.3025 C.2 0.0 **** -0.1268
50 H13053 53.6739 52.8453 20.4532 H 0.0 **** 0.053
51 C12959 65.8578 59.4676 20.0592 C.2 0.0 **** 0.0
52 C12919 54.6058 55.9505 24.2106 C.2 0.0 **** 0.0
53 H13077 58.207 50.7842 27.1427 H 0.0 **** 0.053
54 C12954 64.0309 55.7245 20.9122 C.2 0.0 **** -0.1268
55 C13015 71.6023 62.6858 15.8692 C.3 0.0 **** -0.106
56 H13102 73.61 57.1836 18.3576 H 0.0 **** 0.053
57 H13054 52.6229 50.0188 20.6651 H 0.0 **** 0.053
58 C12918 52.5996 54.3668 24.1356 C.3 0.0 **** -0.106
59 H13148 75.9366 65.3196 15.6186 H 0.0 **** 0.1268
60 C12936 58.603 53.1614 23.3356 C.2 0.0 **** 0.0
61 C12931 59.8233 57.9362 21.8887 C.2 0.0 **** 0.232
62 H13085 59.1559 51.5104 21.2464 H 0.0 **** 0.053
63 C13013 74.0226 63.532 15.8356 C.3 0.0 **** -0.106
64 C12926 56.6081 56.9919 23.2329 C.2 0.0 **** 0.0
65 H13152 79.8485 66.887 16.8525 H 0.0 **** 0.053
66 H13128 74.8206 63.6524 15.0892 H 0.0 **** 0.053
67 C13038 75.2906 68.6475 16.1081 C.2 0.0 **** 0.0
68 C12970 65.6749 61.9005 19.7037 C.2 0.0 **** 0.0
69 C12941 59.204 48.6719 25.3045 C.3 0.0 **** -0.106
70 H13072 55.4725 58.4346 22.1303 H 0.0 **** 0.053
71 C13017 71.1622 68.3202 17.2002 C.2 0.0 **** 0.0
72 H13133 58.1256 50.4555 18.9909 H 0.0 **** 0.053
73 C12968 63.685 60.6146 20.437 C.2 0.0 **** 0.0
74 H13129 73.383 61.4549 15.7678 H 0.0 **** 0.053
75 H13139 59.064 49.4039 16.9298 H 0.0 **** 0.053
76 H13120 60.3387 66.2851 20.8237 H 0.0 **** 0.053
77 O12930 58.5053 57.9706 22.2746 O.3 0.0 **** -0.464
78 C13012 73.2597 64.8346 16.047 C.3 0.0 **** -0.053
79 H13154 81.3022 67.8645 15.0203 H 0.0 **** 0.053
80 C13047 78.2587 66.2995 15.525 C.3 0.0 **** -0.106
81 H13111 60.4843 64.074 22.3317 H 0.0 **** 0.053
82 H13055 53.7207 50.8997 21.7381 H 0.0 **** 0.053
83 H13126 72.6218 64.9948 15.1544 H 0.0 **** 0.053
84 H13099 70.4248 55.0947 18.4782 H 0.0 **** 0.053
85 C13032 71.5949 72.0369 17.1204 C.2 0.0 **** -0.1268
86 H13067 53.4961 55.2738 25.8457 H 0.0 **** 0.053
87 H13119 58.9895 65.8116 21.8645 H 0.0 **** 0.053
88 H13104 72.0792 60.3798 17.3257 H 0.0 **** 0.053
89 C13004 70.2485 63.3119 17.8922 C.2 0.0 **** 0.0
90 C12997 59.5614 65.5196 20.9711 C.3 0.0 **** -0.106
91 S12953 62.0947 54.0119 21.5121 S.2 0.0 **** 0.024
92 H13106 74.5648 59.6188 18.9429 H 0.0 **** 0.053
93 C13000 68.1901 64.4256 18.5135 C.2 0.0 **** 0.0
94 C12995 59.2045 64.4928 18.6831 C.3 0.0 **** -0.106
95 H13057 50.7097 52.8539 23.2333 H 0.0 **** 0.053
96 C12983 72.5637 60.0221 18.2506 C.3 0.0 **** -0.106
97 C13033 73.5766 73.4424 16.6478 C.2 0.0 **** -0.1268
98 H13075 53.3305 57.286 23.1051 H 0.0 **** 0.053
99 H13135 61.1219 50.9655 18.5429 H 0.0 **** 0.053
100 C12965 66.4675 60.7049 19.6949 C.2 0.0 **** 0.0
101 H13084 57.7865 50.4489 21.4758 H 0.0 **** 0.053
102 H13122 65.5245 66.5157 19.053 H 0.0 **** 0.1268
103 C12924 58.5981 55.6023 22.804 C.2 0.0 **** 0.0
104 H13113 60.0676 62.4895 18.7259 H 0.0 **** 0.053
105 C13042 77.0739 72.471 15.7693 C.2 0.0 **** -0.1268
106 C12907 51.6046 51.2079 22.1627 C.3 0.0 **** -0.053
107 H13088 61.3703 48.6666 19.8685 H 0.0 **** 0.053
108 H13100 71.2918 56.5594 16.5042 H 0.0 **** 0.053
109 C12921 56.628 54.587 23.846 C.2 0.0 **** 0.0
110 H13149 77.8511 65.5733 16.2422 H 0.0 **** 0.053
111 C12989 63.5673 63.0689 20.1218 C.2 0.0 **** 0.0
112 C12951 61.8992 56.8225 21.4056 C.2 0.0 **** 0.0
113 C12916 54.7504 53.6411 25.2739 C.3 0.0 **** 0.107
114 H13078 57.0521 49.5596 26.6829 H 0.0 **** 0.053
115 C13043 75.3892 66.2168 15.895 C.2 0.0 **** -0.1268
116 C13048 79.7361 66.5351 15.8139 C.3 0.0 **** -0.106
117 H13140 68.3402 55.9707 21.2084 H 0.0 **** 0.41
118 C12999 64.1639 64.2914 19.7798 C.2 0.0 **** -0.1268
119 O13024 68.6812 55.9369 20.3014 O.3 0.0 **** -0.57
120 H13145 75.3767 74.5255 16.2284 H 0.0 **** 0.1268
121 C12966 61.7046 59.2943 21.147 C.2 0.0 **** 0.0
122 C13026 69.6075 70.6446 17.6291 C.2 0.0 **** -0.1268
123 C12967 60.363 59.1607 21.5606 C.2 0.0 **** -0.1268
124 H13136 60.0564 52.074 19.4341 H 0.0 **** 0.053
125 H13074 55.2406 58.4775 25.1895 H 0.0 **** 0.053
126 C13045 78.0461 68.8321 15.4076 C.2 0.0 **** 0.052
127 C13034 74.903 73.5463 16.3221 C.2 0.0 **** -0.1268
128 C13027 70.9859 70.7854 17.2582 C.2 0.0 **** 0.0
129 C12956 63.8619 58.1723 20.7121 C.2 0.0 **** 0.0
130 C12962 68.0416 58.3432 19.8186 C.2 0.0 **** 0.0
131 C13041 77.8355 71.3447 15.5374 C.2 0.0 **** -0.1268
132 C12960 66.6381 58.2552 20.0582 C.2 0.0 **** 0.0
133 H13063 52.5637 50.3247 25.4164 H 0.0 **** 0.053
134 H13083 61.2214 49.4054 25.0312 H 0.0 **** 0.053
135 H13060 53.6276 53.3113 22.5783 H 0.0 **** 0.053
136 H13116 60.2181 64.8247 18.4136 H 0.0 **** 0.053
137 H13095 70.2776 58.8934 17.3393 H 0.0 **** 0.053
138 H13142 69.0204 71.552 17.7814 H 0.0 **** 0.1268
139 C12982 72.018 58.6226 18.58 C.3 0.0 **** -0.053
140 C12927 55.9103 58.325 23.1406 C.3 0.0 **** -0.106
141 H13079 55.7593 51.6669 26.5092 H 0.0 **** 0.1268
142 C12948 61.0556 48.4977 22.0128 C.3 0.0 **** -0.106
143 H13141 67.9896 69.3283 18.1031 H 0.0 **** 0.1268
144 C12969 62.3067 60.5656 20.8035 C.2 0.0 **** 0.0
145 H13081 58.5577 47.8658 24.9014 H 0.0 **** 0.053
146 C12920 55.9192 55.8403 23.7824 C.2 0.0 **** 0.0
147 C13018 69.7969 68.2176 17.614 C.2 0.0 **** 0.0
148 H13066 55.2138 53.8318 26.2531 H 0.0 **** 0.053
149 H13076 53.0687 57.2946 24.8491 H 0.0 **** 0.053
150 H13109 74.5684 59.6845 15.9135 H 0.0 **** 0.053
151 C12971 64.3093 61.8494 20.0869 C.2 0.0 **** 0.0
152 H13138 60.3394 48.6273 17.8921 H 0.0 **** 0.053
153 C12940 56.6344 51.5125 25.8802 C.2 0.0 **** -0.1268
154 C13016 71.9441 67.1489 16.9915 C.2 0.0 **** 0.0
155 H13127 74.5104 63.2535 16.7852 H 0.0 **** 0.053
156 C12994 59.2631 63.0484 19.2257 C.3 0.0 **** -0.106
157 H13117 57.6376 65.0823 20.0469 H 0.0 **** 0.053
158 C13025 69.0343 69.4159 17.8053 C.2 0.0 **** -0.1268
159 C13039 73.916 68.5352 16.4634 C.2 0.0 **** 0.0
160 O12990 61.5525 64.2239 20.5669 O.3 0.0 **** -0.202
161 C12981 72.7731 57.5428 17.7345 C.3 0.0 **** 0.134
162 H13115 58.5962 64.5201 17.7672 H 0.0 **** 0.053
163 C13028 71.761 69.6008 17.0401 C.2 0.0 **** 0.0
164 C12912 53.3454 51.9758 24.2771 C.3 0.0 **** 0.107
165 C12906 52.7732 50.979 21.1819 C.3 0.0 **** -0.106
166 H13071 56.6424 59.1388 23.2441 H 0.0 **** 0.053
167 H13092 64.6413 54.8222 20.8311 H 0.0 **** 0.1268
168 C12914 51.6866 50.2966 23.4139 C.3 0.0 **** -0.106
169 C12978 69.104 57.2572 19.9564 C.3 0.0 **** 0.107
170 C12987 61.583 61.8103 20.8094 C.2 0.0 **** 0.042
171 C13009 71.6228 63.308 17.2772 C.3 0.0 **** -0.053
172 C12992 59.5149 62.9917 20.7469 C.3 0.0 **** 0.107
173 H13151 80.3039 65.5971 15.7187 H 0.0 **** 0.053
174 H13112 58.5685 62.9105 21.3003 H 0.0 **** 0.053
175 H13059 50.3013 53.8744 21.1971 H 0.0 **** 0.053
176 C12991 60.283 64.2004 21.2549 C.3 0.0 **** 0.107
177 C13044 76.0558 67.4701 15.8839 C.2 0.0 **** 0.0
178 C12933 59.8924 55.5261 22.2753 C.2 0.0 **** 0.0
179 H13093 66.5367 56.1021 20.2014 H 0.0 **** 0.1268
180 H13101 72.512 55.4722 17.1744 H 0.0 **** 0.053
181 C12935 58.0341 52.0547 23.9689 C.2 0.0 **** 0.0
182 H13123 70.2921 61.2181 18.188 H 0.0 **** 0.1268
183 C12928 54.7968 58.4514 24.181 C.3 0.0 **** -0.106
184 C12947 60.9186 49.2471 20.6875 C.3 0.0 **** -0.106
185 O12915 53.8879 52.5121 25.4937 O.3 0.0 **** -0.32
186 O12993 60.24 61.8017 21.1132 O.3 0.0 **** -0.202
187 H13069 51.8067 54.1482 24.8681 H 0.0 **** 0.053
188 H13056 50.6766 50.9858 21.6158 H 0.0 **** 0.053
189 C13040 77.2762 70.0397 15.6254 C.2 0.0 **** 0.0
190 C13002 66.1057 65.594 19.0088 C.2 0.0 **** -0.1268
191 H13080 59.3695 48.44 26.3688 H 0.0 **** 0.053
192 C12944 59.3493 50.1151 22.8868 C.2 0.0 **** 0.0
193 H13073 54.2426 59.3913 24.0362 H 0.0 **** 0.053
194 C13035 75.7032 72.3839 16.1011 C.2 0.0 **** 0.0
195 C13010 72.308 64.6939 17.2499 C.3 0.0 **** -0.053
196 H13098 71.4868 56.0371 19.5273 H 0.0 **** 0.053
197 H13087 61.4653 50.2019 20.754 H 0.0 **** 0.053
198 C12913 52.2123 51.0377 24.6568 C.3 0.0 **** -0.106
199 C12958 64.4721 59.4163 20.4033 C.2 0.0 **** 0.0
200 C12977 69.8711 57.1794 18.6287 C.3 0.0 **** -0.053
201 C13005 69.6941 62.1097 18.2917 C.2 0.0 **** -0.1268
202 C12950 59.9197 53.1284 22.7849 C.2 0.0 **** -0.1268
203 H13058 51.9864 54.4632 21.3404 H 0.0 **** 0.053
204 C12976 70.5055 58.5692 18.372 C.3 0.0 **** 0.107
205 H13070 55.4503 52.9494 23.3531 H 0.0 **** 0.053
206 C12979 70.9249 56.0663 18.578 C.3 0.0 **** -0.106
207 H13134 59.7679 51.7546 17.707 H 0.0 **** 0.053
208 H13130 73.0451 62.3498 14.2822 H 0.0 **** 0.053
209 C13023 59.3078 49.0121 17.9291 C.3 0.0 **** -0.159
210 H13153 80.187 67.2113 13.8144 H 0.0 **** 0.053
211 H13062 51.4095 51.6335 25.1203 H 0.0 **** 0.053
212 C12942 60.5262 48.7029 24.5324 C.3 0.0 **** -0.106
213 C13001 67.4093 65.6198 18.5965 C.2 0.0 **** 0.042
214 H13052 53.0843 51.776 19.1518 H 0.0 **** 0.053
215 C12939 57.5958 50.4368 26.2806 C.3 0.0 **** -0.106
216 C13003 69.5062 64.4918 18.0322 C.2 0.0 **** 0.0
217 H13147 77.5345 73.4586 15.6977 H 0.0 **** 0.1268
218 O13006 67.9609 66.8424 18.2449 O.3 0.0 **** -0.0685
219 C12974 66.2628 63.1405 19.3395 C.2 0.0 **** 0.0
220 C13014 73.0396 62.4245 15.3805 C.3 0.0 **** -0.106
221 H13094 59.7168 60.0224 21.6409 H 0.0 **** 0.1268
222 C13022 60.0775 51.2945 18.6574 C.3 0.0 **** -0.159
223 H13124 72.2546 62.6457 17.8886 H 0.0 **** 0.053
224 C13011 71.3942 65.8902 17.2776 C.2 0.0 **** 0.0
225 H13086 58.8996 48.5737 20.4839 H 0.0 **** 0.053
226 H13110 72.6595 58.4919 15.9313 H 0.0 **** 0.353
227 C12957 62.4916 58.0951 21.0848 C.2 0.0 **** 0.0
228 H13105 72.2837 60.7315 19.0411 H 0.0 **** 0.053
229 C13021 59.1731 50.1026 18.997 C.3 0.0 **** -0.053
230 H13065 52.3442 49.4402 23.1913 H 0.0 **** 0.053
231 C12923 57.9136 54.4547 23.3511 C.2 0.0 **** 0.0
232 C12963 68.5893 59.553 19.4359 C.2 0.0 **** 0.042
233 H13125 72.9384 64.7717 18.1581 H 0.0 **** 0.053
234 C12955 64.6404 56.9767 20.6358 C.2 0.0 **** 0.0
235 H13090 60.7224 47.4485 21.8916 H 0.0 **** 0.053
236 C12943 60.2726 49.1508 23.1139 C.2 0.0 **** 0.0
237 H13107 74.4605 61.0131 17.8589 H 0.0 **** 0.053
238 H13108 75.3669 58.5519 17.0131 H 0.0 **** 0.053
239 H13097 69.8249 57.6104 20.7225 H 0.0 **** 0.053
240 H13064 50.6947 49.8779 23.641 H 0.0 **** 0.053
241 C12946 59.4396 49.5359 20.4073 C.3 0.0 **** -0.053
242 H13096 69.1276 56.9829 17.8398 H 0.0 **** 0.053
243 C12925 57.8936 56.8443 22.7909 C.2 0.0 **** 0.232
244 C13019 74.0496 66.1063 16.1933 C.2 0.0 **** 0.0
245 C12980 71.8814 56.3397 17.4126 C.3 0.0 **** -0.106
246 C12922 55.8933 53.3424 24.2907 C.3 0.0 **** -0.053
247 C13008 70.0653 65.7788 17.6956 C.2 0.0 **** 0.0
248 C13031 72.9516 72.164 16.7816 C.2 0.0 **** 0.0
249 C13030 73.7357 70.9846 16.5673 C.2 0.0 **** 0.0
250 C12985 74.418 59.0808 16.8208 C.3 0.0 **** 0.081
@<TRIPOS>BOND
1 16 17 1
2 123 121 un
3 248 249 1
4 103 178 un
5 178 11 un
6 55 18 1
7 163 24 un
8 29 126 un
9 168 240 1
10 106 165 1
11 16 106 1
12 23 16 1
13 12 23 1
14 43 165 1
15 43 12 1
16 164 17 1
17 198 164 1
18 168 198 1
19 106 168 1
20 113 185 1
21 31 113 1
22 58 31 1
23 164 185 1
24 17 58 1
25 146 52 un
26 109 146 un
27 246 109 un
28 31 52 1
29 113 246 1
30 103 231 1
31 243 103 un
32 64 243 un
33 109 231 un
34 146 64 un
35 183 140 1
36 1 183 1
37 52 1 1
38 64 140 1
39 61 77 1
40 22 61 un
41 178 22 un
42 243 77 1
43 181 40 un
44 60 181 2
45 246 40 1
46 231 60 un
47 4 39 2
48 215 4 1
49 153 215 1
50 181 39 1
51 40 153 2
52 212 69 1
53 236 212 1
54 192 236 2
55 4 69 1
56 39 192 1
57 241 28 1
58 184 241 1
59 142 184 1
60 192 28 1
61 236 142 1
62 202 11 un
63 60 202 un
64 14 112 un
65 91 14 1
66 11 91 un
67 22 112 un
68 234 54 un
69 129 234 un
70 227 129 un
71 14 54 un
72 112 227 un
73 51 199 un
74 132 51 un
75 49 132 un
76 129 199 un
77 234 49 un
78 232 130 un
79 10 232 un
80 100 10 un
81 132 130 un
82 51 100 un
83 61 123 un
84 227 121 un
85 144 73 un
86 121 144 un
87 199 73 un
88 151 68 un
89 73 151 un
90 100 68 un
91 46 32 un
92 219 46 un
93 68 219 un
94 10 32 un
95 204 33 1
96 200 204 1
97 169 200 1
98 232 33 1
99 130 169 1
100 245 206 1
101 161 245 1
102 139 161 1
103 200 206 1
104 204 139 1
105 30 96 1
106 250 30 1
107 8 250 1
108 139 96 1
109 161 8 1
110 19 170 un
111 111 19 un
112 151 111 un
113 144 170 un
114 176 160 1
115 172 176 1
116 186 172 1
117 19 160 1
118 170 186 1
119 94 156 1
120 35 94 1
121 90 35 1
122 172 156 1
123 176 90 1
124 118 5 un
125 111 118 un
126 219 5 un
127 213 93 un
128 190 213 un
129 5 190 un
130 46 93 un
131 89 216 un
132 201 89 un
133 32 201 un
134 93 216 un
135 44 218 1
136 247 44 un
137 213 218 1
138 216 247 1
139 195 171 1
140 224 195 1
141 89 171 1
142 247 224 un
143 63 78 1
144 220 63 1
145 55 220 1
146 195 78 1
147 171 55 1
148 71 154 1
149 147 71 1
150 44 147 un
151 224 154 un
152 78 244 1
153 154 34 un
154 244 34 un
155 241 229 1
156 229 222 1
157 229 209 1
158 169 119 1
159 122 158 1
160 128 122 un
161 163 128 1
162 147 158 un
163 71 163 un
164 249 24 un
165 85 248 un
166 128 85 un
167 127 97 un
168 194 127 1
169 47 194 1
170 248 97 un
171 249 47 un
172 67 27 un
173 159 67 un
174 24 159 un
175 47 27 un
176 131 189 un
177 105 131 un
178 194 105 un
179 27 189 un
180 177 115 un
181 67 177 un
182 34 159 un
183 244 115 un
184 177 29 un
185 189 126 un
186 116 80 1
187 3 116 1
188 13 3 1
189 29 80 1
190 126 13 1
191 13 36 2
192 43 214 1
193 43 50 1
194 165 57 1
195 165 82 1
196 106 188 1
197 16 95 1
198 23 203 1
199 23 175 1
200 17 135 1
201 164 42 1
202 198 211 1
203 198 133 1
204 168 230 1
205 113 148 1
206 31 86 1
207 58 7 1
208 58 187 1
209 246 205 1
210 140 166 1
211 140 70 1
212 183 193 1
213 183 125 1
214 1 98 1
215 1 149 1
216 215 53 1
217 215 114 1
218 153 141 1
219 69 191 1
220 69 145 1
221 212 2 1
222 212 134 1
223 28 101 1
224 28 62 1
225 241 225 1
226 184 197 1
227 184 107 1
228 142 41 1
229 142 235 1
230 202 45 1
231 54 167 1
232 49 179 1
233 123 221 1
234 204 137 1
235 200 242 1
236 169 239 1
237 206 196 1
238 206 84 1
239 245 108 1
240 245 180 1
241 161 56 1
242 139 38 1
243 96 88 1
244 96 228 1
245 30 92 1
246 30 237 1
247 250 238 1
248 250 150 1
249 8 226 1
250 176 81 1
251 172 174 1
252 156 104 1
253 156 26 1
254 94 162 1
255 94 136 1
256 35 157 1
257 35 25 1
258 90 87 1
259 90 76 1
260 118 6 1
261 190 102 1
262 201 182 1
263 171 223 1
264 195 233 1
265 78 83 1
266 63 155 1
267 63 66 1
268 220 74 1
269 220 208 1
270 55 9 1
271 229 72 1
272 222 207 1
273 222 99 1
274 222 124 1
275 209 15 1
276 209 152 1
277 209 75 1
278 119 117 1
279 158 143 1
280 122 138 1
281 85 21 1
282 97 37 1
283 127 120 1
284 131 20 1
285 105 217 1
286 115 59 1
287 80 110 1
288 80 48 1
289 116 173 1
290 116 65 1
291 3 210 1
292 3 79 1
@<TRIPOS>MOLECULE
Sketch 4
250 292
SMALL
USER_CHARGES


@<TRIPOS>ATOM
1 C12295 38.5316 37.9703 -1.05469 C.2 0.0 **** 0.052
2 N12236 30.5267 30.2366 2.78123 N.3 0.0 **** -0.727
3 H12316 34.4181 14.7656 16.5114 H 0.0 **** 0.053
4 H12302 29.5692 18.8319 20.8866 H 0.0 **** 0.053
5 C12235 31.3737 30.8081 1.72322 C.3 0.0 **** 0.081
6 C12292 41.998 39.2264 -0.203984 C.2 0.0 **** -0.1268
7 C12195 28.6486 18.0203 14.6106 C.3 0.0 **** -0.106
8 C12269 37.1904 34.758 2.39524 C.2 0.0 **** 0.0
9 C12244 38.35 26.3251 15.2299 C.3 0.0 **** -0.106
10 H12306 30.4527 15.7172 22.3045 H 0.0 **** 0.053
11 H12312 32.5796 13.4296 20.4387 H 0.0 **** 0.053
12 H12318 34.7129 16.7848 20.2857 H 0.0 **** 0.053
13 C12279 40.6855 35.8998 3.14406 C.2 0.0 **** 0.0
14 C12205 32.9395 23.7264 9.59602 C.2 0.0 **** 0.0
15 H12371 39.8154 28.2241 11.0078 H 0.0 **** 0.1268
16 C12217 35.9446 22.8001 13.342 C.2 0.0 **** -0.1268
17 H12373 34.5272 29.5458 5.17617 H 0.0 **** 0.1268
18 C12155 30.4051 18.1317 20.7526 C.3 0.0 **** 0.054
19 H12327 31.7431 13.4023 13.3452 H 0.0 **** 0.053
20 C12192 28.3265 15.1566 12.0139 C.3 0.0 **** -0.106
21 H12376 35.9584 34.6083 4.07245 H 0.0 **** 0.053
22 C12172 32.9453 16.3092 16.5288 C.3 0.0 **** -0.053
23 C12188 30.0659 14.6793 13.7308 C.2 0.0 **** 0.0
24 C12185 31.3412 16.5602 14.6031 C.2 0.0 **** 0.0
25 C12259 35.6817 31.7385 4.26625 C.3 0.0 **** -0.053
26 C12158 32.2374 16.085 21.1752 C.3 0.0 **** -0.053
27 C12252 39.3587 29.8396 8.90691 C.2 0.0 **** -0.1268
28 H12375 37.1593 32.1606 2.75378 H 0.0 **** 0.053
29 H12342 31.1748 22.4791 9.49435 H 0.0 **** 0.1268
30 C12248 38.5622 28.7309 9.3333 C.2 0.0 **** 0.0
31 C12197 26.886 18.6598 12.9556 C.3 0.0 **** -0.106
32 C12190 32.0134 14.3203 15.2639 C.2 0.0 **** -0.1268
33 C12176 35.4718 19.2248 16.2732 C.2 0.0 **** 0.0
34 H12353 32.5073 27.519 2.84125 H 0.0 **** 0.053
35 H12377 34.9411 32.9748 1.71543 H 0.0 **** 0.053
36 C12297 36.3698 36.6584 -1.33506 C.3 0.0 **** -0.106
37 C12238 38.4757 26.1449 12.0233 C.2 0.0 **** 0.042
38 C12175 34.9286 19.8932 15.2112 C.2 0.0 **** 0.232
39 C12273 25.6127 20.2893 15.4014 C.3 0.0 **** -0.159
40 H12311 31.2872 15.2091 18.3253 H 0.0 **** 0.053
41 H12401 35.5333 36.7598 -3.33609 H 0.0 **** 0.053
42 H12345 32.1165 29.0525 5.43985 H 0.0 **** 0.053
43 C12232 32.2037 28.4338 3.37795 C.3 0.0 **** -0.053
44 C12194 28.94 16.8491 13.7011 C.2 0.0 **** 0.0
45 C12215 35.414 26.9206 8.25562 C.2 0.0 **** 0.0
46 C12283 43.8115 37.9584 2.80421 C.2 0.0 **** -0.1268
47 C12251 38.9765 30.577 7.82063 C.2 0.0 **** 0.042
48 C12178 37.473 18.6528 17.6796 C.3 0.0 **** -0.106
49 C12258 38.2604 32.1825 5.62957 C.2 0.0 **** 0.0
50 C12268 40.3673 33.4013 5.94887 C.2 0.0 **** 0.0
51 C12168 34.2757 15.9652 19.6964 C.3 0.0 **** -0.106
52 C12182 33.9523 21.4075 13.0345 C.2 0.0 **** 0.0
53 H12381 33.7666 31.8932 5.27567 H 0.0 **** 0.053
54 C12222 35.8145 28.8459 6.74543 C.2 0.0 **** 0.0
55 C12189 31.1259 13.7406 14.2066 C.3 0.0 **** -0.106
56 H12370 41.7396 26.9917 13.7289 H 0.0 **** 0.053
57 S12203 31.2061 20.7549 11.6464 S.2 0.0 **** 0.024
58 C12183 33.2275 20.2429 13.4842 C.2 0.0 **** 0.0
59 C12250 37.783 30.2743 7.09496 C.2 0.0 **** 0.0
60 C12164 30.5625 14.2169 20.7344 C.3 0.0 **** -0.106
61 C12157 30.7603 15.6654 21.2499 C.3 0.0 **** -0.053
62 C12170 34.8516 17.9913 16.7168 C.2 0.0 **** 0.0
63 C12214 35.0578 27.6706 7.09976 C.2 0.0 **** 0.0
64 H12396 40.584 39.6522 -1.75253 H 0.0 **** 0.1268
65 H12330 29.1652 13.1914 12.4759 H 0.0 **** 0.053
66 C12223 36.9939 29.1564 7.48604 C.2 0.0 **** 0.0
67 H12320 32.2259 16.7361 17.2568 H 0.0 **** 0.053
68 O12180 35.5552 21.0638 14.8287 O.3 0.0 **** -0.464
69 O12225 33.6849 27.7482 5.10177 O.3 0.0 **** -0.202
70 O12256 39.7749 31.6451 7.44034 O.3 0.0 **** -0.0685
71 C12200 31.3999 18.6263 13.2475 C.2 0.0 **** -0.1268
72 C12212 33.1872 26.0982 6.69495 C.2 0.0 **** 0.0
73 H12399 36.1526 35.5888 -1.20622 H 0.0 **** 0.053
74 O12243 38.0271 24.4607 13.6516 O.3 0.0 **** -0.202
75 C12161 32.7522 16.054 19.7206 C.3 0.0 **** -0.053
76 C12266 38.8065 34.0083 4.12246 C.2 0.0 **** 0.0
77 C12233 33.1662 29.5716 2.99866 C.3 0.0 **** -0.106
78 H12393 44.0928 36.4141 5.00021 H 0.0 **** 0.1268
79 C12234 32.798 30.1894 1.65073 C.3 0.0 **** -0.106
80 H12392 43.4467 34.7192 6.67632 H 0.0 **** 0.1268
81 H12323 38.3019 19.079 18.2652 H 0.0 **** 0.053
82 H12315 29.6128 14.1611 20.1773 H 0.0 **** 0.053
83 H12340 25.9443 16.7174 12.7035 H 0.0 **** 0.053
84 H12397 42.7426 39.9219 -0.597209 H 0.0 **** 0.1268
85 C12219 36.4851 24.7058 11.7923 C.2 0.0 **** 0.0
86 H12313 31.4103 12.8743 19.2316 H 0.0 **** 0.053
87 C12271 27.0878 19.9366 15.184 C.3 0.0 **** -0.053
88 C12289 39.4364 35.7278 2.46854 C.2 0.0 **** 0.0
89 H12387 25.0892 19.4882 15.9466 H 0.0 **** 0.053
90 C12208 34.9587 25.0977 9.87228 C.2 0.0 **** 0.0
91 H12309 32.8025 17.4041 22.8458 H 0.0 **** 0.053
92 H12372 40.2669 30.0956 9.45359 H 0.0 **** 0.1268
93 C12196 27.2346 18.589 14.4465 C.3 0.0 **** -0.053
94 C12177 36.6878 19.7644 16.9824 C.3 0.0 **** -0.106
95 H12343 31.6763 24.204 7.94504 H 0.0 **** 0.1268
96 H12326 37.0697 17.0092 19.0605 H 0.0 **** 0.053
97 H12307 32.8362 15.3634 21.7556 H 0.0 **** 0.053
98 C12218 36.1331 25.4404 10.6205 C.2 0.0 **** 0.0
99 C12264 33.7839 33.2509 3.56151 C.3 0.0 **** -0.106
100 O12240 39.6462 26.521 12.6408 O.3 0.0 **** -0.202
101 C12265 34.4716 32.5567 4.75235 C.3 0.0 **** -0.106
102 H12391 41.8464 33.0255 7.50135 H 0.0 **** 0.1268
103 C12159 32.4055 17.4835 21.824 C.3 0.0 **** 0.054
104 H12351 28.7326 28.1257 3.33864 H 0.0 **** 0.053
105 H12388 25.0998 20.434 14.4372 H 0.0 **** 0.053
106 H12341 30.5187 18.2902 12.7016 H 0.0 **** 0.1268
107 C12242 38.9924 25.1414 14.4769 C.3 0.0 **** 0.107
108 H12365 39.0241 28.0493 16.3749 H 0.0 **** 0.053
109 C12213 33.9602 27.1838 6.32867 C.2 0.0 **** 0.042
110 H12350 29.5415 28.8519 4.73096 H 0.0 **** 0.053
111 H12374 35.3042 31.0984 3.45421 H 0.0 **** 0.053
112 C12275 41.6135 33.6239 6.62078 C.2 0.0 **** -0.1268
113 C12294 37.9006 36.2995 0.634577 C.2 0.0 **** 0.0
114 C12286 41.3397 37.5789 1.46419 C.2 0.0 **** 0.0
115 C12263 34.8022 33.7375 2.50043 C.3 0.0 **** -0.106
116 H12338 25.9203 19.1642 12.7986 H 0.0 **** 0.053
117 C12162 32.1632 14.8652 18.9085 C.3 0.0 **** 0.107
118 H12334 28.7972 17.6907 15.6545 H 0.0 **** 0.053
119 C12231 30.7464 28.7981 2.93656 C.3 0.0 **** 0.134
120 C12204 32.0887 22.6868 10.0556 C.2 0.0 **** -0.1268
121 C12237 37.676 25.1135 12.4912 C.2 0.0 **** 0.042
122 C12210 33.4485 25.4391 7.93273 C.2 0.0 **** 0.0
123 C12221 36.9311 26.5351 10.1717 C.2 0.0 **** 0.0
124 C12216 35.6489 23.6045 12.222 C.2 0.0 **** 0.0
125 H12357 33.5326 30.9583 1.36273 H 0.0 **** 0.053
126 H12319 34.5646 15.0243 20.1908 H 0.0 **** 0.053
127 C12230 29.6952 28.1827 3.8651 C.3 0.0 **** -0.106
128 C12261 37.9453 32.9754 4.52275 C.2 0.0 **** 0.0
129 H12366 39.3408 28.1667 14.6351 H 0.0 **** 0.053
130 O12274 31.2424 24.6827 5.891 O.3 0.0 **** -0.57
131 C12226 32.297 28.1215 4.8705 C.3 0.0 **** 0.107
132 C12296 37.6363 37.001 -0.582521 C.2 0.0 **** 0.0
133 H12325 36.1827 18.4941 19.4047 H 0.0 **** 0.053
134 C12211 32.6155 24.4299 8.4401 C.2 0.0 **** -0.1268
135 C12284 43.5347 38.6721 1.66836 C.2 0.0 **** -0.1268
136 H12394 44.7574 38.0938 3.33176 H 0.0 **** 0.1268
137 C12278 40.9737 35.154 4.31766 C.2 0.0 **** 0.0
138 H12337 27.6551 19.2527 12.4341 H 0.0 **** 0.053
139 H12362 39.338 24.3689 15.1785 H 0.0 **** 0.053
140 C12282 43.1399 36.2711 4.48593 C.2 0.0 **** -0.1268
141 H12329 32.5875 13.6272 15.8766 H 0.0 **** 0.1268
142 C12276 42.4979 34.5596 6.16094 C.2 0.0 **** -0.1268
143 C12285 42.2992 38.503 0.971671 C.2 0.0 **** 0.0
144 H12317 35.7379 15.3093 18.2885 H 0.0 **** 0.053
145 H12359 31.4346 31.8924 1.89876 H 0.0 **** 0.053
146 C12184 32.1024 15.6549 15.4599 C.2 0.0 **** 0.0
147 H12404 36.9955 38.7706 -4.00235 H 0.0 **** 0.053
148 H12390 31.7614 23.8637 5.90518 H 0.0 **** 0.41
149 H12344 36.8288 22.9772 13.9365 H 0.0 **** 0.1268
150 C12272 27.8096 21.0851 14.4673 C.3 0.0 **** -0.159
151 C12191 28.88 14.1199 12.9958 C.3 0.0 **** -0.106
152 O12301 38.6706 39.888 -2.50552 O.2 0.0 **** -0.419
153 H12364 37.9405 25.9449 16.1772 H 0.0 **** 0.053
154 C12209 34.6183 25.8174 8.68597 C.2 0.0 **** 0.0
155 C12267 40.0408 34.1974 4.80623 C.2 0.0 **** 0.0
156 C12174 33.7521 19.4657 14.524 C.2 0.0 **** 0.0
157 H12321 37.3236 20.3117 16.2717 H 0.0 **** 0.053
158 C12166 33.8563 15.3223 17.2759 C.3 0.0 **** 0.107
159 C12199 32.0115 19.7962 12.8688 C.2 0.0 **** -0.012
160 C12247 41.2731 26.2523 14.3979 C.3 0.0 **** -0.106
161 C12227 31.3219 27.0208 5.35801 C.3 0.0 **** -0.053
162 C12156 29.9066 16.6934 20.4789 C.3 0.0 **** -0.106
163 H12360 30.7166 30.7027 3.66933 H 0.0 **** 0.353
164 C12186 31.9015 17.8028 14.3002 C.2 0.0 **** 0.0
165 C12206 34.1306 24.0358 10.3218 C.2 0.0 **** 0.0
166 H12386 28.8586 20.8447 14.2366 H 0.0 **** 0.053
167 H12332 27.399 14.7983 11.5406 H 0.0 **** 0.053
168 H12398 35.937 35.3909 0.802029 H 0.0 **** 0.1268
169 H12304 28.8538 16.5808 20.78 H 0.0 **** 0.053
170 C12241 40.1575 25.572 13.6018 C.3 0.0 **** 0.107
171 H12308 33.1126 18.0912 21.2215 H 0.0 **** 0.053
172 H12379 33.0793 32.5502 3.09167 H 0.0 **** 0.053
173 C12254 36.198 30.8309 5.35102 C.2 0.0 **** 0.0
174 C12280 41.6277 36.8283 2.64236 C.2 0.0 **** 0.0
175 H12383 27.5551 19.8059 16.1771 H 0.0 **** 0.053
176 H12303 31.0237 18.4967 19.9084 H 0.0 **** 0.053
177 C12224 37.3764 28.3784 8.6077 C.2 0.0 **** 0.0
178 H12384 27.7987 21.9938 15.0878 H 0.0 **** 0.053
179 C12193 28.0712 16.4546 12.7401 C.2 0.0 **** 0.0
180 H12378 34.4211 34.6414 2.00437 H 0.0 **** 0.053
181 H12368 41.4578 27.7324 15.9804 H 0.0 **** 0.053
182 C12287 40.0956 37.4112 0.783888 C.2 0.0 **** 0.0
183 H12347 32.7073 25.5312 4.69937 H 0.0 **** 0.053
184 C12167 34.8535 15.9738 18.2506 C.3 0.0 **** -0.053
185 C12298 36.4781 36.9868 -2.8191 C.3 0.0 **** -0.106
186 C12171 33.6889 17.5187 16.0083 C.2 0.0 **** 0.0
187 O12165 33.1246 14.3149 17.9947 O.3 0.0 **** -0.32
188 C12179 36.5342 17.8444 18.5782 C.3 0.0 **** -0.106
189 H12305 29.9555 16.4875 19.3979 H 0.0 **** 0.053
190 C12253 37.4005 31.0918 6.02084 C.2 0.0 **** 0.0
191 H12339 26.7787 17.2869 11.2638 H 0.0 **** 0.053
192 C12198 26.8548 17.2499 12.3658 C.3 0.0 **** -0.106
193 H12324 37.9099 17.9833 16.9211 H 0.0 **** 0.053
194 C12181 35.1315 21.7537 13.7189 C.2 0.0 **** 0.232
195 H12346 30.8911 27.3367 6.32147 H 0.0 **** 0.053
196 C12291 40.7945 39.0728 -0.860048 C.2 0.0 **** -0.1268
197 C12262 36.1482 33.9965 3.16748 C.3 0.0 **** -0.053
198 H12335 29.3858 18.8237 14.461 H 0.0 **** 0.053
199 C12249 38.913 27.9749 10.4517 C.2 0.0 **** -0.1268
200 C12201 33.6103 22.2037 11.9117 C.2 0.0 **** 0.0
201 H12395 44.2593 39.3851 1.27022 H 0.0 **** 0.1268
202 H12349 29.3638 26.2543 4.85456 H 0.0 **** 0.053
203 H12367 40.7563 26.202 16.5138 H 0.0 **** 0.053
204 H12352 30.6037 28.3633 1.93247 H 0.0 **** 0.053
205 H12380 33.1907 34.1032 3.92709 H 0.0 **** 0.053
206 H12322 36.3661 20.5058 17.7382 H 0.0 **** 0.053
207 C12260 36.7555 32.6668 3.65319 C.3 0.0 **** -0.053
208 H12402 37.2629 36.3583 -3.27087 H 0.0 **** 0.053
209 H12354 33.107 30.3553 3.77345 H 0.0 **** 0.053
210 H12385 27.3055 21.3246 13.5183 H 0.0 **** 0.053
211 C12299 36.845 38.4546 -2.96027 C.3 0.0 **** -0.086
212 C12281 42.872 37.0163 3.32637 C.2 0.0 **** 0.0
213 C12228 32.1486 25.7561 5.63134 C.3 0.0 **** 0.107
214 H12400 35.514 37.206 -0.896705 H 0.0 **** 0.053
215 C12288 39.1451 36.4841 1.29749 C.2 0.0 **** 0.0
216 C12300 38.1022 38.8411 -2.19115 C.2 0.0 **** 0.347
217 H12348 30.5128 26.2006 3.51535 H 0.0 **** 0.053
218 C12220 36.575 27.2804 9.01755 C.2 0.0 **** 0.0
219 H12361 40.534 24.6974 13.0456 H 0.0 **** 0.053
220 H12356 32.8344 29.4076 0.875174 H 0.0 **** 0.053
221 H12355 34.2023 29.2069 3.00578 H 0.0 **** 0.053
222 C12202 32.4032 21.9479 11.1674 C.2 0.0 **** -0.012
223 C12246 40.7638 26.9315 15.6858 C.3 0.0 **** -0.106
224 C12277 42.223 35.3441 4.99208 C.2 0.0 **** 0.0
225 C12163 31.7158 13.7439 19.8308 C.3 0.0 **** -0.106
226 C12239 38.1173 26.9012 10.8775 C.2 0.0 **** 0.0
227 C12187 30.1347 16.0196 13.9797 C.2 0.0 **** 0.0
228 C12169 35.3603 17.3069 17.8091 C.2 0.0 **** 0.0
229 H12314 30.4674 13.5241 21.5839 H 0.0 **** 0.053
230 H12369 42.0449 25.5058 14.638 H 0.0 **** 0.053
231 H12333 29.0621 15.3169 11.2022 H 0.0 **** 0.053
232 H12336 26.5269 17.8785 14.9131 H 0.0 **** 0.053
233 C12173 33.1335 18.2376 14.9642 C.2 0.0 **** 0.0
234 C12257 39.4486 32.4107 6.34448 C.2 0.0 **** 0.0265
235 H12328 30.6487 12.8087 14.5678 H 0.0 **** 0.053
236 C12255 35.4408 29.7336 5.71793 C.2 0.0 **** -0.1268
237 C12293 36.9303 35.4568 1.23778 C.2 0.0 **** -0.1268
238 H12389 25.509 21.2227 15.9754 H 0.0 **** 0.053
239 C12245 39.3445 27.4769 15.492 C.3 0.0 **** -0.106
240 H12358 30.8597 30.6696 0.75695 H 0.0 **** 0.053
241 H12331 28.0932 13.8447 13.7274 H 0.0 **** 0.053
242 H12382 34.8149 33.2929 5.49629 H 0.0 **** 0.053
243 C12270 38.4852 34.8217 2.98132 C.2 0.0 **** 0.0
244 C12290 39.7996 38.1739 -0.384686 C.2 0.0 **** 0.0
245 H12363 37.5005 26.688 14.6334 H 0.0 **** 0.053
246 C12229 30.1708 26.8149 4.36596 C.3 0.0 **** -0.106
247 H12310 32.4542 16.9994 19.2398 H 0.0 **** 0.053
248 C12207 34.46 23.2844 11.4834 C.2 0.0 **** 0.0
249 H12403 36.029 39.0814 -2.55521 H 0.0 **** 0.053
250 O12160 31.1702 18.1962 21.9611 O.3 0.0 **** -0.32
@<TRIPOS>BOND
1 61 60 1
2 237 168 1
3 101 53 1
4 39 238 1
5 61 162 1
6 26 61 1
7 103 26 1
8 250 103 1
9 18 162 1
10 18 250 1
11 117 75 1
12 225 117 1
13 60 225 1
14 26 75 1
15 158 187 1
16 184 158 1
17 51 184 1
18 117 187 1
19 75 51 1
20 62 228 un
21 186 62 un
22 22 186 un
23 184 228 1
24 158 22 1
25 156 233 1
26 38 156 un
27 33 38 un
28 186 233 un
29 62 33 un
30 48 94 1
31 188 48 1
32 228 188 1
33 33 94 1
34 194 68 1
35 52 194 un
36 58 52 un
37 38 68 1
38 156 58 un
39 24 146 un
40 164 24 2
41 22 146 1
42 233 164 un
43 23 227 2
44 55 23 1
45 32 55 1
46 24 227 1
47 146 32 2
48 20 151 1
49 179 20 1
50 44 179 2
51 23 151 1
52 227 44 1
53 93 7 1
54 31 93 1
55 192 31 1
56 44 7 1
57 179 192 1
58 71 159 un
59 164 71 un
60 58 159 un
61 222 200 un
62 57 222 1
63 159 57 un
64 52 200 un
65 14 120 un
66 165 14 un
67 248 165 un
68 222 120 un
69 200 248 un
70 154 90 un
71 122 154 un
72 134 122 un
73 165 90 un
74 14 134 un
75 109 72 un
76 63 109 un
77 45 63 un
78 122 72 un
79 154 45 un
80 16 124 un
81 194 16 un
82 248 124 un
83 85 98 un
84 124 85 un
85 90 98 un
86 123 218 un
87 98 123 un
88 45 218 un
89 66 54 un
90 177 66 un
91 218 177 un
92 63 54 un
93 131 69 1
94 161 131 1
95 213 161 1
96 109 69 1
97 72 213 1
98 127 246 1
99 119 127 1
100 43 119 1
101 161 246 1
102 131 43 1
103 79 77 1
104 5 79 1
105 2 5 1
106 43 77 1
107 119 2 1
108 37 121 un
109 226 37 un
110 123 226 un
111 85 121 un
112 170 100 1
113 107 170 1
114 74 107 1
115 37 100 1
116 121 74 1
117 239 9 1
118 223 239 1
119 160 223 1
120 107 9 1
121 170 160 1
122 199 30 un
123 226 199 un
124 177 30 un
125 47 59 un
126 27 47 un
127 30 27 un
128 66 59 un
129 173 190 un
130 236 173 un
131 54 236 un
132 59 190 un
133 234 70 1
134 49 234 un
135 47 70 1
136 190 49 1
137 207 25 1
138 128 207 1
139 173 25 1
140 49 128 un
141 115 197 1
142 99 115 1
143 101 99 1
144 207 197 1
145 25 101 1
146 155 76 1
147 50 155 1
148 234 50 un
149 128 76 un
150 197 8 1
151 76 243 un
152 8 243 un
153 93 87 1
154 87 150 1
155 87 39 1
156 213 130 1
157 142 112 1
158 224 142 un
159 137 224 1
160 50 112 un
161 155 137 un
162 174 13 un
163 212 174 1
164 140 212 un
165 137 13 un
166 224 140 un
167 135 46 un
168 143 135 1
169 114 143 1
170 212 46 un
171 174 114 un
172 215 182 un
173 88 215 un
174 13 88 un
175 114 182 un
176 196 244 un
177 6 196 un
178 143 6 un
179 182 244 un
180 113 237 un
181 215 113 un
182 243 88 un
183 8 237 un
184 132 1 un
185 113 132 un
186 244 1 un
187 185 36 1
188 211 185 1
189 216 211 1
190 132 36 1
191 1 216 1
192 216 152 2
193 18 4 1
194 18 176 1
195 162 169 1
196 162 189 1
197 61 10 1
198 26 97 1
199 103 171 1
200 103 91 1
201 75 247 1
202 117 40 1
203 225 11 1
204 225 86 1
205 60 229 1
206 60 82 1
207 158 3 1
208 184 144 1
209 51 12 1
210 51 126 1
211 22 67 1
212 94 157 1
213 94 206 1
214 48 81 1
215 48 193 1
216 188 133 1
217 188 96 1
218 55 19 1
219 55 235 1
220 32 141 1
221 151 65 1
222 151 241 1
223 20 167 1
224 20 231 1
225 7 118 1
226 7 198 1
227 93 232 1
228 31 138 1
229 31 116 1
230 192 191 1
231 192 83 1
232 71 106 1
233 120 29 1
234 134 95 1
235 16 149 1
236 131 42 1
237 161 195 1
238 213 183 1
239 246 217 1
240 246 202 1
241 127 110 1
242 127 104 1
243 119 204 1
244 43 34 1
245 77 209 1
246 77 221 1
247 79 220 1
248 79 125 1
249 5 240 1
250 5 145 1
251 2 163 1
252 170 219 1
253 107 139 1
254 9 245 1
255 9 153 1
256 239 108 1
257 239 129 1
258 223 203 1
259 223 181 1
260 160 230 1
261 160 56 1
262 199 15 1
263 27 92 1
264 236 17 1
265 25 111 1
266 207 28 1
267 197 21 1
268 115 35 1
269 115 180 1
270 99 172 1
271 99 205 1
272 101 242 1
273 87 175 1
274 150 178 1
275 150 210 1
276 150 166 1
277 39 89 1
278 39 105 1
279 130 148 1
280 112 102 1
281 142 80 1
282 140 78 1
283 46 136 1
284 135 201 1
285 196 64 1
286 6 84 1
287 36 73 1
288 36 214 1
289 185 41 1
290 185 208 1
291 211 249 1
292 211 147 1
@<TRIPOS>MOLECULE
Sketch 4
250 292
SMALL
USER_CHARGES


@<TRIPOS>ATOM
1 O24725 53.9044 49.0466 60.1808 O.3 0.0 **** -0.202
2 H24819 40.5416 55.6313 47.2028 H 0.0 **** 0.053
3 C24710 51.4463 49.9009 57.6059 C.2 0.0 **** 0.0
4 C24739 53.092 55.2101 56.2984 C.2 0.0 **** 0.0
5 H24904 65.5758 48.5124 69.0595 H 0.0 **** 0.053
6 C24733 55.7882 47.7541 61.8534 C.3 0.0 **** -0.106
7 C24704 48.5011 49.4824 55.3517 C.2 0.0 **** -0.1268
8 C24706 49.9785 51.4223 55.6894 C.2 0.0 **** 0.0
9 H24882 59.4895 49.9596 59.7941 H 0.0 **** 0.053
10 C24797 63.2939 48.9354 66.494 C.3 0.0 **** -0.106
11 C24783 64.9181 57.2628 65.0042 C.2 0.0 **** -0.1268
12 C24776 61.2709 57.3385 61.6522 C.2 0.0 **** -0.1268
13 C24696 43.8513 46.6175 49.8921 C.3 0.0 **** -0.053
14 H24837 44.6429 46.2972 51.8765 H 0.0 **** 0.053
15 C24731 54.8467 45.499 61.1565 C.3 0.0 **** 0.134
16 C24738 52.3073 55.9734 55.3956 C.2 0.0 **** 0.042
17 O24740 52.7355 57.2631 55.1806 O.3 0.0 **** -0.202
18 C24667 41.6048 55.1972 49.0551 C.3 0.0 **** -0.053
19 C24758 58.6246 53.2983 60.9016 C.2 0.0 **** 0.0
20 C24655 43.3099 51.7554 45.0611 C.3 0.0 **** 0.054
21 C24700 44.2477 50.123 52.4108 C.2 0.0 **** -0.1268
22 C24695 43.3783 48.0306 50.2518 C.3 0.0 **** -0.106
23 C24666 40.9325 53.9634 49.6833 C.3 0.0 **** 0.107
24 C24734 56.4442 46.9202 62.9527 C.3 0.0 **** -0.106
25 H24883 45.0004 47.4429 48.2868 H 0.0 **** 0.053
26 H24813 38.2207 52.4523 47.2008 H 0.0 **** 0.053
27 C24773 45.3809 45.3306 48.3309 C.3 0.0 **** -0.159
28 H24871 54.5255 56.7823 56.6504 H 0.0 **** 0.1268
29 H24834 43.0087 48.5405 49.3442 H 0.0 **** 0.053
30 H24816 40.4564 54.2606 50.6293 H 0.0 **** 0.053
31 H24849 52.1178 44.9792 59.0724 H 0.0 **** 0.053
32 H24838 44.4118 44.7953 50.9594 H 0.0 **** 0.053
33 H24855 55.499 48.7486 62.2196 H 0.0 **** 0.053
34 C24745 53.5241 57.8966 52.3327 C.3 0.0 **** -0.106
35 C24765 58.7685 49.4225 60.4305 C.3 0.0 **** -0.106
36 H24865 54.0273 57.8655 51.3551 H 0.0 **** 0.053
37 H24899 62.2064 48.8294 66.3763 H 0.0 **** 0.053
38 H24868 53.9063 60.0346 52.5632 H 0.0 **** 0.053
39 H24869 51.7973 60.2449 54.1794 H 0.0 **** 0.053
40 C24705 49.6207 50.0731 55.9945 C.2 0.0 **** 0.0
41 C24786 64.4291 54.5059 65.4626 C.2 0.0 **** 0.0
42 O24801 66.7349 50.5362 68.1345 O.2 0.0 **** -0.419
43 H24850 54.7243 44.9719 59.0632 H 0.0 **** 0.053
44 C24719 50.7421 54.0983 55.0484 C.2 0.0 **** 0.0
45 H24859 58.0303 45.6366 62.142 H 0.0 **** 0.053
46 H24806 40.8308 52.4487 43.7907 H 0.0 **** 0.053
47 H24841 43.8767 49.1273 52.6525 H 0.0 **** 0.1268
48 H24842 48.2563 48.4442 55.5878 H 0.0 **** 0.1268
49 C24656 41.8549 51.2676 45.2537 C.3 0.0 **** -0.106
50 H24890 49.8565 47.7092 59.0581 H 0.0 **** 0.41
51 C24675 45.6658 54.0389 51.6572 C.2 0.0 **** 0.232
52 H24823 44.9454 58.2839 49.9751 H 0.0 **** 0.053
53 C24784 65.6658 56.5817 65.928 C.2 0.0 **** -0.1268
54 H24847 51.6456 48.1047 60.3892 H 0.0 **** 0.053
55 C24777 62.0908 56.6444 62.6026 C.2 0.0 **** 0.0
56 C24724 54.6232 53.6701 58.0779 C.2 0.0 **** 0.0
57 H24864 51.8629 56.8877 51.3277 H 0.0 **** 0.053
58 C24661 41.4604 53.7168 46.9645 C.3 0.0 **** -0.053
59 H24805 41.7071 50.9579 46.3004 H 0.0 **** 0.053
60 C24659 42.7548 54.0307 44.7704 C.3 0.0 **** 0.054
61 H24858 56.8276 44.772 63.1093 H 0.0 **** 0.053
62 C24674 45.1895 52.7226 51.9393 C.2 0.0 **** 0.0
63 C24658 41.3819 53.7241 45.4232 C.3 0.0 **** -0.053
64 C24701 48.0369 51.5651 54.1516 C.2 0.0 **** 0.0
65 C24780 63.6434 55.2137 64.5054 C.2 0.0 **** 0.0
66 C24681 47.6081 53.6293 52.995 C.2 0.0 **** 0.232
67 C24718 51.5068 53.3333 55.9793 C.2 0.0 **** 0.0
68 H24892 61.4725 58.3963 61.4743 H 0.0 **** 0.1268
69 C24711 50.3557 49.3415 56.922 C.2 0.0 **** -0.1268
70 H24897 66.9665 55.0065 67.7026 H 0.0 **** 0.1268
71 C24747 52.4974 59.4005 54.0936 C.3 0.0 **** -0.106
72 H24880 60.258 47.8609 60.667 H 0.0 **** 0.053
73 C24796 63.6889 50.3627 66.1867 C.2 0.0 **** 0.0
74 H24809 42.6533 54.7538 43.949 H 0.0 **** 0.053
75 C24728 51.7831 47.8839 59.3104 C.3 0.0 **** 0.107
76 C24677 45.5759 56.2981 50.5912 C.3 0.0 **** -0.106
77 C24716 49.5635 53.5142 54.443 C.2 0.0 **** 0.0
78 C24688 40.1959 49.2343 51.7907 C.2 0.0 **** 0.0
79 C24791 65.9937 53.1305 67.3576 C.2 0.0 **** -0.1268
80 C24742 51.2227 57.341 53.3346 C.3 0.0 **** 0.107
81 C24735 56.9545 45.5751 62.3636 C.3 0.0 **** 0.081
82 H24857 57.2773 47.4737 63.4146 H 0.0 **** 0.053
83 O24756 58.108 55.3618 59.7455 O.3 0.0 **** -0.0685
84 H24840 41.9808 44.9103 51.2309 H 0.0 **** 0.053
85 H24833 40.8847 47.4024 53.785 H 0.0 **** 0.053
86 H24860 56.7054 45.6222 60.3226 H 0.0 **** 0.353
87 H24844 48.9381 55.2354 53.2718 H 0.0 **** 0.1268
88 C24708 51.1183 51.994 56.3135 C.2 0.0 **** 0.0
89 C24770 61.4016 52.4782 63.2774 C.2 0.0 **** 0.0
90 H24902 63.1556 49.1342 68.6333 H 0.0 **** 0.053
91 C24748 55.0235 55.012 57.7681 C.2 0.0 **** 0.0
92 H24861 50.9625 58.3272 55.2272 H 0.0 **** 0.053
93 C24760 59.0972 51.1904 62.2202 C.3 0.0 **** -0.053
94 C24761 59.4469 52.5871 61.7796 C.2 0.0 **** 0.0
95 C24692 40.6317 46.9943 52.7875 C.3 0.0 **** -0.106
96 H24852 54.4533 45.047 62.0831 H 0.0 **** 0.053
97 C24766 60.5576 53.208 62.3706 C.2 0.0 **** 0.0
98 C24670 43.6908 54.5733 50.3521 C.2 0.0 **** 0.0
99 C24795 64.7424 50.9946 66.8612 C.2 0.0 **** 0.052
100 C24712 52.1457 49.2025 58.6345 C.2 0.0 **** 0.0
101 O24743 50.5163 56.1892 53.8353 O.3 0.0 **** -0.202
102 C24767 60.8007 54.5896 62.128 C.2 0.0 **** 0.0
103 H24830 38.7113 48.0388 52.774 H 0.0 **** 0.053
104 O24680 46.896 54.4384 52.1432 O.3 0.0 **** -0.464
105 H24903 65.7439 48.0786 67.354 H 0.0 **** 0.053
106 C24722 55.0693 51.5481 59.2714 C.2 0.0 **** 0.0
107 C24679 43.5728 56.792 49.1769 C.3 0.0 **** -0.106
108 H24846 53.2329 46.8557 58.1285 H 0.0 **** 0.053
109 C24754 57.1437 51.3351 60.5688 C.2 0.0 **** 0.0
110 H24845 55.0741 47.6211 59.2452 H 0.0 **** 0.053
111 H24886 46.2256 47.9574 50.4727 H 0.0 **** 0.053
112 H24851 54.0121 43.7774 60.1522 H 0.0 **** 0.053
113 C24800 65.6355 50.162 67.7233 C.2 0.0 **** 0.347
114 C24721 52.6772 53.8753 56.5904 C.2 0.0 **** 0.0
115 H24812 38.7979 53.9314 46.4187 H 0.0 **** 0.053
116 C24751 56.9676 54.795 59.1969 C.2 0.0 **** 0.042
117 C24720 53.4514 53.1119 57.5026 C.2 0.0 **** 0.0
118 H24863 52.6483 55.9136 52.5781 H 0.0 **** 0.053
119 H24802 43.9406 50.9798 44.6055 H 0.0 **** 0.053
120 C24764 59.4698 48.3377 61.2697 C.3 0.0 **** -0.106
121 H24894 65.0949 58.3233 64.8157 H 0.0 **** 0.1268
122 C24682 47.2125 52.3073 53.2678 C.2 0.0 **** 0.0
123 C24691 39.5899 47.8996 52.1239 C.3 0.0 **** -0.106
124 H24885 46.6277 46.2306 50.5935 H 0.0 **** 0.053
125 C24729 52.7586 45.5433 59.7618 C.3 0.0 **** -0.106
126 O24774 50.6357 47.1751 58.8393 O.3 0.0 **** -0.57
127 H24867 52.3047 59.634 51.9361 H 0.0 **** 0.053
128 C24713 53.3009 49.7494 59.1603 C.2 0.0 **** 0.042
129 C24799 65.1984 48.74 68.0524 C.3 0.0 **** -0.086
130 C24763 60.0806 48.9104 62.5731 C.3 0.0 **** -0.106
131 C24771 45.1464 46.6608 49.0542 C.3 0.0 **** -0.053
132 H24884 47.2517 47.1914 49.2363 H 0.0 **** 0.053
133 H24828 38.3326 50.1605 51.3325 H 0.0 **** 0.053
134 H24818 42.3012 55.7131 47.0381 H 0.0 **** 0.053
135 H24873 55.752 49.7716 60.2651 H 0.0 **** 0.1268
136 H24891 59.629 57.2585 60.2837 H 0.0 **** 0.1268
137 H24893 63.2908 58.3494 63.1449 H 0.0 **** 0.1268
138 S24703 46.4339 49.2903 53.6988 S.2 0.0 **** 0.024
139 C24707 49.1958 52.1634 54.7617 C.2 0.0 **** 0.0
140 C24690 39.902 51.6016 51.0279 C.2 0.0 **** -0.1268
141 C24750 56.6164 53.4432 59.5006 C.2 0.0 **** 0.0
142 C24672 41.8873 52.8043 50.01 C.3 0.0 **** -0.053
143 C24699 45.4759 50.5097 52.8882 C.2 0.0 **** -0.012
144 C24662 40.2742 52.9489 47.6149 C.3 0.0 **** 0.107
145 C24727 52.9971 46.9503 59.2005 C.3 0.0 **** -0.053
146 H24817 41.0046 56.0748 49.3628 H 0.0 **** 0.053
147 H24832 40.2316 45.9808 52.9471 H 0.0 **** 0.053
148 H24887 44.5181 45.0642 47.7002 H 0.0 **** 0.053
149 H24878 60.9784 48.3383 62.8473 H 0.0 **** 0.053
150 C24684 41.2281 51.6836 50.7786 C.2 0.0 **** 0.0
151 H24826 42.7553 57.501 48.9625 H 0.0 **** 0.053
152 H24870 53.3008 59.5745 54.8258 H 0.0 **** 0.053
153 H24807 40.6771 54.5201 45.1297 H 0.0 **** 0.053
154 C24732 54.5666 47.0362 61.2557 C.3 0.0 **** -0.053
155 C24673 43.8997 52.3529 51.4059 C.2 0.0 **** 0.0
156 C24694 42.2778 48.0559 51.2873 C.2 0.0 **** 0.0
157 C24746 53.0732 59.3235 52.6646 C.3 0.0 **** -0.106
158 H24856 55.7067 46.7315 63.7492 H 0.0 **** 0.053
159 C24689 39.3133 50.4391 51.7653 C.3 0.0 **** -0.106
160 C24753 57.4567 52.6785 60.3236 C.2 0.0 **** 0.0
161 C24744 52.3183 56.9322 52.3279 C.3 0.0 **** -0.106
162 H24888 45.5361 44.5148 49.0548 H 0.0 **** 0.053
163 C24668 41.4826 55.1445 47.5037 C.3 0.0 **** -0.106
164 C24683 45.9778 51.8379 52.6853 C.2 0.0 **** 0.0
165 C24798 63.7027 48.5178 67.9013 C.3 0.0 **** -0.106
166 H24821 46.2022 56.6269 51.433 H 0.0 **** 0.053
167 C24663 39.0791 52.898 46.6782 C.3 0.0 **** -0.106
168 H24862 50.4431 57.9426 52.8461 H 0.0 **** 0.053
169 C24789 62.3981 53.1521 64.0133 C.2 0.0 **** 0.0
170 H24881 58.0307 48.9712 59.7499 H 0.0 **** 0.053
171 H24874 57.4403 49.8394 62.0327 H 0.0 **** 0.053
172 C24698 42.5935 45.6243 51.8152 C.3 0.0 **** -0.106
173 H24843 50.0878 48.3028 57.0887 H 0.0 **** 0.1268
174 C24793 62.0093 50.3946 64.3498 C.2 0.0 **** -0.1268
175 C24741 51.7791 58.1173 54.5164 C.3 0.0 **** 0.107
176 C24768 59.9743 55.3239 61.2204 C.2 0.0 **** 0.0
177 H24866 54.2536 57.5679 53.0875 H 0.0 **** 0.053
178 C24769 61.2742 51.0665 63.399 C.2 0.0 **** 0.0
179 N24736 56.2717 45.1668 61.1266 N.3 0.0 **** -0.727
180 C24781 63.8861 56.6049 64.266 C.2 0.0 **** 0.0
181 H24820 42.2246 52.3532 49.0547 H 0.0 **** 0.053
182 C24759 58.0646 50.4364 61.3506 C.3 0.0 **** -0.053
183 C24737 51.1991 55.4331 54.7616 C.2 0.0 **** 0.042
184 O24660 43.3691 52.8802 44.1773 O.3 0.0 **** -0.32
185 H24804 41.652 50.3861 44.6263 H 0.0 **** 0.053
186 C24790 65.0031 52.4025 66.6418 C.2 0.0 **** 0.0
187 C24749 54.24 55.7588 56.8885 C.2 0.0 **** -0.1268
188 C24678 44.4904 57.3285 50.2781 C.3 0.0 **** -0.106
189 C24762 60.4022 50.3876 62.3786 C.3 0.0 **** -0.053
190 C24775 60.2523 56.711 60.9905 C.2 0.0 **** -0.1268
191 C24686 43.411 50.9926 51.6482 C.2 0.0 **** 0.0
192 C24669 42.9911 55.456 49.5447 C.2 0.0 **** 0.0
193 C24693 41.8702 46.9343 51.9274 C.2 0.0 **** 0.0
194 H24827 39.0635 50.7445 52.8055 H 0.0 **** 0.053
195 C24671 43.1716 53.265 50.6621 C.2 0.0 **** 0.0
196 H24895 66.448 57.0913 66.494 H 0.0 **** 0.1268
197 H24815 39.3262 51.0183 45.6188 H 0.0 **** 0.053
198 C24723 55.4266 52.8912 58.9484 C.2 0.0 **** 0.0
199 C24785 65.4431 55.1936 66.181 C.2 0.0 **** 0.0
200 H24803 43.76 52.032 46.0356 H 0.0 **** 0.053
201 H24875 58.6666 51.291 63.2365 H 0.0 **** 0.053
202 H24872 56.4996 56.5849 58.1289 H 0.0 **** 0.1268
203 C24792 66.2006 54.4756 67.1333 C.2 0.0 **** -0.1268
204 H24811 40.5828 51.9108 47.845 H 0.0 **** 0.053
205 H24877 59.3699 48.8138 63.4114 H 0.0 **** 0.053
206 C24755 55.9778 50.8039 60.0486 C.2 0.0 **** -0.1268
207 C24685 42.1179 50.6321 51.2644 C.2 0.0 **** 0.0
208 H24901 63.4344 47.4667 68.0869 H 0.0 **** 0.053
209 H24896 66.6002 52.6009 68.0845 H 0.0 **** 0.1268
210 C24664 39.4224 52.0964 45.4094 C.3 0.0 **** -0.106
211 O24665 39.8406 53.5707 48.8345 O.3 0.0 **** -0.32
212 H24824 43.8926 57.5162 51.1847 H 0.0 **** 0.053
213 H24825 44.1536 56.7086 48.2365 H 0.0 **** 0.053
214 C24752 56.2065 55.5595 58.3566 C.2 0.0 **** -0.1268
215 C24787 64.2064 53.1152 65.6972 C.2 0.0 **** 0.0
216 H24829 39.2223 52.3837 50.6937 H 0.0 **** 0.1268
217 C24715 53.0474 51.7814 57.8553 C.2 0.0 **** 0.0
218 C24794 62.9485 51.059 65.1815 C.2 0.0 **** 0.0
219 C24709 51.8697 51.2357 57.263 C.2 0.0 **** 0.0
220 C24782 63.1054 57.2873 63.3192 C.2 0.0 **** -0.1268
221 C24657 40.8539 52.383 44.8883 C.3 0.0 **** -0.053
222 C24726 54.188 47.6453 59.9068 C.3 0.0 **** 0.107
223 H24879 58.7445 47.5523 61.5251 H 0.0 **** 0.053
224 H24835 44.2391 48.6317 50.5821 H 0.0 **** 0.053
225 C24714 53.8264 51.017 58.7687 C.2 0.0 **** 0.0
226 C24676 44.9862 54.9429 50.8888 C.2 0.0 **** 0.0
227 H24876 60.9529 50.4847 61.4213 H 0.0 **** 0.053
228 H24831 39.2227 47.4223 51.1927 H 0.0 **** 0.053
229 H24836 43.0694 46.1468 49.2672 H 0.0 **** 0.053
230 H24839 42.6798 45.1776 52.8225 H 0.0 **** 0.053
231 H24822 46.2537 56.214 49.7207 H 0.0 **** 0.053
232 C24697 43.9709 45.7815 51.1712 C.3 0.0 **** -0.106
233 H24853 53.7039 47.1862 61.9267 H 0.0 **** 0.053
234 C24772 46.3782 47.0378 49.8876 C.3 0.0 **** -0.159
235 C24702 47.7323 50.192 54.4649 C.2 0.0 **** -0.012
236 C24687 41.5236 49.315 51.4846 C.2 0.0 **** 0.0
237 H24808 43.441 54.46 45.5301 H 0.0 **** 0.053
238 H24854 56.5261 47.921 61.0499 H 0.0 **** 0.053
239 C24779 62.6258 54.5457 63.7846 C.2 0.0 **** 0.0
240 H24848 52.2136 45.6078 60.7192 H 0.0 **** 0.053
241 H24814 38.6831 52.3301 44.6287 H 0.0 **** 0.053
242 C24717 48.7277 54.2124 53.547 C.2 0.0 **** -0.1268
243 C24778 61.8451 55.252 62.8315 C.2 0.0 **** 0.0
244 C24730 54.1118 44.8572 59.9759 C.3 0.0 **** -0.106
245 C24757 58.9018 54.6452 60.6115 C.2 0.0 **** 0.0265
246 H24810 42.4047 53.2258 47.2493 H 0.0 **** 0.053
247 C24788 63.1889 52.4433 64.9622 C.2 0.0 **** 0.0
248 H24898 61.8938 49.3171 64.4313 H 0.0 **** 0.1268
249 H24889 46.2747 45.38 47.6905 H 0.0 **** 0.053
250 H24900 63.756 48.252 65.7567 H 0.0 **** 0.053
@<TRIPOS>BOND
1 16 17 1
2 60 63 1
3 219 217 un
4 247 218 un
5 221 210 1
6 11 121 1
7 221 49 1
8 63 221 1
9 184 60 1
10 20 49 1
11 20 184 1
12 144 58 1
13 167 144 1
14 210 167 1
15 63 58 1
16 23 211 1
17 18 23 1
18 163 18 1
19 144 211 1
20 58 163 1
21 98 192 un
22 195 98 un
23 142 195 un
24 18 192 1
25 23 142 1
26 62 155 1
27 51 62 un
28 226 51 un
29 195 155 un
30 98 226 un
31 188 76 1
32 107 188 1
33 192 107 1
34 226 76 1
35 66 104 1
36 122 66 un
37 164 122 un
38 51 104 1
39 62 164 un
40 207 150 un
41 191 207 2
42 142 150 1
43 155 191 un
44 78 236 2
45 159 78 1
46 140 159 1
47 207 236 1
48 150 140 2
49 95 123 1
50 193 95 1
51 156 193 2
52 78 123 1
53 236 156 1
54 13 22 1
55 232 13 1
56 172 232 1
57 156 22 1
58 193 172 1
59 21 143 un
60 191 21 un
61 164 143 un
62 235 64 un
63 138 235 1
64 143 138 un
65 122 64 un
66 40 7 un
67 8 40 un
68 139 8 un
69 235 7 un
70 64 139 un
71 219 88 un
72 3 219 un
73 69 3 un
74 8 88 un
75 40 69 un
76 128 100 un
77 225 128 un
78 217 225 un
79 3 100 un
80 242 77 un
81 66 242 un
82 139 77 un
83 44 67 un
84 77 44 un
85 88 67 un
86 114 117 un
87 67 114 un
88 217 117 un
89 198 106 un
90 56 198 un
91 117 56 un
92 225 106 un
93 222 1 1
94 145 222 1
95 75 145 1
96 128 1 1
97 100 75 1
98 244 125 1
99 15 244 1
100 154 15 1
101 145 125 1
102 222 154 1
103 24 6 1
104 81 24 1
105 179 81 1
106 154 6 1
107 15 179 1
108 16 183 un
109 4 16 un
110 114 4 un
111 44 183 un
112 175 17 1
113 80 175 1
114 101 80 1
115 183 101 1
116 34 161 1
117 157 34 1
118 71 157 1
119 80 161 1
120 175 71 1
121 187 91 un
122 4 187 un
123 56 91 un
124 116 141 un
125 214 116 un
126 91 214 un
127 198 141 un
128 109 160 un
129 206 109 un
130 106 206 un
131 141 160 un
132 245 83 1
133 19 245 un
134 116 83 1
135 160 19 1
136 93 182 1
137 94 93 1
138 109 182 1
139 19 94 un
140 130 189 1
141 120 130 1
142 35 120 1
143 93 189 1
144 182 35 1
145 102 97 1
146 176 102 1
147 245 176 un
148 94 97 un
149 189 178 1
150 97 89 un
151 178 89 un
152 13 131 1
153 131 234 1
154 131 27 1
155 75 126 1
156 12 190 1
157 55 12 un
158 243 55 1
159 176 190 un
160 102 243 un
161 65 239 un
162 180 65 1
163 220 180 un
164 243 239 un
165 55 220 un
166 53 11 un
167 199 53 1
168 41 199 1
169 180 11 un
170 65 41 un
171 247 215 un
172 169 247 un
173 239 169 un
174 41 215 un
175 79 186 un
176 203 79 un
177 199 203 un
178 215 186 un
179 218 174 un
180 89 169 un
181 178 174 un
182 73 99 un
183 218 73 un
184 186 99 un
185 165 10 1
186 129 165 1
187 113 129 1
188 73 10 1
189 99 113 1
190 113 42 2
191 20 119 1
192 20 200 1
193 49 185 1
194 49 59 1
195 221 46 1
196 63 153 1
197 60 237 1
198 60 74 1
199 58 246 1
200 144 204 1
201 167 115 1
202 167 26 1
203 210 241 1
204 210 197 1
205 23 30 1
206 18 146 1
207 163 134 1
208 163 2 1
209 142 181 1
210 76 166 1
211 76 231 1
212 188 52 1
213 188 212 1
214 107 213 1
215 107 151 1
216 159 194 1
217 159 133 1
218 140 216 1
219 123 103 1
220 123 228 1
221 95 147 1
222 95 85 1
223 22 29 1
224 22 224 1
225 13 229 1
226 232 14 1
227 232 32 1
228 172 230 1
229 172 84 1
230 21 47 1
231 7 48 1
232 69 173 1
233 242 87 1
234 222 110 1
235 145 108 1
236 75 54 1
237 125 240 1
238 125 31 1
239 244 43 1
240 244 112 1
241 15 96 1
242 154 233 1
243 6 238 1
244 6 33 1
245 24 158 1
246 24 82 1
247 81 61 1
248 81 45 1
249 179 86 1
250 175 92 1
251 80 168 1
252 161 118 1
253 161 57 1
254 34 36 1
255 34 177 1
256 157 127 1
257 157 38 1
258 71 39 1
259 71 152 1
260 187 28 1
261 214 202 1
262 206 135 1
263 182 171 1
264 93 201 1
265 189 227 1
266 130 205 1
267 130 149 1
268 120 223 1
269 120 72 1
270 35 170 1
271 35 9 1
272 131 25 1
273 234 132 1
274 234 124 1
275 234 111 1
276 27 148 1
277 27 162 1
278 27 249 1
279 126 50 1
280 190 136 1
281 12 68 1
282 220 137 1
283 53 196 1
284 79 209 1
285 203 70 1
286 174 248 1
287 10 37 1
288 10 250 1
289 165 208 1
290 165 90 1
291 129 105 1
292 129 5 1
@<TRIPOS>MOLECULE
Sketch 4
250 292
SMALL
USER_CHARGES


@<TRIPOS>ATOM
1 H21340 42.3195 9.70669 32.0004 H 0.0 **** 0.053
2 H21346 52.7454 8.59633 40.2489 H 0.0 **** 0.053
3 C21192 40.8075 11.1443 34.0579 C.3 0.0 **** -0.106
4 C21193 42.1329 11.3482 33.366 C.2 0.0 **** 0.0
5 C21220 53.0314 14.6458 41.9521 C.2 0.0 **** 0.0
6 C21202 47.6807 13.2415 37.4957 C.2 0.0 **** -0.012
7 H21308 44.3972 20.6007 30.3178 H 0.0 **** 0.053
8 O21256 57.4132 15.7532 45.321 O.3 0.0 **** -0.0685
9 C21214 53.265 12.2229 42.4069 C.2 0.0 **** 0.0
10 H21386 46.6219 12.6517 32.8339 H 0.0 **** 0.053
11 C21230 53.4161 6.03439 41.3288 C.3 0.0 **** -0.106
12 H21330 38.9002 12.1993 34.2261 H 0.0 **** 0.053
13 O21180 47.1046 18.068 36.7928 O.3 0.0 **** -0.464
14 H21394 63.8006 16.4159 51.806 H 0.0 **** 0.1268
15 H21325 44.8081 21.697 33.7116 H 0.0 **** 0.053
16 C21219 50.6082 16.5546 39.7565 C.2 0.0 **** 0.0
17 H21349 51.5334 6.55182 40.3312 H 0.0 **** 0.053
18 C21286 63.0678 12.6506 50.9578 C.2 0.0 **** 0.0
19 H21377 58.2647 8.28084 46.4814 H 0.0 **** 0.053
20 C21189 39.6094 14.7758 34.2204 C.3 0.0 **** -0.106
21 H21381 57.336 9.79594 43.0077 H 0.0 **** 0.053
22 H21360 55.9558 6.52021 42.1924 H 0.0 **** 0.353
23 H21303 44.6588 18.1426 29.9415 H 0.0 **** 0.053
24 C21185 42.452 15.0243 34.1133 C.2 0.0 **** 0.0
25 H21379 57.8504 7.80694 44.2132 H 0.0 **** 0.053
26 C21239 52.8064 17.0491 41.5575 C.2 0.0 **** 0.0
27 C21241 51.6973 20.452 40.8221 C.3 0.0 **** 0.107
28 H21387 45.2294 11.0176 29.0439 H 0.0 **** 0.053
29 H21369 51.7524 22.5561 41.2805 H 0.0 **** 0.053
30 H21339 42.8394 9.35649 33.6437 H 0.0 **** 0.053
31 H21347 50.9193 9.0119 42.6328 H 0.0 **** 0.053
32 C21291 64.4147 10.6253 52.3773 C.2 0.0 **** -0.1268
33 H21359 57.0728 5.82747 44.0195 H 0.0 **** 0.053
34 H21389 46.9764 11.2459 29.329 H 0.0 **** 0.053
35 H21382 58.7812 10.6437 43.5553 H 0.0 **** 0.053
36 H21367 52.5033 22.7722 39.0327 H 0.0 **** 0.053
37 C21200 44.443 14.0533 35.21 C.2 0.0 **** -0.1268
38 C21248 54.5648 16.2597 43.046 C.2 0.0 **** 0.0
39 C21245 53.6717 20.9613 38.8973 C.3 0.0 **** -0.106
40 C21278 60.7886 14.3939 48.5242 C.2 0.0 **** 0.0
41 C21295 63.2256 8.86181 51.0171 C.2 0.0 **** 0.052
42 C21174 45.4309 16.6091 35.8089 C.2 0.0 **** 0.0
43 C21163 39.9356 18.9051 30.3704 C.3 0.0 **** -0.106
44 C21175 45.9352 17.9189 36.072 C.2 0.0 **** 0.232
45 H21314 39.7672 19.1274 28.2252 H 0.0 **** 0.053
46 C21155 44.3185 18.2525 28.8923 C.3 0.0 **** 0.054
47 C21281 62.6596 15.0591 50.5518 C.2 0.0 **** 0.0
48 C21293 60.785 9.31294 48.1928 C.2 0.0 **** -0.1268
49 C21212 51.6092 10.6459 41.4546 C.2 0.0 **** 0.0
50 C21289 61.2085 11.9895 48.9173 C.2 0.0 **** 0.0
51 H21403 64.1669 5.92609 50.5227 H 0.0 **** 0.053
52 C21162 41.0205 18.5686 31.3793 C.3 0.0 **** 0.107
53 C21282 61.9876 16.0664 49.8409 C.2 0.0 **** -0.1268
54 C21275 59.4078 16.4788 47.1821 C.2 0.0 **** -0.1268
55 H21362 50.553 20.9422 39.0741 H 0.0 **** 0.053
56 H21318 43.0986 21.2727 32.0514 H 0.0 **** 0.053
57 C21198 42.8643 10.1382 32.8627 C.3 0.0 **** -0.106
58 H21327 39.2468 14.6969 35.2692 H 0.0 **** 0.053
59 O21160 44.4744 19.6164 28.4858 O.3 0.0 **** -0.32
60 H21363 52.7743 19.0589 38.3184 H 0.0 **** 0.053
61 C21157 41.8963 18.9974 28.7073 C.3 0.0 **** -0.053
62 H21355 54.5483 8.80176 44.9567 H 0.0 **** 0.053
63 C21238 52.1257 18.1162 40.9163 C.2 0.0 **** 0.042
64 C21223 54.8357 13.8424 43.4147 C.2 0.0 **** 0.0
65 C21252 55.6759 16.5119 43.9104 C.2 0.0 **** -0.1268
66 C21224 54.1329 14.9132 42.8071 C.2 0.0 **** 0.0
67 H21310 43.1783 18.8736 31.3589 H 0.0 **** 0.053
68 H21400 62.3666 6.74041 48.9013 H 0.0 **** 0.053
69 H21305 42.5892 17.1274 29.5884 H 0.0 **** 0.053
70 O21240 52.5749 19.379 41.227 O.3 0.0 **** -0.202
71 C21296 62.2526 8.55672 50.0557 C.2 0.0 **** 0.0
72 O21165 40.4555 18.7275 32.69 O.3 0.0 **** -0.32
73 C21221 52.362 15.716 41.3033 C.2 0.0 **** 0.0
74 C21231 54.0167 6.17961 42.7303 C.3 0.0 **** 0.134
75 C21234 55.4072 6.79613 45.0722 C.3 0.0 **** -0.106
76 H21319 41.3315 21.2071 31.9942 H 0.0 **** 0.053
77 C21261 58.5205 12.3822 46.3406 C.2 0.0 **** 0.0
78 C21290 63.5088 10.243 51.3493 C.2 0.0 **** 0.0
79 C21161 42.271 19.4712 31.1756 C.3 0.0 **** -0.053
80 C21184 41.621 16.2146 33.9519 C.2 0.0 **** 0.0
81 H21365 54.2792 21.2635 38.0317 H 0.0 **** 0.053
82 C21249 53.8826 17.3032 42.4204 C.2 0.0 **** -0.1268
83 C21172 42.3607 17.5094 33.712 C.3 0.0 **** -0.053
84 H21393 62.1911 17.1121 50.0822 H 0.0 **** 0.1268
85 C21287 62.8207 11.2785 50.6498 C.2 0.0 **** 0.0
86 H21304 42.7184 17.1978 27.8247 H 0.0 **** 0.053
87 C21263 59.0633 8.64376 45.8122 C.3 0.0 **** -0.106
88 C21247 52.4577 21.7718 40.9675 C.3 0.0 **** -0.106
89 C21250 55.9576 14.1115 44.2478 C.2 0.0 **** 0.0
90 C21251 56.3401 15.467 44.4908 C.2 0.0 **** 0.042
91 C21285 63.9968 12.9935 51.976 C.2 0.0 **** 0.0
92 C21179 44.1274 21.46 34.5538 C.3 0.0 **** -0.106
93 H21312 39.6846 19.973 30.4745 H 0.0 **** 0.053
94 H21404 63.8124 5.72461 52.2428 H 0.0 **** 0.053
95 H21390 49.2874 9.19233 41.0729 H 0.0 **** 0.41
96 H21366 54.3138 20.3547 39.5528 H 0.0 **** 0.053
97 H21336 43.6173 11.5218 30.739 H 0.0 **** 0.053
98 C21195 43.8161 12.9123 32.3638 C.3 0.0 **** -0.106
99 C21235 55.9792 5.73322 44.0925 C.3 0.0 **** 0.081
100 H21385 47.0083 10.9822 32.3629 H 0.0 **** 0.053
101 H21401 61.7908 5.18395 50.7441 H 0.0 **** 0.053
102 C21258 57.7997 13.3934 45.6996 C.2 0.0 **** 0.0
103 C21156 42.8511 17.7863 28.7454 C.3 0.0 **** -0.106
104 H21321 46.493 20.3913 36.8544 H 0.0 **** 0.053
105 H21328 38.6822 14.7105 33.6181 H 0.0 **** 0.053
106 H21353 52.7962 7.52152 43.9367 H 0.0 **** 0.053
107 C21211 50.0183 11.4617 39.7343 C.2 0.0 **** -0.1268
108 H21361 50.8075 20.4248 41.4731 H 0.0 **** 0.053
109 C21246 53.1871 22.1905 39.6744 C.3 0.0 **** -0.106
110 H21348 51.4476 6.54266 42.0945 H 0.0 **** 0.053
111 C21213 52.6996 10.9212 42.2579 C.2 0.0 **** 0.042
112 S21203 46.4744 12.7274 36.3268 S.2 0.0 **** 0.024
113 H21351 53.2975 4.96822 41.0919 H 0.0 **** 0.053
114 H21380 59.449 8.34281 43.6846 H 0.0 **** 0.053
115 C21208 50.843 14.1232 40.207 C.2 0.0 **** 0.0
116 H21358 55.7711 4.72163 44.4803 H 0.0 **** 0.053
117 H21333 40.9493 11.1564 35.1558 H 0.0 **** 0.053
118 C21228 51.1745 9.18808 41.5673 C.3 0.0 **** 0.107
119 H21396 64.9377 9.8464 52.9217 H 0.0 **** 0.1268
120 C21267 59.8279 14.0705 47.5259 C.2 0.0 **** 0.0
121 C21181 47.7187 16.9794 37.3628 C.2 0.0 **** 0.232
122 H21322 46.7324 20.6193 35.1236 H 0.0 **** 0.053
123 C21215 52.591 13.2946 41.7567 C.2 0.0 **** 0.0
124 H21402 61.4536 6.55357 51.8246 H 0.0 **** 0.053
125 C21164 40.4162 18.5998 28.94 C.3 0.0 **** -0.106
126 C21253 56.7024 13.0694 44.8203 C.2 0.0 **** 0.0
127 C21270 60.2989 11.6651 47.8896 C.2 0.0 **** 0.0
128 C21218 51.266 15.4766 40.4211 C.2 0.0 **** 0.0
129 C21159 43.7986 20.5005 29.3883 C.3 0.0 **** 0.054
130 C21298 62.0779 6.22004 50.9795 C.3 0.0 **** -0.106
131 C21168 42.2338 20.6078 32.1936 C.3 0.0 **** -0.106
132 C21177 45.963 20.4119 35.8913 C.3 0.0 **** -0.106
133 H21338 44.7656 9.60049 31.9564 H 0.0 **** 0.053
134 C21170 44.1156 18.9644 34.8532 C.2 0.0 **** 0.0
135 H21398 60.6613 8.28361 47.8671 H 0.0 **** 0.1268
136 C21283 63.6043 15.3664 51.5794 C.2 0.0 **** -0.1268
137 C21183 46.1324 15.485 36.2614 C.2 0.0 **** 0.0
138 C21260 58.1245 10.9356 46.2083 C.3 0.0 **** -0.053
139 C21169 43.5089 20.1052 34.3523 C.2 0.0 **** 0.0
140 H21311 41.3019 17.5058 31.2491 H 0.0 **** 0.053
141 H21378 59.9254 7.97619 45.9516 H 0.0 **** 0.053
142 C21204 48.3474 12.2307 38.1398 C.2 0.0 **** -0.1268
143 C21187 41.8371 13.7407 33.7804 C.2 0.0 **** 0.0
144 C21297 61.8263 7.13113 49.7843 C.3 0.0 **** -0.106
145 C21255 55.2627 11.479 43.7364 C.2 0.0 **** -0.1268
146 H21317 41.5543 20.8265 34.2038 H 0.0 **** 0.053
147 C21217 48.7709 17.2803 38.1998 C.2 0.0 **** -0.1268
148 C21173 44.2075 16.5073 35.0489 C.2 0.0 **** 0.0
149 H21342 48.0782 11.1877 37.9584 H 0.0 **** 0.1268
150 H21331 39.5822 12.1721 32.5902 H 0.0 **** 0.053
151 C21277 61.058 15.7647 48.8404 C.2 0.0 **** 0.0
152 H21399 60.7582 7.11778 49.5255 H 0.0 **** 0.053
153 C21272 46.8378 11.9983 31.9749 C.3 0.0 **** -0.159
154 H21320 42.8009 17.4185 32.6983 H 0.0 **** 0.053
155 C21292 64.6451 11.9519 52.6767 C.2 0.0 **** -0.1268
156 H21391 58.8659 17.268 46.6611 H 0.0 **** 0.1268
157 H21373 55.0145 10.4477 43.5409 H 0.0 **** 0.1268
158 C21176 45.3441 19.0649 35.6169 C.2 0.0 **** 0.0
159 C21237 51.0939 17.8841 40.0198 C.2 0.0 **** 0.042
160 H21302 44.9954 17.668 28.2545 H 0.0 **** 0.053
161 O21274 50.0858 8.74195 40.757 O.3 0.0 **** -0.57
162 C21206 49.7788 13.8596 39.3052 C.2 0.0 **** 0.0
163 N21236 55.4364 5.82395 42.7285 N.3 0.0 **** -0.727
164 C21158 42.3623 20.0348 29.7418 C.3 0.0 **** -0.053
165 C21190 40.2755 16.1012 34.0174 C.2 0.0 **** -0.1268
166 H21334 43.5485 13.7284 31.6691 H 0.0 **** 0.053
167 H21392 60.5674 17.8281 48.3645 H 0.0 **** 0.1268
168 H21356 54.5866 6.36338 45.6666 H 0.0 **** 0.053
169 H21335 44.6354 13.32 32.9754 H 0.0 **** 0.053
170 C21197 44.3041 10.4615 32.4639 C.3 0.0 **** -0.106
171 C21268 59.1062 15.114 46.8654 C.2 0.0 **** 0.0
172 H21376 60.0569 10.4908 45.403 H 0.0 **** 0.053
173 O21225 53.1874 9.87531 43.0114 O.3 0.0 **** -0.202
174 H21374 56.4983 9.80892 45.3766 H 0.0 **** 0.053
175 H21316 40.8704 18.7017 34.6657 H 0.0 **** 0.053
176 C21266 59.5596 12.7047 47.2265 C.2 0.0 **** 0.0
177 C21259 57.1938 10.5858 45.0242 C.3 0.0 **** -0.053
178 C21182 47.2956 15.6644 37.0974 C.2 0.0 **** 0.0
179 H21343 49.7337 10.444 39.486 H 0.0 **** 0.1268
180 C21207 49.1028 14.9149 38.6331 C.2 0.0 **** 0.0
181 C21222 54.4451 12.4882 43.192 C.2 0.0 **** 0.0
182 H21350 54.1251 6.44489 40.5873 H 0.0 **** 0.053
183 H21354 55.6977 8.40951 43.6788 H 0.0 **** 0.053
184 C21167 42.1848 20.0949 33.6629 C.3 0.0 **** -0.053
185 O21301 65.0661 7.89794 52.2358 O.2 0.0 **** -0.419
186 C21294 61.6271 9.5964 49.2999 C.2 0.0 **** 0.0
187 C21233 54.8759 7.99454 44.2875 C.3 0.0 **** -0.106
188 C21232 53.7275 7.58841 43.349 C.3 0.0 **** -0.053
189 H21384 47.7776 12.3408 31.5163 H 0.0 **** 0.053
190 C21299 63.5479 6.31358 51.3531 C.3 0.0 **** -0.086
191 C21191 39.8449 12.2682 33.6634 C.3 0.0 **** -0.106
192 H21395 64.9611 14.6107 53.0549 H 0.0 **** 0.1268
193 C21269 60.1588 10.3101 47.4791 C.2 0.0 **** 0.0
194 H21371 54.1925 18.3316 42.5988 H 0.0 **** 0.1268
195 C21229 52.0945 6.80477 41.2397 C.3 0.0 **** -0.106
196 H21306 41.994 19.4537 27.7115 H 0.0 **** 0.053
197 H21345 54.4528 8.83579 41.7491 H 0.0 **** 0.053
198 H21368 54.0262 22.8568 39.9227 H 0.0 **** 0.053
199 H21315 40.2976 17.5231 28.7346 H 0.0 **** 0.053
200 H21329 39.6367 16.9775 33.9207 H 0.0 **** 0.1268
201 C21210 51.0271 11.6943 40.682 C.2 0.0 **** 0.0
202 C21262 59.4043 10.0783 46.1988 C.3 0.0 **** -0.053
203 H21323 45.404 22.5098 35.9734 H 0.0 **** 0.053
204 H21326 43.3384 22.2306 34.5275 H 0.0 **** 0.053
205 C21196 44.3258 11.7052 31.5683 C.3 0.0 **** -0.053
206 C21284 64.2459 14.3698 52.266 C.2 0.0 **** -0.1268
207 C21257 58.1071 14.7424 45.9459 C.2 0.0 **** 0.0265
208 C21265 57.9945 9.943 43.8771 C.3 0.0 **** -0.106
209 H21397 65.3438 12.2121 53.4747 H 0.0 **** 0.1268
210 H21313 39.0249 18.3359 30.6057 H 0.0 **** 0.053
211 H21324 44.2246 21.4014 36.7091 H 0.0 **** 0.053
212 C21194 42.6085 12.6077 33.2199 C.2 0.0 **** 0.0
213 C21166 41.4475 18.7455 33.7304 C.3 0.0 **** 0.107
214 H21364 52.131 20.4475 37.4311 H 0.0 **** 0.053
215 H21344 49.0103 18.3247 38.336 H 0.0 **** 0.1268
216 C21264 58.5994 8.60223 44.3348 C.3 0.0 **** -0.106
217 H21341 44.0476 13.0527 35.0362 H 0.0 **** 0.1268
218 C21227 52.3933 8.30884 41.2524 C.3 0.0 **** -0.053
219 H21357 56.1845 7.11322 45.7856 H 0.0 **** 0.053
220 H21383 45.6443 13.0057 30.4966 H 0.0 **** 0.053
221 C21279 61.4598 13.362 49.2323 C.2 0.0 **** 0.0
222 H21372 55.9923 17.5381 44.0999 H 0.0 **** 0.1268
223 C21271 45.7051 11.995 30.9401 C.3 0.0 **** -0.053
224 C21205 49.3896 12.5062 39.0637 C.2 0.0 **** 0.0
225 C21280 62.3921 13.6856 50.246 C.2 0.0 **** 0.0
226 C21276 60.3475 16.7859 48.1265 C.2 0.0 **** -0.1268
227 H21309 43.7881 21.4738 28.8779 H 0.0 **** 0.053
228 C21186 43.6951 15.1713 34.7318 C.2 0.0 **** 0.0
229 H21337 44.8945 10.6623 33.3728 H 0.0 **** 0.053
230 H21332 40.3923 10.1579 33.7986 H 0.0 **** 0.053
231 H21307 41.6941 20.9103 29.6852 H 0.0 **** 0.053
232 H21375 57.5849 10.6813 47.1424 H 0.0 **** 0.053
233 C21188 40.4838 13.6083 33.8989 C.2 0.0 **** 0.0
234 C21273 46.0177 11.0053 29.8131 C.3 0.0 **** -0.159
235 C21209 51.4856 13.0453 40.8899 C.2 0.0 **** 0.0
236 C21199 45.6113 14.1937 35.918 C.2 0.0 **** -0.012
237 C21201 48.0179 14.6222 37.7327 C.2 0.0 **** 0.0
238 C21242 51.2742 20.1747 39.3893 C.3 0.0 **** 0.107
239 H21388 46.0924 9.97838 30.2051 H 0.0 **** 0.053
240 C21171 43.5655 17.6538 34.6145 C.2 0.0 **** 0.0
241 C21178 44.9184 21.5283 35.8623 C.3 0.0 **** -0.106
242 H21352 53.5239 5.4409 43.3853 H 0.0 **** 0.053
243 O21243 50.517 18.949 39.3647 O.3 0.0 **** -0.202
244 C21254 56.3643 11.7412 44.53 C.2 0.0 **** 0.0
245 C21288 61.8902 10.9564 49.6216 C.2 0.0 **** 0.0
246 C21226 53.4993 8.65587 42.2802 C.3 0.0 **** 0.107
247 C21216 49.5032 16.2743 38.8636 C.2 0.0 **** 0.0
248 C21244 52.4737 20.1117 38.4208 C.3 0.0 **** -0.106
249 H21370 53.1758 21.6392 41.7913 H 0.0 **** 0.053
250 C21300 64.0186 7.74033 51.6067 C.2 0.0 **** 0.347
@<TRIPOS>BOND
1 188 187 1
2 165 20 1
3 216 25 1
4 61 103 1
5 164 61 1
6 129 164 1
7 59 129 1
8 46 103 1
9 46 59 1
10 52 79 1
11 43 52 1
12 125 43 1
13 164 79 1
14 61 125 1
15 213 72 1
16 184 213 1
17 131 184 1
18 52 72 1
19 79 131 1
20 134 139 un
21 240 134 un
22 83 240 un
23 184 139 1
24 213 83 1
25 42 148 1
26 44 42 un
27 158 44 un
28 240 148 un
29 134 158 un
30 241 132 1
31 92 241 1
32 139 92 1
33 158 132 1
34 121 13 1
35 178 121 un
36 137 178 un
37 44 13 1
38 42 137 un
39 24 80 un
40 228 24 2
41 83 80 1
42 148 228 un
43 233 143 2
44 20 233 1
45 24 143 1
46 80 165 2
47 3 191 1
48 4 3 1
49 212 4 2
50 233 191 1
51 143 212 1
52 205 98 1
53 170 205 1
54 57 170 1
55 212 98 1
56 4 57 1
57 37 236 un
58 228 37 un
59 137 236 un
60 6 237 un
61 112 6 1
62 236 112 un
63 178 237 un
64 224 142 un
65 162 224 un
66 180 162 un
67 6 142 un
68 237 180 un
69 235 115 un
70 201 235 un
71 107 201 un
72 162 115 un
73 224 107 un
74 111 49 un
75 9 111 un
76 123 9 un
77 201 49 un
78 235 123 un
79 147 247 un
80 121 147 un
81 180 247 un
82 16 128 un
83 247 16 un
84 115 128 un
85 73 5 un
86 128 73 un
87 123 5 un
88 64 181 un
89 66 64 un
90 5 66 un
91 9 181 un
92 246 173 1
93 218 246 1
94 118 218 1
95 111 173 1
96 49 118 1
97 11 195 1
98 74 11 1
99 188 74 1
100 218 195 1
101 246 188 1
102 75 187 1
103 99 75 1
104 163 99 1
105 74 163 1
106 63 159 un
107 26 63 un
108 73 26 un
109 16 159 un
110 27 70 1
111 238 27 1
112 243 238 1
113 63 70 1
114 159 243 1
115 39 248 1
116 109 39 1
117 88 109 1
118 238 248 1
119 27 88 1
120 82 38 un
121 26 82 un
122 66 38 un
123 90 89 un
124 65 90 un
125 38 65 un
126 64 89 un
127 244 126 un
128 145 244 un
129 181 145 un
130 89 126 un
131 207 8 1
132 102 207 un
133 90 8 1
134 126 102 1
135 138 177 1
136 77 138 1
137 244 177 1
138 102 77 un
139 87 202 1
140 216 87 1
141 208 216 1
142 138 202 1
143 177 208 1
144 120 176 1
145 171 120 1
146 207 171 un
147 77 176 un
148 202 193 1
149 176 127 un
150 193 127 un
151 205 223 1
152 223 153 1
153 223 234 1
154 118 161 1
155 226 54 1
156 151 226 un
157 40 151 1
158 171 54 un
159 120 40 un
160 225 221 un
161 47 225 1
162 53 47 un
163 40 221 un
164 151 53 un
165 206 136 un
166 91 206 1
167 18 91 1
168 47 136 un
169 225 18 un
170 245 85 un
171 50 245 un
172 221 50 un
173 18 85 un
174 32 78 un
175 155 32 un
176 91 155 un
177 85 78 un
178 186 48 un
179 245 186 un
180 127 50 un
181 193 48 un
182 71 41 un
183 186 71 un
184 78 41 un
185 130 144 1
186 190 130 1
187 250 190 1
188 71 144 1
189 41 250 1
190 250 185 2
191 46 160 1
192 46 23 1
193 103 86 1
194 103 69 1
195 61 196 1
196 164 231 1
197 129 7 1
198 129 227 1
199 79 67 1
200 52 140 1
201 43 93 1
202 43 210 1
203 125 45 1
204 125 199 1
205 213 175 1
206 184 146 1
207 131 56 1
208 131 76 1
209 83 154 1
210 132 104 1
211 132 122 1
212 241 203 1
213 241 211 1
214 92 15 1
215 92 204 1
216 20 58 1
217 20 105 1
218 165 200 1
219 191 12 1
220 191 150 1
221 3 230 1
222 3 117 1
223 98 166 1
224 98 169 1
225 205 97 1
226 170 229 1
227 170 133 1
228 57 30 1
229 57 1 1
230 37 217 1
231 142 149 1
232 107 179 1
233 147 215 1
234 246 197 1
235 218 2 1
236 118 31 1
237 195 110 1
238 195 17 1
239 11 182 1
240 11 113 1
241 74 242 1
242 188 106 1
243 187 183 1
244 187 62 1
245 75 168 1
246 75 219 1
247 99 116 1
248 99 33 1
249 163 22 1
250 27 108 1
251 238 55 1
252 248 60 1
253 248 214 1
254 39 81 1
255 39 96 1
256 109 36 1
257 109 198 1
258 88 29 1
259 88 249 1
260 82 194 1
261 65 222 1
262 145 157 1
263 177 174 1
264 138 232 1
265 202 172 1
266 87 19 1
267 87 141 1
268 216 114 1
269 208 21 1
270 208 35 1
271 223 220 1
272 153 189 1
273 153 100 1
274 153 10 1
275 234 28 1
276 234 239 1
277 234 34 1
278 161 95 1
279 54 156 1
280 226 167 1
281 53 84 1
282 136 14 1
283 206 192 1
284 32 119 1
285 155 209 1
286 48 135 1
287 144 152 1
288 144 68 1
289 130 101 1
290 130 124 1
291 190 51 1
292 190 94 1
@<TRIPOS>MOLECULE
Sketch 4
250 292
SMALL
USER_CHARGES


@<TRIPOS>ATOM
1 C29175 61.4549 55.3548 47.0097 C.2 0.0 **** 0.232
2 C29220 63.938 63.8268 42.8021 C.2 0.0 **** 0.0
3 H29379 63.9691 68.4139 35.4493 H 0.0 **** 0.053
4 C29172 60.7243 51.1146 47.0489 C.3 0.0 **** -0.053
5 H29316 62.2143 50.2592 48.314 H 0.0 **** 0.053
6 H29396 69.1252 78.5526 36.3702 H 0.0 **** 0.1268
7 C29183 61.5125 55.3588 44.5611 C.2 0.0 **** 0.0
8 H29390 64.5555 59.5015 37.7582 H 0.0 **** 0.41
9 C29217 62.254 58.721 46.0062 C.2 0.0 **** -0.1268
10 C29173 61.1912 53.2269 45.8151 C.2 0.0 **** 0.0
11 C29229 63.5444 61.8801 35.126 C.3 0.0 **** -0.106
12 O29225 64.7736 63.8987 37.9854 O.3 0.0 **** -0.202
13 H29367 61.5993 63.0212 51.0919 H 0.0 **** 0.053
14 H29381 63.1019 67.6702 37.5395 H 0.0 **** 0.053
15 C29178 61.7257 54.717 50.7009 C.3 0.0 **** -0.106
16 H29401 68.3259 74.336 32.1317 H 0.0 **** 0.053
17 C29260 65.7326 69.7813 38.4266 C.3 0.0 **** -0.053
18 C29277 67.0363 74.0016 42.8247 C.2 0.0 **** 0.0
19 H29340 59.0565 49.5901 39.3867 H 0.0 **** 0.053
20 C29156 55.984 49.6118 47.5548 C.3 0.0 **** -0.106
21 C29251 64.9452 67.9384 43.186 C.2 0.0 **** 0.042
22 C29223 64.54 65.971 41.7627 C.2 0.0 **** 0.0
23 C29222 64.4728 65.3865 40.4627 C.2 0.0 **** 0.0
24 C29285 68.6846 77.6431 39.6356 C.2 0.0 **** 0.0
25 H29392 66.8287 73.5778 44.9465 H 0.0 **** 0.1268
26 C29276 66.6835 73.175 43.9425 C.2 0.0 **** -0.1268
27 H29400 66.4307 74.2874 33.7304 H 0.0 **** 0.053
28 H29372 64.7582 67.6794 45.2982 H 0.0 **** 0.1268
29 C29200 61.2072 53.2525 43.3447 C.2 0.0 **** -0.1268
30 C29280 67.7559 75.5629 40.5613 C.2 0.0 **** 0.0
31 C29263 64.9583 70.2426 36.0861 C.3 0.0 **** -0.106
32 C29204 62.2934 57.79 41.025 C.2 0.0 **** -0.1268
33 H29326 61.149 52.8177 51.6128 H 0.0 **** 0.053
34 C29206 62.8097 59.7269 42.454 C.2 0.0 **** 0.0
35 C29278 66.8344 73.4887 41.5027 C.2 0.0 **** 0.0
36 H29352 64.914 63.8967 33.5247 H 0.0 **** 0.053
37 O29243 62.644 60.9486 47.4471 O.3 0.0 **** -0.202
38 C29174 61.397 54.6552 45.7661 C.2 0.0 **** 0.0
39 H29388 55.9007 52.3418 39.4221 H 0.0 **** 0.053
40 C29216 62.5524 59.549 44.9043 C.2 0.0 **** 0.0
41 H29355 65.9916 65.8031 36.6899 H 0.0 **** 0.053
42 C29259 65.0171 68.4253 38.2265 C.3 0.0 **** -0.053
43 O29180 61.6472 56.7231 47.0147 O.3 0.0 **** -0.464
44 H29324 62.7779 54.4088 50.5893 H 0.0 **** 0.053
45 H29362 62.3934 61.0712 49.4422 H 0.0 **** 0.053
46 H29339 60.347 50.6824 38.9018 H 0.0 **** 0.053
47 C29157 56.351 48.8514 48.8459 C.3 0.0 **** -0.053
48 C29291 68.8486 77.9395 37.2212 C.2 0.0 **** -0.1268
49 C29253 65.0652 68.1525 40.7513 C.2 0.0 **** 0.0
50 C29189 62.2543 48.5274 44.5456 C.3 0.0 **** -0.106
51 H29342 62.2198 57.3648 40.0214 H 0.0 **** 0.1268
52 C29275 66.1918 71.9107 43.7724 C.2 0.0 **** -0.1268
53 C29210 63.5361 61.1895 40.1141 C.2 0.0 **** 0.0
54 H29398 66.1922 72.4804 35.4731 H 0.0 **** 0.1268
55 H29319 59.6206 49.8739 50.9123 H 0.0 **** 0.053
56 C29290 68.2657 76.6649 36.9778 C.2 0.0 **** 0.0
57 H29368 61.8035 64.7724 50.9922 H 0.0 **** 0.053
58 C29215 63.9158 63.2082 41.508 C.2 0.0 **** 0.0
59 H29337 59.2927 52.5823 40.0336 H 0.0 **** 0.053
60 H29307 57.3563 49.254 50.7123 H 0.0 **** 0.053
61 H29331 60.7335 47.5847 42.0484 H 0.0 **** 0.053
62 H29403 67.1796 76.49 32.6718 H 0.0 **** 0.053
63 H29394 68.6592 77.7498 43.066 H 0.0 **** 0.1268
64 H29354 64.3538 66.3012 36.2686 H 0.0 **** 0.053
65 H29323 61.647 55.305 51.628 H 0.0 **** 0.053
66 C29300 68.2589 76.9738 34.4295 C.2 0.0 **** 0.347
67 H29383 56.3932 52.3619 42.4565 H 0.0 **** 0.053
68 C29270 66.4092 72.508 38.867 C.2 0.0 **** 0.0
69 H29389 54.7624 52.9293 40.6528 H 0.0 **** 0.053
70 H29375 66.8009 69.6353 38.17 H 0.0 **** 0.053
71 C29230 63.0834 63.0406 34.238 C.3 0.0 **** -0.106
72 H29356 66.5896 65.8691 34.2223 H 0.0 **** 0.053
73 H29333 62.5179 49.7478 40.7758 H 0.0 **** 0.053
74 H29387 55.2 51.2 40.5961 H 0.0 **** 0.053
75 O29160 55.1215 51.1768 49.2456 O.3 0.0 **** -0.32
76 H29359 64.0744 67.4238 33.5602 H 0.0 **** 0.053
77 H29369 63.9559 63.2098 50.8195 H 0.0 **** 0.053
78 C29250 64.856 67.3531 41.8851 C.2 0.0 **** 0.0
79 C29271 56.7596 52.4897 41.4215 C.3 0.0 **** -0.053
80 O29240 63.5286 63.6104 47.5899 O.3 0.0 **** -0.202
81 C29195 58.8361 51.4297 42.4224 C.3 0.0 **** -0.106
82 H29345 63.0936 64.4419 36.9092 H 0.0 **** 0.053
83 H29365 59.9465 64.0854 49.4895 H 0.0 **** 0.053
84 C29184 61.2218 50.4023 45.8133 C.2 0.0 **** 0.0
85 C29159 56.2327 51.0116 50.1349 C.3 0.0 **** 0.054
86 H29309 55.7842 50.8991 51.132 H 0.0 **** 0.053
87 C29177 61.3157 55.5653 49.4966 C.3 0.0 **** -0.106
88 C29265 63.6355 68.6318 37.5796 C.3 0.0 **** -0.106
89 C29288 67.3449 74.5751 37.9258 C.2 0.0 **** 0.0
90 H29380 62.8508 69.7157 35.87 H 0.0 **** 0.053
91 H29330 62.5058 47.6175 42.0456 H 0.0 **** 0.053
92 H29349 62.9343 60.9807 34.9742 H 0.0 **** 0.053
93 C29198 59.6336 50.4747 39.7201 C.3 0.0 **** -0.106
94 H29366 61.3117 64.6291 48.4987 H 0.0 **** 0.053
95 H29320 59.6179 51.1027 46.9754 H 0.0 **** 0.053
96 H29303 56.3582 51.7726 47.6832 H 0.0 **** 0.053
97 H29353 65.7425 63.6678 35.628 H 0.0 **** 0.053
98 C29268 66.0025 71.3689 42.4591 C.2 0.0 **** 0.0
99 C29257 65.5566 70.0537 42.2287 C.2 0.0 **** 0.0265
100 H29377 65.8865 69.7439 35.7589 H 0.0 **** 0.053
101 C29199 61.3881 54.6138 43.3419 C.2 0.0 **** -0.012
102 H29376 64.2121 71.1758 37.8577 H 0.0 **** 0.053
103 C29252 64.6964 67.2096 44.3159 C.2 0.0 **** -0.1268
104 C29221 63.629 63.0687 43.9615 C.2 0.0 **** 0.0
105 C29279 67.1975 74.276 40.3779 C.2 0.0 **** 0.0
106 H29397 69.5038 79.3871 38.6565 H 0.0 **** 0.1268
107 C29293 66.4561 72.8291 36.4679 C.2 0.0 **** -0.1268
108 H29350 62.1257 63.4338 34.6244 H 0.0 **** 0.053
109 C29219 62.9301 60.9406 45.0361 C.2 0.0 **** 0.0
110 H29382 63.0353 69.2929 38.2246 H 0.0 **** 0.053
111 H29315 56.9963 47.2531 47.5196 H 0.0 **** 0.053
112 C29186 61.0867 52.4958 44.5492 C.2 0.0 **** 0.0
113 C29261 65.7163 70.3442 39.823 C.2 0.0 **** 0.0
114 C29269 66.0693 72.077 37.5545 C.2 0.0 **** 0.0
115 C29284 68.8708 78.1277 40.9663 C.2 0.0 **** -0.1268
116 C29201 62.089 57.5743 43.455 C.2 0.0 **** 0.0
117 H29374 65.6076 67.8515 37.4959 H 0.0 **** 0.053
118 C29169 60.8881 52.684 49.4936 C.2 0.0 **** 0.0
119 C29299 68.1944 76.2966 33.0661 C.3 0.0 **** -0.086
120 H29404 68.8939 76.8313 32.4079 H 0.0 **** 0.053
121 C29205 62.7247 59.1363 41.1558 C.2 0.0 **** 0.0
122 H29395 69.3093 79.1186 41.0991 H 0.0 **** 0.1268
123 C29155 55.5359 51.0559 47.8805 C.3 0.0 **** 0.054
124 H29305 56.8512 49.641 46.8762 H 0.0 **** 0.053
125 O29256 65.2784 69.2767 43.3299 O.3 0.0 **** -0.0685
126 H29302 54.6711 51.3585 47.2744 H 0.0 **** 0.053
127 H29351 62.898 62.7281 33.2012 H 0.0 **** 0.053
128 C29238 63.4057 62.9469 46.3909 C.2 0.0 **** 0.042
129 H29370 63.8379 64.616 49.7534 H 0.0 **** 0.053
130 C29196 57.8847 51.4528 41.2206 C.3 0.0 **** -0.053
131 C29212 63.9939 61.9197 38.9773 C.2 0.0 **** 0.0
132 H29328 62.0744 47.4357 44.5959 H 0.0 **** 0.053
133 H29322 60.3068 55.9822 49.6771 H 0.0 **** 0.053
134 C29258 65.4343 69.5362 40.9278 C.2 0.0 **** 0.0
135 H29344 62.2982 59.1012 47.0162 H 0.0 **** 0.1268
136 S29203 61.3935 55.412 41.7847 S.2 0.0 **** 0.024
137 C29182 61.8132 56.7704 44.5905 C.2 0.0 **** 0.0
138 C29242 62.3806 61.7749 48.5977 C.3 0.0 **** 0.107
139 H29348 64.5831 61.6039 34.8754 H 0.0 **** 0.053
140 H29313 59.2331 46.9223 48.3373 H 0.0 **** 0.053
141 C29272 57.252 53.9346 41.2674 C.3 0.0 **** -0.159
142 H29304 55.1855 49.0634 47.032 H 0.0 **** 0.053
143 C29248 64.3476 65.8266 44.2112 C.2 0.0 **** 0.0
144 C29226 63.9604 63.7659 36.7853 C.3 0.0 **** 0.107
145 H29385 57.5235 54.1396 40.2204 H 0.0 **** 0.053
146 N29236 63.5499 65.4177 33.7727 N.3 0.0 **** -0.727
147 H29321 61.9843 56.4299 49.376 H 0.0 **** 0.053
148 C29267 66.3016 72.1821 41.321 C.2 0.0 **** 0.0
149 C29167 60.7889 51.2015 49.6385 C.3 0.0 **** -0.053
150 C29249 64.0646 65.0634 45.3438 C.2 0.0 **** -0.1268
151 O29165 60.5724 49.0967 48.4853 O.3 0.0 **** -0.32
152 C29208 63.2117 61.0832 42.5723 C.2 0.0 **** 0.0
153 C29231 64.1274 64.1612 34.2519 C.3 0.0 **** 0.134
154 C29254 64.9154 67.5917 39.4762 C.2 0.0 **** 0.0
155 H29399 67.6541 73.109 34.2136 H 0.0 **** 0.053
156 H29334 58.3198 50.9933 43.2961 H 0.0 **** 0.053
157 C29171 61.0687 52.587 47.0361 C.2 0.0 **** 0.0
158 C29283 68.5149 77.3723 42.0521 C.2 0.0 **** -0.1268
159 H29311 58.8947 49.1682 47.2748 H 0.0 **** 0.053
160 C29241 63.5267 62.7599 48.757 C.3 0.0 **** 0.107
161 C29244 61.011 62.4759 48.4823 C.3 0.0 **** -0.106
162 H29391 65.9443 71.2908 44.6339 H 0.0 **** 0.1268
163 H29325 59.8034 53.7772 50.9971 H 0.0 **** 0.053
164 C29168 59.4316 50.7139 50.2253 C.3 0.0 **** -0.106
165 C29170 61.0858 53.3187 48.2777 C.2 0.0 **** 0.0
166 C29213 64.2953 63.2619 39.1103 C.2 0.0 **** 0.042
167 H29378 64.7294 71.0151 35.3382 H 0.0 **** 0.053
168 C29181 61.906 57.3976 45.8463 C.2 0.0 **** 0.232
169 H29310 58.2618 51.0632 48.463 H 0.0 **** 0.053
170 C29228 64.2498 61.418 37.5597 C.3 0.0 **** 0.107
171 C29224 64.2822 65.1989 42.9234 C.2 0.0 **** 0.0
172 C29187 60.9407 50.2758 43.3433 C.2 0.0 **** 0.0
173 C29289 66.9895 73.7798 39.0525 C.2 0.0 **** 0.0
174 C29239 63.7032 63.7126 45.2339 C.2 0.0 **** 0.0
175 C29247 63.3741 63.6471 49.9943 C.3 0.0 **** -0.106
176 C29207 62.4818 58.9519 43.6005 C.2 0.0 **** 0.0
177 C29232 64.8312 64.2894 35.6445 C.3 0.0 **** -0.053
178 H29327 63.359 48.6065 44.4413 H 0.0 **** 0.053
179 C29188 61.5911 49.0758 43.3248 C.2 0.0 **** 0.0
180 H29386 58.135 54.1473 41.889 H 0.0 **** 0.053
181 H29314 56.7671 46.7322 49.1902 H 0.0 **** 0.053
182 C29273 55.5873 52.2236 40.4716 C.3 0.0 **** -0.159
183 C29262 65.1968 70.8554 37.4613 C.3 0.0 **** -0.053
184 C29191 61.612 48.2614 42.0615 C.3 0.0 **** -0.106
185 C29281 67.949 76.0702 41.8868 C.2 0.0 **** 0.0
186 C29162 59.143 49.0733 48.3496 C.3 0.0 **** 0.107
187 C29266 66.1148 71.6774 40.003 C.2 0.0 **** 0.0
188 H29318 58.9639 51.514 50.8179 H 0.0 **** 0.053
189 O29301 68.4163 78.1954 34.4588 O.2 0.0 **** -0.419
190 C29176 61.2929 54.753 48.2268 C.2 0.0 **** 0.0
191 C29161 58.4676 50.225 49.1478 C.3 0.0 **** -0.053
192 C29209 63.5626 61.8297 41.4057 C.2 0.0 **** 0.0
193 H29343 62.942 59.4053 39.051 H 0.0 **** 0.1268
194 H29402 69.4712 74.6004 33.4641 H 0.0 **** 0.053
195 H29363 60.7806 62.6005 47.4143 H 0.0 **** 0.053
196 C29166 61.1266 50.4172 48.358 C.3 0.0 **** 0.107
197 H29329 62.002 48.6601 46.7494 H 0.0 **** 0.1268
198 H29358 65.0028 66.3068 32.5501 H 0.0 **** 0.053
199 H29357 66.0678 67.4503 34.8201 H 0.0 **** 0.053
200 H29361 64.4798 62.2054 48.7728 H 0.0 **** 0.053
201 C29202 61.9868 57.0301 42.1247 C.2 0.0 **** -0.012
202 O29274 63.9387 60.0569 37.257 O.3 0.0 **** -0.57
203 C29294 67.1357 74.0669 36.6143 C.2 0.0 **** 0.0
204 H29360 62.8608 65.7494 34.4488 H 0.0 **** 0.353
205 C29179 60.8445 53.4678 50.7751 C.3 0.0 **** -0.106
206 H29371 64.1189 65.523 46.3294 H 0.0 **** 0.1268
207 C29227 63.4586 62.3127 36.5947 C.3 0.0 **** -0.053
208 C29282 67.5833 75.2786 42.9873 C.2 0.0 **** -0.1268
209 C29264 63.7913 69.227 36.1673 C.3 0.0 **** -0.106
210 C29163 58.6603 47.7173 48.8359 C.3 0.0 **** -0.106
211 C29286 68.1206 76.3555 39.4329 C.2 0.0 **** 0.0
212 C29214 64.2241 63.9708 40.3466 C.2 0.0 **** 0.0
213 H29341 61.1919 52.7197 42.3942 H 0.0 **** 0.1268
214 C29287 67.9172 75.866 38.1071 C.2 0.0 **** 0.0
215 C29296 67.5607 74.8307 35.4832 C.2 0.0 **** 0.0
216 H29332 61.4841 48.5964 39.9068 H 0.0 **** 0.053
217 H29308 56.8447 51.9377 50.1303 H 0.0 **** 0.053
218 C29158 57.1265 49.7952 49.7793 C.3 0.0 **** -0.053
219 C29193 60.4065 50.1334 40.9604 C.2 0.0 **** 0.0
220 C29292 69.0501 78.4056 38.5036 C.2 0.0 **** -0.1268
221 C29295 68.0546 76.1319 35.6475 C.2 0.0 **** 0.052
222 H29384 56.4596 54.6438 41.5502 H 0.0 **** 0.053
223 H29312 58.8725 47.6402 49.9145 H 0.0 **** 0.053
224 C29233 65.2352 65.7519 35.8951 C.3 0.0 **** -0.106
225 C29194 60.1005 50.6386 42.1791 C.2 0.0 **** 0.0
226 H29317 61.5484 50.9178 50.3921 H 0.0 **** 0.053
227 H29336 57.4073 50.4578 41.1467 H 0.0 **** 0.053
228 H29347 65.3253 61.5916 37.3483 H 0.0 **** 0.053
229 C29234 65.7221 66.425 34.6129 C.3 0.0 **** -0.106
230 H29335 59.0729 52.4621 42.7216 H 0.0 **** 0.053
231 C29237 62.996 61.6255 46.3008 C.2 0.0 **** 0.042
232 C29255 64.6275 66.2444 39.3567 C.2 0.0 **** -0.1268
233 C29211 63.0703 59.8686 40.0243 C.2 0.0 **** -0.1268
234 C29298 68.4416 74.7984 33.1238 C.3 0.0 **** -0.106
235 C29235 64.5793 66.4463 33.5592 C.3 0.0 **** 0.081
236 H29346 62.4026 62.2635 36.9048 H 0.0 **** 0.053
237 C29197 58.6947 51.6614 39.9362 C.3 0.0 **** -0.106
238 H29364 60.2476 61.804 48.9012 H 0.0 **** 0.053
239 C29192 61.5695 49.1799 40.8368 C.3 0.0 **** -0.106
240 H29393 67.7382 75.668 43.9959 H 0.0 **** 0.1268
241 C29164 57.1529 47.5541 48.5686 C.3 0.0 **** -0.106
242 H29338 58.0317 51.7911 39.0671 H 0.0 **** 0.053
243 C29218 63.2581 61.6937 43.8691 C.2 0.0 **** 0.0
244 C29190 61.8206 49.1904 45.8161 C.2 0.0 **** -0.1268
245 C29245 60.9787 63.8453 49.195 C.3 0.0 **** -0.106
246 C29185 61.0177 51.1012 44.5471 C.2 0.0 **** 0.0
247 C29297 67.4621 74.187 34.1181 C.3 0.0 **** -0.106
248 H29373 64.5327 65.8339 38.3638 H 0.0 **** 0.1268
249 H29306 55.4068 48.5909 49.346 H 0.0 **** 0.053
250 C29246 61.9033 63.84 50.4175 C.3 0.0 **** -0.106
@<TRIPOS>BOND
1 22 23 un
2 26 25 1
3 85 86 1
4 99 98 un
5 23 232 un
6 42 88 1
7 148 35 un
8 47 20 1
9 218 47 1
10 85 218 1
11 75 85 1
12 123 20 1
13 123 75 1
14 186 191 1
15 210 186 1
16 241 210 1
17 218 191 1
18 47 241 1
19 196 151 1
20 149 196 1
21 164 149 1
22 186 151 1
23 191 164 1
24 165 118 un
25 157 165 un
26 4 157 un
27 149 118 1
28 196 4 1
29 38 10 1
30 1 38 un
31 190 1 un
32 157 10 un
33 165 190 un
34 15 87 1
35 205 15 1
36 118 205 1
37 190 87 1
38 168 43 1
39 137 168 un
40 7 137 un
41 1 43 1
42 38 7 un
43 246 84 un
44 112 246 2
45 4 84 1
46 10 112 un
47 179 172 2
48 50 179 1
49 244 50 1
50 246 172 1
51 84 244 2
52 239 184 1
53 219 239 1
54 225 219 2
55 179 184 1
56 172 225 1
57 130 81 1
58 237 130 1
59 93 237 1
60 225 81 1
61 219 93 1
62 29 101 un
63 112 29 un
64 7 101 un
65 201 116 un
66 136 201 1
67 101 136 un
68 137 116 un
69 121 32 un
70 34 121 un
71 176 34 un
72 201 32 un
73 116 176 un
74 192 152 un
75 53 192 un
76 233 53 un
77 34 152 un
78 121 233 un
79 166 131 un
80 212 166 un
81 58 212 un
82 53 131 un
83 192 58 un
84 9 40 un
85 168 9 un
86 176 40 un
87 109 243 un
88 40 109 un
89 152 243 un
90 104 2 un
91 243 104 un
92 58 2 un
93 171 22 un
94 2 171 un
95 212 23 un
96 144 12 1
97 207 144 1
98 170 207 1
99 166 12 1
100 131 170 1
101 71 11 1
102 153 71 1
103 177 153 1
104 207 11 1
105 144 177 1
106 229 224 1
107 235 229 1
108 146 235 1
109 177 224 1
110 153 146 1
111 128 231 un
112 174 128 un
113 104 174 un
114 109 231 un
115 160 80 1
116 138 160 1
117 37 138 1
118 128 80 1
119 231 37 1
120 245 161 1
121 250 245 1
122 175 250 1
123 138 161 1
124 160 175 1
125 150 143 un
126 174 150 un
127 171 143 un
128 21 78 un
129 103 21 un
130 143 103 un
131 22 78 un
132 154 49 un
133 232 154 un
134 78 49 un
135 99 125 1
136 134 99 un
137 21 125 1
138 49 134 1
139 17 42 1
140 113 17 1
141 154 42 1
142 134 113 un
143 31 183 1
144 209 31 1
145 88 209 1
146 17 183 1
147 148 187 1
148 98 148 1
149 113 187 un
150 183 114 1
151 187 68 un
152 114 68 un
153 130 79 1
154 79 141 1
155 79 182 1
156 170 202 1
157 26 52 1
158 18 26 un
159 35 18 1
160 98 52 un
161 30 105 un
162 185 30 1
163 208 185 un
164 35 105 un
165 18 208 un
166 115 158 un
167 24 115 1
168 211 24 1
169 185 158 un
170 30 211 un
171 89 214 un
172 173 89 un
173 105 173 un
174 211 214 un
175 48 56 un
176 220 48 un
177 24 220 un
178 214 56 un
179 203 107 un
180 89 203 un
181 68 173 un
182 114 107 un
183 215 221 un
184 203 215 un
185 56 221 un
186 234 247 1
187 119 234 1
188 66 119 1
189 215 247 1
190 221 66 1
191 66 189 2
192 123 126 1
193 123 96 1
194 20 142 1
195 20 124 1
196 47 249 1
197 218 60 1
198 85 217 1
199 191 169 1
200 186 159 1
201 210 223 1
202 210 140 1
203 241 181 1
204 241 111 1
205 196 5 1
206 149 226 1
207 164 188 1
208 164 55 1
209 4 95 1
210 87 147 1
211 87 133 1
212 15 65 1
213 15 44 1
214 205 163 1
215 205 33 1
216 50 178 1
217 50 132 1
218 244 197 1
219 184 91 1
220 184 61 1
221 239 216 1
222 239 73 1
223 81 156 1
224 81 230 1
225 130 227 1
226 237 59 1
227 237 242 1
228 93 46 1
229 93 19 1
230 29 213 1
231 32 51 1
232 233 193 1
233 9 135 1
234 144 82 1
235 207 236 1
236 170 228 1
237 11 139 1
238 11 92 1
239 71 108 1
240 71 127 1
241 153 36 1
242 177 97 1
243 224 64 1
244 224 41 1
245 229 72 1
246 229 199 1
247 235 198 1
248 235 76 1
249 146 204 1
250 160 200 1
251 138 45 1
252 161 195 1
253 161 238 1
254 245 83 1
255 245 94 1
256 250 13 1
257 250 57 1
258 175 77 1
259 175 129 1
260 150 206 1
261 103 28 1
262 232 248 1
263 42 117 1
264 17 70 1
265 183 102 1
266 31 100 1
267 31 167 1
268 209 3 1
269 209 90 1
270 88 14 1
271 88 110 1
272 79 67 1
273 141 222 1
274 141 145 1
275 141 180 1
276 182 74 1
277 182 39 1
278 182 69 1
279 202 8 1
280 52 162 1
281 208 240 1
282 158 63 1
283 115 122 1
284 48 6 1
285 220 106 1
286 107 54 1
287 247 155 1
288 247 27 1
289 234 16 1
290 234 194 1
291 119 62 1
292 119 120 1
@<TRIPOS>MOLECULE
Sketch 4
250 292
SMALL
USER_CHARGES


@<TRIPOS>ATOM
1 C20707 48.5095 23.27 46.1748 C.2 0.0 **** 0.0
2 H20860 45.696 23.7504 35.1313 H 0.0 **** 0.353
3 C20777 34.3763 26.0808 39.835 C.2 0.0 **** 0.0
4 H20883 55.8577 18.1398 47.3968 H 0.0 **** 0.053
5 H20885 54.9116 19.2689 44.7008 H 0.0 **** 0.053
6 C20731 47.037 25.2078 35.6241 C.3 0.0 **** 0.134
7 C20677 49.5493 21.9329 52.8624 C.3 0.0 **** -0.106
8 C20768 37.0727 25.4043 40.4716 C.2 0.0 **** 0.0
9 H20823 48.9337 22.0803 54.9407 H 0.0 **** 0.053
10 C20758 39.4099 25.2091 39.7463 C.2 0.0 **** 0.0
11 C20776 34.7614 25.7188 41.1684 C.2 0.0 **** -0.1268
12 C20752 40.3652 24.4185 43.7336 C.2 0.0 **** -0.1268
13 C20688 57.7734 23.5761 49.709 C.2 0.0 **** 0.0
14 C20690 56.6941 23.5435 51.9687 C.2 0.0 **** -0.1268
15 C20695 56.3654 20.6665 47.839 C.3 0.0 **** -0.106
16 C20655 55.1284 16.9104 52.8573 C.3 0.0 **** 0.054
17 C20672 54.6296 22.1126 52.3073 C.3 0.0 **** -0.053
18 H20852 47.4384 26.088 35.0933 H 0.0 **** 0.053
19 C20723 42.485 24.6614 41.8561 C.2 0.0 **** 0.0
20 H20854 44.2856 24.9813 36.6615 H 0.0 **** 0.053
21 H20856 45.1264 27.4433 35.0478 H 0.0 **** 0.053
22 H20834 56.5099 20.1213 48.7889 H 0.0 **** 0.053
23 C20750 41.1289 24.7994 41.4474 C.2 0.0 **** 0.0
24 O20740 42.5903 23.3637 48.0895 O.3 0.0 **** -0.202
25 H20824 49.9799 23.4056 54.384 H 0.0 **** 0.053
26 H20869 41.674 23.5139 51.2378 H 0.0 **** 0.053
27 O20756 38.7627 24.8484 42.0512 O.3 0.0 **** -0.0685
28 N20736 46.1538 24.537 34.6692 N.3 0.0 **** -0.727
29 C20671 53.2378 22.2813 51.7405 C.2 0.0 **** 0.0
30 H20810 54.5028 19.5456 53.516 H 0.0 **** 0.053
31 C20661 54.9804 19.7797 54.4808 C.3 0.0 **** -0.053
32 C20735 45.1433 25.4546 34.1211 C.3 0.0 **** 0.081
33 C20764 41.7312 24.092 35.408 C.3 0.0 **** -0.106
34 C20674 51.7786 22.4884 49.7846 C.2 0.0 **** 0.0
35 C20709 46.5492 24.2169 43.0881 C.2 0.0 **** 0.0
36 C20749 42.0317 23.9446 45.483 C.2 0.0 **** -0.1268
37 H20857 43.5313 26.6831 34.9611 H 0.0 **** 0.053
38 H20838 57.4201 20.1606 44.573 H 0.0 **** 0.053
39 C20699 52.7334 22.7239 47.5683 C.2 0.0 **** -0.012
40 H20807 55.4398 18.6411 56.2466 H 0.0 **** 0.053
41 O20743 45.2072 22.816 48.9494 O.3 0.0 **** -0.202
42 H20803 54.4273 17.6582 52.4355 H 0.0 **** 0.053
43 C20662 56.2361 20.6611 54.2235 C.3 0.0 **** 0.107
44 C20664 57.8335 18.8512 54.9227 C.3 0.0 **** -0.106
45 H20868 40.4951 21.1866 50.6921 H 0.0 **** 0.053
46 C20724 42.7903 24.3827 43.2122 C.2 0.0 **** 0.0
47 H20840 59.1616 21.4001 45.7677 H 0.0 **** 0.053
48 C20748 41.7203 24.2465 44.1574 C.2 0.0 **** 0.0
49 H20863 43.982 20.784 48.1932 H 0.0 **** 0.053
50 C20766 37.702 25.7216 38.096 C.2 0.0 **** 0.0
51 C20751 40.0894 24.6904 42.4223 C.2 0.0 **** 0.042
52 H20815 58.5279 18.8354 54.0665 H 0.0 **** 0.053
53 H20804 57.3219 16.8817 52.8325 H 0.0 **** 0.053
54 C20726 46.466 24.839 38.102 C.3 0.0 **** 0.107
55 C20761 39.0473 25.5021 38.4289 C.2 0.0 **** 0.0
56 H20858 45.5901 25.9891 33.2657 H 0.0 **** 0.053
57 H20833 57.9863 24.6649 47.1444 H 0.0 **** 0.053
58 C20785 32.0104 27.5971 35.5629 C.2 0.0 **** 0.0
59 C20715 45.1985 24.394 42.664 C.2 0.0 **** 0.0
60 H20806 56.8475 16.9274 55.1562 H 0.0 **** 0.053
61 C20673 53.0961 22.4478 50.3739 C.2 0.0 **** 0.0
62 O20680 49.3797 22.3697 50.1438 O.3 0.0 **** -0.464
63 C20760 40.0869 25.7222 37.3623 C.3 0.0 **** -0.053
64 H20831 59.7444 23.0297 49.0727 H 0.0 **** 0.053
65 H20848 49.0729 25.8967 37.2105 H 0.0 **** 0.053
66 H20880 41.5343 23.1346 34.9016 H 0.0 **** 0.053
67 C20782 33.0674 26.4554 39.5147 C.2 0.0 **** -0.1268
68 C20669 52.2473 21.8488 53.9571 C.2 0.0 **** 0.0
69 C20783 31.3701 27.2226 37.8849 C.2 0.0 **** -0.1268
70 H20900 37.6388 26.3468 31.3238 H 0.0 **** 0.053
71 H20881 42.7371 23.458 37.2432 H 0.0 **** 0.053
72 C20734 44.5976 26.4823 35.152 C.3 0.0 **** -0.106
73 H20842 51.3508 23.5508 43.4831 H 0.0 **** 0.1268
74 H20849 49.8467 24.3308 37.4673 H 0.0 **** 0.053
75 O20725 45.7723 25.5085 39.1927 O.3 0.0 **** -0.202
76 H20855 44.3422 26.6165 37.3177 H 0.0 **** 0.053
77 H20826 51.2864 21.8817 55.8682 H 0.0 **** 0.053
78 C20787 34.3247 27.1983 34.8095 C.2 0.0 **** 0.0
79 C20676 50.7749 22.1311 52.0072 C.2 0.0 **** 0.0
80 C20763 40.6625 25.134 34.9931 C.3 0.0 **** -0.106
81 H20822 49.2476 20.8691 52.8206 H 0.0 **** 0.053
82 C20769 38.2681 25.8716 35.6848 C.2 0.0 **** 0.0
83 H20850 47.8544 23.2784 36.157 H 0.0 **** 0.053
84 H20901 37.9208 28.3718 29.9203 H 0.0 **** 0.053
85 C20702 50.8964 23.152 45.5385 C.2 0.0 **** -0.012
86 C20781 32.7057 26.8325 38.2114 C.2 0.0 **** 0.0
87 C20765 41.7647 23.8685 36.9317 C.3 0.0 **** -0.106
88 C20693 57.8729 22.5149 47.0678 C.2 0.0 **** 0.0
89 C20657 56.66 17.8792 54.6382 C.3 0.0 **** -0.053
90 C20694 56.9955 22.0329 47.9799 C.2 0.0 **** 0.0
91 H20832 59.5185 23.8642 46.7433 H 0.0 **** 0.053
92 C20753 40.7957 25.0243 40.1033 C.2 0.0 **** 0.0
93 C20794 36.6479 26.7846 34.0967 C.2 0.0 **** 0.0
94 C20772 54.7433 18.9213 45.7318 C.3 0.0 **** -0.159
95 C20762 39.5479 25.1619 36.0325 C.3 0.0 **** -0.053
96 H20896 32.3477 28.2482 32.2243 H 0.0 **** 0.1268
97 C20790 33.9699 27.5604 33.4761 C.2 0.0 **** 0.0
98 H20844 47.1097 22.7337 49.2531 H 0.0 **** 0.1268
99 C20658 55.331 18.4426 55.1672 C.3 0.0 **** -0.053
100 H20893 32.3076 26.4631 40.2995 H 0.0 **** 0.1268
101 H20836 57.9449 19.4948 46.9757 H 0.0 **** 0.053
102 C20737 44.9699 23.1976 47.6479 C.2 0.0 **** 0.042
103 C20786 33.3467 27.2109 35.8496 C.2 0.0 **** 0.0
104 H20819 54.4662 20.7861 56.2944 H 0.0 **** 0.053
105 C20775 36.0536 25.3981 41.4793 C.2 0.0 **** -0.1268
106 C20730 48.2197 24.3091 35.9977 C.3 0.0 **** -0.106
107 C20683 51.5736 22.639 48.4077 C.2 0.0 **** 0.0
108 H20812 56.9948 20.4075 56.2074 H 0.0 **** 0.053
109 O20660 54.5629 16.3519 54.0481 O.3 0.0 **** -0.32
110 C20689 57.7167 24.1754 51.0761 C.3 0.0 **** -0.106
111 H20874 42.2211 25.9171 37.2479 H 0.0 **** 0.053
112 H20891 36.3312 25.1412 42.5015 H 0.0 **** 0.1268
113 H20814 58.4066 18.5051 55.7959 H 0.0 **** 0.053
114 C20711 48.936 24.0971 42.554 C.2 0.0 **** -0.1268
115 H20865 41.9626 19.5806 49.4896 H 0.0 **** 0.053
116 C20678 49.81 22.3186 54.3188 C.3 0.0 **** -0.106
117 C20714 44.8948 24.7239 41.3134 C.2 0.0 **** 0.0
118 C20780 33.6985 26.8321 37.179 C.2 0.0 **** 0.0
119 H20818 53.0984 19.954 55.5415 H 0.0 **** 0.053
120 C20727 47.9401 24.5325 38.4669 C.3 0.0 **** -0.053
121 H20904 35.4521 28.6129 29.2332 H 0.0 **** 0.053
122 H20876 39.2493 24.1122 36.2279 H 0.0 **** 0.053
123 C20757 38.4275 25.1408 40.749 C.2 0.0 **** 0.0265
124 H20894 30.6208 27.2208 38.6786 H 0.0 **** 0.1268
125 C20720 44.1409 24.2155 43.6167 C.2 0.0 **** 0.0
126 C20732 46.2908 25.7508 36.8888 C.3 0.0 **** -0.053
127 C20668 53.9854 20.5685 55.3276 C.3 0.0 **** -0.106
128 H20802 55.2072 16.0801 52.1422 H 0.0 **** 0.053
129 H20845 45.928 23.8909 37.9141 H 0.0 **** 0.053
130 C20700 54.0035 22.7046 48.0904 C.2 0.0 **** -0.1268
131 C20691 58.9921 23.8171 48.8627 C.3 0.0 **** -0.106
132 C20744 43.6588 20.9208 49.2353 C.3 0.0 **** -0.106
133 H20841 54.8519 22.8459 47.4212 H 0.0 **** 0.1268
134 C20779 35.026 26.4495 37.4834 C.2 0.0 **** 0.0
135 C20745 42.1423 20.6578 49.3591 C.3 0.0 **** -0.106
136 C20704 50.5722 23.4745 44.2455 C.2 0.0 **** -0.1268
137 C20681 49.1666 22.6616 48.8185 C.2 0.0 **** 0.232
138 H20837 56.1471 21.2184 45.2139 H 0.0 **** 0.053
139 H20875 40.161 26.8203 37.2317 H 0.0 **** 0.053
140 H20866 41.64 20.9637 48.4294 H 0.0 **** 0.053
141 C20773 56.8518 17.5557 45.586 C.3 0.0 **** -0.159
142 C20797 37.4332 27.3396 31.7671 C.3 0.0 **** -0.106
143 C20717 47.8452 22.8344 48.4686 C.2 0.0 **** -0.1268
144 C20741 42.9273 23.3463 49.4937 C.3 0.0 **** 0.107
145 H20871 41.2313 23.847 46.2147 H 0.0 **** 0.1268
146 H20889 56.2588 16.6399 45.4413 H 0.0 **** 0.053
147 C20733 44.8 25.9535 36.571 C.3 0.0 **** -0.106
148 C20742 44.0556 22.3452 49.6763 C.3 0.0 **** 0.107
149 H20839 58.1573 22.5949 44.957 H 0.0 **** 0.053
150 C20767 36.7154 25.7168 39.1224 C.2 0.0 **** 0.0
151 S20703 52.5911 22.7893 45.8255 S.2 0.0 **** 0.024
152 C20705 49.2287 23.7297 43.8637 C.2 0.0 **** 0.0
153 C20666 54.7139 22.4627 53.8014 C.3 0.0 **** 0.107
154 H20870 40.8084 23.3376 49.7057 H 0.0 **** 0.053
155 C20729 48.8778 24.8132 37.2864 C.3 0.0 **** -0.106
156 C20682 50.2278 22.7676 47.9013 C.2 0.0 **** 0.0
157 H20888 57.0943 17.9552 44.5883 H 0.0 **** 0.053
158 C20701 49.8814 23.0579 46.5569 C.2 0.0 **** 0.0
159 H20877 41.1063 26.142 34.9279 H 0.0 **** 0.053
160 C20789 36.0108 26.4331 36.446 C.2 0.0 **** 0.0
161 C20686 54.258 22.5554 49.4871 C.2 0.0 **** 0.0
162 H20817 53.4261 22.6199 55.4993 H 0.0 **** 0.053
163 H20864 44.2265 20.204 49.8464 H 0.0 **** 0.053
164 C20791 32.6273 27.9628 33.2327 C.2 0.0 **** -0.1268
165 H20853 46.732 26.7258 37.1565 H 0.0 **** 0.053
166 C20771 56.0782 18.5891 46.4112 C.3 0.0 **** -0.053
167 H20899 38.3546 27.6464 32.2818 H 0.0 **** 0.053
168 H20873 43.8952 25.006 38.7797 H 0.0 **** 0.1268
169 C20670 52.0973 22.0898 52.6006 C.2 0.0 **** 0.0
170 C20708 46.8424 23.8426 44.4354 C.2 0.0 **** 0.0
171 H20830 59.4561 24.7775 49.1388 H 0.0 **** 0.053
172 C20792 31.6873 27.9805 34.2419 C.2 0.0 **** -0.1268
173 C20667 53.5625 21.9105 54.6607 C.3 0.0 **** -0.053
174 H20835 55.2738 20.7499 47.7251 H 0.0 **** 0.053
175 C20738 43.6677 23.4384 47.2373 C.2 0.0 **** 0.042
176 C20706 48.186 23.6163 44.8339 C.2 0.0 **** 0.0
177 O20665 55.9541 22.0575 54.4051 O.3 0.0 **** -0.32
178 C20697 57.1133 20.7452 45.4538 C.3 0.0 **** -0.106
179 C20692 58.6212 23.7883 47.3772 C.3 0.0 **** -0.106
180 C20755 43.131 24.9534 39.539 C.2 0.0 **** -0.1268
181 H20903 35.9152 26.9329 29.5297 H 0.0 **** 0.053
182 C20800 34.651 27.7691 31.0099 C.2 0.0 **** 0.347
183 C20788 35.6573 26.8022 35.1167 C.2 0.0 **** 0.0
184 H20805 56.6089 18.4754 52.5417 H 0.0 **** 0.053
185 C20798 37.1065 28.3339 30.6596 C.3 0.0 **** -0.106
186 C20679 51.0531 21.5872 54.831 C.3 0.0 **** -0.106
187 C20778 35.3742 26.072 38.8075 C.2 0.0 **** 0.0
188 H20829 56.7999 23.6928 53.0419 H 0.0 **** 0.1268
189 H20890 49.9103 25.8316 40.6783 H 0.0 **** 0.41
190 C20696 56.9374 19.8424 46.6799 C.3 0.0 **** -0.053
191 C20796 36.3146 27.2266 32.7788 C.2 0.0 **** 0.0
192 H20820 54.8302 21.0279 52.1935 H 0.0 **** 0.053
193 H20879 42.7197 24.434 35.0704 H 0.0 **** 0.053
194 H20861 43.2887 24.3517 49.767 H 0.0 **** 0.053
195 H20811 56.5916 20.5108 53.1858 H 0.0 **** 0.053
196 H20846 48.0224 23.4642 38.7229 H 0.0 **** 0.053
197 H20878 40.2723 24.891 33.9945 H 0.0 **** 0.053
198 C20784 31.0374 27.5928 36.6087 C.2 0.0 **** -0.1268
199 H20898 38.6675 26.1512 33.6178 H 0.0 **** 0.1268
200 C20795 34.9906 27.5457 32.4483 C.2 0.0 **** 0.052
201 H20851 48.9241 24.265 35.1558 H 0.0 **** 0.053
202 C20659 54.2154 17.3814 54.982 C.3 0.0 **** 0.054
203 C20713 45.9996 24.9995 40.4532 C.2 0.0 **** 0.042
204 C20687 56.7646 22.7908 49.2309 C.2 0.0 **** 0.0
205 H20816 54.7158 23.5604 53.8721 H 0.0 **** 0.053
206 H20892 33.9927 25.7159 41.9431 H 0.0 **** 0.1268
207 H20884 54.104 18.0271 45.6807 H 0.0 **** 0.053
208 H20847 48.0415 26.3873 39.526 H 0.0 **** 0.053
209 C20728 48.2778 25.3241 39.7385 C.3 0.0 **** 0.107
210 H20809 54.0073 16.853 55.9229 H 0.0 **** 0.053
211 H20887 57.7973 17.2808 46.0796 H 0.0 **** 0.053
212 C20710 47.6262 24.3935 42.146 C.2 0.0 **** 0.0
213 C20747 41.6711 22.9692 50.2818 C.3 0.0 **** -0.106
214 O20774 49.682 25.2063 39.9732 O.3 0.0 **** -0.57
215 C20746 41.5501 21.4514 50.5291 C.3 0.0 **** -0.106
216 H20886 54.1848 19.7075 46.2621 H 0.0 **** 0.053
217 C20754 41.812 25.068 39.1399 C.2 0.0 **** 0.0
218 C20656 56.5061 17.5548 53.1379 C.3 0.0 **** -0.106
219 H20897 30.6658 28.2986 34.023 H 0.0 **** 0.1268
220 C20719 46.0834 23.3378 46.746 C.2 0.0 **** 0.0
221 C20793 37.9343 26.2728 34.4107 C.2 0.0 **** -0.1268
222 C20663 57.3627 20.2952 55.1748 C.3 0.0 **** -0.106
223 H20867 42.0885 21.1805 51.4535 H 0.0 **** 0.053
224 H20813 58.1941 21.0038 55.0504 H 0.0 **** 0.053
225 H20862 44.3782 22.357 50.7271 H 0.0 **** 0.053
226 H20843 49.746 24.1208 41.8317 H 0.0 **** 0.1268
227 C20759 41.507 25.1941 37.6709 C.3 0.0 **** -0.053
228 H20825 50.8387 20.5002 54.8676 H 0.0 **** 0.053
229 C20718 45.7877 23.6888 45.3947 C.2 0.0 **** 0.0
230 H20808 53.2808 17.878 54.6468 H 0.0 **** 0.053
231 H20872 39.5557 24.3274 44.4586 H 0.0 **** 0.1268
232 H20827 57.522 25.268 51.0002 H 0.0 **** 0.053
233 C20684 55.6747 22.8098 51.4688 C.2 0.0 **** 0.0
234 O20801 33.5001 27.7783 30.5705 O.2 0.0 **** -0.419
235 C20698 58.1425 21.8336 45.7582 C.3 0.0 **** -0.106
236 H20859 44.3232 24.8409 33.7199 H 0.0 **** 0.053
237 C20675 50.6608 22.3407 50.6608 C.2 0.0 **** 0.232
238 C20770 37.3286 26.0273 36.7417 C.2 0.0 **** 0.0
239 C20722 43.5203 24.792 40.8828 C.2 0.0 **** 0.0
240 C20799 35.7946 27.9195 30.0143 C.3 0.0 **** -0.086
241 H20821 48.7065 22.504 52.4469 H 0.0 **** 0.053
242 H20882 41.0045 23.1341 37.2417 H 0.0 **** 0.053
243 H20902 37.0082 29.341 31.0971 H 0.0 **** 0.053
244 C20716 47.4607 23.1409 47.1469 C.2 0.0 **** 0.0
245 C20739 43.3612 23.7568 45.889 C.2 0.0 **** 0.0
246 C20721 44.4413 23.8847 44.9638 C.2 0.0 **** 0.0
247 H20895 30.0171 27.8967 36.3669 H 0.0 **** 0.1268
248 C20712 47.3211 24.8723 40.8374 C.2 0.0 **** 0.0
249 C20685 55.5439 22.6511 50.0228 C.2 0.0 **** 0.0
250 H20828 58.7221 24.1207 51.5374 H 0.0 **** 0.053
@<TRIPOS>BOND
1 209 208 1
2 246 245 un
3 110 13 1
4 131 171 1
5 79 7 1
6 46 48 un
7 89 218 1
8 99 89 1
9 202 99 1
10 109 202 1
11 16 218 1
12 16 109 1
13 43 31 1
14 222 43 1
15 44 222 1
16 99 31 1
17 89 44 1
18 153 177 1
19 173 153 1
20 127 173 1
21 43 177 1
22 31 127 1
23 169 68 un
24 29 169 un
25 17 29 un
26 173 68 1
27 153 17 1
28 34 61 1
29 237 34 un
30 79 237 un
31 29 61 un
32 169 79 un
33 116 7 1
34 186 116 1
35 68 186 1
36 137 62 1
37 156 137 un
38 107 156 un
39 237 62 1
40 34 107 un
41 249 233 un
42 161 249 2
43 17 233 1
44 61 161 un
45 13 204 2
46 14 110 1
47 249 204 1
48 233 14 2
49 179 131 1
50 88 179 1
51 90 88 2
52 13 131 1
53 204 90 1
54 190 15 1
55 178 190 1
56 235 178 1
57 90 15 1
58 88 235 1
59 130 39 un
60 161 130 un
61 107 39 un
62 85 158 un
63 151 85 1
64 39 151 un
65 156 158 un
66 152 136 un
67 176 152 un
68 1 176 un
69 85 136 un
70 158 1 un
71 35 170 un
72 212 35 un
73 114 212 un
74 176 170 un
75 152 114 un
76 203 248 un
77 117 203 un
78 59 117 un
79 212 248 un
80 35 59 un
81 143 244 un
82 137 143 un
83 1 244 un
84 220 229 un
85 244 220 un
86 170 229 un
87 246 125 un
88 229 246 un
89 59 125 un
90 19 239 un
91 46 19 un
92 125 46 un
93 117 239 un
94 54 75 1
95 120 54 1
96 209 120 1
97 203 75 1
98 248 209 1
99 106 155 1
100 6 106 1
101 126 6 1
102 120 155 1
103 54 126 1
104 72 147 1
105 32 72 1
106 28 32 1
107 126 147 1
108 6 28 1
109 175 102 un
110 245 175 un
111 220 102 un
112 144 24 1
113 148 144 1
114 41 148 1
115 175 24 1
116 102 41 1
117 135 132 1
118 215 135 1
119 213 215 1
120 148 132 1
121 144 213 1
122 36 48 un
123 245 36 un
124 51 23 un
125 12 51 un
126 48 12 un
127 19 23 un
128 217 92 un
129 180 217 un
130 239 180 un
131 23 92 un
132 123 27 1
133 10 123 un
134 51 27 1
135 92 10 1
136 63 227 1
137 55 63 1
138 217 227 1
139 10 55 un
140 80 95 1
141 33 80 1
142 87 33 1
143 63 95 1
144 227 87 1
145 150 50 1
146 8 150 1
147 123 8 un
148 55 50 un
149 95 82 1
150 50 238 un
151 82 238 un
152 190 166 1
153 166 94 1
154 166 141 1
155 209 214 1
156 11 105 1
157 3 11 un
158 187 3 1
159 8 105 un
160 150 187 un
161 118 134 un
162 86 118 1
163 67 86 un
164 187 134 un
165 3 67 un
166 198 69 un
167 58 198 1
168 103 58 1
169 86 69 un
170 118 103 un
171 183 78 un
172 160 183 un
173 134 160 un
174 103 78 un
175 164 97 un
176 172 164 un
177 58 172 un
178 78 97 un
179 93 221 un
180 183 93 un
181 238 160 un
182 82 221 un
183 191 200 un
184 93 191 un
185 97 200 un
186 185 142 1
187 240 185 1
188 182 240 1
189 191 142 1
190 200 182 1
191 182 234 2
192 16 128 1
193 16 42 1
194 218 53 1
195 218 184 1
196 89 60 1
197 99 40 1
198 202 230 1
199 202 210 1
200 31 30 1
201 43 195 1
202 222 108 1
203 222 224 1
204 44 113 1
205 44 52 1
206 153 205 1
207 173 162 1
208 127 119 1
209 127 104 1
210 17 192 1
211 7 241 1
212 7 81 1
213 116 9 1
214 116 25 1
215 186 228 1
216 186 77 1
217 110 232 1
218 110 250 1
219 14 188 1
220 131 64 1
221 179 91 1
222 179 57 1
223 15 22 1
224 15 174 1
225 190 101 1
226 178 138 1
227 178 38 1
228 235 149 1
229 235 47 1
230 130 133 1
231 136 73 1
232 114 226 1
233 143 98 1
234 54 129 1
235 120 196 1
236 155 65 1
237 155 74 1
238 106 83 1
239 106 201 1
240 6 18 1
241 126 165 1
242 147 20 1
243 147 76 1
244 72 21 1
245 72 37 1
246 32 56 1
247 32 236 1
248 28 2 1
249 144 194 1
250 148 225 1
251 132 49 1
252 132 163 1
253 135 115 1
254 135 140 1
255 215 223 1
256 215 45 1
257 213 26 1
258 213 154 1
259 36 145 1
260 12 231 1
261 180 168 1
262 227 111 1
263 63 139 1
264 95 122 1
265 80 159 1
266 80 197 1
267 33 193 1
268 33 66 1
269 87 71 1
270 87 242 1
271 166 4 1
272 94 207 1
273 94 5 1
274 94 216 1
275 141 211 1
276 141 157 1
277 141 146 1
278 214 189 1
279 105 112 1
280 11 206 1
281 67 100 1
282 69 124 1
283 198 247 1
284 164 96 1
285 172 219 1
286 221 199 1
287 142 167 1
288 142 70 1
289 185 84 1
290 185 243 1
291 240 181 1
292 240 121 1
@<TRIPOS>MOLECULE
Sketch 4
130 142
SMALL
USER_CHARGES


@<TRIPOS>ATOM
1 C5113 48.2139 55.1396 56.8457 C.3 0.0 **** -0.106
2 H5176 36.8604 56.0392 59.91 H 0.0 **** 0.053
3 C5080 33.113 60.2111 57.9025 C.3 0.0 **** -0.106
4 H5162 51.1199 58.446 56.5614 H 0.0 **** 0.053
5 C5084 36.5837 61.5832 57.0732 C.ar 0.0 **** 0.0
6 C5099 43.0689 60.5962 56.258 C.ar 0.0 **** 0.052
7 H5158 49.9006 53.7799 56.8659 H 0.0 **** 0.053
8 H5179 30.3961 57.7076 59.0986 H 0.0 **** 0.053
9 H5146 42.2098 65.5997 55.8657 H 0.0 **** 0.053
10 C5079 34.2267 61.1086 57.4292 C.ar 0.0 **** 0.0
11 H5153 45.6694 55.1056 57.2723 H 0.0 **** 0.053
12 H5145 43.1054 64.4938 56.9028 H 0.0 **** 0.053
13 H5159 51.5797 55.4107 55.991 H 0.0 **** 0.053
14 H5148 39.6698 66.3158 58.565 H 0.0 **** 0.053
15 O5136 41.471 57.3927 56.9425 O.2 0.0 **** -0.419
16 C5138 53.0024 59.9892 54.3049 C.3 0.0 **** -0.159
17 C5075 35.2079 57.3621 59.3623 C.ar 0.0 **** 0.0
18 C5073 33.508 58.9529 58.6359 C.ar 0.0 **** 0.0
19 H5183 35.229 65.4376 56.6347 H 0.0 **** 0.053
20 C5129 32.4304 62.784 56.8036 C.3 0.0 **** -0.159
21 C5139 51.9802 62.2635 52.6742 C.3 0.0 **** -0.159
22 C5112 47.7897 56.4911 56.3122 C.ar 0.0 **** 0.0
23 O5137 45.3293 61.0481 55.7811 O.2 0.0 **** -0.419
24 C5087 38.6947 63.3192 56.3822 C.ar 0.0 **** 0.0
25 H5180 32.2488 63.4678 55.9648 H 0.0 **** 0.053
26 H5190 43.6583 66.0287 58.7353 H 0.0 **** 0.053
27 H5156 47.4332 54.3932 56.6321 H 0.0 **** 0.053
28 H5197 53.3726 59.1022 53.7629 H 0.0 **** 0.053
29 H5154 45.4097 56.5194 58.2972 H 0.0 **** 0.053
30 H5141 36.4418 58.7889 57.3062 H 0.0 **** 0.053
31 H5189 41.1151 68.0772 56.5064 H 0.0 **** 0.053
32 H5171 30.9859 56.868 61.0201 H 0.0 **** 0.053
33 C5091 41.3978 62.4314 56.4093 C.ar 0.0 **** 0.0
34 H5182 31.7954 61.9026 56.6515 H 0.0 **** 0.053
35 H5186 37.8864 65.0678 54.9244 H 0.0 **** 0.41
36 H5185 34.4828 64.9259 55.1237 H 0.0 **** 0.053
37 C5076 34.2146 56.5712 59.9676 C.ar 0.0 **** 0.0
38 H5174 37.2603 57.7636 59.9101 H 0.0 **** 0.053
39 C5092 40.3579 61.485 56.6451 C.ar 0.0 **** 0.0
40 C5125 35.0551 55.5077 62.1075 C.3 0.0 **** -0.159
41 H5196 53.5883 60.8514 53.9665 H 0.0 **** 0.053
42 H5144 38.1135 60.1048 57.3411 H 0.0 **** 0.1268
43 C5085 37.9114 61.1292 57.0742 C.ar 0.0 **** -0.1268
44 H5198 52.5901 62.7923 53.4251 H 0.0 **** 0.053
45 H5164 47.6732 60.7207 53.6671 H 0.0 **** 0.1268
46 C5105 44.0551 56.3856 56.6201 C.3 0.0 **** -0.106
47 H5193 44.5593 62.2144 55.7022 H 0.0 **** 0.41
48 H5151 43.2621 55.8943 57.198 H 0.0 **** 0.053
49 C5083 36.2549 62.8911 56.57 C.ar 0.0 **** 0.0
50 C5097 40.7136 60.0903 56.7527 C.ar 0.0 **** 0.042
51 C5104 42.3727 58.2694 56.6864 C.2 0.0 **** 0.367
52 C5081 33.8907 62.4036 56.9068 C.ar 0.0 **** 0.0
53 C5096 39.5669 65.758 56.4854 C.3 0.0 **** -0.106
54 C5119 49.2166 59.4779 54.4983 C.ar 0.0 **** 0.0
55 C5124 34.5813 55.2774 60.6637 C.3 0.0 **** -0.106
56 C5121 49.6562 61.4448 53.1699 C.ar 0.0 **** -0.1268
57 C5107 46.4763 56.9552 56.4919 C.ar 0.0 **** 0.0
58 C5115 50.5899 55.7745 56.3094 C.3 0.0 **** -0.106
59 H5188 39.4632 68.343 57.1086 H 0.0 **** 0.053
60 C5103 43.7533 57.8505 56.4942 C.ar 0.0 **** 0.0
61 C5072 32.5105 58.1706 59.2509 C.ar 0.0 **** 0.0
62 C5118 50.6053 59.2849 54.653 C.ar 0.0 **** 0.0
63 H5149 39.9569 66.2283 55.5618 H 0.0 **** 0.053
64 H5191 42.4532 67.1765 59.3701 H 0.0 **** 0.053
65 C5111 48.709 57.3193 55.6524 C.ar 0.0 **** 0.0
66 C5071 32.8706 57.0047 59.9516 C.ar 0.0 **** 0.0
67 H5178 30.745 59.164 60.0445 H 0.0 **** 0.053
68 H5165 49.2914 62.2941 52.5882 H 0.0 **** 0.1268
69 N5109 47.0057 58.9912 55.3009 N.ar 0.0 **** -0.481
70 O5135 39.8019 59.1594 57.0216 O.3 0.0 **** -0.452
71 C5102 44.7592 58.7398 56.1714 C.ar 0.0 **** 0.0
72 H5172 32.2179 55.7354 61.59 H 0.0 **** 0.053
73 H5157 49.4174 54.3134 55.2473 H 0.0 **** 0.053
74 C5132 40.4452 67.9171 57.3664 C.3 0.0 **** -0.159
75 H5170 35.2955 54.5578 62.6098 H 0.0 **** 0.053
76 C5086 38.9853 61.9474 56.7277 C.ar 0.0 **** 0.0
77 C5127 36.6707 56.9868 59.3957 C.3 0.0 **** -0.159
78 H5168 34.276 56.022 62.6908 H 0.0 **** 0.053
79 C5098 42.0515 59.6652 56.5714 C.ar 0.0 **** 0.052
80 C5074 34.8456 58.5577 58.7099 C.ar 0.0 **** 0.0
81 C5116 50.1429 56.9162 55.3971 C.3 0.0 **** -0.053
82 H5152 44.0361 55.9367 55.6092 H 0.0 **** 0.053
83 C5089 39.7728 64.2643 56.3839 C.2 0.0 **** 0.0
84 C5128 31.0582 58.5818 59.1597 C.3 0.0 **** -0.159
85 H5181 32.0733 63.2839 57.7213 H 0.0 **** 0.053
86 C5106 45.4314 56.1761 57.2454 C.3 0.0 **** -0.106
87 C5094 41.6541 65.7037 57.9645 C.ar 0.0 **** -0.053
88 H5166 35.3679 54.7574 60.0973 H 0.0 **** 0.053
89 H5173 31.3717 55.4262 60.0635 H 0.0 **** 0.053
90 H5199 51.4182 63.0167 52.1055 H 0.0 **** 0.053
91 C5120 48.7492 60.57 53.7548 C.ar 0.0 **** -0.1268
92 H5167 33.722 54.5929 60.6655 H 0.0 **** 0.053
93 H5142 32.4894 59.9321 57.0305 H 0.0 **** 0.053
94 C5095 40.3109 66.4227 57.6758 C.ar 0.0 **** -0.053
95 H5194 40.345 58.2449 57.0308 H 0.0 **** 0.41
96 C5114 49.5552 54.6506 56.2882 C.3 0.0 **** -0.106
97 C5101 44.4412 60.1777 56.0467 C.2 0.0 **** 0.367
98 C5130 34.5017 64.7365 56.2085 C.3 0.0 **** -0.159
99 C5090 41.0917 63.834 56.4404 C.2 0.0 **** 0.0
100 H5160 50.6991 56.1595 57.3387 H 0.0 **** 0.053
101 C5082 34.8797 63.3088 56.5351 C.ar 0.0 **** 0.0
102 O5134 43.6812 62.8213 55.7652 O.3 0.0 **** -0.452
103 C5077 35.9363 59.3828 58.0926 C.3 0.0 **** -0.106
104 H5175 37.0887 56.9126 58.3783 H 0.0 **** 0.053
105 H5143 32.4335 60.8021 58.5397 H 0.0 **** 0.053
106 H5147 41.4606 64.9522 58.7475 H 0.0 **** 0.053
107 C5110 48.2681 58.5701 55.1698 C.ar 0.0 **** 0.2405
108 H5195 53.2262 59.8257 55.3701 H 0.0 **** 0.053
109 H5163 52.0879 57.8176 55.2246 H 0.0 **** 0.053
110 H5155 48.2732 55.2014 57.9474 H 0.0 **** 0.053
111 C5122 51.0417 61.275 53.3204 C.ar 0.0 **** 0.0
112 C5100 42.7428 61.9643 56.148 C.ar 0.0 **** 0.042
113 C5078 35.5426 60.7148 57.5247 C.ar 0.0 **** 0.0
114 H5177 30.8624 59.2045 58.278 H 0.0 **** 0.053
115 C5123 51.521 60.1885 54.0824 C.ar 0.0 **** 0.0
116 H5161 50.1942 56.5566 54.3495 H 0.0 **** 0.053
117 H5169 35.9514 56.1456 62.1226 H 0.0 **** 0.053
118 H5192 43.0644 67.3541 57.7091 H 0.0 **** 0.053
119 C5133 42.7686 66.6207 58.474 C.3 0.0 **** -0.159
120 C5093 42.1137 64.9102 56.7249 C.3 0.0 **** -0.106
121 H5187 40.8479 68.4803 58.2195 H 0.0 **** 0.053
122 C5126 31.8094 56.2202 60.6938 C.3 0.0 **** -0.159
123 H5200 52.682 61.7663 51.9856 H 0.0 **** 0.053
124 O5131 37.0679 64.79 55.3655 O.3 0.0 **** -0.452
125 C5088 37.3475 63.6744 56.1227 C.ar 0.0 **** 0.042
126 H5150 38.5107 66.0314 56.5684 H 0.0 **** 0.053
127 C5117 51.0709 58.1279 55.5017 C.3 0.0 **** -0.106
128 C5108 46.1298 58.224 55.9651 C.ar 0.0 **** 0.2405
129 H5140 36.7282 59.5469 58.8442 H 0.0 **** 0.053
130 H5184 33.5163 64.9862 56.6178 H 0.0 **** 0.053
@<TRIPOS>BOND
1 43 42 1
2 37 17 am
3 39 50 am
4 18 61 am
5 80 18 am
6 17 80 am
7 66 61 am
8 66 37 am
9 113 103 1
10 10 113 am
11 3 10 1
12 80 103 1
13 18 3 1
14 101 52 am
15 49 101 am
16 5 49 am
17 10 52 am
18 113 5 am
19 76 43 am
20 24 76 am
21 125 24 am
22 5 43 am
23 49 125 am
24 99 83 1
25 33 99 1
26 39 33 am
27 24 83 1
28 76 39 am
29 87 120 1
30 94 87 am
31 53 94 1
32 99 120 1
33 83 53 1
34 79 50 am
35 6 79 am
36 112 6 am
37 33 112 am
38 71 97 1
39 60 71 am
40 51 60 1
41 6 97 1
42 79 51 1
43 86 46 1
44 57 86 1
45 128 57 am
46 60 46 1
47 71 128 am
48 107 69 am
49 65 107 am
50 22 65 am
51 128 69 am
52 57 22 am
53 96 1 1
54 58 96 1
55 81 58 1
56 22 1 1
57 65 81 1
58 62 127 1
59 54 62 am
60 107 54 am
61 81 127 1
62 56 91 am
63 111 56 am
64 115 111 am
65 54 91 am
66 62 115 am
67 37 55 1
68 55 40 1
69 66 122 1
70 17 77 1
71 61 84 1
72 52 20 1
73 101 98 1
74 125 124 1
75 94 74 1
76 87 119 1
77 112 102 1
78 50 70 1
79 51 15 2
80 97 23 2
81 115 16 1
82 111 21 1
83 103 129 1
84 103 30 1
85 3 93 1
86 3 105 1
87 120 12 1
88 120 9 1
89 87 106 1
90 94 14 1
91 53 63 1
92 53 126 1
93 46 48 1
94 46 82 1
95 86 11 1
96 86 29 1
97 1 110 1
98 1 27 1
99 96 73 1
100 96 7 1
101 58 13 1
102 58 100 1
103 81 116 1
104 127 4 1
105 127 109 1
106 91 45 1
107 56 68 1
108 55 88 1
109 55 92 1
110 40 78 1
111 40 117 1
112 40 75 1
113 122 32 1
114 122 72 1
115 122 89 1
116 77 38 1
117 77 104 1
118 77 2 1
119 84 114 1
120 84 67 1
121 84 8 1
122 20 25 1
123 20 85 1
124 20 34 1
125 98 19 1
126 98 130 1
127 98 36 1
128 124 35 1
129 74 121 1
130 74 59 1
131 74 31 1
132 119 26 1
133 119 64 1
134 119 118 1
135 102 47 1
136 70 95 1
137 16 108 1
138 16 41 1
139 16 28 1
140 21 44 1
141 21 90 1
142 21 123 1
@<TRIPOS>MOLECULE
Sketch 4
250 292
SMALL
USER_CHARGES


@<TRIPOS>ATOM
1 C17674 33.8949 58.0213 32.5804 C.2 0.0 **** 0.0
2 C17689 27.6704 59.032 32.6713 C.3 0.0 **** -0.106
3 C17767 47.6044 46.1375 27.9082 C.2 0.0 **** 0.0
4 C17739 41.5026 52.6395 31.6881 C.2 0.0 **** 0.0
5 C17701 35.803 55.6553 30.3215 C.2 0.0 **** 0.0
6 H17819 31.3013 62.8935 37.2745 H 0.0 **** 0.053
7 C17659 33.0838 65.2338 35.1013 C.3 0.0 **** 0.054
8 C17780 50.1345 43.4281 27.2913 C.2 0.0 **** 0.0
9 H17864 41.6439 57.5148 33.9779 H 0.0 **** 0.053
10 H17807 31.2987 65.0434 36.3106 H 0.0 **** 0.053
11 H17813 28.0053 63.4574 35.1982 H 0.0 **** 0.053
12 H17841 31.2811 57.8156 29.7022 H 0.0 **** 0.1268
13 H17894 52.5626 42.6561 29.6109 H 0.0 **** 0.1268
14 C17710 37.8789 52.0538 27.314 C.2 0.0 **** 0.0
15 C17796 48.1866 42.2514 22.6889 C.2 0.0 **** 0.0
16 H17881 43.324 49.3461 23.8737 H 0.0 **** 0.053
17 C17766 46.8451 46.0626 26.7063 C.2 0.0 **** 0.0
18 H17877 44.0122 45.6007 23.0233 H 0.0 **** 0.053
19 C17750 43.6809 49.2858 28.5567 C.2 0.0 **** 0.0
20 H17856 39.8325 45.8561 22.445 H 0.0 **** 0.053
21 C17697 30.3482 59.6106 26.6518 C.3 0.0 **** -0.106
22 H17814 28.7305 65.9671 35.0559 H 0.0 **** 0.053
23 C17738 41.1776 53.5365 32.7384 C.2 0.0 **** 0.042
24 H17865 43.9912 57.1649 34.0731 H 0.0 **** 0.053
25 C17733 40.5329 47.6198 23.4672 C.3 0.0 **** -0.106
26 H17885 33.0378 59.8622 26.1073 H 0.0 **** 0.053
27 H17806 30.8654 66.5623 34.41 H 0.0 **** 0.053
28 C17727 38.0219 50.6147 23.9137 C.3 0.0 **** -0.053
29 H17904 48.869 39.4014 20.1104 H 0.0 **** 0.053
30 H17878 45.3972 46.0409 22.0135 H 0.0 **** 0.053
31 H17834 30.7092 61.2382 29.6678 H 0.0 **** 0.053
32 H17902 46.9211 40.0102 21.6142 H 0.0 **** 0.053
33 H17896 51.4313 39.846 23.5678 H 0.0 **** 0.1268
34 O17680 36.0651 57.4694 33.5203 O.3 0.0 **** -0.464
35 C17788 48.6463 43.3038 24.8705 C.2 0.0 **** 0.0
36 C17716 37.8806 55.0117 31.5396 C.2 0.0 **** 0.0
37 C17692 27.4956 58.2335 28.9321 C.3 0.0 **** -0.106
38 H17873 41.4459 48.9908 25.4373 H 0.0 **** 0.1268
39 C17752 44.2259 50.2456 30.7331 C.2 0.0 **** -0.1268
40 C17761 45.6741 46.8251 26.5793 C.2 0.0 **** 0.0
41 C17667 31.8761 60.9949 36.372 C.3 0.0 **** -0.053
42 H17838 30.424 59.8745 25.5858 H 0.0 **** 0.053
43 H17870 43.4799 53.6327 35.7332 H 0.0 **** 0.053
44 C17785 51.5624 41.5863 26.5068 C.2 0.0 **** 0.0
45 H17891 47.7418 47.813 30.92 H 0.0 **** 0.1268
46 C17681 36.3133 56.6349 32.4576 C.2 0.0 **** 0.232
47 C17759 43.6747 47.6103 25.1283 C.3 0.0 **** -0.053
48 C17704 35.3127 54.631 28.1527 C.2 0.0 **** -0.1268
49 H17828 26.7228 59.5899 32.8039 H 0.0 **** 0.053
50 H17875 44.2887 45.5955 25.5894 H 0.0 **** 0.053
51 S17703 33.558 56.4995 28.8394 S.2 0.0 **** 0.024
52 H17868 44.5077 55.7623 36.0593 H 0.0 **** 0.053
53 H17835 31.7113 59.877 29.2235 H 0.0 **** 0.053
54 H17827 27.4124 57.9977 32.9893 H 0.0 **** 0.053
55 C17711 36.7614 52.8998 27.2417 C.2 0.0 **** -0.1268
56 C17672 31.1382 60.2633 33.9975 C.3 0.0 **** -0.053
57 C17735 40.747 47.2153 20.9854 C.3 0.0 **** 0.081
58 C17714 40.3239 50.5441 27.3934 C.2 0.0 **** 0.0
59 C17686 31.6648 58.6684 31.6594 C.2 0.0 **** 0.0
60 C17782 50.5514 44.4473 29.4785 C.2 0.0 **** -0.1268
61 C17799 48.7384 40.4138 20.5184 C.3 0.0 **** -0.086
62 C17721 40.5955 52.5286 30.5908 C.2 0.0 **** 0.0
63 H17831 26.5655 59.9137 29.9438 H 0.0 **** 0.053
64 H17901 46.6443 40.691 19.9965 H 0.0 **** 0.053
65 H17884 34.1439 61.0432 26.8395 H 0.0 **** 0.053
66 C17715 40.0059 51.451 28.4431 C.2 0.0 **** 0.0
67 C17747 42.7738 54.4579 35.9131 C.3 0.0 **** -0.106
68 H17849 36.5111 51.0321 22.4243 H 0.0 **** 0.053
69 C17787 49.7306 42.4034 25.0715 C.2 0.0 **** 0.0
70 C17783 51.9886 42.5952 28.6845 C.2 0.0 **** -0.1268
71 C17676 34.6557 58.8568 34.7709 C.2 0.0 **** 0.0
72 H17869 42.4243 54.3597 36.9517 H 0.0 **** 0.053
73 H17852 38.2866 47.8049 21.4465 H 0.0 **** 0.053
74 C17749 42.6818 51.8813 31.7343 C.2 0.0 **** -0.1268
75 C17675 34.8506 58.1179 33.6371 C.2 0.0 **** 0.232
76 C17746 43.4674 55.8201 35.7065 C.3 0.0 **** -0.106
77 H17854 41.3812 48.3217 23.3909 H 0.0 **** 0.053
78 C17791 51.162 40.5742 24.3252 C.2 0.0 **** -0.1268
79 C17798 47.299 40.7404 20.8799 C.3 0.0 **** -0.106
80 C17786 50.4733 42.4716 26.2891 C.2 0.0 **** 0.0
81 H17855 40.5794 47.1866 24.4755 H 0.0 **** 0.053
82 H17845 40.1746 50.2879 23.7564 H 0.0 **** 0.053
83 H17895 53.1374 40.9804 27.8711 H 0.0 **** 0.1268
84 H17839 28.7178 58.1713 26.4829 H 0.0 **** 0.053
85 C17768 47.231 47.0466 28.9475 C.2 0.0 **** 0.0
86 H17805 30.7956 64.1395 32.5622 H 0.0 **** 0.053
87 H17843 36.1142 52.8678 26.3708 H 0.0 **** 0.1268
88 O17665 29.6874 61.5602 35.5374 O.3 0.0 **** -0.32
89 C17696 30.713 60.8039 27.542 C.3 0.0 **** -0.053
90 H17867 42.9693 56.5889 36.3217 H 0.0 **** 0.053
91 C17744 41.9463 56.4736 33.7932 C.3 0.0 **** -0.106
92 C17726 39.2782 49.7224 24.0729 C.3 0.0 **** 0.107
93 C17775 48.0227 47.1047 30.1407 C.2 0.0 **** -0.1268
94 C17668 31.9515 62.5478 36.4554 C.3 0.0 **** -0.106
95 C17664 29.2227 65.1418 34.5197 C.3 0.0 **** -0.106
96 C17754 43.2571 48.388 26.3482 C.2 0.0 **** 0.0
97 C17793 46.8952 44.2393 23.4485 C.2 0.0 **** -0.1268
98 C17731 38.9375 48.6352 21.7698 C.3 0.0 **** 0.134
99 H17872 44.8997 50.3368 31.5857 H 0.0 **** 0.1268
100 C17778 48.7142 45.2664 28.0921 C.2 0.0 **** 0.0
101 C17722 41.5957 49.8645 27.3928 C.2 0.0 **** 0.0
102 C17684 30.0201 59.6844 33.1633 C.2 0.0 **** 0.0
103 C17707 37.0076 54.8713 30.4084 C.2 0.0 **** 0.0
104 H17893 51.1322 44.493 30.4024 H 0.0 **** 0.1268
105 H17886 33.3118 59.8483 27.8631 H 0.0 **** 0.053
106 O17756 45.7213 48.6949 29.7622 O.3 0.0 **** -0.0685
107 H17882 45.0225 49.0515 24.2413 H 0.0 **** 0.053
108 N17736 40.1341 48.5512 20.9314 N.3 0.0 **** -0.727
109 H17846 38.3479 51.6606 23.7979 H 0.0 **** 0.053
110 O17743 39.8136 55.2436 33.6944 O.3 0.0 **** -0.202
111 H17837 31.0612 58.791 26.8389 H 0.0 **** 0.053
112 C17671 32.4026 59.4387 33.9079 C.2 0.0 **** 0.0
113 H17890 35.422 51.0033 25.7977 H 0.0 **** 0.41
114 H17826 33.7874 60.7341 38.0805 H 0.0 **** 0.053
115 H17817 31.6011 60.6634 37.3917 H 0.0 **** 0.053
116 O17660 33.3106 65.8737 33.8397 O.3 0.0 **** -0.32
117 C17712 38.1322 51.0345 26.3488 C.2 0.0 **** 0.0
118 C17792 51.8722 40.6385 25.5059 C.2 0.0 **** -0.1268
119 H17810 32.1372 62.8988 34.3486 H 0.0 **** 0.053
120 H17848 36.6082 49.329 22.8787 H 0.0 **** 0.053
121 H17900 47.5378 42.8839 20.7335 H 0.0 **** 0.053
122 C17730 38.1842 49.9444 21.516 C.3 0.0 **** -0.106
123 H17829 28.4372 59.9048 34.5656 H 0.0 **** 0.1268
124 C17755 42.0586 49.077 26.3208 C.2 0.0 **** -0.1268
125 C17794 47.8916 43.252 23.6664 C.2 0.0 **** 0.0
126 H17851 37.6757 49.8896 20.5436 H 0.0 **** 0.053
127 H17880 44.8505 48.321 21.9623 H 0.0 **** 0.053
128 C17770 47.2365 45.1521 25.6646 C.2 0.0 **** 0.0
129 H17859 41.7907 47.3172 20.6527 H 0.0 **** 0.053
130 H17804 30.7602 65.8596 32.1468 H 0.0 **** 0.053
131 H17876 46.3453 47.237 24.09 H 0.0 **** 0.053
132 H17823 35.9559 59.4265 37.9306 H 0.0 **** 0.053
133 C17728 37.2278 50.5368 25.2256 C.3 0.0 **** 0.107
134 H17857 41.5951 45.9496 22.5641 H 0.0 **** 0.053
135 H17825 34.885 61.3883 36.8649 H 0.0 **** 0.053
136 C17769 46.589 45.1879 24.3983 C.2 0.0 **** 0.0
137 C17670 33.3987 59.5592 34.9426 C.2 0.0 **** 0.0
138 H17847 37.0374 49.4612 25.4212 H 0.0 **** 0.053
139 H17821 36.3168 58.0221 35.8455 H 0.0 **** 0.053
140 C17763 44.8144 46.347 22.8939 C.3 0.0 **** -0.106
141 C17655 32.7288 65.1193 32.771 C.3 0.0 **** 0.054
142 C17708 38.5108 53.1544 29.4468 C.2 0.0 **** 0.0
143 H17861 40.817 53.6035 35.4296 H 0.0 **** 0.053
144 C17666 30.7235 60.5677 35.4457 C.3 0.0 **** 0.107
145 H17862 40.5163 56.0523 35.4004 H 0.0 **** 0.053
146 H17866 43.8602 55.4576 33.6163 H 0.0 **** 0.053
147 C17694 29.5997 59.4402 29.3838 C.2 0.0 **** 0.0
148 H17887 31.0551 63.0611 25.9769 H 0.0 **** 0.053
149 H17809 33.3631 65.9838 35.8546 H 0.0 **** 0.053
150 C17779 49.0495 44.3142 27.0933 C.2 0.0 **** 0.0
151 H17888 31.6127 61.6713 25.0123 H 0.0 **** 0.053
152 C17656 31.1842 65.1286 32.8522 C.3 0.0 **** -0.106
153 C17693 28.7303 58.9626 28.4619 C.2 0.0 **** 0.0
154 C17745 43.4081 56.2466 34.2354 C.3 0.0 **** -0.106
155 C17683 34.2 57.2913 31.4252 C.2 0.0 **** 0.0
156 C17765 44.0773 48.5507 23.9779 C.3 0.0 **** -0.106
157 H17832 26.7367 58.2196 28.1343 H 0.0 **** 0.053
158 C17784 52.3065 41.6729 27.723 C.2 0.0 **** -0.1268
159 H17874 42.7908 47.0604 24.7707 H 0.0 **** 0.053
160 C17700 32.0178 57.9155 30.499 C.2 0.0 **** -0.1268
161 H17836 29.9044 61.5507 27.4331 H 0.0 **** 0.053
162 C17702 34.9807 55.5159 29.1465 C.2 0.0 **** -0.012
163 H17818 32.9751 62.8663 36.702 H 0.0 **** 0.053
164 H17833 27.7441 57.179 29.1598 H 0.0 **** 0.053
165 H17879 43.2285 47.6597 22.1941 H 0.0 **** 0.053
166 H17892 49.6962 46.3292 31.2184 H 0.0 **** 0.1268
167 C17762 45.6744 46.3565 24.1525 C.3 0.0 **** -0.053
168 H17811 29.8996 62.6308 33.7784 H 0.0 **** 0.053
169 C17772 33.1959 60.5047 26.9873 C.3 0.0 **** -0.159
170 C17695 30.7432 60.3537 29.0069 C.3 0.0 **** -0.106
171 O17774 35.9751 51.1933 25.0243 O.3 0.0 **** -0.57
172 H17858 40.2382 46.5719 20.2476 H 0.0 **** 0.053
173 C17723 42.457 50.0111 28.5209 C.2 0.0 **** 0.0
174 H17889 32.7906 62.8573 25.6136 H 0.0 **** 0.053
175 C17662 30.0237 62.7852 34.8677 C.3 0.0 **** 0.107
176 H17824 34.5445 58.4162 37.5456 H 0.0 **** 0.053
177 C17790 50.0795 41.4586 24.0613 C.2 0.0 **** 0.0
178 C17718 39.401 53.3092 30.5603 C.2 0.0 **** 0.0
179 C17753 44.0673 48.4622 27.4887 C.2 0.0 **** 0.0
180 H17899 46.2367 42.3724 21.8125 H 0.0 **** 0.053
181 H17822 36.4427 59.7528 35.5395 H 0.0 **** 0.053
182 C17706 37.3355 53.9476 29.3781 C.2 0.0 **** 0.0
183 C17719 39.0988 54.2318 31.6063 C.2 0.0 **** 0.0
184 C17677 35.7322 58.953 35.822 C.3 0.0 **** -0.106
185 H17903 49.0938 41.1155 19.7412 H 0.0 **** 0.053
186 C17742 40.9507 55.5493 34.5248 C.3 0.0 **** 0.107
187 C17717 37.4839 55.914 32.5483 C.2 0.0 **** -0.1268
188 C17776 49.1017 46.2812 30.3044 C.2 0.0 **** -0.1268
189 C17713 39.3259 50.3394 26.3942 C.2 0.0 **** 0.042
190 C17789 48.302 44.2527 25.8752 C.2 0.0 **** 0.0
191 C17657 30.7162 65.4805 34.2794 C.3 0.0 **** -0.053
192 H17808 33.7712 64.3677 35.2001 H 0.0 **** 0.053
193 O17740 42.0704 53.5742 33.7845 O.3 0.0 **** -0.202
194 H17830 26.1073 58.3395 30.6175 H 0.0 **** 0.053
195 C17669 33.1828 60.3409 36.0663 C.2 0.0 **** 0.0
196 C17737 40.0441 54.3331 32.6875 C.2 0.0 **** 0.042
197 C17797 47.262 42.1328 21.4978 C.3 0.0 **** -0.106
198 H17844 38.0869 56.0609 33.4322 H 0.0 **** 0.1268
199 C17800 49.7028 40.5502 21.6901 C.2 0.0 **** 0.347
200 H17871 43.3491 51.9837 32.5886 H 0.0 **** 0.1268
201 C17682 35.4311 56.5398 31.3661 C.2 0.0 **** 0.0
202 H17863 41.8464 56.2952 32.7127 H 0.0 **** 0.053
203 H17842 34.6778 54.5279 27.2698 H 0.0 **** 0.1268
204 C17795 49.2975 41.4112 22.8428 C.2 0.0 **** 0.052
205 C17777 49.478 45.3264 29.3023 C.2 0.0 **** 0.0
206 C17690 28.7345 59.5831 33.5688 C.2 0.0 **** -0.1268
207 C17729 37.215 50.2265 22.6688 C.3 0.0 **** -0.106
208 H17897 52.6954 39.9422 25.6796 H 0.0 **** 0.1268
209 C17663 29.0286 63.8406 35.3194 C.3 0.0 **** -0.106
210 C17699 33.2269 57.2771 30.3716 C.2 0.0 **** -0.012
211 C17764 44.217 47.7578 22.6647 C.3 0.0 **** -0.106
212 O17801 50.7974 39.9918 21.6029 O.2 0.0 **** -0.419
213 H17816 30.2665 59.6508 35.846 H 0.0 **** 0.053
214 H17853 38.3952 47.8203 23.716 H 0.0 **** 0.053
215 C17673 32.6426 58.7198 32.7499 C.2 0.0 **** 0.0
216 C17724 42.1161 50.8765 29.5908 C.2 0.0 **** 0.0
217 C17687 29.3362 59.1954 30.8203 C.2 0.0 **** 0.0
218 C17751 44.5371 49.4131 29.694 C.2 0.0 **** 0.042
219 C17781 50.8964 43.4989 28.5021 C.2 0.0 **** 0.0
220 C17757 46.0766 47.8287 28.7537 C.2 0.0 **** 0.0265
221 H17883 32.287 62.1899 27.9664 H 0.0 **** 0.053
222 H17898 46.3858 44.2798 22.4895 H 0.0 **** 0.1268
223 C17658 31.6195 64.7608 35.294 C.3 0.0 **** -0.053
224 C17732 39.2255 48.4102 23.2922 C.3 0.0 **** -0.053
225 C17698 28.9353 59.1317 26.9849 C.3 0.0 **** -0.106
226 H17802 33.0887 65.5835 31.8427 H 0.0 **** 0.053
227 C17685 30.3928 59.2184 31.8301 C.2 0.0 **** 0.0
228 C17691 26.9533 58.906 30.1966 C.3 0.0 **** -0.106
229 H17803 33.1142 64.0806 32.8046 H 0.0 **** 0.053
230 C17734 40.6874 46.5488 22.3886 C.3 0.0 **** -0.106
231 C17741 41.5882 54.2438 34.9698 C.3 0.0 **** 0.107
232 C17773 31.8632 62.321 25.866 C.3 0.0 **** -0.159
233 H17812 29.1801 64.0218 36.3958 H 0.0 **** 0.053
234 C17720 40.9096 51.6234 29.5438 C.2 0.0 **** 0.0
235 C17748 43.0148 51.0057 30.701 C.2 0.0 **** 0.0
236 C17760 44.7847 46.5668 25.3922 C.3 0.0 **** -0.053
237 C17688 28.0421 59.0379 31.2246 C.2 0.0 **** 0.0
238 H17840 28.1887 59.8455 26.5853 H 0.0 **** 0.053
239 C17678 35.1483 59.2705 37.1991 C.3 0.0 **** -0.106
240 C17705 36.4739 53.8194 28.2455 C.2 0.0 **** 0.0
241 O17725 39.4902 49.3386 25.461 O.3 0.0 **** -0.202
242 C17758 45.2922 47.7068 27.594 C.2 0.0 **** 0.0
243 H17820 31.4126 61.2193 33.5071 H 0.0 **** 0.053
244 C17771 32.0345 61.4947 27.1449 C.3 0.0 **** -0.053
245 C17661 31.4834 63.2283 35.1719 C.3 0.0 **** -0.053
246 C17709 38.8008 52.2141 28.4109 C.2 0.0 **** 0.0
247 C17679 34.2543 60.5093 37.1066 C.3 0.0 **** -0.106
248 H17850 38.9124 50.7725 21.4443 H 0.0 **** 0.053
249 H17860 40.807 49.2558 21.236 H 0.0 **** 0.353
250 H17815 28.7138 65.0539 33.5458 H 0.0 **** 0.053
@<TRIPOS>BOND
1 153 225 1
2 94 41 1
3 41 115 1
4 191 152 1
5 223 191 1
6 7 223 1
7 116 7 1
8 141 152 1
9 141 116 1
10 175 245 1
11 209 175 1
12 95 209 1
13 223 245 1
14 191 95 1
15 144 88 1
16 41 144 1
17 175 88 1
18 245 94 1
19 137 195 un
20 112 137 un
21 56 112 un
22 41 195 1
23 144 56 1
24 1 215 1
25 75 1 un
26 71 75 un
27 112 215 un
28 137 71 un
29 239 184 1
30 247 239 1
31 195 247 1
32 71 184 1
33 46 34 1
34 201 46 un
35 155 201 un
36 75 34 1
37 1 155 un
38 227 102 un
39 59 227 2
40 56 102 1
41 215 59 un
42 237 217 2
43 2 237 1
44 206 2 1
45 227 217 1
46 102 206 2
47 37 228 1
48 153 37 1
49 147 153 2
50 237 228 1
51 217 147 1
52 89 170 1
53 21 89 1
54 225 21 1
55 147 170 1
56 160 210 un
57 59 160 un
58 155 210 un
59 162 5 un
60 51 162 1
61 210 51 un
62 201 5 un
63 240 48 un
64 182 240 un
65 103 182 un
66 162 48 un
67 5 103 un
68 246 142 un
69 14 246 un
70 55 14 un
71 182 142 un
72 240 55 un
73 189 117 un
74 58 189 un
75 66 58 un
76 14 117 un
77 246 66 un
78 187 36 un
79 46 187 un
80 103 36 un
81 183 178 un
82 36 183 un
83 142 178 un
84 62 234 un
85 178 62 un
86 66 234 un
87 173 101 un
88 216 173 un
89 234 216 un
90 58 101 un
91 92 241 1
92 28 92 1
93 133 28 1
94 189 241 1
95 117 133 1
96 122 207 1
97 98 122 1
98 224 98 1
99 28 207 1
100 92 224 1
101 230 25 1
102 57 230 1
103 108 57 1
104 224 25 1
105 98 108 1
106 23 196 un
107 4 23 un
108 62 4 un
109 183 196 un
110 231 193 1
111 186 231 1
112 110 186 1
113 23 193 1
114 196 110 1
115 154 91 1
116 76 154 1
117 67 76 1
118 186 91 1
119 231 67 1
120 74 235 un
121 4 74 un
122 216 235 un
123 218 19 un
124 39 218 un
125 235 39 un
126 173 19 un
127 96 179 un
128 124 96 un
129 101 124 un
130 19 179 un
131 220 106 1
132 242 220 un
133 218 106 1
134 179 242 1
135 236 47 1
136 40 236 1
137 96 47 1
138 242 40 un
139 140 167 1
140 211 140 1
141 156 211 1
142 236 167 1
143 47 156 1
144 3 17 1
145 85 3 1
146 220 85 un
147 40 17 un
148 167 136 1
149 17 128 un
150 136 128 un
151 89 244 1
152 244 169 1
153 244 232 1
154 133 171 1
155 188 93 1
156 205 188 un
157 100 205 1
158 85 93 un
159 3 100 un
160 8 150 un
161 219 8 1
162 60 219 un
163 100 150 un
164 205 60 un
165 158 70 un
166 44 158 1
167 80 44 1
168 219 70 un
169 8 80 un
170 35 69 un
171 190 35 un
172 150 190 un
173 80 69 un
174 78 177 un
175 118 78 un
176 44 118 un
177 69 177 un
178 125 97 un
179 35 125 un
180 128 190 un
181 136 97 un
182 15 204 un
183 125 15 un
184 177 204 un
185 79 197 1
186 61 79 1
187 199 61 1
188 15 197 1
189 204 199 1
190 199 212 2
191 141 226 1
192 141 229 1
193 152 130 1
194 152 86 1
195 191 27 1
196 223 10 1
197 7 192 1
198 7 149 1
199 245 119 1
200 175 168 1
201 209 233 1
202 209 11 1
203 95 22 1
204 95 250 1
205 144 213 1
206 94 163 1
207 94 6 1
208 56 243 1
209 184 139 1
210 184 181 1
211 239 132 1
212 239 176 1
213 247 135 1
214 247 114 1
215 2 54 1
216 2 49 1
217 206 123 1
218 228 194 1
219 228 63 1
220 37 157 1
221 37 164 1
222 170 31 1
223 170 53 1
224 89 161 1
225 21 111 1
226 21 42 1
227 225 84 1
228 225 238 1
229 160 12 1
230 48 203 1
231 55 87 1
232 187 198 1
233 92 82 1
234 28 109 1
235 133 138 1
236 207 120 1
237 207 68 1
238 122 248 1
239 122 126 1
240 98 73 1
241 224 214 1
242 25 77 1
243 25 81 1
244 230 20 1
245 230 134 1
246 57 172 1
247 57 129 1
248 108 249 1
249 231 143 1
250 186 145 1
251 91 202 1
252 91 9 1
253 154 24 1
254 154 146 1
255 76 90 1
256 76 52 1
257 67 72 1
258 67 43 1
259 74 200 1
260 39 99 1
261 124 38 1
262 47 159 1
263 236 50 1
264 167 131 1
265 140 18 1
266 140 30 1
267 211 165 1
268 211 127 1
269 156 16 1
270 156 107 1
271 244 221 1
272 169 65 1
273 169 26 1
274 169 105 1
275 232 148 1
276 232 151 1
277 232 174 1
278 171 113 1
279 93 45 1
280 188 166 1
281 60 104 1
282 70 13 1
283 158 83 1
284 78 33 1
285 118 208 1
286 97 222 1
287 197 180 1
288 197 121 1
289 79 64 1
290 79 32 1
291 61 185 1
292 61 29 1
@<TRIPOS>MOLECULE
Sketch 4
130 142
SMALL
USER_CHARGES


@<TRIPOS>ATOM
1 H2168 28.5281 23.6722 49.9607 H 0.0 **** 0.053
2 C2125 27.4683 24.4914 48.2376 C.3 0.0 **** -0.106
3 H2188 13.3561 26.2384 62.9704 H 0.0 **** 0.053
4 C2124 27.5211 23.6579 49.517 C.3 0.0 **** -0.106
5 C2140 10.819 26.9976 55.6994 C.3 0.0 **** -0.159
6 H2180 20.3186 26.361 63.0862 H 0.0 **** 0.053
7 C2135 19.3547 26.4697 62.5651 C.3 0.0 **** -0.159
8 C2116 24.1061 24.6404 52.2776 C.3 0.0 **** -0.106
9 C2129 23.4724 24.9624 46.5969 C.ar 0.0 **** 0.0
10 H2184 18.5582 26.3719 58.8052 H 0.0 **** 0.053
11 C2084 16.0148 25.4816 59.6055 C.ar 0.0 **** 0.0
12 H2150 16.6526 26.4645 57.8257 H 0.0 **** 0.053
13 H2158 14.0123 30.6288 52.327 H 0.0 **** 0.053
14 C2087 15.9763 25.6408 58.1139 C.3 0.0 **** -0.106
15 C2109 19.2639 26.0251 51.424 C.ar 0.0 **** 0.052
16 C2104 15.5261 30.1147 50.8721 C.ar 0.0 **** -0.053
17 H2176 19.3642 24.4785 61.7067 H 0.0 **** 0.053
18 H2181 15.3778 25.7301 64.3618 H 0.0 **** 0.053
19 C2083 14.8401 25.4352 60.3597 C.ar 0.0 **** 0.0
20 H2154 16.6802 25.8082 55.8112 H 0.0 **** 0.1268
21 C2091 12.2044 26.1089 57.5952 C.ar 0.0 **** 0.0
22 H2199 13.0883 30.2337 49.4253 H 0.0 **** 0.053
23 C2136 16.2407 25.2274 63.907 C.3 0.0 **** -0.159
24 H2173 26.7294 25.0465 45.6413 H 0.0 **** 0.053
25 H2197 13.2367 31.7939 50.2694 H 0.0 **** 0.053
26 C2108 19.316 25.5734 52.7632 C.ar 0.0 **** 0.052
27 C2149 22.8236 25.5595 42.3605 C.3 0.0 **** -0.159
28 H2177 18.579 24.5724 63.2668 H 0.0 **** 0.053
29 C2115 22.8383 24.0394 52.878 C.3 0.0 **** -0.106
30 H2195 10.3052 26.2364 55.0915 H 0.0 **** 0.053
31 C2094 14.5918 26.2019 56.097 C.ar 0.0 **** 0.0
32 C2132 23.0814 25.3535 43.8324 C.ar 0.0 **** 0.0
33 H2162 22.7737 22.9683 52.6091 H 0.0 **** 0.053
34 C2130 22.1801 24.9237 46.0561 C.ar 0.0 **** -0.1268
35 H2171 26.0082 23.3121 47.1951 H 0.0 **** 0.053
36 H2179 19.5306 26.995 61.6145 H 0.0 **** 0.053
37 C2148 25.5756 25.7137 43.4916 C.3 0.0 **** -0.159
38 H2196 12.3982 26.7078 52.4379 H 0.0 **** 0.41
39 O2147 20.2971 26.2693 49.3231 O.2 0.0 **** -0.419
40 C2123 26.5004 24.1701 50.539 C.3 0.0 **** -0.106
41 C2110 18.1014 26.6754 50.9595 C.ar 0.0 **** 0.042
42 H2203 18.9852 26.7564 49.2941 H 0.0 **** 0.41
43 C2085 17.2745 25.3706 60.2277 C.ar 0.0 **** 0.0
44 H2174 21.3364 24.7671 46.7282 H 0.0 **** 0.1268
45 C2097 14.5995 26.9933 53.3913 C.ar 0.0 **** 0.0
46 H2183 16.2594 24.1937 64.2947 H 0.0 **** 0.053
47 H2170 27.6414 25.5548 48.4798 H 0.0 **** 0.053
48 H2191 10.6973 26.9762 58.9057 H 0.0 **** 0.053
49 H2189 13.7642 24.5835 63.4526 H 0.0 **** 0.053
50 H2182 17.1436 25.7299 64.2777 H 0.0 **** 0.053
51 H2161 22.8388 24.0898 53.9741 H 0.0 **** 0.053
52 H2156 15.2369 28.4654 49.4861 H 0.0 **** 0.053
53 C2113 21.6221 24.7369 52.342 C.ar 0.0 **** 0.0
54 C2139 10.9482 26.0108 58.4318 C.3 0.0 **** -0.159
55 C2131 21.9982 25.1079 44.6911 C.ar 0.0 **** -0.1268
56 C2127 25.9452 25.2835 46.3736 C.3 0.0 **** -0.106
57 C2143 15.8325 31.2321 49.8721 C.3 0.0 **** -0.159
58 H2187 12.7954 24.8678 61.9992 H 0.0 **** 0.053
59 C2137 18.5049 25.4163 59.3526 C.3 0.0 **** -0.159
60 C2102 17.0107 26.4113 53.1743 C.ar 0.0 **** 0.0
61 O2145 18.3164 25.2783 54.8686 O.3 0.0 **** -0.452
62 H2202 15.2769 31.0919 48.9328 H 0.0 **** 0.053
63 H2210 23.3805 24.8344 41.7456 H 0.0 **** 0.053
64 C2142 13.0483 30.721 50.4127 C.3 0.0 **** -0.159
65 H2166 26.4044 23.4419 51.3592 H 0.0 **** 0.053
66 C2117 24.0207 24.6566 50.7747 C.ar 0.0 **** 0.0
67 O2141 12.1927 26.7681 53.3844 O.3 0.0 **** -0.452
68 H2206 25.2744 26.036 42.4883 H 0.0 **** 0.053
69 C2133 24.3842 25.4121 44.3711 C.ar 0.0 **** 0.0
70 C2134 18.6937 25.1053 62.3129 C.3 0.0 **** -0.106
71 C2112 21.5868 25.1551 51.0264 C.ar 0.0 **** 0.0
72 H2164 24.228 25.6766 52.6463 H 0.0 **** 0.053
73 H2163 24.9839 24.0814 52.6246 H 0.0 **** 0.053
74 H2151 16.4335 24.75 57.6406 H 0.0 **** 0.053
75 H2155 16.9238 28.8 49.8644 H 0.0 **** 0.053
76 H2165 26.88 25.0966 51.0065 H 0.0 **** 0.053
77 H2153 12.8669 26.2541 60.2209 H 0.0 **** 0.053
78 H2160 12.7414 28.6805 52.3304 H 0.0 **** 0.053
79 H2208 23.1368 26.5641 42.0319 H 0.0 **** 0.053
80 C2095 15.7737 26.1544 55.3422 C.ar 0.0 **** -0.1268
81 C2106 13.5944 28.6264 51.6472 C.3 0.0 **** -0.106
82 C2081 16.1664 25.2585 62.3951 C.ar 0.0 **** 0.0
83 N2119 22.6077 24.9664 48.8378 N.ar 0.0 **** -0.481
84 H2201 15.5647 32.2192 50.2783 H 0.0 **** 0.053
85 C2118 22.7664 24.9129 50.1678 C.ar 0.0 **** 0.2405
86 C2092 12.1304 26.4944 56.2605 C.ar 0.0 **** 0.0
87 C2101 16.9901 26.9376 51.8494 C.ar 0.0 **** 0.0
88 H2200 16.9057 31.2422 49.6305 H 0.0 **** 0.053
89 H2169 28.2557 24.186 47.5305 H 0.0 **** 0.053
90 C2107 18.2097 25.7484 53.6286 C.ar 0.0 **** 0.042
91 H2192 11.0597 25.2772 59.2396 H 0.0 **** 0.053
92 C2089 13.4677 25.8322 58.22 C.ar 0.0 **** 0.0
93 C2088 14.6345 25.8931 57.4915 C.ar 0.0 **** 0.0
94 H2152 12.959 24.553 59.8529 H 0.0 **** 0.053
95 C2126 26.0982 24.3497 47.5756 C.3 0.0 **** -0.053
96 H2209 21.7542 25.4494 42.1352 H 0.0 **** 0.053
97 H2198 12.0253 30.6026 50.8022 H 0.0 **** 0.053
98 H2190 10.0835 25.7059 57.829 H 0.0 **** 0.053
99 C2114 20.4954 24.9102 53.2468 C.2 0.0 **** 0.367
100 C2128 24.5746 25.1985 45.749 C.ar 0.0 **** 0.0
101 C2093 13.3315 26.5025 55.4702 C.ar 0.0 **** 0.0
102 C2103 15.9284 28.7385 50.3048 C.3 0.0 **** -0.106
103 H2204 19.2867 24.8446 54.9099 H 0.0 **** 0.41
104 H2157 16.1678 30.2753 51.754 H 0.0 **** 0.053
105 H2175 20.9911 25.0748 44.2697 H 0.0 **** 0.1268
106 H2186 19.4378 25.3104 59.9157 H 0.0 **** 0.053
107 H2185 18.479 24.627 58.5834 H 0.0 **** 0.053
108 C2098 13.3808 26.7738 54.0805 C.ar 0.0 **** 0.042
109 H2172 26.1334 26.3228 46.7064 H 0.0 **** 0.053
110 O2144 18.022 27.016 49.6791 O.3 0.0 **** -0.452
111 C2090 13.4891 25.5123 59.6921 C.3 0.0 **** -0.106
112 H2205 26.2013 26.5073 43.9278 H 0.0 **** 0.053
113 H2193 10.9832 27.8611 55.0441 H 0.0 **** 0.053
114 H2207 26.2222 24.8271 43.3759 H 0.0 **** 0.053
115 H2194 10.1417 27.3105 56.5021 H 0.0 **** 0.053
116 C2122 25.1373 24.4563 49.9464 C.ar 0.0 **** 0.0
117 C2105 14.0585 30.0828 51.3716 C.ar 0.0 **** -0.053
118 H2159 13.221 28.2225 50.6861 H 0.0 **** 0.053
119 C2120 23.6788 24.8217 48.0503 C.ar 0.0 **** 0.2405
120 H2167 27.2933 22.6081 49.2674 H 0.0 **** 0.053
121 C2099 14.6874 27.7149 52.1554 C.2 0.0 **** 0.0
122 C2138 13.6438 25.2446 62.5838 C.3 0.0 **** -0.159
123 C2082 14.9112 25.314 61.7617 C.ar 0.0 **** 0.0
124 O2146 20.5683 24.4628 54.4476 O.2 0.0 **** -0.419
125 C2096 15.8225 26.5234 53.999 C.ar 0.0 **** 0.0
126 C2100 15.8669 27.724 51.423 C.2 0.0 **** 0.0
127 C2086 17.3507 25.2374 61.6259 C.ar 0.0 **** 0.0
128 C2111 20.3783 25.8354 50.5155 C.2 0.0 **** 0.367
129 H2178 18.6988 27.1079 63.1767 H 0.0 **** 0.053
130 C2121 24.9685 24.5557 48.5579 C.ar 0.0 **** 0.0
@<TRIPOS>BOND
1 7 6 1
2 108 67 1
3 19 123 am
4 11 19 am
5 43 11 am
6 127 43 am
7 82 123 am
8 82 127 am
9 93 14 1
10 92 93 am
11 111 92 1
12 11 14 1
13 19 111 1
14 86 21 am
15 101 86 am
16 31 101 am
17 92 21 am
18 93 31 am
19 125 80 am
20 45 125 am
21 108 45 am
22 31 80 am
23 101 108 am
24 126 121 1
25 87 126 1
26 60 87 am
27 45 121 1
28 125 60 am
29 16 102 1
30 117 16 am
31 81 117 1
32 126 102 1
33 121 81 1
34 26 90 am
35 15 26 am
36 41 15 am
37 60 90 am
38 87 41 am
39 71 128 1
40 53 71 am
41 99 53 1
42 15 128 1
43 26 99 1
44 8 29 1
45 66 8 1
46 85 66 am
47 53 29 1
48 71 85 am
49 119 83 am
50 130 119 am
51 116 130 am
52 85 83 am
53 66 116 am
54 4 40 1
55 2 4 1
56 95 2 1
57 116 40 1
58 130 95 1
59 100 56 1
60 9 100 am
61 119 9 am
62 95 56 1
63 55 34 am
64 32 55 am
65 69 32 am
66 9 34 am
67 100 69 am
68 127 70 1
69 70 7 1
70 82 23 1
71 43 59 1
72 123 122 1
73 21 54 1
74 86 5 1
75 117 64 1
76 16 57 1
77 41 110 1
78 90 61 1
79 99 124 2
80 128 39 2
81 69 37 1
82 32 27 1
83 14 12 1
84 14 74 1
85 111 94 1
86 111 77 1
87 80 20 1
88 102 75 1
89 102 52 1
90 16 104 1
91 117 13 1
92 81 118 1
93 81 78 1
94 29 51 1
95 29 33 1
96 8 73 1
97 8 72 1
98 40 76 1
99 40 65 1
100 4 120 1
101 4 1 1
102 2 89 1
103 2 47 1
104 95 35 1
105 56 109 1
106 56 24 1
107 34 44 1
108 55 105 1
109 70 17 1
110 70 28 1
111 7 129 1
112 7 36 1
113 23 18 1
114 23 50 1
115 23 46 1
116 59 10 1
117 59 107 1
118 59 106 1
119 122 58 1
120 122 3 1
121 122 49 1
122 54 98 1
123 54 48 1
124 54 91 1
125 5 113 1
126 5 115 1
127 5 30 1
128 67 38 1
129 64 25 1
130 64 97 1
131 64 22 1
132 57 88 1
133 57 84 1
134 57 62 1
135 110 42 1
136 61 103 1
137 37 112 1
138 37 68 1
139 37 114 1
140 27 79 1
141 27 96 1
142 27 63 1
@<TRIPOS>MOLECULE
Sketch 4
130 142
SMALL
USER_CHARGES


@<TRIPOS>ATOM
1 N2899 54.2626 43.8946 3.1784 N.ar 0.0 **** -0.481
2 H2969 67.1074 45.4055 14.3442 H 0.0 **** 0.053
3 H2933 67.2668 45.2652 10.6033 H 0.0 **** 0.053
4 H2938 65.0343 42.9351 2.09733 H 0.0 **** 0.053
5 H2962 65.1262 42.5042 15.3801 H 0.0 **** 0.053
6 C2917 61.9456 43.2049 11.4302 C.3 0.0 **** -0.159
7 H2964 62.0815 42.5227 10.5747 H 0.0 **** 0.053
8 H2987 49.0912 43.3993 -0.812525 H 0.0 **** 0.053
9 C2884 63.0069 42.9056 1.34791 C.ar 0.0 **** -0.053
10 C2890 59.5046 44.3548 3.37334 C.ar 0.0 **** 0.042
11 C2897 53.7329 42.9543 5.34158 C.ar 0.0 **** 0.0
12 H2936 62.0202 44.7334 0.707162 H 0.0 **** 0.053
13 C2862 65.8027 44.6038 12.8069 C.ar 0.0 **** 0.0
14 H2943 53.4294 42.4872 7.43221 H 0.0 **** 0.053
15 C2880 61.9561 44.5563 2.86647 C.2 0.0 **** 0.0
16 C2900 53.0134 43.6375 2.77606 C.ar 0.0 **** 0.2405
17 H2968 67.9367 44.3766 13.1647 H 0.0 **** 0.053
18 C2920 67.4835 46.7892 5.82609 C.3 0.0 **** -0.159
19 H2940 65.2761 45.1954 2.59103 H 0.0 **** 0.053
20 H2990 50.7907 45.2631 -2.90327 H 0.0 **** 0.053
21 C2864 64.1188 44.3951 11.0701 C.ar 0.0 **** 0.0
22 H2945 51.6549 41.0431 6.01432 H 0.0 **** 0.053
23 C2889 58.4628 44.1701 4.3064 C.ar 0.0 **** 0.052
24 C2874 64.2096 45.3733 7.34342 C.ar 0.0 **** 0.0
25 H2975 67.3531 47.8243 5.47327 H 0.0 **** 0.053
26 H2978 66.0587 44.3543 0.30568 H 0.0 **** 0.053
27 C2901 52.0426 43.0613 3.62296 C.ar 0.0 **** 0.0
28 C2866 63.7124 43.4218 13.2642 C.ar 0.0 **** 0.0
29 C2918 67.1383 45.1309 13.2812 C.3 0.0 **** -0.159
30 H2958 63.9846 40.8201 14.2011 H 0.0 **** 0.053
31 C2915 62.942 41.1432 14.0585 C.3 0.0 **** -0.159
32 C2905 49.8354 41.881 3.92479 C.3 0.0 **** -0.106
33 C2887 60.08 44.4309 6.1407 C.ar 0.0 **** 0.042
34 C2867 63.631 44.635 9.67154 C.3 0.0 **** -0.106
35 H2954 54.3978 45.2183 1.09618 H 0.0 **** 0.1268
36 H2982 62.8544 42.6907 -0.821994 H 0.0 **** 0.053
37 C2891 57.1121 43.9556 3.8241 C.2 0.0 **** 0.367
38 H2989 52.5343 45.519 -3.16671 H 0.0 **** 0.053
39 C2911 53.1954 45.071 -0.702806 C.ar 0.0 **** -0.1268
40 O2921 65.3513 46.8017 4.16693 O.3 0.0 **** -0.452
41 C2876 62.5076 44.9584 5.62565 C.ar 0.0 **** 0.0
42 H2970 68.3903 47.7323 8.06945 H 0.0 **** 0.053
43 H2977 65.3455 42.8696 -0.370688 H 0.0 **** 0.053
44 C2875 62.9223 44.9709 6.95634 C.ar 0.0 **** -0.1268
45 H2963 65.2256 44.2214 15.8085 H 0.0 **** 0.053
46 O2927 56.8901 43.9225 2.57256 O.2 0.0 **** -0.419
47 H2957 63.0718 42.9386 15.2641 H 0.0 **** 0.053
48 H2931 62.7019 45.2366 9.70791 H 0.0 **** 0.053
49 H2935 60.92 43.4876 1.28897 H 0.0 **** 0.053
50 C2882 61.161 44.622 5.20354 C.ar 0.0 **** 0.0
51 H2937 62.8916 42.2312 2.21235 H 0.0 **** 0.053
52 H2956 61.7757 42.9708 14.0902 H 0.0 **** 0.053
53 C2923 62.8239 42.0647 0.0822677 C.3 0.0 **** -0.159
54 C2929 51.789 44.8162 -2.77018 C.3 0.0 **** -0.159
55 H2965 61.3394 44.0456 11.0545 H 0.0 **** 0.053
56 C2861 64.9963 43.8437 13.6741 C.ar 0.0 **** 0.0
57 H2981 63.6108 41.3008 -0.00965214 H 0.0 **** 0.053
58 H2950 50.2271 40.8624 3.75555 H 0.0 **** 0.053
59 C2910 53.5053 44.8063 0.625379 C.ar 0.0 **** -0.1268
60 C2922 65.1138 43.8135 0.14172 C.3 0.0 **** -0.159
61 C2896 54.2456 42.57 6.70393 C.3 0.0 **** -0.106
62 H2934 62.2182 44.6701 7.71483 H 0.0 **** 0.1268
63 H2984 59.3242 44.307 7.88196 H 0.0 **** 0.41
64 C2870 66.2417 45.6713 10.568 C.3 0.0 **** -0.106
65 H2951 50.14 43.8558 3.13949 H 0.0 **** 0.053
66 H2971 68.8324 46.1177 8.65898 H 0.0 **** 0.053
67 H2986 50.0211 43.1134 -2.29621 H 0.0 **** 0.053
68 C2904 49.9498 42.2358 5.40646 C.3 0.0 **** -0.106
69 C2877 63.4685 45.3561 4.62353 C.ar 0.0 **** 0.0
70 C2906 50.6435 42.8695 3.08493 C.3 0.0 **** -0.053
71 C2892 56.0382 43.7605 4.82064 C.ar 0.0 **** 0.0
72 C2871 66.7214 46.3472 8.17708 C.ar 0.0 **** 0.0
73 C2913 51.2339 43.6483 -0.572961 C.ar 0.0 **** 0.0
74 C2898 54.6317 43.5432 4.41823 C.ar 0.0 **** 0.2405
75 H2972 67.9643 47.2415 9.71393 H 0.0 **** 0.053
76 C2914 62.8234 42.6659 14.2293 C.3 0.0 **** -0.106
77 H2959 62.6414 40.8439 13.0434 H 0.0 **** 0.053
78 C2908 51.5298 43.4002 0.780282 C.ar 0.0 **** 0.0
79 C2863 65.3612 44.8708 11.4957 C.ar 0.0 **** 0.0
80 H2952 51.088 41.4387 1.53391 H 0.0 **** 0.053
81 H2980 61.8511 41.5514 0.104241 H 0.0 **** 0.053
82 H2960 62.3093 40.6055 14.7817 H 0.0 **** 0.053
83 C2872 66.4178 46.3834 6.81989 C.ar 0.0 **** 0.0
84 H2932 66.3445 46.6969 10.9741 H 0.0 **** 0.053
85 H2967 67.451 46.0207 12.7209 H 0.0 **** 0.053
86 H2988 51.8173 43.9065 -3.39221 H 0.0 **** 0.053
87 C2893 56.3527 43.7758 6.16515 C.ar 0.0 **** 0.0
88 H2966 61.3559 42.6712 12.1825 H 0.0 **** 0.053
89 H2942 54.7808 44.5593 7.36561 H 0.0 **** 0.053
90 H2949 48.7847 41.8851 3.59424 H 0.0 **** 0.053
91 C2869 65.8139 45.7661 9.12652 C.ar 0.0 **** 0.0
92 H2973 67.4478 46.1497 4.9362 H 0.0 **** 0.053
93 H2944 54.7177 41.5709 6.64655 H 0.0 **** 0.053
94 H2961 66.6109 43.4084 15.0584 H 0.0 **** 0.053
95 C2907 50.6832 42.4668 1.60965 C.3 0.0 **** -0.106
96 C2919 68.0418 46.8885 8.6783 C.3 0.0 **** -0.159
97 H2979 64.4924 44.4235 -0.533377 H 0.0 **** 0.053
98 C2903 51.4013 42.1105 5.88232 C.3 0.0 **** -0.106
99 C2916 65.5155 43.4754 15.0478 C.3 0.0 **** -0.159
100 C2888 58.7589 44.1985 5.68907 C.ar 0.0 **** 0.052
101 C2868 64.594 45.2765 8.71629 C.ar 0.0 **** 0.0
102 H2946 51.5014 42.5647 6.88024 H 0.0 **** 0.053
103 C2895 55.2753 43.5849 7.19264 C.3 0.0 **** -0.106
104 C2928 50.0341 42.9842 -1.2079 C.3 0.0 **** -0.159
105 C2883 61.8856 43.9556 1.48168 C.3 0.0 **** -0.106
106 H2941 55.7256 43.2861 8.14762 H 0.0 **** 0.053
107 C2873 65.1238 45.9337 6.38338 C.ar 0.0 **** 0.0
108 C2865 63.2816 43.6808 11.9505 C.ar 0.0 **** 0.0
109 H2947 49.6059 43.2736 5.55142 H 0.0 **** 0.053
110 O2924 59.2082 44.4179 2.08113 O.3 0.0 **** -0.452
111 O2925 60.2847 44.4691 7.45478 O.3 0.0 **** -0.452
112 H2955 53.8442 45.7241 -1.29045 H 0.0 **** 0.1268
113 C2912 52.0694 44.5045 -1.32112 C.ar 0.0 **** 0.0
114 H2985 50.0183 41.9043 -0.99557 H 0.0 **** 0.053
115 C2879 63.2093 45.0091 3.25674 C.2 0.0 **** 0.0
116 C2902 52.4074 42.7284 4.93534 C.ar 0.0 **** 0.0
117 H2976 64.7863 46.9658 3.39526 H 0.0 **** 0.41
118 H2948 49.302 41.5929 6.02144 H 0.0 **** 0.053
119 H2974 68.4842 46.6989 6.26335 H 0.0 **** 0.053
120 C2894 57.7054 44.011 6.648 C.2 0.0 **** 0.367
121 C2909 52.671 43.9714 1.38105 C.ar 0.0 **** 0.0
122 H2939 64.0479 45.7056 1.41868 H 0.0 **** 0.053
123 H2953 49.6534 42.4224 1.22875 H 0.0 **** 0.053
124 C2885 64.3961 43.5825 1.4754 C.ar 0.0 **** -0.053
125 H2930 63.302 43.674 9.2389 H 0.0 **** 0.053
126 C2878 64.6501 46.0119 5.05042 C.ar 0.0 **** 0.042
127 O2926 57.9318 44.0575 7.91049 O.2 0.0 **** -0.419
128 C2881 60.8754 44.5127 3.81097 C.ar 0.0 **** 0.0
129 H2983 58.1583 44.2168 2.05832 H 0.0 **** 0.41
130 C2886 64.2846 44.9537 2.19641 C.3 0.0 **** -0.106
@<TRIPOS>BOND
1 69 41 am
2 79 13 am
3 21 79 am
4 108 21 am
5 28 108 am
6 56 13 am
7 56 28 am
8 101 34 1
9 91 101 am
10 64 91 1
11 21 34 1
12 79 64 1
13 83 72 am
14 107 83 am
15 24 107 am
16 91 72 am
17 101 24 am
18 41 44 am
19 126 69 am
20 24 44 am
21 107 126 am
22 15 115 1
23 128 15 1
24 50 128 am
25 69 115 1
26 41 50 am
27 9 105 1
28 124 9 am
29 130 124 1
30 15 105 1
31 115 130 1
32 100 33 am
33 23 100 am
34 10 23 am
35 50 33 am
36 128 10 am
37 71 37 1
38 87 71 am
39 120 87 1
40 23 37 1
41 100 120 1
42 61 103 1
43 11 61 1
44 74 11 am
45 87 103 1
46 71 74 am
47 16 1 am
48 27 16 am
49 116 27 am
50 74 1 am
51 11 116 am
52 68 98 1
53 32 68 1
54 70 32 1
55 116 98 1
56 27 70 1
57 78 95 1
58 121 78 am
59 16 121 am
60 70 95 1
61 39 59 am
62 113 39 am
63 73 113 am
64 121 59 am
65 78 73 am
66 28 76 1
67 76 31 1
68 56 99 1
69 108 6 1
70 13 29 1
71 72 96 1
72 83 18 1
73 126 40 1
74 124 60 1
75 9 53 1
76 10 110 1
77 33 111 1
78 120 127 2
79 37 46 2
80 73 104 1
81 113 54 1
82 34 125 1
83 34 48 1
84 64 84 1
85 64 3 1
86 44 62 1
87 105 49 1
88 105 12 1
89 9 51 1
90 124 4 1
91 130 122 1
92 130 19 1
93 103 106 1
94 103 89 1
95 61 14 1
96 61 93 1
97 98 22 1
98 98 102 1
99 68 109 1
100 68 118 1
101 32 90 1
102 32 58 1
103 70 65 1
104 95 80 1
105 95 123 1
106 59 35 1
107 39 112 1
108 76 52 1
109 76 47 1
110 31 30 1
111 31 77 1
112 31 82 1
113 99 94 1
114 99 5 1
115 99 45 1
116 6 7 1
117 6 55 1
118 6 88 1
119 29 85 1
120 29 17 1
121 29 2 1
122 96 42 1
123 96 66 1
124 96 75 1
125 18 92 1
126 18 119 1
127 18 25 1
128 40 117 1
129 60 43 1
130 60 26 1
131 60 97 1
132 53 81 1
133 53 57 1
134 53 36 1
135 110 129 1
136 111 63 1
137 104 114 1
138 104 67 1
139 104 8 1
140 54 86 1
141 54 38 1
142 54 20 1
@<TRIPOS>MOLECULE
Sketch 4
130 142
SMALL
USER_CHARGES


@<TRIPOS>ATOM
1 C2506 34.9591 59.7847 12.8743 C.3 0.0 **** -0.106
2 O2531 37.5183 62.4721 1.3023 O.3 0.0 **** -0.452
3 H2574 40.3281 56.7208 6.69577 H 0.0 **** 0.053
4 H2570 43.1822 53.2941 7.93602 H 0.0 **** 0.053
5 H2552 36.533 61.2096 12.4572 H 0.0 **** 0.053
6 C2476 43.4639 56.1569 5.95396 C.ar 0.0 **** 0.0
7 H2592 30.7796 61.2214 2.32758 H 0.0 **** 0.053
8 C2478 40.5795 59.4504 3.55949 C.ar 0.0 **** 0.0
9 H2571 45.764 54.8842 3.78366 H 0.0 **** 0.053
10 C2516 31.0258 62.1686 15.112 C.3 0.0 **** -0.053
11 H2558 32.6516 60.1183 17.3935 H 0.0 **** 0.053
12 H2585 39.6125 62.4941 -0.238139 H 0.0 **** 0.053
13 H2594 38.0589 59.9128 8.33858 H 0.0 **** 0.41
14 C2510 31.7137 62.529 12.7249 C.ar 0.0 **** 0.2405
15 C2490 34.5333 61.6142 4.23741 C.2 0.0 **** 0.0
16 H2554 34.5997 58.8192 12.4703 H 0.0 **** 0.053
17 C2500 34.2405 61.7005 6.73028 C.ar 0.0 **** 0.042
18 H2593 32.6944 62.352 7.59388 H 0.0 **** 0.41
19 N2509 32.4994 62.3632 11.6555 N.ar 0.0 **** -0.481
20 H2549 34.3321 62.8197 1.72769 H 0.0 **** 0.053
21 C2521 29.3848 65.1555 11.3582 C.ar 0.0 **** -0.1268
22 H2560 30.6238 60.1793 15.8418 H 0.0 **** 0.053
23 C2495 33.5509 60.8225 1.54575 C.ar 0.0 **** -0.053
24 H2561 31.3689 63.1297 15.5457 H 0.0 **** 0.053
25 C2507 33.8172 60.7654 12.9023 C.ar 0.0 **** 0.0
26 C2528 45.1178 57.0332 2.61406 C.3 0.0 **** -0.159
27 H2590 30.8208 60.0231 3.64093 H 0.0 **** 0.053
28 C2481 41.1367 60.2199 1.30999 C.ar 0.0 **** 0.0
29 H2581 42.0056 59.4211 -0.519762 H 0.0 **** 0.053
30 C2498 35.9735 60.7884 8.18223 C.ar 0.0 **** 0.052
31 H2576 41.5884 56.3583 7.88484 H 0.0 **** 0.053
32 H2564 31.3144 64.3488 10.7842 H 0.0 **** 0.1268
33 C2487 36.7912 61.3514 3.317 C.ar 0.0 **** 0.0
34 C2499 34.6917 61.3649 8.02408 C.ar 0.0 **** 0.052
35 C2515 31.1091 61.1028 16.2041 C.3 0.0 **** -0.106
36 C2492 36.3681 60.9027 5.72936 C.ar 0.0 **** 0.0
37 H2550 35.443 61.6643 0.96987 H 0.0 **** 0.053
38 C2533 31.2794 60.3077 2.68232 C.3 0.0 **** -0.159
39 H2546 32.7656 62.6131 3.47879 H 0.0 **** 0.053
40 C2505 36.0906 60.3078 11.9938 C.3 0.0 **** -0.106
41 O2536 37.6105 59.9429 9.68018 O.2 0.0 **** -0.419
42 H2577 45.1029 57.9945 2.08573 H 0.0 **** 0.053
43 H2586 36.7762 63.0317 1.5813 H 0.0 **** 0.41
44 H2580 42.0823 61.1893 -0.387578 H 0.0 **** 0.053
45 C2522 28.3109 65.105 12.2612 C.ar 0.0 **** 0.0
46 H2566 43.4728 55.7948 8.07656 H 0.0 **** 0.053
47 C2511 31.9394 61.862 13.948 C.ar 0.0 **** 0.0
48 C2514 32.5702 60.8153 16.5457 C.3 0.0 **** -0.106
49 C2518 29.5017 63.386 13.5078 C.ar 0.0 **** 0.0
50 H2578 44.8992 56.249 1.86766 H 0.0 **** 0.053
51 C2486 37.2307 60.7817 4.56921 C.ar 0.0 **** 0.0
52 H2563 28.9724 62.6879 15.4853 H 0.0 **** 0.053
53 H2542 43.6007 59.5025 2.53533 H 0.0 **** 0.053
54 C2523 28.3654 64.1994 13.3419 C.ar 0.0 **** 0.0
55 C2485 38.4918 60.1889 4.59965 C.ar 0.0 **** -0.1268
56 H2575 41.2082 58.0418 7.45771 H 0.0 **** 0.053
57 C2480 42.7787 58.7605 2.56597 C.3 0.0 **** -0.106
58 C2489 35.3946 61.6283 3.14843 C.2 0.0 **** 0.0
59 C2525 42.9579 53.9421 7.07447 C.3 0.0 **** -0.159
60 H2568 43.2137 53.3966 6.15325 H 0.0 **** 0.053
61 C2512 33.0218 60.9754 14.0408 C.ar 0.0 **** 0.0
62 H2583 38.4477 61.1827 -0.396492 H 0.0 **** 0.053
63 H2588 33.3131 61.6609 -0.446419 H 0.0 **** 0.053
64 H2567 44.8103 55.0555 7.22584 H 0.0 **** 0.053
65 H2596 26.3301 64.6298 13.9735 H 0.0 **** 0.053
66 O2535 38.0127 60.044 7.28413 O.3 0.0 **** -0.452
67 H2553 35.3371 59.5785 13.8832 H 0.0 **** 0.053
68 C2475 42.331 56.9901 5.9277 C.ar 0.0 **** 0.0
69 C2504 36.4427 60.4424 9.49548 C.2 0.0 **** 0.367
70 H2559 30.5507 61.4373 17.0927 H 0.0 **** 0.053
71 C2494 32.7833 60.5293 2.86073 C.ar 0.0 **** -0.053
72 H2589 32.2095 62.3527 0.76409 H 0.0 **** 0.053
73 C2484 39.3373 60.1524 3.48044 C.ar 0.0 **** 0.0
74 C2508 33.5123 61.4877 11.7222 C.ar 0.0 **** 0.2405
75 H2597 27.4895 64.4787 15.308 H 0.0 **** 0.053
76 C2482 39.903 60.8459 1.16313 C.ar 0.0 **** 0.0
77 C2473 43.0002 57.8427 3.74302 C.ar 0.0 **** 0.0
78 H2547 33.2055 59.604 3.28602 H 0.0 **** 0.053
79 H2562 29.1844 61.4098 14.2852 H 0.0 **** 0.053
80 C2524 43.7348 55.2661 7.14823 C.3 0.0 **** -0.106
81 C2502 34.322 61.2561 10.5065 C.ar 0.0 **** 0.0
82 C2527 41.326 57.0224 7.05499 C.3 0.0 **** -0.159
83 H2556 34.3898 60.2336 15.5269 H 0.0 **** 0.053
84 H2591 31.0749 59.5073 1.95517 H 0.0 **** 0.053
85 C2496 34.7383 61.7919 1.79705 C.3 0.0 **** -0.106
86 H2599 27.2821 66.6564 11.1723 H 0.0 **** 0.053
87 C2477 40.8722 58.6804 4.81369 C.3 0.0 **** -0.106
88 C2488 37.7533 61.5472 2.29499 C.ar 0.0 **** 0.042
89 C2471 44.3367 56.1296 4.844 C.ar 0.0 **** 0.0
90 H2584 40.1015 60.9551 -0.988161 H 0.0 **** 0.053
91 C2474 42.1015 57.8199 4.81189 C.ar 0.0 **** 0.0
92 H2541 40.9212 59.384 5.66759 H 0.0 **** 0.053
93 H2544 38.8306 59.7534 5.52544 H 0.0 **** 0.1268
94 C2497 36.8098 60.5673 7.06193 C.ar 0.0 **** 0.042
95 O2537 32.6777 62.1263 8.97521 O.2 0.0 **** -0.419
96 C2479 41.4651 59.496 2.50615 C.ar 0.0 **** 0.0
97 H2565 29.3316 65.8507 10.5176 H 0.0 **** 0.1268
98 C2520 30.4959 64.3344 11.5039 C.ar 0.0 **** -0.1268
99 H2540 39.996 58.0501 5.04588 H 0.0 **** 0.053
100 C2539 27.1237 66.0104 12.0464 C.3 0.0 **** -0.159
101 C2526 45.497 55.1574 4.81242 C.3 0.0 **** -0.159
102 H2579 46.1452 56.8665 2.9649 H 0.0 **** 0.053
103 H2548 33.9732 59.8736 1.17941 H 0.0 **** 0.053
104 C2529 42.1496 60.257 0.187334 C.3 0.0 **** -0.159
105 C2538 27.2155 64.0818 14.3155 C.3 0.0 **** -0.159
106 H2595 26.9258 63.0304 14.4638 H 0.0 **** 0.053
107 H2557 33.0554 61.7565 16.854 H 0.0 **** 0.053
108 H2551 36.9021 59.5765 11.8898 H 0.0 **** 0.053
109 H2572 45.26 54.2276 5.34576 H 0.0 **** 0.053
110 C2491 35.0454 61.4083 5.56303 C.ar 0.0 **** 0.0
111 C2472 44.1303 57.0012 3.75884 C.ar 0.0 **** 0.0
112 C2513 33.3063 60.2381 15.3317 C.3 0.0 **** -0.106
113 C2493 33.0605 61.6341 3.90003 C.3 0.0 **** -0.106
114 C2503 35.57 60.6794 10.6359 C.ar 0.0 **** 0.0
115 H2600 26.9413 66.6549 12.9212 H 0.0 **** 0.053
116 H2582 43.1752 60.1804 0.568773 H 0.0 **** 0.053
117 H2598 26.2001 65.4327 11.8771 H 0.0 **** 0.053
118 H2573 46.4005 55.5831 5.28329 H 0.0 **** 0.053
119 C2532 32.6895 61.4196 0.428239 C.3 0.0 **** -0.159
120 C2530 39.5016 61.3996 -0.186026 C.3 0.0 **** -0.159
121 C2519 30.5665 63.4448 12.5845 C.ar 0.0 **** 0.0
122 H2545 32.4383 61.4736 4.78079 H 0.0 **** 0.053
123 O2534 33.0764 62.3236 6.59561 O.3 0.0 **** -0.452
124 H2587 31.8989 60.7292 0.103526 H 0.0 **** 0.053
125 C2483 38.9925 60.8606 2.27579 C.ar 0.0 **** 0.0
126 H2569 41.8742 54.131 7.05409 H 0.0 **** 0.053
127 C2501 33.829 61.6199 9.16149 C.2 0.0 **** 0.367
128 C2517 29.5898 62.3812 14.6296 C.3 0.0 **** -0.106
129 H2555 33.0233 59.1783 15.1988 H 0.0 **** 0.053
130 H2543 42.9014 58.1861 1.63212 H 0.0 **** 0.053
@<TRIPOS>BOND
1 105 106 1
2 61 112 1
3 77 111 am
4 91 77 am
5 68 91 am
6 6 68 am
7 89 111 am
8 89 6 am
9 8 87 1
10 96 8 am
11 57 96 1
12 91 87 1
13 77 57 1
14 76 28 am
15 125 76 am
16 73 125 am
17 96 28 am
18 8 73 am
19 51 55 am
20 33 51 am
21 88 33 am
22 73 55 am
23 125 88 am
24 15 58 1
25 110 15 1
26 36 110 am
27 33 58 1
28 51 36 am
29 71 113 1
30 23 71 am
31 85 23 1
32 15 113 1
33 58 85 1
34 30 94 am
35 34 30 am
36 17 34 am
37 36 94 am
38 110 17 am
39 81 127 1
40 114 81 am
41 69 114 1
42 34 127 1
43 30 69 1
44 1 40 1
45 25 1 1
46 74 25 am
47 114 40 1
48 81 74 am
49 14 19 am
50 47 14 am
51 61 47 am
52 74 19 am
53 25 61 am
54 48 112 1
55 35 48 1
56 10 35 1
57 47 10 1
58 49 128 1
59 121 49 am
60 14 121 am
61 10 128 1
62 21 98 am
63 45 21 am
64 54 45 am
65 121 98 am
66 49 54 am
67 6 80 1
68 80 59 1
69 89 101 1
70 68 82 1
71 111 26 1
72 28 104 1
73 76 120 1
74 88 2 1
75 23 119 1
76 71 38 1
77 17 123 1
78 94 66 1
79 69 41 2
80 127 95 2
81 54 105 1
82 45 100 1
83 87 99 1
84 87 92 1
85 57 53 1
86 57 130 1
87 55 93 1
88 113 122 1
89 113 39 1
90 71 78 1
91 23 103 1
92 85 20 1
93 85 37 1
94 40 108 1
95 40 5 1
96 1 67 1
97 1 16 1
98 112 129 1
99 112 83 1
100 48 107 1
101 48 11 1
102 35 70 1
103 35 22 1
104 10 24 1
105 128 79 1
106 128 52 1
107 98 32 1
108 21 97 1
109 80 46 1
110 80 64 1
111 59 60 1
112 59 126 1
113 59 4 1
114 101 9 1
115 101 109 1
116 101 118 1
117 82 3 1
118 82 56 1
119 82 31 1
120 26 42 1
121 26 50 1
122 26 102 1
123 104 44 1
124 104 29 1
125 104 116 1
126 120 62 1
127 120 90 1
128 120 12 1
129 2 43 1
130 119 124 1
131 119 63 1
132 119 72 1
133 38 27 1
134 38 84 1
135 38 7 1
136 123 18 1
137 66 13 1
138 105 65 1
139 105 75 1
140 100 117 1
141 100 86 1
142 100 115 1
@<TRIPOS>MOLECULE
Sketch 4
130 142
SMALL
USER_CHARGES


@<TRIPOS>ATOM
1 H8830 -0.0112449 11.0019 43.5221 H 0.0 **** 0.053
2 C8736 -2.58394 14.3547 41.5183 C.3 0.0 **** -0.106
3 H8784 -1.99344 13.0441 35.7966 H 0.0 **** 0.1268
4 H8807 -4.85226 10.392 29.0505 H 0.0 **** 0.053
5 C8730 -0.540208 13.5793 40.3999 C.2 0.0 **** 0.0
6 H8835 11.7057 10.023 41.7602 H 0.0 **** 0.053
7 C8712 -6.72732 12.7135 31.7639 C.ar 0.0 **** 0.0
8 H8783 -7.53159 13.8551 34.1063 H 0.0 **** 0.053
9 C8717 -3.8475 12.912 34.2569 C.3 0.0 **** -0.106
10 H8798 10.6176 8.64399 34.9219 H 0.0 **** 0.053
11 C8769 -7.65698 15.8163 35.8612 C.3 0.0 **** -0.159
12 H8826 -3.19167 16.2256 40.1517 H 0.0 **** 0.41
13 H8810 -4.19973 8.07265 29.7232 H 0.0 **** 0.053
14 C8770 -6.41508 16.0487 38.4804 C.3 0.0 **** -0.159
15 C8766 -7.1082 11.2551 29.7377 C.3 0.0 **** -0.159
16 O8774 2.2939 13.2097 40.5352 O.3 0.0 **** -0.452
17 H8833 3.29462 12.8842 40.3459 H 0.0 **** 0.41
18 C8740 1.67997 13.0037 39.3766 C.ar 0.0 **** 0.042
19 C8743 3.97224 11.6495 36.0637 C.ar 0.0 **** 0.0
20 H8818 -8.89452 12.707 31.9561 H 0.0 **** 0.053
21 H8814 -2.76277 10.5169 33.382 H 0.0 **** 0.053
22 C8754 10.2024 9.44266 35.5551 C.3 0.0 **** -0.106
23 H8789 -2.09591 15.1726 42.0832 H 0.0 **** 0.053
24 C8750 8.02668 11.5711 38.5559 C.ar 0.0 **** 0.2405
25 C8747 6.63276 10.6305 36.3791 C.ar 0.0 **** 0.0
26 H8808 -5.65178 8.57427 30.6341 H 0.0 **** 0.053
27 C8723 -4.35314 14.8352 37.5391 C.ar 0.0 **** 0.0
28 H8829 -2.14906 14.2425 44.2705 H 0.0 **** 0.053
29 H8780 -3.50593 11.9876 34.7546 H 0.0 **** 0.053
30 O8776 2.03815 11.879 34.7124 O.2 0.0 **** -0.419
31 H8806 -3.30637 10.4261 29.8678 H 0.0 **** 0.053
32 H8839 10.1363 14.1923 43.8252 H 0.0 **** 0.053
33 C8756 10.1682 10.4772 37.8356 C.3 0.0 **** -0.053
34 C8716 -4.92861 11.227 31.0355 C.ar 0.0 **** 0.0
35 C8733 -0.178885 13.1745 41.8103 C.3 0.0 **** -0.106
36 H8782 -6.60994 15.0939 33.298 H 0.0 **** 0.053
37 C8728 -3.55671 15.0396 38.6928 C.ar 0.0 **** 0.042
38 H8815 -2.03409 11.8527 32.4959 H 0.0 **** 0.053
39 C8745 4.73816 11.1832 34.8599 C.3 0.0 **** -0.106
40 C8779 10.6949 13.3533 43.3885 C.3 0.0 **** -0.159
41 C8764 -4.37804 10.2382 30.0294 C.3 0.0 **** -0.106
42 C8748 6.04776 11.4507 37.3752 C.ar 0.0 **** 0.2405
43 C8751 8.70133 10.7651 37.6141 C.ar 0.0 **** 0.0
44 C8763 10.5798 11.8287 41.3483 C.ar 0.0 **** 0.0
45 C8772 -2.97005 13.6265 43.8699 C.3 0.0 **** -0.159
46 H8802 10.002 9.34491 39.6634 H 0.0 **** 0.053
47 O8777 4.36361 12.3644 39.6067 O.2 0.0 **** -0.419
48 H8836 12.1331 11.3932 42.8059 H 0.0 **** 0.053
49 H8792 5.25677 12.0542 34.4169 H 0.0 **** 0.053
50 C8778 11.8376 11.1154 41.7876 C.3 0.0 **** -0.159
51 C8727 -2.36772 14.3076 38.9357 C.ar 0.0 **** 0.0
52 C8755 10.6517 9.28754 37.0071 C.3 0.0 **** -0.106
53 H8817 -8.17199 14.3233 31.9946 H 0.0 **** 0.053
54 C8713 -5.95093 13.1043 32.8729 C.ar 0.0 **** 0.0
55 H8800 10.2275 8.35977 37.43 H 0.0 **** 0.053
56 H8832 -0.648267 12.3762 44.4537 H 0.0 **** 0.053
57 C8724 -3.75992 14.0359 36.4994 C.ar 0.0 **** 0.0
58 H8799 11.7479 9.20652 37.0783 H 0.0 **** 0.053
59 C8758 9.93507 11.4323 40.162 C.ar 0.0 **** 0.0
60 C8739 2.43567 12.5613 38.2706 C.ar 0.0 **** 0.052
61 C8718 -4.48188 13.7965 35.2897 C.ar 0.0 **** 0.0
62 C8734 -1.31833 12.3022 42.3744 C.ar 0.0 **** -0.053
63 H8820 -7.76755 16.774 36.3853 H 0.0 **** 0.053
64 H8825 -6.11112 17.0985 38.6158 H 0.0 **** 0.053
65 C8753 8.67289 9.4343 35.4582 C.3 0.0 **** -0.106
66 C8732 -0.35112 13.2167 37.9645 C.ar 0.0 **** 0.0
67 H8791 4.03937 10.8122 34.0996 H 0.0 **** 0.053
68 C8731 0.262412 13.2688 39.2504 C.ar 0.0 **** 0.0
69 H8786 -0.0475564 14.0638 42.4543 H 0.0 **** 0.053
70 C8729 -1.80675 14.126 40.2426 C.2 0.0 **** 0.0
71 C8711 -6.23241 11.7445 30.8717 C.ar 0.0 **** 0.0
72 C8762 10.0355 12.8791 42.1173 C.ar 0.0 **** 0.0
73 H8831 -1.70176 10.9918 44.0829 H 0.0 **** 0.053
74 O8775 -0.0813415 12.6414 35.6288 O.3 0.0 **** -0.452
75 H8834 0.724135 12.3022 35.0227 H 0.0 **** 0.41
76 H8811 -8.17301 11.3248 29.9939 H 0.0 **** 0.053
77 H8837 12.6844 11.3498 41.1201 H 0.0 **** 0.053
78 C8773 -0.899216 11.6308 43.6844 C.3 0.0 **** -0.159
79 C8744 2.56766 11.982 35.8771 C.2 0.0 **** 0.367
80 C8767 -2.78579 11.0501 32.4172 C.3 0.0 **** -0.159
81 O8771 -3.94356 16.027 39.5713 O.3 0.0 **** -0.452
82 H8838 10.7436 12.5505 44.1425 H 0.0 **** 0.053
83 H8819 -8.2995 13.4486 30.4615 H 0.0 **** 0.053
84 H8797 10.5883 10.3986 35.1634 H 0.0 **** 0.053
85 H8788 -3.45808 12.4796 42.1238 H 0.0 **** 0.053
86 C8714 -4.68803 12.5414 33.0704 C.ar 0.0 **** 0.0
87 C8752 7.99279 10.2999 36.4971 C.ar 0.0 **** 0.0
88 H8781 -2.90808 13.3817 33.9054 H 0.0 **** 0.053
89 H8794 5.2367 9.21192 35.5884 H 0.0 **** 0.053
90 H8824 -7.49727 16.0239 38.3096 H 0.0 **** 0.053
91 C8737 0.440797 12.7625 36.8465 C.ar 0.0 **** 0.042
92 H8804 7.24871 13.5324 40.2249 H 0.0 **** 0.1268
93 H8827 -3.14784 12.8002 44.5719 H 0.0 **** 0.053
94 H8803 11.5474 10.1744 39.4578 H 0.0 **** 0.053
95 C8715 -4.16259 11.6116 32.1507 C.ar 0.0 **** 0.0
96 H8822 -7.80994 16.0081 34.7921 H 0.0 **** 0.053
97 C8759 8.73421 12.0519 39.7572 C.ar 0.0 **** 0.0
98 H8809 -4.06529 8.59203 31.4265 H 0.0 **** 0.053
99 H8801 10.7261 11.3753 37.5019 H 0.0 **** 0.053
100 C8760 8.19112 13.0821 40.5366 C.ar 0.0 **** -0.1268
101 C8735 -2.63095 13.1229 42.4633 C.ar 0.0 **** -0.053
102 H8828 -3.87505 14.2528 43.8429 H 0.0 **** 0.053
103 H8785 0.759714 12.6211 41.8478 H 0.0 **** 0.053
104 C8761 8.84462 13.4896 41.693 C.ar 0.0 **** -0.1268
105 H8813 -6.95349 11.8449 28.8172 H 0.0 **** 0.053
106 H8793 6.36285 9.84067 34.383 H 0.0 **** 0.053
107 C8738 1.8074 12.4323 37.0101 C.ar 0.0 **** 0.052
108 C8722 -5.67083 15.3776 37.3475 C.ar 0.0 **** 0.0
109 C8726 -1.72587 13.6564 37.8178 C.ar 0.0 **** 0.0
110 N8749 6.74394 11.9235 38.4187 N.ar 0.0 **** -0.481
111 C8757 10.4631 10.2934 39.3254 C.3 0.0 **** -0.106
112 H8790 -3.61762 14.6607 41.331 H 0.0 **** 0.053
113 H8840 11.7298 13.686 43.2091 H 0.0 **** 0.053
114 C8741 3.83998 12.2492 38.4537 C.2 0.0 **** 0.367
115 H8787 -1.48172 11.5042 41.6315 H 0.0 **** 0.053
116 H8823 -6.21427 15.5409 39.4311 H 0.0 **** 0.053
117 C8765 -4.58257 8.78125 30.4741 C.3 0.0 **** -0.159
118 C8719 -5.71806 14.3723 35.0994 C.ar 0.0 **** 0.0
119 H8795 8.30226 8.39918 35.5684 H 0.0 **** 0.053
120 H8816 -2.4514 10.3468 31.6477 H 0.0 **** 0.053
121 C8742 4.60988 11.7837 37.2812 C.ar 0.0 **** 0.0
122 C8768 -8.08795 13.3317 31.5329 C.3 0.0 **** -0.159
123 H8812 -6.90027 10.206 29.4902 H 0.0 **** 0.053
124 C8721 -6.30563 15.1897 36.1239 C.ar 0.0 **** 0.0
125 H8796 8.36682 9.75312 34.4498 H 0.0 **** 0.053
126 C8725 -2.45686 13.534 36.6374 C.ar 0.0 **** -0.1268
127 H8821 -8.48179 15.1608 36.1921 H 0.0 **** 0.053
128 H8805 8.42246 14.2946 42.2985 H 0.0 **** 0.1268
129 C8720 -6.49872 14.1307 33.8337 C.3 0.0 **** -0.106
130 C8746 5.76474 10.1262 35.2572 C.3 0.0 **** -0.106
@<TRIPOS>BOND
1 16 17 1
2 74 75 1
3 129 118 1
4 54 7 am
5 86 54 am
6 95 86 am
7 34 95 am
8 71 7 am
9 71 34 am
10 61 9 1
11 118 61 am
12 86 9 1
13 54 129 1
14 108 124 am
15 27 108 am
16 57 27 am
17 118 124 am
18 61 57 am
19 109 126 am
20 51 109 am
21 37 51 am
22 57 126 am
23 27 37 am
24 5 70 1
25 68 5 1
26 66 68 am
27 51 70 1
28 109 66 am
29 62 35 1
30 101 62 am
31 2 101 1
32 5 35 1
33 70 2 1
34 107 91 am
35 60 107 am
36 18 60 am
37 66 91 am
38 68 18 am
39 121 114 1
40 19 121 am
41 79 19 1
42 60 114 1
43 107 79 1
44 130 39 1
45 25 130 1
46 42 25 am
47 19 39 1
48 121 42 am
49 24 110 am
50 43 24 am
51 87 43 am
52 42 110 am
53 25 87 am
54 22 65 1
55 52 22 1
56 33 52 1
57 87 65 1
58 43 33 1
59 59 111 1
60 97 59 am
61 24 97 am
62 33 111 1
63 104 100 am
64 72 104 am
65 44 72 am
66 97 100 am
67 59 44 am
68 34 41 1
69 41 117 1
70 71 15 1
71 95 80 1
72 7 122 1
73 124 11 1
74 108 14 1
75 37 81 1
76 101 45 1
77 62 78 1
78 18 16 1
79 91 74 1
80 79 30 2
81 114 47 2
82 44 50 1
83 72 40 1
84 9 29 1
85 9 88 1
86 129 36 1
87 129 8 1
88 126 3 1
89 35 103 1
90 35 69 1
91 62 115 1
92 101 85 1
93 2 23 1
94 2 112 1
95 39 67 1
96 39 49 1
97 130 106 1
98 130 89 1
99 65 119 1
100 65 125 1
101 22 84 1
102 22 10 1
103 52 58 1
104 52 55 1
105 33 99 1
106 111 46 1
107 111 94 1
108 100 92 1
109 104 128 1
110 41 31 1
111 41 4 1
112 117 26 1
113 117 98 1
114 117 13 1
115 15 76 1
116 15 123 1
117 15 105 1
118 80 21 1
119 80 38 1
120 80 120 1
121 122 53 1
122 122 20 1
123 122 83 1
124 11 63 1
125 11 127 1
126 11 96 1
127 14 116 1
128 14 90 1
129 14 64 1
130 81 12 1
131 45 93 1
132 45 102 1
133 45 28 1
134 78 1 1
135 78 73 1
136 78 56 1
137 50 6 1
138 50 48 1
139 50 77 1
140 40 82 1
141 40 32 1
142 40 113 1
@<TRIPOS>MOLECULE
Sketch 4
130 142
SMALL
USER_CHARGES


@<TRIPOS>ATOM
1 C2409 35.4862 11.8662 49.7402 C.3 0.0 **** -0.159
2 C2354 25.1249 17.078 60.8013 C.ar 0.0 **** 0.0
3 H2419 27.3522 19.8037 56.0213 H 0.0 **** 0.053
4 C2351 22.8471 18.527 61.6167 C.ar 0.0 **** 0.0
5 C2402 28.8585 21.7803 56.4351 C.3 0.0 **** -0.159
6 H2424 32.8293 10.4143 59.6709 H 0.0 **** 0.053
7 H2443 22.107 14.0009 68.2471 H 0.0 **** 0.053
8 H2431 34.6043 7.78746 54.3394 H 0.0 **** 0.053
9 C2383 34.2674 7.89693 57.8085 C.3 0.0 **** -0.106
10 H2450 21.0239 19.6411 61.2293 H 0.0 **** 0.053
11 H2432 36.7115 9.95449 54.767 H 0.0 **** 0.053
12 H2440 26.7256 12.9432 68.6761 H 0.0 **** 0.053
13 C2390 33.3091 11.6156 52.8504 C.ar 0.0 **** -0.1268
14 H2414 26.4564 15.4005 60.907 H 0.0 **** 0.1268
15 C2363 29.7105 18.3875 56.4391 C.3 0.0 **** -0.106
16 C2397 26.2206 13.6802 64.5139 C.3 0.0 **** -0.159
17 H2410 26.1107 15.7871 62.9614 H 0.0 **** 0.053
18 C2376 32.2427 9.75254 59.0058 C.3 0.0 **** -0.106
19 H2462 31.1881 20.6421 55.6787 H 0.0 **** 0.053
20 H2451 21.8441 20.1043 62.7335 H 0.0 **** 0.053
21 C2403 31.3254 20.318 56.7211 C.3 0.0 **** -0.159
22 H2463 31.0131 14.9284 55.6441 H 0.0 **** 0.41
23 H2437 24.342 12.7812 67.9345 H 0.0 **** 0.053
24 H2458 27.9257 22.3577 56.5273 H 0.0 **** 0.053
25 H2449 20.8944 16.014 66.9965 H 0.0 **** 0.053
26 C2350 22.6281 17.102 63.6964 C.3 0.0 **** -0.106
27 H2456 25.2134 19.137 57.0318 H 0.0 **** 0.41
28 C2374 29.5174 12.3221 59.1487 C.2 0.0 **** 0.367
29 H2439 27.0911 14.0259 67.3038 H 0.0 **** 0.053
30 C2366 27.5148 19.7955 57.1166 C.3 0.0 **** -0.106
31 C2373 30.5309 11.4893 58.5182 C.ar 0.0 **** 0.0
32 C2396 22.8666 14.799 68.175 C.3 0.0 **** -0.159
33 C2370 29.74 15.3662 56.9664 C.ar 0.0 **** 0.042
34 C2385 35.9765 7.61677 55.9818 C.3 0.0 **** -0.106
35 H2425 34.9326 8.29885 58.594 H 0.0 **** 0.053
36 C2346 24.4777 14.1924 66.3117 C.ar 0.0 **** 0.0
37 H2436 25.4006 12.2744 66.6378 H 0.0 **** 0.053
38 H2469 34.7479 12.5165 49.2519 H 0.0 **** 0.053
39 C2356 26.9455 16.6097 59.2247 C.ar 0.0 **** 0.0
40 N2379 32.6309 11.199 55.5502 N.ar 0.0 **** -0.481
41 C2392 35.0097 11.4557 51.1114 C.ar 0.0 **** 0.0
42 C2381 34.1415 9.32552 55.7196 C.ar 0.0 **** 0.0
43 C2368 29.2683 13.6321 58.6137 C.ar 0.0 **** 0.052
44 H2426 33.4578 7.37638 58.3431 H 0.0 **** 0.053
45 H2435 33.2106 12.6293 50.9556 H 0.0 **** 0.1268
46 C2388 35.2728 10.2272 53.1966 C.ar 0.0 **** 0.0
47 H2430 36.6616 8.27161 56.5487 H 0.0 **** 0.053
48 C2378 32.2293 10.9759 56.8095 C.ar 0.0 **** 0.2405
49 H2413 22.4532 18.0372 64.2549 H 0.0 **** 0.053
50 H2411 24.9742 14.6792 62.2524 H 0.0 **** 0.053
51 H2460 32.1739 19.6183 56.7475 H 0.0 **** 0.053
52 C2359 27.5423 18.3587 57.5841 C.2 0.0 **** 0.0
53 C2361 28.7971 16.2551 57.6118 C.ar 0.0 **** 0.0
54 C2393 35.7674 10.5924 51.9308 C.ar 0.0 **** 0.0
55 H2454 22.5263 20.8634 60.4627 H 0.0 **** 0.053
56 H2459 28.9453 21.4506 55.3873 H 0.0 **** 0.053
57 H2417 30.2958 19.2774 58.2789 H 0.0 **** 0.053
58 C2349 23.3407 17.4377 62.4121 C.ar 0.0 **** 0.0
59 H2423 32.3927 8.72989 59.3734 H 0.0 **** 0.053
60 O2406 28.861 11.8733 60.1563 O.2 0.0 **** -0.419
61 H2421 30.4011 10.0995 60.1353 H 0.0 **** 0.053
62 H2442 23.6753 14.5419 68.8714 H 0.0 **** 0.053
63 O2404 30.3552 15.745 55.853 O.3 0.0 **** -0.452
64 H2447 20.9121 16.959 65.5003 H 0.0 **** 0.053
65 C2408 37.1079 10.0654 51.4734 C.3 0.0 **** -0.159
66 H2457 29.6995 22.4541 56.6495 H 0.0 **** 0.053
67 H2467 37.062 8.98299 51.2641 H 0.0 **** 0.053
68 C2394 25.0935 13.1527 67.2245 C.3 0.0 **** -0.106
69 H2468 36.4401 12.4165 49.7917 H 0.0 **** 0.053
70 C2343 23.2902 16.0987 64.6085 C.ar 0.0 **** 0.0
71 C2360 28.6423 17.6151 57.178 C.2 0.0 **** 0.0
72 C2353 24.6487 18.1831 60.0116 C.ar 0.0 **** 0.0
73 H2433 36.7346 8.67317 53.5519 H 0.0 **** 0.053
74 C2400 23.1013 20.2237 59.7838 C.3 0.0 **** -0.159
75 H2453 23.9821 20.7887 59.4567 H 0.0 **** 0.053
76 H2446 26.6087 12.9426 65.2238 H 0.0 **** 0.053
77 O2401 24.7638 19.2649 57.8822 O.3 0.0 **** -0.452
78 C2399 21.601 19.2503 62.0769 C.3 0.0 **** -0.159
79 H2412 21.61 16.7406 63.4514 H 0.0 **** 0.053
80 C2389 34.0465 10.7445 53.6637 C.ar 0.0 **** 0.0
81 C2372 31.2374 11.8978 57.4043 C.ar 0.0 **** 0.0
82 H2416 29.3526 18.6978 55.4398 H 0.0 **** 0.053
83 H2444 27.0407 14.3816 64.2877 H 0.0 **** 0.053
84 C2391 33.7871 11.9527 51.5902 C.ar 0.0 **** -0.1268
85 O2407 31.6275 13.6855 55.8366 O.2 0.0 **** -0.419
86 C2380 33.5804 10.4179 55.0242 C.ar 0.0 **** 0.2405
87 H2465 37.8762 10.2057 52.2491 H 0.0 **** 0.053
88 H2448 21.7944 17.538 66.9224 H 0.0 **** 0.053
89 C2377 32.7355 9.90877 57.5919 C.ar 0.0 **** 0.0
90 C2398 21.5283 16.6332 66.3475 C.3 0.0 **** -0.159
91 H2415 30.6075 17.7894 56.2771 H 0.0 **** 0.053
92 H2464 28.026 12.9896 60.3981 H 0.0 **** 0.41
93 C2382 33.6977 9.05844 57.0227 C.ar 0.0 **** 0.0
94 O2405 27.6238 13.9642 60.2582 O.3 0.0 **** -0.452
95 H2420 26.701 20.3691 57.5704 H 0.0 **** 0.053
96 C2367 28.2845 14.4547 59.2127 C.ar 0.0 **** 0.042
97 C2387 36.0633 9.33279 54.1191 C.3 0.0 **** -0.106
98 C2364 30.0647 19.641 57.2641 C.ar 0.0 **** -0.053
99 C2347 25.0267 15.6167 62.8397 C.3 0.0 **** -0.106
100 C2384 35.0413 6.8919 56.9483 C.3 0.0 **** -0.106
101 H2434 32.3769 12.028 53.2363 H 0.0 **** 0.1268
102 C2358 25.3516 18.4306 58.8066 C.ar 0.0 **** 0.042
103 C2341 23.3796 14.9592 66.7595 C.ar 0.0 **** 0.0
104 C2369 29.992 14.078 57.4834 C.ar 0.0 **** 0.052
105 H2455 22.4937 20.042 58.8834 H 0.0 **** 0.053
106 C2395 26.3024 13.7013 67.9988 C.3 0.0 **** -0.159
107 C2371 30.9881 13.2417 56.842 C.2 0.0 **** 0.367
108 H2452 20.9386 18.5871 62.6465 H 0.0 **** 0.053
109 C2352 23.5132 18.9385 60.4668 C.ar 0.0 **** 0.0
110 H2429 36.599 6.90301 55.4193 H 0.0 **** 0.053
111 H2422 30.1622 9.39415 58.532 H 0.0 **** 0.053
112 C2348 24.4621 16.7407 62.0215 C.ar 0.0 **** 0.0
113 C2345 25.0109 14.4228 65.0307 C.ar 0.0 **** 0.0
114 C2357 26.5923 17.8135 58.5094 C.ar 0.0 **** 0.0
115 H2441 22.4028 15.7238 68.541 H 0.0 **** 0.053
116 C2375 30.766 10.1261 59.1008 C.3 0.0 **** -0.106
117 H2470 35.6564 10.9921 49.0913 H 0.0 **** 0.053
118 H2428 35.5981 6.2002 57.5984 H 0.0 **** 0.053
119 C2344 24.4174 15.3872 64.1916 C.ar 0.0 **** 0.0
120 C2365 28.8323 20.5748 57.3803 C.ar 0.0 **** -0.053
121 C2342 22.7594 15.8804 65.8953 C.ar 0.0 **** 0.0
122 H2438 26.0105 14.5779 68.5972 H 0.0 **** 0.053
123 H2418 28.7887 20.9538 58.4136 H 0.0 **** 0.053
124 H2461 31.5944 21.2032 57.317 H 0.0 **** 0.053
125 H2445 25.9973 13.1594 63.5683 H 0.0 **** 0.053
126 C2355 26.2 16.2923 60.3589 C.ar 0.0 **** -0.1268
127 H2466 37.4558 10.5638 50.5613 H 0.0 **** 0.053
128 H2427 34.3287 6.28432 56.3658 H 0.0 **** 0.053
129 C2362 28.0108 15.7761 58.7004 C.ar 0.0 **** 0.0
130 C2386 35.1651 8.47107 55.0085 C.3 0.0 **** -0.053
@<TRIPOS>BOND
1 39 129 am
2 1 38 1
3 70 121 am
4 119 70 am
5 113 119 am
6 36 113 am
7 103 121 am
8 103 36 am
9 112 99 1
10 58 112 am
11 26 58 1
12 119 99 1
13 70 26 1
14 109 4 am
15 72 109 am
16 2 72 am
17 58 4 am
18 112 2 am
19 39 126 am
20 114 39 am
21 102 114 am
22 2 126 am
23 72 102 am
24 71 52 1
25 53 71 1
26 129 53 am
27 114 52 1
28 98 15 1
29 120 98 am
30 30 120 1
31 71 15 1
32 52 30 1
33 43 96 am
34 104 43 am
35 33 104 am
36 129 96 am
37 53 33 am
38 81 107 1
39 31 81 am
40 28 31 1
41 104 107 1
42 43 28 1
43 18 116 1
44 89 18 1
45 48 89 am
46 31 116 1
47 81 48 am
48 86 40 am
49 42 86 am
50 93 42 am
51 48 40 am
52 89 93 am
53 100 9 1
54 34 100 1
55 130 34 1
56 93 9 1
57 42 130 1
58 46 97 1
59 80 46 am
60 86 80 am
61 130 97 1
62 84 13 am
63 41 84 am
64 54 41 am
65 80 13 am
66 46 54 am
67 36 68 1
68 68 106 1
69 103 32 1
70 113 16 1
71 121 90 1
72 4 78 1
73 109 74 1
74 102 77 1
75 120 5 1
76 98 21 1
77 33 63 1
78 96 94 1
79 28 60 2
80 107 85 2
81 54 65 1
82 41 1 1
83 99 17 1
84 99 50 1
85 26 79 1
86 26 49 1
87 126 14 1
88 15 91 1
89 15 82 1
90 98 57 1
91 120 123 1
92 30 3 1
93 30 95 1
94 116 61 1
95 116 111 1
96 18 59 1
97 18 6 1
98 9 35 1
99 9 44 1
100 100 128 1
101 100 118 1
102 34 110 1
103 34 47 1
104 130 8 1
105 97 11 1
106 97 73 1
107 13 101 1
108 84 45 1
109 68 37 1
110 68 23 1
111 106 122 1
112 106 29 1
113 106 12 1
114 32 115 1
115 32 62 1
116 32 7 1
117 16 83 1
118 16 125 1
119 16 76 1
120 90 64 1
121 90 88 1
122 90 25 1
123 78 10 1
124 78 20 1
125 78 108 1
126 74 75 1
127 74 55 1
128 74 105 1
129 77 27 1
130 5 66 1
131 5 24 1
132 5 56 1
133 21 51 1
134 21 124 1
135 21 19 1
136 63 22 1
137 94 92 1
138 65 87 1
139 65 127 1
140 65 67 1
141 1 69 1
142 1 117 1
@<TRIPOS>MOLECULE
Sketch 4
250 292
SMALL
USER_CHARGES


@<TRIPOS>ATOM
1 O25801 82.1837 14.1268 33.6135 O.2 0.0 **** -0.419
2 C25720 66.2136 19.4757 30.0826 C.2 0.0 **** 0.0
3 H25817 51.7355 23.6695 28.4226 H 0.0 **** 0.053
4 C25669 53.7326 23.6358 27.8118 C.2 0.0 **** 0.0
5 H25903 81.2132 12.6545 31.4871 H 0.0 **** 0.053
6 C25763 74.3541 14.9117 29.622 C.3 0.0 **** -0.106
7 H25875 73.0046 15.7756 31.9755 H 0.0 **** 0.053
8 C25741 63.3389 24.529 31.8053 C.3 0.0 **** 0.107
9 C25690 51.5368 19.1346 26.5805 C.2 0.0 **** -0.1268
10 C25693 54.0574 15.7757 23.6089 C.2 0.0 **** 0.0
11 C25748 67.6335 21.0489 31.3715 C.2 0.0 **** 0.0
12 C25704 61.1663 17.0454 26.7774 C.2 0.0 **** -0.1268
13 H25899 77.4953 12.8995 31.8745 H 0.0 **** 0.053
14 C25699 57.4808 18.6013 26.2555 C.2 0.0 **** -0.012
15 C25727 66.7808 13.9024 26.9728 C.3 0.0 **** -0.053
16 H25889 57.1476 18.6397 18.9168 H 0.0 **** 0.053
17 H25878 75.3365 14.564 29.2721 H 0.0 **** 0.053
18 H25857 72.0455 12.6093 29.6116 H 0.0 **** 0.053
19 C25766 74.3973 18.1922 32.4459 C.2 0.0 **** 0.0
20 C25700 56.2029 18.3223 25.8373 C.2 0.0 **** -0.1268
21 C25718 63.8981 20.1273 29.4786 C.2 0.0 **** 0.0
22 C25754 70.772 17.1697 30.3914 C.2 0.0 **** 0.0
23 H25834 54.2579 18.9111 22.7854 H 0.0 **** 0.053
24 C25697 55.9336 16.0166 21.9549 C.3 0.0 **** -0.106
25 H25840 54.1258 14.842 21.6808 H 0.0 **** 0.053
26 C25696 55.3783 17.4183 21.6789 C.3 0.0 **** -0.053
27 C25773 56.4866 17.947 19.4596 C.3 0.0 **** -0.159
28 H25896 81.8715 15.5761 35.0577 H 0.0 **** 0.1268
29 H25850 68.549 13.0557 25.22 H 0.0 **** 0.053
30 C25765 72.437 16.3431 28.6998 C.3 0.0 **** -0.106
31 C25708 63.735 18.8628 28.8223 C.2 0.0 **** 0.0
32 C25789 76.6348 17.5507 33.2649 C.2 0.0 **** 0.0
33 H25830 51.2031 15.1632 25.4508 H 0.0 **** 0.053
34 C25752 68.8876 21.3555 31.9869 C.2 0.0 **** -0.1268
35 H25872 69.0165 22.3039 32.5095 H 0.0 **** 0.1268
36 H25813 48.7491 21.8204 24.7882 H 0.0 **** 0.053
37 C25691 51.8624 15.7256 24.7705 C.3 0.0 **** -0.106
38 H25858 71.7494 10.7936 27.5598 H 0.0 **** 0.053
39 H25867 62.9634 27.4387 31.013 H 0.0 **** 0.053
40 C25770 75.5258 17.3015 32.4302 C.2 0.0 **** 0.0
41 H25804 51.4383 22.9703 21.0309 H 0.0 **** 0.053
42 H25808 53.0727 25.7069 24.264 H 0.0 **** 0.053
43 H25845 68.7182 14.8899 27.1644 H 0.0 **** 0.053
44 C25716 61.5834 20.7595 28.837 C.2 0.0 **** 0.0
45 H25816 51.731 21.4131 28.0995 H 0.0 **** 0.053
46 H25827 51.3261 17.1371 27.3308 H 0.0 **** 0.053
47 H25853 68.2296 12.4521 28.9182 H 0.0 **** 0.053
48 H25866 65.3258 25.7369 30.056 H 0.0 **** 0.053
49 H25844 60.5049 22.5794 29.337 H 0.0 **** 0.1268
50 H25891 72.5719 22.1752 34.0039 H 0.0 **** 0.1268
51 C25729 66.8323 12.4795 26.403 C.3 0.0 **** -0.106
52 O25665 50.6775 21.9524 26.4638 O.3 0.0 **** -0.32
53 C25786 78.8818 18.0779 34.9174 C.2 0.0 **** 0.0
54 C25705 62.3723 17.3299 27.4705 C.2 0.0 **** 0.0
55 H25814 48.4501 23.5557 22.8533 H 0.0 **** 0.053
56 H25838 56.3729 15.579 21.0454 H 0.0 **** 0.053
57 C25678 55.2217 24.8614 29.4158 C.3 0.0 **** -0.106
58 C25728 65.5792 14.1673 27.8913 C.3 0.0 **** 0.107
59 H25863 63.7831 24.4889 28.7771 H 0.0 **** 0.053
60 H25852 69.1648 11.0416 27.4023 H 0.0 **** 0.053
61 C25688 52.2333 17.0433 25.3915 C.2 0.0 **** 0.0
62 C25715 66.0404 18.201 29.4475 C.2 0.0 **** 0.0
63 H25856 70.7069 11.4539 29.5555 H 0.0 **** 0.053
64 C25666 51.9334 21.9543 27.1636 C.3 0.0 **** 0.107
65 C25767 74.445 19.3877 33.2174 C.2 0.0 **** 0.0
66 C25657 50.5903 23.9915 22.743 C.3 0.0 **** -0.053
67 H25849 66.067 12.3703 25.6243 H 0.0 **** 0.053
68 C25707 61.4366 19.5026 28.1585 C.2 0.0 **** 0.0
69 C25724 67.4523 19.7956 30.6982 C.2 0.0 **** 0.0
70 C25747 63.7951 25.8992 32.311 C.3 0.0 **** -0.106
71 H25874 71.604 15.2285 30.3025 H 0.0 **** 0.053
72 C25744 63.312 25.2838 29.3734 C.3 0.0 **** -0.106
73 C25783 78.9883 20.4475 36.4741 C.2 0.0 **** -0.1268
74 H25884 58.3808 19.1481 21.1182 H 0.0 **** 0.053
75 N25736 70.6092 12.2354 26.5513 N.3 0.0 **** -0.727
76 C25745 64.3836 26.2753 29.8762 C.3 0.0 **** -0.106
77 C25684 52.7213 19.7052 26.2661 C.2 0.0 **** 0.0
78 H25895 80.8946 19.7441 37.1527 H 0.0 **** 0.1268
79 H25812 48.95 23.5288 25.2051 H 0.0 **** 0.053
80 C25662 50.7862 22.4351 25.1158 C.3 0.0 **** 0.107
81 C25663 49.3784 22.7046 24.6122 C.3 0.0 **** -0.106
82 H25819 50.701 24.6635 26.6853 H 0.0 **** 0.053
83 C25790 79.9451 15.9706 34.1606 C.2 0.0 **** 0.0
84 H25803 53.7232 23.7497 22.8504 H 0.0 **** 0.053
85 C25769 75.5556 16.1951 31.5363 C.2 0.0 **** 0.0
86 H25854 70.6035 14.2893 28.4055 H 0.0 **** 0.053
87 H25842 61.087 16.0952 26.2443 H 0.0 **** 0.1268
88 O25756 71.1209 20.798 32.5211 O.3 0.0 **** -0.0685
89 C25794 77.6714 15.4515 32.5113 C.2 0.0 **** 0.0
90 C25723 68.5356 18.8837 30.6288 C.2 0.0 **** 0.0
91 C25721 65.1472 20.4119 30.1077 C.2 0.0 **** 0.0
92 C25717 60.4684 21.623 28.8364 C.2 0.0 **** -0.1268
93 H25877 73.929 14.1031 30.2407 H 0.0 **** 0.053
94 H25809 51.8371 26.7515 23.4968 H 0.0 **** 0.053
95 C25712 65.6196 15.6362 28.3007 C.2 0.0 **** 0.0
96 H25806 50.243 24.7569 22.0338 H 0.0 **** 0.053
97 C25681 59.2882 21.2839 28.2116 C.2 0.0 **** 0.232
98 H25846 66.7007 14.6062 26.129 H 0.0 **** 0.053
99 H25885 58.2605 17.4118 21.4721 H 0.0 **** 0.053
100 O25740 64.5141 23.7407 31.5171 O.3 0.0 **** -0.202
101 H25887 55.5022 17.9499 18.9653 H 0.0 **** 0.053
102 C25710 64.596 16.6233 28.188 C.2 0.0 **** 0.0
103 C25698 54.8215 15.1188 22.4968 C.3 0.0 **** -0.106
104 C25768 73.3326 20.2868 33.2329 C.2 0.0 **** 0.0
105 C25714 67.1118 17.2646 29.4219 C.2 0.0 **** 0.0
106 C25664 49.4014 23.0696 23.1167 C.3 0.0 **** -0.106
107 H25888 56.9123 16.9357 19.3605 H 0.0 **** 0.053
108 C25734 71.1622 12.3067 29.0268 C.3 0.0 **** -0.106
109 H25901 79.2759 11.1335 31.9097 H 0.0 **** 0.053
110 H25876 74.7206 17.0088 29.8059 H 0.0 **** 0.053
111 C25661 51.6642 23.7163 25.0296 C.3 0.0 **** -0.053
112 C25755 69.5527 16.8338 29.8321 C.2 0.0 **** -0.1268
113 H25900 78.8389 13.31 30.8045 H 0.0 **** 0.053
114 C25775 73.4168 21.4868 34.0119 C.2 0.0 **** -0.1268
115 C25685 53.7971 18.8786 25.7251 C.2 0.0 **** 0.0
116 H25807 50.317 25.288 24.4462 H 0.0 **** 0.053
117 C25701 60.2033 19.1808 27.4887 C.2 0.0 **** 0.0
118 H25848 66.5868 11.749 27.1929 H 0.0 **** 0.053
119 H25883 55.9378 19.3612 20.9786 H 0.0 **** 0.053
120 H25898 76.5904 14.4458 30.921 H 0.0 **** 0.1268
121 C25655 53.0329 24.081 22.0489 C.3 0.0 **** 0.054
122 H25880 74.0535 15.4801 27.5357 H 0.0 **** 0.053
123 C25772 57.7508 18.3803 21.5917 C.3 0.0 **** -0.159
124 H25892 74.5825 22.6725 35.3531 H 0.0 **** 0.1268
125 C25682 59.0991 20.0702 27.5261 C.2 0.0 **** 0.0
126 H25894 79.0148 21.3641 37.0662 H 0.0 **** 0.1268
127 H25843 63.2816 15.4848 26.9063 H 0.0 **** 0.1268
128 C25777 75.6443 20.8575 34.8026 C.2 0.0 **** 0.0
129 H25902 79.0328 11.8715 33.5076 H 0.0 **** 0.053
130 C25709 64.7902 17.8996 28.83 C.2 0.0 **** 0.0
131 H25822 56.8311 24.9093 27.9772 H 0.0 **** 0.053
132 C25771 56.3648 18.3426 20.9348 C.3 0.0 **** -0.053
133 H25886 57.7005 18.6001 22.669 H 0.0 **** 0.053
134 H25811 51.2325 21.6342 24.4951 H 0.0 **** 0.053
135 C25781 77.8435 20.2018 35.6545 C.2 0.0 **** 0.0
136 C25764 73.4389 15.21 28.4081 C.3 0.0 **** -0.106
137 C25670 54.7071 22.6654 27.6411 C.2 0.0 **** 0.0
138 C25711 63.4032 16.3956 27.4843 C.2 0.0 **** -0.1268
139 C25722 68.3993 17.6321 29.9573 C.2 0.0 **** 0.0
140 H25818 52.3233 25.292 26.3639 H 0.0 **** 0.053
141 C25796 78.7272 14.4922 32.603 C.2 0.0 **** 0.0
142 C25784 80.026 19.5545 36.5192 C.2 0.0 **** -0.1268
143 H25847 65.7445 13.5734 28.814 H 0.0 **** 0.053
144 H25835 55.7839 18.4802 23.5204 H 0.0 **** 0.053
145 C25694 54.1674 17.0943 23.8971 C.2 0.0 **** 0.0
146 C25749 66.5692 21.9495 31.4088 C.2 0.0 **** -0.1268
147 C25677 56.4319 24.2151 28.7408 C.3 0.0 **** -0.106
148 C25759 71.9513 16.2631 30.1584 C.3 0.0 **** -0.053
149 C25793 76.5884 15.2875 31.6084 C.2 0.0 **** -0.1268
150 H25821 57.2472 24.0544 29.4608 H 0.0 **** 0.053
151 C25753 70.8887 18.3584 31.1236 C.2 0.0 **** 0.0
152 C25671 54.4099 21.4044 27.0096 C.2 0.0 **** 0.0
153 C25679 54.0701 24.971 28.4135 C.3 0.0 **** -0.106
154 H25802 53.5648 24.0024 21.0909 H 0.0 **** 0.053
155 C25692 53.1229 14.9242 24.4328 C.3 0.0 **** -0.106
156 H25859 72.5428 12.3565 27.3203 H 0.0 **** 0.053
157 O25725 67.7593 14.9666 28.9947 O.3 0.0 **** -0.202
158 H25873 69.4853 15.9058 29.2867 H 0.0 **** 0.1268
159 C25674 56.7499 20.7089 27.2056 C.2 0.0 **** 0.0
160 O25743 62.095 23.292 30.1626 O.3 0.0 **** -0.202
161 C25676 56.0678 22.9108 28.0782 C.2 0.0 **** 0.0
162 H25832 52.8712 14.0011 23.8875 H 0.0 **** 0.053
163 C25686 55.1118 19.218 26.0504 C.2 0.0 **** 0.0
164 C25738 64.2744 22.5795 30.8193 C.2 0.0 **** 0.042
165 O25680 58.295 22.2286 28.3014 O.3 0.0 **** -0.464
166 H25890 63.6838 13.7053 27.8838 H 0.0 **** 0.41
167 H25828 50.248 17.508 26.0097 H 0.0 **** 0.053
168 C25751 69.9206 20.4626 31.9132 C.2 0.0 **** 0.042
169 H25879 72.8865 14.2986 28.1392 H 0.0 **** 0.053
170 H25860 70.7509 13.2009 26.2516 H 0.0 **** 0.353
171 H25825 54.3564 25.6864 27.6167 H 0.0 **** 0.053
172 H25897 81.9121 17.6159 36.4377 H 0.0 **** 0.1268
173 C25779 76.6708 18.7413 34.0569 C.2 0.0 **** 0.0
174 C25799 80.8427 12.5147 32.5195 C.3 0.0 **** -0.086
175 H25870 64.7599 25.7486 32.8193 H 0.0 **** 0.053
176 C25778 75.591 19.6627 34.0143 C.2 0.0 **** 0.0
177 C25800 81.0468 13.8467 33.2304 C.2 0.0 **** 0.347
178 C25672 53.0336 21.1742 26.4268 C.3 0.0 **** -0.053
179 C25782 76.7675 21.1023 35.5994 C.2 0.0 **** -0.1268
180 H25833 53.6213 14.6183 25.3728 H 0.0 **** 0.053
181 S25703 58.7301 17.4598 25.8103 S.2 0.0 **** 0.024
182 C25658 51.1395 24.7195 23.9807 C.3 0.0 **** -0.053
183 C25706 62.5137 18.574 28.1586 C.2 0.0 **** 0.0
184 C25735 71.5871 11.8843 27.5923 C.3 0.0 **** 0.081
185 C25797 78.5574 13.1818 31.8668 C.3 0.0 **** -0.106
186 C25731 69.2326 12.075 27.0215 C.3 0.0 **** 0.134
187 H25837 56.7374 16.0895 22.7057 H 0.0 **** 0.053
188 C25742 62.5279 24.6182 30.5235 C.3 0.0 **** 0.107
189 H25861 62.7507 23.9924 32.5683 H 0.0 **** 0.053
190 C25675 57.0136 21.9459 27.8685 C.2 0.0 **** 0.232
191 H25869 63.0836 26.2523 33.0724 H 0.0 **** 0.053
192 O25660 52.7394 25.4714 22.2233 O.3 0.0 **** -0.32
193 H25836 54.4896 17.295 21.0321 H 0.0 **** 0.053
194 H25862 61.5932 25.1593 30.7282 H 0.0 **** 0.053
195 C25667 52.2898 23.4135 27.4994 C.3 0.0 **** -0.053
196 C25737 63.0778 22.3276 30.1662 C.2 0.0 **** 0.042
197 C25702 60.1169 17.9284 26.7814 C.2 0.0 **** -0.012
198 C25785 80.0013 18.353 35.7471 C.2 0.0 **** 0.0
199 H25831 51.2801 15.909 23.8446 H 0.0 **** 0.053
200 C25732 68.8686 13.0167 28.2182 C.3 0.0 **** -0.053
201 H25855 69.8978 13.8283 29.9538 H 0.0 **** 0.053
202 C25776 74.529 21.7583 34.7593 C.2 0.0 **** -0.1268
203 C25719 62.8352 21.0795 29.4905 C.2 0.0 **** 0.0
204 H25805 51.9319 22.2804 22.5842 H 0.0 **** 0.053
205 H25826 53.1704 25.3965 28.8893 H 0.0 **** 0.053
206 C25659 52.2325 25.727 23.5388 C.3 0.0 **** 0.054
207 H25865 64.5808 27.0316 29.1023 H 0.0 **** 0.053
208 C25730 68.2407 12.2111 25.8624 C.3 0.0 **** -0.106
209 C25673 55.3954 20.4629 26.77 C.2 0.0 **** 0.0
210 C25689 51.286 17.6754 26.3581 C.3 0.0 **** -0.106
211 H25904 81.5146 11.7882 32.9982 H 0.0 **** 0.053
212 H25882 72.8947 17.3306 28.5303 H 0.0 **** 0.053
213 C25750 69.7852 19.2193 31.2213 C.2 0.0 **** 0.0
214 H25841 56.0013 17.3651 25.357 H 0.0 **** 0.1268
215 C25758 72.1194 18.7189 31.7851 C.2 0.0 **** 0.0
216 C25739 65.348 21.6522 30.7861 C.2 0.0 **** 0.0
217 H25823 55.4887 25.8528 29.8125 H 0.0 **** 0.053
218 H25824 54.9008 24.2372 30.2655 H 0.0 **** 0.053
219 H25864 62.5902 25.7939 28.7189 H 0.0 **** 0.053
220 H25881 71.5725 16.2819 28.0215 H 0.0 **** 0.053
221 C25762 74.4828 16.1632 30.4825 C.3 0.0 **** -0.053
222 H25810 52.6874 23.4309 24.7373 H 0.0 **** 0.053
223 C25757 72.1886 19.9303 32.4941 C.2 0.0 **** 0.0265
224 C25687 53.4029 17.651 25.0366 C.2 0.0 **** 0.0
225 C25795 79.876 14.7673 33.357 C.2 0.0 **** 0.052
226 H25829 50.7275 19.7268 27.0043 H 0.0 **** 0.1268
227 H25871 66.6879 22.9013 31.9241 H 0.0 **** 0.1268
228 C25695 54.9165 18.0498 22.9971 C.3 0.0 **** -0.106
229 C25791 81.0382 16.2694 35.0205 C.2 0.0 **** -0.1268
230 C25733 70.1481 13.4471 28.9545 C.3 0.0 **** -0.106
231 C25746 63.9336 26.9407 31.1816 C.3 0.0 **** -0.106
232 H25820 53.1136 21.5769 25.3967 H 0.0 **** 0.053
233 C25780 77.7961 19.0018 34.8739 C.2 0.0 **** 0.0
234 C25760 73.127 16.4896 31.1368 C.3 0.0 **** -0.053
235 C25788 77.7232 16.6328 33.3013 C.2 0.0 **** 0.0
236 O25774 64.4064 13.6789 27.2378 O.3 0.0 **** -0.57
237 H25868 64.6397 27.7264 31.4882 H 0.0 **** 0.053
238 C25761 73.2173 17.8545 31.7659 C.2 0.0 **** 0.0
239 H25839 55.234 14.1617 22.865 H 0.0 **** 0.053
240 C25792 81.0597 17.4177 35.7843 C.2 0.0 **** -0.1268
241 H25893 76.8063 22.0129 36.2013 H 0.0 **** 0.1268
242 C25713 66.8291 15.9766 28.8765 C.2 0.0 **** 0.042
243 C25683 57.7911 19.801 26.9778 C.2 0.0 **** 0.0
244 C25726 68.0646 14.2369 27.7726 C.3 0.0 **** 0.107
245 C25787 78.852 16.8867 34.1308 C.2 0.0 **** 0.0
246 C25656 51.7422 23.2286 22.0568 C.3 0.0 **** -0.106
247 C25798 79.3914 12.0656 32.4835 C.3 0.0 **** -0.106
248 C25668 51.7255 24.3695 26.4077 C.3 0.0 **** -0.106
249 H25851 68.2856 11.3092 25.2366 H 0.0 **** 0.053
250 H25815 49.4591 22.1481 22.5144 H 0.0 **** 0.053
@<TRIPOS>BOND
1 146 11 un
2 27 16 1
3 248 82 1
4 141 185 1
5 179 135 un
6 112 22 un
7 22 148 1
8 148 30 1
9 66 246 1
10 182 66 1
11 206 182 1
12 192 206 1
13 121 246 1
14 121 192 1
15 80 111 1
16 81 80 1
17 106 81 1
18 182 111 1
19 66 106 1
20 64 52 1
21 195 64 1
22 248 195 1
23 80 52 1
24 111 248 1
25 137 4 un
26 152 137 un
27 178 152 un
28 195 4 1
29 64 178 1
30 159 209 1
31 190 159 un
32 161 190 un
33 152 209 un
34 137 161 un
35 57 147 1
36 153 57 1
37 4 153 1
38 161 147 1
39 97 165 1
40 125 97 un
41 243 125 un
42 190 165 1
43 159 243 un
44 115 77 un
45 163 115 2
46 178 77 1
47 209 163 un
48 61 224 2
49 210 61 1
50 9 210 1
51 115 224 1
52 77 9 2
53 155 37 1
54 10 155 1
55 145 10 2
56 61 37 1
57 224 145 1
58 26 228 1
59 24 26 1
60 103 24 1
61 145 228 1
62 10 103 1
63 20 14 un
64 163 20 un
65 243 14 un
66 197 117 un
67 181 197 1
68 14 181 un
69 125 117 un
70 54 12 un
71 183 54 un
72 68 183 un
73 197 12 un
74 117 68 un
75 130 31 un
76 102 130 un
77 138 102 un
78 183 31 un
79 54 138 un
80 242 95 un
81 105 242 un
82 62 105 un
83 102 95 un
84 130 62 un
85 92 44 un
86 97 92 un
87 68 44 un
88 203 21 un
89 44 203 un
90 31 21 un
91 91 2 un
92 21 91 un
93 62 2 un
94 90 139 un
95 69 90 un
96 2 69 un
97 105 139 un
98 244 157 1
99 15 244 1
100 58 15 1
101 242 157 1
102 95 58 1
103 208 51 1
104 186 208 1
105 200 186 1
106 15 51 1
107 244 200 1
108 108 230 1
109 184 108 1
110 75 184 1
111 200 230 1
112 186 75 1
113 164 196 un
114 216 164 un
115 91 216 un
116 203 196 un
117 8 100 1
118 188 8 1
119 160 188 1
120 164 100 1
121 196 160 1
122 76 72 1
123 231 76 1
124 70 231 1
125 188 72 1
126 8 70 1
127 216 146 un
128 69 11 un
129 168 213 un
130 34 168 un
131 11 34 un
132 90 213 un
133 22 151 un
134 139 112 un
135 213 151 un
136 223 88 1
137 215 223 un
138 168 88 1
139 151 215 1
140 234 148 1
141 238 234 1
142 215 238 un
143 6 221 1
144 136 6 1
145 30 136 1
146 234 221 1
147 65 19 1
148 104 65 1
149 223 104 un
150 238 19 un
151 221 85 1
152 19 40 un
153 85 40 un
154 26 132 1
155 132 123 1
156 132 27 1
157 58 236 1
158 202 114 1
159 128 202 un
160 176 128 1
161 104 114 un
162 65 176 un
163 233 173 un
164 135 233 1
165 176 173 un
166 128 179 un
167 142 73 un
168 198 142 1
169 53 198 1
170 135 73 un
171 233 53 un
172 235 245 un
173 32 235 un
174 173 32 un
175 53 245 un
176 229 83 un
177 240 229 un
178 198 240 un
179 245 83 un
180 89 149 un
181 235 89 un
182 40 32 un
183 85 149 un
184 141 225 un
185 89 141 un
186 83 225 un
187 247 185 1
188 174 247 1
189 177 174 1
190 225 177 1
191 177 1 2
192 121 154 1
193 121 84 1
194 246 41 1
195 246 204 1
196 66 96 1
197 182 116 1
198 206 42 1
199 206 94 1
200 111 222 1
201 80 134 1
202 81 79 1
203 81 36 1
204 106 55 1
205 106 250 1
206 64 45 1
207 195 3 1
208 248 140 1
209 178 232 1
210 147 150 1
211 147 131 1
212 57 217 1
213 57 218 1
214 153 171 1
215 153 205 1
216 210 46 1
217 210 167 1
218 9 226 1
219 37 33 1
220 37 199 1
221 155 162 1
222 155 180 1
223 228 23 1
224 228 144 1
225 26 193 1
226 24 187 1
227 24 56 1
228 103 239 1
229 103 25 1
230 20 214 1
231 12 87 1
232 138 127 1
233 92 49 1
234 244 43 1
235 15 98 1
236 58 143 1
237 51 118 1
238 51 67 1
239 208 29 1
240 208 249 1
241 186 60 1
242 200 47 1
243 230 86 1
244 230 201 1
245 108 63 1
246 108 18 1
247 184 38 1
248 184 156 1
249 75 170 1
250 8 189 1
251 188 194 1
252 72 59 1
253 72 219 1
254 76 207 1
255 76 48 1
256 231 39 1
257 231 237 1
258 70 191 1
259 70 175 1
260 146 227 1
261 34 35 1
262 112 158 1
263 148 71 1
264 234 7 1
265 221 110 1
266 6 93 1
267 6 17 1
268 136 169 1
269 136 122 1
270 30 220 1
271 30 212 1
272 132 119 1
273 123 74 1
274 123 99 1
275 123 133 1
276 27 101 1
277 27 107 1
278 236 166 1
279 114 50 1
280 202 124 1
281 179 241 1
282 73 126 1
283 142 78 1
284 229 28 1
285 240 172 1
286 149 120 1
287 185 13 1
288 185 113 1
289 247 109 1
290 247 129 1
291 174 5 1
292 174 211 1
@<TRIPOS>MOLECULE
Sketch 4
130 142
SMALL
USER_CHARGES


@<TRIPOS>ATOM
1 H8167 44.5438 57.5282 67.0643 H 0.0 **** 0.053
2 O8124 32.4337 63.593 66.5371 O.3 0.0 **** -0.452
3 C8073 39.1109 61.1356 68.8126 C.ar 0.0 **** 0.0
4 H8137 35.9303 65.9757 67.217 H 0.0 **** 0.053
5 C8114 42.686 57.8613 61.4623 C.3 0.0 **** -0.106
6 H8171 43.2515 60.4219 69.9579 H 0.0 **** 0.053
7 C8068 40.2126 59.9719 66.9186 C.ar 0.0 **** 0.0
8 H8181 35.4483 68.2608 68.148 H 0.0 **** 0.053
9 H8172 42.896 58.7172 69.6462 H 0.0 **** 0.053
10 C8085 36.3252 65.8388 69.3284 C.ar 0.0 **** -0.053
11 H8133 43.376 59.4016 67.5286 H 0.0 **** 0.053
12 C8079 36.0629 63.3679 68.6628 C.2 0.0 **** 0.0
13 C8094 34.0025 60.567 63.1221 C.2 0.0 **** 0.367
14 C8129 23.7807 64.6604 64.8863 C.3 0.0 **** -0.159
15 H8139 35.4756 64.2571 70.5152 H 0.0 **** 0.053
16 C8101 28.1112 61.8489 60.7201 C.ar 0.0 **** 0.0
17 H8138 37.3453 66.0576 68.9752 H 0.0 **** 0.053
18 H8146 29.6951 59.9676 58.4614 H 0.0 **** 0.053
19 H8186 23.1205 65.1584 62.5271 H 0.0 **** 0.053
20 C8118 44.8532 57.7331 66.0318 C.3 0.0 **** -0.159
21 H8142 32.0054 59.0015 61.4105 H 0.0 **** 0.053
22 H8174 41.452 61.4697 71.3225 H 0.0 **** 0.053
23 C8120 40.4004 61.4466 71.015 C.3 0.0 **** -0.159
24 C8088 34.2193 61.3064 64.3349 C.ar 0.0 **** 0.052
25 C8096 31.7214 60.739 60.1528 C.3 0.0 **** -0.106
26 C8122 36.0546 66.7086 70.5602 C.3 0.0 **** -0.159
27 H8175 39.8295 60.8955 71.7788 H 0.0 **** 0.053
28 H8141 33.5168 59.6428 60.7549 H 0.0 **** 0.053
29 C8092 31.721 61.5302 62.9008 C.ar 0.0 **** 0.0
30 H8159 42.3311 59.9026 60.7792 H 0.0 **** 0.053
31 H8188 23.6787 65.7277 64.6297 H 0.0 **** 0.053
32 H8173 40.025 62.4766 71.028 H 0.0 **** 0.053
33 C8067 40.1807 59.5849 65.4692 C.3 0.0 **** -0.106
34 C8072 40.2504 60.8395 69.6377 C.ar 0.0 **** 0.0
35 C8107 26.0501 63.2553 60.5503 C.3 0.0 **** -0.106
36 C8128 23.7906 64.55 61.909 C.3 0.0 **** -0.159
37 H8177 36.1823 67.7785 70.3456 H 0.0 **** 0.053
38 H8144 32.3119 61.612 59.8159 H 0.0 **** 0.053
39 H8184 35.893 59.9438 63.6403 H 0.0 **** 0.41
40 H8170 42.1531 59.5302 71.0296 H 0.0 **** 0.053
41 C8066 42.6253 58.1543 62.9468 C.ar 0.0 **** 0.0
42 H8136 33.743 64.9323 69.0643 H 0.0 **** 0.053
43 C8090 33.4241 62.873 66.0249 C.ar 0.0 **** 0.042
44 C8100 28.2284 62.2149 62.078 C.ar 0.0 **** 0.2405
45 C8065 41.4678 58.7143 63.5169 C.ar 0.0 **** 0.0
46 C8115 43.0719 59.1012 60.6401 C.3 0.0 **** -0.159
47 C8087 35.4446 61.1641 65.029 C.ar 0.0 **** 0.042
48 H8147 27.2765 59.8594 58.4736 H 0.0 **** 0.053
49 H8180 34.084 67.582 67.2259 H 0.0 **** 0.053
50 H8151 26.152 61.1295 60.3613 H 0.0 **** 0.053
51 C8112 24.913 64.0147 64.1272 C.ar 0.0 **** 0.0
52 C8123 34.694 67.4596 68.1332 C.3 0.0 **** -0.159
53 C8109 27.0734 62.7947 62.7883 C.ar 0.0 **** 0.0
54 C8070 42.4557 58.884 67.2089 C.3 0.0 **** -0.106
55 C8098 30.454 61.6092 62.1421 C.ar 0.0 **** 0.2405
56 H8130 39.9238 60.4804 64.8769 H 0.0 **** 0.053
57 C8105 26.8765 61.9749 58.5257 C.3 0.0 **** -0.106
58 H8178 36.7428 66.439 71.3762 H 0.0 **** 0.053
59 O8125 36.3504 60.3346 64.5174 O.3 0.0 **** -0.452
60 H8152 26.5854 64.1449 60.1649 H 0.0 **** 0.053
61 C8097 30.4401 61.2202 60.7798 C.ar 0.0 **** 0.0
62 H8153 25.0432 63.2861 60.1114 H 0.0 **** 0.053
63 C8095 32.5404 59.9369 61.1602 C.3 0.0 **** -0.106
64 O8127 31.0457 63.0744 64.6227 O.2 0.0 **** -0.419
65 C8119 42.4507 59.6618 69.9816 C.3 0.0 **** -0.159
66 C8063 42.513 58.6496 65.7194 C.ar 0.0 **** 0.0
67 C8110 27.0704 62.8816 64.187 C.ar 0.0 **** -0.1268
68 H8165 39.3509 58.5631 63.0653 H 0.0 **** 0.053
69 H8154 27.9279 62.4938 64.7369 H 0.0 **** 0.1268
70 H8134 37.9486 60.4866 65.6439 H 0.0 **** 0.1268
71 C8064 41.4265 58.9698 64.9022 C.ar 0.0 **** 0.0
72 H8155 25.9937 63.5408 65.9289 H 0.0 **** 0.1268
73 H8132 42.5053 57.9045 67.724 H 0.0 **** 0.053
74 C8084 35.3482 66.076 68.1479 C.ar 0.0 **** -0.053
75 C8071 41.2769 60.0597 69.1146 C.ar 0.0 **** 0.0
76 H8185 24.1788 65.1892 61.1014 H 0.0 **** 0.053
77 H8190 22.8144 64.1832 64.6572 H 0.0 **** 0.053
78 C8086 36.3008 64.3538 69.7832 C.3 0.0 **** -0.106
79 C8076 36.8958 61.7012 67.0396 C.ar 0.0 **** 0.0
80 H8179 35.0265 66.5553 70.9258 H 0.0 **** 0.053
81 C8074 39.0987 60.6986 67.4412 C.ar 0.0 **** 0.0
82 C8117 40.2541 59.0735 62.6923 C.3 0.0 **** -0.159
83 C8078 37.9555 61.8284 69.2513 C.ar 0.0 **** 0.042
84 H8158 44.0461 59.4935 60.9697 H 0.0 **** 0.053
85 N8099 29.3631 62.0693 62.7706 N.ar 0.0 **** -0.481
86 H8183 31.6577 63.5002 65.8074 H 0.0 **** 0.41
87 H8150 27.3452 62.9151 58.1852 H 0.0 **** 0.053
88 H8140 37.2352 64.1624 70.3194 H 0.0 **** 0.053
89 C8102 29.2358 61.3273 60.0647 C.ar 0.0 **** 0.0
90 H8161 45.9109 57.6999 63.7333 H 0.0 **** 0.053
91 H8164 40.0426 60.1534 62.7607 H 0.0 **** 0.053
92 O8126 34.8933 59.7702 62.6542 O.2 0.0 **** -0.419
93 H8163 45.0588 56.2928 63.0728 H 0.0 **** 0.053
94 C8077 36.9618 62.2943 68.3547 C.ar 0.0 **** 0.0
95 C8080 34.9824 63.6462 67.8364 C.2 0.0 **** 0.0
96 C8061 43.7489 57.8931 63.7615 C.ar 0.0 **** 0.0
97 H8145 29.7074 61.6653 58.007 H 0.0 **** 0.053
98 H8148 27.7443 60.6966 56.9842 H 0.0 **** 0.053
99 C8106 26.7653 61.9991 60.0497 C.3 0.0 **** -0.053
100 H8189 23.9496 64.5889 65.9693 H 0.0 **** 0.053
101 H8143 31.5289 60.1306 59.2605 H 0.0 **** 0.053
102 C8108 25.989 63.3218 62.0562 C.ar 0.0 **** 0.0
103 H8157 43.4045 57.0538 61.2659 H 0.0 **** 0.053
104 H8162 45.1771 57.7875 62.1273 H 0.0 **** 0.053
105 C8081 34.6991 62.8056 66.7072 C.ar 0.0 **** 0.0
106 C8062 43.6794 58.0996 65.1517 C.ar 0.0 **** 0.0
107 C8082 35.6945 61.8934 66.2492 C.ar 0.0 **** 0.0
108 C8069 41.2692 59.6461 67.7392 C.ar 0.0 **** 0.0
109 C8089 33.2006 62.1512 64.8337 C.ar 0.0 **** 0.052
110 C8104 27.7272 60.7863 58.0809 C.3 0.0 **** -0.106
111 H8131 39.3258 58.9027 65.2951 H 0.0 **** 0.053
112 H8176 36.8623 62.2438 70.768 H 0.0 **** 0.41
113 H8160 43.1359 58.869 59.5657 H 0.0 **** 0.053
114 H8169 45.3706 56.8386 65.6597 H 0.0 **** 0.053
115 H8187 23.1798 63.7668 61.4282 H 0.0 **** 0.053
116 H8135 33.5452 65.1908 67.3337 H 0.0 **** 0.053
117 C8083 34.2849 64.9604 68.1008 C.3 0.0 **** -0.106
118 C8075 37.9806 60.9301 66.6257 C.ar 0.0 **** -0.1268
119 H8168 45.5997 58.5461 66.0718 H 0.0 **** 0.053
120 C8116 45.0378 57.3946 63.1429 C.3 0.0 **** -0.159
121 H8156 41.7145 57.4787 61.1163 H 0.0 **** 0.053
122 C8113 24.9162 63.9477 62.7178 C.ar 0.0 **** 0.0
123 H8149 25.8698 61.9329 58.0805 H 0.0 **** 0.053
124 H8166 40.3673 58.8298 61.631 H 0.0 **** 0.053
125 C8091 31.9301 62.2933 64.1491 C.2 0.0 **** 0.367
126 C8093 32.7354 60.724 62.4234 C.ar 0.0 **** 0.0
127 H8182 34.0356 67.6001 69.0035 H 0.0 **** 0.053
128 O8121 37.7874 61.9987 70.6074 O.3 0.0 **** -0.452
129 C8111 25.9969 63.4759 64.8386 C.ar 0.0 **** -0.1268
130 C8103 29.1597 60.9182 58.6094 C.3 0.0 **** -0.106
@<TRIPOS>BOND
1 20 1 1
2 7 81 am
3 29 125 1
4 66 106 am
5 71 66 am
6 45 71 am
7 41 45 am
8 96 106 am
9 96 41 am
10 7 33 1
11 108 7 am
12 54 108 1
13 71 33 1
14 66 54 1
15 34 75 am
16 3 34 am
17 81 3 am
18 108 75 am
19 79 118 am
20 94 79 am
21 83 94 am
22 81 118 am
23 3 83 am
24 95 12 1
25 105 95 1
26 107 105 am
27 94 12 1
28 79 107 am
29 74 117 1
30 10 74 am
31 78 10 1
32 95 117 1
33 12 78 1
34 24 47 am
35 109 24 am
36 43 109 am
37 107 47 am
38 105 43 am
39 126 29 am
40 13 126 1
41 109 125 1
42 24 13 1
43 25 63 1
44 61 25 1
45 55 61 am
46 126 63 1
47 29 55 am
48 44 85 am
49 16 44 am
50 89 16 am
51 55 85 am
52 61 89 am
53 110 130 1
54 57 110 1
55 99 57 1
56 89 130 1
57 16 99 1
58 102 35 1
59 53 102 am
60 44 53 am
61 99 35 1
62 129 67 am
63 51 129 am
64 122 51 am
65 53 67 am
66 102 122 am
67 41 5 1
68 5 46 1
69 96 120 1
70 45 82 1
71 106 20 1
72 75 65 1
73 34 23 1
74 83 128 1
75 10 26 1
76 74 52 1
77 43 2 1
78 47 59 1
79 13 92 2
80 125 64 2
81 122 36 1
82 51 14 1
83 33 56 1
84 33 111 1
85 54 73 1
86 54 11 1
87 118 70 1
88 117 116 1
89 117 42 1
90 74 4 1
91 10 17 1
92 78 15 1
93 78 88 1
94 63 28 1
95 63 21 1
96 25 101 1
97 25 38 1
98 130 97 1
99 130 18 1
100 110 48 1
101 110 98 1
102 57 123 1
103 57 87 1
104 99 50 1
105 35 60 1
106 35 62 1
107 67 69 1
108 129 72 1
109 5 121 1
110 5 103 1
111 46 84 1
112 46 30 1
113 46 113 1
114 120 90 1
115 120 104 1
116 120 93 1
117 82 91 1
118 82 68 1
119 82 124 1
120 20 119 1
121 20 114 1
122 65 40 1
123 65 6 1
124 65 9 1
125 23 32 1
126 23 22 1
127 23 27 1
128 128 112 1
129 26 37 1
130 26 58 1
131 26 80 1
132 52 49 1
133 52 8 1
134 52 127 1
135 2 86 1
136 59 39 1
137 36 76 1
138 36 19 1
139 36 115 1
140 14 31 1
141 14 100 1
142 14 77 1
@<TRIPOS>MOLECULE
Sketch 4
130 142
SMALL
USER_CHARGES


@<TRIPOS>ATOM
1 C5853 76.7173 53.1285 60.155 C.ar 0.0 **** 0.0
2 H5969 78.142 48.9506 48.9224 H 0.0 **** 0.053
3 H5950 75.3434 49.0563 64.6084 H 0.0 **** 0.053
4 H5924 74.6557 50.4217 56.6002 H 0.0 **** 0.1268
5 H5974 72.23 48.8102 56.8326 H 0.0 **** 0.41
6 C5903 66.7734 42.0844 48.9357 C.ar 0.0 **** 0.0
7 C5868 76.659 51.9312 53.681 C.ar 0.0 **** 0.042
8 H5923 78.3765 54.0988 59.2119 H 0.0 **** 0.053
9 C5899 67.5774 43.5793 50.6983 C.ar 0.0 **** 0.0
10 C5878 72.1419 47.8355 54.7875 C.ar 0.0 **** 0.052
11 C5887 68.3038 44.343 54.7894 C.ar 0.0 **** 0.0
12 H5966 76.6362 52.3263 51.8071 H 0.0 **** 0.41
13 C5908 77.8773 54.6824 61.7841 C.3 0.0 **** -0.159
14 O5917 71.1288 45.8497 51.9046 O.2 0.0 **** -0.419
15 H5929 76.8637 50.3674 50.3405 H 0.0 **** 0.053
16 C5879 72.1222 47.2828 53.4859 C.ar 0.0 **** 0.052
17 H5977 65.029 40.8052 48.7581 H 0.0 **** 0.053
18 C5855 75.3256 51.2871 60.9421 C.ar 0.0 **** 0.0
19 C5870 75.2786 48.8347 52.0525 C.2 0.0 **** 0.0
20 H5976 66.2221 40.5821 47.464 H 0.0 **** 0.053
21 C5880 73.1167 47.6616 52.5598 C.ar 0.0 **** 0.042
22 H5934 69.5631 44.0141 56.49 H 0.0 **** 0.053
23 H5922 76.8731 54.9706 59.0797 H 0.0 **** 0.053
24 H5930 77.9779 50.8461 51.6339 H 0.0 **** 0.053
25 C5852 77.0068 53.4819 61.4879 C.ar 0.0 **** 0.0
26 H5980 66.0613 42.571 46.1989 H 0.0 **** 0.053
27 H5971 78.6437 46.0711 50.4254 H 0.0 **** 0.053
28 C5890 67.7946 43.8539 52.1308 C.ar 0.0 **** 0.2405
29 H5962 78.2748 55.829 57.7356 H 0.0 **** 0.053
30 H5961 79.7091 54.9965 57.1198 H 0.0 **** 0.053
31 C5900 68.0742 44.4555 49.7239 C.ar 0.0 **** -0.1268
32 H5921 74.5042 51.6853 58.3054 H 0.0 **** 0.053
33 C5859 77.1185 53.4211 57.6304 C.ar 0.0 **** 0.0
34 H5954 75.0008 49.3671 60.0028 H 0.0 **** 0.053
35 H5959 77.5533 55.198 62.6981 H 0.0 **** 0.053
36 H5964 79.5445 54.6437 54.6609 H 0.0 **** 0.053
37 H5944 68.6043 45.3513 50.0476 H 0.0 **** 0.1268
38 C5866 75.1319 50.2087 54.5363 C.ar 0.0 **** 0.0
39 H5920 75.7966 50.5253 58.3827 H 0.0 **** 0.053
40 C5884 71.134 47.4562 55.7388 C.2 0.0 **** 0.367
41 C5867 75.973 50.7085 53.4741 C.ar 0.0 **** 0.0
42 C5888 68.9933 44.9961 53.738 C.ar 0.0 **** 0.2405
43 C5856 75.6016 51.6428 62.2747 C.ar 0.0 **** 0.0
44 C5876 77.2731 50.0682 51.325 C.3 0.0 **** -0.106
45 C5893 66.5234 42.6977 55.5407 C.3 0.0 **** -0.106
46 H5938 64.8722 41.3211 55.8093 H 0.0 **** 0.053
47 C5863 76.8906 52.4639 54.9732 C.ar 0.0 **** 0.0
48 H5951 77.8707 53.495 64.0187 H 0.0 **** 0.053
49 H5946 73.9509 50.5919 63.1731 H 0.0 **** 0.053
50 C5909 78.6698 55.2773 56.8738 C.3 0.0 **** -0.159
51 H5956 74.0278 49.6059 61.4622 H 0.0 **** 0.053
52 C5904 74.987 50.8663 63.4202 C.3 0.0 **** -0.106
53 H5935 67.1931 41.96 56.0185 H 0.0 **** 0.053
54 C5901 67.9049 44.1571 48.3776 C.ar 0.0 **** -0.1268
55 O5916 71.1042 47.9577 56.9199 O.2 0.0 **** -0.419
56 C5919 67.117 42.7017 46.4861 C.3 0.0 **** -0.159
57 C5862 77.7645 53.5694 55.2583 C.ar 0.0 **** 0.0
58 C5860 77.2987 53.9491 59.03 C.3 0.0 **** -0.106
59 H5952 76.9015 52.1337 64.5957 H 0.0 **** 0.053
60 C5858 76.3231 52.3244 57.3843 C.ar 0.0 **** 0.0
61 C5906 76.8754 53.0354 63.97 C.3 0.0 **** -0.159
62 H5940 66.3855 40.5025 53.9216 H 0.0 **** 0.053
63 H5931 69.4535 46.346 57.3625 H 0.0 **** 0.053
64 N5889 68.719 44.7675 52.446 N.ar 0.0 **** -0.481
65 C5896 65.9858 42.1887 52.6376 C.3 0.0 **** -0.053
66 H5937 64.4826 42.7379 54.82 H 0.0 **** 0.053
67 H5939 64.6899 40.6382 53.4125 H 0.0 **** 0.053
68 H5949 75.8209 48.9205 62.8931 H 0.0 **** 0.053
69 H5965 78.1834 54.8335 53.5289 H 0.0 **** 0.053
70 C5910 78.6933 54.1274 54.2029 C.3 0.0 **** -0.159
71 H5941 65.0998 42.7943 52.3588 H 0.0 **** 0.053
72 H5933 67.8932 44.4002 56.9128 H 0.0 **** 0.053
73 C5886 68.6989 44.6459 56.2101 C.3 0.0 **** -0.106
74 H5936 66.2473 43.4068 56.3364 H 0.0 **** 0.053
75 C5912 78.8461 48.9214 49.7694 C.3 0.0 **** -0.159
76 C5895 65.5653 41.2199 53.7422 C.3 0.0 **** -0.106
77 H5967 79.5492 48.0947 49.5976 H 0.0 **** 0.053
78 H5947 74.9154 51.5031 64.3126 H 0.0 **** 0.053
79 C5897 66.442 41.4535 51.3761 C.3 0.0 **** -0.106
80 H5973 72.2058 46.5446 51.3418 H 0.0 **** 0.41
81 H5928 78.8359 48.7008 51.9033 H 0.0 **** 0.053
82 C5865 75.2719 50.789 55.7959 C.ar 0.0 **** -0.1268
83 H5926 75.6161 48.4032 49.9553 H 0.0 **** 0.053
84 C5881 71.1028 46.3347 53.0797 C.2 0.0 **** 0.367
85 C5918 66.1095 40.7874 48.5347 C.3 0.0 **** -0.159
86 C5883 70.122 46.4898 55.3388 C.ar 0.0 **** 0.0
87 H5970 76.9602 45.4894 50.4241 H 0.0 **** 0.053
88 H5963 79.0895 53.3239 53.5707 H 0.0 **** 0.053
89 H5958 78.9324 54.3916 61.9329 H 0.0 **** 0.053
90 H5925 75.0929 47.0094 50.8958 H 0.0 **** 0.053
91 C5907 74.44 50.1163 60.5858 C.3 0.0 **** -0.159
92 C5857 75.5946 51.6061 58.4821 C.3 0.0 **** -0.106
93 C5905 75.7871 49.5985 63.7589 C.3 0.0 **** -0.159
94 C5913 77.5986 46.3683 50.2503 C.3 0.0 **** -0.159
95 C5891 67.0486 43.1562 53.1046 C.ar 0.0 **** 0.0
96 C5898 66.9189 42.3972 50.3001 C.ar 0.0 **** 0.0
97 C5869 76.1228 49.9107 52.2922 C.2 0.0 **** 0.0
98 H5953 76.1663 53.7391 64.4402 H 0.0 **** 0.053
99 C5892 67.299 43.4188 54.4591 C.ar 0.0 **** 0.0
100 O5911 77.0793 52.6714 52.5985 O.3 0.0 **** -0.452
101 H5957 77.8568 55.4156 60.9683 H 0.0 **** 0.053
102 C5864 76.1689 51.8378 56.0497 C.ar 0.0 **** 0.0
103 C5871 74.1861 48.559 52.9426 C.ar 0.0 **** 0.0
104 C5872 74.1594 49.1774 54.227 C.ar 0.0 **** 0.0
105 H5942 67.2625 40.7608 51.6471 H 0.0 **** 0.053
106 H5972 77.5014 46.6515 49.1916 H 0.0 **** 0.053
107 C5894 65.2651 41.989 55.0278 C.3 0.0 **** -0.106
108 O5914 73.0416 47.2108 51.3137 O.3 0.0 **** -0.452
109 H5945 68.2898 44.8418 47.6186 H 0.0 **** 0.1268
110 O5915 73.0785 49.2749 56.3906 O.3 0.0 **** -0.452
111 C5882 70.074 45.9501 54.0686 C.ar 0.0 **** 0.0
112 H5927 77.2319 47.1409 52.2095 H 0.0 **** 0.053
113 C5861 77.8234 54.0645 56.5571 C.ar 0.0 **** 0.0
114 H5968 79.4168 49.8628 49.7618 H 0.0 **** 0.053
115 H5948 76.826 49.8562 64.0153 H 0.0 **** 0.053
116 H5975 66.5333 39.9357 49.0884 H 0.0 **** 0.053
117 C5874 77.1819 47.5155 51.1738 C.ar 0.0 **** -0.053
118 H5943 65.6148 40.8268 51.015 H 0.0 **** 0.053
119 C5877 73.1325 48.7761 55.1584 C.ar 0.0 **** 0.042
120 H5978 67.6436 41.7775 46.1965 H 0.0 **** 0.053
121 H5979 67.5335 43.527 45.8929 H 0.0 **** 0.053
122 C5885 69.0832 46.1157 56.3556 C.3 0.0 **** -0.106
123 H5960 78.7092 55.9751 56.0278 H 0.0 **** 0.053
124 C5875 78.0918 48.7686 51.0941 C.ar 0.0 **** -0.053
125 C5873 75.7092 47.9076 50.9395 C.3 0.0 **** -0.106
126 C5902 67.2608 42.9811 47.9615 C.ar 0.0 **** 0.0
127 C5851 76.4833 52.7129 62.5436 C.ar 0.0 **** 0.0
128 H5955 73.5985 50.4304 59.9465 H 0.0 **** 0.053
129 C5854 75.8986 52.0285 59.8895 C.ar 0.0 **** 0.0
130 H5932 68.1908 46.749 56.1927 H 0.0 **** 0.053
@<TRIPOS>BOND
1 1 25 am
2 129 1 am
3 18 129 am
4 43 18 am
5 127 25 am
6 127 43 am
7 60 92 1
8 33 60 am
9 58 33 1
10 129 92 1
11 1 58 1
12 57 113 am
13 47 57 am
14 102 47 am
15 33 113 am
16 60 102 am
17 38 82 am
18 41 38 am
19 7 41 am
20 102 82 am
21 47 7 am
22 19 97 1
23 103 19 1
24 104 103 am
25 41 97 1
26 38 104 am
27 117 125 1
28 124 117 am
29 44 124 1
30 19 125 1
31 97 44 1
32 10 119 am
33 16 10 am
34 21 16 am
35 104 119 am
36 103 21 am
37 111 84 1
38 86 111 am
39 40 86 1
40 16 84 1
41 10 40 1
42 73 122 1
43 11 73 1
44 42 11 am
45 86 122 1
46 111 42 am
47 28 64 am
48 95 28 am
49 99 95 am
50 42 64 am
51 11 99 am
52 107 45 1
53 76 107 1
54 65 76 1
55 99 45 1
56 95 65 1
57 96 79 1
58 9 96 am
59 28 9 am
60 65 79 1
61 54 31 am
62 126 54 am
63 6 126 am
64 9 31 am
65 96 6 am
66 43 52 1
67 52 93 1
68 127 61 1
69 18 91 1
70 25 13 1
71 113 50 1
72 57 70 1
73 7 100 1
74 124 75 1
75 117 94 1
76 21 108 1
77 119 110 1
78 40 55 2
79 84 14 2
80 6 85 1
81 126 56 1
82 92 39 1
83 92 32 1
84 58 23 1
85 58 8 1
86 82 4 1
87 125 90 1
88 125 83 1
89 117 112 1
90 124 81 1
91 44 15 1
92 44 24 1
93 122 63 1
94 122 130 1
95 73 72 1
96 73 22 1
97 45 53 1
98 45 74 1
99 107 66 1
100 107 46 1
101 76 67 1
102 76 62 1
103 65 71 1
104 79 105 1
105 79 118 1
106 31 37 1
107 54 109 1
108 52 49 1
109 52 78 1
110 93 115 1
111 93 68 1
112 93 3 1
113 61 48 1
114 61 59 1
115 61 98 1
116 91 34 1
117 91 128 1
118 91 51 1
119 13 101 1
120 13 89 1
121 13 35 1
122 50 123 1
123 50 30 1
124 50 29 1
125 70 88 1
126 70 36 1
127 70 69 1
128 100 12 1
129 75 77 1
130 75 114 1
131 75 2 1
132 94 87 1
133 94 27 1
134 94 106 1
135 108 80 1
136 110 5 1
137 85 116 1
138 85 20 1
139 85 17 1
140 56 120 1
141 56 121 1
142 56 26 1
@<TRIPOS>MOLECULE
Sketch 4
250 292
SMALL
USER_CHARGES


@<TRIPOS>ATOM
1 C16497 17.2454 8.20286 37.403 C.3 0.0 **** -0.106
2 C16503 19.0036 18.4739 37.4913 C.2 0.0 **** 0.0
3 C16463 23.9528 16.8324 37.3725 C.2 0.0 **** 0.042
4 C16481 26.1331 21.2046 36.6172 C.3 0.0 **** 0.134
5 C16491 18.6795 8.70524 37.5825 C.3 0.0 **** 0.107
6 C16445 31.8715 6.43424 34.2188 C.3 0.0 **** -0.106
7 C16520 16.5344 22.7202 37.9372 C.2 0.0 **** 0.0
8 C16547 17.9328 27.6615 38.2658 C.3 0.0 **** -0.106
9 C16521 31.7753 7.49427 31.9158 C.3 0.0 **** -0.053
10 H16610 24.8407 21.7496 35.1346 H 0.0 **** 0.353
11 C16517 15.3449 20.5532 38.1089 C.2 0.0 **** 0.0
12 C16467 23.6446 8.35688 36.7308 C.2 0.0 **** -0.1268
13 C16477 26.2714 18.1528 36.4727 C.3 0.0 **** -0.053
14 C16535 11.7937 25.4546 39.4158 C.2 0.0 **** 0.0
15 C16476 24.9566 18.9241 36.749 C.3 0.0 **** 0.107
16 C16447 33.1744 8.5304 33.8147 C.3 0.0 **** -0.106
17 H16564 31.7669 -2.03394 33.5633 H 0.0 **** 0.053
18 H16644 9.67129 22.771 39.6882 H 0.0 **** 0.1268
19 H16634 29.997 8.58384 31.2855 H 0.0 **** 0.053
20 H16600 26.646 20.1485 34.8016 H 0.0 **** 0.053
21 H16616 17.5045 9.61554 35.0809 H 0.0 **** 0.053
22 C16489 19.9973 12.0997 37.2794 C.2 0.0 **** 0.0
23 H16570 29.3679 2.74006 35.4572 H 0.0 **** 0.053
24 C16540 14.1883 26.9426 38.9182 C.2 0.0 **** 0.0
25 H16618 15.8704 7.78926 35.7697 H 0.0 **** 0.053
26 O16410 28.3005 0.208302 31.2349 O.3 0.0 **** -0.32
27 C16435 30.7062 4.91618 36.6103 C.2 0.0 **** 0.0
28 C16449 28.5821 7.96887 36.2976 C.2 0.0 **** -0.012
29 C16432 26.0811 8.28775 36.4822 C.2 0.0 **** 0.0
30 C16459 23.7907 14.0479 37.0938 C.2 0.0 **** 0.0
31 H16568 26.8044 -0.203204 35.1005 H 0.0 **** 0.053
32 C16502 17.6677 15.0193 37.6075 C.2 0.0 **** -0.1268
33 C16523 32.6419 7.90128 30.7196 C.3 0.0 **** -0.159
34 H16553 28.6582 2.00966 32.2109 H 0.0 **** 0.053
35 C16444 32.5535 6.38603 35.5665 C.2 0.0 **** 0.0
36 H16582 35.4341 7.25703 37.047 H 0.0 **** 0.053
37 S16453 28.8682 9.67454 36.0316 S.2 0.0 **** 0.024
38 H16627 20.6344 23.5199 37.5841 H 0.0 **** 0.053
39 C16539 15.3618 23.4042 38.3193 C.2 0.0 **** 0.0
40 H16579 31.2769 1.91441 38.1729 H 0.0 **** 0.1268
41 C16451 26.0915 9.70553 36.5196 C.2 0.0 **** 0.0
42 C16544 16.5701 25.5426 38.1932 C.2 0.0 **** 0.0
43 C16530 12.9794 23.3574 38.9234 C.2 0.0 **** 0.0
44 C16519 17.6853 23.4627 37.5523 C.2 0.0 **** 0.0
45 H16596 26.2065 17.6981 35.4714 H 0.0 **** 0.053
46 H16585 30.8492 6.83101 34.3125 H 0.0 **** 0.053
47 C16454 27.3476 11.8061 36.4629 C.2 0.0 **** -0.1268
48 H16554 31.3033 0.768088 31.4355 H 0.0 **** 0.053
49 C16518 15.3423 19.1241 38.0504 C.2 0.0 **** 0.0
50 H16604 23.204 20.8666 36.6797 H 0.0 **** 0.053
51 C16431 24.8256 7.66207 36.5874 C.2 0.0 **** 0.232
52 H16589 34.4476 9.07142 35.5012 H 0.0 **** 0.053
53 H16556 30.2895 -1.31594 31.9413 H 0.0 **** 0.053
54 C16413 31.0452 -0.862038 35.2324 C.3 0.0 **** -0.106
55 H16567 27.3387 0.230225 37.6972 H 0.0 **** 0.053
56 H16612 19.7102 6.99156 36.8038 H 0.0 **** 0.053
57 N16486 25.4558 22.2149 35.8033 N.3 0.0 **** -0.727
58 H16552 29.3608 1.81183 30.5824 H 0.0 **** 0.053
59 H16608 25.3603 23.9506 36.9756 H 0.0 **** 0.053
60 C16414 31.4491 -0.997713 33.7529 C.3 0.0 **** -0.106
61 C16440 31.4208 2.93551 37.8237 C.2 0.0 **** -0.1268
62 H16575 24.8223 1.10171 35.577 H 0.0 **** 0.053
63 C16465 22.5995 14.8215 37.228 C.2 0.0 **** 0.0
64 C16495 17.7435 8.55054 34.9439 C.3 0.0 **** -0.106
65 C16533 10.5871 23.3388 39.5142 C.2 0.0 **** -0.1268
66 H16636 30.066 8.31012 33.043 H 0.0 **** 0.053
67 C16458 23.7216 12.6258 36.9763 C.2 0.0 **** 0.0
68 H16615 17.4546 8.27922 33.9179 H 0.0 **** 0.053
69 H16639 32.0318 8.02426 29.8119 H 0.0 **** 0.053
70 H16576 25.1224 0.283796 37.1104 H 0.0 **** 0.053
71 C16501 17.737 16.3847 37.631 C.2 0.0 **** 0.042
72 H16571 23.4965 4.29671 37.1439 H 0.0 **** 0.053
73 H16611 19.0416 8.5339 38.6099 H 0.0 **** 0.053
74 H16593 27.1784 14.4252 36.659 H 0.0 **** 0.1268
75 H16584 31.7408 5.39697 33.8619 H 0.0 **** 0.053
76 H16617 17.2288 6.6644 35.8604 H 0.0 **** 0.053
77 C16420 26.7083 3.22684 36.6618 C.2 0.0 **** 0.0
78 H16597 26.2592 17.4505 38.4923 H 0.0 **** 0.053
79 H16588 33.6375 9.18742 33.0626 H 0.0 **** 0.053
80 C16423 28.2375 5.15921 36.5544 C.2 0.0 **** 0.0
81 H16583 33.9174 7.40211 37.957 H 0.0 **** 0.053
82 C16550 15.4561 29.1558 38.6281 C.2 0.0 **** 0.347
83 H16620 16.5776 9.03292 37.6804 H 0.0 **** 0.053
84 C16516 16.5466 21.2834 37.8858 C.2 0.0 **** 0.0
85 C16548 17.96 28.9745 39.0386 C.3 0.0 **** -0.106
86 C16468 22.4587 11.9498 37.0424 C.2 0.0 **** 0.0
87 C16471 21.2747 12.7322 37.1936 C.2 0.0 **** 0.0
88 C16507 16.566 18.4737 37.803 C.2 0.0 **** 0.0265
89 C16443 33.6591 7.11992 35.8369 C.2 0.0 **** 0.0
90 H16587 32.3339 9.08522 34.2627 H 0.0 **** 0.053
91 H16637 33.4168 7.14561 30.5154 H 0.0 **** 0.053
92 H16635 31.1103 9.53534 32.2904 H 0.0 **** 0.053
93 C16538 15.3678 24.8234 38.4371 C.2 0.0 **** 0.0
94 H16632 19.7463 20.8073 35.0811 H 0.0 **** 0.053
95 C16504 20.2218 19.1436 37.3175 C.2 0.0 **** 0.0
96 C16484 23.9852 22.4924 37.8525 C.3 0.0 **** -0.106
97 C16412 30.212 0.390667 35.4436 C.3 0.0 **** 0.107
98 H16563 31.9346 -0.825626 35.8777 H 0.0 **** 0.053
99 H16559 27.3513 -1.34699 32.1038 H 0.0 **** 0.053
100 C16492 19.6497 8.07019 36.6005 C.3 0.0 **** 0.107
101 C16473 20.1888 16.318 37.4195 C.2 0.0 **** 0.0
102 C16450 29.6841 7.15044 36.3396 C.2 0.0 **** -0.1268
103 C16494 19.261 8.33519 35.131 C.3 0.0 **** -0.106
104 C16478 26.3541 16.9995 37.4829 C.3 0.0 **** 0.107
105 O16490 18.6921 10.1289 37.3403 O.3 0.0 **** -0.202
106 H16602 26.7174 21.766 37.3662 H 0.0 **** 0.053
107 C16436 29.5832 5.73101 36.4535 C.2 0.0 **** 0.0
108 C16512 18.785 22.6845 36.8832 C.3 0.0 **** -0.053
109 C16437 32.0883 5.38864 36.5574 C.2 0.0 **** 0.0
110 H16643 10.8552 20.6709 39.2039 H 0.0 **** 0.1268
111 C16419 26.5088 1.85561 36.6813 C.2 0.0 **** 0.0
112 H16621 17.8652 12.3396 37.4965 H 0.0 **** 0.1268
113 H16626 18.3676 22.3861 35.9003 H 0.0 **** 0.053
114 H16614 19.6078 7.48361 34.5276 H 0.0 **** 0.053
115 H16625 19.2188 21.6856 38.7211 H 0.0 **** 0.053
116 C16421 28.0334 3.79367 36.6491 C.2 0.0 **** 0.0
117 H16607 23.0148 22.977 38.0459 H 0.0 **** 0.053
118 H16592 28.2901 12.3501 36.3671 H 0.0 **** 0.1268
119 C16528 14.1505 21.2523 38.4385 C.2 0.0 **** 0.0
120 C16405 29.1772 1.29931 31.5365 C.3 0.0 **** 0.054
121 H16595 24.4075 19.0686 35.7997 H 0.0 **** 0.053
122 C16438 33.0107 4.82098 37.3882 C.2 0.0 **** 0.0
123 C16549 16.8135 29.8433 38.5489 C.3 0.0 **** -0.086
124 C16462 25.1293 16.113 37.2805 C.2 0.0 **** 0.0
125 C16514 20.9644 22.5408 35.646 C.3 0.0 **** -0.106
126 H16613 19.8135 9.22139 34.7866 H 0.0 **** 0.053
127 C16505 21.3933 18.4129 37.2408 C.2 0.0 **** -0.1268
128 O16493 20.9752 8.55721 36.887 O.3 0.0 **** -0.202
129 C16460 25.0729 14.706 37.0526 C.2 0.0 **** 0.0
130 H16619 17.0609 7.38968 38.1208 H 0.0 **** 0.053
131 H16578 33.5317 2.94068 38.244 H 0.0 **** 0.053
132 C16482 25.1494 20.285 37.4159 C.3 0.0 **** -0.053
133 H16560 28.6182 1.2993 34.2673 H 0.0 **** 0.053
134 H16631 21.4476 20.4294 35.3453 H 0.0 **** 0.053
135 C16529 14.161 22.6667 38.5653 C.2 0.0 **** 0.0
136 C16498 18.8637 14.2459 37.4781 C.2 0.0 **** 0.0
137 C16532 11.7782 21.2258 39.022 C.2 0.0 **** -0.1268
138 C16416 28.9805 1.49513 37.177 C.3 0.0 **** 0.107
139 C16474 20.1367 14.9014 37.397 C.2 0.0 **** 0.0
140 H16651 18.9285 29.4807 38.9085 H 0.0 **** 0.053
141 C16429 25.123 1.27664 36.6296 C.3 0.0 **** -0.106
142 O16524 27.6473 16.4032 37.3689 O.3 0.0 **** -0.57
143 C16464 22.6558 16.2416 37.3017 C.2 0.0 **** 0.0
144 C16456 24.9084 11.8695 36.7891 C.2 0.0 **** 0.0
145 H16590 35.1319 7.83529 34.4537 H 0.0 **** 0.053
146 H16638 33.1473 8.86106 30.9123 H 0.0 **** 0.053
147 C16442 34.4077 6.86519 37.1222 C.3 0.0 **** -0.106
148 C16425 25.8039 5.47736 36.58 C.2 0.0 **** 0.232
149 H16591 30.6768 7.59977 36.3233 H 0.0 **** 0.1268
150 C16500 18.9855 17.0713 37.5185 C.2 0.0 **** 0.0
151 C16496 16.951 7.7272 35.9654 C.3 0.0 **** -0.106
152 H16557 28.7986 -1.69505 33.8754 H 0.0 **** 0.053
153 C16536 12.9878 24.778 39.0505 C.2 0.0 **** 0.0
154 C16511 17.7512 20.5905 37.6927 C.2 0.0 **** 0.0
155 C16534 10.6007 24.7025 39.6426 C.2 0.0 **** -0.1268
156 C16406 30.4929 0.802006 32.1798 C.3 0.0 **** -0.106
157 H16640 27.7473 15.7866 38.1105 H 0.0 **** 0.41
158 C16542 11.8283 26.8608 39.5483 C.2 0.0 **** -0.1268
159 C16452 27.3256 10.437 36.3849 C.2 0.0 **** -0.012
160 C16469 22.3928 10.5273 36.9484 C.2 0.0 **** 0.0
161 H16586 33.5163 6.65088 32.8546 H 0.0 **** 0.053
162 C16448 34.1817 8.17702 34.9087 C.3 0.0 **** -0.106
163 H16623 22.3193 18.9533 37.1228 H 0.0 **** 0.1268
164 C16526 12.9629 19.0964 38.5644 C.2 0.0 **** -0.1268
165 C16457 24.8723 10.4508 36.6969 C.2 0.0 **** 0.0
166 C16439 32.6738 3.6413 38.2403 C.3 0.0 **** -0.106
167 C16485 24.681 23.1532 36.6294 C.3 0.0 **** 0.081
168 C16541 12.9789 27.5824 39.3078 C.2 0.0 **** -0.1268
169 O16415 30.0041 0.537617 36.8569 O.3 0.0 **** -0.32
170 H16609 23.9362 23.6311 35.9759 H 0.0 **** 0.053
171 C16422 29.2307 2.87547 36.5493 C.3 0.0 **** -0.053
172 H16647 10.9171 27.3819 39.85 H 0.0 **** 0.1268
173 C16513 20.111 23.3893 36.6216 C.3 0.0 **** -0.106
174 H16562 30.4498 -1.73241 35.5522 H 0.0 **** 0.053
175 C16546 16.5985 26.959 38.3841 C.2 0.0 **** 0.0
176 C16531 11.7707 22.6238 39.1529 C.2 0.0 **** 0.0
177 H16603 25.5877 20.0937 38.41 H 0.0 **** 0.053
178 C16411 28.8668 0.3033 34.6674 C.3 0.0 **** -0.053
179 H16558 27.0347 0.232122 32.8867 H 0.0 **** 0.053
180 H16645 9.69511 25.2425 39.926 H 0.0 **** 0.1268
181 C16466 23.614 9.76561 36.7895 C.2 0.0 **** 0.0
182 C16427 24.1677 3.58836 36.6373 C.3 0.0 **** -0.106
183 C16424 27.1075 6.05737 36.522 C.2 0.0 **** 0.0
184 H16572 23.8033 3.51401 35.5952 H 0.0 **** 0.053
185 H16581 35.0282 4.8351 36.6688 H 0.0 **** 0.053
186 C16515 20.6134 21.0427 35.7183 C.3 0.0 **** -0.106
187 C16509 20.2894 20.6404 37.1686 C.3 0.0 **** -0.053
188 C16426 25.5745 4.13028 36.6295 C.2 0.0 **** 0.0
189 H16628 19.9545 24.3939 36.2036 H 0.0 **** 0.053
190 H16653 16.97 30.0983 37.4844 H 0.0 **** 0.053
191 C16417 27.6171 0.867481 36.8361 C.3 0.0 **** -0.053
192 H16641 14.1166 17.3316 38.2052 H 0.0 **** 0.1268
193 C16461 26.2192 13.9366 36.7995 C.2 0.0 **** -0.1268
194 H16648 18.5901 25.3792 37.4172 H 0.0 **** 0.1268
195 C16433 27.2516 7.44571 36.4116 C.2 0.0 **** 0.0
196 H16629 22.0286 22.6753 35.8859 H 0.0 **** 0.053
197 C16408 28.9372 -0.676136 33.4768 C.3 0.0 **** -0.053
198 H16646 12.9728 28.6629 39.4028 H 0.0 **** 0.1268
199 H16630 20.8213 22.9013 34.6157 H 0.0 **** 0.053
200 H16555 30.8071 1.50771 32.965 H 0.0 **** 0.053
201 C16418 27.7618 -0.112383 35.6347 C.3 0.0 **** -0.106
202 O16430 24.6908 6.29548 36.549 O.3 0.0 **** -0.464
203 H16566 29.0507 1.62312 38.2672 H 0.0 **** 0.053
204 H16577 32.5886 3.9572 39.3035 H 0.0 **** 0.053
205 C16455 26.1592 12.5515 36.6817 C.2 0.0 **** 0.0
206 C16483 23.7989 20.9972 37.6 C.3 0.0 **** -0.106
207 C16434 30.4976 3.53574 37.0396 C.2 0.0 **** 0.0
208 C16409 27.8199 -0.409577 32.435 C.3 0.0 **** 0.054
209 H16650 18.1611 27.8547 37.2005 H 0.0 **** 0.053
210 H16649 18.7245 26.9956 38.637 H 0.0 **** 0.053
211 H16574 24.3332 2.29527 38.3607 H 0.0 **** 0.053
212 O16506 16.5547 17.0985 37.7559 O.3 0.0 **** -0.0685
213 H16561 30.7936 1.26217 35.0858 H 0.0 **** 0.053
214 C16472 21.4345 17.0079 37.3285 C.2 0.0 **** 0.0
215 C16527 12.9387 20.5262 38.6754 C.2 0.0 **** 0.0
216 C16479 27.4841 19.0912 36.4922 C.3 0.0 **** -0.106
217 C16487 21.0878 9.9232 37.0187 C.2 0.0 **** 0.042
218 H16569 28.0116 -1.11395 36.0188 H 0.0 **** 0.053
219 H16605 23.2281 20.5196 38.408 H 0.0 **** 0.053
220 C16525 14.1136 18.4195 38.2695 C.2 0.0 **** -0.1268
221 O16475 24.0753 18.1795 37.6367 O.3 0.0 **** -0.202
222 C16545 15.4217 27.6622 38.6747 C.2 0.0 **** 0.052
223 C16407 30.3065 -0.606262 32.7813 C.3 0.0 **** -0.053
224 H16565 32.3255 -0.359873 33.5514 H 0.0 **** 0.053
225 H16601 27.9983 21.0091 35.5439 H 0.0 **** 0.053
226 C16508 17.7628 19.1938 37.647 C.2 0.0 **** 0.0
227 C16499 18.8231 12.8526 37.4269 C.2 0.0 **** -0.1268
228 H16622 16.7032 14.5161 37.6826 H 0.0 **** 0.1268
229 H16594 22.7366 7.77683 36.8055 H 0.0 **** 0.1268
230 C16537 14.1831 25.5204 38.8081 C.2 0.0 **** 0.0
231 H16642 12.0327 18.5513 38.7342 H 0.0 **** 0.1268
232 C16428 24.1001 2.20596 37.2873 C.3 0.0 **** -0.106
233 H16599 28.3407 18.5902 36.0237 H 0.0 **** 0.053
234 H16580 34.8692 5.15613 38.4048 H 0.0 **** 0.053
235 H16624 21.1382 20.9929 37.7743 H 0.0 **** 0.053
236 C16441 34.4119 5.36384 37.4242 C.3 0.0 **** -0.106
237 C16510 19.0305 21.3841 37.6714 C.3 0.0 **** -0.053
238 C16480 27.1178 20.3924 35.7707 C.3 0.0 **** -0.106
239 H16654 16.7236 30.7961 39.0897 H 0.0 **** 0.053
240 H16598 27.7754 19.3077 37.5343 H 0.0 **** 0.053
241 H16606 24.5965 22.6305 38.7587 H 0.0 **** 0.053
242 O16551 14.4487 29.8639 38.5886 O.2 0.0 **** -0.419
243 H16633 31.2903 6.53159 31.6712 H 0.0 **** 0.053
244 C16543 17.6996 24.8302 37.7116 C.2 0.0 **** -0.1268
245 C16446 32.6395 7.24679 33.1701 C.3 0.0 **** -0.053
246 C16470 21.3334 14.1483 37.2688 C.2 0.0 **** 0.0
247 C16522 30.6727 8.5345 32.1526 C.3 0.0 **** -0.159
248 H16652 17.838 28.7625 40.1135 H 0.0 **** 0.053
249 H16573 23.0842 1.79129 37.2002 H 0.0 **** 0.053
250 C16488 19.9453 10.6831 37.2165 C.2 0.0 **** 0.042
@<TRIPOS>BOND
1 120 156 1
2 244 194 1
3 223 156 1
4 197 223 1
5 208 197 1
6 26 208 1
7 120 26 1
8 97 178 1
9 54 97 1
10 60 54 1
11 197 178 1
12 223 60 1
13 138 169 1
14 191 138 1
15 201 191 1
16 97 169 1
17 178 201 1
18 77 111 un
19 116 77 un
20 171 116 un
21 191 111 1
22 138 171 1
23 183 80 1
24 148 183 un
25 188 148 un
26 116 80 un
27 77 188 un
28 232 182 1
29 141 232 1
30 111 141 1
31 188 182 1
32 51 202 1
33 29 51 un
34 195 29 un
35 148 202 1
36 183 195 un
37 27 207 un
38 107 27 2
39 171 207 1
40 80 107 un
41 122 109 2
42 166 122 1
43 61 166 1
44 27 109 1
45 207 61 2
46 147 236 1
47 89 147 1
48 35 89 2
49 122 236 1
50 109 35 1
51 245 6 1
52 16 245 1
53 162 16 1
54 35 6 1
55 89 162 1
56 102 28 un
57 107 102 un
58 195 28 un
59 159 41 un
60 37 159 1
61 28 37 un
62 29 41 un
63 205 47 un
64 144 205 un
65 165 144 un
66 159 47 un
67 41 165 un
68 30 67 un
69 129 30 un
70 193 129 un
71 144 67 un
72 205 193 un
73 3 124 un
74 143 3 un
75 63 143 un
76 129 124 un
77 30 63 un
78 12 181 un
79 51 12 un
80 165 181 un
81 160 86 un
82 181 160 un
83 67 86 un
84 87 246 un
85 86 87 un
86 63 246 un
87 101 214 un
88 139 101 un
89 246 139 un
90 143 214 un
91 15 221 1
92 13 15 1
93 104 13 1
94 3 221 1
95 124 104 1
96 238 216 1
97 4 238 1
98 132 4 1
99 13 216 1
100 15 132 1
101 96 206 1
102 167 96 1
103 57 167 1
104 132 206 1
105 4 57 1
106 250 217 un
107 22 250 un
108 87 22 un
109 160 217 un
110 5 105 1
111 100 5 1
112 128 100 1
113 250 105 1
114 217 128 1
115 64 103 1
116 151 64 1
117 1 151 1
118 100 103 1
119 5 1 1
120 227 136 un
121 22 227 un
122 139 136 un
123 71 150 un
124 32 71 un
125 136 32 un
126 101 150 un
127 95 2 un
128 127 95 un
129 214 127 un
130 150 2 un
131 88 212 1
132 226 88 un
133 71 212 1
134 2 226 1
135 237 187 1
136 154 237 1
137 95 187 1
138 226 154 un
139 173 108 1
140 125 173 1
141 186 125 1
142 237 108 1
143 187 186 1
144 11 84 1
145 49 11 1
146 88 49 un
147 154 84 un
148 108 44 1
149 84 7 un
150 44 7 un
151 245 9 1
152 9 247 1
153 9 33 1
154 104 142 1
155 164 220 1
156 215 164 un
157 119 215 1
158 49 220 un
159 11 119 un
160 43 135 un
161 176 43 1
162 137 176 un
163 119 135 un
164 215 137 un
165 155 65 un
166 14 155 1
167 153 14 1
168 176 65 un
169 43 153 un
170 93 230 un
171 39 93 un
172 135 39 un
173 153 230 un
174 168 24 un
175 158 168 un
176 14 158 un
177 230 24 un
178 42 244 un
179 93 42 un
180 7 39 un
181 44 244 un
182 175 222 un
183 42 175 un
184 24 222 un
185 85 8 1
186 123 85 1
187 82 123 1
188 175 8 1
189 222 82 1
190 82 242 2
191 120 58 1
192 120 34 1
193 156 48 1
194 156 200 1
195 223 53 1
196 197 152 1
197 208 179 1
198 208 99 1
199 178 133 1
200 97 213 1
201 54 174 1
202 54 98 1
203 60 17 1
204 60 224 1
205 138 203 1
206 191 55 1
207 201 31 1
208 201 218 1
209 171 23 1
210 182 72 1
211 182 184 1
212 232 249 1
213 232 211 1
214 141 62 1
215 141 70 1
216 166 204 1
217 166 131 1
218 61 40 1
219 236 234 1
220 236 185 1
221 147 36 1
222 147 81 1
223 6 75 1
224 6 46 1
225 245 161 1
226 16 90 1
227 16 79 1
228 162 52 1
229 162 145 1
230 102 149 1
231 47 118 1
232 193 74 1
233 12 229 1
234 15 121 1
235 13 45 1
236 104 78 1
237 216 240 1
238 216 233 1
239 238 20 1
240 238 225 1
241 4 106 1
242 132 177 1
243 206 50 1
244 206 219 1
245 96 241 1
246 96 117 1
247 167 59 1
248 167 170 1
249 57 10 1
250 5 73 1
251 100 56 1
252 103 126 1
253 103 114 1
254 64 68 1
255 64 21 1
256 151 76 1
257 151 25 1
258 1 130 1
259 1 83 1
260 227 112 1
261 32 228 1
262 127 163 1
263 187 235 1
264 237 115 1
265 108 113 1
266 173 38 1
267 173 189 1
268 125 196 1
269 125 199 1
270 186 134 1
271 186 94 1
272 9 243 1
273 247 19 1
274 247 92 1
275 247 66 1
276 33 91 1
277 33 146 1
278 33 69 1
279 142 157 1
280 220 192 1
281 164 231 1
282 137 110 1
283 65 18 1
284 155 180 1
285 168 198 1
286 158 172 1
287 8 210 1
288 8 209 1
289 85 140 1
290 85 248 1
291 123 190 1
292 123 239 1
@<TRIPOS>MOLECULE
Sketch 4
250 292
SMALL
USER_CHARGES


@<TRIPOS>ATOM
1 H25583 23.6126 40.8365 7.49231 H 0.0 **** 0.053
2 H25647 17.9326 43.7419 37.3433 H 0.0 **** 0.1268
3 C25518 16.2411 41.7809 28.1616 C.2 0.0 **** 0.0
4 C25437 20.6644 40.2134 6.96487 C.2 0.0 **** 0.0
5 H25589 23.2496 43.8248 7.68541 H 0.0 **** 0.053
6 H25635 19.2951 45.5364 9.44469 H 0.0 **** 0.053
7 C25546 20.7228 46.3467 32.8672 C.2 0.0 **** 0.0
8 C25525 15.2308 40.8414 28.5498 C.2 0.0 **** -0.1268
9 C25497 12.358 36.6633 19.1036 C.3 0.0 **** -0.106
10 C25445 19.592 42.5319 7.25374 C.3 0.0 **** -0.106
11 C25414 15.7728 38.5484 2.23633 C.3 0.0 **** -0.106
12 C25471 16.9451 40.6118 19.5059 C.2 0.0 **** 0.0
13 C25492 13.4513 37.9314 17.196 C.3 0.0 **** 0.107
14 C25438 21.5311 39.5346 6.15794 C.2 0.0 **** 0.0
15 C25424 17.5673 39.1104 10.766 C.2 0.0 **** 0.0
16 O25551 20.6629 47.1851 36.3879 O.2 0.0 **** -0.419
17 H25559 11.8717 38.3722 4.33021 H 0.0 **** 0.053
18 C25466 16.9879 39.9487 15.7649 C.2 0.0 **** 0.0
19 C25502 15.7527 40.4981 23.6262 C.2 0.0 **** -0.1268
20 C25484 23.4469 46.4604 24.6598 C.3 0.0 **** -0.106
21 C25528 16.5975 42.3287 30.5434 C.2 0.0 **** 0.0
22 H25605 22.3988 44.6873 23.9311 H 0.0 **** 0.053
23 C25409 12.7955 38.7918 4.75257 C.3 0.0 **** 0.054
24 C25481 23.6042 47.3276 22.0101 C.3 0.0 **** 0.134
25 C25535 17.4237 43.2477 35.3017 C.2 0.0 **** 0.0
26 H25623 20.3368 44.5087 23.1265 H 0.0 **** 0.1268
27 C25465 18.7775 42.1711 20.0826 C.2 0.0 **** 0.0
28 H25611 14.4325 36.4705 18.4312 H 0.0 **** 0.053
29 C25498 16.1461 40.5213 22.2514 C.2 0.0 **** 0.0
30 O25490 14.1438 38.2413 19.4603 O.3 0.0 **** -0.202
31 H25608 24.4973 48.3754 24.5341 H 0.0 **** 0.053
32 C25468 17.3135 40.6429 18.1274 C.2 0.0 **** 0.0
33 C25520 18.5568 44.2671 29.8415 C.2 0.0 **** 0.0
34 H25581 22.4763 40.705 4.6332 H 0.0 **** 0.053
35 C25472 19.0073 42.9804 22.415 C.2 0.0 **** 0.0
36 H25607 23.1174 46.2929 25.6977 H 0.0 **** 0.053
37 C25523 18.6852 46.2777 6.88306 C.3 0.0 **** -0.159
38 H25580 23.5369 39.5088 5.39893 H 0.0 **** 0.053
39 C25488 15.1612 39.03 18.9747 C.2 0.0 **** 0.042
40 H25604 21.5117 46.2007 23.7562 H 0.0 **** 0.053
41 C25439 21.2905 38.1111 5.77469 C.3 0.0 **** -0.106
42 C25452 19.5535 41.7639 13.6403 C.2 0.0 **** -0.012
43 C25503 18.1018 42.95 25.1101 C.2 0.0 **** 0.0
44 C25467 16.3564 39.2045 14.747 C.2 0.0 **** -0.1268
45 H25640 23.205 43.6018 17.5213 H 0.0 **** 0.41
46 H25557 13.7466 37.2562 3.55986 H 0.0 **** 0.053
47 H25587 21.0928 44.1409 8.8036 H 0.0 **** 0.053
48 H25630 19.5703 48.2132 26.2577 H 0.0 **** 0.053
49 C25449 19.2699 40.8125 11.0533 C.2 0.0 **** -0.012
50 H25609 22.8023 48.5287 25.0167 H 0.0 **** 0.053
51 C25494 12.4348 39.0896 17.2736 C.3 0.0 **** -0.106
52 H25641 14.7178 40.2749 27.7727 H 0.0 **** 0.1268
53 C25419 15.4148 36.4253 8.27685 C.2 0.0 **** 0.0
54 H25588 21.3091 45.5133 7.69905 H 0.0 **** 0.053
55 H25591 20.5402 41.2183 9.39616 H 0.0 **** 0.1268
56 C25501 16.412 41.2751 24.5381 C.2 0.0 **** 0.042
57 C25473 17.9161 42.1422 22.7926 C.2 0.0 **** 0.0
58 H25584 18.8377 42.1778 6.52849 H 0.0 **** 0.053
59 H25578 21.5659 37.971 4.71108 H 0.0 **** 0.053
60 C25536 17.7187 43.5059 33.9366 C.2 0.0 **** 0.0
61 C25542 18.1419 43.9538 36.2926 C.2 0.0 **** -0.1268
62 C25460 20.2961 42.9894 18.2977 C.2 0.0 **** 0.0
63 C25459 19.1647 42.1964 18.7097 C.2 0.0 **** 0.0
64 C25469 16.5898 39.8887 17.1558 C.2 0.0 **** 0.0
65 H25573 13.3771 34.9537 10.6609 H 0.0 **** 0.053
66 H25620 12.4343 36.7189 20.2004 H 0.0 **** 0.053
67 C25450 19.6814 40.6503 9.75317 C.2 0.0 **** -0.1268
68 H25596 21.4387 46.2402 19.2276 H 0.0 **** 0.053
69 H25564 15.4212 38.2027 1.25267 H 0.0 **** 0.053
70 C25440 19.8869 37.6506 6.01908 C.2 0.0 **** -0.1268
71 H25560 15.1691 38.5986 5.86784 H 0.0 **** 0.053
72 H25650 21.4719 48.2345 32.1465 H 0.0 **** 0.053
73 C25435 19.5536 39.4862 7.5764 C.2 0.0 **** 0.0
74 C25416 17.2221 36.5902 6.4904 C.3 0.0 **** 0.107
75 C25515 19.2675 46.252 25.3771 C.3 0.0 **** -0.106
76 C25514 20.1189 47.2629 26.1684 C.3 0.0 **** -0.106
77 H25645 16.2131 42.1008 36.6904 H 0.0 **** 0.1268
78 C25423 17.9571 38.9188 9.38906 C.2 0.0 **** 0.0
79 C25538 18.9856 44.7227 32.2169 C.2 0.0 **** 0.0
80 C25462 21.0859 43.6294 19.2984 C.2 0.0 **** 0.0
81 H25606 24.4573 46.0296 24.5728 H 0.0 **** 0.053
82 C25433 18.208 40.0255 11.6101 C.2 0.0 **** 0.0
83 C25487 15.4839 39.097 17.628 C.2 0.0 **** 0.042
84 H25579 19.5487 36.7606 5.49091 H 0.0 **** 0.1268
85 H25625 20.3832 43.8934 27.5142 H 0.0 **** 0.053
86 C25512 19.4398 45.7362 28.0417 C.3 0.0 **** -0.053
87 C25412 16.5451 37.6653 4.45895 C.3 0.0 **** 0.107
88 H25644 14.9729 40.8749 34.9227 H 0.0 **** 0.1268
89 C25504 19.1166 43.8318 24.716 C.2 0.0 **** 0.0
90 C25529 17.2997 43.0364 31.5547 C.2 0.0 **** 0.0
91 C25482 23.0084 45.8965 22.2291 C.3 0.0 **** -0.053
92 H25555 15.9704 40.3776 4.21754 H 0.0 **** 0.053
93 H25569 14.7375 35.7051 5.03061 H 0.0 **** 0.053
94 C25517 16.904 42.5469 29.1714 C.2 0.0 **** 0.0
95 C25442 23.2148 41.3204 6.57943 C.3 0.0 **** -0.106
96 H25610 22.0915 48.3807 22.8863 H 0.0 **** 0.353
97 O25475 21.4896 44.2084 21.5367 O.3 0.0 **** -0.202
98 C25407 14.5964 39.1685 3.03293 C.3 0.0 **** -0.053
99 C25495 11.3919 38.8953 18.3955 C.3 0.0 **** -0.106
100 C25457 18.0846 40.7893 15.375 C.2 0.0 **** 0.0
101 C25543 20.1365 45.9889 30.4746 C.2 0.0 **** -0.1268
102 N25486 23.1072 48.3186 22.9655 N.3 0.0 **** -0.727
103 H25628 20.578 47.5801 28.2787 H 0.0 **** 0.053
104 H25598 24.4265 46.0475 19.8143 H 0.0 **** 0.053
105 H25613 12.9932 40.0232 17.4345 H 0.0 **** 0.053
106 C25426 15.7492 37.4713 10.4777 C.2 0.0 **** 0.0
107 C25476 21.8868 45.5776 21.2421 C.3 0.0 **** 0.107
108 C25454 20.2147 42.4868 14.6001 C.2 0.0 **** -0.1268
109 C25434 19.0615 38.3117 6.86102 C.2 0.0 **** 0.0
110 C25464 19.4816 42.9366 21.0539 C.2 0.0 **** 0.0
111 H25652 23.3753 46.4195 33.7266 H 0.0 **** 0.053
112 C25532 15.3265 41.1479 32.2636 C.2 0.0 **** -0.1268
113 C25427 14.5647 36.7318 11.046 C.3 0.0 **** -0.106
114 H25651 23.7147 48.0802 33.1936 H 0.0 **** 0.053
115 C25455 19.867 42.3816 15.9727 C.2 0.0 **** 0.0
116 C25537 18.7092 44.4746 33.5914 C.2 0.0 **** 0.0
117 O25493 14.7309 38.3896 16.7178 O.3 0.0 **** -0.202
118 O25415 17.3053 36.6028 5.05518 O.3 0.0 **** -0.32
119 H25572 13.6688 37.3776 10.9777 H 0.0 **** 0.053
120 C25447 21.1529 44.4244 7.74009 C.3 0.0 **** -0.106
121 C25527 15.5998 41.3685 30.9097 C.2 0.0 **** 0.0
122 C25508 17.6703 42.8628 26.4843 C.2 0.0 **** 0.0
123 H25629 21.0397 47.4778 25.608 H 0.0 **** 0.053
124 C25545 20.407 46.166 34.2206 C.2 0.0 **** 0.052
125 C25507 16.6374 41.9725 26.8244 C.2 0.0 **** 0.0265
126 C25533 15.7384 41.6075 34.6605 C.2 0.0 **** -0.1268
127 H25568 13.7766 36.559 6.24615 H 0.0 **** 0.053
128 C25451 18.4778 40.8721 13.9922 C.2 0.0 **** 0.0
129 H25618 10.28 37.2635 19.3288 H 0.0 **** 0.053
130 C25436 19.0584 39.7279 8.85933 C.2 0.0 **** 0.0
131 H25619 12.3015 35.5966 18.8401 H 0.0 **** 0.053
132 H25585 19.1298 42.3752 8.24029 H 0.0 **** 0.053
133 H25563 17.4341 37.1652 2.56296 H 0.0 **** 0.053
134 C25417 15.8229 36.0825 6.88238 C.3 0.0 **** -0.053
135 H25595 21.0169 46.2204 21.4736 H 0.0 **** 0.053
136 S25453 20.0536 42.0698 11.9844 S.2 0.0 **** 0.024
137 C25540 19.4013 45.1979 34.6076 C.2 0.0 **** 0.0
138 C25496 11.0996 37.4059 18.6092 C.3 0.0 **** -0.106
139 H25614 11.939 39.1744 16.2955 H 0.0 **** 0.053
140 C25408 14.0511 38.1812 4.07764 C.3 0.0 **** -0.053
141 C25516 17.9049 43.4957 28.8182 C.2 0.0 **** 0.0
142 C25550 21.0574 47.0587 35.2277 C.2 0.0 **** 0.347
143 C25441 22.7383 40.2393 5.605 C.3 0.0 **** -0.106
144 C25479 23.5178 46.6349 19.5975 C.3 0.0 **** -0.106
145 C25428 14.2976 35.4298 10.29 C.3 0.0 **** -0.106
146 C25418 14.7802 36.4913 5.80071 C.3 0.0 **** -0.106
147 C25513 20.4909 46.7379 27.5776 C.3 0.0 **** -0.106
148 C25448 22.327 43.6912 7.09156 C.3 0.0 **** -0.106
149 H25616 11.7783 39.3215 19.3332 H 0.0 **** 0.053
150 H25648 20.8052 46.7954 30.186 H 0.0 **** 0.1268
151 H25633 17.7337 44.3628 7.0734 H 0.0 **** 0.053
152 H25576 14.0419 34.7856 8.21864 H 0.0 **** 0.053
153 H25601 24.145 48.6043 20.3527 H 0.0 **** 0.053
154 H25632 18.2006 46.3441 25.6353 H 0.0 **** 0.053
155 H25567 15.8649 34.9772 6.84052 H 0.0 **** 0.053
156 C25522 18.4788 44.9421 9.00574 C.3 0.0 **** -0.159
157 C25489 15.8546 39.8005 19.9436 C.2 0.0 **** 0.0
158 H25594 15.5321 38.5434 14.9706 H 0.0 **** 0.1268
159 C25478 22.4228 44.3479 19.1453 C.3 0.0 **** 0.107
160 H25575 13.2899 36.333 8.60635 H 0.0 **** 0.053
161 H25624 20.8175 44.8077 25.5053 H 0.0 **** 0.053
162 H25646 19.6201 45.4334 36.7449 H 0.0 **** 0.1268
163 H25570 17.012 38.7307 6.66781 H 0.0 **** 0.053
164 C25549 22.2301 47.9204 34.7762 C.3 0.0 **** -0.086
165 C25519 19.4331 45.3315 29.4903 C.2 0.0 **** 0.0
166 H25636 18.497 43.9489 9.47966 H 0.0 **** 0.053
167 H25612 13.1397 37.1826 16.454 H 0.0 **** 0.053
168 C25547 21.8633 47.2397 32.4319 C.3 0.0 **** -0.106
169 C25509 19.7303 44.8148 25.6774 C.3 0.0 **** -0.053
170 H25571 14.7209 36.5419 12.1177 H 0.0 **** 0.053
171 C25526 14.9237 40.6504 29.8683 C.2 0.0 **** -0.1268
172 C25463 20.6599 43.6102 20.613 C.2 0.0 **** 0.042
173 C25548 22.9146 47.4001 33.5232 C.3 0.0 **** -0.106
174 H25593 21.3643 43.7698 16.5898 H 0.0 **** 0.1268
175 C25421 17.2765 38.0105 8.59727 C.2 0.0 **** 0.0
176 H25653 21.8177 48.9279 34.5822 H 0.0 **** 0.053
177 C25539 18.2897 44.0067 31.2014 C.2 0.0 **** 0.0
178 C25541 19.0943 44.8956 35.9633 C.2 0.0 **** -0.1268
179 H25592 21.034 43.154 14.3229 H 0.0 **** 0.1268
180 H25639 17.7892 46.8579 7.15096 H 0.0 **** 0.053
181 H25552 13.7152 41.9371 4.80351 H 0.0 **** 0.053
182 H25622 14.9241 39.8631 23.9415 H 0.0 **** 0.1268
183 H25649 22.3266 46.8178 31.529 H 0.0 **** 0.053
184 C25531 16.0117 41.8377 33.2766 C.2 0.0 **** 0.0
185 O25410 12.6813 40.207 4.56024 O.3 0.0 **** -0.32
186 C25422 17.6249 37.9293 7.128 C.3 0.0 **** -0.053
187 C25530 17.0151 42.7955 32.9194 C.2 0.0 **** 0.0
188 C25431 16.7659 39.2784 13.4335 C.2 0.0 **** 0.232
189 C25485 23.4834 47.9828 24.3472 C.3 0.0 **** 0.081
190 C25483 22.5161 45.7499 23.6785 C.3 0.0 **** -0.106
191 C25432 17.8272 40.094 13.0009 C.2 0.0 **** 0.0
192 H25638 19.5618 46.8271 7.26165 H 0.0 **** 0.053
193 H25643 14.5666 40.4143 32.5417 H 0.0 **** 0.1268
194 C25477 22.2746 45.7505 19.7523 C.3 0.0 **** -0.053
195 C25505 19.5434 43.8314 23.4007 C.2 0.0 **** -0.1268
196 H25554 15.0766 41.2805 2.98528 H 0.0 **** 0.053
197 C25406 14.9838 40.484 3.73941 C.3 0.0 **** -0.106
198 H25599 23.6003 46.9694 18.5557 H 0.0 **** 0.053
199 H25582 24.0364 41.911 6.14495 H 0.0 **** 0.053
200 C25461 20.5846 43.0945 16.9281 C.2 0.0 **** -0.1268
201 C25425 16.4656 38.3421 11.2511 C.2 0.0 **** 0.232
202 H25615 10.4703 39.44 18.1431 H 0.0 **** 0.053
203 H25565 16.5259 39.3299 2.0425 H 0.0 **** 0.053
204 C25444 20.8298 41.6787 7.10005 C.2 0.0 **** 0.0
205 H25637 18.7573 46.2406 5.7846 H 0.0 **** 0.053
206 C25456 18.7855 41.5337 16.3635 C.2 0.0 **** 0.0
207 H25621 14.6459 39.1241 21.5966 H 0.0 **** 0.1268
208 H25561 17.1088 38.6096 4.58676 H 0.0 **** 0.053
209 H25586 19.9921 44.1982 5.95893 H 0.0 **** 0.053
210 C25413 16.4346 37.3695 2.97286 C.3 0.0 **** -0.106
211 O25506 15.999 41.2257 25.8609 O.3 0.0 **** -0.0685
212 O25524 22.9687 44.4891 17.8327 O.3 0.0 **** -0.57
213 C25499 15.4776 39.7585 21.294 C.2 0.0 **** -0.1268
214 C25534 16.4213 42.2862 35.6348 C.2 0.0 **** -0.1268
215 H25590 22.5506 44.1339 6.10135 H 0.0 **** 0.053
216 H25597 23.1537 43.8014 19.7766 H 0.0 **** 0.053
217 H25553 14.2905 40.5888 5.82119 H 0.0 **** 0.053
218 C25521 18.6286 44.868 7.48064 C.3 0.0 **** -0.053
219 C25510 19.5024 44.4697 27.1672 C.3 0.0 **** -0.053
220 H25577 22.0006 37.4498 6.31868 H 0.0 **** 0.053
221 H25558 12.813 38.5716 5.84047 H 0.0 **** 0.053
222 O25430 16.0529 38.4924 12.5612 O.3 0.0 **** -0.464
223 H25627 21.4718 46.2331 27.5586 H 0.0 **** 0.053
224 C25491 13.6545 37.2451 18.5364 C.3 0.0 **** 0.107
225 H25566 17.9709 35.8488 6.80579 H 0.0 **** 0.053
226 H25602 24.6889 47.2491 22.1972 H 0.0 **** 0.053
227 H25600 22.4138 48.2754 20.4741 H 0.0 **** 0.053
228 C25443 22.0594 42.2225 6.9376 C.2 0.0 **** 0.0
229 H25574 15.1298 34.7287 10.4648 H 0.0 **** 0.053
230 C25511 18.3017 43.6159 27.4778 C.2 0.0 **** 0.0
231 C25480 23.4133 47.8142 20.5703 C.3 0.0 **** -0.106
232 C25544 19.9697 45.6815 31.8504 C.2 0.0 **** 0.0
233 H25654 22.907 48.0188 35.6367 H 0.0 **** 0.053
234 C25429 14.1929 35.7169 8.79033 C.3 0.0 **** -0.106
235 H25603 23.8094 45.1592 22.0505 H 0.0 **** 0.053
236 H25562 15.8396 36.4508 2.84556 H 0.0 **** 0.053
237 C25420 16.1393 37.2779 9.09457 C.2 0.0 **** 0.0
238 C25474 17.2466 41.3407 21.8339 C.2 0.0 **** 0.0
239 C25500 17.4909 42.1287 24.1507 C.2 0.0 **** 0.0
240 C25405 13.931 40.86 4.80835 C.3 0.0 **** 0.054
241 H25642 14.156 39.9295 30.1551 H 0.0 **** 0.1268
242 C25470 17.65 41.3746 20.4731 C.2 0.0 **** 0.0
243 H25556 13.7766 39.4046 2.33883 H 0.0 **** 0.053
244 C25411 15.1375 37.8028 5.1065 C.3 0.0 **** -0.053
245 H25631 19.3422 46.443 24.2959 H 0.0 **** 0.053
246 C25458 18.4251 41.4594 17.7346 C.2 0.0 **** 0.0
247 H25634 17.5302 45.4296 9.27651 H 0.0 **** 0.053
248 H25626 18.445 46.1936 27.8674 H 0.0 **** 0.053
249 C25446 19.847 44.0286 7.04224 C.3 0.0 **** -0.053
250 H25617 10.7594 36.968 17.6551 H 0.0 **** 0.053
@<TRIPOS>BOND
1 75 76 1
2 136 42 1
3 122 230 un
4 79 232 un
5 120 54 1
6 98 197 1
7 140 98 1
8 23 140 1
9 185 23 1
10 240 197 1
11 240 185 1
12 87 244 1
13 210 87 1
14 11 210 1
15 140 244 1
16 98 11 1
17 74 118 1
18 134 74 1
19 146 134 1
20 87 118 1
21 244 146 1
22 237 53 un
23 175 237 un
24 186 175 un
25 134 53 1
26 74 186 1
27 15 78 1
28 201 15 un
29 106 201 un
30 175 78 un
31 237 106 un
32 145 113 1
33 234 145 1
34 53 234 1
35 106 113 1
36 188 222 1
37 191 188 un
38 82 191 un
39 201 222 1
40 15 82 un
41 73 109 un
42 130 73 2
43 186 109 1
44 78 130 un
45 14 4 2
46 41 14 1
47 70 41 1
48 73 4 1
49 109 70 2
50 95 143 1
51 228 95 1
52 204 228 2
53 14 143 1
54 4 204 1
55 249 10 1
56 120 249 1
57 148 120 1
58 204 10 1
59 228 148 1
60 67 49 un
61 130 67 un
62 82 49 un
63 42 128 un
64 49 136 un
65 191 128 un
66 115 108 un
67 206 115 un
68 100 206 un
69 42 108 un
70 128 100 un
71 63 246 un
72 62 63 un
73 200 62 un
74 206 246 un
75 115 200 un
76 172 80 un
77 110 172 un
78 27 110 un
79 62 80 un
80 63 27 un
81 44 18 un
82 188 44 un
83 100 18 un
84 64 32 un
85 18 64 un
86 246 32 un
87 12 242 un
88 32 12 un
89 27 242 un
90 57 35 un
91 238 57 un
92 242 238 un
93 110 35 un
94 107 97 1
95 194 107 1
96 159 194 1
97 172 97 1
98 80 159 1
99 231 144 1
100 24 231 1
101 91 24 1
102 194 144 1
103 107 91 1
104 20 190 1
105 189 20 1
106 102 189 1
107 91 190 1
108 24 102 1
109 39 83 un
110 157 39 un
111 12 157 un
112 64 83 un
113 224 30 1
114 13 224 1
115 117 13 1
116 39 30 1
117 83 117 1
118 99 51 1
119 138 99 1
120 9 138 1
121 13 51 1
122 224 9 1
123 213 29 un
124 157 213 un
125 238 29 un
126 56 239 un
127 19 56 un
128 29 19 un
129 57 239 un
130 89 43 un
131 195 89 un
132 35 195 un
133 239 43 un
134 125 211 1
135 122 125 un
136 56 211 1
137 43 122 1
138 219 169 1
139 230 219 1
140 89 169 1
141 147 86 1
142 76 147 1
143 219 86 1
144 169 75 1
145 94 141 1
146 3 94 1
147 125 3 un
148 230 141 un
149 86 165 1
150 141 33 un
151 165 33 un
152 249 218 1
153 218 156 1
154 218 37 1
155 159 212 1
156 171 8 1
157 121 171 un
158 21 121 1
159 3 8 un
160 94 21 un
161 187 90 un
162 184 187 1
163 112 184 un
164 21 90 un
165 121 112 un
166 214 126 un
167 25 214 1
168 60 25 1
169 184 126 un
170 187 60 un
171 79 116 un
172 177 79 un
173 90 177 un
174 60 116 un
175 178 137 un
176 61 178 un
177 25 61 un
178 116 137 un
179 232 101 un
180 33 177 un
181 165 101 un
182 7 124 un
183 232 7 un
184 137 124 un
185 173 168 1
186 164 173 1
187 142 164 1
188 7 168 1
189 124 142 1
190 142 16 2
191 240 181 1
192 240 217 1
193 197 196 1
194 197 92 1
195 98 243 1
196 140 46 1
197 23 221 1
198 23 17 1
199 244 71 1
200 87 208 1
201 210 236 1
202 210 133 1
203 11 69 1
204 11 203 1
205 74 225 1
206 134 155 1
207 146 127 1
208 146 93 1
209 186 163 1
210 113 170 1
211 113 119 1
212 145 65 1
213 145 229 1
214 234 160 1
215 234 152 1
216 41 220 1
217 41 59 1
218 70 84 1
219 143 38 1
220 143 34 1
221 95 199 1
222 95 1 1
223 10 58 1
224 10 132 1
225 249 209 1
226 120 47 1
227 148 5 1
228 148 215 1
229 67 55 1
230 108 179 1
231 200 174 1
232 44 158 1
233 107 135 1
234 194 68 1
235 159 216 1
236 144 104 1
237 144 198 1
238 231 227 1
239 231 153 1
240 24 226 1
241 91 235 1
242 190 40 1
243 190 22 1
244 20 81 1
245 20 36 1
246 189 31 1
247 189 50 1
248 102 96 1
249 224 28 1
250 13 167 1
251 51 105 1
252 51 139 1
253 99 202 1
254 99 149 1
255 138 250 1
256 138 129 1
257 9 131 1
258 9 66 1
259 213 207 1
260 19 182 1
261 195 26 1
262 169 161 1
263 219 85 1
264 86 248 1
265 147 223 1
266 147 103 1
267 76 123 1
268 76 48 1
269 75 245 1
270 75 154 1
271 218 151 1
272 156 247 1
273 156 6 1
274 156 166 1
275 37 205 1
276 37 192 1
277 37 180 1
278 212 45 1
279 8 52 1
280 171 241 1
281 112 193 1
282 126 88 1
283 214 77 1
284 178 162 1
285 61 2 1
286 101 150 1
287 168 183 1
288 168 72 1
289 173 114 1
290 173 111 1
291 164 176 1
292 164 233 1
@<TRIPOS>MOLECULE
Sketch 4
188 213
SMALL
USER_CHARGES


@<TRIPOS>ATOM
1 H10758 63.0642 75.8313 14.0654 H 0.0 **** 0.053
2 H10720 58.7074 51.3858 30.2387 H 0.0 **** 0.053
3 H10766 53.9476 53.2801 30.1321 H 0.0 **** 0.41
4 H10767 53.4203 59.9172 26.8209 H 0.0 **** 0.41
5 H10715 59.1039 74.3803 24.2504 H 0.0 **** 0.41
6 C10667 64.5024 78.1165 10.111 C.ar 0.0 **** 0.052
7 C10601 55.4411 56.3685 28.6237 C.ar 0.0 **** -0.1268
8 C10597 58.4346 54.4248 29.819 C.ar 0.0 **** -0.1268
9 C10603 55.865 59.7056 26.975 C.2 0.0 **** 0.0
10 C10602 55.279 58.5532 27.5125 C.2 0.0 **** -0.1268
11 C10620 58.7821 65.8432 24.1521 C.ar 0.0 **** -0.1268
12 C10651 69.864 75.3801 15.5049 C.ar 0.0 **** 0.0
13 H10737 66.1535 70.8183 18.9455 H 0.0 **** 0.053
14 H10732 59.6488 65.2308 24.4076 H 0.0 **** 0.1268
15 C10661 66.5679 76.5481 12.9347 C.3 0.0 **** -0.106
16 C10655 72.0546 74.7542 17.0692 C.ar 0.0 **** 0.2405
17 H10726 54.1929 58.4133 27.5189 H 0.0 **** 0.1268
18 H10755 66.9863 77.4741 13.3734 H 0.0 **** 0.053
19 H10716 64.2992 71.4766 25.3114 H 0.0 **** 0.41
20 C10656 70.7832 74.1719 17.3776 C.ar 0.0 **** 0.0
21 C10696 62.4478 77.6444 30.9284 C.3 0.0 **** -0.106
22 C10641 65.7493 72.9241 17.396 C.3 0.0 **** -0.106
23 C10666 63.2257 77.5535 10.3849 C.ar 0.0 **** 0.042
24 H10728 53.8496 62.9381 25.3933 H 0.0 **** 0.1268
25 C10622 60.4145 68.9639 22.9246 C.ar 0.0 **** 0.0
26 C10624 57.9884 69.2709 22.8506 C.ar 0.0 **** -0.1268
27 C10621 60.2557 67.6828 23.3995 C.ar 0.0 **** -0.1268
28 C10686 60.2441 72.9353 23.8879 C.2 0.0 **** 0.042
29 C10598 58.2512 56.607 28.6774 C.ar 0.0 **** -0.1268
30 C10647 67.3995 75.2214 14.8813 C.ar 0.0 **** 0.0
31 C10616 55.0852 65.3734 24.3139 C.3 0.0 **** -0.106
32 H10735 58.7669 71.7852 22.0287 H 0.0 **** 0.053
33 C10619 58.9557 67.1426 23.6199 C.ar 0.0 **** 0.0
34 H10729 54.4947 65.2034 23.3977 H 0.0 **** 0.053
35 H10730 54.4326 65.9168 25.0171 H 0.0 **** 0.053
36 C10632 62.8738 71.0824 19.1119 C.2 0.0 **** 0.0
37 C10653 71.1704 75.8972 15.29 C.ar 0.0 **** 0.1137
38 C10600 56.0425 57.5204 28.0749 C.ar 0.0 **** 0.0
39 H10746 62.7455 74.4595 15.7137 H 0.0 **** 0.053
40 C10685 61.1444 73.4021 24.8624 C.2 0.0 **** 0.052
41 H10770 62.7658 68.5714 24.1776 H 0.0 **** 0.053
42 C10643 64.8419 74.1741 15.3868 C.ar 0.0 **** 0.0
43 C10665 63.0654 76.6854 11.4637 C.ar 0.0 **** -0.1268
44 C10618 57.7962 67.9445 23.3166 C.ar 0.0 **** 0.0
45 H10739 66.0923 69.6913 20.9666 H 0.0 **** 0.053
46 H10703 64.1293 73.8809 28.5815 H 0.0 **** 0.053
47 C10640 64.3708 72.4026 17.6722 C.2 0.0 **** 0.0
48 O10702 64.3902 72.6192 26.3094 O.2 0.0 **** -0.419
49 H10768 63.877 69.2112 22.9697 H 0.0 **** 0.053
50 C10610 54.9382 63.0002 25.3832 C.2 0.0 **** -0.1268
51 C10639 63.3002 72.7309 16.8282 C.2 0.0 **** 0.0
52 C10591 57.8028 53.3324 30.3475 C.ar 0.0 **** 0.0
53 C10615 56.3563 66.1397 24.019 C.ar 0.0 **** 0.0
54 C10607 57.1636 62.0178 25.8971 C.2 0.0 **** 0.2405
55 C10668 65.5782 77.7786 10.973 C.ar 0.0 **** 0.0
56 H10744 66.4385 72.0643 17.2909 H 0.0 **** 0.053
57 C10635 65.3959 71.2469 19.6254 C.3 0.0 **** -0.106
58 C10663 64.1328 76.3514 12.2973 C.ar 0.0 **** 0.0
59 C10657 70.6967 73.286 18.4826 C.ar 0.0 **** -0.1268
60 H10733 61.112 67.0497 23.6302 H 0.0 **** 0.1268
61 H10760 67.435 78.5781 11.7041 H 0.0 **** 0.053
62 H10776 59.0127 61.0804 26.426 H 0.0 **** 0.1268
63 C10658 71.8125 72.9935 19.2407 C.ar 0.0 **** -0.1268
64 C10614 57.5025 65.3602 24.3566 C.ar 0.0 **** 0.0
65 H10762 68.0114 79.8682 9.60702 H 0.0 **** 0.053
66 C10636 65.1709 70.2632 20.7791 C.3 0.0 **** -0.106
67 H10721 55.7361 51.1411 30.2315 H 0.0 **** 0.053
68 H10749 69.0453 75.5371 13.5434 H 0.0 **** 0.053
69 C10629 59.791 71.0099 19.7215 C.2 0.0 **** 0.0265
70 H10711 64.5085 77.6357 31.6497 H 0.0 **** 0.053
71 C10664 63.8667 75.4051 13.435 C.3 0.0 **** -0.106
72 H10710 62.1933 78.565 31.4756 H 0.0 **** 0.053
73 C10608 55.7077 61.9155 25.903 C.2 0.0 **** 0.0
74 C10617 56.4971 67.4106 23.5152 C.ar 0.0 **** -0.1268
75 H10757 63.4223 74.4796 13.0231 H 0.0 **** 0.053
76 C10652 68.7581 75.7978 14.5798 C.3 0.0 **** -0.106
77 C10660 73.1791 74.434 17.8704 C.ar 0.0 **** -0.1268
78 C10599 57.4925 57.6472 28.0965 C.ar 0.0 **** 0.0
79 H10764 66.5907 78.4464 8.05526 H 0.0 **** 0.053
80 C10689 62.8989 74.356 26.9134 C.ar 0.0 **** 0.0
81 C10612 57.0489 64.0875 24.9183 C.2 0.0 **** 0.2405
82 H10772 61.3994 77.3449 9.89309 H 0.0 **** 0.41
83 C10691 63.8604 74.7702 27.9812 C.3 0.0 **** -0.106
84 C10695 61.7073 77.6017 29.5883 C.3 0.0 **** -0.106
85 H10773 75.175 73.7372 19.4433 H 0.0 **** 0.053
86 C10623 59.2614 69.7547 22.6774 C.ar 0.0 **** 0.0
87 C10684 62.3528 72.7 25.0961 C.2 0.0 **** 0.052
88 H10712 64.281 78.3768 30.055 H 0.0 **** 0.053
89 O10674 53.7275 60.7352 26.4002 O.3 0.0 **** -0.452
90 C10606 57.9269 60.984 26.4322 C.2 0.0 **** -0.1268
91 C10590 58.3898 52.1082 31.0116 C.3 0.0 **** -0.106
92 H10707 61.7994 78.5767 29.0726 H 0.0 **** 0.053
93 H10738 64.9202 70.7958 21.7097 H 0.0 **** 0.053
94 C10692 63.3759 75.8779 28.8735 C.2 0.0 **** 0.0
95 H10763 66.5281 80.4364 10.3958 H 0.0 **** 0.053
96 C10593 55.9499 51.918 30.9884 C.3 0.0 **** -0.106
97 H10765 66.1627 80.1672 7.88538 H 0.0 **** 0.053
98 C10611 55.6028 64.0847 24.8969 C.2 0.0 **** 0.0
99 H10705 61.1945 77.0766 26.8517 H 0.0 **** 0.053
100 H10743 66.1222 73.4411 18.2996 H 0.0 **** 0.053
101 C10681 60.548 71.7313 23.2121 C.2 0.0 **** 0.0
102 C10633 62.7648 70.1892 20.2745 C.2 0.0 **** 0.0
103 H10753 71.7261 72.3083 20.0871 H 0.0 **** 0.1268
104 C10690 63.2756 73.1892 26.1021 C.2 0.0 **** 0.367
105 H10704 64.8211 75.0505 27.5065 H 0.0 **** 0.053
106 C10637 64.0087 69.3415 20.4037 C.3 0.0 **** -0.106
107 O10677 59.6974 70.7516 17.3814 O.2 0.0 **** -0.419
108 O10676 58.4439 71.2317 19.6405 O.3 0.0 **** -0.4365
109 C10609 55.0986 60.7733 26.4291 C.2 0.0 **** 0.042
110 C10626 60.4462 70.8833 20.9199 C.2 0.0 **** 0.0
111 H10723 59.5215 54.5224 29.8388 H 0.0 **** 0.1268
112 O10699 59.1012 73.5773 23.6139 O.3 0.0 **** -0.452
113 C10687 60.8127 74.5867 25.6283 C.2 0.0 **** 0.367
114 C10604 57.3204 59.8329 26.9806 C.2 0.0 **** 0.0
115 C10672 64.7174 78.9995 8.92772 C.2 0.0 **** 0.347
116 C10698 64.3022 76.2157 30.0154 C.3 0.0 **** -0.106
117 H10747 68.0632 74.1714 17.9084 H 0.0 **** 0.053
118 C10594 55.5964 54.1818 29.7615 C.ar 0.0 **** 0.042
119 C10638 62.0455 72.2111 17.1109 C.2 0.0 **** -0.1268
120 H10706 60.2718 76.0201 27.8691 H 0.0 **** 0.053
121 O10673 54.223 54.1115 29.7134 O.3 0.0 **** -0.452
122 C10675 62.8921 68.7647 23.1044 C.3 0.0 **** -0.159
123 C10646 66.312 75.5786 14.0553 C.ar 0.0 **** 0.0
124 C10645 65.0435 75.0518 14.3018 C.ar 0.0 **** 0.0
125 O10700 63.8334 70.9063 24.5865 O.3 0.0 **** -0.452
126 H10718 57.2787 50.4585 32.0058 H 0.0 **** 0.053
127 C10683 62.6603 71.5146 24.3804 C.2 0.0 **** 0.042
128 C10671 66.1664 79.3201 8.5839 C.3 0.0 **** -0.086
129 C10688 61.728 75.0197 26.6914 C.ar 0.0 **** 0.0
130 H10759 62.0778 76.2538 11.6565 H 0.0 **** 0.1268
131 C10631 61.8065 71.4175 18.2402 C.2 0.0 **** 0.052
132 H10724 59.3398 56.6978 28.6955 H 0.0 **** 0.1268
133 C10693 62.2082 76.513 28.6707 C.2 0.0 **** 0.0
134 C10680 74.272 73.2214 19.7958 C.3 0.0 **** -0.159
135 H10754 74.1317 74.8965 17.6055 H 0.0 **** 0.1268
136 C10649 68.3219 73.9295 16.8608 C.3 0.0 **** -0.106
137 H10745 63.1286 73.0711 14.7291 H 0.0 **** 0.053
138 H10734 57.1168 69.904 22.6622 H 0.0 **** 0.1268
139 H10714 65.3396 76.2369 29.6377 H 0.0 **** 0.053
140 C10589 57.2011 51.5382 31.8195 C.3 0.0 **** -0.106
141 C10669 66.9601 78.3486 10.7389 C.3 0.0 **** -0.106
142 H10771 58.0182 70.956 20.4684 H 0.0 **** 0.41
143 H10761 67.5881 77.5612 10.2792 H 0.0 **** 0.053
144 C10628 61.7545 69.6793 22.6544 C.3 0.0 **** 0.0
145 O10679 63.8039 79.4546 8.2467 O.2 0.0 **** -0.419
146 H10731 55.6274 68.0245 23.2691 H 0.0 **** 0.1268
147 C10659 73.0789 73.5671 18.9453 C.ar 0.0 **** 0.0
148 H10769 62.8329 67.803 22.5795 H 0.0 **** 0.053
149 H10775 74.1001 73.5019 20.8474 H 0.0 **** 0.053
150 C10650 69.6674 74.5111 16.5587 C.ar 0.0 **** 0.0
151 H10756 67.3904 76.165 12.3025 H 0.0 **** 0.053
152 H10752 69.7386 72.8301 18.7357 H 0.0 **** 0.1268
153 C10642 65.9128 73.8343 16.2125 C.ar 0.0 **** 0.0
154 H10725 54.3543 56.2782 28.6087 H 0.0 **** 0.1268
155 H10748 68.4029 72.8262 16.856 H 0.0 **** 0.053
156 C10694 61.3043 76.1946 27.5125 C.3 0.0 **** -0.106
157 H10774 74.4633 72.1365 19.7792 H 0.0 **** 0.053
158 C10670 66.9754 79.5887 9.85068 C.3 0.0 **** -0.106
159 C10605 58.0808 58.7946 27.543 C.2 0.0 **** -0.1268
160 H10742 61.2017 72.424 16.452 H 0.0 **** 0.1268
161 H10713 64.2758 75.3889 30.7507 H 0.0 **** 0.053
162 H10709 62.1187 76.7945 31.5498 H 0.0 **** 0.053
163 H10717 57.1492 52.0506 32.792 H 0.0 **** 0.053
164 C10644 63.4628 73.6233 15.6273 C.3 0.0 **** -0.106
165 N10613 57.8105 63.1236 25.3843 N.2 0.0 **** -0.481
166 O10678 62.1678 77.849 9.57625 O.3 0.0 **** -0.452
167 H10722 55.0478 52.0185 31.6157 H 0.0 **** 0.053
168 H10741 64.2149 68.9049 19.411 H 0.0 **** 0.053
169 C10596 57.6575 55.4712 29.2253 C.ar 0.0 **** 0.0
170 H10727 59.1693 58.8887 27.5502 H 0.0 **** 0.1268
171 O10701 59.7465 75.2329 25.4056 O.2 0.0 **** -0.419
172 C10682 61.698 70.9955 23.4602 C.2 0.0 **** 0.0
173 C10595 56.203 55.3543 29.1919 C.ar 0.0 **** 0.0
174 C10634 64.1719 71.5737 18.7905 C.2 0.0 **** 0.0
175 N10654 72.2314 75.617 16.0199 N.ar 0.0 **** -0.481
176 H10736 65.8446 72.1825 19.9998 H 0.0 **** 0.053
177 C10697 63.9585 77.5425 30.7004 C.3 0.0 **** -0.106
178 H10750 68.6968 76.9023 14.5724 H 0.0 **** 0.053
179 C10592 56.3765 53.2056 30.3257 C.ar 0.0 **** 0.0
180 C10627 61.7247 70.2274 21.1678 C.2 0.0 **** 0.0
181 C10625 59.6293 71.1299 22.1899 C.3 0.0 **** -0.053
182 C10662 65.3983 76.8978 12.0569 C.ar 0.0 **** 0.0
183 H10751 71.3252 76.5888 14.4519 H 0.0 **** 0.1268
184 C10648 67.199 74.3512 15.9541 C.ar 0.0 **** 0.0
185 H10740 63.8943 68.509 21.0918 H 0.0 **** 0.053
186 H10719 59.2698 52.3319 31.6308 H 0.0 **** 0.053
187 C10630 60.3983 70.9657 18.3732 C.2 0.0 **** 0.367
188 H10708 60.6251 77.4581 29.7542 H 0.0 **** 0.053
@<TRIPOS>BOND
1 9 10 un
2 25 27 am
3 21 162 1
4 52 91 1
5 179 52 am
6 96 179 1
7 140 91 1
8 140 96 1
9 173 118 am
10 169 173 am
11 8 169 am
12 179 118 am
13 52 8 am
14 78 29 am
15 38 78 un
16 7 38 am
17 169 29 am
18 173 7 am
19 114 9 un
20 159 114 un
21 38 10 un
22 78 159 un
23 54 90 un
24 73 54 un
25 109 73 un
26 114 90 un
27 9 109 un
28 98 50 un
29 81 98 un
30 165 81 un
31 73 50 un
32 54 165 un
33 53 64 am
34 31 53 1
35 81 64 1
36 98 31 1
37 44 74 am
38 33 44 am
39 11 33 am
40 53 74 am
41 64 11 am
42 86 25 am
43 26 86 am
44 33 27 am
45 44 26 am
46 110 181 1
47 180 110 1
48 144 180 1
49 86 181 1
50 25 144 1
51 110 69 2
52 69 187 1
53 187 131 1
54 131 36 un
55 36 102 1
56 180 102 2
57 57 174 1
58 66 57 1
59 106 66 1
60 36 174 un
61 102 106 1
62 51 119 un
63 47 51 un
64 174 47 un
65 131 119 un
66 153 22 1
67 42 153 am
68 164 42 1
69 47 22 1
70 51 164 1
71 123 124 am
72 30 123 am
73 184 30 am
74 42 124 am
75 153 184 am
76 150 136 1
77 12 150 am
78 76 12 1
79 184 136 1
80 30 76 1
81 175 37 am
82 16 175 am
83 20 16 am
84 12 37 am
85 150 20 am
86 63 59 am
87 147 63 am
88 77 147 am
89 20 59 am
90 16 77 am
91 182 15 1
92 58 182 am
93 71 58 1
94 123 15 1
95 124 71 1
96 23 43 am
97 6 23 am
98 55 6 am
99 58 43 am
100 182 55 am
101 158 141 1
102 128 158 1
103 115 128 1
104 55 141 1
105 6 115 1
106 118 121 1
107 109 89 1
108 144 122 1
109 69 108 1
110 187 107 2
111 23 166 1
112 115 145 2
113 147 134 1
114 127 172 un
115 87 127 un
116 40 87 un
117 28 40 un
118 101 172 un
119 101 28 un
120 129 113 1
121 80 129 am
122 104 80 1
123 40 113 1
124 87 104 1
125 94 83 1
126 133 94 2
127 156 133 1
128 80 83 1
129 129 156 1
130 21 84 1
131 177 21 1
132 116 177 1
133 133 84 1
134 94 116 1
135 28 112 1
136 127 125 1
137 113 171 2
138 104 48 2
139 83 46 1
140 83 105 1
141 156 99 1
142 156 120 1
143 84 92 1
144 84 188 1
145 21 72 1
146 177 70 1
147 177 88 1
148 116 161 1
149 116 139 1
150 112 5 1
151 125 19 1
152 144 172 1
153 181 101 1
154 140 163 1
155 140 126 1
156 91 186 1
157 91 2 1
158 96 67 1
159 96 167 1
160 8 111 1
161 29 132 1
162 7 154 1
163 10 17 1
164 159 170 1
165 50 24 1
166 31 34 1
167 31 35 1
168 74 146 1
169 11 14 1
170 27 60 1
171 26 138 1
172 181 32 1
173 57 176 1
174 57 13 1
175 66 93 1
176 66 45 1
177 106 185 1
178 106 168 1
179 119 160 1
180 22 100 1
181 22 56 1
182 164 137 1
183 164 39 1
184 136 117 1
185 136 155 1
186 76 68 1
187 76 178 1
188 37 183 1
189 59 152 1
190 63 103 1
191 77 135 1
192 15 18 1
193 15 151 1
194 71 75 1
195 71 1 1
196 43 130 1
197 141 61 1
198 141 143 1
199 158 65 1
200 158 95 1
201 128 79 1
202 128 97 1
203 121 3 1
204 89 4 1
205 122 49 1
206 122 148 1
207 122 41 1
208 108 142 1
209 166 82 1
210 134 85 1
211 134 157 1
212 134 149 1
213 90 62 1
@<TRIPOS>MOLECULE
Sketch 4
130 142
SMALL
USER_CHARGES


@<TRIPOS>ATOM
1 C6930 15.4145 63.8595 20.8291 C.ar 0.0 **** 0.2405
2 H7007 20.1555 52.2297 18.6284 H 0.0 **** 0.053
3 H6978 10.928 66.4768 22.0575 H 0.0 **** 0.053
4 H6992 10.8775 50.5294 31.2496 H 0.0 **** 0.053
5 H6983 14.3874 66.9174 18.6486 H 0.0 **** 0.053
6 H6994 12.7408 53.9958 27.1419 H 0.0 **** 0.053
7 C6943 16.8101 65.9477 17.9876 C.ar 0.0 **** 0.0
8 H6993 11.9882 50.8519 32.5928 H 0.0 **** 0.053
9 H6995 13.4304 55.0637 28.3603 H 0.0 **** 0.053
10 O6951 20.6181 52.7714 24.5903 O.3 0.0 **** -0.452
11 C6950 20.2811 50.5401 26.0758 C.3 0.0 **** -0.159
12 N6929 15.7442 62.6897 21.3868 N.ar 0.0 **** -0.481
13 H7001 18.5444 48.7431 28.0884 H 0.0 **** 0.053
14 H6963 16.3333 49.7837 29.0815 H 0.0 **** 0.053
15 C6915 19.3854 53.1184 20.4818 C.ar 0.0 **** -0.053
16 H6982 13.8681 65.2443 18.4259 H 0.0 **** 0.053
17 C6935 12.4929 66.2865 20.5481 C.3 0.0 **** -0.106
18 H7020 19.2503 67.078 16.9865 H 0.0 **** 0.053
19 C6948 14.6739 49.5621 31.1799 C.3 0.0 **** -0.159
20 H6981 14.5499 66.6226 21.063 H 0.0 **** 0.053
21 H6976 11.8238 64.5409 23.4606 H 0.0 **** 0.053
22 C6934 11.9594 66.1033 21.968 C.3 0.0 **** -0.106
23 H6988 9.91788 51.2979 29.2451 H 0.0 **** 0.053
24 H6985 19.5701 64.1004 18.7668 H 0.0 **** 0.1268
25 C6938 15.9363 65.442 18.9679 C.ar 0.0 **** 0.0
26 C6911 17.7654 56.4667 22.6909 C.ar 0.0 **** 0.0
27 H6967 17.4917 54.1039 20.2074 H 0.0 **** 0.053
28 H6986 11.0048 54.0057 30.2467 H 0.0 **** 0.053
29 H6962 16.9624 51.0114 30.1466 H 0.0 **** 0.053
30 H7003 20.282 50.5027 24.9801 H 0.0 **** 0.053
31 H6984 17.9855 63.1596 20.4586 H 0.0 **** 0.1268
32 C6919 16.5258 58.6218 22.7401 C.ar 0.0 **** 0.052
33 C6917 16.1522 56.9366 24.4919 C.ar 0.0 **** 0.042
34 H6960 14.7381 53.2963 26.7943 H 0.0 **** 0.053
35 H6966 20.0255 55.7896 20.3614 H 0.0 **** 0.053
36 C6959 19.1173 65.9874 16.9035 C.3 0.0 **** -0.159
37 C6894 14.4911 52.5013 28.7559 C.ar 0.0 **** 0.0
38 H6972 14.0315 61.8939 25.2178 H 0.0 **** 0.053
39 C6937 14.502 65.9018 19.0522 C.3 0.0 **** -0.106
40 C6904 17.3857 53.1089 26.2849 C.ar 0.0 **** 0.0
41 C6892 14.1518 50.7495 30.4025 C.ar 0.0 **** 0.0
42 C6926 12.7176 61.9406 23.4994 C.3 0.0 **** -0.106
43 H7010 17.8633 55.1556 18.0291 H 0.0 **** 0.053
44 H6990 8.94091 52.7735 29.4855 H 0.0 **** 0.053
45 H6991 12.1849 49.3936 31.6043 H 0.0 **** 0.053
46 C6913 18.9473 55.6178 20.5371 C.3 0.0 **** -0.106
47 H6977 12.579 66.6973 22.6604 H 0.0 **** 0.053
48 H7015 15.3541 66.6837 16.5606 H 0.0 **** 0.053
49 C6958 16.3124 66.9866 17.0094 C.3 0.0 **** -0.159
50 C6932 13.314 63.9432 22.0278 C.ar 0.0 **** 0.0
51 C6916 20.0026 53.5148 21.8509 C.3 0.0 **** -0.106
52 C6909 19.1346 54.4354 22.6772 C.2 0.0 **** 0.0
53 C6922 15.2203 60.7679 22.7653 C.ar 0.0 **** 0.0
54 O6954 18.1936 58.2327 21.1165 O.3 0.0 **** -0.452
55 C6907 18.7017 54.1249 24.0083 C.ar 0.0 **** 0.0
56 C6953 18.5518 54.3682 18.37 C.3 0.0 **** -0.159
57 H6965 18.4176 56.4354 20.0477 H 0.0 **** 0.053
58 C6940 17.6777 63.9545 19.7793 C.ar 0.0 **** -0.1268
59 H7005 21.2425 50.9866 26.3747 H 0.0 **** 0.053
60 C6923 14.5601 60.317 23.8912 C.ar 0.0 **** 0.0
61 H6975 11.1849 64.08 21.8895 H 0.0 **** 0.053
62 C6944 10.9922 52.9059 30.2533 C.3 0.0 **** -0.106
63 H6987 10.6872 52.6236 31.2703 H 0.0 **** 0.053
64 H7009 21.2014 53.4859 19.3333 H 0.0 **** 0.053
65 C6918 15.8487 58.1876 23.9035 C.ar 0.0 **** 0.052
66 H7014 14.8515 57.4248 25.7913 H 0.0 **** 0.41
67 C6898 16.643 52.5574 27.3741 C.ar 0.0 **** 0.0
68 C6902 19.0976 51.3338 26.5833 C.ar 0.0 **** 0.0
69 H6971 12.8774 60.5551 25.1854 H 0.0 **** 0.053
70 C6947 12.743 54.2128 28.2229 C.3 0.0 **** -0.159
71 C6893 14.9743 51.3947 29.4578 C.ar 0.0 **** 0.0
72 H7011 18.2409 53.4192 17.9073 H 0.0 **** 0.053
73 H6979 12.3812 67.3296 20.2121 H 0.0 **** 0.053
74 H6996 11.7348 54.5447 28.4911 H 0.0 **** 0.053
75 H6961 15.5053 54.2405 28.036 H 0.0 **** 0.053
76 C6946 11.9274 50.4595 31.5625 C.3 0.0 **** -0.159
77 C6905 16.9242 54.274 25.6536 C.ar 0.0 **** -0.1268
78 C6942 18.1356 65.4682 17.9244 C.ar 0.0 **** 0.0
79 C6899 17.1392 51.4778 28.07 C.ar 0.0 **** 0.0
80 C6906 17.5499 54.8197 24.534 C.ar 0.0 **** 0.0
81 C6903 18.6258 52.498 25.884 C.ar 0.0 **** 0.0
82 C6945 9.94808 52.3982 29.2463 C.3 0.0 **** -0.159
83 H7008 21.1229 51.8742 20.0804 H 0.0 **** 0.053
84 C6921 16.2451 59.9094 22.135 C.2 0.0 **** 0.367
85 O6955 15.4953 56.6004 25.599 O.3 0.0 **** -0.452
86 H7013 17.7492 59.1839 20.9136 H 0.0 **** 0.41
87 C6897 15.3291 53.1934 27.7212 C.3 0.0 **** -0.106
88 H7004 20.2514 49.5091 26.446 H 0.0 **** 0.053
89 H7006 21.0198 53.4446 24.0183 H 0.0 **** 0.41
90 H6998 14.3877 48.6077 30.7034 H 0.0 **** 0.053
91 C6949 18.9008 49.7058 28.4956 C.3 0.0 **** -0.159
92 C6914 18.5356 54.2765 19.8977 C.ar 0.0 **** -0.053
93 H6964 16.0593 54.7777 26.0531 H 0.0 **** 0.1268
94 H7017 16.1372 67.9548 17.5088 H 0.0 **** 0.053
95 H7016 17.0256 67.1592 16.1952 H 0.0 **** 0.053
96 C6896 12.3787 52.3729 29.959 C.ar 0.0 **** 0.0
97 H7000 19.9976 49.6721 28.507 H 0.0 **** 0.053
98 O6957 16.8655 60.2564 21.0808 O.2 0.0 **** -0.419
99 C6900 16.3717 50.8776 29.2191 C.3 0.0 **** -0.106
100 H6974 12.115 61.2245 22.9091 H 0.0 **** 0.053
101 C6941 18.5461 64.4753 18.8281 C.ar 0.0 **** -0.1268
102 H7002 18.5635 49.7568 29.5381 H 0.0 **** 0.053
103 C6925 13.52 61.1764 24.5489 C.3 0.0 **** -0.106
104 H6970 20.2506 52.5878 22.3766 H 0.0 **** 0.053
105 C6910 18.6458 55.5546 22.0165 C.2 0.0 **** 0.0
106 H6989 10.2063 52.7208 28.2267 H 0.0 **** 0.053
107 C6933 12.0104 64.6277 22.379 C.3 0.0 **** -0.106
108 H7012 19.5565 54.6132 17.9945 H 0.0 **** 0.053
109 H6968 18.7168 52.2612 20.6585 H 0.0 **** 0.053
110 C6924 14.8571 59.033 24.5088 C.2 0.0 **** 0.367
111 C6931 14.2101 64.5332 21.125 C.ar 0.0 **** 0.0
112 C6908 19.3057 53.1251 24.8108 C.ar 0.0 **** 0.042
113 H6999 14.274 49.5442 32.2026 H 0.0 **** 0.053
114 C6927 13.6393 62.6915 22.5757 C.ar 0.0 **** 0.0
115 C6952 20.5266 52.6488 19.5739 C.3 0.0 **** -0.159
116 H6980 11.9156 65.6548 19.85 H 0.0 **** 0.053
117 C6939 16.3648 64.4378 19.861 C.ar 0.0 **** 0.0
118 H7018 18.7762 65.7846 15.875 H 0.0 **** 0.053
119 C6901 18.3873 50.8778 27.6892 C.ar 0.0 **** 0.0
120 H6969 20.9558 54.0348 21.6334 H 0.0 **** 0.053
121 C6936 13.9646 65.8796 20.4844 C.3 0.0 **** -0.053
122 C6895 13.1996 53.0059 29.0083 C.ar 0.0 **** 0.0
123 C6891 12.8414 51.2137 30.62 C.ar 0.0 **** 0.0
124 H6997 15.7683 49.5697 31.255 H 0.0 **** 0.053
125 C6920 17.4973 57.7838 22.1535 C.ar 0.0 **** 0.042
126 C6912 17.1422 56.0634 23.9082 C.ar 0.0 **** 0.0
127 H7019 20.0989 65.5119 17.0329 H 0.0 **** 0.053
128 O6956 14.2421 58.6842 25.58 O.2 0.0 **** -0.419
129 C6928 14.8761 62.0989 22.2201 C.ar 0.0 **** 0.2405
130 H6973 12.0058 62.6142 23.9923 H 0.0 **** 0.053
@<TRIPOS>BOND
1 126 26 am
2 129 12 am
3 81 112 am
4 71 41 am
5 37 71 am
6 122 37 am
7 96 122 am
8 123 41 am
9 123 96 am
10 67 87 1
11 79 67 am
12 99 79 1
13 37 87 1
14 71 99 1
15 68 119 am
16 81 68 am
17 40 81 am
18 79 119 am
19 67 40 am
20 80 77 am
21 55 80 am
22 112 55 am
23 40 77 am
24 105 52 1
25 26 105 1
26 55 52 1
27 80 126 am
28 92 46 1
29 15 92 am
30 51 15 1
31 105 46 1
32 52 51 1
33 65 33 am
34 32 65 am
35 125 32 am
36 126 33 am
37 26 125 am
38 53 84 1
39 60 53 am
40 110 60 1
41 32 84 1
42 65 110 1
43 42 103 1
44 114 42 1
45 129 114 am
46 60 103 1
47 53 129 am
48 1 12 am
49 111 1 am
50 50 111 am
51 114 50 am
52 22 107 1
53 17 22 1
54 121 17 1
55 50 107 1
56 111 121 1
57 25 39 1
58 117 25 am
59 1 117 am
60 121 39 1
61 101 58 am
62 78 101 am
63 7 78 am
64 117 58 am
65 25 7 am
66 96 62 1
67 62 82 1
68 123 76 1
69 122 70 1
70 41 19 1
71 119 91 1
72 68 11 1
73 112 10 1
74 15 115 1
75 92 56 1
76 125 54 1
77 33 85 1
78 110 128 2
79 84 98 2
80 7 49 1
81 78 36 1
82 87 34 1
83 87 75 1
84 99 29 1
85 99 14 1
86 77 93 1
87 46 57 1
88 46 35 1
89 92 27 1
90 15 109 1
91 51 120 1
92 51 104 1
93 103 69 1
94 103 38 1
95 42 130 1
96 42 100 1
97 107 61 1
98 107 21 1
99 22 47 1
100 22 3 1
101 17 73 1
102 17 116 1
103 121 20 1
104 39 16 1
105 39 5 1
106 58 31 1
107 101 24 1
108 62 28 1
109 62 63 1
110 82 23 1
111 82 106 1
112 82 44 1
113 76 45 1
114 76 4 1
115 76 8 1
116 70 6 1
117 70 9 1
118 70 74 1
119 19 124 1
120 19 90 1
121 19 113 1
122 91 97 1
123 91 13 1
124 91 102 1
125 11 30 1
126 11 88 1
127 11 59 1
128 10 89 1
129 115 2 1
130 115 83 1
131 115 64 1
132 56 43 1
133 56 72 1
134 56 108 1
135 54 86 1
136 85 66 1
137 49 48 1
138 49 95 1
139 49 94 1
140 36 118 1
141 36 127 1
142 36 18 1
@<TRIPOS>MOLECULE
Sketch 4
130 142
SMALL
USER_CHARGES


@<TRIPOS>ATOM
1 C5242 9.7664 22.0848 7.88446 C.ar 0.0 **** 0.0
2 H5309 14.8015 37.9572 2.01105 H 0.0 **** 0.053
3 H5274 11.1579 32.3181 6.83991 H 0.0 **** 0.1268
4 C5219 8.58046 32.8547 10.587 C.2 0.0 **** 0.0
5 C5222 9.81316 30.997 8.80792 C.ar 0.0 **** 0.0
6 C5268 6.72975 19.1168 12.925 C.3 0.0 **** -0.159
7 H5275 6.63331 30.1672 11.2304 H 0.0 **** 0.053
8 C5250 8.61634 22.9955 12.5692 C.ar 0.0 **** -0.1268
9 H5325 6.01574 18.9675 12.1008 H 0.0 **** 0.053
10 H5282 12.2161 24.9505 7.06112 H 0.0 **** 0.053
11 H5303 15.0931 36.0947 0.131391 H 0.0 **** 0.053
12 C5224 5.83412 32.141 10.8272 C.ar 0.0 **** -0.053
13 C5209 12.2029 36.1675 6.37814 C.ar 0.0 **** 0.0
14 H5297 14.1578 33.7307 -0.21153 H 0.0 **** 0.053
15 H5329 7.08541 21.7299 16.0166 H 0.0 **** 0.053
16 H5324 11.5006 29.4379 6.49095 H 0.0 **** 0.41
17 H5285 9.23095 21.2177 6.00506 H 0.0 **** 0.053
18 H5323 8.1649 27.6417 11.0658 H 0.0 **** 0.41
19 H5295 8.12771 23.2529 14.6483 H 0.0 **** 0.1268
20 C5208 11.7975 34.8519 6.40875 C.ar 0.0 **** 0.0
21 H5298 11.7019 34.2039 -0.654231 H 0.0 **** 0.053
22 C5226 7.70836 33.7881 11.3944 C.3 0.0 **** -0.106
23 C5243 10.0321 21.1091 6.75825 C.3 0.0 **** -0.106
24 H5306 12.421 31.6677 2.07751 H 0.0 **** 0.053
25 O5267 8.47274 26.4081 10.4803 O.2 0.0 **** -0.419
26 C5201 13.5653 35.581 1.59864 C.ar 0.0 **** 0.0
27 H5318 5.78829 35.2387 12.5304 H 0.0 **** 0.053
28 C5228 10.2093 28.6265 8.16854 C.ar 0.0 **** 0.052
29 C5262 5.43977 34.213 12.3338 C.3 0.0 **** -0.159
30 H5320 4.24383 30.6716 10.9952 H 0.0 **** 0.053
31 C5214 11.1232 34.3379 7.55901 C.ar 0.0 **** 0.0
32 C5223 6.93826 31.2058 11.3599 C.3 0.0 **** -0.106
33 H5289 8.96592 18.2533 8.44358 H 0.0 **** 0.053
34 C5247 7.88982 19.9878 10.3709 C.3 0.0 **** -0.106
35 C5221 8.94818 30.5481 9.8486 C.ar 0.0 **** 0.0
36 C5206 13.2246 34.2123 1.67012 C.ar 0.0 **** 0.0
37 C5202 13.4946 36.3896 2.74797 C.ar 0.0 **** 0.0
38 C5263 4.45467 31.7004 11.3227 C.3 0.0 **** -0.159
39 C5255 12.0589 33.2101 -0.343235 C.3 0.0 **** -0.159
40 C5254 13.3721 33.3336 0.445654 C.3 0.0 **** -0.106
41 C5246 9.09259 20.1686 9.44313 C.3 0.0 **** -0.053
42 H5292 6.96779 20.228 9.80647 H 0.0 **** 0.053
43 H5286 10.9647 21.3826 6.24086 H 0.0 **** 0.053
44 H5272 13.9367 37.0266 5.47421 H 0.0 **** 0.053
45 H5283 10.8829 23.3275 5.75233 H 0.0 **** 0.053
46 H5291 9.98735 19.8229 9.99925 H 0.0 **** 0.053
47 H5315 11.3494 37.5811 10.5284 H 0.0 **** 0.053
48 H5296 13.7179 32.3326 0.742752 H 0.0 **** 0.053
49 H5302 13.5139 35.7003 -0.570406 H 0.0 **** 0.053
50 H5288 10.0929 18.9848 6.33664 H 0.0 **** 0.053
51 O5266 11.5761 28.0355 6.31891 O.2 0.0 **** -0.419
52 H5299 11.2736 32.76 0.282233 H 0.0 **** 0.053
53 H5293 7.81505 18.9271 10.6482 H 0.0 **** 0.053
54 H5273 12.4291 37.6847 4.89841 H 0.0 **** 0.053
55 C5257 12.2814 32.243 2.99844 C.3 0.0 **** -0.159
56 C5248 7.96977 20.8654 11.5954 C.ar 0.0 **** 0.0
57 C5233 10.6012 26.251 7.53717 C.ar 0.0 **** 0.0
58 C5260 10.7277 37.5973 9.61951 C.3 0.0 **** -0.159
59 H5310 12.639 38.8714 8.40797 H 0.0 **** 0.053
60 C5251 8.08645 22.5841 13.7858 C.ar 0.0 **** -0.1268
61 H5277 5.84441 32.024 9.73105 H 0.0 **** 0.053
62 C5234 10.8271 27.6681 7.29427 C.2 0.0 **** 0.367
63 C5258 13.9466 37.8315 2.689 C.3 0.0 **** -0.159
64 C5207 12.0419 33.9161 5.26162 C.3 0.0 **** -0.106
65 C5203 13.0006 35.851 3.95259 C.ar 0.0 **** 0.0
66 C5237 9.94424 23.4654 7.69678 C.ar 0.0 **** 0.0
67 C5259 12.4068 38.4725 7.41244 C.3 0.0 **** -0.159
68 H5328 5.82152 20.7657 15.2181 H 0.0 **** 0.053
69 H5278 5.93578 34.2207 10.2466 H 0.0 **** 0.053
70 H5308 13.1425 38.4941 2.32259 H 0.0 **** 0.053
71 H5312 13.3151 38.5608 6.80385 H 0.0 **** 0.053
72 H5281 11.5165 25.7799 5.66542 H 0.0 **** 0.053
73 H5326 6.18313 19.0039 13.8683 H 0.0 **** 0.053
74 H5311 11.6492 39.1357 6.95872 H 0.0 **** 0.053
75 H5321 3.65983 32.353 10.9309 H 0.0 **** 0.053
76 C5253 7.40938 20.4627 12.8218 C.ar 0.0 **** 0.0
77 C5210 12.9118 36.7319 5.17451 C.3 0.0 **** -0.106
78 C5227 10.4202 30.0087 7.94881 C.ar 0.0 **** 0.042
79 H5301 13.7581 37.2565 0.231925 H 0.0 **** 0.053
80 H5276 7.05892 31.3667 12.4474 H 0.0 **** 0.053
81 C5241 9.30918 21.631 9.12997 C.ar 0.0 **** 0.0
82 H5330 7.36007 20.007 15.6545 H 0.0 **** 0.053
83 C5204 12.6009 34.5137 4.00387 C.ar 0.0 **** 0.0
84 H5290 8.00081 19.5405 7.69243 H 0.0 **** 0.053
85 N5239 9.29077 23.8866 9.98581 N.ar 0.0 **** -0.481
86 C5236 10.3643 24.0626 6.38015 C.3 0.0 **** -0.106
87 H5317 4.35424 34.2475 12.1676 H 0.0 **** 0.053
88 H5280 7.95236 34.8413 11.226 H 0.0 **** 0.053
89 H5304 11.2129 32.1839 3.26389 H 0.0 **** 0.053
90 C5244 10.11 19.6481 7.21466 C.3 0.0 **** -0.106
91 O5261 10.1347 35.3212 10.9487 O.3 0.0 **** -0.452
92 H5300 12.1858 32.5888 -1.24337 H 0.0 **** 0.053
93 C5213 10.8214 35.2135 8.66079 C.ar 0.0 **** 0.0
94 H5305 12.8242 31.7281 3.80817 H 0.0 **** 0.053
95 C5218 10.1727 34.6134 9.7682 C.ar 0.0 **** 0.042
96 C5256 14.0034 36.1881 0.282595 C.3 0.0 **** -0.159
97 C5230 8.81293 29.1293 10.1025 C.ar 0.0 **** 0.042
98 C5225 6.18626 33.6194 11.1348 C.ar 0.0 **** -0.053
99 C5211 11.9248 37.0406 7.48407 C.ar 0.0 **** 0.0
100 C5220 8.22168 31.5139 10.6241 C.2 0.0 **** 0.0
101 C5269 6.90882 20.9382 15.2761 C.3 0.0 **** -0.159
102 H5279 7.87444 33.5796 12.4692 H 0.0 **** 0.053
103 C5229 9.4154 28.18 9.25052 C.ar 0.0 **** 0.052
104 C5205 12.7208 33.6827 2.87188 C.ar 0.0 **** 0.0
105 C5231 9.20555 26.768 9.50554 C.2 0.0 **** 0.367
106 H5307 14.2503 38.2071 3.67401 H 0.0 **** 0.053
107 C5232 9.8436 25.7925 8.59678 C.ar 0.0 **** 0.0
108 C5245 8.96889 19.322 8.17685 C.3 0.0 **** -0.106
109 C5217 9.6205 33.3094 9.71108 C.ar 0.0 **** 0.0
110 H5287 11.0699 19.4767 7.72994 H 0.0 **** 0.053
111 C5216 10.083 32.4162 8.67472 C.ar 0.0 **** 0.0
112 O5265 11.1975 30.3592 6.92743 O.3 0.0 **** -0.452
113 C5235 11.2616 25.2761 6.60634 C.3 0.0 **** -0.106
114 H5316 9.90482 34.7051 11.6623 H 0.0 **** 0.41
115 H5284 9.46354 24.3752 5.81853 H 0.0 **** 0.053
116 C5252 7.47954 21.327 13.9349 C.ar 0.0 **** 0.0
117 C5240 9.07693 22.5769 10.1513 C.ar 0.0 **** 0.2405
118 H5314 10.7361 38.616 9.21575 H 0.0 **** 0.053
119 H5294 9.05695 23.9845 12.4438 H 0.0 **** 0.1268
120 C5215 10.812 32.9712 7.62426 C.ar 0.0 **** -0.1268
121 H5271 12.7027 33.0939 5.5993 H 0.0 **** 0.053
122 C5212 11.198 36.599 8.58502 C.ar 0.0 **** 0.0
123 H5319 5.62626 33.6169 13.2414 H 0.0 **** 0.053
124 H5270 11.0926 33.4054 5.02254 H 0.0 **** 0.053
125 H5327 7.46166 18.2933 12.8642 H 0.0 **** 0.053
126 H5313 9.7032 37.3719 9.93853 H 0.0 **** 0.053
127 O5264 8.14455 28.7058 11.1682 O.3 0.0 **** -0.452
128 H5322 4.39827 31.7226 12.4213 H 0.0 **** 0.053
129 C5249 8.5671 22.1364 11.4631 C.ar 0.0 **** 0.0
130 C5238 9.6894 24.334 8.78668 C.ar 0.0 **** 0.2405
@<TRIPOS>BOND
1 95 109 am
2 122 58 1
3 129 56 am
4 65 37 am
5 83 65 am
6 104 83 am
7 36 104 am
8 26 37 am
9 26 36 am
10 20 64 1
11 13 20 am
12 77 13 1
13 83 64 1
14 65 77 1
15 122 99 am
16 93 122 am
17 31 93 am
18 13 99 am
19 20 31 am
20 111 120 am
21 109 111 am
22 31 120 am
23 93 95 am
24 100 4 1
25 35 100 1
26 5 35 am
27 109 4 1
28 111 5 am
29 12 32 1
30 98 12 am
31 22 98 1
32 100 32 1
33 4 22 1
34 28 78 am
35 103 28 am
36 97 103 am
37 5 78 am
38 35 97 am
39 107 105 1
40 57 107 am
41 62 57 1
42 103 105 1
43 28 62 1
44 86 113 1
45 66 86 1
46 130 66 am
47 57 113 1
48 107 130 am
49 117 85 am
50 81 117 am
51 1 81 am
52 130 85 am
53 66 1 am
54 90 23 1
55 108 90 1
56 41 108 1
57 1 23 1
58 81 41 1
59 56 34 1
60 117 129 am
61 41 34 1
62 60 8 am
63 116 60 am
64 76 116 am
65 129 8 am
66 56 76 am
67 36 40 1
68 40 39 1
69 26 96 1
70 104 55 1
71 37 63 1
72 99 67 1
73 95 91 1
74 98 29 1
75 12 38 1
76 97 127 1
77 78 112 1
78 62 51 2
79 105 25 2
80 76 6 1
81 116 101 1
82 64 124 1
83 64 121 1
84 77 44 1
85 77 54 1
86 120 3 1
87 32 7 1
88 32 80 1
89 12 61 1
90 98 69 1
91 22 102 1
92 22 88 1
93 113 72 1
94 113 10 1
95 86 45 1
96 86 115 1
97 23 17 1
98 23 43 1
99 90 110 1
100 90 50 1
101 108 33 1
102 108 84 1
103 41 46 1
104 34 42 1
105 34 53 1
106 8 119 1
107 60 19 1
108 40 48 1
109 40 14 1
110 39 21 1
111 39 52 1
112 39 92 1
113 96 79 1
114 96 49 1
115 96 11 1
116 55 89 1
117 55 94 1
118 55 24 1
119 63 106 1
120 63 70 1
121 63 2 1
122 67 59 1
123 67 74 1
124 67 71 1
125 58 126 1
126 58 118 1
127 58 47 1
128 91 114 1
129 29 87 1
130 29 27 1
131 29 123 1
132 38 30 1
133 38 75 1
134 38 128 1
135 127 18 1
136 112 16 1
137 6 9 1
138 6 73 1
139 6 125 1
140 101 68 1
141 101 15 1
142 101 82 1
@<TRIPOS>MOLECULE
Sketch 4
188 213
SMALL
USER_CHARGES


@<TRIPOS>ATOM
1 H11895 16.571 0.169351 4.86604 H 0.0 **** 0.41
2 C11743 16.7847 7.40154 3.18058 C.ar 0.0 **** 0.0
3 C11730 14.5722 -0.697087 3.8426 C.2 0.0 **** -0.1268
4 C11736 15.5733 2.91239 3.6219 C.2 0.0 **** 0.0
5 H11897 12.1468 11.4674 0.22372 H 0.0 **** 0.053
6 C11816 18.119 14.2524 -4.95183 C.ar 0.0 **** 0.0
7 C11761 12.809 14.5831 1.15394 C.2 0.0 **** 0.0
8 C11742 15.5591 6.96505 2.59488 C.ar 0.0 **** 0.0
9 H11834 20.1539 13.8921 -5.43897 H 0.0 **** 0.053
10 C11796 11.9447 26.5483 4.00319 C.ar 0.0 **** 0.0
11 C11777 9.436 21.0802 -0.55919 C.3 0.0 **** -0.106
12 C11717 10.5401 -7.91357 2.07654 C.3 0.0 **** -0.106
13 H11898 13.084 11.1132 -1.24089 H 0.0 **** 0.053
14 C11722 12.6264 -5.2129 3.54363 C.ar 0.0 **** 0.042
15 C11735 14.4777 3.43769 2.81321 C.2 0.0 **** 0.2405
16 H11848 8.80415 -6.66213 2.53687 H 0.0 **** 0.053
17 H11842 16.7916 14.5873 -9.57048 H 0.0 **** 0.053
18 H11833 19.6961 15.5604 -5.53736 H 0.0 **** 0.053
19 C11727 12.5086 -1.04558 2.54571 C.ar 0.0 **** 0.0
20 H11891 12.4582 29.1889 2.97203 H 0.0 **** 0.053
21 C11774 11.086 23.3309 2.05648 C.ar 0.0 **** 0.0
22 H11841 17.5013 12.9794 -9.54564 H 0.0 **** 0.053
23 H11904 12.6685 2.98584 1.76411 H 0.0 **** 0.1268
24 C11739 16.5296 5.10622 3.65822 C.2 0.0 **** 0.0
25 C11723 12.6123 -3.80992 3.22935 C.ar 0.0 **** 0.0
26 O11807 13.4466 28.8459 6.42294 O.2 0.0 **** -0.419
27 H11855 11.694 0.722881 1.61818 H 0.0 **** 0.1268
28 C11765 11.4083 14.2443 0.700313 C.3 0.0 **** -0.106
29 H11862 17.8149 11.2725 2.44384 H 0.0 **** 0.1268
30 H11881 6.82433 19.0344 -4.24965 H 0.0 **** 0.1268
31 C11794 13.5069 25.9974 5.78835 C.ar 0.0 **** 0.042
32 C11800 12.6807 28.3878 5.58105 C.2 0.0 **** 0.347
33 C11767 12.7432 18.6564 2.57811 C.2 0.0 **** 0.0
34 C11784 7.77623 21.7185 -2.35413 C.ar 0.0 **** 0.0
35 C11803 12.7729 11.9148 -0.558471 C.3 0.0 **** -0.159
36 C11813 17.1695 13.8956 -2.65544 C.2 0.0 **** 0.052
37 C11760 12.8627 15.9626 1.65953 C.2 0.0 **** 0.0
38 H11882 5.59134 23.1595 -4.57644 H 0.0 **** 0.1268
39 C11776 10.2828 21.5787 0.578928 C.ar 0.0 **** 0.0
40 H11896 12.1968 12.6319 -1.14275 H 0.0 **** 0.053
41 H11871 11.3318 19.2119 -0.308459 H 0.0 **** 0.053
42 C11770 11.0952 20.6452 1.2549 C.ar 0.0 **** 0.0
43 H11832 15.9343 14.7514 -7.23453 H 0.0 **** 0.053
44 H11837 20.1965 12.9305 -9.51721 H 0.0 **** 0.053
45 H11894 13.5505 -6.61374 4.46706 H 0.0 **** 0.41
46 C11778 8.5988 22.106 -1.25696 C.ar 0.0 **** 0.0
47 C11750 14.7827 11.4135 0.827175 C.ar 0.0 **** 0.0
48 C11720 11.6504 -6.04058 3.05154 C.ar 0.0 **** 0.0
49 N11782 7.01309 24.0377 -2.61378 N.ar 0.0 **** -0.481
50 H11876 8.77576 20.2694 -0.197669 H 0.0 **** 0.053
51 H11859 18.1555 9.04174 3.45707 H 0.0 **** 0.1268
52 C11758 14.5361 15.5429 3.58592 C.2 0.0 **** 0.367
53 C11786 6.87655 20.0673 -3.89798 C.ar 0.0 **** -0.1268
54 C11756 14.0315 12.521 0.0594172 C.3 0.0 **** 0.0
55 C11752 16.8411 10.9493 2.06537 C.ar 0.0 **** -0.1268
56 O11805 14.6821 15.7359 4.79513 O.2 0.0 **** -0.419
57 C11738 16.6124 3.80031 4.03507 C.2 0.0 **** -0.1268
58 H11843 19.1272 14.3678 -1.45559 H 0.0 **** 0.41
59 H11880 8.27666 19.6005 -2.34732 H 0.0 **** 0.1268
60 C11773 11.8756 22.4022 2.73576 C.ar 0.0 **** 0.0
61 H11888 11.1254 27.3024 2.16422 H 0.0 **** 0.053
62 H11892 10.6475 29.04 5.45012 H 0.0 **** 0.053
63 H11852 10.7151 -1.54728 1.44836 H 0.0 **** 0.1268
64 C11825 18.898 14.5477 -10.1207 C.3 0.0 **** -0.106
65 C11789 11.0772 24.789 2.42394 C.3 0.0 **** -0.106
66 C11772 12.7428 20.0735 3.08464 C.3 0.0 **** -0.106
67 C11754 15.2029 14.0326 1.64445 C.2 0.0 **** 0.0
68 O11827 18.5092 14.1224 -0.676007 O.3 0.0 **** -0.452
69 C11821 19.1273 14.397 -7.26282 C.2 0.0 **** 0.0
70 C11753 16.3541 13.2416 1.01995 C.3 0.0 **** -0.053
71 H11890 10.7493 29.6626 2.99052 H 0.0 **** 0.053
72 C11822 19.3283 14.5444 -5.78034 C.3 0.0 **** -0.106
73 C11764 11.0985 15.0836 -0.540958 C.3 0.0 **** -0.106
74 C11793 13.4827 24.6695 5.36499 C.ar 0.0 **** -0.1268
75 C11734 13.4753 2.57784 2.37315 C.2 0.0 **** -0.1268
76 C11757 15.4357 14.6171 2.8634 C.2 0.0 **** 0.0265
77 C11769 11.0816 19.2242 0.768607 C.3 0.0 **** -0.106
78 H11853 14.3978 -3.33703 4.3247 H 0.0 **** 0.1268
79 C11823 20.3795 14.5445 -8.09254 C.3 0.0 **** -0.106
80 C11812 15.9061 13.5966 -3.22292 C.2 0.0 **** 0.052
81 H11857 17.5663 6.47894 4.98782 H 0.0 **** 0.053
82 C11748 14.7495 7.83976 1.89355 C.ar 0.0 **** -0.1268
83 C11759 13.6292 16.3921 2.77278 C.2 0.0 **** 0.052
84 H11878 10.0698 24.7672 -0.0908516 H 0.0 **** 0.053
85 H11860 13.8106 7.4922 1.45891 H 0.0 **** 0.1268
86 C11780 9.4281 23.9425 0.272153 C.3 0.0 **** -0.106
87 H11902 4.48093 19.9157 -5.41099 H 0.0 **** 0.053
88 C11749 14.357 10.1191 1.01452 C.ar 0.0 **** -0.1268
89 H11845 11.1433 -8.09853 1.17499 H 0.0 **** 0.053
90 C11751 16.0464 11.8046 1.34333 C.ar 0.0 **** 0.0
91 C11747 15.1566 9.18561 1.73546 C.ar 0.0 **** 0.0
92 H11867 10.1182 14.8225 -0.967605 H 0.0 **** 0.053
93 C11771 11.8806 21.0508 2.33318 C.ar 0.0 **** 0.0
94 C11745 17.2106 8.69936 3.02854 C.ar 0.0 **** -0.1268
95 H11873 12.4447 20.0678 4.14982 H 0.0 **** 0.053
96 C11775 10.2782 22.917 0.975455 C.ar 0.0 **** 0.0
97 C11791 12.7054 24.2627 4.28045 C.ar 0.0 **** 0.0
98 H11858 18.4762 6.07226 3.52434 H 0.0 **** 0.053
99 C11766 13.5363 17.7164 3.21977 C.2 0.0 **** -0.1268
100 O11801 13.6582 -5.65757 4.33802 O.3 0.0 **** -0.452
101 C11728 13.5782 -1.57181 3.38126 C.ar 0.0 **** 0.0
102 C11733 12.5001 0.323472 2.23805 C.2 0.0 **** -0.1268
103 H11889 10.0372 27.3947 3.54093 H 0.0 **** 0.053
104 H11856 17.441 3.41524 4.63021 H 0.0 **** 0.1268
105 H11874 13.7852 20.4405 3.09708 H 0.0 **** 0.053
106 H11893 11.863 30.3144 5.18269 H 0.0 **** 0.053
107 H11864 11.3724 17.1948 -1.00217 H 0.0 **** 0.053
108 H11899 17.0255 13.6064 3.25727 H 0.0 **** 0.41
109 H11861 13.4078 9.76686 0.611991 H 0.0 **** 0.1268
110 C11724 11.5373 -3.29666 2.38612 C.ar 0.0 **** 0.0
111 H11840 18.9035 15.6506 -10.1027 H 0.0 **** 0.053
112 C11814 17.3417 13.8259 -1.26128 C.2 0.0 **** 0.042
113 H11879 7.79097 25.4 -1.28592 H 0.0 **** 0.1268
114 C11826 17.7099 14.0378 -9.29831 C.3 0.0 **** -0.106
115 C11790 11.9306 25.202 3.59103 C.ar 0.0 **** 0.0
116 C11726 11.52 -1.93793 2.07554 C.ar 0.0 **** -0.1268
117 C11792 12.7398 22.8093 3.89687 C.3 0.0 **** -0.106
118 C11721 11.4878 -7.52953 3.24049 C.3 0.0 **** -0.106
119 C11795 12.7223 26.9719 5.11247 C.ar 0.0 **** 0.052
120 N11741 14.4126 4.76961 2.45831 N.2 0.0 **** -0.481
121 C11744 17.4614 6.26222 3.91123 C.3 0.0 **** -0.106
122 H11877 8.75602 24.4271 1.00568 H 0.0 **** 0.053
123 H11831 16.1659 13.0345 -7.26216 H 0.0 **** 0.053
124 C11763 11.1119 16.5621 -0.136907 C.3 0.0 **** -0.106
125 C11737 15.5928 1.55674 3.95972 C.2 0.0 **** 0.042
126 O11802 16.6459 1.12609 4.72649 O.3 0.0 **** -0.452
127 O11828 13.6206 12.9781 -2.97094 O.3 0.0 **** -0.452
128 C11740 15.3962 5.53726 2.87004 C.2 0.0 **** 0.2405
129 C11808 5.22174 20.672 -5.71595 C.3 0.0 **** -0.159
130 H11850 12.4384 -8.08849 3.20556 H 0.0 **** 0.053
131 C11762 12.0085 16.9163 1.03466 C.2 0.0 **** 0.0
132 H11887 14.0861 23.9296 5.90092 H 0.0 **** 0.1268
133 H11869 10.7183 14.5455 1.50756 H 0.0 **** 0.053
134 H11883 11.3753 25.3683 1.52921 H 0.0 **** 0.053
135 H11900 14.6911 25.5642 7.21335 H 0.0 **** 0.41
136 C11731 14.573 0.665883 3.52211 C.2 0.0 **** 0.0
137 C11798 11.4879 28.9943 3.45812 C.3 0.0 **** -0.106
138 C11781 7.78682 24.3461 -1.59239 C.ar 0.0 **** 0.1137
139 C11746 16.4148 9.61526 2.29381 C.ar 0.0 **** 0.0
140 C11779 8.60227 23.4313 -0.87234 C.ar 0.0 **** 0.0
141 C11815 18.2952 14.2547 -3.49431 C.2 0.0 **** 0.367
142 C11785 7.69185 20.3845 -2.83031 C.ar 0.0 **** -0.1268
143 O11829 19.4195 14.5483 -2.99067 O.2 0.0 **** -0.419
144 H11839 18.7934 14.2412 -11.1731 H 0.0 **** 0.053
145 C11755 13.9132 13.7819 1.01192 C.2 0.0 **** 0.0
146 C11719 10.5996 -5.52162 2.2285 C.ar 0.0 **** 0.0
147 C11809 16.2539 13.3918 -0.469359 C.2 0.0 **** 0.0
148 C11788 6.17165 22.3656 -4.103 C.ar 0.0 **** -0.1268
149 C11783 6.99612 22.7258 -3.00779 C.ar 0.0 **** 0.2405
150 C11732 13.4946 1.20331 2.69581 C.2 0.0 **** 0.0
151 C11725 10.5345 -4.19546 1.89854 C.ar 0.0 **** -0.1268
152 H11868 11.2522 13.1819 0.538074 H 0.0 **** 0.053
153 H11851 9.73512 -3.80108 1.26859 H 0.0 **** 0.1268
154 H11847 9.27986 -6.57113 0.829623 H 0.0 **** 0.053
155 H11870 14.1232 17.9991 4.09563 H 0.0 **** 0.1268
156 H11903 5.81792 20.229 -6.52977 H 0.0 **** 0.053
157 H11846 9.95151 -8.81723 2.28523 H 0.0 **** 0.053
158 C11718 9.6716 -6.65403 1.85314 C.3 0.0 **** -0.106
159 H11866 11.8572 14.8775 -1.31193 H 0.0 **** 0.053
160 O11806 14.2632 26.3636 6.86264 O.3 0.0 **** -0.452
161 C11817 16.9024 13.9779 -5.50433 C.ar 0.0 **** 0.0
162 H11835 20.6808 15.6094 -8.10195 H 0.0 **** 0.053
163 C11787 6.09955 21.059 -4.55583 C.ar 0.0 **** 0.0
164 C11824 20.2123 14.0334 -9.52673 C.3 0.0 **** -0.106
165 H11872 10.0432 18.8416 0.793988 H 0.0 **** 0.053
166 H11849 11.015 -7.7504 4.21512 H 0.0 **** 0.053
167 O11830 14.6114 13.46 -5.2066 O.2 0.0 **** -0.419
168 H11884 10.0356 25.1119 2.60779 H 0.0 **** 0.053
169 C11818 15.7374 13.6722 -4.66124 C.2 0.0 **** 0.367
170 C11819 16.681 13.9728 -6.98327 C.3 0.0 **** -0.106
171 H11901 4.68344 21.5417 -6.11547 H 0.0 **** 0.053
172 H11886 13.7884 22.5263 3.68813 H 0.0 **** 0.053
173 C11811 14.8137 13.2007 -2.40916 C.2 0.0 **** 0.042
174 C11810 15.0226 13.0411 -1.0045 C.2 0.0 **** 0.0
175 C11729 13.5933 -2.94557 3.70107 C.ar 0.0 **** -0.1268
176 C11797 11.0926 27.5374 3.23834 C.3 0.0 **** -0.106
177 H11844 13.7737 13.1373 -3.98028 H 0.0 **** 0.41
178 H11865 10.0831 16.858 0.134499 H 0.0 **** 0.053
179 H11875 10.0786 20.5835 -1.30961 H 0.0 **** 0.053
180 H11854 15.3558 -1.13837 4.46752 H 0.0 **** 0.1268
181 H11863 17.3406 13.569 1.36462 H 0.0 **** 0.053
182 H11836 21.2048 14.01 -7.59026 H 0.0 **** 0.053
183 H11838 21.0703 14.341 -10.1437 H 0.0 **** 0.053
184 O11804 16.5946 14.4211 3.56279 O.3 0.0 **** -0.4365
185 C11768 11.9695 18.2489 1.48186 C.2 0.0 **** 0.0
186 C11820 17.923 14.1542 -7.8094 C.2 0.0 **** 0.0
187 H11885 12.4705 22.2071 4.78487 H 0.0 **** 0.053
188 C11799 11.6089 29.2708 4.95485 C.3 0.0 **** -0.086
@<TRIPOS>BOND
1 173 127 1
2 54 174 1
3 14 100 1
4 117 97 1
5 146 158 1
6 48 146 am
7 118 48 1
8 12 158 1
9 12 118 1
10 25 14 am
11 110 25 am
12 151 110 am
13 48 14 am
14 146 151 am
15 19 116 am
16 101 19 un
17 175 101 am
18 110 116 am
19 25 175 am
20 136 3 un
21 150 136 un
22 102 150 un
23 101 3 un
24 19 102 un
25 15 75 un
26 4 15 un
27 125 4 un
28 150 75 un
29 136 125 un
30 24 57 un
31 128 24 un
32 120 128 un
33 4 57 un
34 15 120 un
35 2 8 am
36 121 2 1
37 128 8 1
38 24 121 1
39 139 94 am
40 91 139 am
41 82 91 am
42 2 94 am
43 8 82 am
44 47 88 am
45 90 47 am
46 55 90 am
47 91 88 am
48 139 55 am
49 67 70 1
50 145 67 1
51 54 145 1
52 90 70 1
53 47 54 1
54 67 76 2
55 76 52 1
56 52 83 1
57 83 37 un
58 37 7 1
59 145 7 2
60 124 131 1
61 73 124 1
62 28 73 1
63 37 131 un
64 7 28 1
65 33 99 un
66 185 33 un
67 131 185 un
68 83 99 un
69 42 77 1
70 93 42 am
71 66 93 1
72 185 77 1
73 33 66 1
74 21 60 am
75 96 21 am
76 39 96 am
77 93 60 am
78 42 39 am
79 46 11 1
80 140 46 am
81 86 140 1
82 39 11 1
83 96 86 1
84 49 138 am
85 149 49 am
86 34 149 am
87 140 138 am
88 46 34 am
89 53 142 am
90 163 53 am
91 148 163 am
92 34 142 am
93 149 148 am
94 115 65 1
95 97 115 am
96 21 65 1
97 60 117 1
98 31 74 am
99 119 31 am
100 10 119 am
101 97 74 am
102 115 10 am
103 137 176 1
104 188 137 1
105 32 188 1
106 10 176 1
107 119 32 1
108 125 126 1
109 54 35 1
110 76 184 1
111 52 56 2
112 31 160 1
113 32 26 2
114 163 129 1
115 173 174 un
116 80 173 un
117 36 80 un
118 112 36 un
119 147 174 un
120 147 112 un
121 6 141 1
122 161 6 am
123 169 161 1
124 36 141 1
125 80 169 1
126 186 170 1
127 69 186 2
128 72 69 1
129 161 170 1
130 6 72 1
131 164 79 1
132 64 164 1
133 114 64 1
134 69 79 1
135 186 114 1
136 112 68 1
137 141 143 2
138 169 167 2
139 170 123 1
140 170 43 1
141 72 18 1
142 72 9 1
143 79 162 1
144 79 182 1
145 164 44 1
146 164 183 1
147 64 144 1
148 64 111 1
149 114 22 1
150 114 17 1
151 68 58 1
152 127 177 1
153 70 147 1
154 12 89 1
155 12 157 1
156 158 154 1
157 158 16 1
158 118 166 1
159 118 130 1
160 151 153 1
161 116 63 1
162 175 78 1
163 3 180 1
164 102 27 1
165 57 104 1
166 121 81 1
167 121 98 1
168 94 51 1
169 82 85 1
170 88 109 1
171 55 29 1
172 70 181 1
173 124 107 1
174 124 178 1
175 73 159 1
176 73 92 1
177 28 152 1
178 28 133 1
179 99 155 1
180 77 41 1
181 77 165 1
182 66 95 1
183 66 105 1
184 11 179 1
185 11 50 1
186 86 122 1
187 86 84 1
188 138 113 1
189 142 59 1
190 53 30 1
191 148 38 1
192 65 134 1
193 65 168 1
194 117 187 1
195 117 172 1
196 74 132 1
197 176 61 1
198 176 103 1
199 137 71 1
200 137 20 1
201 188 62 1
202 188 106 1
203 100 45 1
204 126 1 1
205 35 40 1
206 35 5 1
207 35 13 1
208 184 108 1
209 160 135 1
210 129 171 1
211 129 87 1
212 129 156 1
213 75 23 1
@<TRIPOS>MOLECULE
Sketch 4
130 142
SMALL
USER_CHARGES


@<TRIPOS>ATOM
1 C296 63.9673 25.0938 26.77 C.3 0.0 **** -0.106
2 H331 60.9803 33.9203 27.6729 H 0.0 **** 0.053
3 H348 65.0554 20.3487 25.3008 H 0.0 **** 0.053
4 C286 67.0383 34.3638 32.3752 C.3 0.0 **** -0.106
5 C301 67.2831 23.1993 26.8274 C.ar 0.0 **** 0.0
6 H353 69.5163 20.6147 27.253 H 0.0 **** 0.053
7 C315 55.2725 32.373 28.5497 C.3 0.0 **** -0.159
8 C297 65.4222 24.7331 26.9102 C.ar 0.0 **** 0.0
9 H354 70.0155 26.0793 27.7348 H 0.0 **** 0.1268
10 C312 72.2223 23.5037 28.2554 C.ar 0.0 **** 0.0
11 C262 57.4105 36.4966 28.1605 C.ar 0.0 **** 0.0
12 H333 59.3407 37.8635 29.5178 H 0.0 **** 0.053
13 C316 55.0045 35.8751 27.7103 C.3 0.0 **** -0.159
14 C303 65.0118 22.3761 26.0634 C.3 0.0 **** -0.106
15 C300 68.0958 24.2392 27.3272 C.ar 0.0 **** 0.2405
16 C272 63.2942 37.3724 30.1614 C.ar 0.0 **** 0.0
17 H384 62.7775 30.4053 27.5249 H 0.0 **** 0.41
18 C280 66.7228 32.2595 31.15 C.2 0.0 **** 0.0
19 C328 71.8104 20.9943 28.2482 C.3 0.0 **** -0.159
20 H377 68.086 33.8961 35.6529 H 0.0 **** 0.053
21 C313 71.3388 22.4191 28.0711 C.ar 0.0 **** 0.0
22 H363 54.749 36.1025 26.6604 H 0.0 **** 0.053
23 C284 67.0671 32.1166 33.5987 C.ar 0.0 **** -0.053
24 C306 67.9285 21.8676 26.5216 C.3 0.0 **** -0.053
25 H386 72.8138 20.9452 28.6866 H 0.0 **** 0.053
26 C283 67.6547 31.7448 32.2225 C.3 0.0 **** -0.106
27 O327 67.6578 27.6319 29.1843 O.2 0.0 **** -0.419
28 C323 67.8061 31.3913 34.7258 C.3 0.0 **** -0.159
29 C261 56.4631 35.4993 27.8641 C.ar 0.0 **** 0.0
30 C265 58.2077 33.8009 27.9626 C.ar 0.0 **** 0.0
31 H345 64.3534 22.035 26.8826 H 0.0 **** 0.053
32 H340 66.6185 35.3651 32.5105 H 0.0 **** 0.053
33 H339 68.1053 34.488 32.1063 H 0.0 **** 0.053
34 H371 61.1161 39.443 30.6632 H 0.0 **** 0.053
35 H374 63.524 39.2238 31.2563 H 0.0 **** 0.053
36 C314 55.8547 33.0996 27.3269 C.3 0.0 **** -0.106
37 C322 68.1257 34.2533 34.6146 C.3 0.0 **** -0.159
38 C304 65.7608 21.175 25.4758 C.3 0.0 **** -0.106
39 H346 64.3407 22.7998 25.3003 H 0.0 **** 0.053
40 H356 56.3181 32.3667 26.6501 H 0.0 **** 0.053
41 H344 63.4622 24.9541 27.7445 H 0.0 **** 0.053
42 H390 74.1884 22.676 27.8518 H 0.0 **** 0.053
43 H343 63.4563 24.4347 26.0573 H 0.0 **** 0.053
44 H373 64.616 37.9297 31.7758 H 0.0 **** 0.053
45 H388 73.7837 22.7703 29.5725 H 0.0 **** 0.053
46 H358 54.7985 33.0923 29.235 H 0.0 **** 0.053
47 H355 72.4203 25.6482 28.2731 H 0.0 **** 0.1268
48 H382 68.8726 31.661 34.7433 H 0.0 **** 0.053
49 C320 64.1366 38.387 30.9022 C.3 0.0 **** -0.159
50 H366 57.9091 31.667 27.5905 H 0.0 **** 0.053
51 H378 68.0532 35.3518 34.6281 H 0.0 **** 0.053
52 H385 71.1286 20.4278 28.9006 H 0.0 **** 0.053
53 H383 67.995 28.8047 29.87 H 0.0 **** 0.41
54 C278 64.9918 35.5141 30.4037 C.ar 0.0 **** 0.042
55 H350 66.4971 20.5159 27.4024 H 0.0 **** 0.053
56 H376 66.8393 35.9733 30.6125 H 0.0 **** 0.41
57 H359 56.0691 31.8613 29.1101 H 0.0 **** 0.053
58 H365 59.5255 32.2731 27.1646 H 0.0 **** 0.053
59 H389 74.1993 24.2529 28.6814 H 0.0 **** 0.053
60 C311 71.7339 24.8128 28.1183 C.ar 0.0 **** -0.1268
61 C266 56.8688 34.1546 27.7163 C.ar 0.0 **** 0.0
62 H370 62.4604 39.8716 29.5867 H 0.0 **** 0.053
63 C309 69.5228 23.9917 27.6053 C.ar 0.0 **** 0.0
64 C285 67.0036 33.6577 33.7583 C.ar 0.0 **** -0.053
65 H381 67.3795 31.6381 35.7098 H 0.0 **** 0.053
66 H380 67.7361 30.3022 34.587 H 0.0 **** 0.053
67 C292 65.8031 27.0499 27.7606 C.ar 0.0 **** 0.0
68 H347 66.1835 21.4517 24.4954 H 0.0 **** 0.053
69 C298 66.3208 25.7117 27.4023 C.ar 0.0 **** 0.2405
70 C270 59.7571 37.2136 28.7295 C.3 0.0 **** -0.106
71 C269 61.1297 36.7626 29.1568 C.ar 0.0 **** 0.0
72 C302 65.9237 23.4581 26.6007 C.ar 0.0 **** 0.0
73 C279 66.3544 33.5928 31.27 C.2 0.0 **** 0.0
74 H349 67.389 19.8304 26.0287 H 0.0 **** 0.053
75 H338 66.0426 33.9114 34.2328 H 0.0 **** 0.053
76 C268 61.4919 35.4359 29.0894 C.ar 0.0 **** 0.0
77 H379 69.1122 33.9886 34.2013 H 0.0 **** 0.053
78 C310 70.4031 25.0632 27.8078 C.ar 0.0 **** -0.1268
79 H337 66.0288 31.7459 33.5921 H 0.0 **** 0.053
80 C290 66.6629 30.1398 29.8043 C.ar 0.0 **** 0.042
81 C289 65.9711 29.2568 28.9489 C.ar 0.0 **** 0.052
82 H362 54.3414 35.0638 28.0377 H 0.0 **** 0.053
83 H335 67.7899 30.6647 32.1611 H 0.0 **** 0.053
84 C274 62.7977 35.0291 29.5033 C.ar 0.0 **** 0.0
85 H330 60.5449 33.5482 29.3142 H 0.0 **** 0.053
86 H341 62.7667 26.8614 26.299 H 0.0 **** 0.053
87 C271 62.0456 37.7418 29.6716 C.ar 0.0 **** 0.0
88 O326 62.9051 29.1042 26.984 O.2 0.0 **** -0.419
89 H357 55.0387 33.5552 26.7492 H 0.0 **** 0.053
90 H375 64.9473 38.7931 30.277 H 0.0 **** 0.053
91 C282 64.8858 31.855 29.5499 C.ar 0.0 **** 0.0
92 H372 60.8928 39.4137 28.9085 H 0.0 **** 0.053
93 H342 64.2157 26.6667 25.3051 H 0.0 **** 0.053
94 H369 56.2024 38.1713 27.494 H 0.0 **** 0.053
95 H368 56.5849 38.2061 29.2233 H 0.0 **** 0.053
96 O325 63.0373 31.2575 28.1059 O.3 0.0 **** -0.452
97 C317 58.6937 32.3729 27.8812 C.3 0.0 **** -0.159
98 C277 65.2839 34.1295 30.4816 C.ar 0.0 **** 0.0
99 H336 68.6594 32.1955 32.1213 H 0.0 **** 0.053
100 O324 67.8664 29.7971 30.2468 O.3 0.0 **** -0.452
101 C288 64.7319 29.6567 28.3969 C.ar 0.0 **** 0.052
102 C275 63.1934 33.6942 29.3287 C.ar 0.0 **** -0.1268
103 C287 64.195 30.936 28.6771 C.ar 0.0 **** 0.042
104 C267 60.5536 34.3784 28.5865 C.3 0.0 **** -0.106
105 C276 64.4178 33.2081 29.7839 C.ar 0.0 **** 0.0
106 C329 73.6737 23.2913 28.6071 C.3 0.0 **** -0.159
107 H334 62.5335 33.0165 28.8122 H 0.0 **** 0.1268
108 H360 54.5195 31.6259 28.2544 H 0.0 **** 0.053
109 C318 56.9879 37.947 28.2281 C.3 0.0 **** -0.159
110 H387 71.8428 20.4607 27.283 H 0.0 **** 0.053
111 N299 67.6269 25.4662 27.5779 N.ar 0.0 **** -0.481
112 H332 59.8623 37.8853 27.8549 H 0.0 **** 0.053
113 C273 63.7119 36.0019 30.0414 C.ar 0.0 **** 0.0
114 C308 69.9967 22.669 27.7294 C.ar 0.0 **** 0.0
115 C293 64.5873 27.4546 27.246 C.ar 0.0 **** 0.0
116 O321 65.9873 36.4372 30.6339 O.3 0.0 **** -0.452
117 C263 58.7529 36.1384 28.3945 C.ar 0.0 **** 0.0
118 C305 66.8991 20.7446 26.3996 C.3 0.0 **** -0.106
119 C319 61.6094 39.1896 29.7082 C.3 0.0 **** -0.159
120 H367 57.8253 38.6281 28.0319 H 0.0 **** 0.053
121 C281 66.094 31.4199 30.1694 C.ar 0.0 **** 0.0
122 H364 59.0904 32.0406 28.8548 H 0.0 **** 0.053
123 H351 68.4361 21.9737 25.5416 H 0.0 **** 0.053
124 C307 69.0094 21.5419 27.5541 C.3 0.0 **** -0.106
125 C291 66.5485 27.9591 28.6561 C.2 0.0 **** 0.367
126 C295 63.8177 26.5476 26.3304 C.3 0.0 **** -0.106
127 C294 64.0186 28.765 27.5248 C.2 0.0 **** 0.367
128 H352 68.5197 21.3284 28.5242 H 0.0 **** 0.053
129 C264 59.1392 34.7986 28.3135 C.ar 0.0 **** 0.0
130 H361 54.7534 36.7619 28.3059 H 0.0 **** 0.053
@<TRIPOS>BOND
1 70 71 1
2 80 81 am
3 60 78 am
4 117 11 am
5 129 117 am
6 30 129 am
7 61 30 am
8 29 11 am
9 29 61 am
10 76 104 1
11 71 76 am
12 129 104 1
13 117 70 1
14 16 87 am
15 113 16 am
16 84 113 am
17 71 87 am
18 76 84 am
19 105 102 am
20 98 105 am
21 54 98 am
22 84 102 am
23 113 54 am
24 18 73 1
25 121 18 1
26 91 121 am
27 98 73 1
28 105 91 am
29 23 26 1
30 64 23 am
31 4 64 1
32 18 26 1
33 73 4 1
34 101 103 am
35 81 101 am
36 91 103 am
37 121 80 am
38 67 125 1
39 115 67 am
40 127 115 1
41 81 125 1
42 101 127 1
43 1 126 1
44 8 1 1
45 69 8 am
46 115 126 1
47 67 69 am
48 15 111 am
49 5 15 am
50 72 5 am
51 69 111 am
52 8 72 am
53 38 14 1
54 118 38 1
55 24 118 1
56 72 14 1
57 5 24 1
58 114 124 1
59 63 114 am
60 15 63 am
61 24 124 1
62 10 60 am
63 21 10 am
64 63 78 am
65 114 21 am
66 61 36 1
67 36 7 1
68 29 13 1
69 30 97 1
70 11 109 1
71 87 119 1
72 16 49 1
73 54 116 1
74 64 37 1
75 23 28 1
76 80 100 1
77 103 96 1
78 127 88 2
79 125 27 2
80 21 19 1
81 10 106 1
82 104 85 1
83 104 2 1
84 70 112 1
85 70 12 1
86 102 107 1
87 26 83 1
88 26 99 1
89 23 79 1
90 64 75 1
91 4 33 1
92 4 32 1
93 126 86 1
94 126 93 1
95 1 43 1
96 1 41 1
97 14 31 1
98 14 39 1
99 38 68 1
100 38 3 1
101 118 74 1
102 118 55 1
103 24 123 1
104 124 128 1
105 124 6 1
106 78 9 1
107 60 47 1
108 36 40 1
109 36 89 1
110 7 46 1
111 7 57 1
112 7 108 1
113 13 130 1
114 13 82 1
115 13 22 1
116 97 122 1
117 97 58 1
118 97 50 1
119 109 120 1
120 109 95 1
121 109 94 1
122 119 62 1
123 119 34 1
124 119 92 1
125 49 44 1
126 49 35 1
127 49 90 1
128 116 56 1
129 37 20 1
130 37 51 1
131 37 77 1
132 28 66 1
133 28 65 1
134 28 48 1
135 100 53 1
136 96 17 1
137 19 52 1
138 19 25 1
139 19 110 1
140 106 45 1
141 106 59 1
142 106 42 1
@<TRIPOS>MOLECULE
Sketch 4
250 292
SMALL
USER_CHARGES


@<TRIPOS>ATOM
1 C15007 75.9293 5.11006 23.47 C.2 0.0 **** 0.0265
2 H15103 70.6938 8.71331 16.8374 H 0.0 **** 0.053
3 H15152 82.4122 9.30595 16.1774 H 0.0 **** 0.053
4 H15057 52.8063 1.64751 28.4879 H 0.0 **** 0.053
5 H15137 55.0663 10.5982 23.4329 H 0.0 **** 0.053
6 C14943 55.6682 6.59354 19.9719 C.2 0.0 **** 0.0
7 H15085 57.2477 6.60987 22.7661 H 0.0 **** 0.053
8 H15087 57.7251 8.38287 20.787 H 0.0 **** 0.053
9 C14973 71.8116 5.53345 22.5841 C.2 0.0 **** 0.0
10 C14908 53.3459 2.54819 28.1503 C.3 0.0 **** -0.053
11 C15001 73.6378 4.53754 23.9009 C.2 0.0 **** 0.042
12 H15065 51.1567 3.86232 25.8994 H 0.0 **** 0.053
13 C14980 69.414 11.4381 17.4153 C.3 0.0 **** -0.106
14 O14915 53.9194 0.987691 24.7929 O.3 0.0 **** -0.32
15 C15048 82.3104 10.2863 16.6711 C.3 0.0 **** -0.106
16 H15151 81.9468 11.0008 15.9171 H 0.0 **** 0.053
17 C14977 68.5885 9.39965 18.5936 C.3 0.0 **** -0.053
18 C14907 52.3134 3.60413 27.723 C.3 0.0 **** -0.053
19 C15044 80.8256 8.60148 19.7339 C.2 0.0 **** 0.0
20 C14950 58.5994 4.81493 22.0453 C.2 0.0 **** -0.1268
21 C15022 58.2186 9.1151 23.3823 C.3 0.0 **** -0.159
22 C14961 65.7869 6.87094 20.5021 C.2 0.0 **** -0.1268
23 C15023 56.167 10.5719 23.4006 C.3 0.0 **** -0.159
24 H15059 53.8132 2.67792 30.2985 H 0.0 **** 0.053
25 C15020 78.8801 7.27221 21.3089 C.2 0.0 **** 0.0
26 C14947 56.6788 8.72689 20.833 C.3 0.0 **** -0.106
27 C14924 59.7159 3.1754 24.0283 C.2 0.0 **** 0.0
28 C14994 66.6658 2.67881 28.5165 C.3 0.0 **** -0.106
29 H15105 72.6684 8.10623 18.0548 H 0.0 **** 0.053
30 H15081 53.2507 5.2172 19.7521 H 0.0 **** 0.053
31 H15148 79.1573 9.82488 19.0788 H 0.0 **** 0.1268
32 C15036 82.9849 6.26426 21.7408 C.2 0.0 **** 0.0
33 C14974 70.8754 4.77289 23.3289 C.2 0.0 **** 0.0
34 C14920 58.083 1.40953 25.5795 C.2 0.0 **** 0.0
35 C15045 83.1681 8.96136 19.0808 C.2 0.0 **** 0.052
36 C14942 55.1511 5.73795 18.8415 C.3 0.0 **** -0.106
37 C14962 68.1265 7.28241 19.7858 C.2 0.0 **** 0.0
38 N14986 71.8525 11.8005 17.4999 N.3 0.0 **** -0.727
39 C14944 55.914 6.01519 21.1715 C.2 0.0 **** 0.0
40 C15005 72.3606 7.22039 20.9336 C.2 0.0 **** -0.1268
41 H15133 56.3347 8.62939 24.2988 H 0.0 **** 0.053
42 C14978 67.89 8.03688 18.4813 C.3 0.0 **** 0.107
43 C14969 66.2036 3.57232 24.405 C.2 0.0 **** 0.0
44 H15075 57.8113 0.432585 28.4468 H 0.0 **** 0.053
45 C14965 69.0387 5.73306 21.9854 C.2 0.0 **** 0.0
46 H15063 51.4629 1.69188 24.9111 H 0.0 **** 0.053
47 C14946 56.0853 8.34296 22.193 C.3 0.0 **** -0.053
48 C15034 84.7241 4.92347 22.8508 C.2 0.0 **** -0.1268
49 C14911 54.2441 2.13606 26.9649 C.3 0.0 **** -0.053
50 C15043 79.4603 8.9893 19.704 C.2 0.0 **** -0.1268
51 C15049 83.6503 10.7205 17.2414 C.3 0.0 **** -0.086
52 H15113 66.8272 3.61361 27.9604 H 0.0 **** 0.053
53 H15144 84.0711 3.52371 24.3376 H 0.0 **** 0.1268
54 H15146 85.7086 8.07136 19.6117 H 0.0 **** 0.1268
55 C14971 68.5478 4.16965 23.8391 C.2 0.0 **** 0.0
56 C15027 80.0522 4.25531 24.1039 C.2 0.0 **** 0.0
57 H15062 51.8526 0.928572 26.4598 H 0.0 **** 0.053
58 H15064 50.4104 2.75782 27.056 H 0.0 **** 0.053
59 H15070 55.6731 3.01482 24.9653 H 0.0 **** 0.053
60 C14959 67.6393 5.8438 21.7311 C.2 0.0 **** 0.0
61 C15013 76.5911 9.90727 19.6392 C.3 0.0 **** -0.106
62 H15084 55.5625 6.50272 23.2168 H 0.0 **** 0.053
63 C14919 57.2891 0.588864 26.3648 C.2 0.0 **** 0.0
64 C14991 67.699 0.792831 27.1526 C.3 0.0 **** 0.107
65 C14983 72.4679 9.18362 17.9791 C.3 0.0 **** -0.106
66 C15016 77.8797 6.54573 22.0429 C.2 0.0 **** 0.0
67 S14953 60.8641 6.11441 21.485 S.2 0.0 **** 0.024
68 C14934 55.6478 2.62975 22.9003 C.2 0.0 **** 0.0
69 C14998 71.3465 3.90787 24.3713 C.2 0.0 **** 0.0
70 C14992 66.4258 1.54888 27.4936 C.3 0.0 **** 0.107
71 H15074 59.3921 -1.23373 26.4128 H 0.0 **** 0.053
72 H15073 59.7651 -1.05782 28.1422 H 0.0 **** 0.053
73 H15128 77.3285 10.7104 19.4993 H 0.0 **** 0.053
74 C15010 76.1449 7.64498 20.6258 C.3 0.0 **** -0.053
75 H15139 56.5512 11.1168 24.2762 H 0.0 **** 0.053
76 H15131 73.4206 9.77266 21.0905 H 0.0 **** 0.053
77 C14936 57.7162 3.93104 22.7358 C.2 0.0 **** 0.0
78 H15095 70.445 9.74498 19.6889 H 0.0 **** 0.053
79 C14963 69.4721 7.1802 20.0843 C.2 0.0 **** 0.042
80 C14939 54.3466 2.53838 20.782 C.3 0.0 **** -0.106
81 C14966 64.7873 3.71894 24.1422 C.2 0.0 **** 0.0
82 H15068 55.4329 0.80127 28.1909 H 0.0 **** 0.053
83 C14914 51.375 3.05523 26.618 C.3 0.0 **** -0.106
84 C15025 77.711 3.85385 24.6875 C.2 0.0 **** -0.1268
85 O14993 65.8565 2.06059 26.2728 O.3 0.0 **** -0.202
86 H15094 64.0535 2.32949 25.6443 H 0.0 **** 0.1268
87 H15140 66.159 7.40022 17.8455 H 0.0 **** 0.41
88 H15076 57.2655 -1.0741 27.7105 H 0.0 **** 0.053
89 H15122 73.1031 3.12971 25.416 H 0.0 **** 0.1268
90 H15058 55.2371 2.81226 29.2209 H 0.0 **** 0.053
91 H15123 72.0526 7.92888 20.1809 H 0.0 **** 0.1268
92 C15015 74.4912 9.51968 21.0587 C.3 0.0 **** -0.106
93 C15046 81.8037 9.22454 18.8982 C.2 0.0 **** 0.0
94 C15032 81.4107 3.95314 24.2433 C.2 0.0 **** -0.1268
95 H15111 67.4763 0.0423309 26.3758 H 0.0 **** 0.053
96 C14972 71.3821 6.41481 21.5474 C.2 0.0 **** 0.0
97 O15006 74.9885 4.40508 24.1852 O.3 0.0 **** -0.0685
98 C15000 73.2006 5.43457 22.8777 C.2 0.0 **** 0.0
99 C14917 55.8448 0.333802 26.0859 C.3 0.0 **** -0.053
100 C14999 70.4137 3.18593 25.1157 C.2 0.0 **** -0.1268
101 C14964 69.9821 6.45779 21.2043 C.2 0.0 **** 0.0
102 H15067 55.7352 -0.766227 26.0303 H 0.0 **** 0.053
103 C14931 62.4523 3.17604 24.5746 C.2 0.0 **** 0.232
104 C15041 84.9501 7.56713 20.2009 C.2 0.0 **** -0.1268
105 H15109 73.9321 11.8884 17.6114 H 0.0 **** 0.053
106 H15136 58.6303 8.09746 23.3031 H 0.0 **** 0.053
107 C14985 73.1708 11.3957 16.9884 C.3 0.0 **** 0.081
108 C15004 73.7081 7.13776 21.233 C.2 0.0 **** 0.0
109 H15080 53.8425 4.00292 18.6043 H 0.0 **** 0.053
110 C14913 51.9763 1.85129 25.8702 C.3 0.0 **** -0.106
111 H15135 58.6125 9.70118 22.5376 H 0.0 **** 0.053
112 C14923 58.2995 3.06999 23.7684 C.2 0.0 **** 0.0
113 H15053 55.1957 4.85863 27.7846 H 0.0 **** 0.053
114 C14995 67.8678 2.39937 29.4445 C.3 0.0 **** -0.106
115 C15029 80.6299 5.92052 22.3772 C.2 0.0 **** 0.0
116 C14979 68.369 10.3179 17.3851 C.3 0.0 **** -0.106
117 C14922 56.0263 2.20214 24.2986 C.3 0.0 **** -0.053
118 H15055 53.4315 4.77402 26.2619 H 0.0 **** 0.053
119 O14975 70.3466 7.74328 19.1801 O.3 0.0 **** -0.202
120 H15117 67.0797 0.503656 30.1136 H 0.0 **** 0.053
121 H15097 68.417 7.47167 17.6849 H 0.0 **** 0.053
122 C14958 66.697 5.14704 22.5484 C.2 0.0 **** 0.0
123 C14921 57.5241 2.19312 24.5067 C.2 0.0 **** 0.0
124 C15019 78.5102 8.37324 20.4873 C.2 0.0 **** 0.0
125 O15024 66.5423 8.26338 18.0653 O.3 0.0 **** -0.57
126 C15040 83.5913 7.95166 20.0293 C.2 0.0 **** 0.0
127 C14976 70.0957 9.13502 18.8348 C.3 0.0 **** 0.107
128 H15106 73.1901 9.45429 15.9663 H 0.0 **** 0.053
129 C14933 60.5475 4.05522 23.3249 C.2 0.0 **** 0.0
130 C15014 75.2561 10.5026 20.1522 C.3 0.0 **** -0.106
131 H15134 58.6053 9.56608 24.3085 H 0.0 **** 0.053
132 C14954 63.4728 6.38714 21.0822 C.2 0.0 **** -0.1268
133 C14987 66.7312 2.73177 25.448 C.2 0.0 **** 0.042
134 C14955 64.8636 6.19756 21.2958 C.2 0.0 **** 0.0
135 C15031 82.393 4.59954 23.4759 C.2 0.0 **** 0.0
136 C15012 77.0933 8.85876 20.6251 C.3 0.0 **** -0.053
137 H15082 54.6762 6.36958 18.0747 H 0.0 **** 0.053
138 H15099 67.3451 10.7121 17.4076 H 0.0 **** 0.053
139 C14997 68.3511 0.152412 28.3797 C.3 0.0 **** -0.106
140 H15083 55.9929 5.21224 18.3509 H 0.0 **** 0.053
141 C14909 54.1703 3.09289 29.3455 C.3 0.0 **** 0.054
142 H15086 55.0048 8.57626 22.1545 H 0.0 **** 0.053
143 C14948 55.8812 8.0566 19.7145 C.3 0.0 **** -0.106
144 H15115 67.7353 2.93746 30.3946 H 0.0 **** 0.053
145 H15066 55.5528 0.150916 23.9515 H 0.0 **** 0.053
146 H15052 54.3167 6.24937 28.4758 H 0.0 **** 0.053
147 H15120 69.4372 0.147927 28.2001 H 0.0 **** 0.053
148 C15037 82.6046 7.27187 20.8034 C.2 0.0 **** 0.0
149 C14952 62.5393 5.70528 21.8202 C.2 0.0 **** -0.012
150 H15054 52.3433 5.72531 27.2834 H 0.0 **** 0.053
151 H15124 74.3889 8.10403 19.4806 H 0.0 **** 0.053
152 H15114 65.7453 2.80771 29.1045 H 0.0 **** 0.053
153 C15018 77.2844 4.83514 23.734 C.2 0.0 **** 0.0
154 H15118 68.8055 0.694267 30.4361 H 0.0 **** 0.053
155 C14981 70.7987 10.8757 17.0803 C.3 0.0 **** 0.134
156 O14910 54.072 4.51387 29.5003 O.3 0.0 **** -0.32
157 H15090 54.9017 8.55904 19.5934 H 0.0 **** 0.053
158 H15110 71.873 11.8451 18.5195 H 0.0 **** 0.353
159 H15121 70.756 2.51784 25.9044 H 0.0 **** 0.1268
160 C15002 72.7486 3.79908 24.6315 C.2 0.0 **** -0.1268
161 C14967 63.7919 3.01972 24.8558 C.2 0.0 **** -0.1268
162 H15077 54.782 1.86296 20.0128 H 0.0 **** 0.053
163 C15030 81.999 5.59724 22.5266 C.2 0.0 **** 0.0
164 C14956 65.3047 5.30604 22.3214 C.2 0.0 **** 0.0
165 C14918 54.8917 0.780281 27.2333 C.3 0.0 **** -0.106
166 H15107 74.4495 9.62517 17.197 H 0.0 **** 0.053
167 H15078 53.2554 2.46422 20.607 H 0.0 **** 0.053
168 H15061 53.5887 3.01292 25.0653 H 0.0 **** 0.053
169 H15093 65.4164 7.58069 19.7691 H 0.0 **** 0.1268
170 C14960 67.1691 6.68283 20.657 C.2 0.0 **** 0.0
171 C14937 55.7103 4.55651 21.3255 C.2 0.0 **** 0.0
172 H15130 75.4516 11.4343 20.705 H 0.0 **** 0.053
173 H15147 86.3642 6.31302 21.2072 H 0.0 **** 0.1268
174 C14905 54.2387 5.17856 28.2432 C.3 0.0 **** 0.054
175 H15153 83.5548 11.7282 17.6865 H 0.0 **** 0.053
176 O15051 85.3571 9.86236 18.6359 O.2 0.0 **** -0.419
177 C14926 59.5056 1.51642 25.839 C.2 0.0 **** 0.0
178 H15079 54.1503 1.16891 22.521 H 0.0 **** 0.1268
179 C15028 79.6499 5.25578 23.1611 C.2 0.0 **** 0.0
180 H15149 80.35 9.80447 17.437 H 0.0 **** 0.053
181 H15119 68.0327 -0.898794 28.4438 H 0.0 **** 0.053
182 C14951 62.9387 4.77225 22.843 C.2 0.0 **** 0.0
183 C15008 75.5455 6.04001 22.4886 C.2 0.0 **** 0.0
184 O14930 61.6068 2.42518 25.3547 O.3 0.0 **** -0.464
185 C15011 76.5171 6.74956 21.7776 C.2 0.0 **** 0.0
186 C14941 54.1649 4.70334 19.3913 C.3 0.0 **** -0.106
187 C15003 74.1442 6.21359 22.1914 C.2 0.0 **** 0.0
188 C15039 80.2417 6.9301 21.4411 C.2 0.0 **** 0.0
189 H15089 56.3923 8.17642 18.7418 H 0.0 **** 0.053
190 C14996 68.0213 0.894372 29.6912 C.3 0.0 **** -0.106
191 H15112 65.6742 0.836417 27.8623 H 0.0 **** 0.053
192 C14935 56.3805 3.77249 22.3612 C.2 0.0 **** 0.0
193 H15125 76.3733 7.0692 19.7068 H 0.0 **** 0.053
194 C14932 61.9696 4.03726 23.5725 C.2 0.0 **** 0.0
195 H15142 79.3548 2.83035 25.5897 H 0.0 **** 0.1268
196 C15033 83.7808 4.28612 23.6124 C.2 0.0 **** -0.1268
197 H15060 55.044 2.88827 26.8737 H 0.0 **** 0.053
198 C14940 54.6949 2.03481 22.1483 C.2 0.0 **** -0.1268
199 H15116 68.788 2.78043 28.9775 H 0.0 **** 0.053
200 H15056 51.7145 3.86121 28.6088 H 0.0 **** 0.053
201 C15017 78.27 5.55726 22.9903 C.2 0.0 **** 0.0
202 H15141 76.9542 3.32102 25.263 H 0.0 **** 0.1268
203 C14938 54.7873 3.94296 20.5288 C.2 0.0 **** 0.0
204 H15069 54.0848 0.037778 27.3365 H 0.0 **** 0.053
205 H15101 69.1745 12.2547 16.7205 H 0.0 **** 0.053
206 H15102 70.8779 10.81 15.9817 H 0.0 **** 0.053
207 C14949 59.9397 4.89488 22.3336 C.2 0.0 **** -0.012
208 C14906 53.0554 4.8859 27.2912 C.3 0.0 **** -0.106
209 H15145 85.7821 4.67465 22.9544 H 0.0 **** 0.1268
210 C15021 56.6845 9.13002 23.3774 C.3 0.0 **** -0.053
211 H15126 77.0403 9.30376 21.6392 H 0.0 **** 0.053
212 C14982 70.9895 9.422 17.6295 C.3 0.0 **** -0.053
213 C14928 59.3374 -0.541966 27.2689 C.3 0.0 **** -0.106
214 H15108 73.2838 11.7988 15.9678 H 0.0 **** 0.053
215 C14912 53.46 2.06538 25.6234 C.3 0.0 **** 0.107
216 C14929 57.8734 -0.173374 27.5206 C.3 0.0 **** -0.106
217 H15143 81.7162 3.18896 24.9614 H 0.0 **** 0.1268
218 C15050 84.1595 9.80983 18.3518 C.2 0.0 **** 0.347
219 H15100 69.4392 11.8825 18.4268 H 0.0 **** 0.053
220 C15009 74.6627 8.07812 20.5464 C.3 0.0 **** -0.053
221 H15091 58.1966 5.42036 21.2337 H 0.0 **** 0.1268
222 H15132 74.8536 9.57414 22.0975 H 0.0 **** 0.053
223 C14989 69.0385 3.31183 24.8698 C.2 0.0 **** 0.0
224 C14957 64.3451 4.60347 23.1012 C.2 0.0 **** 0.0
225 H15096 68.1742 9.90001 19.4833 H 0.0 **** 0.053
226 H15104 72.6658 9.60769 18.9786 H 0.0 **** 0.053
227 H15071 61.1785 0.474472 26.6914 H 0.0 **** 0.053
228 C14968 67.1448 4.28612 23.6042 C.2 0.0 **** 0.0
229 C15026 79.0393 3.58255 24.8645 C.2 0.0 **** -0.1268
230 H15127 76.4506 9.42557 18.6566 H 0.0 **** 0.053
231 C14927 60.1391 0.720935 26.952 C.3 0.0 **** -0.106
232 C15047 81.3155 10.1649 17.8189 C.3 0.0 **** -0.106
233 C14916 55.3529 0.892619 24.7388 C.3 0.0 **** 0.107
234 O14990 68.6289 1.74589 26.5936 O.3 0.0 **** -0.202
235 H15154 84.4475 10.7849 16.4872 H 0.0 **** 0.053
236 H15150 81.1263 11.1656 18.2516 H 0.0 **** 0.053
237 H15092 63.1588 7.08635 20.3039 H 0.0 **** 0.1268
238 C15035 84.3544 5.92349 21.9002 C.2 0.0 **** 0.0
239 H15072 60.193 1.35016 27.8606 H 0.0 **** 0.053
240 H15129 74.6248 10.7683 19.2925 H 0.0 **** 0.053
241 H15088 56.6865 9.81948 20.699 H 0.0 **** 0.053
242 H15098 68.4647 9.73884 16.4506 H 0.0 **** 0.053
243 C14984 73.3967 9.8577 16.9706 C.3 0.0 **** -0.106
244 C14970 69.4868 4.89191 23.0576 C.2 0.0 **** 0.0
245 C14925 60.2572 2.35766 25.0663 C.2 0.0 **** 0.232
246 C14988 68.0961 2.58228 25.6399 C.2 0.0 **** 0.042
247 C15038 81.227 7.60272 20.6632 C.2 0.0 **** 0.0
248 C15042 85.3125 6.58805 21.1023 C.2 0.0 **** -0.1268
249 H15138 56.4925 11.118 22.5008 H 0.0 **** 0.053
250 C14945 56.2328 6.83164 22.4026 C.3 0.0 **** -0.106
@<TRIPOS>BOND
1 107 214 1
2 18 208 1
3 10 18 1
4 141 10 1
5 156 141 1
6 174 208 1
7 174 156 1
8 215 49 1
9 110 215 1
10 83 110 1
11 10 49 1
12 18 83 1
13 233 14 1
14 99 233 1
15 165 99 1
16 215 14 1
17 49 165 1
18 34 63 un
19 123 34 un
20 117 123 un
21 99 63 1
22 233 117 1
23 27 112 1
24 245 27 un
25 177 245 un
26 123 112 un
27 34 177 un
28 213 231 1
29 216 213 1
30 63 216 1
31 177 231 1
32 103 184 1
33 194 103 un
34 129 194 un
35 245 184 1
36 27 129 un
37 192 68 un
38 77 192 2
39 117 68 1
40 112 77 un
41 203 171 2
42 80 203 1
43 198 80 1
44 192 171 1
45 68 198 2
46 36 186 1
47 6 36 1
48 39 6 2
49 203 186 1
50 171 39 1
51 47 250 1
52 26 47 1
53 143 26 1
54 39 250 1
55 6 143 1
56 20 207 un
57 77 20 un
58 129 207 un
59 149 182 un
60 67 149 1
61 207 67 un
62 194 182 un
63 134 132 un
64 164 134 un
65 224 164 un
66 149 132 un
67 182 224 un
68 60 122 un
69 170 60 un
70 22 170 un
71 164 122 un
72 134 22 un
73 79 37 un
74 101 79 un
75 45 101 un
76 170 37 un
77 60 45 un
78 161 81 un
79 103 161 un
80 224 81 un
81 43 228 un
82 81 43 un
83 122 228 un
84 55 244 un
85 228 55 un
86 45 244 un
87 9 96 un
88 33 9 un
89 244 33 un
90 101 96 un
91 127 119 1
92 17 127 1
93 42 17 1
94 79 119 1
95 37 42 1
96 13 116 1
97 155 13 1
98 212 155 1
99 17 116 1
100 127 212 1
101 243 65 1
102 107 243 1
103 38 107 1
104 212 65 1
105 155 38 1
106 246 133 un
107 223 246 un
108 55 223 un
109 43 133 un
110 64 234 1
111 70 64 1
112 85 70 1
113 246 234 1
114 133 85 1
115 114 28 1
116 190 114 1
117 139 190 1
118 70 28 1
119 64 139 1
120 100 69 un
121 223 100 un
122 33 69 un
123 11 98 un
124 160 11 un
125 69 160 un
126 9 98 un
127 108 187 un
128 40 108 un
129 96 40 un
130 98 187 un
131 1 97 1
132 183 1 un
133 11 97 1
134 187 183 1
135 74 220 1
136 185 74 1
137 108 220 1
138 183 185 un
139 61 136 1
140 130 61 1
141 92 130 1
142 74 136 1
143 220 92 1
144 201 66 1
145 153 201 1
146 1 153 un
147 185 66 un
148 136 124 1
149 66 25 un
150 124 25 un
151 47 210 1
152 210 21 1
153 210 23 1
154 42 125 1
155 229 84 1
156 56 229 un
157 179 56 1
158 153 84 un
159 201 179 un
160 163 115 un
161 135 163 1
162 94 135 un
163 179 115 un
164 56 94 un
165 48 196 un
166 238 48 1
167 32 238 1
168 135 196 un
169 163 32 un
170 247 148 un
171 188 247 un
172 115 188 un
173 32 148 un
174 104 126 un
175 248 104 un
176 238 248 un
177 148 126 un
178 19 50 un
179 247 19 un
180 25 188 un
181 124 50 un
182 93 35 un
183 19 93 un
184 126 35 un
185 15 232 1
186 51 15 1
187 218 51 1
188 93 232 1
189 35 218 1
190 218 176 2
191 174 146 1
192 174 113 1
193 208 150 1
194 208 118 1
195 18 200 1
196 10 4 1
197 141 90 1
198 141 24 1
199 49 197 1
200 215 168 1
201 110 57 1
202 110 46 1
203 83 58 1
204 83 12 1
205 233 145 1
206 99 102 1
207 165 82 1
208 165 204 1
209 117 59 1
210 231 227 1
211 231 239 1
212 213 72 1
213 213 71 1
214 216 44 1
215 216 88 1
216 80 162 1
217 80 167 1
218 198 178 1
219 186 109 1
220 186 30 1
221 36 137 1
222 36 140 1
223 250 62 1
224 250 7 1
225 47 142 1
226 26 8 1
227 26 241 1
228 143 189 1
229 143 157 1
230 20 221 1
231 132 237 1
232 22 169 1
233 161 86 1
234 127 78 1
235 17 225 1
236 42 121 1
237 116 242 1
238 116 138 1
239 13 219 1
240 13 205 1
241 155 206 1
242 212 2 1
243 65 226 1
244 65 29 1
245 243 128 1
246 243 166 1
247 107 105 1
248 38 158 1
249 64 95 1
250 70 191 1
251 28 52 1
252 28 152 1
253 114 144 1
254 114 199 1
255 190 120 1
256 190 154 1
257 139 181 1
258 139 147 1
259 100 159 1
260 160 89 1
261 40 91 1
262 220 151 1
263 74 193 1
264 136 211 1
265 61 230 1
266 61 73 1
267 130 240 1
268 130 172 1
269 92 76 1
270 92 222 1
271 210 41 1
272 21 131 1
273 21 111 1
274 21 106 1
275 23 5 1
276 23 249 1
277 23 75 1
278 125 87 1
279 84 202 1
280 229 195 1
281 94 217 1
282 196 53 1
283 48 209 1
284 104 54 1
285 248 173 1
286 50 31 1
287 232 180 1
288 232 236 1
289 15 16 1
290 15 3 1
291 51 175 1
292 51 235 1
@<TRIPOS>MOLECULE
Sketch 4
130 142
SMALL
USER_CHARGES


@<TRIPOS>ATOM
1 H10396 22.211 46.0209 29.2192 H 0.0 **** 0.053
2 H10346 30.152 52.7577 36.0879 H 0.0 **** 0.053
3 N10309 22.8567 52.1764 32.4229 N.ar 0.0 **** -0.481
4 C10286 28.0946 57.1017 37.261 C.ar 0.0 **** 0.0
5 C10306 20.437 54.4833 34.1572 C.3 0.0 **** -0.106
6 O10331 31.7525 57.5788 37.3288 O.3 0.0 **** -0.452
7 C10319 22.6519 50.2552 30.996 C.ar 0.0 **** 0.0
8 C10289 29.84 55.3555 37.1578 C.2 0.0 **** 0.0
9 H10370 21.2816 62.6176 42.3579 H 0.0 **** 0.053
10 C10299 25.4641 54.461 35.0634 C.ar 0.0 **** 0.052
11 H10374 24.142 59.9519 39.8804 H 0.0 **** 0.053
12 H10386 31.8105 56.85 36.6908 H 0.0 **** 0.41
13 C10339 24.5178 46.9408 28.9327 C.3 0.0 **** -0.159
14 H10365 25.6721 49.1961 29.8377 H 0.0 **** 0.1268
15 H10351 21.1033 56.4518 34.8419 H 0.0 **** 0.053
16 H10399 25.584 47.1575 28.7818 H 0.0 **** 0.053
17 H10342 28.9471 63.4867 39.4645 H 0.0 **** 0.053
18 C10284 28.6449 59.2206 38.3688 C.ar 0.0 **** 0.0
19 H10341 26.2756 60.6895 38.035 H 0.0 **** 0.053
20 H10378 27.9274 64.6775 42.6676 H 0.0 **** 0.053
21 H10388 33.125 53.4127 38.7983 H 0.0 **** 0.053
22 C10323 22.4571 48.0595 29.9336 C.ar 0.0 **** 0.0
23 C10288 30.4296 57.7393 37.6759 C.ar 0.0 **** 0.042
24 C10303 22.7971 55.2128 34.4428 C.ar 0.0 **** 0.0
25 C10272 26.6601 63.8693 41.0945 C.ar 0.0 **** 0.0
26 C10326 24.7901 65.1205 42.2413 C.3 0.0 **** -0.159
27 O10336 23.1831 57.2563 35.5806 O.2 0.0 **** -0.419
28 H10354 20.3541 54.1008 35.1922 H 0.0 **** 0.053
29 C10321 24.6011 49.1898 30.0515 C.ar 0.0 **** -0.1268
30 H10387 32.2739 51.9427 39.3323 H 0.0 **** 0.053
31 H10356 18.3462 53.8339 32.4933 H 0.0 **** 0.053
32 C10333 29.8388 51.2109 38.4685 C.3 0.0 **** -0.159
33 O10337 25.0925 52.445 33.9064 O.2 0.0 **** -0.419
34 C10322 23.8388 48.0818 29.6485 C.ar 0.0 **** 0.0
35 H10360 18.2391 50.0595 32.3251 H 0.0 **** 0.053
36 H10344 26.684 58.6222 37.7405 H 0.0 **** 0.1268
37 H10376 22.8593 61.1513 39.6574 H 0.0 **** 0.053
38 C10300 26.7841 54.0723 35.3741 C.ar 0.0 **** 0.042
39 H10390 28.8849 50.7057 38.2559 H 0.0 **** 0.053
40 H10352 21.3963 56.1276 33.1289 H 0.0 **** 0.053
41 C10310 22.0354 51.3587 31.7557 C.ar 0.0 **** 0.2405
42 C10291 27.6306 54.9078 36.1994 C.ar 0.0 **** 0.0
43 C10318 21.8673 49.1552 30.5908 C.ar 0.0 **** 0.0
44 C10316 19.8013 50.5682 30.9278 C.3 0.0 **** -0.053
45 H10361 19.8569 50.9332 29.8823 H 0.0 **** 0.053
46 C10293 29.303 52.997 36.7548 C.3 0.0 **** -0.106
47 H10382 31.0195 63.1625 39.7936 H 0.0 **** 0.053
48 H10347 28.8749 53.0833 38.8353 H 0.0 **** 0.053
49 H10355 18.2063 52.4393 33.5536 H 0.0 **** 0.053
50 C10330 32.4509 59.5717 39.0139 C.3 0.0 **** -0.159
51 H10364 24.624 51.1056 31.068 H 0.0 **** 0.1268
52 C10332 32.274 52.7477 38.5845 C.3 0.0 **** -0.159
53 H10383 32.5881 58.5185 39.2861 H 0.0 **** 0.053
54 H10392 30.6091 50.7618 37.8239 H 0.0 **** 0.053
55 C10281 30.4922 61.101 39.3711 C.ar 0.0 **** 0.0
56 H10357 17.969 52.5131 30.4997 H 0.0 **** 0.053
57 H10395 20.9921 46.5332 30.4047 H 0.0 **** 0.053
58 C10301 24.6292 53.5673 34.284 C.2 0.0 **** 0.367
59 C10305 21.4001 55.667 34.1347 C.3 0.0 **** -0.106
60 C10280 28.6118 62.635 40.0884 C.3 0.0 **** -0.106
61 C10308 22.3311 53.1502 33.1796 C.ar 0.0 **** 0.2405
62 C10304 23.6426 56.1173 35.208 C.2 0.0 **** 0.367
63 H10375 24.0513 60.8552 38.3718 H 0.0 **** 0.053
64 C10313 18.5762 52.7594 32.5628 C.3 0.0 **** -0.106
65 H10393 26.4132 52.5224 34.3636 H 0.0 **** 0.41
66 C10312 20.0752 52.5532 32.5215 C.ar 0.0 **** 0.0
67 H10345 28.4848 52.3365 36.4671 H 0.0 **** 0.053
68 C10287 29.4882 56.7326 37.3461 C.ar 0.0 **** 0.0
69 H10368 22.8963 62.7199 43.1143 H 0.0 **** 0.053
70 C10338 21.605 46.8702 29.5548 C.3 0.0 **** -0.159
71 H10371 25.5517 65.4146 42.9746 H 0.0 **** 0.053
72 C10314 17.8199 52.0023 31.4657 C.3 0.0 **** -0.106
73 H10373 24.5305 66.0221 41.6592 H 0.0 **** 0.053
74 H10381 31.6782 62.0048 40.9578 H 0.0 **** 0.053
75 C10285 27.7218 58.336 37.7906 C.ar 0.0 **** -0.1268
76 C10328 27.6306 64.8994 41.6271 C.3 0.0 **** -0.159
77 H10400 24.0629 46.7519 27.9471 H 0.0 **** 0.053
78 H10377 28.5509 64.9428 41.0315 H 0.0 **** 0.053
79 C10292 27.1763 56.2019 36.5888 C.ar 0.0 **** 0.0
80 H10359 17.7381 49.9903 30.6231 H 0.0 **** 0.053
81 H10380 32.3946 62.1475 39.3403 H 0.0 **** 0.053
82 H10372 23.8934 64.8266 42.8023 H 0.0 **** 0.053
83 H10343 29.1548 62.7693 41.0393 H 0.0 **** 0.053
84 C10276 24.3647 63.088 40.7841 C.ar 0.0 **** 0.0
85 C10278 28.1787 60.4297 38.971 C.ar 0.0 **** 0.0
86 H10398 24.4413 46.0017 29.5051 H 0.0 **** 0.053
87 C10302 23.2487 53.9947 33.9746 C.ar 0.0 **** 0.0
88 H10358 16.7403 52.0239 31.6783 H 0.0 **** 0.053
89 C10325 22.3576 62.4519 42.1926 C.3 0.0 **** -0.159
90 H10340 26.2392 59.7353 39.4877 H 0.0 **** 0.053
91 H10366 22.3262 63.0031 40.0957 H 0.0 **** 0.053
92 C10277 26.6962 60.6442 39.0586 C.3 0.0 **** -0.106
93 C10317 20.4008 49.1608 30.9443 C.3 0.0 **** -0.106
94 H10369 22.5212 61.3782 42.0169 H 0.0 **** 0.053
95 C10282 30.9816 59.8998 38.8681 C.ar 0.0 **** 0.0
96 C10311 20.6325 51.5115 31.7662 C.ar 0.0 **** 0.0
97 H10362 20.2651 48.7299 31.9555 H 0.0 **** 0.053
98 H10350 31.7704 55.4867 38.1608 H 0.0 **** 0.053
99 C10290 28.9204 54.4543 36.6382 C.2 0.0 **** 0.0
100 H10353 19.4325 54.8148 33.8666 H 0.0 **** 0.053
101 C10320 24.0268 50.2609 30.7247 C.ar 0.0 **** -0.1268
102 C10283 30.0573 58.9498 38.311 C.ar 0.0 **** 0.0
103 C10298 24.9856 55.7117 35.5184 C.ar 0.0 **** 0.052
104 H10379 27.1899 65.9054 41.6254 H 0.0 **** 0.053
105 C10327 23.917 60.9469 39.4622 C.3 0.0 **** -0.159
106 C10275 24.8409 61.9913 40.0433 C.ar 0.0 **** 0.0
107 H10363 19.8254 48.5247 30.2574 H 0.0 **** 0.053
108 H10385 33.0089 59.7284 38.0774 H 0.0 **** 0.053
109 C10279 29.0806 61.3552 39.4463 C.ar 0.0 **** 0.0
110 H10391 30.1102 51.0016 39.5143 H 0.0 **** 0.053
111 H10384 32.9149 60.1828 39.7964 H 0.0 **** 0.053
112 H10349 31.7084 54.3956 36.7647 H 0.0 **** 0.053
113 C10295 30.964 53.542 38.5949 C.ar 0.0 **** -0.053
114 O10335 25.3173 57.7515 36.6357 O.3 0.0 **** -0.452
115 C10296 31.1399 54.7572 37.6435 C.3 0.0 **** -0.106
116 C10324 22.8788 63.2781 41.0061 C.3 0.0 **** -0.106
117 C10273 27.1308 62.7754 40.3415 C.ar 0.0 **** 0.0
118 H10348 30.8152 53.9393 39.6113 H 0.0 **** 0.053
119 H10389 32.4451 52.2934 37.5955 H 0.0 **** 0.053
120 H10367 22.6551 64.3406 41.1736 H 0.0 **** 0.053
121 O10334 27.2578 52.9399 34.8691 O.3 0.0 **** -0.452
122 C10315 18.3323 50.5677 31.349 C.3 0.0 **** -0.106
123 C10271 25.2826 63.9998 41.3503 C.ar 0.0 **** 0.0
124 C10307 20.9357 53.3815 33.2607 C.ar 0.0 **** 0.0
125 C10297 25.8228 56.5797 36.2594 C.ar 0.0 **** 0.042
126 H10394 24.3255 57.753 36.2516 H 0.0 **** 0.41
127 H10397 20.9057 47.1226 28.7394 H 0.0 **** 0.053
128 C10294 29.7086 52.7147 38.2154 C.ar 0.0 **** -0.053
129 C10274 26.2267 61.8371 39.8384 C.ar 0.0 **** 0.0
130 C10329 31.4444 62.1558 39.8891 C.3 0.0 **** -0.159
@<TRIPOS>BOND
1 44 45 1
2 89 94 1
3 117 25 am
4 129 117 am
5 106 129 am
6 84 106 am
7 123 25 am
8 123 84 am
9 85 92 1
10 109 85 am
11 60 109 1
12 129 92 1
13 117 60 1
14 95 55 am
15 102 95 am
16 18 102 am
17 109 55 am
18 85 18 am
19 4 75 am
20 68 4 am
21 23 68 am
22 18 75 am
23 102 23 am
24 99 8 1
25 42 99 1
26 79 42 am
27 68 8 1
28 4 79 am
29 128 46 1
30 113 128 am
31 115 113 1
32 99 46 1
33 8 115 1
34 103 125 am
35 10 103 am
36 38 10 am
37 79 125 am
38 42 38 am
39 87 58 1
40 24 87 am
41 62 24 1
42 10 58 1
43 103 62 1
44 5 59 1
45 124 5 1
46 61 124 am
47 24 59 1
48 87 61 am
49 41 3 am
50 96 41 am
51 66 96 am
52 61 3 am
53 124 66 am
54 72 64 1
55 122 72 1
56 44 122 1
57 66 64 1
58 96 44 1
59 43 93 1
60 7 43 am
61 41 7 am
62 44 93 1
63 29 101 am
64 34 29 am
65 22 34 am
66 7 101 am
67 43 22 am
68 84 116 1
69 116 89 1
70 123 26 1
71 106 105 1
72 25 76 1
73 55 130 1
74 95 50 1
75 23 6 1
76 113 52 1
77 128 32 1
78 38 121 1
79 125 114 1
80 62 27 2
81 58 33 2
82 22 70 1
83 34 13 1
84 92 90 1
85 92 19 1
86 60 17 1
87 60 83 1
88 75 36 1
89 46 67 1
90 46 2 1
91 128 48 1
92 113 118 1
93 115 112 1
94 115 98 1
95 59 15 1
96 59 40 1
97 5 100 1
98 5 28 1
99 64 49 1
100 64 31 1
101 72 56 1
102 72 88 1
103 122 80 1
104 122 35 1
105 93 97 1
106 93 107 1
107 101 51 1
108 29 14 1
109 116 91 1
110 116 120 1
111 89 69 1
112 89 9 1
113 26 71 1
114 26 82 1
115 26 73 1
116 105 11 1
117 105 63 1
118 105 37 1
119 76 78 1
120 76 20 1
121 76 104 1
122 130 81 1
123 130 74 1
124 130 47 1
125 50 53 1
126 50 111 1
127 50 108 1
128 6 12 1
129 52 30 1
130 52 21 1
131 52 119 1
132 32 39 1
133 32 110 1
134 32 54 1
135 121 65 1
136 114 126 1
137 70 57 1
138 70 1 1
139 70 127 1
140 13 86 1
141 13 16 1
142 13 77 1
@<TRIPOS>MOLECULE
Sketch 4
250 292
SMALL
USER_CHARGES


@<TRIPOS>ATOM
1 C20045 26.3506 31.3385 54.8717 C.2 0.0 **** 0.052
2 C19981 22.5177 39.4037 63.8678 C.3 0.0 **** 0.134
3 C19937 28.6217 48.6915 76.5993 C.2 0.0 **** 0.0
4 C19932 31.1354 45.5221 71.2952 C.2 0.0 **** 0.0
5 H20116 36.4716 43.3788 64.6457 H 0.0 **** 0.053
6 C19974 31.2255 39.8213 64.41 C.2 0.0 **** 0.0
7 C19994 36.0271 44.484 66.4644 C.3 0.0 **** -0.106
8 C20032 33.3634 32.9123 56.6513 C.2 0.0 **** -0.1268
9 H20067 35.6788 48.6675 77.4145 H 0.0 **** 0.053
10 C19984 23.369 37.109 62.5234 C.3 0.0 **** -0.106
11 C20041 28.2729 30.0875 53.8163 C.2 0.0 **** -0.1268
12 C20026 33.859 34.6545 58.3442 C.2 0.0 **** -0.1268
13 H20072 35.9138 47.7693 72.2339 H 0.0 **** 0.053
14 C19933 30.8219 46.3395 72.4431 C.2 0.0 **** 0.0
15 C19996 38.2215 43.3543 65.9074 C.3 0.0 **** -0.106
16 H20141 34.1444 36.1357 59.8606 H 0.0 **** 0.1268
17 C19925 33.2194 46.6649 72.8235 C.2 0.0 **** 0.232
18 H20069 35.9155 50.8936 77.6695 H 0.0 **** 0.053
19 H20137 25.8965 53.2873 73.0204 H 0.0 **** 0.053
20 C19940 30.8679 48.5787 78.3339 C.2 0.0 **** -0.1268
21 C19917 34.9671 49.17 76.7317 C.3 0.0 **** -0.053
22 O19910 34.3687 54.3258 74.4223 O.3 0.0 **** -0.32
23 C19980 22.2484 40.791 64.4584 C.3 0.0 **** -0.106
24 H20081 26.8231 49.7773 78.7318 H 0.0 **** 0.053
25 C19926 34.29 47.1804 73.5001 C.2 0.0 **** 0.0
26 C19908 34.6978 53.0824 76.5576 C.3 0.0 **** -0.053
27 H20052 32.4549 54.4498 73.7564 H 0.0 **** 0.053
28 C19950 29.2099 47.2979 74.0218 C.2 0.0 **** -0.1268
29 H20054 31.7913 54.8384 75.9923 H 0.0 **** 0.053
30 H20060 33.6949 51.4074 75.6534 H 0.0 **** 0.053
31 C20014 25.365 37.9669 59.4778 C.3 0.0 **** -0.106
32 C19995 36.99 44.0636 65.333 C.3 0.0 **** -0.106
33 C19969 32.4216 42.938 68.0541 C.2 0.0 **** 0.0
34 O20024 24.6612 41.4944 67.9843 O.3 0.0 **** -0.57
35 C20017 31.0825 35.0975 58.6588 C.2 0.0 **** 0.0
36 C20000 30.6463 38.3488 62.5273 C.2 0.0 **** 0.0
37 H20107 23.7836 36.4194 61.7708 H 0.0 **** 0.053
38 H20101 21.1646 40.9667 64.4967 H 0.0 **** 0.053
39 H20106 22.9103 36.4861 63.3079 H 0.0 **** 0.053
40 C20048 23.6322 31.2197 55.8171 C.3 0.0 **** -0.106
41 O19993 34.7762 43.4639 68.3261 O.3 0.0 **** -0.202
42 C20036 30.1073 31.6108 55.3147 C.2 0.0 **** 0.0
43 H20087 25.7635 48.9433 73.3194 H 0.0 **** 0.053
44 C20007 31.5324 36.7023 60.4283 C.2 0.0 **** 0.0265
45 C19954 27.8552 44.2938 69.9856 C.2 0.0 **** -0.1268
46 H20089 24.3245 48.5864 75.2698 H 0.0 **** 0.053
47 C19957 30.6122 43.9577 69.4338 C.2 0.0 **** 0.0
48 H20079 31.6867 48.7208 79.0372 H 0.0 **** 0.1268
49 H20096 24.6872 42.0099 65.3222 H 0.0 **** 0.053
50 H20099 22.5654 41.8047 66.3766 H 0.0 **** 0.053
51 C19936 30.2396 47.8339 74.8526 C.2 0.0 **** 0.0
52 H20114 36.2795 45.489 66.8333 H 0.0 **** 0.053
53 H20110 22.9719 39.972 61.9609 H 0.0 **** 0.353
54 C19968 31.4355 42.2176 67.3157 C.2 0.0 **** 0.0
55 C20047 24.4524 32.4629 56.1389 C.3 0.0 **** -0.106
56 C19985 22.2981 38.0306 61.8747 C.3 0.0 **** 0.081
57 H20147 29.9847 29.0873 53.0074 H 0.0 **** 0.1268
58 H20073 37.7444 47.0195 73.6993 H 0.0 **** 0.053
59 C19965 29.4386 40.769 65.8274 C.2 0.0 **** 0.0
60 H20065 31.985 53.9334 78.429 H 0.0 **** 0.053
61 H20130 25.1336 38.6066 58.6122 H 0.0 **** 0.053
62 C19928 36.7244 47.072 74.1097 C.3 0.0 **** -0.106
63 C19907 33.5713 54.0538 76.946 C.3 0.0 **** -0.053
64 H20103 23.8305 38.2676 65.1837 H 0.0 **** 0.053
65 H20136 27.8432 49.6044 71.7479 H 0.0 **** 0.053
66 H20122 34.0519 38.6903 62.7513 H 0.0 **** 0.1268
67 C19962 26.7108 40.915 66.6074 C.2 0.0 **** 0.0
68 C20002 32.9957 38.8196 62.9898 C.2 0.0 **** -0.1268
69 C20040 27.7658 31.0866 54.6928 C.2 0.0 **** 0.0
70 H20063 32.8048 52.1034 79.7558 H 0.0 **** 0.053
71 C20049 23.857 30.861 54.3576 C.3 0.0 **** -0.086
72 C20037 28.7053 31.8393 55.4582 C.2 0.0 **** 0.0
73 C19951 30.1882 44.8334 70.4952 C.2 0.0 **** 0.0
74 H20104 24.9179 38.5931 62.3579 H 0.0 **** 0.053
75 C19935 29.9647 48.4355 76.0823 C.2 0.0 **** 0.0
76 C19943 26.2385 48.9718 76.1248 C.2 0.0 **** 0.0
77 C19970 30.8281 40.653 65.4898 C.2 0.0 **** 0.0
78 H20124 26.4677 36.982 61.6618 H 0.0 **** 0.053
79 C19920 34.0543 47.9296 74.719 C.2 0.0 **** 0.0
80 H20121 34.6214 40.2227 64.6085 H 0.0 **** 0.1268
81 H20112 36.7467 43.8669 68.441 H 0.0 **** 0.053
82 C20020 28.7439 34.6013 58.0072 C.2 0.0 **** 0.0
83 H20082 24.9473 48.462 77.77 H 0.0 **** 0.053
84 O19930 33.4967 45.9609 71.6673 O.3 0.0 **** -0.464
85 O19975 26.1506 39.3268 64.9727 O.3 0.0 **** -0.202
86 H20064 33.5134 54.5294 79.0798 H 0.0 **** 0.053
87 C20012 27.0009 36.1943 58.7828 C.3 0.0 **** -0.053
88 H20151 22.5658 31.3944 56.0257 H 0.0 **** 0.053
89 H20133 27.9895 51.9519 72.7538 H 0.0 **** 0.053
90 H20095 25.1391 40.5362 63.635 H 0.0 **** 0.053
91 C19945 27.8652 50.0711 74.5662 C.3 0.0 **** -0.106
92 H20129 24.5101 38.0387 60.1649 H 0.0 **** 0.053
93 H20134 27.5457 50.9093 70.5745 H 0.0 **** 0.053
94 H20143 34.4334 32.7317 56.5267 H 0.0 **** 0.1268
95 C20030 31.0465 32.3758 56.0678 C.2 0.0 **** 0.0
96 C19949 29.4776 46.6062 72.8661 C.2 0.0 **** -0.012
97 H20127 25.1418 35.8035 59.7832 H 0.0 **** 0.053
98 C19972 28.8566 39.3018 63.9152 C.2 0.0 **** 0.0
99 H20138 24.9927 52.0746 72.0794 H 0.0 **** 0.053
100 C19978 25.2332 40.7173 66.9308 C.3 0.0 **** 0.107
101 C19916 33.5721 49.0218 77.3651 C.3 0.0 **** 0.107
102 C19979 22.911 40.9154 65.8344 C.3 0.0 **** -0.106
103 H20113 34.9957 44.5286 66.0856 H 0.0 **** 0.053
104 C20018 32.0296 35.8115 59.4583 C.2 0.0 **** 0.0
105 H20115 37.2873 44.9487 64.7516 H 0.0 **** 0.053
106 H20123 26.8878 38.8418 63.1929 H 0.0 **** 0.1268
107 H20120 37.792 41.2095 65.8732 H 0.0 **** 0.053
108 O20051 25.5985 30.0787 52.9615 O.2 0.0 **** -0.419
109 C19939 29.5098 48.2969 78.8979 C.3 0.0 **** -0.106
110 H20084 28.6181 50.8092 74.8959 H 0.0 **** 0.053
111 H20154 23.3411 29.9411 54.0479 H 0.0 **** 0.053
112 C20013 25.5251 36.4971 59.0155 C.3 0.0 **** -0.106
113 C19927 35.6932 46.9863 72.984 C.3 0.0 **** -0.106
114 H20145 32.3201 29.6395 53.5705 H 0.0 **** 0.1268
115 C20028 31.5334 34.125 57.7233 C.2 0.0 **** 0.0
116 H20131 26.3831 39.3515 60.8299 H 0.0 **** 0.053
117 C19919 35.116 48.4905 75.4109 C.2 0.0 **** 0.0
118 H20053 32.9979 52.7903 74.1246 H 0.0 **** 0.053
119 C20008 30.1523 36.8701 60.6336 C.2 0.0 **** 0.0
120 C19963 27.1124 40.1352 65.5393 C.2 0.0 **** 0.042
121 H20085 28.3673 49.4886 73.7788 H 0.0 **** 0.053
122 C20010 27.7587 36.2253 60.1235 C.3 0.0 **** -0.053
123 H20071 35.7671 46.0269 72.4522 H 0.0 **** 0.053
124 C20027 32.9363 33.8884 57.5574 C.2 0.0 **** 0.0
125 C20035 30.5764 30.6194 54.4122 C.2 0.0 **** 0.0
126 H20078 29.3409 48.8889 79.8187 H 0.0 **** 0.053
127 C19921 32.6946 48.0905 75.1692 C.2 0.0 **** 0.0
128 H20153 23.4706 31.672 53.7128 H 0.0 **** 0.053
129 C19997 37.8233 42.0351 66.6007 C.3 0.0 **** -0.106
130 H20132 27.3668 38.8616 59.4518 H 0.0 **** 0.053
131 H20092 26.7863 44.4144 70.1758 H 0.0 **** 0.1268
132 H20059 36.1885 54.035 75.2459 H 0.0 **** 0.053
133 H20148 25.4034 34.435 57.391 H 0.0 **** 0.1268
134 H20119 38.5689 41.7626 67.3625 H 0.0 **** 0.053
135 C19923 31.6261 47.596 74.4418 C.2 0.0 **** 0.0
136 H20152 23.9654 30.391 56.4631 H 0.0 **** 0.053
137 C19964 28.4593 40.0635 65.0734 C.2 0.0 **** 0.0
138 H20055 31.8117 53.0727 76.1125 H 0.0 **** 0.053
139 C19958 30.0442 42.3523 67.6358 C.2 0.0 **** 0.0
140 C19922 32.4091 48.9759 76.3614 C.3 0.0 **** -0.053
141 H20076 37.2291 48.4345 75.7407 H 0.0 **** 0.053
142 C20011 29.2361 36.1775 59.8375 C.2 0.0 **** 0.0
143 H20111 36.3871 41.4441 68.1437 H 0.0 **** 0.053
144 H20083 26.0603 47.1668 77.2873 H 0.0 **** 0.053
145 C20042 29.6279 29.865 53.686 C.2 0.0 **** -0.1268
146 H20086 26.3736 51.6136 74.6627 H 0.0 **** 0.053
147 C20005 27.9443 38.7063 63.0228 C.2 0.0 **** -0.1268
148 C19947 25.4676 49.8358 73.8947 C.3 0.0 **** -0.106
149 O19915 33.4206 50.0535 78.3549 O.3 0.0 **** -0.32
150 C19905 33.0222 53.8419 74.4742 C.3 0.0 **** 0.054
151 C20025 33.429 35.5742 59.2599 C.2 0.0 **** -0.1268
152 H20135 26.1834 49.9826 71.2377 H 0.0 **** 0.053
153 C20001 32.0384 38.1851 62.2476 C.2 0.0 **** 0.042
154 H20068 36.1168 50.851 75.9123 H 0.0 **** 0.053
155 H20140 25.0676 41.1996 68.8138 H 0.0 **** 0.41
156 H20139 26.2712 53.0263 71.295 H 0.0 **** 0.053
157 C19967 32.9176 44.5219 69.9437 C.2 0.0 **** -0.1268
158 H20108 21.2974 37.585 62.0052 H 0.0 **** 0.053
159 O19990 35.4647 41.6416 66.303 O.3 0.0 **** -0.202
160 C20033 32.8866 31.147 54.9832 C.2 0.0 **** -0.1268
161 H20100 22.6682 41.559 63.7837 H 0.0 **** 0.053
162 C19959 29.0582 41.6135 66.9125 C.2 0.0 **** 0.0
163 C20031 32.4514 32.1498 55.9039 C.2 0.0 **** 0.0
164 H20109 22.47 38.1155 60.7914 H 0.0 **** 0.053
165 C20015 26.6284 38.4959 60.1828 C.3 0.0 **** -0.106
166 C19941 26.9994 48.7129 78.4751 C.3 0.0 **** -0.106
167 C20039 29.1936 33.5993 57.1227 C.2 0.0 **** 0.0
168 H20074 36.594 46.2151 74.7904 H 0.0 **** 0.053
169 H20093 26.257 42.8574 68.4661 H 0.0 **** 0.1268
170 C20044 26.8643 33.0846 56.5242 C.2 0.0 **** 0.0
171 C20019 27.3611 34.9337 58.0455 C.2 0.0 **** 0.0
172 O20006 32.4511 37.379 61.1975 O.3 0.0 **** -0.0685
173 H20058 35.4468 52.5519 74.57 H 0.0 **** 0.053
174 C20021 27.013 51.4524 72.6161 C.3 0.0 **** -0.053
175 C20029 30.5968 33.3639 56.9749 C.2 0.0 **** 0.0
176 H20062 34.4768 52.331 79.2216 H 0.0 **** 0.053
177 H20088 24.6163 50.2966 73.3707 H 0.0 **** 0.053
178 C19991 36.4439 42.101 67.2598 C.3 0.0 **** 0.107
179 C20009 27.2733 37.3821 61.0275 C.3 0.0 **** -0.053
180 C19929 36.5227 48.3696 74.8958 C.3 0.0 **** -0.106
181 H20080 26.8918 48.1414 79.4109 H 0.0 **** 0.053
182 H20057 35.516 53.1843 77.2899 H 0.0 **** 0.053
183 C19955 28.2603 43.3934 68.9654 C.2 0.0 **** 0.0
184 C19971 31.8063 41.3571 66.2391 C.2 0.0 **** 0.0
185 C19956 29.6506 43.2312 68.6789 C.2 0.0 **** 0.0
186 C19988 34.1561 41.8777 66.6563 C.2 0.0 **** 0.042
187 C20046 25.9192 32.2751 55.8207 C.2 0.0 **** 0.0
188 H20126 27.4153 37.0161 58.1647 H 0.0 **** 0.053
189 C20043 26.4559 34.1687 57.3447 C.2 0.0 **** -0.1268
190 H20090 24.5407 50.2436 75.8177 H 0.0 **** 0.053
191 C19992 36.0547 43.5133 67.6635 C.3 0.0 **** 0.107
192 C19952 28.7748 44.9899 70.7278 C.2 0.0 **** -0.012
193 H20150 24.0539 33.3257 55.5723 H 0.0 **** 0.053
194 C19976 24.9185 39.9899 64.5712 C.3 0.0 **** 0.107
195 H20142 34.9266 34.4771 58.203 H 0.0 **** 0.1268
196 C20034 31.9817 30.4091 54.2671 C.2 0.0 **** -0.1268
197 H20144 33.9591 30.9813 54.8661 H 0.0 **** 0.1268
198 C19973 30.2468 39.1585 63.6273 C.2 0.0 **** 0.0
199 H20094 33.983 44.4464 69.7834 H 0.0 **** 0.1268
200 C19931 32.4914 45.334 70.9718 C.2 0.0 **** 0.232
201 H20146 27.5676 29.5031 53.2351 H 0.0 **** 0.1268
202 N19986 22.2702 39.3942 62.4254 N.3 0.0 **** -0.727
203 C20038 28.2562 32.8419 56.3638 C.2 0.0 **** 0.0
204 C19977 24.4315 40.9895 65.6498 C.3 0.0 **** -0.053
205 C19983 24.4776 37.9568 63.1449 C.3 0.0 **** -0.106
206 C19924 31.8626 46.8504 73.2282 C.2 0.0 **** 0.0
207 H20149 24.3442 32.714 57.2034 H 0.0 **** 0.053
208 C19948 25.0603 49.4105 75.3053 C.3 0.0 **** -0.106
209 H20066 33.5383 48.082 77.9356 H 0.0 **** 0.053
210 C19913 33.4266 52.3761 78.8911 C.3 0.0 **** -0.106
211 H20091 28.1742 47.4125 74.3409 H 0.0 **** 0.1268
212 C19909 35.2493 53.4706 75.1611 C.3 0.0 **** 0.054
213 H20102 21.7825 38.705 64.3023 H 0.0 **** 0.053
214 C20023 25.9871 52.5235 72.232 C.3 0.0 **** -0.159
215 C19944 27.5198 49.1918 75.7458 C.2 0.0 **** 0.0
216 H20098 22.65 40.0432 66.4581 H 0.0 **** 0.053
217 C19961 27.3057 42.6688 68.2585 C.2 0.0 **** -0.1268
218 C20050 25.3272 30.6914 53.9953 C.2 0.0 **** 0.347
219 C19942 25.9752 48.2614 77.4299 C.3 0.0 **** -0.106
220 C20003 29.6974 37.7229 61.705 C.2 0.0 **** 0.0
221 C19912 33.2304 51.3564 77.782 C.3 0.0 **** 0.107
222 S19953 28.106 46.1205 71.8941 S.2 0.0 **** 0.024
223 H20070 32.2941 49.9856 75.9175 H 0.0 **** 0.053
224 C19911 34.2113 51.6185 76.6035 C.3 0.0 **** -0.053
225 C19914 33.0774 53.7899 78.3915 C.3 0.0 **** -0.106
226 C20022 27.1602 50.4264 71.4849 C.3 0.0 **** -0.159
227 C19989 33.1813 41.1814 65.896 C.2 0.0 **** 0.0
228 C20016 29.6857 35.3176 58.824 C.2 0.0 **** 0.0
229 H20075 36.7619 49.228 74.2365 H 0.0 **** 0.053
230 C20004 28.3332 37.9356 61.9426 C.2 0.0 **** 0.0
231 C19906 32.4394 53.9532 75.9026 C.3 0.0 **** -0.106
232 C19987 33.7966 42.7532 67.6694 C.2 0.0 **** 0.042
233 H20077 29.4636 47.2432 79.2515 H 0.0 **** 0.053
234 H20097 25.0991 39.6421 67.17 H 0.0 **** 0.053
235 C19946 26.6565 50.8003 73.9685 C.3 0.0 **** -0.053
236 H20056 33.9763 55.0744 76.8848 H 0.0 **** 0.053
237 C19934 31.0781 48.6587 77.001 C.2 0.0 **** 0.0
238 C19918 35.3979 50.6662 76.7242 C.3 0.0 **** -0.106
239 H20105 25.2946 37.3324 63.5312 H 0.0 **** 0.053
240 H20117 38.7127 44.0236 66.6343 H 0.0 **** 0.053
241 C19938 28.3949 48.5573 77.9386 C.2 0.0 **** 0.0
242 H20128 24.9332 36.3255 58.1052 H 0.0 **** 0.053
243 H20118 38.962 43.1491 65.1204 H 0.0 **** 0.053
244 H20125 27.5181 35.275 60.6407 H 0.0 **** 0.053
245 H20061 32.186 51.4281 77.4215 H 0.0 **** 0.053
246 C19998 32.6121 39.6615 64.0803 C.2 0.0 **** 0.0
247 C19966 32.0088 43.8068 69.1364 C.2 0.0 **** 0.0
248 C19982 23.9336 38.8639 64.2612 C.3 0.0 **** -0.053
249 C19960 27.6669 41.742 67.2684 C.2 0.0 **** 0.0
250 C19999 33.5641 40.3409 64.8403 C.2 0.0 **** -0.1268
@<TRIPOS>BOND
1 163 160 un
2 185 183 un
3 218 71 1
4 210 176 1
5 33 232 un
6 178 159 1
7 63 231 1
8 26 63 1
9 212 26 1
10 22 212 1
11 150 231 1
12 150 22 1
13 221 224 1
14 210 221 1
15 225 210 1
16 26 224 1
17 63 225 1
18 101 149 1
19 21 101 1
20 238 21 1
21 221 149 1
22 224 238 1
23 79 117 un
24 127 79 un
25 140 127 un
26 21 117 1
27 101 140 1
28 206 135 1
29 17 206 un
30 25 17 un
31 127 135 un
32 79 25 un
33 62 113 1
34 180 62 1
35 117 180 1
36 25 113 1
37 200 84 1
38 4 200 un
39 14 4 un
40 17 84 1
41 206 14 un
42 75 237 un
43 51 75 2
44 140 237 1
45 135 51 un
46 241 3 2
47 109 241 1
48 20 109 1
49 75 3 1
50 237 20 2
51 219 166 1
52 76 219 1
53 215 76 2
54 241 166 1
55 3 215 1
56 235 91 1
57 148 235 1
58 208 148 1
59 215 91 1
60 76 208 1
61 28 96 un
62 51 28 un
63 14 96 un
64 192 73 un
65 222 192 1
66 96 222 un
67 4 73 un
68 183 45 un
69 47 185 un
70 192 45 un
71 73 47 un
72 162 139 un
73 249 162 un
74 217 249 un
75 185 139 un
76 183 217 un
77 120 67 un
78 137 120 un
79 59 137 un
80 249 67 un
81 162 59 un
82 157 247 un
83 200 157 un
84 47 247 un
85 33 54 un
86 247 33 un
87 139 54 un
88 184 77 un
89 54 184 un
90 59 77 un
91 198 98 un
92 6 198 un
93 77 6 un
94 137 98 un
95 194 85 1
96 204 194 1
97 100 204 1
98 120 85 1
99 67 100 1
100 23 102 1
101 2 23 1
102 248 2 1
103 204 102 1
104 194 248 1
105 10 205 1
106 56 10 1
107 202 56 1
108 248 205 1
109 2 202 1
110 186 232 un
111 227 186 un
112 184 227 un
113 191 178 1
114 41 191 1
115 186 159 1
116 232 41 1
117 32 7 1
118 15 32 1
119 129 15 1
120 191 7 1
121 178 129 1
122 250 246 un
123 227 250 un
124 6 246 un
125 153 36 un
126 68 153 un
127 246 68 un
128 198 36 un
129 230 220 un
130 147 230 un
131 98 147 un
132 36 220 un
133 44 172 1
134 119 44 un
135 153 172 1
136 220 119 1
137 122 179 1
138 142 122 1
139 230 179 1
140 119 142 un
141 112 87 1
142 31 112 1
143 165 31 1
144 122 87 1
145 179 165 1
146 35 228 1
147 104 35 1
148 44 104 un
149 142 228 un
150 87 171 1
151 228 82 un
152 171 82 un
153 235 174 1
154 174 226 1
155 174 214 1
156 100 34 1
157 12 151 1
158 124 12 un
159 115 124 1
160 104 151 un
161 35 115 un
162 95 175 un
163 163 95 1
164 8 163 un
165 115 175 un
166 124 8 un
167 196 160 un
168 125 196 1
169 42 125 1
170 95 42 un
171 203 72 un
172 167 203 un
173 175 167 un
174 42 72 un
175 11 69 un
176 145 11 un
177 125 145 un
178 72 69 un
179 170 189 un
180 203 170 un
181 82 167 un
182 171 189 un
183 187 1 un
184 170 187 un
185 69 1 un
186 40 55 1
187 71 40 1
188 187 55 1
189 1 218 1
190 218 108 2
191 150 27 1
192 150 118 1
193 231 29 1
194 231 138 1
195 63 236 1
196 26 182 1
197 212 173 1
198 212 132 1
199 224 30 1
200 221 245 1
201 210 70 1
202 225 86 1
203 225 60 1
204 101 209 1
205 21 9 1
206 238 154 1
207 238 18 1
208 140 223 1
209 113 123 1
210 113 13 1
211 62 58 1
212 62 168 1
213 180 229 1
214 180 141 1
215 109 233 1
216 109 126 1
217 20 48 1
218 166 181 1
219 166 24 1
220 219 83 1
221 219 144 1
222 91 110 1
223 91 121 1
224 235 146 1
225 148 43 1
226 148 177 1
227 208 46 1
228 208 190 1
229 28 211 1
230 45 131 1
231 217 169 1
232 157 199 1
233 194 90 1
234 204 49 1
235 100 234 1
236 102 216 1
237 102 50 1
238 23 161 1
239 23 38 1
240 2 213 1
241 248 64 1
242 205 74 1
243 205 239 1
244 10 39 1
245 10 37 1
246 56 158 1
247 56 164 1
248 202 53 1
249 178 143 1
250 191 81 1
251 7 103 1
252 7 52 1
253 32 105 1
254 32 5 1
255 15 240 1
256 15 243 1
257 129 134 1
258 129 107 1
259 250 80 1
260 68 66 1
261 147 106 1
262 179 78 1
263 122 244 1
264 87 188 1
265 112 97 1
266 112 242 1
267 31 92 1
268 31 61 1
269 165 116 1
270 165 130 1
271 174 89 1
272 226 93 1
273 226 152 1
274 226 65 1
275 214 19 1
276 214 99 1
277 214 156 1
278 34 155 1
279 151 16 1
280 12 195 1
281 8 94 1
282 160 197 1
283 196 114 1
284 11 201 1
285 145 57 1
286 189 133 1
287 55 207 1
288 55 193 1
289 40 88 1
290 40 136 1
291 71 128 1
292 71 111 1
@<TRIPOS>MOLECULE
Sketch 4
250 292
SMALL
USER_CHARGES


@<TRIPOS>ATOM
1 H15870 48.2862 71.0735 24.5037 H 0.0 **** 0.053
2 H15883 35.3047 77.7283 17.7195 H 0.0 **** 0.053
3 C15769 56.0802 70.9866 12.3092 C.2 0.0 **** 0.0
4 C15661 33.3643 74.7476 24.1221 C.3 0.0 **** -0.053
5 H15866 48.0105 73.698 23.5078 H 0.0 **** 0.053
6 C15765 52.3693 72.9831 12.5015 C.3 0.0 **** -0.106
7 C15758 53.4486 70.9722 15.6726 C.2 0.0 **** 0.0
8 C15666 33.8799 72.2238 23.0754 C.3 0.0 **** 0.107
9 H15835 35.721 75.066 17.7181 H 0.0 **** 0.053
10 H15843 43.1119 72.4335 13.8326 H 0.0 **** 0.1268
11 C15770 56.5357 70.5681 13.5903 C.2 0.0 **** 0.0
12 C15691 31.8597 72.1308 16.7163 C.3 0.0 **** -0.106
13 H15880 53.3688 74.0596 10.9029 H 0.0 **** 0.053
14 H15873 49.6908 71.6881 13.1309 H 0.0 **** 0.1268
15 H15896 62.8853 68.8498 10.9679 H 0.0 **** 0.1268
16 H15862 44.5978 72.1152 24.2606 H 0.0 **** 0.053
17 H15802 34.0556 78.8217 22.6621 H 0.0 **** 0.053
18 C15767 56.175 70.3866 16.0352 C.2 0.0 **** 0.0
19 C15674 38.1453 72.7185 20.5629 C.2 0.0 **** 0.0
20 C15687 33.7669 72.9005 18.1024 C.2 0.0 **** 0.0
21 C15764 52.9928 73.0427 11.0941 C.3 0.0 **** -0.106
22 H15888 35.256 78.5208 14.7496 H 0.0 **** 0.053
23 H15856 50.0118 70.0813 8.80672 H 0.0 **** 0.053
24 H15833 33.4561 71.5414 15.3794 H 0.0 **** 0.053
25 H15854 50.154 72.1327 11.0748 H 0.0 **** 0.053
26 C15728 45.2807 71.5299 12.2626 C.3 0.0 **** 0.107
27 H15837 35.8931 75.1362 15.0248 H 0.0 **** 0.053
28 H15806 31.3751 77.5588 24.5889 H 0.0 **** 0.053
29 C15690 32.7698 71.6523 20.4507 C.2 0.0 **** -0.1268
30 C15712 45.7343 71.6977 13.7094 C.2 0.0 **** 0.0
31 H15901 58.6456 69.5743 6.73909 H 0.0 **** 0.053
32 C15741 46.4162 71.2639 23.5029 C.3 0.0 **** 0.107
33 C15658 32.7716 75.9576 24.8747 C.3 0.0 **** -0.053
34 C15714 47.7847 71.5722 15.0935 C.2 0.0 **** 0.0
35 C15744 45.8371 73.7436 23.4744 C.3 0.0 **** -0.106
36 H15891 55.2148 70.298 19.3469 H 0.0 **** 0.1268
37 H15851 46.4634 73.4624 8.09043 H 0.0 **** 0.053
38 H15832 32.1983 72.5156 14.5929 H 0.0 **** 0.053
39 C15784 62.3877 68.584 15.5561 C.2 0.0 **** -0.1268
40 H15850 47.0578 74.1637 9.59869 H 0.0 **** 0.053
41 C15775 55.8683 70.214 18.4787 C.2 0.0 **** -0.1268
42 C15715 46.9793 71.6691 16.2628 C.2 0.0 **** 0.0
43 H15838 34.9668 76.3871 14.1719 H 0.0 **** 0.053
44 C15776 57.1804 69.8597 18.6266 C.2 0.0 **** -0.1268
45 H15903 60.6421 70.9051 7.43777 H 0.0 **** 0.053
46 C15727 46.0842 72.5148 11.4013 C.3 0.0 **** -0.053
47 C15729 45.6794 72.5284 9.92219 C.3 0.0 **** -0.106
48 H15847 45.5834 70.5095 11.9489 H 0.0 **** 0.053
49 C15692 32.7786 72.4053 15.5223 C.3 0.0 **** -0.106
50 H15828 31.07 71.3193 19.1732 H 0.0 **** 0.053
51 H15830 31.3271 71.1738 16.5972 H 0.0 **** 0.053
52 H15886 37.2906 76.2752 17.0202 H 0.0 **** 0.053
53 H15887 34.0273 78.9594 15.9624 H 0.0 **** 0.053
54 C15699 38.1271 72.9689 18.1512 C.2 0.0 **** -0.012
55 C15785 61.8975 68.8461 14.2402 C.2 0.0 **** 0.0
56 H15855 49.8506 70.4134 11.3196 H 0.0 **** 0.053
57 C15675 38.8345 72.6173 21.8094 C.2 0.0 **** 0.232
58 H15808 34.8616 76.4523 25.2989 H 0.0 **** 0.053
59 H15804 31.8407 78.0683 22.3194 H 0.0 **** 0.053
60 C15694 34.0385 73.8915 17.036 C.2 0.0 **** 0.0
61 C15724 48.9854 71.3973 17.6778 C.2 0.0 **** 0.0
62 O15665 32.5016 72.603 23.2285 O.3 0.0 **** -0.32
63 H15818 34.6868 74.2391 25.7622 H 0.0 **** 0.053
64 N15736 49.2057 73.0767 8.65279 N.3 0.0 **** -0.727
65 C15771 35.4855 77.4865 16.6561 C.3 0.0 **** -0.053
66 C15760 53.7522 70.9606 13.1601 C.3 0.0 **** -0.053
67 C15667 34.6057 72.5195 24.4001 C.3 0.0 **** -0.053
68 C15698 33.8444 74.5834 14.6329 C.3 0.0 **** -0.106
69 H15829 32.2557 71.3159 21.3495 H 0.0 **** 0.1268
70 C15709 45.5696 71.8663 16.1661 C.2 0.0 **** 0.0
71 H15807 32.2524 75.5721 25.7681 H 0.0 **** 0.053
72 C15800 61.2337 69.7172 9.08918 C.2 0.0 **** 0.347
73 C15745 47.1857 73.8641 24.2166 C.3 0.0 **** -0.106
74 C15797 58.375 70.2082 8.79797 C.3 0.0 **** -0.106
75 C15748 49.6037 71.2757 18.9661 C.2 0.0 **** 0.0
76 C15711 43.5775 72.2623 14.7981 C.2 0.0 **** -0.1268
77 C15799 60.5672 69.8398 7.7246 C.3 0.0 **** -0.086
78 C15789 57.8657 70.1256 13.7448 C.2 0.0 **** 0.0
79 H15852 47.8607 71.5754 8.23678 H 0.0 **** 0.053
80 C15721 46.7824 71.6866 18.7291 C.2 0.0 **** 0.0
81 C15738 46.6108 71.6459 21.1653 C.2 0.0 **** 0.042
82 C15716 43.1503 72.2403 19.6973 C.2 0.0 **** 0.0
83 C15726 47.5849 72.1707 11.5726 C.3 0.0 **** 0.107
84 H15823 38.7624 71.9522 26.3833 H 0.0 **** 0.053
85 C15682 40.3066 72.6756 19.3981 C.2 0.0 **** 0.0
86 H15884 37.5871 78.0231 16.8612 H 0.0 **** 0.053
87 C15702 40.6095 72.7854 16.9336 C.2 0.0 **** -0.012
88 C15723 49.7941 71.3515 16.5143 C.2 0.0 **** 0.0
89 C15795 60.3615 69.6962 10.3028 C.2 0.0 **** 0.052
90 C15757 53.9641 70.7801 16.9659 C.2 0.0 **** 0.0265
91 H15841 36.2326 73.0363 17.1866 H 0.0 **** 0.1268
92 C15681 40.9279 72.5301 20.6518 C.2 0.0 **** 0.232
93 O15725 47.8018 71.261 12.6881 O.3 0.0 **** -0.202
94 C15676 38.2058 72.5828 23.0231 C.2 0.0 **** 0.0
95 H15881 51.3514 73.4012 12.4939 H 0.0 **** 0.053
96 H15898 56.5159 71.1242 10.2353 H 0.0 **** 0.1268
97 C15739 47.4179 71.5597 20.0015 C.2 0.0 **** 0.0
98 C15719 44.5756 72.0175 19.8212 C.2 0.0 **** 0.0
99 H15840 32.9006 75.0833 14.3395 H 0.0 **** 0.053
100 C15697 34.9085 75.6285 14.9675 C.3 0.0 **** -0.106
101 C15677 39.0024 72.5267 24.3018 C.3 0.0 **** -0.106
102 C15693 33.5855 73.6537 15.7822 C.2 0.0 **** 0.0
103 H15867 46.4227 72.9613 26.0236 H 0.0 **** 0.053
104 H15885 37.2265 77.048 15.4212 H 0.0 **** 0.053
105 H15821 39.9416 71.9802 24.1341 H 0.0 **** 0.053
106 H15877 53.7598 71.0754 10.4902 H 0.0 **** 0.053
107 C15720 47.5833 71.5884 17.5615 C.2 0.0 **** 0.0
108 H15897 63.7363 68.3415 13.2227 H 0.0 **** 0.1268
109 C15670 36.7566 72.6135 23.0631 C.2 0.0 **** 0.0
110 C15731 48.0224 72.3097 9.04443 C.3 0.0 **** 0.134
111 H15890 43.4125 70.9823 12.3877 H 0.0 **** 0.41
112 H15827 32.3871 70.2037 18.9169 H 0.0 **** 0.053
113 C15718 45.3739 71.9006 18.644 C.2 0.0 **** 0.0
114 C15782 59.3856 69.3153 17.6326 C.2 0.0 **** -0.1268
115 H15816 33.8531 71.1353 22.9197 H 0.0 **** 0.053
116 C15796 59.0124 70.0477 10.1602 C.2 0.0 **** 0.0
117 H15810 34.1788 75.1191 23.4798 H 0.0 **** 0.053
118 C15750 51.2028 71.1894 16.6348 C.2 0.0 **** 0.0
119 H15846 45.9065 73.5207 11.814 H 0.0 **** 0.053
120 C15793 56.8837 70.8034 11.2062 C.2 0.0 **** -0.1268
121 C15787 60.0568 69.5506 12.7575 C.2 0.0 **** 0.0
122 C15688 32.6533 72.1189 17.9928 C.2 0.0 **** 0.0
123 H15859 51.262 72.816 8.43293 H 0.0 **** 0.053
124 C15773 35.0909 78.7098 15.8223 C.3 0.0 **** -0.159
125 C15735 50.3518 72.2024 8.36022 C.3 0.0 **** 0.081
126 H15872 51.4813 70.9775 20.0469 H 0.0 **** 0.1268
127 C15772 36.9802 77.1857 16.4854 C.3 0.0 **** -0.159
128 H15876 54.9611 72.6844 12.7763 H 0.0 **** 0.053
129 H15874 51.8306 70.9517 12.2045 H 0.0 **** 0.053
130 H15803 34.6638 77.1623 22.9095 H 0.0 **** 0.053
131 C15790 60.9027 69.4151 11.6168 C.2 0.0 **** 0.0
132 H15849 44.7153 73.0408 9.81236 H 0.0 **** 0.053
133 C15668 33.954 73.7433 25.1086 C.3 0.0 **** -0.106
134 H15819 33.1358 73.3879 25.7547 H 0.0 **** 0.053
135 H15820 34.3943 73.9353 21.8656 H 0.0 **** 0.053
136 C15761 54.2953 70.9009 14.5631 C.2 0.0 **** 0.0
137 C15704 41.4113 72.6836 15.8256 C.2 0.0 **** -0.1268
138 H15860 49.4462 73.7277 9.40131 H 0.0 **** 0.353
139 H15869 46.8937 70.6832 25.5216 H 0.0 **** 0.053
140 C15749 48.801 71.3504 20.1043 C.2 0.0 **** -0.1268
141 H15822 39.2942 73.5541 24.5911 H 0.0 **** 0.053
142 C15713 47.1015 71.5442 13.8409 C.2 0.0 **** 0.042
143 C15780 59.7124 69.4248 15.2083 C.2 0.0 **** 0.0
144 C15792 62.7093 68.6899 13.0944 C.2 0.0 **** -0.1268
145 H15809 33.6941 77.2759 26.3784 H 0.0 **** 0.053
146 C15700 36.754 72.9872 18.1423 C.2 0.0 **** -0.1268
147 H15848 45.5316 71.4954 9.56326 H 0.0 **** 0.053
148 O15801 62.465 69.7024 9.12941 O.2 0.0 **** -0.419
149 C15786 60.5539 69.2725 14.0667 C.2 0.0 **** 0.0
150 C15672 34.5373 72.8363 21.8285 C.3 0.0 **** -0.053
151 C15730 46.7854 73.2106 9.11016 C.3 0.0 **** -0.106
152 O15660 33.9095 78.155 24.574 O.3 0.0 **** -0.32
153 H15831 31.0832 72.9204 16.7761 H 0.0 **** 0.053
154 C15768 55.3207 70.4708 17.1793 C.2 0.0 **** 0.0
155 C15791 62.2352 68.9644 11.8286 C.2 0.0 **** -0.1268
156 C15732 48.2198 71.4879 10.3623 C.3 0.0 **** -0.053
157 C15722 49.2187 71.4813 15.2151 C.2 0.0 **** 0.0
158 C15734 50.4564 70.9639 9.29393 C.3 0.0 **** -0.106
159 C15673 36.7023 72.749 20.6008 C.2 0.0 **** 0.0
160 C15707 42.5619 72.3724 18.3943 C.2 0.0 **** 0.0
161 C15669 36.0908 72.6105 24.2785 C.2 0.0 **** 0.0
162 O15680 40.2159 72.5877 21.8252 O.3 0.0 **** -0.464
163 C15747 47.2666 71.3932 24.7684 C.3 0.0 **** -0.106
164 H15864 45.0749 74.3761 23.9526 H 0.0 **** 0.053
165 C15737 45.2509 71.9044 21.0877 C.2 0.0 **** 0.042
166 C15781 60.226 69.159 16.5187 C.2 0.0 **** 0.0
167 C15759 52.3226 71.5282 13.0027 C.3 0.0 **** -0.053
168 H15844 42.6545 72.2241 21.8137 H 0.0 **** 0.1268
169 C15655 33.8523 77.8702 23.1721 C.3 0.0 **** 0.054
170 C15684 33.9017 72.3867 20.5342 C.2 0.0 **** 0.0
171 H15882 52.9478 73.5882 13.2175 H 0.0 **** 0.053
172 C15752 51.0173 71.0832 19.0657 C.2 0.0 **** -0.1268
173 C15746 47.2786 72.8258 25.3403 C.3 0.0 **** -0.106
174 C15717 42.2817 72.3257 20.8051 C.2 0.0 **** -0.1268
175 C15708 44.7751 72.0065 17.3453 C.2 0.0 **** 0.0
176 H15900 58.3556 71.2783 8.51739 H 0.0 **** 0.053
177 H15842 40.9903 72.8083 14.8254 H 0.0 **** 0.1268
178 H15845 48.1515 73.0938 11.797 H 0.0 **** 0.053
179 H15824 38.0177 70.8352 25.2177 H 0.0 **** 0.053
180 H15893 59.7807 69.1056 18.629 H 0.0 **** 0.1268
181 H15875 53.7372 69.9142 12.7951 H 0.0 **** 0.053
182 S15703 38.9356 73.2157 16.6191 S.2 0.0 **** 0.024
183 H15811 32.3845 74.3918 22.1932 H 0.0 **** 0.053
184 H15861 45.9792 70.2555 23.4115 H 0.0 **** 0.053
185 H15902 59.0314 68.3386 7.95605 H 0.0 **** 0.053
186 H15826 36.2338 72.1531 26.3635 H 0.0 **** 0.053
187 O15756 53.1486 70.8515 18.072 O.3 0.0 **** -0.0685
188 C15662 32.3093 74.0261 23.2355 C.3 0.0 **** 0.107
189 C15695 34.6708 75.2089 17.4215 C.3 0.0 **** -0.106
190 C15733 49.7174 71.2354 10.6032 C.3 0.0 **** -0.106
191 C15659 33.8691 76.9476 25.3442 C.3 0.0 **** 0.054
192 C15705 42.7981 72.4026 15.9422 C.2 0.0 **** 0.0
193 C15710 44.9436 71.9484 14.8699 C.2 0.0 **** 0.0
194 H15857 51.5135 70.722 9.48802 H 0.0 **** 0.053
195 H15853 47.7114 70.5163 10.2414 H 0.0 **** 0.053
196 C15679 36.8511 72.6156 25.5748 C.3 0.0 **** -0.106
197 C15742 45.3032 72.2964 23.4373 C.3 0.0 **** 0.107
198 H15894 61.9665 68.5351 17.6576 H 0.0 **** 0.1268
199 C15664 30.5616 75.7911 23.6187 C.3 0.0 **** -0.106
200 H15904 61.1879 69.2786 7.01173 H 0.0 **** 0.053
201 H15836 33.5481 76.6357 16.2737 H 0.0 **** 0.053
202 H15889 35.6915 79.5893 16.1003 H 0.0 **** 0.053
203 C15778 57.5339 69.9955 16.1913 C.2 0.0 **** 0.0
204 C15777 58.0542 69.722 17.4975 C.2 0.0 **** 0.0
205 C15779 58.37 69.8437 15.0534 C.2 0.0 **** 0.0
206 H15817 34.4071 71.6592 25.0677 H 0.0 **** 0.053
207 C15657 31.7513 76.7076 24.0029 C.3 0.0 **** -0.053
208 H15839 34.1437 73.9864 13.7522 H 0.0 **** 0.053
209 H15805 32.6142 76.5065 22.0109 H 0.0 **** 0.053
210 C15766 55.6646 70.6458 14.7316 C.2 0.0 **** 0.0
211 C15686 35.9765 72.8949 19.336 C.2 0.0 **** 0.0
212 C15794 58.1922 70.2628 11.311 C.2 0.0 **** 0.0
213 C15798 59.1086 69.4136 7.72452 C.3 0.0 **** -0.106
214 C15689 32.1758 71.275 19.1291 C.3 0.0 **** -0.106
215 H15815 30.2544 76.017 22.5842 H 0.0 **** 0.053
216 H15863 45.9438 74.0943 22.4377 H 0.0 **** 0.053
217 C15663 30.9007 74.2941 23.7378 C.3 0.0 **** -0.106
218 H15812 30.8388 73.9658 24.7879 H 0.0 **** 0.053
219 O15743 44.5256 72.056 22.2483 O.3 0.0 **** -0.202
220 C15788 58.7087 69.9826 12.6059 C.2 0.0 **** 0.0
221 C15685 34.5837 72.7992 19.3103 C.2 0.0 **** 0.0
222 H15878 54.888 72.4106 10.2149 H 0.0 **** 0.053
223 C15706 43.3817 72.2561 17.238 C.2 0.0 **** 0.0
224 C15753 52.0325 71.192 15.5035 C.2 0.0 **** 0.0
225 H15813 30.1846 73.6854 23.1673 H 0.0 **** 0.053
226 H15868 48.1868 72.9756 25.9424 H 0.0 **** 0.053
227 O15774 43.8954 71.7079 11.9628 O.3 0.0 **** -0.57
228 C15762 54.7643 71.7144 12.2768 C.3 0.0 **** -0.053
229 H15858 50.2737 71.8703 7.31114 H 0.0 **** 0.053
230 H15865 47.2982 74.882 24.6177 H 0.0 **** 0.053
231 C15754 51.4705 71.4037 14.2378 C.2 0.0 **** 0.0
232 H15825 37.032 73.6578 25.9062 H 0.0 **** 0.053
233 C15678 38.1971 71.8996 25.4404 C.3 0.0 **** -0.106
234 H15879 52.2138 72.8445 10.3444 H 0.0 **** 0.053
235 C15696 34.5922 76.2736 16.3214 C.3 0.0 **** -0.053
236 H15895 63.4225 68.2538 15.666 H 0.0 **** 0.1268
237 C15755 50.0998 71.5418 14.1182 C.2 0.0 **** -0.1268
238 C15683 38.8696 72.8097 19.368 C.2 0.0 **** 0.0
239 C15763 54.141 72.0176 10.9191 C.3 0.0 **** -0.106
240 C15671 36.0403 72.6706 21.8137 C.2 0.0 **** 0.0
241 H15814 29.6935 76.0124 24.2576 H 0.0 **** 0.053
242 C15783 61.5845 68.7363 16.6552 C.2 0.0 **** -0.1268
243 H15871 49.2541 71.2506 21.0894 H 0.0 **** 0.1268
244 H15892 57.5877 69.6615 19.6196 H 0.0 **** 0.1268
245 C15656 32.4752 77.2908 22.7718 C.3 0.0 **** -0.106
246 C15701 41.1488 72.6132 18.2586 C.2 0.0 **** 0.0
247 C15751 51.7816 71.0379 17.9328 C.2 0.0 **** 0.042
248 H15834 34.1673 75.5788 18.3326 H 0.0 **** 0.053
249 O15740 47.2723 71.4806 22.3603 O.3 0.0 **** -0.202
250 H15899 57.3267 69.8821 8.85025 H 0.0 **** 0.053
@<TRIPOS>BOND
1 217 218 1
2 213 31 1
3 207 245 1
4 33 207 1
5 191 33 1
6 152 191 1
7 169 245 1
8 169 152 1
9 188 4 1
10 217 188 1
11 199 217 1
12 33 4 1
13 207 199 1
14 8 62 1
15 67 8 1
16 133 67 1
17 188 62 1
18 4 133 1
19 109 161 un
20 240 109 un
21 150 240 un
22 67 161 1
23 8 150 1
24 19 159 1
25 57 19 un
26 94 57 un
27 240 159 un
28 109 94 un
29 233 101 1
30 196 233 1
31 161 196 1
32 94 101 1
33 92 162 1
34 85 92 un
35 238 85 un
36 57 162 1
37 19 238 un
38 221 170 un
39 211 221 2
40 150 170 1
41 159 211 un
42 122 20 2
43 214 122 1
44 29 214 1
45 221 20 1
46 170 29 2
47 49 12 1
48 102 49 1
49 60 102 2
50 122 12 1
51 20 60 1
52 235 189 1
53 100 235 1
54 68 100 1
55 60 189 1
56 102 68 1
57 146 54 un
58 211 146 un
59 238 54 un
60 87 246 un
61 182 87 1
62 54 182 un
63 85 246 un
64 192 137 un
65 223 192 un
66 160 223 un
67 87 137 un
68 246 160 un
69 70 175 un
70 193 70 un
71 76 193 un
72 223 175 un
73 192 76 un
74 142 30 un
75 34 142 un
76 42 34 un
77 193 30 un
78 70 42 un
79 174 82 un
80 92 174 un
81 160 82 un
82 98 113 un
83 82 98 un
84 175 113 un
85 80 107 un
86 113 80 un
87 42 107 un
88 88 157 un
89 61 88 un
90 107 61 un
91 34 157 un
92 83 93 1
93 46 83 1
94 26 46 1
95 142 93 1
96 30 26 1
97 151 47 1
98 110 151 1
99 156 110 1
100 46 47 1
101 83 156 1
102 158 190 1
103 125 158 1
104 64 125 1
105 156 190 1
106 110 64 1
107 81 165 un
108 97 81 un
109 80 97 un
110 98 165 un
111 32 249 1
112 197 32 1
113 219 197 1
114 81 249 1
115 165 219 1
116 73 35 1
117 173 73 1
118 163 173 1
119 197 35 1
120 32 163 1
121 140 75 un
122 97 140 un
123 61 75 un
124 247 118 un
125 172 247 un
126 75 172 un
127 88 118 un
128 231 224 un
129 237 231 un
130 157 237 un
131 118 224 un
132 90 187 1
133 7 90 un
134 247 187 1
135 224 7 1
136 66 167 1
137 136 66 1
138 231 167 1
139 7 136 un
140 239 228 1
141 21 239 1
142 6 21 1
143 66 228 1
144 167 6 1
145 18 210 1
146 154 18 1
147 90 154 un
148 136 210 un
149 228 3 1
150 210 11 un
151 3 11 un
152 235 65 1
153 65 127 1
154 65 124 1
155 26 227 1
156 44 41 1
157 204 44 un
158 203 204 1
159 154 41 un
160 18 203 un
161 143 205 un
162 166 143 1
163 114 166 un
164 203 205 un
165 204 114 un
166 39 242 un
167 55 39 1
168 149 55 1
169 166 242 un
170 143 149 un
171 220 121 un
172 78 220 un
173 205 78 un
174 149 121 un
175 155 131 un
176 144 155 un
177 55 144 un
178 121 131 un
179 212 120 un
180 220 212 un
181 11 78 un
182 3 120 un
183 116 89 un
184 212 116 un
185 131 89 un
186 213 74 1
187 77 213 1
188 72 77 1
189 116 74 1
190 89 72 1
191 72 148 2
192 169 17 1
193 169 130 1
194 245 59 1
195 245 209 1
196 207 28 1
197 33 71 1
198 191 58 1
199 191 145 1
200 4 117 1
201 188 183 1
202 217 225 1
203 199 241 1
204 199 215 1
205 8 115 1
206 67 206 1
207 133 63 1
208 133 134 1
209 150 135 1
210 101 105 1
211 101 141 1
212 233 84 1
213 233 179 1
214 196 232 1
215 196 186 1
216 214 112 1
217 214 50 1
218 29 69 1
219 12 51 1
220 12 153 1
221 49 38 1
222 49 24 1
223 189 248 1
224 189 9 1
225 235 201 1
226 100 27 1
227 100 43 1
228 68 208 1
229 68 99 1
230 146 91 1
231 137 177 1
232 76 10 1
233 174 168 1
234 83 178 1
235 46 119 1
236 26 48 1
237 47 147 1
238 47 132 1
239 151 40 1
240 151 37 1
241 110 79 1
242 156 195 1
243 190 25 1
244 190 56 1
245 158 23 1
246 158 194 1
247 125 229 1
248 125 123 1
249 64 138 1
250 32 184 1
251 197 16 1
252 35 216 1
253 35 164 1
254 73 230 1
255 73 5 1
256 173 103 1
257 173 226 1
258 163 139 1
259 163 1 1
260 140 243 1
261 172 126 1
262 237 14 1
263 167 129 1
264 66 181 1
265 228 128 1
266 239 106 1
267 239 222 1
268 21 234 1
269 21 13 1
270 6 95 1
271 6 171 1
272 65 2 1
273 127 86 1
274 127 104 1
275 127 52 1
276 124 53 1
277 124 22 1
278 124 202 1
279 227 111 1
280 41 36 1
281 44 244 1
282 114 180 1
283 242 198 1
284 39 236 1
285 155 15 1
286 144 108 1
287 120 96 1
288 74 250 1
289 74 176 1
290 213 185 1
291 77 45 1
292 77 200 1
@<TRIPOS>MOLECULE
Sketch 4
250 292
SMALL
USER_CHARGES


@<TRIPOS>ATOM
1 C24221 58.5764 50.4831 34.4572 C.2 0.0 **** 0.0
2 H24356 57.9005 61.0186 34.5357 H 0.0 **** 0.053
3 C24164 73.0534 41.2312 31.5096 C.3 0.0 **** -0.106
4 C24293 50.6423 60.2936 33.9934 C.2 0.0 **** -0.1268
5 C24269 51.1483 59.0131 33.9912 C.2 0.0 **** 0.0
6 H24376 52.0996 58.0442 32.407 H 0.0 **** 0.053
7 C24267 50.148 55.5518 35.1186 C.2 0.0 **** 0.0
8 H24353 59.7732 59.0173 34.3699 H 0.0 **** 0.053
9 C24195 70.5987 48.2617 31.09 C.3 0.0 **** -0.106
10 H24403 47.9236 64.8103 33.2555 H 0.0 **** 0.053
11 C24207 62.742 49.6721 33.8371 C.2 0.0 **** 0.0
12 H24381 55.66 57.3278 31.7483 H 0.0 **** 0.053
13 C24172 69.6719 44.35 34.0748 C.3 0.0 **** -0.053
14 O24274 63.0363 56.2604 33.5351 O.3 0.0 **** -0.57
15 C24291 45.3224 61.2735 35.7672 C.2 0.0 **** -0.1268
16 C24237 59.4793 47.8158 34.6199 C.2 0.0 **** 0.042
17 H24303 69.2361 42.7144 29.9476 H 0.0 **** 0.053
18 C24212 60.825 55.0372 33.7502 C.2 0.0 **** 0.0
19 C24235 57.6573 61.2207 32.3645 C.3 0.0 **** 0.081
20 C24167 68.9776 41.9477 34.7566 C.3 0.0 **** -0.053
21 H24332 73.7196 50.761 33.4097 H 0.0 **** 0.053
22 C24189 72.641 46.5877 35.2903 C.3 0.0 **** -0.106
23 C24260 53.1961 57.6318 34.1981 C.3 0.0 **** -0.053
24 H24336 71.953 48.8796 29.5417 H 0.0 **** 0.053
25 C24191 73.5306 48.6988 34.1044 C.3 0.0 **** -0.106
26 H24377 53.8432 60.1764 33.7001 H 0.0 **** 0.053
27 C24227 61.0436 57.2164 32.6008 C.3 0.0 **** -0.053
28 C24262 52.4238 58.6163 33.2997 C.3 0.0 **** -0.053
29 H24348 62.0419 58.9917 33.3586 H 0.0 **** 0.053
30 C24228 61.6218 56.3376 33.7194 C.3 0.0 **** 0.107
31 C24181 63.7698 47.0854 34.0471 C.2 0.0 **** 0.232
32 C24250 54.8115 53.6441 34.5361 C.2 0.0 **** 0.0
33 H24395 43.237 57.9886 36.9926 H 0.0 **** 0.1268
34 C24276 48.5428 53.3902 35.9875 C.2 0.0 **** -0.1268
35 C24183 66.0771 47.772 33.6377 C.2 0.0 **** 0.0
36 C24161 70.2246 41.586 32.5437 C.3 0.0 **** -0.053
37 H24349 62.755 58.3281 31.8863 H 0.0 **** 0.053
38 C24166 70.0096 43.0832 34.8768 C.3 0.0 **** 0.107
39 H24338 71.0969 51.2776 29.4493 H 0.0 **** 0.053
40 O24160 69.5476 40.7896 29.2242 O.3 0.0 **** -0.32
41 C24231 59.746 59.9795 32.4156 C.3 0.0 **** 0.134
42 H24308 68.4655 40.5757 30.9889 H 0.0 **** 0.053
43 H24393 46.03 54.1336 36.6683 H 0.0 **** 0.1268
44 H24312 72.5177 40.4441 33.4767 H 0.0 **** 0.053
45 C24206 62.2326 50.9979 33.765 C.2 0.0 **** 0.0
46 H24400 49.8707 63.1618 33.0994 H 0.0 **** 0.053
47 H24367 57.1196 43.2166 34.2552 H 0.0 **** 0.053
48 H24347 61.4167 56.8611 34.6761 H 0.0 **** 0.053
49 C24155 69.9505 42.1611 29.3056 C.3 0.0 **** 0.054
50 C24239 57.6494 49.4372 34.7499 C.2 0.0 **** 0.0
51 C24259 54.6143 57.3504 33.6499 C.3 0.0 **** -0.053
52 H24345 58.9362 57.2581 32.0329 H 0.0 **** 0.053
53 H24320 69.7893 44.1194 32.9965 H 0.0 **** 0.053
54 C24271 69.9719 48.8627 28.7061 C.3 0.0 **** -0.053
55 H24318 68.5455 40.4112 33.2494 H 0.0 **** 0.053
56 H24390 63.408 55.8407 34.3262 H 0.0 **** 0.41
57 C24162 71.4729 42.283 33.1565 C.3 0.0 **** 0.107
58 C24277 47.9746 54.7063 35.9391 C.2 0.0 **** 0.0
59 H24373 57.1321 56.5606 33.5767 H 0.0 **** 0.1268
60 H24343 63.3286 54.1706 33.1062 H 0.0 **** 0.1268
61 H24302 69.8682 42.5611 28.2858 H 0.0 **** 0.053
62 C24179 66.5115 41.3567 34.774 C.3 0.0 **** -0.106
63 C24280 46.9328 57.3496 35.8618 C.2 0.0 **** 0.0
64 C24258 52.8733 55.1473 34.5559 C.2 0.0 **** 0.0
65 H24327 72.5002 46.999 36.3143 H 0.0 **** 0.053
66 H24333 72.318 50.4566 34.4549 H 0.0 **** 0.053
67 C24298 49.3561 64.3778 34.8111 C.3 0.0 **** -0.106
68 C24261 52.3258 56.4283 34.4453 C.2 0.0 **** 0.0
69 H24378 52.8025 60.5217 32.3111 H 0.0 **** 0.053
70 H24360 58.2626 59.779 31.0283 H 0.0 **** 0.353
71 O24240 57.212 47.1519 35.1712 O.3 0.0 **** -0.202
72 C24273 70.5456 49.3873 27.3859 C.3 0.0 **** -0.159
73 C24224 56.7024 52.0717 34.5365 C.2 0.0 **** 0.0
74 C24196 70.9333 49.1419 29.8804 C.3 0.0 **** -0.053
75 C24171 68.2205 44.756 34.1987 C.2 0.0 **** 0.0
76 C24177 64.7398 43.116 34.6244 C.3 0.0 **** -0.106
77 C24193 72.0704 49.7944 32.4199 C.2 0.0 **** 0.0
78 H24340 73.0728 50.8016 30.8153 H 0.0 **** 0.053
79 C24215 58.9914 52.898 34.1146 C.2 0.0 **** 0.0
80 H24397 43.5318 60.3948 36.5462 H 0.0 **** 0.1268
81 C24194 71.3207 48.6685 32.3537 C.2 0.0 **** 0.0
82 C24210 61.3036 53.6948 33.6892 C.2 0.0 **** 0.0
83 C24290 46.6611 61.085 35.3245 C.2 0.0 **** 0.0
84 H24352 60.1092 60.8212 33.0299 H 0.0 **** 0.053
85 H24313 73.5529 41.8785 33.5373 H 0.0 **** 0.053
86 C24238 58.1449 48.1116 34.8524 C.2 0.0 **** 0.042
87 H24388 70.6511 50.4835 27.4143 H 0.0 **** 0.053
88 C24252 54.3954 51.2839 34.9958 C.2 0.0 **** -0.1268
89 C24222 57.0801 54.4774 34.0931 C.2 0.0 **** 0.0
90 H24357 56.2705 60.6393 33.9621 H 0.0 **** 0.053
91 H24342 65.1371 52.6455 32.9317 H 0.0 **** 0.1268
92 H24304 72.1075 42.4577 29.0376 H 0.0 **** 0.053
93 H24325 66.2433 40.9314 33.7861 H 0.0 **** 0.053
94 C24188 72.448 47.6709 34.28 C.2 0.0 **** 0.0
95 H24306 72.0071 40.2425 29.88 H 0.0 **** 0.053
96 C24287 47.1994 59.7649 35.376 C.2 0.0 **** 0.0
97 H24369 56.8115 44.1449 36.4247 H 0.0 **** 0.053
98 C24201 64.1425 49.4215 33.615 C.2 0.0 **** 0.0
99 H24364 58.9191 44.6663 32.5915 H 0.0 **** 0.053
100 C24268 50.6941 54.2338 35.2215 C.2 0.0 **** 0.0
101 C24272 68.5682 49.4357 28.9414 C.3 0.0 **** -0.159
102 C24158 70.601 40.5433 31.4699 C.3 0.0 **** -0.053
103 C24174 66.4867 46.4628 33.9181 C.2 0.0 **** 0.0
104 C24178 65.2477 41.919 35.429 C.3 0.0 **** -0.106
105 H24401 50.0451 65.1858 34.5219 H 0.0 **** 0.053
106 O24165 71.3039 42.5442 34.5584 O.3 0.0 **** -0.32
107 C24294 49.3542 60.5918 34.5103 C.2 0.0 **** 0.0
108 H24361 58.2208 46.0065 36.5671 H 0.0 **** 0.053
109 C24187 71.333 47.7243 33.4944 C.2 0.0 **** 0.0
110 N24236 58.6867 60.5326 31.5707 N.3 0.0 **** -0.727
111 H24331 74.2599 48.3365 33.3516 H 0.0 **** 0.053
112 H24335 69.5094 48.255 31.2476 H 0.0 **** 0.053
113 C24184 70.6108 45.5008 34.3493 C.2 0.0 **** 0.0
114 C24244 58.3047 45.4032 33.1292 C.3 0.0 **** -0.106
115 H24389 69.8855 49.1396 26.5407 H 0.0 **** 0.053
116 C24241 57.7637 45.8788 35.5717 C.3 0.0 **** 0.107
117 H24402 49.3858 64.2936 35.9098 H 0.0 **** 0.053
118 H24375 53.3119 58.1305 35.1811 H 0.0 **** 0.053
119 C24230 60.919 59.4828 31.565 C.3 0.0 **** -0.106
120 C24220 58.0879 51.8125 34.3661 C.2 0.0 **** 0.0
121 C24288 48.5386 59.5176 34.9608 C.2 0.0 **** 0.0
122 H24344 61.8142 46.4383 34.4736 H 0.0 **** 0.1268
123 C24233 57.732 59.0562 33.66 C.3 0.0 **** -0.106
124 C24168 69.4218 40.9309 33.6643 C.3 0.0 **** -0.106
125 C24190 71.7366 45.4111 35.0923 C.2 0.0 **** -0.1268
126 H24314 73.7355 40.3742 31.4046 H 0.0 **** 0.053
127 H24350 60.5244 58.9422 30.6856 H 0.0 **** 0.053
128 C24265 54.676 57.6303 32.1374 C.3 0.0 **** -0.106
129 C24175 65.5137 45.4511 34.1803 C.2 0.0 **** 0.232
130 H24363 58.452 46.372 32.6302 H 0.0 **** 0.053
131 C24253 54.285 54.9311 34.3498 C.2 0.0 **** 0.0
132 H24323 64.4676 41.1456 35.4984 H 0.0 **** 0.053
133 H24398 51.2337 61.0876 33.5455 H 0.0 **** 0.1268
134 H24382 53.9329 56.9972 31.6272 H 0.0 **** 0.053
135 H24324 65.488 42.2437 36.4544 H 0.0 **** 0.053
136 H24380 54.088 59.2504 30.8172 H 0.0 **** 0.053
137 H24311 71.6519 43.2474 32.6428 H 0.0 **** 0.053
138 C24204 64.4847 51.8078 33.1884 C.2 0.0 **** -0.1268
139 C24299 47.9375 64.6723 34.3526 C.3 0.0 **** -0.086
140 H24366 56.1903 45.9092 33.1242 H 0.0 **** 0.053
141 H24368 55.4295 43.7238 34.1848 H 0.0 **** 0.053
142 C24286 46.3991 58.6719 35.827 C.2 0.0 **** 0.0
143 C24199 67.0939 48.7337 33.3238 C.2 0.0 **** -0.012
144 H24330 74.0867 48.8221 35.0475 H 0.0 **** 0.053
145 H24386 68.1461 49.1316 29.9113 H 0.0 **** 0.053
146 H24374 55.2935 58.0793 34.1178 H 0.0 **** 0.053
147 C24289 49.0745 58.1988 35.0045 C.2 0.0 **** 0.0
148 H24315 73.6027 42.1148 31.145 H 0.0 **** 0.053
149 C24248 55.7881 51.0057 34.8266 C.2 0.0 **** 0.0
150 C24255 56.4948 55.7356 33.8532 C.2 0.0 **** -0.1268
151 C24300 46.9576 63.545 34.6535 C.2 0.0 **** 0.347
152 C24218 59.9603 50.189 34.2687 C.2 0.0 **** 0.0
153 H24334 70.8589 47.2113 30.8679 H 0.0 **** 0.053
154 H24392 47.9063 52.5668 36.3161 H 0.0 **** 0.1268
155 C24169 67.5669 42.4142 34.6116 C.2 0.0 **** 0.0
156 C24226 59.5507 57.4692 32.928 C.3 0.0 **** 0.107
157 C24257 52.0581 54.0616 34.9191 C.2 0.0 **** 0.0265
158 O24243 59.8956 46.5038 34.6552 O.3 0.0 **** -0.202
159 C24157 71.7958 41.0203 30.6283 C.3 0.0 **** -0.053
160 C24156 71.39 42.2925 29.8559 C.3 0.0 **** -0.106
161 H24354 57.1831 58.5802 32.8292 H 0.0 **** 0.053
162 C24245 56.8139 45.0039 33.0827 C.3 0.0 **** -0.106
163 C24264 54.4167 59.1232 31.8601 C.3 0.0 **** -0.106
164 H24341 69.1664 49.1853 33.1661 H 0.0 **** 0.1268
165 O24256 52.5761 52.7914 35.0281 O.3 0.0 **** -0.0685
166 O24301 45.7544 63.8097 34.6429 O.2 0.0 **** -0.419
167 C24219 60.4436 48.8483 34.3427 C.2 0.0 **** 0.0
168 C24278 48.7967 55.7914 35.4937 C.2 0.0 **** 0.0
169 C24279 48.2674 57.1088 35.459 C.2 0.0 **** 0.0
170 C24246 56.4593 44.1007 34.2693 C.3 0.0 **** -0.106
171 H24351 61.4788 60.3449 31.1773 H 0.0 **** 0.053
172 H24396 44.9049 62.2743 35.7403 H 0.0 **** 0.1268
173 C24217 62.4221 47.2992 34.2373 C.2 0.0 **** -0.1268
174 H24310 69.5888 42.3467 32.0632 H 0.0 **** 0.053
175 H24339 72.0241 51.8284 31.7846 H 0.0 **** 0.053
176 C24214 58.499 54.2301 34.0218 C.2 0.0 **** 0.0
177 C24192 72.9301 50.0281 33.6379 C.3 0.0 **** -0.106
178 C24282 46.6554 54.9616 36.3273 C.2 0.0 **** -0.1268
179 H24337 70.0032 50.8687 30.7861 H 0.0 **** 0.053
180 C24275 49.8471 53.1595 35.6488 C.2 0.0 **** -0.1268
181 C24297 49.7948 63.0535 34.198 C.3 0.0 **** -0.106
182 C24254 55.1383 55.9762 33.9724 C.2 0.0 **** 0.0
183 C24197 70.9663 50.6112 30.3157 C.3 0.0 **** -0.106
184 C24281 46.116 56.2578 36.3004 C.2 0.0 **** 0.0
185 H24319 70.0601 40.1632 34.1295 H 0.0 **** 0.053
186 C24198 72.0915 50.8239 31.3282 C.3 0.0 **** -0.106
187 C24209 60.3794 52.6172 33.9411 C.2 0.0 **** 0.0
188 C24247 56.6272 44.8548 35.6045 C.3 0.0 **** -0.106
189 H24329 72.0179 44.4728 35.5674 H 0.0 **** 0.1268
190 H24358 57.9943 62.2557 32.5441 H 0.0 **** 0.053
191 C24270 50.3968 57.9572 34.5781 C.2 0.0 **** 0.0
192 H24322 64.3746 42.7603 33.6424 H 0.0 **** 0.053
193 H24326 66.9213 40.5171 35.3606 H 0.0 **** 0.053
194 C24163 72.712 41.4181 32.9992 C.3 0.0 **** -0.106
195 H24309 69.323 39.1353 30.3589 H 0.0 **** 0.053
196 H24307 70.8891 39.6161 31.993 H 0.0 **** 0.053
197 H24394 44.1561 55.6824 37.0377 H 0.0 **** 0.1268
198 C24266 50.9599 56.6389 34.6874 C.2 0.0 **** 0.0
199 C24213 59.4691 55.2678 33.8864 C.2 0.0 **** 0.042
200 C24173 67.8758 46.0691 33.9299 C.2 0.0 **** 0.0
201 C24234 57.3403 60.5316 33.7215 C.3 0.0 **** -0.106
202 C24205 63.1149 52.0761 33.4482 C.2 0.0 **** 0.0
203 C24242 58.8472 45.5191 34.5689 C.3 0.0 **** 0.107
204 H24365 56.5951 44.4986 32.1306 H 0.0 **** 0.053
205 H24391 50.2664 52.1552 35.7071 H 0.0 **** 0.1268
206 H24371 55.6058 48.8883 35.1659 H 0.0 **** 0.1268
207 H24370 55.7074 45.4044 35.8569 H 0.0 **** 0.053
208 H24321 63.8766 43.5861 35.1172 H 0.0 **** 0.053
209 H24359 56.7504 61.2842 31.745 H 0.0 **** 0.053
210 H24355 57.436 58.5218 34.5729 H 0.0 **** 0.053
211 C24223 56.2047 53.3915 34.394 C.2 0.0 **** 0.0
212 C24185 70.2458 46.7808 33.7479 C.2 0.0 **** 0.0
213 H24387 71.5395 48.9566 27.186 H 0.0 **** 0.053
214 C24176 65.8254 44.1388 34.405 C.2 0.0 **** 0.0
215 C24263 53.3579 59.7211 32.82 C.3 0.0 **** -0.106
216 C24284 44.2634 57.7929 36.6762 C.2 0.0 **** -0.1268
217 C24251 53.9333 52.5634 34.8582 C.2 0.0 **** 0.042
218 C24232 59.2401 58.8842 33.4133 C.3 0.0 **** -0.053
219 C24202 64.9888 50.5347 33.2675 C.2 0.0 **** -0.012
220 H24399 50.8016 62.7946 34.5546 H 0.0 **** 0.053
221 H24384 67.8785 49.1019 28.1518 H 0.0 **** 0.053
222 C24208 60.8584 51.2722 33.9922 C.2 0.0 **** 0.0
223 C24211 62.642 53.3838 33.4027 C.2 0.0 **** -0.1268
224 H24328 73.7016 46.2687 35.2808 H 0.0 **** 0.053
225 C24292 44.5551 60.2159 36.209 C.2 0.0 **** -0.1268
226 C24249 56.2857 49.7074 34.9368 C.2 0.0 **** -0.1268
227 H24383 69.8833 47.7639 28.6246 H 0.0 **** 0.053
228 H24317 69.0155 41.3845 35.7087 H 0.0 **** 0.053
229 C24159 69.4109 40.2173 30.5305 C.3 0.0 **** 0.054
230 C24216 61.8532 48.5861 34.1404 C.2 0.0 **** 0.0
231 C24170 67.22 43.7417 34.4169 C.2 0.0 **** 0.0
232 C24285 45.0588 58.8963 36.2399 C.2 0.0 **** 0.0
233 C24182 64.6783 48.1141 33.7384 C.2 0.0 **** 0.0
234 H24379 55.358 59.6804 31.968 H 0.0 **** 0.053
235 C24186 68.8884 47.0829 33.6218 C.2 0.0 **** 0.0
236 O24180 64.1712 45.778 34.177 O.3 0.0 **** -0.464
237 H24305 71.4507 43.1702 30.5187 H 0.0 **** 0.053
238 C24295 47.5053 62.1713 34.871 C.2 0.0 **** 0.052
239 H24404 47.5171 65.5892 34.7895 H 0.0 **** 0.053
240 C24283 44.7703 56.5207 36.704 C.2 0.0 **** -0.1268
241 C24229 61.7991 58.5333 32.3847 C.3 0.0 **** -0.106
242 H24385 68.5924 50.5362 28.9182 H 0.0 **** 0.053
243 O24225 59.0765 56.5854 33.9831 O.3 0.0 **** -0.202
244 H24362 59.3308 44.5837 34.8845 H 0.0 **** 0.053
245 C24296 48.8441 61.9269 34.5367 C.2 0.0 **** 0.0
246 H24372 53.7058 50.4721 35.2299 H 0.0 **** 0.1268
247 S24203 66.6837 50.3642 32.8388 S.2 0.0 **** 0.024
248 H24346 61.1035 56.6307 31.6696 H 0.0 **** 0.053
249 C24200 68.4268 48.4038 33.339 C.2 0.0 **** -0.1268
250 H24316 70.0859 43.3846 35.9319 H 0.0 **** 0.053
@<TRIPOS>BOND
1 168 169 un
2 30 48 1
3 104 76 1
4 183 39 1
5 41 110 1
6 107 245 un
7 159 160 1
8 102 159 1
9 229 102 1
10 40 229 1
11 49 160 1
12 49 40 1
13 57 36 1
14 194 57 1
15 3 194 1
16 102 36 1
17 159 3 1
18 38 106 1
19 20 38 1
20 124 20 1
21 57 106 1
22 36 124 1
23 231 155 un
24 75 231 un
25 13 75 un
26 20 155 1
27 38 13 1
28 103 200 1
29 129 103 un
30 214 129 un
31 75 200 un
32 231 214 un
33 62 104 1
34 155 62 1
35 214 76 1
36 31 236 1
37 233 31 un
38 35 233 un
39 129 236 1
40 103 35 un
41 212 113 un
42 235 212 2
43 13 113 1
44 200 235 un
45 94 109 2
46 22 94 1
47 125 22 1
48 212 109 1
49 113 125 2
50 177 25 1
51 77 177 1
52 81 77 2
53 94 25 1
54 109 81 1
55 74 9 1
56 183 74 1
57 186 183 1
58 81 9 1
59 77 186 1
60 249 143 un
61 235 249 un
62 35 143 un
63 219 98 un
64 247 219 1
65 143 247 un
66 233 98 un
67 202 138 un
68 45 202 un
69 11 45 un
70 219 138 un
71 98 11 un
72 187 222 un
73 82 187 un
74 223 82 un
75 45 222 un
76 202 223 un
77 199 18 un
78 176 199 un
79 79 176 un
80 82 18 un
81 187 79 un
82 173 230 un
83 31 173 un
84 11 230 un
85 167 152 un
86 230 167 un
87 222 152 un
88 1 120 un
89 152 1 un
90 79 120 un
91 211 89 un
92 73 211 un
93 120 73 un
94 176 89 un
95 156 243 1
96 27 156 1
97 30 27 1
98 199 243 1
99 18 30 1
100 119 241 1
101 41 119 1
102 218 41 1
103 27 241 1
104 156 218 1
105 201 123 1
106 19 201 1
107 110 19 1
108 218 123 1
109 86 16 un
110 50 86 un
111 1 50 un
112 167 16 un
113 116 71 1
114 203 116 1
115 158 203 1
116 86 71 1
117 16 158 1
118 162 114 1
119 170 162 1
120 188 170 1
121 203 114 1
122 116 188 1
123 226 149 un
124 50 226 un
125 73 149 un
126 217 32 un
127 88 217 un
128 149 88 un
129 211 32 un
130 182 131 un
131 150 182 un
132 89 150 un
133 32 131 un
134 157 165 1
135 64 157 un
136 217 165 1
137 131 64 1
138 23 51 1
139 68 23 1
140 182 51 1
141 64 68 un
142 215 28 1
143 163 215 1
144 128 163 1
145 23 28 1
146 51 128 1
147 7 198 1
148 100 7 1
149 157 100 un
150 68 198 un
151 28 5 1
152 198 191 un
153 5 191 un
154 74 54 1
155 54 101 1
156 54 72 1
157 30 14 1
158 34 180 1
159 58 34 un
160 168 58 1
161 100 180 un
162 7 168 un
163 63 169 un
164 184 63 1
165 178 184 un
166 58 178 un
167 216 240 un
168 232 216 1
169 142 232 1
170 184 240 un
171 63 142 un
172 121 96 un
173 147 121 un
174 169 147 un
175 142 96 un
176 15 83 un
177 225 15 un
178 232 225 un
179 96 83 un
180 107 4 un
181 121 107 un
182 191 147 un
183 5 4 un
184 245 238 un
185 83 238 un
186 67 181 1
187 139 67 1
188 151 139 1
189 245 181 1
190 238 151 1
191 151 166 2
192 49 61 1
193 49 17 1
194 160 92 1
195 160 237 1
196 159 95 1
197 102 196 1
198 229 42 1
199 229 195 1
200 36 174 1
201 57 137 1
202 194 44 1
203 194 85 1
204 3 126 1
205 3 148 1
206 38 250 1
207 20 228 1
208 124 55 1
209 124 185 1
210 13 53 1
211 76 208 1
212 76 192 1
213 104 132 1
214 104 135 1
215 62 93 1
216 62 193 1
217 22 65 1
218 22 224 1
219 125 189 1
220 25 144 1
221 25 111 1
222 177 21 1
223 177 66 1
224 9 153 1
225 9 112 1
226 74 24 1
227 183 179 1
228 186 175 1
229 186 78 1
230 249 164 1
231 138 91 1
232 223 60 1
233 173 122 1
234 156 52 1
235 27 248 1
236 241 29 1
237 241 37 1
238 119 127 1
239 119 171 1
240 41 84 1
241 218 8 1
242 123 161 1
243 123 210 1
244 201 2 1
245 201 90 1
246 19 190 1
247 19 209 1
248 110 70 1
249 116 108 1
250 203 244 1
251 114 130 1
252 114 99 1
253 162 204 1
254 162 140 1
255 170 47 1
256 170 141 1
257 188 97 1
258 188 207 1
259 226 206 1
260 88 246 1
261 150 59 1
262 51 146 1
263 23 118 1
264 28 6 1
265 215 26 1
266 215 69 1
267 163 234 1
268 163 136 1
269 128 12 1
270 128 134 1
271 54 227 1
272 101 221 1
273 101 242 1
274 101 145 1
275 72 213 1
276 72 87 1
277 72 115 1
278 14 56 1
279 180 205 1
280 34 154 1
281 178 43 1
282 240 197 1
283 216 33 1
284 15 172 1
285 225 80 1
286 4 133 1
287 181 220 1
288 181 46 1
289 67 105 1
290 67 117 1
291 139 10 1
292 139 239 1
@<TRIPOS>MOLECULE
Sketch 4
250 292
SMALL
USER_CHARGES


@<TRIPOS>ATOM
1 C17019 56.0349 19.2083 9.1224 C.2 0.0 **** 0.0
2 H17151 56.8413 22.1942 14.6028 H 0.0 **** 0.053
3 C17010 55.3413 16.9027 8.53273 C.3 0.0 **** -0.053
4 H17075 51.0683 -0.455608 -2.85739 H 0.0 **** 0.053
5 C16950 52.7242 -0.325054 4.76141 C.2 0.0 **** -0.1268
6 H17147 54.6412 27.1987 8.3109 H 0.0 **** 0.1268
7 C16918 50.8415 -3.46046 -1.83902 C.3 0.0 **** -0.106
8 H17148 56.8646 19.6805 11.0193 H 0.0 **** 0.1268
9 H17109 58.0586 14.2625 12.7321 H 0.0 **** 0.053
10 H17081 52.0652 -5.82051 6.60379 H 0.0 **** 0.053
11 C17040 55.6268 24.2669 9.79234 C.2 0.0 **** 0.0
12 H17117 52.0479 8.87859 -3.63122 H 0.0 **** 0.053
13 C17031 53.7932 23.4833 5.25629 C.2 0.0 **** 0.0
14 C17009 55.6666 15.3957 8.65041 C.3 0.0 **** -0.053
15 H17073 49.6339 1.55907 -2.97937 H 0.0 **** 0.053
16 H17111 50.2188 9.06782 -0.320663 H 0.0 **** 0.053
17 O16975 54.708 11.0298 9.44259 O.3 0.0 **** -0.202
18 C16949 52.9482 1.02362 4.63201 C.2 0.0 **** -0.012
19 C16963 54.5025 10.2477 8.32653 C.2 0.0 **** 0.042
20 C17033 53.5973 24.8929 5.12327 C.2 0.0 **** -0.1268
21 C17044 56.0317 21.4549 10.0884 C.2 0.0 **** 0.0
22 C17039 55.1136 21.0771 7.83824 C.2 0.0 **** 0.0
23 C16965 53.8698 10.0188 5.99342 C.2 0.0 **** 0.0
24 C16909 53.7583 -4.18266 -2.9797 C.3 0.0 **** 0.054
25 C16989 52.7214 10.3396 2.42126 C.2 0.0 **** 0.0
26 C16952 53.5831 3.53445 5.61741 C.2 0.0 **** -0.012
27 O16993 51.9975 7.3297 0.402434 O.3 0.0 **** -0.202
28 H17152 55.386 22.7731 13.7638 H 0.0 **** 0.053
29 C16981 56.8251 11.1666 12.5929 C.3 0.0 **** 0.134
30 H17067 48.9814 -2.6047 -1.24089 H 0.0 **** 0.053
31 H17101 57.9151 9.4454 13.313 H 0.0 **** 0.053
32 C17002 53.1953 13.9929 3.11986 C.2 0.0 **** -0.1268
33 H17079 49.3952 -4.51543 2.5997 H 0.0 **** 0.1268
34 C16941 51.4812 -4.90216 6.81712 C.3 0.0 **** -0.106
35 H17078 49.8419 -5.60189 4.78191 H 0.0 **** 0.053
36 S16953 53.7836 1.82065 5.94687 S.2 0.0 **** 0.024
37 H17070 52.0744 -2.95366 1.15612 H 0.0 **** 0.053
38 C16987 52.3331 8.11069 1.48569 C.2 0.0 **** 0.042
39 C16954 53.9632 4.37883 6.62914 C.2 0.0 **** -0.1268
40 C16945 54.6528 -2.77849 4.99927 C.3 0.0 **** -0.106
41 C17007 54.0658 17.0131 4.93797 C.2 0.0 **** 0.0265
42 H17116 53.7765 10.377 -1.59166 H 0.0 **** 0.053
43 H17054 55.3575 -6.28517 -0.233456 H 0.0 **** 0.053
44 C17035 54.4817 25.2622 7.36453 C.2 0.0 **** 0.0
45 H17064 52.467 -8.05191 -1.29072 H 0.0 **** 0.053
46 C16984 55.9212 13.8077 12.5195 C.3 0.0 **** -0.106
47 H17115 54.4259 9.40723 -2.92542 H 0.0 **** 0.053
48 O17051 56.9211 25.8279 11.9368 O.2 0.0 **** -0.419
49 O16990 51.9125 10.1303 0.209212 O.3 0.0 **** -0.202
50 C16916 50.0156 -3.16291 0.543726 C.3 0.0 **** 0.107
51 H17094 51.9534 5.47843 0.940038 H 0.0 **** 0.1268
52 C16933 52.5651 1.73997 3.44998 C.2 0.0 **** 0.0
53 H17144 53.1753 25.2718 4.1907 H 0.0 **** 0.1268
54 C16907 53.5605 -6.16369 -1.43746 C.3 0.0 **** -0.053
55 C16936 52.1408 -1.11037 3.72177 C.2 0.0 **** 0.0
56 C16971 53.11 9.7364 3.65582 C.2 0.0 **** 0.0
57 C16970 53.5111 10.5812 4.72339 C.2 0.0 **** 0.0
58 C17028 54.1974 20.6923 5.5745 C.2 0.0 **** 0.0
59 C16957 53.1037 5.47784 4.16495 C.2 0.0 **** 0.0
60 C17047 56.7683 21.7324 12.4826 C.3 0.0 **** -0.106
61 C16923 51.7528 -0.414595 2.49161 C.2 0.0 **** 0.0
62 C16935 51.8115 -2.45528 3.90175 C.2 0.0 **** 0.0
63 C17018 53.9528 18.3958 4.69903 C.2 0.0 **** 0.0
64 H17074 48.8053 1.08995 -1.47793 H 0.0 **** 0.053
65 H17087 55.5221 -1.48288 7.19223 H 0.0 **** 0.053
66 C16985 57.3439 13.4939 13.0619 C.3 0.0 **** 0.081
67 C17005 54.9493 13.1762 7.78757 C.2 0.0 **** -0.1268
68 C16908 52.7769 -5.04677 -2.14591 C.3 0.0 **** -0.053
69 H17099 56.6921 7.75555 11.954 H 0.0 **** 0.053
70 C16976 55.8572 10.6771 10.2635 C.3 0.0 **** 0.107
71 C16951 53.1192 4.05058 4.35461 C.2 0.0 **** 0.0
72 C17030 54.345 22.9735 6.47581 C.2 0.0 **** 0.0
73 H17125 54.4678 17.1067 9.1837 H 0.0 **** 0.053
74 C16972 54.4064 12.2865 6.84043 C.2 0.0 **** 0.0
75 C17026 53.2754 20.2878 3.32499 C.2 0.0 **** -0.1268
76 C16922 51.0811 -2.59587 1.49516 C.3 0.0 **** -0.053
77 C16914 52.6059 -7.13551 -0.697718 C.3 0.0 **** -0.106
78 C16974 53.5461 11.9885 4.53883 C.2 0.0 **** 0.0
79 H17100 58.2245 9.83717 11.6187 H 0.0 **** 0.053
80 C16962 54.443 8.88243 8.53325 C.2 0.0 **** 0.0
81 C16925 51.6447 1.65834 1.18175 C.2 0.0 **** 0.232
82 H17086 56.1354 -4.11928 5.78502 H 0.0 **** 0.053
83 H17141 53.1205 18.2504 2.69266 H 0.0 **** 0.1268
84 O17006 53.6555 16.1615 3.93801 O.3 0.0 **** -0.0685
85 C16920 50.8953 -0.420634 0.17884 C.2 0.0 **** 0.0
86 C16944 53.4219 -3.12516 5.80456 C.2 0.0 **** 0.0
87 C16995 53.5726 9.51145 -2.23928 C.3 0.0 **** -0.106
88 C17022 57.1967 -0.8722 5.10936 C.3 0.0 **** -0.159
89 H17089 54.5165 -2.92618 8.89739 H 0.0 **** 0.053
90 C16911 51.9745 -4.20154 -1.1342 C.3 0.0 **** -0.053
91 H17122 52.8838 14.4341 2.1725 H 0.0 **** 0.1268
92 C16998 53.1547 12.5733 3.28921 C.2 0.0 **** 0.0
93 H17130 58.8557 15.9957 9.82585 H 0.0 **** 0.053
94 C17046 56.3217 22.3411 11.1719 C.2 0.0 **** 0.0
95 C16919 50.409 -1.11479 -0.917555 C.2 0.0 **** 0.0
96 H17118 52.399 10.607 -3.71997 H 0.0 **** 0.053
97 H17063 50.7014 -7.07461 0.374221 H 0.0 **** 0.053
98 H17082 52.5401 -4.57204 8.69887 H 0.0 **** 0.053
99 H17143 53.0297 22.9839 3.30121 H 0.0 **** 0.1268
100 C17016 54.9136 18.7837 6.94996 C.2 0.0 **** 0.0
101 C16947 55.8259 -2.5425 7.1954 C.3 0.0 **** -0.106
102 C16942 52.2604 -4.01417 7.79157 C.3 0.0 **** -0.106
103 C16959 53.8333 8.60216 6.1582 C.2 0.0 **** 0.0
104 C16948 54.7581 -3.36777 7.91336 C.3 0.0 **** -0.106
105 H17150 57.852 21.5125 12.4433 H 0.0 **** 0.053
106 C16955 53.9111 5.78887 6.47165 C.2 0.0 **** 0.0
107 H17126 57.2867 17.7612 8.29046 H 0.0 **** 0.053
108 C17043 56.3374 20.0701 10.1527 C.2 0.0 **** -0.1268
109 H17069 50.169 -4.21467 -2.27721 H 0.0 **** 0.053
110 C17001 53.6292 14.7902 4.1425 C.2 0.0 **** 0.042
111 H17092 54.3059 3.97663 7.58522 H 0.0 **** 0.1268
112 C17015 57.1889 15.1726 8.70436 C.3 0.0 **** -0.106
113 C16980 57.4299 9.77492 12.3841 C.3 0.0 **** -0.106
114 H17107 55.8239 14.8844 12.3071 H 0.0 **** 0.053
115 H17103 54.7295 11.1732 11.9977 H 0.0 **** 0.053
116 C17014 57.7785 15.8208 9.97127 C.3 0.0 **** -0.106
117 H17096 56.7516 8.75835 9.79836 H 0.0 **** 0.053
118 H17128 57.7871 17.8329 10.8175 H 0.0 **** 0.053
119 C17038 55.4716 21.9711 8.88753 C.2 0.0 **** 0.0
120 C16999 52.74 11.7325 2.25656 C.2 0.0 **** -0.1268
121 H17060 52.6603 -3.45424 -0.703963 H 0.0 **** 0.053
122 C16932 52.6856 3.17335 3.3279 C.2 0.0 **** 0.0
123 C16924 51.9919 1.00662 2.40397 C.2 0.0 **** 0.0
124 C17049 57.1351 23.9904 13.4104 C.3 0.0 **** -0.086
125 C16969 52.6999 7.47096 2.72227 C.2 0.0 **** 0.0
126 H17110 58.2994 12.2701 11.7131 H 0.0 **** 0.353
127 C16992 52.0035 8.00284 -0.871547 C.3 0.0 **** 0.107
128 H17053 54.8325 -3.36131 -0.794007 H 0.0 **** 0.053
129 C16964 54.2736 10.8678 7.06189 C.2 0.0 **** 0.0
130 O17024 54.651 7.13955 10.3639 O.3 0.0 **** -0.57
131 C17036 54.6948 23.8678 7.53041 C.2 0.0 **** 0.0
132 C17003 54.5484 15.0905 6.39043 C.2 0.0 **** 0.0
133 H17059 53.7241 -4.45486 -4.04395 H 0.0 **** 0.053
134 H17113 54.1025 8.31136 -0.49608 H 0.0 **** 0.053
135 C16928 49.7676 1.04844 -2.0135 C.3 0.0 **** -0.106
136 H17114 53.7569 7.35165 -1.94135 H 0.0 **** 0.053
137 H17129 57.6798 15.1228 10.8146 H 0.0 **** 0.053
138 H17140 53.7576 6.79444 10.2126 H 0.0 **** 0.41
139 C16977 55.9647 9.14493 10.4654 C.3 0.0 **** -0.053
140 C17011 54.9601 17.3976 7.16279 C.2 0.0 **** 0.0
141 O16930 51.8576 3.01707 1.04833 O.3 0.0 **** -0.464
142 O16915 50.0802 -4.59337 0.415109 O.3 0.0 **** -0.32
143 C16912 51.3775 -5.06226 0.0157627 C.3 0.0 **** 0.107
144 H17055 54.1241 -5.20906 0.439844 H 0.0 **** 0.053
145 C17000 54.0585 14.2385 5.38913 C.2 0.0 **** 0.0
146 H17077 49.1075 -4.0828 5.22681 H 0.0 **** 0.053
147 C17021 57.1618 -2.40193 4.99721 C.3 0.0 **** -0.053
148 C17050 56.7284 24.62 12.084 C.2 0.0 **** 0.347
149 C17042 54.8239 26.1283 8.42711 C.2 0.0 **** -0.1268
150 C17037 55.2606 23.3717 8.74379 C.2 0.0 **** 0.0
151 C16956 53.4879 6.34432 5.22518 C.2 0.0 **** 0.0
152 C17013 57.0745 17.1538 10.3281 C.3 0.0 **** -0.106
153 C17017 54.3695 19.2893 5.73535 C.2 0.0 **** 0.0
154 C16958 53.4692 7.75498 5.06693 C.2 0.0 **** 0.0
155 C16931 52.2828 3.76699 2.11792 C.2 0.0 **** 0.232
156 H17058 53.4841 -3.11113 -2.88484 H 0.0 **** 0.053
157 N16986 57.8716 12.1887 12.6363 N.3 0.0 **** -0.727
158 H17121 52.4308 12.1617 1.30479 H 0.0 **** 0.1268
159 C16906 54.6056 -5.5262 -0.498737 C.3 0.0 **** -0.106
160 C16938 51.2272 -4.16677 5.53094 C.2 0.0 **** 0.0
161 C16961 54.2619 6.62008 7.53091 C.2 0.0 **** -0.1268
162 H17066 49.0376 -2.96943 1.00846 H 0.0 **** 0.053
163 C17034 53.9276 25.7481 6.14095 C.2 0.0 **** -0.1268
164 C17041 55.3774 25.6539 9.59799 C.2 0.0 **** -0.1268
165 H17133 57.0366 -2.66377 3.93061 H 0.0 **** 0.053
166 C17023 58.4887 -3.0003 5.47547 C.3 0.0 **** -0.159
167 C16913 51.2275 -6.51267 -0.410772 C.3 0.0 **** -0.106
168 C16967 52.2856 5.12838 1.90631 C.2 0.0 **** -0.1268
169 C16917 50.0234 -2.55623 -0.87082 C.3 0.0 **** -0.053
170 C16988 52.3091 9.49128 1.36125 C.2 0.0 **** 0.042
171 H17076 49.3791 -0.95739 -2.78607 H 0.0 **** 0.053
172 H17131 57.4023 14.0932 8.68459 H 0.0 **** 0.053
173 H17132 57.6435 15.5952 7.79432 H 0.0 **** 0.053
174 H17136 56.2379 -0.407513 4.83359 H 0.0 **** 0.053
175 C16927 50.8405 1.75372 -1.18313 C.3 0.0 **** -0.106
176 C16937 52.1245 -3.23337 5.09888 C.2 0.0 **** 0.0
177 H17052 56.3538 -4.27532 -0.980741 H 0.0 **** 0.053
178 C17029 54.5457 21.5811 6.62594 C.2 0.0 **** 0.0
179 H17139 59.3359 -2.59468 4.90182 H 0.0 **** 0.053
180 C16994 53.4432 8.23968 -1.37327 C.3 0.0 **** -0.106
181 C16966 52.6928 6.03482 2.90702 C.2 0.0 **** 0.0
182 C16946 55.9672 -3.0267 5.74804 C.3 0.0 **** -0.053
183 C17008 54.5431 16.5153 6.16251 C.2 0.0 **** 0.0
184 H17127 56.2527 16.9807 11.0437 H 0.0 **** 0.053
185 H17142 52.8635 20.6912 2.39824 H 0.0 **** 0.1268
186 H17061 52.0468 -5.02414 0.896895 H 0.0 **** 0.053
187 H17106 55.1616 13.5629 13.2791 H 0.0 **** 0.053
188 H17056 54.1152 -6.72027 -2.20686 H 0.0 **** 0.053
189 H17068 51.2398 -2.86285 -2.67231 H 0.0 **** 0.053
190 H17090 55.1472 -4.38061 8.13561 H 0.0 **** 0.053
191 H17071 50.5456 2.78742 -0.952018 H 0.0 **** 0.053
192 C16940 50.0719 -4.04652 3.31213 C.2 0.0 **** -0.1268
193 H17145 53.7689 26.8232 6.03625 H 0.0 **** 0.1268
194 H17072 51.7681 1.82728 -1.78191 H 0.0 **** 0.053
195 H17080 50.5255 -5.23149 7.25546 H 0.0 **** 0.053
196 C17027 53.6409 21.2104 4.36059 C.2 0.0 **** 0.0
197 C16960 54.1887 8.01788 7.42749 C.2 0.0 **** 0.0
198 H17085 54.6162 -1.73166 4.66129 H 0.0 **** 0.053
199 H17134 57.9763 -0.455535 4.45398 H 0.0 **** 0.053
200 C16996 52.2783 9.76765 -3.01948 C.3 0.0 **** -0.106
201 C16991 51.2139 9.29426 -0.738701 C.3 0.0 **** 0.107
202 H17065 53.074 -7.44487 0.251279 H 0.0 **** 0.053
203 H17135 57.4313 -0.566647 6.14074 H 0.0 **** 0.053
204 C16934 50.936 -3.08503 2.91678 C.2 0.0 **** 0.0
205 H17091 52.9649 -0.81228 5.70601 H 0.0 **** 0.1268
206 C17032 53.4556 22.5902 4.22674 C.2 0.0 **** -0.1268
207 H17104 56.4274 13.2192 10.5129 H 0.0 **** 0.053
208 C16983 55.6508 12.9845 11.2611 C.3 0.0 **** -0.106
209 H17112 51.4609 7.31857 -1.53929 H 0.0 **** 0.053
210 H17119 50.1477 9.80602 -2.53922 H 0.0 **** 0.053
211 H17149 56.2609 20.7678 12.6231 H 0.0 **** 0.053
212 H17154 56.9337 24.7339 14.1947 H 0.0 **** 0.053
213 H17062 50.5932 -6.54536 -1.31129 H 0.0 **** 0.053
214 H17146 55.6442 26.3435 10.3917 H 0.0 **** 0.1268
215 C16978 54.6401 8.52154 10.0022 C.3 0.0 **** 0.107
216 C17025 53.4188 18.9375 3.48432 C.2 0.0 **** -0.1268
217 C17020 55.3385 19.6922 7.98009 C.2 0.0 **** 0.0
218 O16910 55.1284 -4.35397 -2.59743 O.3 0.0 **** -0.32
219 C16921 51.1972 -1.09007 1.41901 C.2 0.0 **** 0.0
220 C16929 50.1591 -0.416069 -2.22441 C.3 0.0 **** -0.106
221 C16982 55.6939 11.4758 11.5555 C.3 0.0 **** -0.053
222 H17083 51.6141 -3.17535 8.1146 H 0.0 **** 0.053
223 C16979 56.3501 8.79726 11.9084 C.3 0.0 **** -0.106
224 H17120 51.0668 11.1291 -1.80946 H 0.0 **** 0.053
225 H17108 57.3341 13.5194 14.1648 H 0.0 **** 0.053
226 H17095 56.7554 11.0427 9.73138 H 0.0 **** 0.053
227 C16968 53.086 8.31717 3.8046 C.2 0.0 **** 0.0
228 C16997 51.1057 10.0579 -2.06024 C.3 0.0 **** -0.106
229 H17124 55.2789 15.055 9.62261 H 0.0 **** 0.053
230 H17105 54.6889 13.2518 10.8031 H 0.0 **** 0.053
231 H17084 54.6362 -3.3764 4.07051 H 0.0 **** 0.053
232 C17045 56.189 23.7272 11.0134 C.2 0.0 **** 0.052
233 H17098 55.4638 8.86827 12.562 H 0.0 **** 0.053
234 H17057 52.0549 -5.51072 -2.83858 H 0.0 **** 0.053
235 H17097 53.8319 9.02993 10.5677 H 0.0 **** 0.053
236 H17088 56.7862 -2.60704 7.72966 H 0.0 **** 0.053
237 H17137 58.4916 -4.09647 5.36773 H 0.0 **** 0.053
238 C17048 56.4767 22.6452 13.6674 C.3 0.0 **** -0.106
239 C16905 55.2728 -4.30497 -1.17385 C.3 0.0 **** 0.054
240 C16943 53.4955 -3.4785 7.10982 C.2 0.0 **** 0.0
241 H17138 58.6633 -2.76387 6.53721 H 0.0 **** 0.053
242 H17102 56.351 11.1809 13.5892 H 0.0 **** 0.053
243 C17012 56.4929 17.7768 9.06433 C.3 0.0 **** -0.053
244 H17093 54.6298 6.16381 8.44459 H 0.0 **** 0.1268
245 C17004 55.0274 14.5422 7.58741 C.2 0.0 **** 0.0
246 C16973 53.9965 12.8306 5.58665 C.2 0.0 **** 0.0
247 C16926 51.1359 1.00673 0.0926303 C.2 0.0 **** 0.0
248 C16939 50.0101 -4.50815 4.73507 C.3 0.0 **** -0.106
249 H17123 55.3105 12.7811 8.72392 H 0.0 **** 0.1268
250 H17153 58.2329 23.8641 13.3698 H 0.0 **** 0.053
@<TRIPOS>BOND
1 104 101 1
2 14 112 1
3 54 159 1
4 68 54 1
5 24 68 1
6 218 24 1
7 239 159 1
8 239 218 1
9 143 90 1
10 167 143 1
11 77 167 1
12 68 90 1
13 54 77 1
14 50 142 1
15 169 50 1
16 7 169 1
17 143 142 1
18 90 7 1
19 85 95 un
20 219 85 un
21 76 219 un
22 169 95 1
23 50 76 1
24 123 61 1
25 81 123 un
26 247 81 un
27 219 61 un
28 85 247 un
29 135 175 1
30 220 135 1
31 95 220 1
32 247 175 1
33 155 141 1
34 122 155 un
35 52 122 un
36 81 141 1
37 123 52 un
38 62 204 un
39 55 62 2
40 76 204 1
41 61 55 un
42 160 176 2
43 248 160 1
44 192 248 1
45 62 176 1
46 204 192 2
47 102 34 1
48 240 102 1
49 86 240 2
50 160 34 1
51 176 86 1
52 182 40 1
53 101 182 1
54 86 40 1
55 240 104 1
56 5 18 un
57 55 5 un
58 52 18 un
59 26 71 un
60 36 26 1
61 18 36 un
62 122 71 un
63 106 39 un
64 151 106 un
65 59 151 un
66 26 39 un
67 71 59 un
68 103 154 un
69 197 103 un
70 161 197 un
71 151 154 un
72 106 161 un
73 19 80 un
74 129 19 un
75 23 129 un
76 197 80 un
77 103 23 un
78 168 181 un
79 155 168 un
80 59 181 un
81 125 227 un
82 181 125 un
83 154 227 un
84 56 57 un
85 227 56 un
86 23 57 un
87 246 74 un
88 78 246 un
89 57 78 un
90 129 74 un
91 70 17 1
92 139 70 1
93 215 139 1
94 19 17 1
95 80 215 1
96 113 223 1
97 29 113 1
98 221 29 1
99 139 223 1
100 70 221 1
101 46 208 1
102 66 46 1
103 157 66 1
104 221 208 1
105 29 157 1
106 170 38 un
107 25 170 un
108 56 25 un
109 125 38 un
110 201 49 1
111 127 201 1
112 27 127 1
113 170 49 1
114 38 27 1
115 87 180 1
116 200 87 1
117 228 200 1
118 127 180 1
119 201 228 1
120 120 92 un
121 25 120 un
122 78 92 un
123 110 145 un
124 32 110 un
125 92 32 un
126 246 145 un
127 245 132 un
128 67 245 un
129 74 67 un
130 145 132 un
131 41 84 1
132 183 41 un
133 110 84 1
134 132 183 1
135 3 14 1
136 140 3 1
137 245 14 1
138 183 140 un
139 152 243 1
140 116 152 1
141 112 116 1
142 3 243 1
143 153 100 1
144 63 153 1
145 41 63 un
146 140 100 un
147 243 1 1
148 100 217 un
149 1 217 un
150 182 147 1
151 147 88 1
152 147 166 1
153 215 130 1
154 75 216 1
155 196 75 un
156 58 196 1
157 63 216 un
158 153 58 un
159 72 178 un
160 13 72 1
161 206 13 un
162 58 178 un
163 196 206 un
164 163 20 un
165 44 163 1
166 131 44 1
167 13 20 un
168 72 131 un
169 119 150 un
170 22 119 un
171 178 22 un
172 131 150 un
173 164 11 un
174 149 164 un
175 44 149 un
176 150 11 un
177 21 108 un
178 119 21 un
179 217 22 un
180 1 108 un
181 94 232 un
182 21 94 un
183 11 232 un
184 238 60 1
185 124 238 1
186 148 124 1
187 94 60 1
188 232 148 1
189 148 48 2
190 239 177 1
191 239 128 1
192 159 43 1
193 159 144 1
194 54 188 1
195 68 234 1
196 24 156 1
197 24 133 1
198 90 121 1
199 143 186 1
200 167 213 1
201 167 97 1
202 77 45 1
203 77 202 1
204 50 162 1
205 169 30 1
206 7 189 1
207 7 109 1
208 76 37 1
209 175 191 1
210 175 194 1
211 135 15 1
212 135 64 1
213 220 4 1
214 220 171 1
215 248 146 1
216 248 35 1
217 192 33 1
218 34 195 1
219 34 10 1
220 102 98 1
221 102 222 1
222 40 231 1
223 40 198 1
224 182 82 1
225 101 65 1
226 101 236 1
227 104 89 1
228 104 190 1
229 5 205 1
230 39 111 1
231 161 244 1
232 168 51 1
233 70 226 1
234 139 117 1
235 215 235 1
236 223 233 1
237 223 69 1
238 113 79 1
239 113 31 1
240 29 242 1
241 221 115 1
242 208 207 1
243 208 230 1
244 46 187 1
245 46 114 1
246 66 225 1
247 66 9 1
248 157 126 1
249 201 16 1
250 127 209 1
251 180 134 1
252 180 136 1
253 87 47 1
254 87 42 1
255 200 12 1
256 200 96 1
257 228 210 1
258 228 224 1
259 120 158 1
260 32 91 1
261 67 249 1
262 14 229 1
263 3 73 1
264 243 107 1
265 152 184 1
266 152 118 1
267 116 137 1
268 116 93 1
269 112 172 1
270 112 173 1
271 147 165 1
272 88 199 1
273 88 203 1
274 88 174 1
275 166 237 1
276 166 241 1
277 166 179 1
278 130 138 1
279 216 83 1
280 75 185 1
281 206 99 1
282 20 53 1
283 163 193 1
284 164 214 1
285 149 6 1
286 108 8 1
287 60 211 1
288 60 105 1
289 238 2 1
290 238 28 1
291 124 250 1
292 124 212 1
@<TRIPOS>MOLECULE
Sketch 4
130 142
SMALL
USER_CHARGES


@<TRIPOS>ATOM
1 H2709 47.9523 55.3337 45.8157 H 0.0 **** 0.053
2 O2666 54.6094 63.7881 49.2225 O.2 0.0 **** -0.419
3 C2614 54.3339 59.2517 44.6609 C.ar 0.0 **** 0.0
4 H2703 46.559 56.878 47.4773 H 0.0 **** 0.053
5 H2715 56.438 56.1428 42.3599 H 0.0 **** 0.053
6 H2724 54.4463 62.7832 48.2399 H 0.0 **** 0.41
7 C2669 65.1628 70.1914 49.1245 C.3 0.0 **** -0.159
8 H2695 63.9585 67.8364 48.6327 H 0.0 **** 0.1268
9 O2664 59.2853 64.5675 45.5798 O.3 0.0 **** -0.452
10 H2678 57.1638 62.194 40.48 H 0.0 **** 0.053
11 H2728 65.188 71.0418 48.4234 H 0.0 **** 0.053
12 C2618 56.4484 59.2265 43.4827 C.ar 0.0 **** 0.042
13 C2628 56.3155 63.8796 47.5734 C.ar 0.0 **** 0.052
14 C2630 58.1254 64.0375 45.9479 C.ar 0.0 **** 0.042
15 H2721 58.3563 64.9058 39.8795 H 0.0 **** 0.053
16 H2697 46.8221 59.2797 48.3394 H 0.0 **** 0.053
17 O2661 57.4277 58.4972 42.8461 O.3 0.0 **** -0.452
18 H2699 47.6393 61.7771 46.7269 H 0.0 **** 0.053
19 H2676 59.9358 63.0855 42.8825 H 0.0 **** 0.053
20 C2626 58.3146 61.1129 41.9474 C.3 0.0 **** -0.106
21 H2704 50.6726 61.6306 46.6688 H 0.0 **** 0.053
22 C2629 57.5013 64.5053 47.1233 C.ar 0.0 **** 0.052
23 H2687 58.0297 70.0561 54.1737 H 0.0 **** 0.053
24 C2609 52.7131 57.453 44.448 C.ar 0.0 **** 0.0
25 H2692 60.0199 71.7791 50.33 H 0.0 **** 0.053
26 C2643 56.7376 69.7473 52.4646 C.3 0.0 **** -0.106
27 H2673 50.9081 56.502 43.8313 H 0.0 **** 0.053
28 H2696 48.0967 60.391 48.7858 H 0.0 **** 0.053
29 H2681 54.5127 65.5998 50.7148 H 0.0 **** 0.053
30 C2641 58.9429 69.3606 51.2782 C.ar 0.0 **** 0.0
31 C2615 54.7333 60.4361 45.2984 C.ar 0.0 **** -0.1268
32 H2717 59.0811 62.822 39.0233 H 0.0 **** 0.053
33 C2656 46.7242 57.4942 46.5761 C.3 0.0 **** -0.159
34 H2730 65.7344 70.4956 50.0159 H 0.0 **** 0.053
35 C2642 57.6091 68.9836 51.4907 C.ar 0.0 **** 0.0
36 H2712 52.5167 54.8971 43.6897 H 0.0 **** 0.053
37 H2674 54.1141 60.8433 46.081 H 0.0 **** 0.1268
38 H2723 59.4378 65.3485 46.2939 H 0.0 **** 0.41
39 H2689 59.0912 72.1808 53.284 H 0.0 **** 0.053
40 C2636 55.6571 67.4589 50.8607 C.3 0.0 **** -0.106
41 H2690 58.0925 72.0305 51.8237 H 0.0 **** 0.053
42 H2684 55.0713 67.9365 50.0525 H 0.0 **** 0.053
43 H2677 57.1883 63.9556 41.8928 H 0.0 **** 0.053
44 H2679 59.4013 60.9373 42.0687 H 0.0 **** 0.053
45 C2623 58.9229 63.5023 43.035 C.3 0.0 **** -0.106
46 C2658 48.672 55.8482 45.1649 C.3 0.0 **** -0.159
47 C2604 50.7861 58.8761 46.1189 C.ar 0.0 **** 0.0
48 C2627 55.7662 62.781 46.8701 C.ar 0.0 **** 0.042
49 H2686 56.1357 69.0417 53.058 H 0.0 **** 0.053
50 C2635 55.5552 65.9422 50.7262 C.3 0.0 **** -0.106
51 C2634 55.6713 64.3486 48.7691 C.2 0.0 **** 0.367
52 C2652 63.7474 69.8066 49.4767 C.ar 0.0 **** 0.0
53 H2698 46.3716 60.6365 46.24 H 0.0 **** 0.053
54 C2654 47.5836 59.9504 47.9183 C.3 0.0 **** -0.106
55 H2726 64.2825 72.3594 50.0047 H 0.0 **** 0.053
56 H2716 58.2752 58.951 42.978 H 0.0 **** 0.41
57 C2668 63.3197 72.1102 50.4654 C.3 0.0 **** -0.159
58 H2693 61.1142 71.9983 51.6986 H 0.0 **** 0.053
59 H2705 51.2491 60.7945 48.1072 H 0.0 **** 0.053
60 H2694 61.6103 67.1425 49.1455 H 0.0 **** 0.1268
61 C2603 50.404 57.6521 45.5652 C.ar 0.0 **** 0.0
62 H2670 52.0942 60.4644 45.5649 H 0.0 **** 0.053
63 C2612 54.7903 57.3505 43.1285 C.ar 0.0 **** 0.0
64 C2655 46.896 61.0617 47.1094 C.3 0.0 **** -0.159
65 H2671 52.6681 59.5177 46.9052 H 0.0 **** 0.053
66 H2700 46.1651 61.6129 47.7212 H 0.0 **** 0.053
67 H2682 56.0383 65.4605 51.5971 H 0.0 **** 0.053
68 C2662 59.2101 62.1014 39.8426 C.3 0.0 **** -0.159
69 H2707 49.5277 55.176 45.0252 H 0.0 **** 0.053
70 C2622 56.3881 62.2863 45.6652 C.ar 0.0 **** 0.0
71 H2702 46.0302 58.343 46.6312 H 0.0 **** 0.053
72 C2619 57.72 61.3833 43.3102 C.2 0.0 **** 0.0
73 H2675 59.0551 64.4837 43.491 H 0.0 **** 0.053
74 C2660 55.575 56.7233 41.9977 C.3 0.0 **** -0.159
75 C2632 57.4175 66.0929 49.0685 C.ar 0.0 **** 0.0
76 C2620 58.0877 62.5859 43.8988 C.2 0.0 **** 0.0
77 H2683 55.2028 67.7805 51.8061 H 0.0 **** 0.053
78 H2706 49.5985 61.4541 48.0648 H 0.0 **** 0.053
79 H2688 56.8304 71.3374 53.9333 H 0.0 **** 0.053
80 H2720 58.796 65.7322 41.3949 H 0.0 **** 0.053
81 C2602 49.0884 57.181 45.7456 C.ar 0.0 **** 0.0
82 C2653 62.8747 70.7069 50.1239 C.ar 0.0 **** 0.0
83 H2672 51.5671 55.8746 45.3179 H 0.0 **** 0.053
84 C2647 60.5905 71.2344 51.1073 C.3 0.0 **** -0.106
85 H2691 60.1907 70.0539 52.8426 H 0.0 **** 0.053
86 C2624 58.2249 63.6548 41.6686 C.ar 0.0 **** -0.053
87 C2613 55.2068 58.5894 43.7276 C.ar 0.0 **** 0.0
88 C2651 63.2816 68.5248 49.1435 C.ar 0.0 **** -0.1268
89 C2606 48.5691 59.1598 47.0835 C.ar 0.0 **** 0.0
90 H2719 60.2258 62.2282 40.2505 H 0.0 **** 0.053
91 H2725 62.5816 72.8544 50.1293 H 0.0 **** 0.053
92 C2611 53.5897 56.7761 43.5336 C.ar 0.0 **** 0.0
93 C2648 61.5677 70.2954 50.4446 C.ar 0.0 **** 0.0
94 C2645 58.5785 71.456 52.632 C.3 0.0 **** -0.106
95 H2714 54.9409 56.0591 41.3997 H 0.0 **** 0.053
96 C2633 56.2519 65.4777 49.4805 C.ar 0.0 **** 0.0
97 O2665 54.6626 62.2237 47.3616 O.3 0.0 **** -0.452
98 C2646 59.6021 70.5023 52.0169 C.3 0.0 **** -0.053
99 C2607 52.1697 59.422 45.9208 C.3 0.0 **** -0.106
100 H2685 56.0106 70.3467 51.8875 H 0.0 **** 0.053
101 H2727 63.4289 72.2411 51.5556 H 0.0 **** 0.053
102 N2639 59.2389 67.5592 49.701 N.ar 0.0 **** -0.481
103 H2718 59.1445 61.0872 39.4192 H 0.0 **** 0.053
104 C2649 61.1153 69.0065 50.0931 C.ar 0.0 **** 0.0
105 C2631 58.0919 65.6178 47.8421 C.2 0.0 **** 0.367
106 C2650 61.9832 68.1251 49.4344 C.ar 0.0 **** -0.1268
107 H2708 48.189 55.9684 44.179 H 0.0 **** 0.053
108 C2625 58.1594 62.2866 40.942 C.ar 0.0 **** -0.053
109 C2605 49.8801 59.6314 46.8904 C.ar 0.0 **** 0.0
110 C2663 58.8619 64.7794 40.8488 C.3 0.0 **** -0.159
111 O2667 59.1508 66.1623 47.3961 O.2 0.0 **** -0.419
112 H2713 55.9764 57.4944 41.3296 H 0.0 **** 0.053
113 H2680 57.8921 60.2213 41.4744 H 0.0 **** 0.053
114 C2617 56.723 60.5483 43.9139 C.ar 0.0 **** 0.0
115 C2616 55.9119 61.1046 44.9713 C.ar 0.0 **** 0.0
116 C2659 53.1623 55.4335 42.9836 C.3 0.0 **** -0.159
117 C2608 53.0702 58.6691 44.986 C.ar 0.0 **** 0.0
118 H2729 65.6872 69.3496 48.6522 H 0.0 **** 0.053
119 C2640 59.7184 68.618 50.3623 C.ar 0.0 **** 0.2405
120 H2710 54.0253 54.7891 42.7736 H 0.0 **** 0.053
121 H2711 52.5927 55.5404 42.0436 H 0.0 **** 0.053
122 C2610 51.3843 56.822 44.7736 C.3 0.0 **** -0.106
123 C2621 57.5371 62.9688 45.1684 C.ar 0.0 **** 0.0
124 C2644 57.5246 70.6657 53.4059 C.3 0.0 **** -0.106
125 H2701 46.4305 56.8886 45.7094 H 0.0 **** 0.053
126 C2637 57.0926 67.9013 50.7594 C.ar 0.0 **** 0.0
127 C2638 57.9538 67.2158 49.8675 C.ar 0.0 **** 0.2405
128 C2657 50.3611 60.9406 47.4704 C.3 0.0 **** -0.159
129 C2601 48.1621 57.9558 46.4678 C.ar 0.0 **** 0.0
130 H2722 59.9252 64.5773 40.6507 H 0.0 **** 0.053
@<TRIPOS>BOND
1 127 126 am
2 99 65 1
3 86 43 1
4 61 81 am
5 47 61 am
6 109 47 am
7 89 109 am
8 129 81 am
9 129 89 am
10 117 99 1
11 24 117 am
12 122 24 1
13 47 99 1
14 61 122 1
15 63 92 am
16 87 63 am
17 3 87 am
18 24 92 am
19 117 3 am
20 115 31 am
21 114 115 am
22 12 114 am
23 3 31 am
24 87 12 am
25 76 72 1
26 123 76 1
27 70 123 am
28 114 72 1
29 115 70 am
30 86 45 1
31 108 86 am
32 20 108 1
33 76 45 1
34 72 20 1
35 13 48 am
36 22 13 am
37 14 22 am
38 70 48 am
39 123 14 am
40 75 105 1
41 96 75 am
42 51 96 1
43 22 105 1
44 13 51 1
45 40 50 1
46 126 40 1
47 96 50 1
48 75 127 am
49 119 102 am
50 30 119 am
51 35 30 am
52 127 102 am
53 126 35 am
54 124 26 1
55 94 124 1
56 98 94 1
57 35 26 1
58 30 98 1
59 93 84 1
60 104 93 am
61 119 104 am
62 98 84 1
63 88 106 am
64 52 88 am
65 82 52 am
66 104 106 am
67 93 82 am
68 89 54 1
69 54 64 1
70 129 33 1
71 109 128 1
72 81 46 1
73 92 116 1
74 63 74 1
75 12 17 1
76 108 68 1
77 86 110 1
78 14 9 1
79 48 97 1
80 51 2 2
81 105 111 2
82 82 57 1
83 52 7 1
84 99 62 1
85 122 83 1
86 122 27 1
87 31 37 1
88 45 73 1
89 45 19 1
90 108 10 1
91 20 44 1
92 20 113 1
93 50 29 1
94 50 67 1
95 40 77 1
96 40 42 1
97 26 100 1
98 26 49 1
99 124 23 1
100 124 79 1
101 94 39 1
102 94 41 1
103 98 85 1
104 84 25 1
105 84 58 1
106 106 60 1
107 88 8 1
108 54 28 1
109 54 16 1
110 64 53 1
111 64 18 1
112 64 66 1
113 33 125 1
114 33 71 1
115 33 4 1
116 128 21 1
117 128 59 1
118 128 78 1
119 46 69 1
120 46 107 1
121 46 1 1
122 116 120 1
123 116 121 1
124 116 36 1
125 74 112 1
126 74 95 1
127 74 5 1
128 17 56 1
129 68 32 1
130 68 103 1
131 68 90 1
132 110 80 1
133 110 15 1
134 110 130 1
135 9 38 1
136 97 6 1
137 57 91 1
138 57 55 1
139 57 101 1
140 7 11 1
141 7 118 1
142 7 34 1
@<TRIPOS>MOLECULE
Sketch 4
250 292
SMALL
USER_CHARGES


@<TRIPOS>ATOM
1 C13186 27.0274 63.895 33.3857 C.2 0.0 **** 0.0
2 C13214 38.25 61.9047 27.9752 C.2 0.0 **** 0.0
3 H13313 20.5576 65.952 35.0473 H 0.0 **** 0.053
4 C13299 51.9657 58.0917 23.7284 C.3 0.0 **** -0.086
5 H13386 27.5315 59.8293 32.0695 H 0.0 **** 0.053
6 H13373 40.5587 60.476 27.6191 H 0.0 **** 0.1268
7 H13392 43.8309 66.299 19.6218 H 0.0 **** 0.1268
8 H13340 26.3483 58.9256 37.1352 H 0.0 **** 0.053
9 H13383 25.0618 59.2488 32.3981 H 0.0 **** 0.053
10 H13399 49.0594 58.8478 25.387 H 0.0 **** 0.053
11 C13258 42.2766 62.6944 23.983 C.2 0.0 **** 0.0
12 H13364 30.4349 65.8599 23.856 H 0.0 **** 0.053
13 C13199 29.1317 63.0218 32.4672 C.2 0.0 **** -0.012
14 C13167 23.6346 67.6104 31.8524 C.3 0.0 **** -0.053
15 C13253 41.2489 62.4292 24.9605 C.2 0.0 **** 0.0
16 C13295 50.5664 59.9445 22.5798 C.2 0.0 **** 0.052
17 H13344 30.8373 66.0144 27.7132 H 0.0 **** 0.1268
18 C13250 40.079 63.2034 24.9464 C.2 0.0 **** 0.0
19 H13310 22.5568 65.0775 31.3942 H 0.0 **** 0.053
20 C13294 48.2324 60.2269 23.2981 C.2 0.0 **** 0.0
21 C13272 27.1483 58.7996 32.134 C.3 0.0 **** -0.159
22 C13237 33.2128 65.738 26.4281 C.2 0.0 **** 0.042
23 C13211 35.0728 61.2294 30.7525 C.2 0.0 **** -0.1268
24 H13350 39.3071 56.2831 30.1472 H 0.0 **** 0.053
25 C13265 42.1697 59.0761 25.4528 C.3 0.0 **** -0.106
26 C13277 45.2221 64.8142 20.3864 C.2 0.0 **** 0.0
27 H13317 23.563 68.697 32.0507 H 0.0 **** 0.053
28 C13239 35.4789 65.2395 25.6465 C.2 0.0 **** 0.0
29 C13224 37.8647 63.7737 25.8517 C.2 0.0 **** 0.0
30 O13165 22.6958 66.772 33.9073 O.3 0.0 **** -0.32
31 H13359 43.5461 56.4531 28.4583 H 0.0 **** 0.053
32 C13261 43.4828 61.9892 24.0091 C.2 0.0 **** 0.0
33 H13388 26.1698 56.6553 33.6216 H 0.0 **** 0.053
34 H13354 41.7298 58.7532 28.1673 H 0.0 **** 0.053
35 C13285 50.0499 63.2239 19.8294 C.2 0.0 **** 0.0
36 C13257 42.0731 63.7074 23.0303 C.2 0.0 **** 0.0265
37 C13212 37.4383 60.8912 30.0846 C.2 0.0 **** 0.0
38 C13175 27.9292 65.7517 30.2072 C.2 0.0 **** 0.232
39 H13389 25.2759 56.78 32.0915 H 0.0 **** 0.053
40 C13287 49.1608 61.7159 21.5668 C.2 0.0 **** 0.0
41 C13204 32.8007 61.6318 31.5279 C.2 0.0 **** -0.1268
42 H13391 41.9748 65.6644 21.126 H 0.0 **** 0.1268
43 H13377 45.1053 59.1075 26.4523 H 0.0 **** 0.053
44 C13176 26.8755 66.6037 30.0238 C.2 0.0 **** 0.0
45 C13263 44.7058 58.7015 25.5075 C.3 0.0 **** -0.106
46 C13262 44.5993 59.839 24.4983 C.3 0.0 **** -0.053
47 C13156 20.6655 63.0131 31.9241 C.3 0.0 **** -0.106
48 O13274 37.0182 59.7155 32.2922 O.3 0.0 **** -0.57
49 H13384 26.987 58.433 31.1091 H 0.0 **** 0.053
50 C13249 36.512 65.4524 24.722 C.2 0.0 **** -0.1268
51 H13328 24.3693 64.9824 37.6676 H 0.0 **** 0.053
52 C13179 24.5865 68.3175 29.6108 C.3 0.0 **** -0.106
53 C13235 43.2287 56.8625 29.4288 C.3 0.0 **** 0.081
54 H13375 44.464 61.5227 25.8065 H 0.0 **** 0.053
55 C13219 33.3266 64.8025 27.5166 C.2 0.0 **** 0.0
56 C13193 26.7817 60.9491 36.5769 C.2 0.0 **** 0.0
57 C13217 31.04 65.2596 28.4587 C.2 0.0 **** -0.1268
58 H13306 18.8218 64.0546 31.608 H 0.0 **** 0.053
59 C13223 39.0593 63.0135 25.9207 C.2 0.0 **** 0.0
60 C13194 26.3479 61.6195 35.4831 C.2 0.0 **** 0.0
61 C13158 20.4374 65.4156 31.2435 C.3 0.0 **** -0.053
62 H13367 31.0115 68.2928 22.4935 H 0.0 **** 0.053
63 H13394 48.4964 65.7659 18.125 H 0.0 **** 0.1268
64 H13366 33.0795 66.0351 22.3558 H 0.0 **** 0.053
65 C13228 37.937 60.0387 31.2471 C.3 0.0 **** 0.107
66 C13229 38.9424 57.7163 31.7257 C.3 0.0 **** -0.106
67 H13365 31.4359 65.9207 21.7029 H 0.0 **** 0.053
68 C13267 44.3141 63.3497 22.159 C.2 0.0 **** 0.0
69 H13343 35.1539 60.4534 31.5072 H 0.0 **** 0.1268
70 C13198 27.1099 59.4849 36.5574 C.3 0.0 **** -0.106
71 H13339 28.0606 59.3257 37.0982 H 0.0 **** 0.053
72 H13329 24.1003 66.449 35.688 H 0.0 **** 0.1268
73 H13314 18.5341 64.9814 33.7026 H 0.0 **** 0.053
74 C13157 19.7979 64.2814 32.0609 C.3 0.0 **** -0.053
75 H13380 43.1856 57.1938 25.0808 H 0.0 **** 0.053
76 C13210 36.1599 61.4985 29.9064 C.2 0.0 **** 0.0
77 H13349 38.0663 57.2723 32.215 H 0.0 **** 0.053
78 H13346 37.6592 58.2651 30.0926 H 0.0 **** 0.053
79 C13297 49.6769 58.5643 24.5232 C.3 0.0 **** -0.106
80 H13385 27.9352 58.1785 32.5892 H 0.0 **** 0.053
81 C13278 45.3898 63.7327 21.3104 C.2 0.0 **** 0.0
82 H13355 42.2117 60.1866 29.0734 H 0.0 **** 0.053
83 H13370 34.0228 68.6386 22.8922 H 0.0 **** 0.053
84 C13195 25.9697 60.906 34.2056 C.3 0.0 **** -0.106
85 C13205 33.8638 61.9068 30.6279 C.2 0.0 **** 0.0
86 C13220 36.8337 63.5652 26.8053 C.2 0.0 **** 0.0
87 H13309 19.6925 65.4563 29.1714 H 0.0 **** 0.053
88 C13161 21.8251 65.792 31.8041 C.3 0.0 **** -0.053
89 O13243 32.0285 66.4178 26.2514 O.3 0.0 **** -0.202
90 H13404 53.0422 58.0173 23.938 H 0.0 **** 0.053
91 H13320 24.1049 64.8542 32.6619 H 0.0 **** 0.053
92 C13222 39.2531 62.0428 26.9485 C.2 0.0 **** 0.0
93 C13247 33.0074 68.5904 23.3147 C.3 0.0 **** -0.106
94 C13241 33.112 67.8355 24.6415 C.3 0.0 **** 0.107
95 C13169 24.7116 67.4495 30.8312 C.2 0.0 **** 0.0
96 C13268 43.0786 64.069 22.1138 C.2 0.0 **** 0.0
97 H13353 41.1907 59.3974 31.0944 H 0.0 **** 0.053
98 H13319 21.4769 67.8997 31.7527 H 0.0 **** 0.053
99 C13177 26.8146 67.5044 28.8164 C.3 0.0 **** -0.106
100 C13188 25.7195 63.5826 36.7977 C.2 0.0 **** 0.0
101 H13324 26.4538 69.3769 29.8328 H 0.0 **** 0.053
102 O13301 52.6638 59.1292 21.7209 O.2 0.0 **** -0.419
103 C13254 41.3958 61.4209 25.922 C.2 0.0 **** 0.0
104 C13191 25.8026 62.7157 38.0229 C.3 0.0 **** -0.106
105 C13292 51.2905 62.5568 19.9399 C.2 0.0 **** -0.1268
106 C13206 33.6856 62.8874 29.6042 C.2 0.0 **** 0.0
107 C13276 43.9547 65.4841 20.3372 C.2 0.0 **** -0.1268
108 H13393 46.1677 66.0206 18.8725 H 0.0 **** 0.1268
109 H13303 22.216 63.184 30.3775 H 0.0 **** 0.053
110 C13286 48.9772 62.803 20.6597 C.2 0.0 **** 0.0
111 C13226 39.6257 59.0821 29.6885 C.3 0.0 **** 0.107
112 O13180 28.9196 65.7735 29.244 O.3 0.0 **** -0.464
113 C13298 51.1305 58.4167 24.9557 C.3 0.0 **** -0.106
114 H13311 22.2862 64.7556 33.6804 H 0.0 **** 0.053
115 H13348 39.5159 58.2346 32.5133 H 0.0 **** 0.053
116 H13307 19.7942 66.3082 31.3203 H 0.0 **** 0.053
117 C13290 50.4131 61.0368 21.6407 C.2 0.0 **** 0.0
118 C13252 38.7517 64.9288 23.8435 C.2 0.0 **** -0.1268
119 C13270 45.7373 61.5582 23.1104 C.2 0.0 **** 0.0
120 C13202 31.6126 62.3132 31.4566 C.2 0.0 **** -0.012
121 O13240 34.204 66.8958 24.5406 O.3 0.0 **** -0.202
122 C13281 47.5411 64.5491 19.6491 C.2 0.0 **** 0.0
123 H13326 23.9639 69.1966 29.8486 H 0.0 **** 0.053
124 C13178 25.9576 68.743 29.0801 C.3 0.0 **** -0.106
125 C13284 49.8503 64.3038 18.9161 C.2 0.0 **** -0.1268
126 C13183 29.1134 63.957 31.3799 C.2 0.0 **** 0.0
127 C13231 41.1667 57.2648 30.6503 C.3 0.0 **** 0.134
128 C13238 34.2659 65.9702 25.5567 C.2 0.0 **** 0.042
129 C13273 25.4117 57.2437 33.0804 C.3 0.0 **** -0.159
130 H13341 28.2438 62.3338 34.2735 H 0.0 **** 0.1268
131 C13255 40.4143 61.2488 26.8807 C.2 0.0 **** -0.1268
132 C13259 42.5764 60.4864 25.9169 C.3 0.0 **** -0.053
133 C13200 28.1491 63.0129 33.4265 C.2 0.0 **** -0.1268
134 H13396 52.4294 60.9981 20.863 H 0.0 **** 0.1268
135 C13162 21.8734 65.731 33.3576 C.3 0.0 **** 0.107
136 C13245 32.049 66.3991 22.4807 C.3 0.0 **** -0.106
137 H13402 51.4718 59.3651 25.4019 H 0.0 **** 0.053
138 C13172 24.7523 65.6368 33.107 C.3 0.0 **** -0.053
139 H13322 26.3821 66.942 27.9673 H 0.0 **** 0.053
140 C13279 46.6415 63.0676 21.3974 C.2 0.0 **** 0.0
141 C13215 37.0303 62.6312 27.8763 C.2 0.0 **** 0.0
142 C13174 28.0285 64.8386 31.3006 C.2 0.0 **** 0.0
143 H13337 28.1041 59.3275 34.6486 H 0.0 **** 0.053
144 H13371 36.3778 66.1893 23.9316 H 0.0 **** 0.1268
145 C13184 25.1781 65.0963 34.4515 C.2 0.0 **** 0.0
146 H13305 21.5303 63.0741 32.6037 H 0.0 **** 0.053
147 H13395 50.6895 64.6132 18.29 H 0.0 **** 0.1268
148 C13173 26.9662 64.8531 32.2783 C.2 0.0 **** 0.0
149 H13378 45.4108 57.9297 25.1674 H 0.0 **** 0.053
150 C13218 34.5548 64.0854 27.6342 C.2 0.0 **** 0.0
151 C13192 26.938 61.6982 37.8775 C.3 0.0 **** -0.106
152 C13271 25.8515 58.7054 32.9486 C.3 0.0 **** -0.053
153 H13335 26.6346 61.2039 33.3806 H 0.0 **** 0.053
154 C13189 25.2011 64.9765 36.9363 C.3 0.0 **** -0.106
155 H13330 25.9426 63.3435 38.9173 H 0.0 **** 0.053
156 C13288 48.0709 61.3058 22.3859 C.2 0.0 **** 0.0
157 H13401 51.2287 57.6348 25.724 H 0.0 **** 0.053
158 H13312 20.0588 66.8377 33.5983 H 0.0 **** 0.053
159 C13280 47.7194 63.4703 20.5743 C.2 0.0 **** 0.0
160 H13362 31.0201 67.736 25.1097 H 0.0 **** 0.053
161 C13187 26.0825 63.0728 35.5846 C.2 0.0 **** 0.0
162 C13159 20.5046 64.9965 29.7519 C.3 0.0 **** 0.054
163 H13360 41.3191 56.4519 28.7845 H 0.0 **** 0.353
164 H13318 22.1705 67.2664 30.2534 H 0.0 **** 0.053
165 H13400 49.2942 57.587 24.173 H 0.0 **** 0.053
166 C13182 30.1862 64.0649 30.42 C.2 0.0 **** 0.0
167 H13338 27.282 57.8367 35.1505 H 0.0 **** 0.053
168 H13398 47.1766 58.8776 24.63 H 0.0 **** 0.1268
169 H13397 52.1235 62.8921 19.3183 H 0.0 **** 0.1268
170 H13376 44.0188 59.4618 23.6323 H 0.0 **** 0.053
171 C13170 25.8076 66.6193 31.0047 C.2 0.0 **** 0.0
172 C13234 43.418 58.4053 29.4549 C.3 0.0 **** -0.106
173 C13196 25.9676 59.3784 34.3324 C.3 0.0 **** -0.053
174 H13361 33.3306 68.519 25.4788 H 0.0 **** 0.053
175 H13315 19.7893 63.8408 34.1906 H 0.0 **** 0.053
176 H13345 39.4722 58.5503 28.7308 H 0.0 **** 0.053
177 H13331 24.8404 62.1811 38.1582 H 0.0 **** 0.053
178 C13216 32.2677 64.5657 28.4753 C.2 0.0 **** 0.0
179 C13163 20.4839 65.8847 33.9524 C.3 0.0 **** -0.106
180 C13269 45.869 60.3863 23.9063 C.2 0.0 **** 0.0
181 O13225 39.6442 60.5051 29.3824 O.3 0.0 **** -0.202
182 C13171 25.9103 65.737 32.1397 C.2 0.0 **** 0.0
183 C13291 51.47 61.5015 20.8096 C.2 0.0 **** -0.1268
184 H13381 41.2479 58.7711 25.9708 H 0.0 **** 0.053
185 C13166 23.9381 66.9368 33.2027 C.3 0.0 **** 0.107
186 H13363 31.9655 65.0349 24.1812 H 0.0 **** 0.053
187 H13358 43.8699 56.3973 30.1966 H 0.0 **** 0.053
188 H13387 24.4624 57.1631 33.6332 H 0.0 **** 0.053
189 H13403 51.6558 57.113 23.3176 H 0.0 **** 0.053
190 C13289 46.8179 61.9781 22.3074 C.2 0.0 **** 0.0
191 H13379 43.231 57.7189 26.7674 H 0.0 **** 0.053
192 C13208 34.7432 63.1329 28.6895 C.2 0.0 **** 0.0
193 C13233 42.0902 59.0976 29.1519 C.3 0.0 **** -0.106
194 C13242 31.858 67.0398 24.9629 C.3 0.0 **** 0.107
195 C13260 43.7864 60.9996 25.1025 C.3 0.0 **** -0.053
196 H13316 24.5203 67.6326 33.8245 H 0.0 **** 0.053
197 C13266 44.4945 62.2804 23.0815 C.2 0.0 **** 0.0
198 C13221 35.6174 64.2896 26.7036 C.2 0.0 **** 0.0
199 C13168 22.2208 67.1944 31.3499 C.3 0.0 **** -0.106
200 H13382 41.925 59.111 24.3793 H 0.0 **** 0.053
201 C13248 37.7032 64.7306 24.7958 C.2 0.0 **** 0.0
202 H13308 21.4723 65.3225 29.3165 H 0.0 **** 0.053
203 C13190 24.7662 65.589 35.6411 C.2 0.0 **** -0.1268
204 C13251 39.8988 64.1892 23.9273 C.2 0.0 **** 0.042
205 O13256 40.8908 64.41 22.984 O.3 0.0 **** -0.0685
206 C13155 21.164 62.8471 30.4694 C.3 0.0 **** 0.054
207 C13275 42.9257 65.1334 21.1663 C.2 0.0 **** -0.1268
208 H13333 27.9078 62.232 37.891 H 0.0 **** 0.053
209 H13351 39.9926 55.7828 31.6963 H 0.0 **** 0.053
210 C13264 43.3068 58.0745 25.7301 C.3 0.0 **** -0.106
211 C13246 32.0366 67.9233 22.3188 C.3 0.0 **** -0.106
212 C13293 47.0947 59.7682 24.0127 C.2 0.0 **** -0.1268
213 H13390 36.8039 60.5408 32.7537 H 0.0 **** 0.41
214 H13336 25.0746 59.0877 34.9167 H 0.0 **** 0.053
215 H13347 38.8024 60.5749 31.6888 H 0.0 **** 0.053
216 C13227 38.4793 58.7245 30.6671 C.3 0.0 **** -0.053
217 H13327 25.9736 65.6197 37.4127 H 0.0 **** 0.053
218 H13369 32.6957 69.6258 23.5182 H 0.0 **** 0.053
219 H13332 26.948 60.9924 38.7226 H 0.0 **** 0.053
220 C13244 31.5261 65.9958 23.8764 C.3 0.0 **** -0.106
221 C13209 35.9809 62.4316 28.822 C.2 0.0 **** 0.0
222 C13201 31.4003 63.3329 30.4609 C.2 0.0 **** 0.0
223 H13321 27.8317 67.7858 28.5075 H 0.0 **** 0.053
224 C13282 46.2963 65.1947 19.5756 C.2 0.0 **** -0.1268
225 C13213 38.4186 61.0826 29.1294 C.2 0.0 **** 0.042
226 C13185 26.0939 63.9588 34.4221 C.2 0.0 **** 0.0
227 H13352 41.8172 57.2597 31.5416 H 0.0 **** 0.053
228 S13203 30.3749 61.7966 32.5911 S.2 0.0 **** 0.024
229 H13368 32.3034 68.2136 21.292 H 0.0 **** 0.053
230 H13374 42.9112 60.3741 26.9595 H 0.0 **** 0.053
231 H13334 24.9668 61.2545 33.9007 H 0.0 **** 0.053
232 H13342 32.9537 60.8661 32.2919 H 0.0 **** 0.1268
233 O13160 20.3497 63.5861 29.5526 O.3 0.0 **** -0.32
234 C13230 39.82 56.6559 31.0523 C.3 0.0 **** -0.106
235 C13164 19.5862 64.705 33.5369 C.3 0.0 **** -0.106
236 C13300 51.8 59.1007 22.5988 C.2 0.0 **** 0.347
237 C13283 48.6417 64.942 18.8262 C.2 0.0 **** -0.1268
238 C13207 32.4531 63.591 29.5131 C.2 0.0 **** 0.0
239 H13325 24.0463 67.7735 28.8103 H 0.0 **** 0.053
240 N13236 41.8433 56.4261 29.66 N.3 0.0 **** -0.727
241 H13304 20.0728 62.1396 32.2362 H 0.0 **** 0.053
242 C13296 49.5097 59.5997 23.4334 C.2 0.0 **** 0.0
243 C13181 30.056 65.0159 29.3917 C.2 0.0 **** 0.232
244 H13357 44.1877 58.7066 28.7265 H 0.0 **** 0.053
245 H13372 38.6301 65.6673 23.0503 H 0.0 **** 0.1268
246 H13356 43.7737 58.7284 30.4464 H 0.0 **** 0.053
247 H13323 25.8519 69.3383 28.1603 H 0.0 **** 0.053
248 C13232 41.0255 58.7603 30.209 C.3 0.0 **** -0.053
249 C13197 27.196 58.934 35.1341 C.3 0.0 **** -0.106
250 H13302 21.1145 61.8 30.1409 H 0.0 **** 0.053
@<TRIPOS>BOND
1 70 71 1
2 204 205 1
3 203 72 1
4 100 104 1
5 11 36 un
6 66 77 1
7 74 47 1
8 61 74 1
9 162 61 1
10 233 162 1
11 206 47 1
12 206 233 1
13 135 88 1
14 179 135 1
15 235 179 1
16 61 88 1
17 74 235 1
18 185 30 1
19 14 185 1
20 199 14 1
21 135 30 1
22 88 199 1
23 171 95 un
24 182 171 un
25 138 182 un
26 14 95 1
27 185 138 1
28 142 148 1
29 38 142 un
30 44 38 un
31 182 148 un
32 171 44 un
33 124 99 1
34 52 124 1
35 95 52 1
36 44 99 1
37 243 112 1
38 166 243 un
39 126 166 un
40 38 112 1
41 142 126 un
42 226 145 un
43 1 226 2
44 138 145 1
45 148 1 un
46 100 161 2
47 154 100 1
48 203 154 1
49 226 161 1
50 145 203 2
51 151 104 1
52 56 151 1
53 60 56 2
54 161 60 1
55 173 84 1
56 249 173 1
57 70 249 1
58 60 84 1
59 56 70 1
60 133 13 un
61 1 133 un
62 126 13 un
63 120 222 un
64 228 120 1
65 13 228 un
66 166 222 un
67 85 41 un
68 106 85 un
69 238 106 un
70 120 41 un
71 222 238 un
72 221 192 un
73 76 221 un
74 23 76 un
75 106 192 un
76 85 23 un
77 225 37 un
78 2 225 un
79 141 2 un
80 76 37 un
81 221 141 un
82 57 178 un
83 243 57 un
84 238 178 un
85 55 150 un
86 178 55 un
87 192 150 un
88 198 86 un
89 150 198 un
90 141 86 un
91 59 92 un
92 29 59 un
93 86 29 un
94 2 92 un
95 111 181 1
96 216 111 1
97 65 216 1
98 225 181 1
99 37 65 1
100 234 66 1
101 127 234 1
102 248 127 1
103 216 66 1
104 111 248 1
105 172 193 1
106 53 172 1
107 240 53 1
108 248 193 1
109 127 240 1
110 128 22 un
111 28 128 un
112 198 28 un
113 55 22 un
114 94 121 1
115 194 94 1
116 89 194 1
117 128 121 1
118 22 89 1
119 136 220 1
120 211 136 1
121 93 211 1
122 194 220 1
123 94 93 1
124 50 201 un
125 28 50 un
126 29 201 un
127 204 18 un
128 118 204 un
129 201 118 un
130 59 18 un
131 103 15 un
132 131 103 un
133 92 131 un
134 18 15 un
135 36 205 1
136 15 11 1
137 195 132 1
138 32 195 1
139 103 132 1
140 11 32 un
141 45 46 1
142 210 45 1
143 25 210 1
144 195 46 1
145 132 25 1
146 68 197 1
147 96 68 1
148 36 96 un
149 32 197 un
150 46 180 1
151 197 119 un
152 180 119 un
153 173 152 1
154 152 21 1
155 152 129 1
156 65 48 1
157 107 207 1
158 26 107 un
159 81 26 1
160 96 207 un
161 68 81 un
162 159 140 un
163 122 159 1
164 224 122 un
165 81 140 un
166 26 224 un
167 125 237 un
168 35 125 1
169 110 35 1
170 122 237 un
171 159 110 un
172 156 40 un
173 190 156 un
174 140 190 un
175 110 40 un
176 183 117 un
177 105 183 un
178 35 105 un
179 40 117 un
180 20 212 un
181 156 20 un
182 119 190 un
183 180 212 un
184 242 16 un
185 20 242 un
186 117 16 un
187 113 79 1
188 4 113 1
189 236 4 1
190 242 79 1
191 16 236 1
192 236 102 2
193 206 250 1
194 206 109 1
195 47 241 1
196 47 146 1
197 74 58 1
198 61 116 1
199 162 202 1
200 162 87 1
201 88 19 1
202 135 114 1
203 179 158 1
204 179 3 1
205 235 73 1
206 235 175 1
207 185 196 1
208 14 27 1
209 199 164 1
210 199 98 1
211 138 91 1
212 99 223 1
213 99 139 1
214 124 247 1
215 124 101 1
216 52 239 1
217 52 123 1
218 154 217 1
219 154 51 1
220 104 155 1
221 104 177 1
222 151 219 1
223 151 208 1
224 84 231 1
225 84 153 1
226 173 214 1
227 249 143 1
228 249 167 1
229 70 8 1
230 133 130 1
231 41 232 1
232 23 69 1
233 57 17 1
234 111 176 1
235 216 78 1
236 65 215 1
237 66 115 1
238 234 24 1
239 234 209 1
240 127 227 1
241 248 97 1
242 193 34 1
243 193 82 1
244 172 246 1
245 172 244 1
246 53 187 1
247 53 31 1
248 240 163 1
249 94 174 1
250 194 160 1
251 220 186 1
252 220 12 1
253 136 67 1
254 136 64 1
255 211 62 1
256 211 229 1
257 93 218 1
258 93 83 1
259 50 144 1
260 118 245 1
261 131 6 1
262 132 230 1
263 195 54 1
264 46 170 1
265 45 43 1
266 45 149 1
267 210 191 1
268 210 75 1
269 25 184 1
270 25 200 1
271 152 9 1
272 21 49 1
273 21 80 1
274 21 5 1
275 129 188 1
276 129 33 1
277 129 39 1
278 48 213 1
279 207 42 1
280 107 7 1
281 224 108 1
282 237 63 1
283 125 147 1
284 183 134 1
285 105 169 1
286 212 168 1
287 79 10 1
288 79 165 1
289 113 157 1
290 113 137 1
291 4 189 1
292 4 90 1
@<TRIPOS>MOLECULE
Sketch 4
250 292
SMALL
USER_CHARGES


@<TRIPOS>ATOM
1 C30550 17.185 -8.33009 33.5324 C.2 0.0 **** 0.347
2 H30620 4.23687 1.55867 21.6309 H 0.0 **** 0.053
3 H30569 -8.43012 9.94469 24.0137 H 0.0 **** 0.053
4 H30567 -6.23243 10.2851 24.3754 H 0.0 **** 0.053
5 H30577 -5.61633 11.713 30.8262 H 0.0 **** 0.053
6 O30551 18.0728 -9.11752 33.2013 O.2 0.0 **** -0.419
7 S30453 -2.52767 4.84109 31.513 S.2 0.0 **** 0.024
8 C30536 16.1137 -6.77176 28.8569 C.2 0.0 **** 0.0
9 H30573 -3.53202 7.42917 22.0653 H 0.0 **** 0.053
10 C30517 11.8687 -4.42411 27.9857 C.2 0.0 **** 0.0
11 C30492 1.45961 2.43491 23.3772 C.3 0.0 **** 0.107
12 C30521 -7.88541 3.94042 32.3055 C.3 0.0 **** -0.053
13 C30471 3.76656 1.17718 27.5989 C.2 0.0 **** 0.0
14 C30456 1.20354 2.74311 29.8552 C.2 0.0 **** 0.0
15 C30443 -6.51936 7.88164 33.5958 C.2 0.0 **** 0.0
16 C30485 7.82175 -3.1725 36.8269 C.3 0.0 **** 0.081
17 C30452 -1.09098 4.1152 30.8096 C.2 0.0 **** -0.012
18 H30594 -0.108069 3.96359 25.5824 H 0.0 **** 0.1268
19 C30451 -0.822206 4.09914 29.394 C.2 0.0 **** 0.0
20 C30412 -9.00707 9.61529 26.6585 C.3 0.0 **** 0.107
21 C30481 5.95417 -1.62156 36.7148 C.3 0.0 **** 0.134
22 O30430 -2.1073 5.29011 26.1503 O.3 0.0 **** -0.464
23 C30440 -6.58686 10.6324 29.249 C.2 0.0 **** -0.1268
24 C30422 -6.35649 8.81801 27.4942 C.3 0.0 **** -0.053
25 H30602 6.4747 -1.09968 37.536 H 0.0 **** 0.053
26 H30612 0.92853 3.15992 22.7442 H 0.0 **** 0.053
27 C30437 -6.29348 8.68645 31.2969 C.2 0.0 **** 0.0
28 C30497 3.24221 2.03017 21.6163 C.3 0.0 **** -0.106
29 O30410 -10.87 5.72407 24.9888 O.3 0.0 **** -0.32
30 H30608 8.17478 -3.04099 37.8638 H 0.0 **** 0.053
31 C30408 -10.2637 8.1418 24.9612 C.3 0.0 **** -0.053
32 O30475 5.85538 -0.126587 33.2248 O.3 0.0 **** -0.202
33 C30527 13.4072 -4.92977 26.1179 C.2 0.0 **** 0.0
34 C30449 -3.2142 5.79377 30.2157 C.2 0.0 **** -0.012
35 C30423 -4.52427 7.27407 28.1733 C.2 0.0 **** 0.0
36 C30406 -11.0006 7.01703 27.0776 C.3 0.0 **** -0.106
37 H30568 -7.88897 8.3021 23.6407 H 0.0 **** 0.053
38 C30466 0.612192 3.29384 27.5209 C.2 0.0 **** 0.0
39 C30446 -7.65267 5.36936 32.8396 C.3 0.0 **** -0.053
40 C30455 0.915071 2.81174 31.2528 C.2 0.0 **** 0.0
41 C30531 15.5201 -6.08685 26.5524 C.2 0.0 **** 0.0
42 C30421 -5.16219 7.95596 27.1518 C.2 0.0 **** 0.0
43 C30503 8.44397 -2.39668 29.4864 C.2 0.0 **** 0.0
44 H30561 -9.01421 9.13105 27.6542 H 0.0 **** 0.053
45 C30547 14.8517 -6.87103 34.4944 C.3 0.0 **** -0.106
46 H30579 -6.88944 11.3591 28.4969 H 0.0 **** 0.1268
47 C30510 10.2506 -3.71883 31.3546 C.3 0.0 **** -0.053
48 C30459 3.22801 1.4327 30.3768 C.2 0.0 **** 0.0
49 N30486 6.35843 -3.02445 36.8166 N.3 0.0 **** -0.727
50 H30650 14.1679 -7.69475 34.7741 H 0.0 **** 0.053
51 H30595 5.03233 -1.85236 34.012 H 0.0 **** 0.053
52 C30539 13.665 -5.69705 29.8092 C.2 0.0 **** 0.0
53 C30504 8.12185 -2.38561 30.8498 C.2 0.0 **** 0.0
54 O30506 9.02016 -2.46915 26.7257 O.3 0.0 **** -0.0685
55 C30479 3.96766 -0.11377 36.4182 C.3 0.0 **** -0.106
56 C30546 15.1765 -6.95407 33.0195 C.2 0.0 **** 0.0
57 C30442 -6.21387 9.29216 34.0365 C.3 0.0 **** -0.106
58 H30590 -7.71722 7.04347 35.1632 H 0.0 **** 0.053
59 C30529 13.9852 -5.61168 28.4176 C.2 0.0 **** 0.0
60 C30407 -11.3469 8.11601 26.0519 C.3 0.0 **** -0.053
61 C30487 2.10167 2.38884 25.6712 C.2 0.0 **** 0.042
62 C30505 7.06502 -1.61084 31.2914 C.2 0.0 **** -0.1268
63 H30634 -6.77196 2.20192 31.6093 H 0.0 **** 0.053
64 H30646 18.6225 -8.47123 31.3136 H 0.0 **** 0.1268
65 C30434 -6.2819 9.36216 28.9012 C.2 0.0 **** 0.0
66 C30419 -5.52208 8.35608 24.7452 C.2 0.0 **** 0.0
67 C30515 8.01354 -4.41601 32.3272 C.3 0.0 **** -0.106
68 C30501 7.93696 -1.73561 27.1855 C.2 0.0 **** 0.042
69 H30600 3.91626 -2.27615 36.4096 H 0.0 **** 0.053
70 C30463 4.95742 0.303242 32.2716 C.2 0.0 **** 0.042
71 H30572 -3.90936 5.61323 23.6842 H 0.0 **** 0.053
72 H30599 2.94965 0.119767 36.7547 H 0.0 **** 0.053
73 C30538 14.5688 -6.32173 30.7153 C.2 0.0 **** 0.0
74 H30635 -6.12052 2.93236 33.0914 H 0.0 **** 0.053
75 C30512 10.6277 -5.07758 31.9746 C.3 0.0 **** -0.053
76 C30472 6.27808 -0.817222 30.4345 C.2 0.0 **** 0.0
77 H30597 4.8971 1.76313 34.4672 H 0.0 **** 0.053
78 C30425 -3.11725 6.16853 26.4933 C.2 0.0 **** 0.232
79 C30542 18.2268 -7.9025 29.289 C.2 0.0 **** -0.1268
80 H30586 -8.63807 5.77616 33.1344 H 0.0 **** 0.053
81 C30522 -6.5786 3.1592 32.1162 C.3 0.0 **** -0.159
82 C30511 10.4326 -3.8084 29.8627 C.2 0.0 **** 0.0
83 C30454 -0.249968 3.49173 31.6956 C.2 0.0 **** -0.1268
84 H30587 -5.7233 5.15657 33.7879 H 0.0 **** 0.053
85 C30543 12.9532 -5.95727 32.5099 C.2 0.0 **** -0.1268
86 H30559 -10.7533 6.80006 23.2848 H 0.0 **** 0.053
87 C30482 6.41515 -0.934435 35.3857 C.3 0.0 **** -0.053
88 H30617 1.35912 1.61884 20.6008 H 0.0 **** 0.053
89 C30431 -1.34902 4.6823 27.1213 C.2 0.0 **** 0.232
90 C30435 -5.85226 8.41805 29.9295 C.2 0.0 **** 0.0
91 C30438 -6.54895 9.97562 31.6655 C.2 0.0 **** 0.0
92 H30564 -12.4036 10.0157 26.2907 H 0.0 **** 0.053
93 H30641 10.6516 -3.20876 24.9959 H 0.0 **** 0.1268
94 O30524 2.87558 1.98142 34.8568 O.3 0.0 **** -0.57
95 C30428 -3.73593 7.68893 23.1153 C.3 0.0 **** -0.106
96 C30516 11.5585 -4.48796 29.3737 C.2 0.0 **** 0.0
97 H30648 12.6451 -6.10748 33.5411 H 0.0 **** 0.1268
98 H30645 18.5771 -7.64036 26.6206 H 0.0 **** 0.1268
99 H30652 16.7296 -6.04886 35.1521 H 0.0 **** 0.053
100 C30508 9.57957 -3.13286 28.9858 C.2 0.0 **** 0.0
101 H30560 -8.44151 7.62285 25.9806 H 0.0 **** 0.053
102 C30528 13.0807 -4.99816 27.5109 C.2 0.0 **** 0.0
103 C30432 -1.67135 4.78298 28.4869 C.2 0.0 **** 0.0
104 C30540 16.7024 -7.49155 31.1546 C.2 0.0 **** 0.0
105 C30541 17.9257 -7.99549 30.6318 C.2 0.0 **** -0.1268
106 H30580 -6.6196 11.322 33.3335 H 0.0 **** 0.053
107 C30441 -6.90129 10.2842 33.0938 C.3 0.0 **** -0.106
108 C30444 -6.57568 7.6072 32.2708 C.2 0.0 **** 0.0
109 O30490 3.61405 1.582 23.9546 O.3 0.0 **** -0.202
110 C30457 0.331355 3.37518 28.9266 C.2 0.0 **** 0.0
111 H30616 2.45052 -0.360938 22.6701 H 0.0 **** 0.053
112 C30500 7.64896 -1.67409 28.5841 C.2 0.0 **** 0.0
113 C30489 4.0833 1.05644 26.2118 C.2 0.0 **** 0.0
114 C30496 2.18638 1.05206 21.0614 C.3 0.0 **** -0.106
115 C30462 3.89487 1.06252 32.724 C.2 0.0 **** 0.0
116 C30534 17.6309 -7.22575 26.9736 C.2 0.0 **** -0.1268
117 C30477 4.00577 -0.135022 34.8853 C.3 0.0 **** -0.053
118 C30519 12.0571 -5.39381 31.6293 C.2 0.0 **** 0.0
119 H30576 -5.48107 8.92999 22.6847 H 0.0 **** 0.053
120 C30474 5.73064 -0.21428 28.0971 C.2 0.0 **** 0.0
121 H30604 7.24571 -2.56355 34.2365 H 0.0 **** 0.053
122 C30545 16.3572 -7.5531 32.5601 C.2 0.0 **** 0.052
123 C30526 12.4866 -4.28261 25.2285 C.2 0.0 **** -0.1268
124 H30624 9.04469 -2.607 32.7386 H 0.0 **** 0.053
125 H30636 -5.8381 3.71468 31.5209 H 0.0 **** 0.053
126 H30614 -0.194064 1.12593 22.9358 H 0.0 **** 0.053
127 C30520 12.4389 -5.17967 30.2757 C.2 0.0 **** 0.0
128 C30461 1.77223 2.2258 32.1791 C.2 0.0 **** -0.1268
129 H30607 9.45238 -2.65805 35.4522 H 0.0 **** 0.053
130 C30537 15.8014 -6.85916 30.2474 C.2 0.0 **** 0.0
131 C30409 -10.2236 6.76572 24.2472 C.3 0.0 **** 0.054
132 H30565 -11.7072 9.38184 27.7833 H 0.0 **** 0.053
133 H30651 15.837 -6.90332 36.4288 H 0.0 **** 0.053
134 C30488 3.23908 1.70357 25.2727 C.2 0.0 **** 0.042
135 H30610 5.96102 -3.54552 36.0339 H 0.0 **** 0.353
136 C30502 7.15652 -1.09091 26.2662 C.2 0.0 **** -0.1268
137 C30523 -8.84383 3.16127 33.2121 C.3 0.0 **** -0.159
138 C30433 -2.78902 5.61826 28.8572 C.2 0.0 **** 0.0
139 H30626 10.0285 -5.84552 31.445 H 0.0 **** 0.053
140 H30654 17.8148 -8.30305 35.5604 H 0.0 **** 0.053
141 H30609 8.05058 -4.21014 36.5419 H 0.0 **** 0.053
142 C30405 -10.4713 5.75121 26.3636 C.3 0.0 **** 0.054
143 H30644 16.9888 -6.58293 25.0317 H 0.0 **** 0.1268
144 C30533 16.7565 -6.64029 26.0967 C.2 0.0 **** -0.1268
145 H30615 0.945963 -0.596818 21.7637 H 0.0 **** 0.053
146 H30621 5.4182 0.256668 24.7188 H 0.0 **** 0.1268
147 C30473 6.54882 -0.89237 29.0355 C.2 0.0 **** 0.0
148 H30589 -5.98222 6.95046 35.4363 H 0.0 **** 0.053
149 H30628 10.6137 -5.99896 33.95 H 0.0 **** 0.053
150 C30478 3.93792 1.25503 34.2366 C.3 0.0 **** 0.107
151 C30549 16.8651 -8.2004 35.0164 C.3 0.0 **** -0.086
152 C30514 8.67082 -5.08955 33.5468 C.3 0.0 **** -0.106
153 C30530 15.2043 -6.15454 27.9479 C.2 0.0 **** 0.0
154 H30623 6.84751 -1.60747 32.3478 H 0.0 **** 0.1268
155 C30509 8.86932 -3.22948 31.8479 C.3 0.0 **** -0.053
156 C30468 2.62537 1.92589 28.0161 C.2 0.0 **** 0.0
157 H30583 -5.12082 9.46638 34.0126 H 0.0 **** 0.053
158 C30467 -0.265666 3.97297 26.6508 C.2 0.0 **** -0.1268
159 H30649 14.3083 -5.93626 34.6913 H 0.0 **** 0.053
160 C30507 9.85021 -3.12358 27.6067 C.2 0.0 **** 0.0265
161 C30418 -7.96656 9.04503 24.4482 C.3 0.0 **** -0.106
162 C30445 -7.07525 6.27954 31.7497 C.3 0.0 **** -0.106
163 H30622 7.3873 -1.16125 25.2027 H 0.0 **** 0.1268
164 H30555 -10.2386 7.38674 27.782 H 0.0 **** 0.053
165 H30566 -5.89789 10.6964 26.5923 H 0.0 **** 0.053
166 C30448 -6.7548 6.843 34.6531 C.3 0.0 **** -0.106
167 C30424 -3.45991 6.34746 27.868 C.2 0.0 **** 0.0
168 H30633 -8.36623 4.04729 31.3159 H 0.0 **** 0.053
169 H30605 8.14018 -1.05395 34.0664 H 0.0 **** 0.053
170 C30498 6.02866 -0.325219 26.6987 C.2 0.0 **** 0.0
171 H30630 8.29127 -6.11817 33.6459 H 0.0 **** 0.053
172 H30618 2.6318 0.442488 20.2615 H 0.0 **** 0.053
173 C30480 4.44774 -1.46964 36.9465 C.3 0.0 **** -0.106
174 H30554 -11.8992 6.78485 27.6694 H 0.0 **** 0.053
175 C30469 1.76457 2.54674 27.0621 C.2 0.0 **** 0.0
176 O30415 -7.91079 10.5419 26.6163 O.3 0.0 **** -0.32
177 C30525 11.3315 -3.71059 25.6842 C.2 0.0 **** -0.1268
178 C30483 7.61867 -1.68835 34.7959 C.3 0.0 **** -0.106
179 H30570 -7.20476 8.10378 27.4948 H 0.0 **** 0.053
180 H30640 2.94109 2.90114 34.5568 H 0.0 **** 0.41
181 C30426 -3.76094 6.79639 25.4632 C.2 0.0 **** 0.0
182 H30632 7.89563 -5.1291 31.496 H 0.0 **** 0.053
183 C30494 0.863723 1.02059 23.2181 C.3 0.0 **** -0.106
184 C30518 10.9954 -3.74771 27.0769 C.2 0.0 **** 0.0
185 C30495 1.62057 0.166951 22.1776 C.3 0.0 **** -0.106
186 H30553 -9.36553 5.70343 26.4246 H 0.0 **** 0.053
187 H30642 12.7367 -4.24556 24.1668 H 0.0 **** 0.1268
188 C30447 -6.75181 5.42661 34.0783 C.3 0.0 **** -0.106
189 H30558 -9.16925 6.47648 24.0547 H 0.0 **** 0.053
190 H30582 -6.54051 9.44324 35.0772 H 0.0 **** 0.053
191 C30532 14.6136 -5.4776 25.6699 C.2 0.0 **** -0.1268
192 H30627 10.6518 -4.22972 33.9469 H 0.0 **** 0.053
193 C30458 2.35387 2.03408 29.42 C.2 0.0 **** 0.0
194 H30606 8.92442 -1.30973 36.4686 H 0.0 **** 0.053
195 C30413 -10.2886 10.4167 26.5053 C.3 0.0 **** -0.106
196 H30556 -12.2934 7.82412 25.5739 H 0.0 **** 0.053
197 C30499 5.19993 0.323599 25.7835 C.2 0.0 **** -0.1268
198 H30563 -10.2931 11.2454 27.2278 H 0.0 **** 0.053
199 H30584 -7.84717 6.47847 30.9848 H 0.0 **** 0.053
200 C30436 -4.92004 7.44102 29.5746 C.2 0.0 **** 0.0
201 H30637 -9.8009 3.69378 33.3288 H 0.0 **** 0.053
202 C30491 2.94204 2.48216 23.047 C.3 0.0 **** 0.107
203 C30476 5.28545 -0.834104 34.3622 C.3 0.0 **** 0.107
204 H30592 -0.459276 3.51689 32.7674 H 0.0 **** 0.1268
205 H30639 -9.05265 2.16156 32.8018 H 0.0 **** 0.053
206 C30439 -6.52608 11.0915 30.6728 C.3 0.0 **** -0.106
207 C30427 -3.37712 6.51884 24.0319 C.3 0.0 **** -0.106
208 H30588 -7.07904 4.70159 34.8393 H 0.0 **** 0.053
209 C30513 10.2163 -5.10881 33.442 C.3 0.0 **** -0.106
210 C30460 2.95246 1.57667 31.7846 C.2 0.0 **** 0.0
211 H30593 1.49346 2.25121 33.2279 H 0.0 **** 0.1268
212 H30596 3.12865 -0.698366 34.5289 H 0.0 **** 0.053
213 C30416 -6.63804 9.89768 26.4373 C.3 0.0 **** 0.107
214 H30611 3.32212 3.49979 23.2371 H 0.0 **** 0.053
215 H30591 -4.45038 6.83002 31.6022 H 0.0 **** 0.1268
216 H30574 -3.10987 8.55895 23.3716 H 0.0 **** 0.053
217 C30450 -4.21186 6.67625 30.55 C.2 0.0 **** -0.1268
218 H30598 4.61947 0.690963 36.7994 H 0.0 **** 0.053
219 C30535 17.3354 -7.30695 28.3687 C.2 0.0 **** 0.0
220 H30578 -7.35844 11.7885 30.8923 H 0.0 **** 0.053
221 H30601 4.22763 -1.60629 38.0141 H 0.0 **** 0.053
222 H30638 -8.40805 3.02415 34.2146 H 0.0 **** 0.053
223 C30544 14.2385 -6.39572 32.0965 C.2 0.0 **** 0.0
224 C30464 5.20777 0.0335235 30.8929 C.2 0.0 **** 0.0
225 H30581 -8.00083 10.2166 33.2217 H 0.0 **** 0.053
226 C30470 4.61505 0.542326 28.543 C.2 0.0 **** 0.0
227 H30585 -6.27681 5.74572 31.2121 H 0.0 **** 0.053
228 O30493 1.27285 2.93361 24.7161 O.3 0.0 **** -0.202
229 C30548 16.1033 -6.93155 35.3613 C.3 0.0 **** -0.106
230 C30417 -6.54984 9.4133 24.979 C.3 0.0 **** -0.053
231 C30465 4.35666 0.672556 29.9481 C.2 0.0 **** 0.0
232 H30552 -10.8745 4.83359 26.8132 H 0.0 **** 0.053
233 C30420 -4.83028 7.72711 25.7681 C.2 0.0 **** 0.0
234 H30613 0.888209 0.527701 24.2008 H 0.0 **** 0.053
235 H30625 11.008 -2.99199 31.7103 H 0.0 **** 0.053
236 H30603 6.72443 0.0979932 35.6214 H 0.0 **** 0.053
237 C30429 -5.2086 8.05984 23.3056 C.3 0.0 **** -0.106
238 C30411 -8.89092 8.53143 25.5488 C.3 0.0 **** -0.053
239 H30629 8.377 -4.55192 34.4594 H 0.0 **** 0.053
240 H30619 3.31813 2.91823 20.9713 H 0.0 **** 0.053
241 H30571 -2.30494 6.28307 23.9708 H 0.0 **** 0.053
242 H30631 7.00213 -4.06145 32.577 H 0.0 **** 0.053
243 H30562 -10.2984 10.8658 25.499 H 0.0 **** 0.053
244 C30484 8.56427 -2.17678 35.892 C.3 0.0 **** -0.106
245 H30643 14.8622 -5.42348 24.6077 H 0.0 **** 0.1268
246 H30557 -10.5359 8.90735 24.2154 H 0.0 **** 0.053
247 H30647 19.1765 -8.29565 28.92 H 0.0 **** 0.1268
248 H30575 -5.83803 7.22236 22.9433 H 0.0 **** 0.053
249 C30414 -11.5177 9.51142 26.705 C.3 0.0 **** -0.106
250 H30653 16.2535 -9.08319 35.2799 H 0.0 **** 0.053
@<TRIPOS>BOND
1 144 143 1
2 60 36 1
3 31 60 1
4 131 31 1
5 29 131 1
6 142 36 1
7 142 29 1
8 20 238 1
9 195 20 1
10 249 195 1
11 31 238 1
12 60 249 1
13 213 176 1
14 230 213 1
15 161 230 1
16 20 176 1
17 238 161 1
18 233 66 un
19 42 233 un
20 24 42 un
21 230 66 1
22 213 24 1
23 167 35 1
24 78 167 un
25 181 78 un
26 42 35 un
27 233 181 un
28 95 207 1
29 237 95 1
30 66 237 1
31 181 207 1
32 89 22 1
33 103 89 un
34 138 103 un
35 78 22 1
36 167 138 un
37 90 65 un
38 200 90 2
39 24 65 1
40 35 200 un
41 91 27 2
42 206 91 1
43 23 206 1
44 90 27 1
45 65 23 2
46 57 107 1
47 15 57 1
48 108 15 2
49 91 107 1
50 27 108 1
51 39 162 1
52 188 39 1
53 166 188 1
54 108 162 1
55 15 166 1
56 217 34 un
57 200 217 un
58 138 34 un
59 17 19 un
60 7 17 1
61 34 7 un
62 103 19 un
63 40 83 un
64 14 40 un
65 110 14 un
66 17 83 un
67 19 110 un
68 48 193 un
69 210 48 un
70 128 210 un
71 14 193 un
72 40 128 un
73 70 115 un
74 224 70 un
75 231 224 un
76 210 115 un
77 48 231 un
78 158 38 un
79 89 158 un
80 110 38 un
81 175 156 un
82 38 175 un
83 193 156 un
84 13 226 un
85 156 13 un
86 231 226 un
87 147 76 un
88 120 147 un
89 226 120 un
90 224 76 un
91 203 32 1
92 117 203 1
93 150 117 1
94 70 32 1
95 115 150 1
96 173 55 1
97 21 173 1
98 87 21 1
99 117 55 1
100 203 87 1
101 244 178 1
102 16 244 1
103 49 16 1
104 87 178 1
105 21 49 1
106 134 61 un
107 113 134 un
108 13 113 un
109 175 61 un
110 202 109 1
111 11 202 1
112 228 11 1
113 134 109 1
114 61 228 1
115 185 183 1
116 114 185 1
117 28 114 1
118 11 183 1
119 202 28 1
120 197 170 un
121 113 197 un
122 120 170 un
123 68 112 un
124 136 68 un
125 170 136 un
126 147 112 un
127 53 43 un
128 62 53 un
129 76 62 un
130 112 43 un
131 160 54 1
132 100 160 un
133 68 54 1
134 43 100 1
135 47 155 1
136 82 47 1
137 53 155 1
138 100 82 un
139 209 75 1
140 152 209 1
141 67 152 1
142 47 75 1
143 155 67 1
144 10 96 1
145 184 10 1
146 160 184 un
147 82 96 un
148 75 118 1
149 96 127 un
150 118 127 un
151 39 12 1
152 12 81 1
153 12 137 1
154 150 94 1
155 123 177 1
156 33 123 un
157 102 33 1
158 184 177 un
159 10 102 un
160 153 59 un
161 41 153 1
162 191 41 un
163 102 59 un
164 33 191 un
165 116 144 un
166 219 116 1
167 8 219 1
168 41 144 un
169 153 8 un
170 73 130 un
171 52 73 un
172 59 52 un
173 8 130 un
174 105 104 un
175 79 105 un
176 219 79 un
177 130 104 un
178 223 85 un
179 73 223 un
180 127 52 un
181 118 85 un
182 56 122 un
183 223 56 un
184 104 122 un
185 229 45 1
186 151 229 1
187 1 151 1
188 56 45 1
189 122 1 1
190 1 6 2
191 142 232 1
192 142 186 1
193 36 174 1
194 36 164 1
195 60 196 1
196 31 246 1
197 131 189 1
198 131 86 1
199 238 101 1
200 20 44 1
201 195 243 1
202 195 198 1
203 249 92 1
204 249 132 1
205 213 165 1
206 230 4 1
207 161 37 1
208 161 3 1
209 24 179 1
210 207 241 1
211 207 71 1
212 95 9 1
213 95 216 1
214 237 248 1
215 237 119 1
216 206 5 1
217 206 220 1
218 23 46 1
219 107 106 1
220 107 225 1
221 57 190 1
222 57 157 1
223 162 199 1
224 162 227 1
225 39 80 1
226 188 84 1
227 188 208 1
228 166 148 1
229 166 58 1
230 217 215 1
231 83 204 1
232 128 211 1
233 158 18 1
234 203 51 1
235 117 212 1
236 150 77 1
237 55 218 1
238 55 72 1
239 173 69 1
240 173 221 1
241 21 25 1
242 87 236 1
243 178 121 1
244 178 169 1
245 244 194 1
246 244 129 1
247 16 30 1
248 16 141 1
249 49 135 1
250 202 214 1
251 11 26 1
252 183 234 1
253 183 126 1
254 185 145 1
255 185 111 1
256 114 88 1
257 114 172 1
258 28 240 1
259 28 2 1
260 197 146 1
261 136 163 1
262 62 154 1
263 155 124 1
264 47 235 1
265 75 139 1
266 209 192 1
267 209 149 1
268 152 239 1
269 152 171 1
270 67 242 1
271 67 182 1
272 12 168 1
273 81 63 1
274 81 74 1
275 81 125 1
276 137 201 1
277 137 222 1
278 137 205 1
279 94 180 1
280 177 93 1
281 123 187 1
282 191 245 1
283 116 98 1
284 105 64 1
285 79 247 1
286 85 97 1
287 45 159 1
288 45 50 1
289 229 133 1
290 229 99 1
291 151 250 1
292 151 140 1
@<TRIPOS>MOLECULE
Sketch 4
250 292
SMALL
USER_CHARGES


@<TRIPOS>ATOM
1 C29978 6.26555 32.7489 72.5901 C.3 0.0 **** 0.107
2 H30141 6.07923 42.2066 64.7859 H 0.0 **** 0.1268
3 C29999 4.03143 40.8676 70.8548 C.2 0.0 **** -0.1268
4 H30081 1.57262 32.6668 86.7973 H 0.0 **** 0.053
5 C30000 5.73668 38.3961 67.8857 C.2 0.0 **** 0.0
6 H30077 3.46968 35.8299 86.5534 H 0.0 **** 0.053
7 C29906 -4.46173 37.0849 85.7709 C.3 0.0 **** -0.106
8 H30106 9.44632 31.3169 67.6649 H 0.0 **** 0.053
9 C29931 1.75964 38.912 78.2502 C.2 0.0 **** 0.232
10 H30136 -0.83909 33.4478 80.2079 H 0.0 **** 0.053
11 H30113 0.294769 41.3564 73.4884 H 0.0 **** 0.053
12 C29950 1.7247 35.3826 81.6368 C.2 0.0 **** -0.1268
13 H30108 8.36819 29.4512 66.7363 H 0.0 **** 0.053
14 H30126 6.22265 35.3966 63.1936 H 0.0 **** 0.053
15 C29923 1.04799 37.6818 82.236 C.2 0.0 **** 0.0
16 C30030 8.94654 39.9074 59.8249 C.2 0.0 **** 0.0
17 H30105 8.20938 33.4537 68.2606 H 0.0 **** 0.053
18 H30102 8.00381 29.7519 69.2942 H 0.0 **** 0.053
19 C29969 2.98978 39.2823 74.6994 C.2 0.0 **** 0.0
20 C29941 2.42063 33.0704 86.2075 C.3 0.0 **** -0.106
21 C29984 8.51019 31.5939 67.1542 C.3 0.0 **** -0.106
22 H30138 -2.34527 30.1253 81.2228 H 0.0 **** 0.053
23 C30047 10.3773 33.4722 59.6371 C.3 0.0 **** -0.106
24 C29966 2.65068 38.7225 75.991 C.2 0.0 **** 0.0
25 H30097 7.35959 32.8707 72.4502 H 0.0 **** 0.053
26 H30093 4.59132 33.3154 74.7949 H 0.0 **** 0.1268
27 H30098 7.30628 30.3705 71.8085 H 0.0 **** 0.053
28 O29975 6.67484 33.8866 70.3213 O.3 0.0 **** -0.202
29 H30066 1.3428 39.5584 85.7702 H 0.0 **** 0.053
30 C30005 6.18478 35.703 68.3553 C.2 0.0 **** -0.1268
31 C29989 3.7025 40.3424 72.1131 C.2 0.0 **** 0.0
32 C29961 4.45795 34.3714 74.5816 C.2 0.0 **** -0.1268
33 C30025 6.55287 41.616 64.0019 C.2 0.0 **** -0.1268
34 H30133 -2.68265 33.0942 81.9458 H 0.0 **** 0.053
35 H30111 3.49249 43.4838 74.4553 H 0.0 **** 0.053
36 C30046 10.1118 34.9309 59.3379 C.2 0.0 **** 0.0
37 H30052 -5.63863 36.9101 83.9169 H 0.0 **** 0.053
38 H30062 -2.32496 39.5549 88.4415 H 0.0 **** 0.053
39 C30028 7.79122 40.0443 61.9892 C.2 0.0 **** 0.0
40 C30007 6.33994 39.5563 65.3973 C.2 0.0 **** 0.0265
41 C29934 1.05675 36.9995 84.9771 C.2 0.0 **** 0.0
42 H30128 7.39404 33.1352 62.8 H 0.0 **** 0.053
43 C29981 7.05324 30.2935 69.1502 C.3 0.0 **** 0.134
44 H30134 -2.35899 32.8202 79.5264 H 0.0 **** 0.053
45 C30003 6.24766 37.5848 66.8614 C.2 0.0 **** 0.0
46 C29982 7.35975 31.8082 69.4012 C.3 0.0 **** -0.053
47 C29928 0.266753 42.7509 81.9677 C.3 0.0 **** -0.106
48 C29907 -4.45933 38.2012 86.8357 C.3 0.0 **** -0.053
49 H30082 2.8765 31.1046 85.3714 H 0.0 **** 0.053
50 C29971 3.96664 38.9766 72.4357 C.2 0.0 **** 0.0
51 H30132 4.97648 34.9773 65.0201 H 0.0 **** 0.053
52 H30071 0.88327 41.9965 80.0166 H 0.0 **** 0.053
53 C30011 7.13981 37.4191 64.5667 C.2 0.0 **** 0.0
54 C30045 10.5535 35.529 58.15 C.2 0.0 **** 0.052
55 H30122 4.73156 41.6415 68.3573 H 0.0 **** 0.1268
56 C29948 1.15759 30.911 83.3727 C.3 0.0 **** -0.106
57 N29986 6.63451 30.0029 67.7784 N.3 0.0 **** -0.727
58 C29919 -0.232406 40.9106 83.5976 C.2 0.0 **** 0.0
59 C30015 5.72245 34.3678 65.5544 C.3 0.0 **** -0.106
60 H30153 10.5094 32.6086 57.0462 H 0.0 **** 0.053
61 C30004 6.44027 36.2174 67.0974 C.2 0.0 **** 0.0
62 H30076 -0.547093 42.9918 83.9804 H 0.0 **** 0.053
63 C29992 1.51355 42.6741 74.6803 C.3 0.0 **** 0.107
64 C29912 -1.6348 38.5109 86.7066 C.3 0.0 **** 0.107
65 C29905 -4.96983 37.626 84.414 C.3 0.0 **** 0.054
66 C30013 7.40866 33.7051 63.7399 C.3 0.0 **** -0.106
67 C29939 2.37681 35.6233 86.5746 C.3 0.0 **** -0.106
68 H30135 -0.98186 31.7282 79.7825 H 0.0 **** 0.053
69 C29973 5.45457 37.8632 69.1747 C.2 0.0 **** 0.0
70 H30148 8.77832 33.9957 61.516 H 0.0 **** 0.1268
71 C30031 8.7817 41.3201 59.6557 C.2 0.0 **** 0.0
72 C29976 6.21145 32.5227 70.1118 C.3 0.0 **** 0.107
73 C29998 4.6129 40.0677 69.8712 C.2 0.0 **** 0.0
74 H30084 -1.0613 34.0421 83.6079 H 0.0 **** 0.053
75 H30145 10.326 41.6774 56.6141 H 0.0 **** 0.1268
76 H30055 -3.44438 36.6811 85.6473 H 0.0 **** 0.053
77 C30026 6.99055 42.2101 62.8509 C.2 0.0 **** -0.1268
78 H30099 5.68659 29.8859 72.3168 H 0.0 **** 0.053
79 H30142 6.86487 43.2843 62.7047 H 0.0 **** 0.1268
80 C29946 -0.921628 32.1015 82.6472 C.3 0.0 **** -0.053
81 H30124 7.63912 34.6077 66.4341 H 0.0 **** 0.053
82 H30140 6.49261 32.546 74.517 H 0.0 **** 0.41
83 H30115 -1.05307 43.4436 72.4715 H 0.0 **** 0.053
84 H30061 -1.58569 37.4652 86.3462 H 0.0 **** 0.053
85 H30089 2.06545 30.3804 83.0321 H 0.0 **** 0.053
86 H30101 6.13921 28.6449 70.2065 H 0.0 **** 0.053
87 C29957 2.9271 37.3397 76.2612 C.2 0.0 **** 0.0
88 C29979 6.24058 30.4043 71.524 C.3 0.0 **** -0.106
89 C30018 6.71781 40.2073 64.2077 C.2 0.0 **** 0.0
90 H30068 -2.44953 41.3676 84.9017 H 0.0 **** 0.053
91 C30038 9.24837 37.0966 60.1393 C.2 0.0 **** 0.0
92 C30050 11.0826 34.6481 57.0645 C.2 0.0 **** 0.347
93 H30090 0.684176 30.2349 84.1112 H 0.0 **** 0.053
94 C30033 9.29249 41.938 58.4724 C.2 0.0 **** -0.1268
95 H30069 -1.85433 41.2252 86.5617 H 0.0 **** 0.053
96 H30104 6.74786 32.7591 67.5611 H 0.0 **** 0.053
97 C29949 1.90994 35.7584 80.3291 C.2 0.0 **** -0.012
98 C30009 6.87897 35.2784 66.0052 C.3 0.0 **** -0.053
99 C29995 0.0184216 43.3759 72.7104 C.3 0.0 **** -0.106
100 C30023 -2.92901 30.9969 81.5593 C.3 0.0 **** -0.159
101 C29985 7.69118 30.3194 66.8054 C.3 0.0 **** 0.081
102 H30150 9.48797 32.8683 59.3748 H 0.0 **** 0.053
103 H30091 1.96028 34.36 81.931 H 0.0 **** 0.1268
104 C29917 -0.37793 40.6591 85.0619 C.3 0.0 **** -0.053
105 C29908 -3.95482 39.5039 86.1938 C.3 0.0 **** -0.053
106 C30035 10.1047 39.7884 57.659 C.2 0.0 **** 0.0
107 C29987 2.71999 40.6487 74.3347 C.2 0.0 **** 0.042
108 H30144 9.16305 43.0152 58.3529 H 0.0 **** 0.1268
109 C29937 1.446 34.5869 84.5041 C.2 0.0 **** 0.0
110 C30034 9.93157 41.1987 57.5126 C.2 0.0 **** -0.1268
111 C29991 2.58253 43.3585 73.845 C.3 0.0 **** 0.107
112 H30075 -1.67166 42.3032 82.8093 H 0.0 **** 0.053
113 H30139 -3.76696 31.1258 80.8575 H 0.0 **** 0.053
114 C30014 6.25494 33.2327 64.6594 C.3 0.0 **** -0.106
115 H30057 -3.98714 40.3035 86.9527 H 0.0 **** 0.053
116 H30114 -0.62265 42.4151 74.5687 H 0.0 **** 0.053
117 C29968 3.62375 38.4594 73.7209 C.2 0.0 **** 0.0
118 H30054 -5.09537 36.2566 86.1233 H 0.0 **** 0.053
119 C29997 2.11108 44.6923 73.2619 C.3 0.0 **** -0.106
120 H30087 0.761055 31.63 81.3771 H 0.0 **** 0.053
121 H30137 -3.34316 30.7639 82.553 H 0.0 **** 0.053
122 C30048 11.5917 32.9441 58.8833 C.3 0.0 **** -0.106
123 H30092 3.62046 33.5391 76.9477 H 0.0 **** 0.1268
124 C30017 7.31666 39.4186 63.1756 C.2 0.0 **** 0.0
125 C29920 0.288206 39.9795 82.713 C.2 0.0 **** 0.0
126 H30088 -0.201224 30.2084 81.8282 H 0.0 **** 0.053
127 C29967 2.06211 39.474 77.0292 C.2 0.0 **** -0.1268
128 H30118 0.339232 45.4948 72.2895 H 0.0 **** 0.053
129 C29940 1.62394 36.861 86.1963 C.2 0.0 **** -0.1268
130 C29945 -0.326789 33.4647 83.0184 C.3 0.0 **** -0.106
131 H30065 -3.49474 36.7379 88.1234 H 0.0 **** 0.053
132 O30006 5.77145 40.3247 66.3873 O.3 0.0 **** -0.0685
133 C30019 8.09997 35.8116 62.3832 C.2 0.0 **** 0.0
134 H30086 -1.36928 31.6668 83.5605 H 0.0 **** 0.053
135 C29974 4.88982 38.6937 70.1753 C.2 0.0 **** 0.0
136 H30074 1.3081 42.8427 82.3166 H 0.0 **** 0.053
137 H30109 7.21183 30.4285 65.8212 H 0.0 **** 0.053
138 O29990 2.9031 42.4751 72.7485 O.3 0.0 **** -0.202
139 C29955 3.81666 35.1616 75.5304 C.2 0.0 **** 0.0
140 C30041 10.911 37.6456 56.8209 C.2 0.0 **** -0.1268
141 H30149 10.5286 33.3482 60.7186 H 0.0 **** 0.053
142 C29965 4.90055 36.7907 71.7496 C.2 0.0 **** 0.0
143 C29943 1.56782 32.1866 84.0484 C.2 0.0 **** 0.0
144 C29942 2.71433 32.1384 85.0283 C.3 0.0 **** -0.106
145 H30152 12.4912 33.4794 59.2289 H 0.0 **** 0.053
146 C30020 8.07948 37.2314 62.2956 C.2 0.0 **** 0.0
147 H30060 -2.4993 38.875 84.7396 H 0.0 **** 0.053
148 C29994 0.230007 42.384 73.8746 C.3 0.0 **** -0.106
149 C29929 -0.611511 42.2886 83.1329 C.3 0.0 **** -0.106
150 C29962 5.64331 34.1306 72.4153 C.2 0.0 **** 0.0
151 C29947 0.204051 31.1603 82.2042 C.3 0.0 **** -0.106
152 C30039 8.59845 37.8645 61.1473 C.2 0.0 **** 0.0
153 C29938 2.06853 34.4447 85.7104 C.2 0.0 **** 0.0
154 C30037 9.76097 37.7284 58.9709 C.2 0.0 **** 0.0
155 C29936 1.28057 36.2931 82.6426 C.2 0.0 **** 0.0
156 C29916 0.284287 39.3577 85.5486 C.3 0.0 **** 0.107
157 H30121 3.82347 41.9151 70.6426 H 0.0 **** 0.1268
158 H30131 5.21178 33.9584 66.4391 H 0.0 **** 0.053
159 C29964 5.51414 35.9703 70.7617 C.2 0.0 **** 0.0
160 H30094 1.83728 40.5223 76.8989 H 0.0 **** 0.1268
161 C29963 5.90824 34.6598 71.1664 C.2 0.0 **** 0.042
162 C29970 4.58027 38.1571 71.4528 C.2 0.0 **** 0.0
163 C30008 6.56635 38.1824 65.5873 C.2 0.0 **** 0.0
164 C30021 -2.05165 32.2521 81.6072 C.3 0.0 **** -0.053
165 H30064 -4.1665 38.1137 89.0011 H 0.0 **** 0.053
166 H30100 5.01948 29.9484 69.7979 H 0.0 **** 0.053
167 C30049 11.3802 33.1917 57.399 C.3 0.0 **** -0.086
168 H30125 8.62179 35.9804 64.9474 H 0.0 **** 0.053
169 C29927 0.200393 41.7261 80.8348 C.3 0.0 **** -0.106
170 C30012 7.27501 35.2017 63.4832 C.3 0.0 **** -0.053
171 C29933 1.70915 37.1121 79.8996 C.2 0.0 **** 0.0
172 C29977 5.76809 31.8609 71.4405 C.3 0.0 **** -0.053
173 C30001 5.47888 39.778 67.6276 C.2 0.0 **** 0.042
174 H30058 -4.30423 40.2817 84.1775 H 0.0 **** 0.053
175 C29996 0.582186 44.7558 73.0671 C.3 0.0 **** -0.106
176 C29954 3.42603 34.5999 76.7744 C.2 0.0 **** -0.1268
177 C30029 8.44793 39.2783 60.9899 C.2 0.0 **** 0.0
178 H30123 6.35604 34.6501 68.5153 H 0.0 **** 0.1268
179 H30079 1.54493 37.6511 86.9412 H 0.0 **** 0.1268
180 H30096 4.66728 31.8666 71.4841 H 0.0 **** 0.053
181 O29915 -0.293707 39.012 86.8188 O.3 0.0 **** -0.32
182 H30072 -0.816915 41.7364 80.3997 H 0.0 **** 0.053
183 H30110 5.79214 30.5383 67.5644 H 0.0 **** 0.353
184 O29993 2.06898 41.4647 75.2327 O.3 0.0 **** -0.202
185 C29952 2.83057 35.3639 77.7454 C.2 0.0 **** -0.012
186 O29930 1.19259 39.7734 79.1578 O.3 0.0 **** -0.464
187 O30051 11.2355 35.0139 55.898 O.2 0.0 **** -0.419
188 C29958 3.92148 37.0862 74.0075 C.2 0.0 **** 0.0
189 C30002 4.9313 40.5927 68.5796 C.2 0.0 **** -0.1268
190 C29911 -2.49053 39.3638 85.7269 C.3 0.0 **** -0.053
191 O29910 -5.7335 38.8249 84.5848 O.3 0.0 **** -0.32
192 C30027 7.63584 41.4574 61.8144 C.2 0.0 **** 0.0
193 H30117 0.102614 45.1084 73.9963 H 0.0 **** 0.053
194 H30095 5.3483 32.5799 69.4224 H 0.0 **** 0.053
195 C29914 -3.62227 37.8323 88.0872 C.3 0.0 **** -0.106
196 H30083 3.64872 32.4642 84.532 H 0.0 **** 0.053
197 C30044 9.39393 35.6926 60.3115 C.2 0.0 **** 0.0
198 H30103 8.23752 31.8761 70.0661 H 0.0 **** 0.053
199 H30127 8.38677 33.5169 64.2144 H 0.0 **** 0.053
200 O30024 6.03657 32.0539 73.817 O.3 0.0 **** -0.57
201 H30059 -5.60183 40.6917 85.3415 H 0.0 **** 0.053
202 H30067 0.150098 41.4903 85.5674 H 0.0 **** 0.053
203 H30147 11.1691 39.5094 55.7988 H 0.0 **** 0.1268
204 C30036 9.60579 39.1396 58.8198 C.2 0.0 **** 0.0
205 C30043 8.76904 35.0788 61.4287 C.2 0.0 **** -0.1268
206 H30151 11.7422 31.874 59.0922 H 0.0 **** 0.053
207 H30053 -4.11944 37.8282 83.7324 H 0.0 **** 0.053
208 C29988 3.10049 41.1607 73.1037 C.2 0.0 **** 0.042
209 C29959 4.57728 36.2679 73.0371 C.2 0.0 **** 0.0
210 C29951 2.57722 36.7667 77.535 C.2 0.0 **** 0.0
211 C29918 -1.84638 40.739 85.5734 C.3 0.0 **** -0.106
212 H30056 -5.50485 38.3619 87.1366 H 0.0 **** 0.053
213 S29953 2.33784 34.4985 79.1926 S.2 0.0 **** 0.024
214 C29921 0.598421 38.6359 83.1321 C.2 0.0 **** 0.0
215 H30154 12.2343 32.887 56.7777 H 0.0 **** 0.053
216 C29935 1.20417 35.9334 83.9896 C.2 0.0 **** 0.0
217 H30073 -0.052724 43.7408 81.6077 H 0.0 **** 0.053
218 H30070 -0.794262 37.8434 84.4527 H 0.0 **** 0.053
219 C29956 3.55565 36.5413 75.2663 C.2 0.0 **** 0.0
220 H30085 -0.170926 34.0572 82.104 H 0.0 **** 0.053
221 C30032 8.12892 42.0618 60.6534 C.2 0.0 **** -0.1268
222 C29983 7.69288 32.5031 68.0705 C.3 0.0 **** -0.106
223 H30078 2.18182 35.3578 87.6321 H 0.0 **** 0.053
224 C30040 10.4049 36.9571 57.9583 C.2 0.0 **** 0.0
225 C29972 5.73329 36.488 69.4338 C.2 0.0 **** 0.0
226 C29913 -2.2402 38.5106 88.1001 C.3 0.0 **** -0.106
227 C29926 0.512127 40.335 81.3251 C.2 0.0 **** 0.0
228 C29944 0.950696 33.3703 83.8202 C.2 0.0 **** 0.0
229 H30143 8.01119 43.1396 60.5219 H 0.0 **** 0.1268
230 C29924 1.27014 38.0374 80.8543 C.2 0.0 **** 0.0
231 H30116 0.531515 43.0018 71.8121 H 0.0 **** 0.053
232 C30042 10.7654 39.0102 56.6823 C.2 0.0 **** -0.1268
233 H30080 3.28121 33.1289 86.8929 H 0.0 **** 0.053
234 C29932 2.00161 37.5612 78.5592 C.2 0.0 **** 0.0
235 H30120 2.62963 44.8228 72.2996 H 0.0 **** 0.053
236 C30016 7.48557 38.0151 63.3445 C.2 0.0 **** 0.0
237 H30129 6.61222 32.409 65.2935 H 0.0 **** 0.053
238 C29960 4.89264 34.8975 73.3552 C.2 0.0 **** 0.0
239 H30107 8.79545 32.1268 66.2331 H 0.0 **** 0.053
240 H30130 5.43191 32.8314 64.0483 H 0.0 **** 0.053
241 H30063 -1.56087 37.9983 88.7963 H 0.0 **** 0.053
242 C30022 -1.52522 32.5872 80.2056 C.3 0.0 **** -0.159
243 C29909 -4.90212 39.9025 85.0325 C.3 0.0 **** 0.054
244 H30119 2.44752 45.5071 73.9202 H 0.0 **** 0.053
245 C29925 0.998362 39.3855 80.4697 C.2 0.0 **** 0.232
246 H30146 11.4098 37.0708 56.0481 H 0.0 **** 0.1268
247 C29980 6.04269 29.7381 70.1584 C.3 0.0 **** -0.106
248 H30112 1.29457 43.2953 75.5604 H 0.0 **** 0.053
249 C30010 7.52496 35.9805 64.7884 C.3 0.0 **** -0.053
250 C29922 0.252207 38.2001 84.5382 C.3 0.0 **** -0.053
@<TRIPOS>BOND
1 143 144 1
2 195 165 1
3 250 218 1
4 226 241 1
5 65 7 1
6 48 7 1
7 105 48 1
8 243 105 1
9 191 243 1
10 65 191 1
11 64 190 1
12 226 64 1
13 195 226 1
14 105 190 1
15 48 195 1
16 156 181 1
17 104 156 1
18 211 104 1
19 64 181 1
20 190 211 1
21 125 58 un
22 214 125 un
23 250 214 un
24 104 58 1
25 156 250 1
26 230 15 1
27 245 230 un
28 227 245 un
29 214 15 un
30 125 227 un
31 47 169 1
32 149 47 1
33 58 149 1
34 227 169 1
35 9 186 1
36 234 9 un
37 171 234 un
38 245 186 1
39 230 171 un
40 216 41 un
41 155 216 2
42 250 41 1
43 15 155 un
44 153 109 2
45 67 153 1
46 129 67 1
47 216 109 1
48 41 129 2
49 144 20 1
50 228 143 2
51 153 20 1
52 109 228 1
53 80 130 1
54 151 80 1
55 56 151 1
56 228 130 1
57 143 56 1
58 12 97 un
59 155 12 un
60 171 97 un
61 185 210 un
62 213 185 1
63 97 213 un
64 234 210 un
65 139 176 un
66 219 139 un
67 87 219 un
68 185 176 un
69 210 87 un
70 209 188 un
71 238 209 un
72 32 238 un
73 219 188 un
74 139 32 un
75 161 150 un
76 159 161 un
77 142 159 un
78 238 150 un
79 209 142 un
80 127 24 un
81 9 127 un
82 87 24 un
83 19 117 un
84 24 19 un
85 188 117 un
86 50 162 un
87 117 50 un
88 142 162 un
89 69 225 un
90 135 69 un
91 162 135 un
92 159 225 un
93 72 28 1
94 172 72 1
95 1 172 1
96 161 28 1
97 150 1 1
98 247 88 1
99 43 247 1
100 46 43 1
101 172 88 1
102 72 46 1
103 21 222 1
104 101 21 1
105 57 101 1
106 46 222 1
107 43 57 1
108 208 107 un
109 31 208 un
110 50 31 un
111 19 107 un
112 111 138 1
113 63 111 1
114 184 63 1
115 208 138 1
116 107 184 1
117 99 148 1
118 175 99 1
119 119 175 1
120 63 148 1
121 111 119 1
122 3 73 un
123 31 3 un
124 135 73 un
125 173 5 un
126 189 173 un
127 73 189 un
128 69 5 un
129 61 45 un
130 30 61 un
131 225 30 un
132 5 45 un
133 40 132 1
134 163 40 un
135 173 132 1
136 45 163 1
137 249 98 1
138 53 249 1
139 61 98 1
140 163 53 un
141 66 170 1
142 114 66 1
143 59 114 1
144 249 170 1
145 98 59 1
146 124 236 1
147 89 124 1
148 40 89 un
149 53 236 un
150 170 133 1
151 236 146 un
152 133 146 un
153 80 164 1
154 164 242 1
155 164 100 1
156 1 200 1
157 77 33 1
158 192 77 un
159 39 192 1
160 89 33 un
161 124 39 un
162 16 177 un
163 71 16 1
164 221 71 un
165 39 177 un
166 192 221 un
167 110 94 un
168 106 110 1
169 204 106 1
170 71 94 un
171 16 204 un
172 91 154 un
173 152 91 un
174 177 152 un
175 204 154 un
176 140 224 un
177 232 140 un
178 106 232 un
179 154 224 un
180 197 205 un
181 91 197 un
182 146 152 un
183 133 205 un
184 36 54 un
185 197 36 un
186 224 54 un
187 122 23 1
188 167 122 1
189 92 167 1
190 36 23 1
191 54 92 1
192 92 187 2
193 65 37 1
194 65 207 1
195 7 118 1
196 7 76 1
197 48 212 1
198 105 115 1
199 243 174 1
200 243 201 1
201 190 147 1
202 64 84 1
203 226 38 1
204 195 131 1
205 156 29 1
206 104 202 1
207 211 90 1
208 211 95 1
209 169 52 1
210 169 182 1
211 47 217 1
212 47 136 1
213 149 112 1
214 149 62 1
215 67 6 1
216 67 223 1
217 129 179 1
218 20 233 1
219 20 4 1
220 144 49 1
221 144 196 1
222 130 74 1
223 130 220 1
224 80 134 1
225 151 120 1
226 151 126 1
227 56 85 1
228 56 93 1
229 12 103 1
230 176 123 1
231 32 26 1
232 127 160 1
233 72 194 1
234 172 180 1
235 1 25 1
236 88 27 1
237 88 78 1
238 247 166 1
239 247 86 1
240 43 18 1
241 46 198 1
242 222 96 1
243 222 17 1
244 21 8 1
245 21 239 1
246 101 13 1
247 101 137 1
248 57 183 1
249 111 35 1
250 63 248 1
251 148 11 1
252 148 116 1
253 99 83 1
254 99 231 1
255 175 193 1
256 175 128 1
257 119 244 1
258 119 235 1
259 3 157 1
260 189 55 1
261 30 178 1
262 98 81 1
263 249 168 1
264 170 14 1
265 66 199 1
266 66 42 1
267 114 237 1
268 114 240 1
269 59 158 1
270 59 51 1
271 164 34 1
272 242 44 1
273 242 68 1
274 242 10 1
275 100 121 1
276 100 22 1
277 100 113 1
278 200 82 1
279 33 2 1
280 77 79 1
281 221 229 1
282 94 108 1
283 110 75 1
284 140 246 1
285 232 203 1
286 205 70 1
287 23 141 1
288 23 102 1
289 122 206 1
290 122 145 1
291 167 60 1
292 167 215 1
@<TRIPOS>MOLECULE
Sketch 4
130 142
SMALL
USER_CHARGES


@<TRIPOS>ATOM
1 H7402 32.5686 49.5616 59.3113 H 0.0 **** 0.053
2 O7347 32.3124 51.5301 65.995 O.2 0.0 **** -0.419
3 H7366 32.7998 50.8095 72.9722 H 0.0 **** 0.053
4 C7306 36.1374 51.4252 59.573 C.3 0.0 **** -0.106
5 H7372 27.9915 50.0256 70.4647 H 0.0 **** 0.053
6 H7410 24.6263 54.064 67.8629 H 0.0 **** 0.053
7 C7316 34.1412 50.3999 70.6068 C.3 0.0 **** -0.106
8 H7396 37.6593 53.2742 59.6188 H 0.0 **** 0.41
9 C7296 38.0242 51.535 62.9412 C.ar 0.0 **** 0.0
10 C7325 29.355 50.5375 72.7798 C.3 0.0 **** -0.106
11 C7289 42.8268 51.6494 62.0682 C.ar 0.0 **** 0.0
12 H7375 27.6794 53.9683 66.1873 H 0.0 **** 0.1268
13 H7371 29.1169 52.4779 71.8925 H 0.0 **** 0.053
14 H7355 33.3749 50.5424 61.9985 H 0.0 **** 0.053
15 C7299 36.4426 51.5936 61.0434 C.2 0.0 **** 0.0
16 C7309 34.6365 51.4463 65.6316 C.ar 0.0 **** 0.052
17 H7365 31.9715 49.3269 72.5198 H 0.0 **** 0.053
18 H7389 47.8176 50.8369 63.9282 H 0.0 **** 0.053
19 C7283 44.437 50.719 63.8463 C.ar 0.0 **** 0.0
20 H7367 30.758 51.8669 73.7297 H 0.0 **** 0.053
21 C7287 41.9539 50.8432 64.2885 C.3 0.0 **** -0.106
22 H7350 41.2948 49.967 64.418 H 0.0 **** 0.053
23 H7358 36.2065 49.3225 59.1037 H 0.0 **** 0.053
24 H7398 35.4521 50.6532 57.1203 H 0.0 **** 0.053
25 C7285 43.5376 49.8432 65.9371 C.ar 0.0 **** 0.0
26 C7322 31.6955 50.927 71.1291 C.ar 0.0 **** 0.0
27 H7357 35.052 48.9528 61.009 H 0.0 **** 0.053
28 C7286 44.8299 49.4564 66.3356 C.ar 0.0 **** 0.0
29 C7330 28.9717 53.0204 67.6224 C.ar 0.0 **** -0.1268
30 C7327 27.9648 51.0988 70.7368 C.3 0.0 **** -0.106
31 C7333 26.5989 52.2873 68.9522 C.ar 0.0 **** 0.0
32 H7392 44.6665 52.7446 60.4675 H 0.0 **** 0.053
33 H7399 33.9149 51.0044 57.9421 H 0.0 **** 0.053
34 C7297 37.7625 51.8286 61.5516 C.ar 0.0 **** 0.0
35 H7404 38.0916 51.2722 66.8878 H 0.0 **** 0.41
36 H7370 29.2981 49.4802 72.4658 H 0.0 **** 0.053
37 C7311 33.4767 51.4668 66.5019 C.2 0.0 **** 0.367
38 C7335 44.7848 47.2876 67.6436 C.3 0.0 **** -0.159
39 C7303 34.1174 50.8457 61.26 C.3 0.0 **** -0.106
40 C7281 45.9195 49.6545 65.4592 C.ar 0.0 **** 0.0
41 C7308 35.9494 51.3605 66.1505 C.ar 0.0 **** 0.052
42 C7336 47.2958 49.1431 65.8291 C.3 0.0 **** -0.159
43 H7378 45.4275 46.8009 66.8941 H 0.0 **** 0.053
44 H7407 25.2072 52.384 70.6148 H 0.0 **** 0.053
45 H7380 44.9749 46.819 68.6217 H 0.0 **** 0.053
46 C7318 32.5741 51.4133 68.9222 C.ar 0.0 **** 0.2405
47 H7409 25.3846 54.0604 66.2504 H 0.0 **** 0.053
48 C7328 27.8523 51.9301 69.483 C.ar 0.0 **** 0.0
49 C7288 41.7631 51.3747 62.8983 C.ar 0.0 **** 0.0
50 H7379 43.7406 47.0887 67.3597 H 0.0 **** 0.053
51 C7290 44.2444 51.4188 62.5234 C.3 0.0 **** -0.106
52 C7331 27.7336 53.3949 67.1154 C.ar 0.0 **** -0.1268
53 C7292 41.3155 52.2791 60.2282 C.ar 0.0 **** 0.0
54 O7344 33.2228 51.6855 63.7573 O.3 0.0 **** -0.452
55 C7310 34.4492 51.5138 64.2351 C.ar 0.0 **** 0.042
56 H7359 35.4578 52.2421 59.2612 H 0.0 **** 0.053
57 C7343 33.2244 48.9039 59.9012 C.3 0.0 **** -0.159
58 H7393 40.279 51.9823 58.3569 H 0.0 **** 0.053
59 H7383 47.8649 49.8865 66.4145 H 0.0 **** 0.053
60 C7291 42.6031 52.1296 60.7332 C.ar 0.0 **** 0.0
61 C7340 41.1185 52.564 58.7558 C.3 0.0 **** -0.159
62 H7382 47.2383 48.2285 66.4335 H 0.0 **** 0.053
63 C7314 36.1516 51.2908 67.5713 C.2 0.0 **** 0.367
64 H7400 32.6507 48.5465 60.7691 H 0.0 **** 0.053
65 H7385 41.7867 50.547 67.008 H 0.0 **** 0.053
66 H7405 25.3688 50.7747 69.8992 H 0.0 **** 0.053
67 C7312 33.6981 51.3909 67.9613 C.ar 0.0 **** 0.0
68 C7329 29.0421 52.288 68.8151 C.ar 0.0 **** 0.0
69 C7295 39.3562 51.4178 63.335 C.ar 0.0 **** -0.1268
70 C7337 42.3212 49.6054 66.8007 C.3 0.0 **** -0.159
71 N7319 31.3883 51.8781 68.5043 N.ar 0.0 **** -0.481
72 C7301 35.5756 51.4365 63.3291 C.ar 0.0 **** 0.0
73 C7284 43.35 50.4623 64.685 C.ar 0.0 **** 0.0
74 H7368 30.7717 50.2322 74.4118 H 0.0 **** 0.053
75 C7332 26.5381 53.0401 67.7604 C.ar 0.0 **** 0.0
76 C7313 34.9876 51.2912 68.4451 C.ar 0.0 **** 0.0
77 H7353 44.778 50.8581 61.7373 H 0.0 **** 0.053
78 C7320 30.3445 51.837 69.3394 C.ar 0.0 **** 0.2405
79 H7363 34.2935 50.4082 71.6932 H 0.0 **** 0.053
80 C7305 35.4256 50.0904 59.2204 C.ar 0.0 **** -0.053
81 H7386 42.5594 49.1327 67.759 H 0.0 **** 0.053
82 H7354 39.5669 51.1922 64.3675 H 0.0 **** 0.1268
83 C7294 40.4262 51.5972 62.4452 C.ar 0.0 **** 0.0
84 C7304 34.4813 49.6432 60.3662 C.ar 0.0 **** -0.053
85 O7345 38.2776 51.3051 65.8411 O.3 0.0 **** -0.452
86 C7282 45.7319 50.3228 64.2353 C.ar 0.0 **** 0.0
87 H7352 44.767 52.3949 62.5594 H 0.0 **** 0.053
88 H7369 28.5115 50.72 73.4642 H 0.0 **** 0.053
89 H7387 46.7326 51.4709 62.6821 H 0.0 **** 0.053
90 H7394 42.0127 52.2989 58.1805 H 0.0 **** 0.053
91 C7307 37.07 51.3638 65.2858 C.ar 0.0 **** 0.042
92 C7339 43.8035 52.4353 59.8653 C.3 0.0 **** -0.159
93 H7390 43.593 53.2442 59.1543 H 0.0 **** 0.053
94 H7377 46.0835 48.9799 68.0223 H 0.0 **** 0.053
95 H7381 47.8898 48.9075 64.9369 H 0.0 **** 0.053
96 H7391 44.1186 51.5537 59.2797 H 0.0 **** 0.053
97 H7388 47.1571 49.7517 62.6937 H 0.0 **** 0.053
98 H7406 24.4423 52.0315 69.0533 H 0.0 **** 0.053
99 C7323 31.8591 50.4258 72.5479 C.3 0.0 **** -0.106
100 C7324 30.6929 50.7969 73.4705 C.3 0.0 **** -0.106
101 H7401 33.4781 48.0332 59.2777 H 0.0 **** 0.053
102 H7397 34.3162 49.3314 57.4852 H 0.0 **** 0.053
103 C7300 35.382 51.3594 61.9084 C.2 0.0 **** 0.0
104 C7302 36.9013 51.4317 63.8539 C.ar 0.0 **** 0.0
105 C7348 25.3373 51.8484 69.6589 C.3 0.0 **** -0.159
106 C7298 38.8404 52.2724 60.7455 C.ar 0.0 **** 0.042
107 C7326 29.2199 51.4296 71.5464 C.3 0.0 **** -0.053
108 H7364 34.2232 49.344 70.2864 H 0.0 **** 0.053
109 C7349 25.2215 53.4624 67.1573 C.3 0.0 **** -0.159
110 H7361 36.2332 50.807 70.1116 H 0.0 **** 0.053
111 H7376 44.4097 49.2695 68.4392 H 0.0 **** 0.053
112 O7346 37.3292 51.2395 68.0793 O.2 0.0 **** -0.419
113 C7342 34.7356 50.2734 57.8649 C.3 0.0 **** -0.159
114 H7360 37.0331 51.4912 58.948 H 0.0 **** 0.053
115 C7334 45.0546 48.8002 67.6817 C.3 0.0 **** -0.106
116 H7395 40.8854 53.6229 58.5628 H 0.0 **** 0.053
117 H7408 24.6052 52.591 66.8814 H 0.0 **** 0.053
118 C7321 30.4494 51.3765 70.6693 C.ar 0.0 **** 0.0
119 C7338 46.9165 50.6135 63.3413 C.3 0.0 **** -0.159
120 C7293 40.1948 52.0564 61.1009 C.ar 0.0 **** 0.0
121 H7351 41.5565 51.5784 65.0151 H 0.0 **** 0.053
122 H7403 32.6095 51.6502 64.6324 H 0.0 **** 0.41
123 C7317 32.7799 50.9254 70.2363 C.ar 0.0 **** 0.0
124 O7341 38.586 52.9871 59.5963 O.3 0.0 **** -0.452
125 H7362 35.2321 52.2477 70.3295 H 0.0 **** 0.053
126 H7384 41.598 48.9533 66.2835 H 0.0 **** 0.053
127 H7374 29.8986 53.2661 67.1042 H 0.0 **** 0.1268
128 H7373 27.0846 51.2326 71.3809 H 0.0 **** 0.053
129 H7356 33.645 51.6306 60.6406 H 0.0 **** 0.053
130 C7315 35.2334 51.2184 69.9241 C.3 0.0 **** -0.106
@<TRIPOS>BOND
1 21 22 1
2 55 54 1
3 100 99 1
4 115 111 1
5 105 44 1
6 19 86 am
7 73 19 am
8 25 73 am
9 28 25 am
10 40 86 am
11 40 28 am
12 49 21 1
13 11 49 am
14 51 11 1
15 73 21 1
16 19 51 1
17 53 60 am
18 120 53 am
19 83 120 am
20 11 60 am
21 49 83 am
22 9 69 am
23 34 9 am
24 106 34 am
25 83 69 am
26 120 106 am
27 103 15 1
28 72 103 1
29 104 72 am
30 34 15 1
31 9 104 am
32 84 39 1
33 80 84 am
34 4 80 1
35 103 39 1
36 15 4 1
37 41 91 am
38 16 41 am
39 55 16 am
40 104 91 am
41 72 55 am
42 67 37 1
43 76 67 am
44 63 76 1
45 16 37 1
46 41 63 1
47 7 130 1
48 123 7 1
49 46 123 am
50 76 130 1
51 67 46 am
52 78 71 am
53 118 78 am
54 26 118 am
55 46 71 am
56 123 26 am
57 10 100 1
58 107 10 1
59 26 99 1
60 118 107 1
61 48 30 1
62 68 48 am
63 78 68 am
64 107 30 1
65 52 29 am
66 75 52 am
67 31 75 am
68 68 29 am
69 48 31 am
70 28 115 1
71 115 38 1
72 40 42 1
73 25 70 1
74 86 119 1
75 60 92 1
76 53 61 1
77 106 124 1
78 80 113 1
79 84 57 1
80 91 85 1
81 63 112 2
82 37 2 2
83 31 105 1
84 75 109 1
85 21 121 1
86 51 87 1
87 51 77 1
88 69 82 1
89 39 14 1
90 39 129 1
91 84 27 1
92 80 23 1
93 4 56 1
94 4 114 1
95 130 110 1
96 130 125 1
97 7 79 1
98 7 108 1
99 99 17 1
100 99 3 1
101 100 20 1
102 100 74 1
103 10 88 1
104 10 36 1
105 107 13 1
106 30 5 1
107 30 128 1
108 29 127 1
109 52 12 1
110 115 94 1
111 38 43 1
112 38 50 1
113 38 45 1
114 42 95 1
115 42 62 1
116 42 59 1
117 70 126 1
118 70 65 1
119 70 81 1
120 119 89 1
121 119 97 1
122 119 18 1
123 92 93 1
124 92 96 1
125 92 32 1
126 61 58 1
127 61 90 1
128 61 116 1
129 124 8 1
130 113 102 1
131 113 24 1
132 113 33 1
133 57 64 1
134 57 101 1
135 57 1 1
136 54 122 1
137 85 35 1
138 105 66 1
139 105 98 1
140 109 117 1
141 109 47 1
142 109 6 1
@<TRIPOS>MOLECULE
Sketch 4
130 142
SMALL
USER_CHARGES


@<TRIPOS>ATOM
1 H6090 23.9961 33.4896 73.7724 H 0.0 **** 0.053
2 C6023 38.7278 41.7396 67.4534 C.3 0.0 **** -0.106
3 C6020 38.5861 37.9757 66.8267 C.ar 0.0 **** 0.2405
4 C6002 30.6538 35.9705 69.3373 C.ar 0.0 **** 0.0
5 H6055 31.746 33.8095 66.0501 H 0.0 **** 0.053
6 H6064 35.3165 41.2738 67.5932 H 0.0 **** 0.053
7 C5983 24.9862 38.7852 73.4906 C.ar 0.0 **** 0.0
8 H6086 27.8671 42.0932 72.0383 H 0.0 **** 0.053
9 H6075 39.5966 33.5109 66.036 H 0.0 **** 0.1268
10 H6084 27.6442 40.7028 70.9656 H 0.0 **** 0.053
11 H6093 25.3781 32.4286 70.5827 H 0.0 **** 0.053
12 C6049 41.6823 33.7401 64.3522 C.3 0.0 **** -0.159
13 C6004 29.6614 33.339 65.6891 C.ar 0.0 **** -0.053
14 C5994 27.4186 35.9161 71.3292 C.ar 0.0 **** 0.0
15 C6043 29.9849 32.9419 64.2468 C.3 0.0 **** -0.159
16 C5987 27.0555 38.2633 72.1407 C.3 0.0 **** -0.106
17 C6037 27.6937 41.0124 72.0227 C.3 0.0 **** -0.159
18 H6100 30.7336 33.6274 63.8227 H 0.0 **** 0.053
19 H6107 43.1921 37.0323 64.334 H 0.0 **** 0.053
20 H6070 40.1096 41.3278 65.1337 H 0.0 **** 0.053
21 C6042 28.3328 31.114 65.7418 C.3 0.0 **** -0.159
22 C6026 40.4616 39.5691 66.3314 C.3 0.0 **** -0.053
23 H6099 29.2664 30.5314 65.796 H 0.0 **** 0.053
24 C6010 32.649 35.432 67.9611 C.ar 0.0 **** 0.042
25 C6003 30.9276 33.3096 66.5685 C.3 0.0 **** -0.106
26 H6081 22.3857 41.7074 74.5351 H 0.0 **** 0.053
27 C5999 29.4626 33.5096 68.5248 C.2 0.0 **** 0.0
28 C6038 22.8919 39.2466 74.8378 C.3 0.0 **** -0.159
29 H6072 40.139 39.035 64.2672 H 0.0 **** 0.053
30 H6109 41.3046 32.7662 64.6918 H 0.0 **** 0.053
31 C5986 25.5829 41.5372 73.3648 C.ar 0.0 **** 0.0
32 H6074 38.2402 35.3221 67.1028 H 0.0 **** 0.1268
33 C6032 40.9085 34.8646 64.9945 C.ar 0.0 **** 0.0
34 H6076 26.9906 43.1645 73.4488 H 0.0 **** 0.053
35 C6040 25.2487 32.7184 71.6321 C.3 0.0 **** -0.159
36 C5997 28.9078 34.2211 69.639 C.ar 0.0 **** 0.0
37 C6006 28.78 32.3311 67.8697 C.3 0.0 **** -0.106
38 H6091 22.9857 34.6311 72.8636 H 0.0 **** 0.053
39 C5992 25.8199 34.0967 71.8811 C.ar 0.0 **** 0.0
40 O6041 27.7028 32.3422 70.567 O.3 0.0 **** -0.452
41 H6066 38.4578 42.1846 68.4236 H 0.0 **** 0.053
42 C5990 24.6697 37.3132 73.5892 C.3 0.0 **** -0.106
43 C6013 34.5476 39.0597 69.1008 C.ar 0.0 **** 0.0
44 H6096 28.4953 31.9104 70.2104 H 0.0 **** 0.41
45 H6110 42.7556 33.7958 64.5947 H 0.0 **** 0.053
46 H6108 41.6012 33.7698 63.2531 H 0.0 **** 0.053
47 H6051 28.0558 38.3313 72.6112 H 0.0 **** 0.053
48 C6029 39.4063 36.9036 66.2329 C.ar 0.0 **** 0.0
49 C6016 35.9972 40.9571 68.406 C.3 0.0 **** -0.106
50 C6017 36.977 39.9494 67.8667 C.ar 0.0 **** 0.0
51 H6056 31.2427 32.2603 66.719 H 0.0 **** 0.053
52 H6071 41.1685 39.2699 67.1314 H 0.0 **** 0.053
53 C6030 39.0898 35.5577 66.4619 C.ar 0.0 **** -0.1268
54 C6009 33.2753 36.6349 68.3494 C.ar 0.0 **** 0.052
55 O6047 35.1701 36.1231 67.0499 O.2 0.0 **** -0.419
56 H6059 29.4295 31.4418 67.9861 H 0.0 **** 0.053
57 C5996 29.3827 35.5593 69.9027 C.ar 0.0 **** 0.0
58 C6021 39.0692 39.3014 66.8542 C.ar 0.0 **** 0.0
59 H6052 24.726 37.009 74.6529 H 0.0 **** 0.053
60 H6106 42.7084 35.7269 63.2342 H 0.0 **** 0.053
61 H6078 24.3622 43.5428 71.8786 H 0.0 **** 0.053
62 H6077 25.4426 43.5281 74.1772 H 0.0 **** 0.053
63 C6015 35.1766 40.3497 69.5404 C.3 0.0 **** -0.106
64 H6102 30.394 31.9219 64.1947 H 0.0 **** 0.053
65 C5984 26.1259 39.2285 72.8158 C.ar 0.0 **** 0.0
66 H6061 34.3985 41.0359 69.8979 H 0.0 **** 0.053
67 C6025 40.6882 41.0506 66.0325 C.3 0.0 **** -0.106
68 H6063 36.505 41.8637 68.7576 H 0.0 **** 0.053
69 H6067 40.781 41.5755 68.1191 H 0.0 **** 0.053
70 H6097 28.0234 31.1618 64.6886 H 0.0 **** 0.053
71 H6054 28.9456 37.369 70.935 H 0.0 **** 0.1268
72 C6005 28.5298 32.5076 66.3469 C.ar 0.0 **** -0.053
73 H6085 28.5849 40.5175 72.4425 H 0.0 **** 0.053
74 H6104 31.4512 38.8455 70.6584 H 0.0 **** 0.41
75 C5991 25.1255 34.9934 72.6869 C.ar 0.0 **** 0.0
76 C6011 34.6006 36.9367 67.8439 C.2 0.0 **** 0.367
77 H6087 23.0094 38.2224 75.2129 H 0.0 **** 0.053
78 H6101 29.0885 32.9788 63.6094 H 0.0 **** 0.053
79 C6028 40.4805 37.2301 65.379 C.ar 0.0 **** 0.0
80 C6022 38.2534 40.3032 67.3993 C.ar 0.0 **** 0.0
81 C6031 39.8419 34.5597 65.8549 C.ar 0.0 **** -0.1268
82 C6036 23.4104 42.1 74.5477 C.3 0.0 **** -0.159
83 H6053 23.6118 37.1526 73.3204 H 0.0 **** 0.053
84 O6045 30.7421 38.0593 70.5573 O.3 0.0 **** -0.452
85 C6001 31.3036 35.1203 68.3951 C.ar 0.0 **** 0.0
86 C6039 23.9091 34.5386 73.4622 C.3 0.0 **** -0.159
87 C6034 25.9079 43.0157 73.3241 C.3 0.0 **** -0.106
88 C6000 30.6077 33.9706 67.8892 C.2 0.0 **** 0.0
89 C5993 27.0171 34.5383 71.2187 C.ar 0.0 **** 0.0
90 C6014 33.2258 38.7461 69.6231 C.2 0.0 **** 0.367
91 H6069 41.7512 41.2245 65.8021 H 0.0 **** 0.053
92 C6027 40.7602 38.689 65.1162 C.3 0.0 **** -0.106
93 H6094 24.1766 32.6901 71.8575 H 0.0 **** 0.053
94 O6044 33.3244 34.5654 67.2164 O.3 0.0 **** -0.452
95 C6007 31.3131 37.1956 69.7218 C.ar 0.0 **** 0.042
96 C6033 41.2228 36.2171 64.744 C.ar 0.0 **** 0.0
97 H6058 27.5868 33.0649 66.2313 H 0.0 **** 0.053
98 C6024 40.2338 41.9001 67.2184 C.3 0.0 **** -0.106
99 C5981 24.3955 41.0952 73.9887 C.ar 0.0 **** 0.0
100 H6062 35.8366 40.1404 70.4032 H 0.0 **** 0.053
101 C5989 25.5186 36.372 72.7748 C.ar 0.0 **** 0.0
102 H6080 25.6666 44.7557 72.0092 H 0.0 **** 0.053
103 H6060 27.8173 32.0933 68.3322 H 0.0 **** 0.053
104 H6089 22.6748 39.8902 75.7009 H 0.0 **** 0.053
105 H6103 34.2401 35.0777 67.0103 H 0.0 **** 0.41
106 H6057 29.3291 34.3901 65.676 H 0.0 **** 0.053
107 H6082 23.41 43.0317 73.9671 H 0.0 **** 0.053
108 C5988 26.6294 36.8252 72.099 C.ar 0.0 **** 0.0
109 C6035 25.446 43.6769 72.0158 C.3 0.0 **** -0.159
110 C6008 32.5974 37.518 69.2216 C.ar 0.0 **** 0.052
111 H6095 25.7486 31.944 72.2348 H 0.0 **** 0.053
112 C6012 35.2345 38.2049 68.2615 C.ar 0.0 **** 0.0
113 H6098 27.5614 30.5613 66.3 H 0.0 **** 0.053
114 H6083 23.6463 42.3664 75.593 H 0.0 **** 0.053
115 H6050 27.2315 38.6029 71.105 H 0.0 **** 0.053
116 C5982 24.1181 39.7194 74.0896 C.ar 0.0 **** 0.0
117 H6092 23.7637 35.1377 74.3694 H 0.0 **** 0.053
118 C5998 27.8712 33.7044 70.4556 C.ar 0.0 **** 0.042
119 H6068 40.4725 42.963 67.062 H 0.0 **** 0.053
120 H6073 41.8061 38.8441 64.8174 H 0.0 **** 0.053
121 H6079 25.9462 43.2143 71.1519 H 0.0 **** 0.053
122 H6088 21.9949 39.2555 74.1934 H 0.0 **** 0.053
123 H6105 42.0004 37.3467 63.0655 H 0.0 **** 0.053
124 C5995 28.6074 36.3655 70.7345 C.ar 0.0 **** -0.1268
125 O6046 32.6525 39.5587 70.4345 O.2 0.0 **** -0.419
126 C6018 36.5862 38.5892 67.8006 C.ar 0.0 **** 0.2405
127 N6019 37.3891 37.6323 67.3142 N.ar 0.0 **** -0.481
128 C6048 42.3363 36.5927 63.7937 C.3 0.0 **** -0.159
129 H6065 38.1725 42.3201 66.6947 H 0.0 **** 0.053
130 C5985 26.4399 40.6013 72.7582 C.ar 0.0 **** 0.0
@<TRIPOS>BOND
1 65 7 am
2 42 101 1
3 116 28 1
4 36 27 1
5 7 116 am
6 130 65 am
7 31 130 am
8 99 116 am
9 99 31 am
10 108 16 1
11 101 108 am
12 65 16 1
13 7 42 1
14 39 75 am
15 89 39 am
16 14 89 am
17 101 75 am
18 108 14 am
19 57 124 am
20 36 57 am
21 118 36 am
22 14 124 am
23 89 118 am
24 88 27 1
25 85 88 1
26 4 85 am
27 57 4 am
28 13 25 1
29 72 13 am
30 37 72 1
31 88 25 1
32 27 37 1
33 110 95 am
34 54 110 am
35 24 54 am
36 4 95 am
37 85 24 am
38 112 76 1
39 43 112 am
40 90 43 1
41 54 76 1
42 110 90 1
43 49 63 1
44 50 49 1
45 126 50 am
46 43 63 1
47 112 126 am
48 3 127 am
49 58 3 am
50 80 58 am
51 126 127 am
52 50 80 am
53 98 2 1
54 67 98 1
55 22 67 1
56 80 2 1
57 58 22 1
58 79 92 1
59 48 79 am
60 3 48 am
61 22 92 1
62 81 53 am
63 33 81 am
64 96 33 am
65 48 53 am
66 79 96 am
67 31 87 1
68 87 109 1
69 99 82 1
70 130 17 1
71 75 86 1
72 39 35 1
73 118 40 1
74 72 21 1
75 13 15 1
76 24 94 1
77 95 84 1
78 90 125 2
79 76 55 2
80 96 128 1
81 33 12 1
82 16 115 1
83 16 47 1
84 42 59 1
85 42 83 1
86 124 71 1
87 25 5 1
88 25 51 1
89 13 106 1
90 72 97 1
91 37 56 1
92 37 103 1
93 63 66 1
94 63 100 1
95 49 68 1
96 49 6 1
97 2 129 1
98 2 41 1
99 98 69 1
100 98 119 1
101 67 91 1
102 67 20 1
103 22 52 1
104 92 29 1
105 92 120 1
106 53 32 1
107 81 9 1
108 87 34 1
109 87 62 1
110 109 61 1
111 109 121 1
112 109 102 1
113 82 26 1
114 82 107 1
115 82 114 1
116 17 10 1
117 17 73 1
118 17 8 1
119 28 77 1
120 28 122 1
121 28 104 1
122 86 1 1
123 86 38 1
124 86 117 1
125 35 11 1
126 35 93 1
127 35 111 1
128 40 44 1
129 21 70 1
130 21 113 1
131 21 23 1
132 15 18 1
133 15 78 1
134 15 64 1
135 94 105 1
136 84 74 1
137 128 123 1
138 128 60 1
139 128 19 1
140 12 46 1
141 12 30 1
142 12 45 1
@<TRIPOS>MOLECULE
Sketch 4
130 142
SMALL
USER_CHARGES


@<TRIPOS>ATOM
1 H9223 2.42804 68.8243 2.70088 H 0.0 **** 0.41
2 C9116 -0.600561 64.428 4.62267 C.ar 0.0 **** 0.0
3 H9221 4.04207 67.1507 8.79222 H 0.0 **** 0.053
4 C9141 4.85563 69.5501 -3.19531 C.ar 0.0 **** 0.0
5 C9142 4.66239 68.1902 -3.47732 C.ar 0.0 **** 0.0
6 H9191 4.84885 71.0356 -4.70466 H 0.0 **** 0.053
7 C9111 -3.87725 61.181 6.83967 C.ar 0.0 **** 0.0
8 H9178 1.51216 65.4965 8.78455 H 0.0 **** 0.053
9 H9187 4.82908 69.0356 -6.26712 H 0.0 **** 0.053
10 H9174 -0.8657 62.712 3.39115 H 0.0 **** 0.1268
11 C9118 -2.03162 64.4557 6.61827 C.ar 0.0 **** 0.042
12 C9104 -2.17344 59.0741 3.43199 C.ar 0.0 **** 0.0
13 H9226 7.1552 75.2557 -2.06189 H 0.0 **** 0.053
14 H9224 0.284768 63.6004 0.856996 H 0.0 **** 0.41
15 C9106 -1.81271 57.0451 2.13618 C.ar 0.0 **** 0.0
16 C9150 3.71321 72.1213 -0.694555 C.ar 0.0 **** -0.1268
17 H9205 -1.01601 60.0718 1.08409 H 0.0 **** 0.053
18 H9218 0.442813 67.1232 10.3606 H 0.0 **** 0.053
19 H9208 -3.91994 55.7997 5.71038 H 0.0 **** 0.053
20 H9197 -1.76921 55.4666 0.669969 H 0.0 **** 0.053
21 C9155 0.253088 55.7916 1.376 C.3 0.0 **** -0.159
22 H9171 -2.11073 61.1044 2.76445 H 0.0 **** 0.053
23 C9138 3.4063 68.0414 -1.4088 C.ar 0.0 **** 0.2405
24 H9229 4.47259 75.9173 0.224253 H 0.0 **** 0.053
25 H9192 7.22864 71.0045 -2.79297 H 0.0 **** 0.053
26 N9139 3.56269 69.3508 -1.16824 N.ar 0.0 **** -0.481
27 H9173 -3.77226 58.5324 6.26661 H 0.0 **** 0.053
28 H9181 2.215 64.4296 -2.24935 H 0.0 **** 0.053
29 C9152 4.99059 74.182 -0.946861 C.ar 0.0 **** 0.0
30 H9177 2.76129 65.9873 6.96834 H 0.0 **** 0.053
31 H9217 2.2031 67.3735 10.265 H 0.0 **** 0.053
32 C9149 4.49957 71.5034 -1.67628 C.ar 0.0 **** 0.0
33 C9151 3.95638 73.4447 -0.348593 C.ar 0.0 **** -0.1268
34 C9132 2.668 67.2284 -0.418273 C.ar 0.0 **** 0.0
35 C9137 3.9396 67.4102 -2.55966 C.ar 0.0 **** 0.0
36 C9117 -0.955922 65.0223 5.89006 C.ar 0.0 **** 0.0
37 H9209 -4.95069 55.5773 4.28704 H 0.0 **** 0.053
38 H9198 0.190907 55.1231 2.2483 H 0.0 **** 0.053
39 C9144 5.70987 68.6002 -5.76625 C.3 0.0 **** -0.106
40 C9122 0.233578 65.1854 3.70867 C.ar 0.0 **** 0.0
41 H9184 4.51536 65.385 -2.16792 H 0.0 **** 0.053
42 H9228 6.21746 75.7474 -0.0781195 H 0.0 **** 0.053
43 C9148 5.53749 72.2305 -2.29572 C.ar 0.0 **** 0.0
44 C9124 2.36867 66.9213 7.40282 C.ar 0.0 **** -0.053
45 C9102 -3.37933 57.0484 4.01268 C.ar 0.0 **** 0.0
46 H9183 3.84048 65.6272 -3.78112 H 0.0 **** 0.053
47 H9214 -4.16416 62.1819 9.24995 H 0.0 **** 0.053
48 H9220 4.31029 67.8695 7.18479 H 0.0 **** 0.053
49 C9120 0.740682 66.7588 5.54319 C.2 0.0 **** 0.0
50 C9126 -0.123152 66.5265 7.82984 C.3 0.0 **** -0.106
51 H9186 4.51198 66.8923 -5.18706 H 0.0 **** 0.053
52 C9146 5.6084 70.4819 -4.1166 C.3 0.0 **** -0.053
53 C9145 6.50153 69.7227 -5.09714 C.3 0.0 **** -0.106
54 H9219 1.0975 68.4745 9.40822 H 0.0 **** 0.053
55 H9210 -5.60421 61.1486 8.1557 H 0.0 **** 0.053
56 O9167 2.92534 68.7968 1.39273 O.2 0.0 **** -0.419
57 H9215 -4.61309 63.7397 8.51391 H 0.0 **** 0.053
58 H9189 6.91084 70.4213 -5.84397 H 0.0 **** 0.053
59 H9202 -2.02684 54.366 2.44329 H 0.0 **** 0.053
60 C9112 -3.42011 62.4342 7.23449 C.ar 0.0 **** 0.0
61 C9154 -1.14309 56.3088 0.994875 C.3 0.0 **** -0.106
62 O9164 1.92325 68.4611 3.57069 O.3 0.0 **** -0.452
63 C9135 2.35986 65.5166 -2.21105 C.3 0.0 **** -0.106
64 H9188 6.30731 68.0994 -6.54302 H 0.0 **** 0.053
65 H9204 0.283621 59.5563 2.15436 H 0.0 **** 0.053
66 C9159 -4.91269 60.4513 7.66615 C.3 0.0 **** -0.159
67 H9175 2.48537 68.0473 5.55461 H 0.0 **** 0.053
68 C9136 3.73387 65.9288 -2.73181 C.3 0.0 **** -0.106
69 C9169 5.21778 75.6116 -0.522572 C.3 0.0 **** -0.159
70 H9190 7.35772 69.2956 -4.54569 H 0.0 **** 0.053
71 H9182 1.57361 65.9645 -2.84745 H 0.0 **** 0.053
72 C9162 1.26579 67.4238 9.69401 C.3 0.0 **** -0.159
73 C9158 -4.39853 56.3288 4.86729 C.3 0.0 **** -0.159
74 C9113 -2.49474 63.1367 6.38752 C.ar 0.0 **** 0.0
75 C9134 1.40255 65.1516 0.0984859 C.2 0.0 **** 0.367
76 C9119 -0.161625 66.1121 6.37708 C.2 0.0 **** 0.0
77 H9176 1.19517 68.5791 6.62861 H 0.0 **** 0.053
78 H9206 -0.105377 58.5876 0.724764 H 0.0 **** 0.053
79 C9101 -2.702 56.3574 2.99104 C.ar 0.0 **** 0.0
80 C9143 5.24744 67.5714 -4.72868 C.3 0.0 **** -0.106
81 H9227 6.73945 74.5266 -3.62503 H 0.0 **** 0.053
82 H9201 -3.19914 54.3916 3.76632 H 0.0 **** 0.053
83 C9108 -2.42455 61.17 4.8769 C.ar 0.0 **** 0.0
84 H9222 3.24701 68.6811 8.35661 H 0.0 **** 0.053
85 H9211 -4.44533 59.8387 8.45725 H 0.0 **** 0.053
86 C9115 -1.12754 63.1712 4.33038 C.ar 0.0 **** -0.1268
87 C9128 1.19744 65.5887 1.45177 C.ar 0.0 **** 0.052
88 C9114 -1.99339 62.493 5.20178 C.ar 0.0 **** 0.0
89 H9196 -1.06386 56.9691 0.118744 H 0.0 **** 0.053
90 C9153 5.79888 73.5622 -1.92328 C.ar 0.0 **** 0.0
91 O9165 -0.0256221 63.6278 1.87391 O.3 0.0 **** -0.452
92 C9123 1.71382 67.6854 6.23456 C.3 0.0 **** -0.106
93 C9130 1.51176 67.2535 3.20474 C.ar 0.0 **** 0.042
94 C9168 6.94874 74.3039 -2.56473 C.3 0.0 **** -0.159
95 O9166 0.921368 64.0406 -0.327439 O.2 0.0 **** -0.419
96 H9216 -2.4518 66.1433 7.42041 H 0.0 **** 0.41
97 H9193 6.85712 72.2297 -4.00934 H 0.0 **** 0.053
98 C9121 0.827749 66.4021 4.15501 C.ar 0.0 **** 0.0
99 O9161 -2.69958 65.2145 7.55323 O.3 0.0 **** -0.452
100 H9172 -4.90291 59.1738 5.10566 H 0.0 **** 0.053
101 H9225 7.87093 73.7034 -2.54326 H 0.0 **** 0.053
102 C9163 3.55856 67.6993 7.96979 C.3 0.0 **** -0.159
103 C9125 1.29937 66.5253 8.45358 C.ar 0.0 **** -0.053
104 H9230 5.1516 76.3039 -1.37716 H 0.0 **** 0.053
105 H9195 3.34134 73.9267 0.414486 H 0.0 **** 0.1268
106 C9105 -1.53217 58.4032 2.37137 C.ar 0.0 **** 0.0
107 C9133 2.16455 66.0018 -0.804124 C.ar 0.0 **** 0.0
108 C9103 -3.10359 58.4119 4.23636 C.ar 0.0 **** 0.0
109 C9110 -3.82217 59.1388 5.34637 C.3 0.0 **** -0.106
110 C9160 -3.81672 62.9825 8.58725 C.3 0.0 **** -0.159
111 H9199 0.913249 56.6281 1.64968 H 0.0 **** 0.053
112 H9179 -0.505702 67.5628 7.90806 H 0.0 **** 0.053
113 H9185 6.10084 66.933 -4.43699 H 0.0 **** 0.053
114 H9170 -0.735535 60.6216 3.71188 H 0.0 **** 0.053
115 C9129 1.71841 66.834 1.8738 C.ar 0.0 **** 0.052
116 C9127 0.456613 64.7758 2.3427 C.ar 0.0 **** 0.042
117 H9180 -0.756445 65.8976 8.46273 H 0.0 **** 0.053
118 H9194 2.9327 71.538 -0.206144 H 0.0 **** 0.1268
119 H9200 0.718739 55.2378 0.545952 H 0.0 **** 0.053
120 H9213 -2.96433 63.4726 9.07237 H 0.0 **** 0.053
121 C9157 -0.545846 59.1811 1.53237 C.3 0.0 **** -0.159
122 C9107 -1.83352 60.5175 3.6618 C.3 0.0 **** -0.106
123 C9109 -3.35602 60.535 5.66757 C.ar 0.0 **** 0.0
124 H9207 -5.1353 57.0192 5.29627 H 0.0 **** 0.053
125 H9203 -3.74064 54.6609 2.1 H 0.0 **** 0.053
126 C9156 -2.92746 54.8704 2.81696 C.3 0.0 **** -0.159
127 C9131 2.46087 67.6912 0.969993 C.2 0.0 **** 0.367
128 H9212 -5.5139 59.7725 7.04895 H 0.0 **** 0.053
129 C9140 4.28978 70.0842 -2.0179 C.ar 0.0 **** 0.2405
130 C9147 6.39532 71.5176 -3.31142 C.3 0.0 **** -0.106
@<TRIPOS>BOND
1 88 86 am
2 98 93 am
3 99 96 1
4 107 63 1
5 108 45 am
6 12 108 am
7 106 12 am
8 15 106 am
9 79 45 am
10 79 15 am
11 83 122 1
12 123 83 am
13 109 123 1
14 12 122 1
15 108 109 1
16 60 7 am
17 74 60 am
18 88 74 am
19 123 7 am
20 83 88 am
21 2 86 am
22 36 2 am
23 11 36 am
24 74 11 am
25 49 76 1
26 98 49 1
27 40 98 am
28 36 76 1
29 2 40 am
30 44 92 1
31 103 44 am
32 50 103 1
33 49 92 1
34 76 50 1
35 87 116 am
36 115 87 am
37 93 115 am
38 40 116 am
39 34 127 1
40 107 34 am
41 75 107 1
42 115 127 1
43 87 75 1
44 68 63 1
45 35 68 1
46 23 35 am
47 34 23 am
48 129 26 am
49 4 129 am
50 5 4 am
51 23 26 am
52 35 5 am
53 39 80 1
54 53 39 1
55 52 53 1
56 5 80 1
57 4 52 1
58 43 130 1
59 32 43 am
60 129 32 am
61 52 130 1
62 33 16 am
63 29 33 am
64 90 29 am
65 32 16 am
66 43 90 am
67 15 61 1
68 61 21 1
69 79 126 1
70 106 121 1
71 45 73 1
72 7 66 1
73 60 110 1
74 11 99 1
75 103 72 1
76 44 102 1
77 93 62 1
78 116 91 1
79 75 95 2
80 127 56 2
81 90 94 1
82 29 69 1
83 122 114 1
84 122 22 1
85 109 100 1
86 109 27 1
87 86 10 1
88 92 67 1
89 92 77 1
90 44 30 1
91 103 8 1
92 50 112 1
93 50 117 1
94 63 28 1
95 63 71 1
96 68 46 1
97 68 41 1
98 80 113 1
99 80 51 1
100 39 9 1
101 39 64 1
102 53 58 1
103 53 70 1
104 52 6 1
105 130 25 1
106 130 97 1
107 16 118 1
108 33 105 1
109 61 89 1
110 61 20 1
111 21 38 1
112 21 111 1
113 21 119 1
114 126 82 1
115 126 59 1
116 126 125 1
117 121 65 1
118 121 17 1
119 121 78 1
120 73 124 1
121 73 19 1
122 73 37 1
123 66 55 1
124 66 85 1
125 66 128 1
126 110 120 1
127 110 47 1
128 110 57 1
129 72 31 1
130 72 18 1
131 72 54 1
132 102 48 1
133 102 3 1
134 102 84 1
135 62 1 1
136 91 14 1
137 94 101 1
138 94 13 1
139 94 81 1
140 69 42 1
141 69 24 1
142 69 104 1
@<TRIPOS>MOLECULE
Sketch 4
250 292
SMALL
USER_CHARGES


@<TRIPOS>ATOM
1 C19181 27.1997 64.781 52.5815 C.2 0.0 **** 0.232
2 H19400 41.4419 59.5716 37.6633 H 0.0 **** 0.053
3 H19323 26.0669 64.8178 58.6305 H 0.0 **** 0.053
4 C19219 30.4477 63.4887 51.1538 C.2 0.0 **** 0.0
5 C19289 41.7095 58.6802 42.9575 C.2 0.0 **** 0.0
6 C19268 39.972 59.6414 46.7587 C.2 0.0 **** 0.0
7 H19404 43.4786 56.9815 35.811 H 0.0 **** 0.053
8 H19317 21.5757 65.4184 58.1263 H 0.0 **** 0.053
9 C19260 37.8158 60.3502 43.0569 C.3 0.0 **** -0.053
10 C19205 28.0955 64.1429 47.6333 C.2 0.0 **** 0.0
11 C19259 36.5274 61.2028 43.1189 C.3 0.0 **** -0.053
12 O19180 26.7451 65.0171 53.8562 O.3 0.0 **** -0.464
13 C19214 32.5628 62.2569 45.9714 C.2 0.0 **** 0.0
14 C19227 30.4325 63.4442 42.5855 C.3 0.0 **** -0.053
15 H19372 36.9173 61.0196 50.2215 H 0.0 **** 0.1268
16 C19183 25.0388 65.4566 51.6665 C.2 0.0 **** 0.0
17 C19222 33.9455 61.8682 45.8433 C.2 0.0 **** 0.0
18 C19294 41.5984 58.684 40.5006 C.2 0.0 **** 0.0
19 H19381 35.8793 63.2253 42.6718 H 0.0 **** 0.053
20 C19239 33.1207 62.4456 50.8578 C.2 0.0 **** 0.0
21 C19271 22.2305 70.6729 49.3039 C.3 0.0 **** -0.053
22 C19220 32.8316 62.3773 48.4301 C.2 0.0 **** 0.0
23 C19230 30.8216 63.9184 40.1671 C.3 0.0 **** -0.106
24 C19179 24.2137 65.8494 58.1319 C.3 0.0 **** -0.106
25 H19306 19.7696 71.8114 57.8172 H 0.0 **** 0.053
26 C19174 24.5464 65.5506 52.9738 C.2 0.0 **** 0.0
27 C19262 38.7774 60.8507 41.9627 C.3 0.0 **** -0.053
28 C19172 21.3372 66.4595 54.847 C.3 0.0 **** -0.053
29 H19334 20.8879 69.1295 51.3045 H 0.0 **** 0.053
30 C19300 43.9983 57.4526 37.8155 C.2 0.0 **** 0.347
31 H19319 20.8323 67.3933 58.9159 H 0.0 **** 0.053
32 H19344 29.0135 64.1465 53.4372 H 0.0 **** 0.1268
33 C19208 30.1767 63.3736 48.6873 C.2 0.0 **** 0.0
34 C19194 20.1803 67.4754 50.1608 C.2 0.0 **** 0.0
35 H19320 21.4297 67.5645 54.8389 H 0.0 **** 0.053
36 C19191 17.6688 66.2071 50.3435 C.3 0.0 **** -0.106
37 H19356 33.2316 60.1715 39.4976 H 0.0 **** 0.053
38 C19245 34.1495 64.8523 54.8927 C.3 0.0 **** -0.106
39 O19160 22.3242 71.8582 57.317 O.3 0.0 **** -0.32
40 C19210 29.8664 63.2189 46.2299 C.2 0.0 **** 0.0
41 H19377 37.3496 60.3936 40.4259 H 0.0 **** 0.053
42 C19162 19.6986 68.1281 56.5471 C.3 0.0 **** 0.107
43 H19359 34.9191 62.5702 38.736 H 0.0 **** 0.053
44 H19331 17.0938 67.1441 50.4893 H 0.0 **** 0.053
45 C19287 43.5155 57.6307 41.6371 C.2 0.0 **** 0.0
46 C19246 34.2371 63.8464 56.0459 C.3 0.0 **** -0.106
47 O19256 38.1272 60.4947 47.9951 O.3 0.0 **** -0.0685
48 H19307 20.429 69.7145 58.9465 H 0.0 **** 0.053
49 H19401 41.0439 57.8006 35.9736 H 0.0 **** 0.053
50 H19313 17.5742 68.2423 56.8771 H 0.0 **** 0.053
51 C19189 18.2479 65.3649 52.7119 C.3 0.0 **** -0.106
52 C19283 45.5439 56.6104 45.2473 C.2 0.0 **** -0.1268
53 C19290 44.0889 57.291 40.3759 C.2 0.0 **** 0.0
54 H19392 42.441 58.4333 48.8064 H 0.0 **** 0.1268
55 C19298 41.6397 57.5705 36.8699 C.3 0.0 **** -0.106
56 H19395 47.0289 55.7259 43.9816 H 0.0 **** 0.1268
57 C19282 43.7294 57.6652 46.5591 C.2 0.0 **** -0.1268
58 H19394 46.0568 56.3583 46.1772 H 0.0 **** 0.1268
59 C19161 21.0243 68.6326 57.1857 C.3 0.0 **** -0.053
60 C19176 25.0346 65.467 55.3883 C.2 0.0 **** 0.0
61 H19308 23.0287 70.0116 57.9688 H 0.0 **** 0.053
62 O19165 19.5933 66.6968 56.5965 O.3 0.0 **** -0.32
63 H19393 44.2521 57.4019 47.4813 H 0.0 **** 0.1268
64 C19299 43.1285 57.6789 36.5852 C.3 0.0 **** -0.086
65 H19318 22.4975 67.8977 58.5953 H 0.0 **** 0.053
66 H19353 31.3753 61.1185 41.2856 H 0.0 **** 0.053
67 C19232 32.0838 61.9636 41.2529 C.3 0.0 **** -0.053
68 C19251 36.825 60.962 48.088 C.2 0.0 **** 0.042
69 C19185 20.9058 66.3502 52.3677 C.2 0.0 **** 0.0
70 C19235 33.9059 62.1611 38.8644 C.3 0.0 **** 0.081
71 C19249 34.427 61.9515 50.7277 C.2 0.0 **** -0.1268
72 C19198 19.6871 68.132 47.7908 C.3 0.0 **** -0.106
73 C19295 43.3813 57.6468 39.163 C.2 0.0 **** 0.052
74 C19281 44.2984 57.307 45.3264 C.2 0.0 **** 0.0
75 C19286 44.1805 57.2869 42.8529 C.2 0.0 **** 0.0
76 H19369 33.4658 61.8388 56.428 H 0.0 **** 0.053
77 C19276 41.9049 58.6879 47.8904 C.2 0.0 **** -0.1268
78 C19200 22.8131 66.0461 50.8251 C.2 0.0 **** -0.1268
79 H19350 31.3679 64.8043 40.5383 H 0.0 **** 0.053
80 C19221 32.2988 62.6718 49.7122 C.2 0.0 **** 0.0
81 H19340 18.8267 68.8124 47.6376 H 0.0 **** 0.053
82 C19248 34.9717 61.6804 49.4726 C.2 0.0 **** 0.0
83 C19211 28.6035 63.8124 46.3808 C.2 0.0 **** -0.1268
84 C19155 21.9506 71.5567 55.9682 C.3 0.0 **** 0.054
85 H19311 19.6513 68.4433 55.4868 H 0.0 **** 0.053
86 C19229 29.771 63.5058 41.2033 C.3 0.0 **** -0.106
87 H19360 33.5387 63.8689 39.9501 H 0.0 **** 0.353
88 C19192 18.3858 66.2512 48.991 C.3 0.0 **** -0.106
89 C19173 23.1723 65.886 53.2641 C.2 0.0 **** 0.0
90 H19402 41.3904 56.5422 37.1792 H 0.0 **** 0.053
91 H19302 22.2443 72.4307 55.3709 H 0.0 **** 0.053
92 C19206 28.8679 63.9091 48.8124 C.2 0.0 **** 0.0
93 C19278 41.8193 58.6847 45.4273 C.2 0.0 **** 0.0
94 C19156 20.4347 71.2714 55.855 C.3 0.0 **** -0.106
95 C19212 30.3597 62.7777 44.9663 C.2 0.0 **** 0.0
96 H19368 35.2526 63.8161 56.4673 H 0.0 **** 0.053
97 H19373 34.0536 61.9181 43.6997 H 0.0 **** 0.1268
98 H19348 29.3524 62.5186 40.9425 H 0.0 **** 0.053
99 C19197 20.9845 68.9368 47.8651 C.3 0.0 **** -0.106
100 H19337 21.8417 68.2493 47.7787 H 0.0 **** 0.053
101 C19267 40.5632 59.35 45.4893 C.2 0.0 **** 0.0
102 H19322 26.5699 66.2256 56.6745 H 0.0 **** 0.053
103 C19216 29.0997 64.0044 51.2698 C.2 0.0 **** 0.0
104 H19375 37.521 59.3218 42.7675 H 0.0 **** 0.053
105 C19170 23.6551 65.8041 55.6816 C.2 0.0 **** 0.0
106 C19265 36.7744 62.6019 42.526 C.3 0.0 **** -0.106
107 O19301 45.1864 57.1791 37.6385 O.2 0.0 **** -0.419
108 C19223 34.7141 61.6525 47.026 C.2 0.0 **** 0.0
109 H19343 28.0109 64.0537 45.5039 H 0.0 **** 0.1268
110 C19175 25.4203 65.3374 54.0829 C.2 0.0 **** 0.232
111 C19234 33.9288 60.9523 39.8416 C.3 0.0 **** -0.106
112 C19237 31.3096 63.2674 52.2857 C.2 0.0 **** 0.042
113 H19396 45.7594 56.3035 39.4241 H 0.0 **** 0.1268
114 C19215 32.0258 62.5511 47.2561 C.2 0.0 **** 0.0
115 C19158 20.8401 69.959 57.9528 C.3 0.0 **** -0.053
116 H19305 20.2675 70.4565 55.1329 H 0.0 **** 0.053
117 C19263 37.9872 61.2446 40.72 C.3 0.0 **** -0.106
118 C19166 20.8128 66.0312 56.2267 C.3 0.0 **** 0.107
119 H19346 30.5427 64.475 42.9584 H 0.0 **** 0.053
120 C19233 33.5171 61.4066 41.241 C.3 0.0 **** -0.106
121 C19168 21.5708 67.5515 58.1142 C.3 0.0 **** -0.106
122 C19293 40.4308 59.486 40.5945 C.2 0.0 **** -0.1268
123 H19338 21.0465 69.6457 47.0252 H 0.0 **** 0.053
124 C19188 18.6668 66.06 51.4579 C.2 0.0 **** 0.0
125 C19273 21.9444 71.9306 48.4769 C.3 0.0 **** -0.159
126 C19291 45.3179 56.5745 40.3771 C.2 0.0 **** -0.1268
127 H19347 29.6458 61.6043 43.3391 H 0.0 **** 0.053
128 H19382 37.5865 63.089 43.0887 H 0.0 **** 0.053
129 C19269 39.9007 59.8625 41.8082 C.2 0.0 **** 0.0
130 C19178 25.3373 64.8621 57.8075 C.3 0.0 **** -0.106
131 C19238 32.5789 62.7296 52.1381 C.2 0.0 **** 0.042
132 C19250 36.0578 61.1997 46.9058 C.2 0.0 **** 0.0
133 H19349 28.9277 64.2073 41.2333 H 0.0 **** 0.053
134 H19398 39.9617 59.8528 39.6854 H 0.0 **** 0.1268
135 C19171 22.7457 65.9798 54.5774 C.2 0.0 **** 0.0
136 H19342 26.2322 64.8931 46.83 H 0.0 **** 0.1268
137 C19167 21.817 66.2002 57.3809 C.3 0.0 **** -0.053
138 C19264 37.1241 62.4931 41.0297 C.3 0.0 **** -0.106
139 H19315 18.0062 70.4911 56.144 H 0.0 **** 0.053
140 C19228 29.6204 62.6732 43.636 C.3 0.0 **** 0.107
141 H19329 18.746 65.4438 54.8761 H 0.0 **** 0.1268
142 H19310 21.7632 68.8074 56.3874 H 0.0 **** 0.053
143 H19380 37.6564 63.4025 40.7109 H 0.0 **** 0.053
144 H19355 33.6115 60.5933 41.9733 H 0.0 **** 0.053
145 C19224 34.1623 61.8974 48.3088 C.2 0.0 **** 0.0
146 C19164 18.4481 70.2315 57.1201 C.3 0.0 **** -0.106
147 C19187 19.9164 66.5913 51.3191 C.2 0.0 **** 0.0
148 H19383 22.3036 70.9741 50.3649 H 0.0 **** 0.053
149 H19376 39.2565 61.7696 42.357 H 0.0 **** 0.053
150 H19358 33.5683 61.8266 37.8688 H 0.0 **** 0.053
151 C19279 42.3805 58.3312 44.1716 C.2 0.0 **** 0.0
152 C19231 31.8157 62.7751 39.9411 C.3 0.0 **** 0.134
153 C19177 26.027 65.2761 56.5071 C.3 0.0 **** -0.106
154 H19328 17.202 65.6428 52.9478 H 0.0 **** 0.053
155 C19244 32.6905 65.0007 54.4096 C.3 0.0 **** -0.106
156 C19182 26.3987 65.0228 51.4507 C.2 0.0 **** 0.0
157 C19297 41.2955 58.5289 38.0034 C.3 0.0 **** -0.106
158 H19345 32.6111 63.5832 42.5722 H 0.0 **** 0.053
159 H19384 24.398 70.7585 49.0999 H 0.0 **** 0.053
160 H19352 31.3609 62.0715 39.223 H 0.0 **** 0.053
161 C19275 40.6879 59.3076 47.9545 C.2 0.0 **** -0.1268
162 C19242 31.8766 63.6985 54.5593 C.3 0.0 **** 0.107
163 C19285 45.4179 56.5909 42.813 C.2 0.0 **** 0.0
164 C19195 21.1273 68.6388 50.3441 C.3 0.0 **** -0.106
165 C19204 26.7977 64.7074 47.746 C.2 0.0 **** -0.1268
166 O19274 28.269 63.1322 43.575 O.3 0.0 **** -0.57
167 C19190 19.1413 65.6413 53.8811 C.2 0.0 **** -0.1268
168 H19327 18.194 64.2681 52.5342 H 0.0 **** 0.053
169 H19316 20.5371 64.9694 56.1476 H 0.0 **** 0.053
170 H19385 23.5854 69.8457 47.8111 H 0.0 **** 0.053
171 H19378 38.6541 61.453 39.8714 H 0.0 **** 0.053
172 C19270 40.492 59.3896 43.0127 C.2 0.0 **** 0.0
173 C19284 46.0806 56.2643 44.0355 C.2 0.0 **** -0.1268
174 C19217 28.4882 64.2991 52.506 C.2 0.0 **** -0.1268
175 H19333 18.8351 65.2604 48.7858 H 0.0 **** 0.053
176 H19357 34.932 60.4975 39.8608 H 0.0 **** 0.053
177 H19362 31.3148 63.6912 55.5042 H 0.0 **** 0.053
178 C19218 30.9724 63.1763 49.8639 C.2 0.0 **** 0.0
179 C19157 19.8493 70.8854 57.2292 C.3 0.0 **** -0.053
180 H19403 43.3634 58.6968 36.2226 H 0.0 **** 0.053
181 C19280 43.6148 57.6422 44.1131 C.2 0.0 **** 0.0
182 H19332 17.6774 66.4581 48.1737 H 0.0 **** 0.053
183 H19339 19.6898 67.4632 46.9108 H 0.0 **** 0.053
184 C19252 36.3102 61.1962 49.333 C.2 0.0 **** -0.1268
185 H19326 23.6731 65.5478 59.045 H 0.0 **** 0.053
186 H19399 40.2313 58.4329 38.2607 H 0.0 **** 0.053
187 H19367 33.569 64.1768 56.8597 H 0.0 **** 0.053
188 H19325 24.6608 66.8379 58.3593 H 0.0 **** 0.053
189 H19388 21.8652 71.6841 47.4061 H 0.0 **** 0.053
190 O19243 30.859 63.598 53.5441 O.3 0.0 **** -0.202
191 H19397 46.8938 55.6838 41.5208 H 0.0 **** 0.1268
192 H19371 35.0256 61.7831 51.6216 H 0.0 **** 0.1268
193 C19266 39.8827 59.6782 44.2826 C.2 0.0 **** 0.0
194 C19186 22.2689 66.1501 52.1408 C.2 0.0 **** 0.0
195 C19254 35.9127 61.2922 44.4905 C.2 0.0 **** 0.0
196 S19203 24.6733 65.7702 48.9291 S.2 0.0 **** 0.024
197 C19257 38.6908 60.2248 46.7691 C.2 0.0 **** 0.0265
198 C19163 18.4923 68.7001 57.2722 C.3 0.0 **** -0.106
199 C19213 31.6673 62.3423 44.8636 C.2 0.0 **** 0.042
200 C19199 24.131 65.7384 50.5924 C.2 0.0 **** -0.012
201 H19364 32.1751 65.7918 54.9738 H 0.0 **** 0.053
202 O19240 33.4036 62.4584 53.2054 O.3 0.0 **** -0.202
203 C19209 30.6926 63.0391 47.3977 C.2 0.0 **** 0.0
204 C19207 28.3185 64.2249 50.0855 C.2 0.0 **** 0.0
205 H19309 22.2744 71.0901 59.1831 H 0.0 **** 0.053
206 C19272 23.5746 70.059 48.8912 C.3 0.0 **** -0.159
207 H19389 22.752 72.6701 48.588 H 0.0 **** 0.053
208 H19387 20.9986 72.4027 48.7866 H 0.0 **** 0.053
209 C19159 22.1835 70.7063 58.1573 C.3 0.0 **** 0.054
210 H19324 24.9073 63.8544 57.688 H 0.0 **** 0.053
211 H19390 27.7365 62.5359 44.1237 H 0.0 **** 0.41
212 C19226 31.8372 62.7953 42.5104 C.3 0.0 **** 0.107
213 C19169 23.2406 65.9724 56.9932 C.2 0.0 **** 0.0
214 C19261 38.5867 60.2125 44.3429 C.2 0.0 **** 0.0
215 H19366 34.7768 64.4981 54.0614 H 0.0 **** 0.053
216 H19303 22.5382 70.687 55.6118 H 0.0 **** 0.053
217 C19258 37.9937 60.4889 45.5777 C.2 0.0 **** 0.0
218 C19241 32.7491 62.4562 54.4927 C.3 0.0 **** 0.107
219 C19288 42.279 58.3337 41.699 C.2 0.0 **** 0.0
220 H19304 19.8984 72.1537 55.4735 H 0.0 **** 0.053
221 C19296 42.1292 58.2717 39.239 C.2 0.0 **** 0.0
222 H19379 36.1955 62.4451 40.4435 H 0.0 **** 0.053
223 C19292 45.9534 56.2379 41.5541 C.2 0.0 **** -0.1268
224 H19321 26.7877 64.5396 56.2111 H 0.0 **** 0.053
225 N19236 33.0361 63.2647 39.2987 N.3 0.0 **** -0.727
226 H19370 34.6944 61.9004 55.1574 H 0.0 **** 0.053
227 H19361 32.1073 61.5609 54.5441 H 0.0 **** 0.053
228 H19312 18.5615 68.4188 58.3355 H 0.0 **** 0.053
229 H19335 22.1631 68.2848 50.459 H 0.0 **** 0.053
230 C19196 21.0632 69.668 49.2099 C.3 0.0 **** -0.053
231 C19202 26.2536 65.0041 48.9695 C.2 0.0 **** -0.012
232 H19314 17.7774 70.6471 57.887 H 0.0 **** 0.053
233 C19201 26.9836 64.7552 50.1867 C.2 0.0 **** 0.0
234 C19193 19.4632 67.3072 49.0244 C.2 0.0 **** 0.0
235 H19354 34.2067 62.203 41.57 H 0.0 **** 0.053
236 H19391 40.2383 59.5495 48.9174 H 0.0 **** 0.1268
237 H19336 20.1242 70.2411 49.3245 H 0.0 **** 0.053
238 H19374 35.7889 60.7233 42.4584 H 0.0 **** 0.053
239 C19247 33.8283 62.4348 55.5772 C.3 0.0 **** -0.106
240 H19330 16.9403 65.3815 50.3814 H 0.0 **** 0.053
241 H19351 30.3735 64.2067 39.2064 H 0.0 **** 0.053
242 C19255 34.6008 61.7136 44.6064 C.2 0.0 **** -0.1268
243 H19363 32.6714 65.2949 53.3502 H 0.0 **** 0.053
244 C19277 42.5069 58.3404 46.6358 C.2 0.0 **** 0.0
245 C19184 20.3941 66.1219 53.7166 C.2 0.0 **** 0.0
246 H19341 22.144 66.1801 49.9754 H 0.0 **** 0.1268
247 C19253 36.6455 60.9985 45.6478 C.2 0.0 **** 0.0
248 O19225 32.0686 61.8887 43.6256 O.3 0.0 **** -0.202
249 H19386 23.7876 69.1173 49.4194 H 0.0 **** 0.053
250 H19365 34.5389 65.8333 55.2022 H 0.0 **** 0.053
@<TRIPOS>BOND
1 67 66 1
2 179 94 1
3 115 179 1
4 209 115 1
5 39 209 1
6 84 94 1
7 84 39 1
8 42 59 1
9 198 42 1
10 146 198 1
11 115 59 1
12 179 146 1
13 118 62 1
14 137 118 1
15 121 137 1
16 42 62 1
17 59 121 1
18 105 213 un
19 135 105 un
20 28 135 un
21 137 213 1
22 118 28 1
23 26 89 1
24 110 26 un
25 60 110 un
26 135 89 un
27 105 60 un
28 130 153 1
29 24 130 1
30 213 24 1
31 60 153 1
32 1 12 1
33 156 1 un
34 16 156 un
35 110 12 1
36 26 16 un
37 69 245 un
38 194 69 2
39 28 245 1
40 89 194 un
41 124 147 2
42 51 124 1
43 167 51 1
44 69 147 1
45 245 167 2
46 88 36 1
47 234 88 1
48 34 234 2
49 124 36 1
50 147 34 1
51 230 164 1
52 99 230 1
53 72 99 1
54 34 164 1
55 234 72 1
56 78 200 un
57 194 78 un
58 16 200 un
59 231 233 un
60 196 231 1
61 200 196 un
62 156 233 un
63 10 165 un
64 92 10 un
65 204 92 un
66 231 165 un
67 233 204 un
68 203 33 un
69 40 203 un
70 83 40 un
71 92 33 un
72 10 83 un
73 199 95 un
74 13 199 un
75 114 13 un
76 40 95 un
77 203 114 un
78 174 103 un
79 1 174 un
80 204 103 un
81 4 178 un
82 103 4 un
83 33 178 un
84 80 22 un
85 178 80 un
86 114 22 un
87 108 17 un
88 145 108 un
89 22 145 un
90 13 17 un
91 212 248 1
92 14 212 1
93 140 14 1
94 199 248 1
95 95 140 1
96 23 86 1
97 152 23 1
98 67 152 1
99 14 86 1
100 212 67 1
101 111 120 1
102 70 111 1
103 225 70 1
104 67 120 1
105 152 225 1
106 131 112 un
107 20 131 un
108 80 20 un
109 4 112 un
110 218 202 1
111 162 218 1
112 190 162 1
113 131 202 1
114 112 190 1
115 38 155 1
116 46 38 1
117 239 46 1
118 162 155 1
119 218 239 1
120 71 82 un
121 20 71 un
122 145 82 un
123 68 132 un
124 184 68 un
125 82 184 un
126 108 132 un
127 195 247 un
128 242 195 un
129 17 242 un
130 132 247 un
131 197 47 1
132 217 197 un
133 68 47 1
134 247 217 1
135 9 11 1
136 214 9 1
137 195 11 1
138 217 214 un
139 117 27 1
140 138 117 1
141 106 138 1
142 9 27 1
143 11 106 1
144 101 193 1
145 6 101 1
146 197 6 un
147 214 193 un
148 27 129 1
149 193 172 un
150 129 172 un
151 230 21 1
152 21 206 1
153 21 125 1
154 140 166 1
155 77 161 1
156 244 77 un
157 93 244 1
158 6 161 un
159 101 93 un
160 181 151 un
161 74 181 1
162 57 74 un
163 93 151 un
164 244 57 un
165 173 52 un
166 163 173 1
167 75 163 1
168 74 52 un
169 181 75 un
170 219 45 un
171 5 219 un
172 151 5 un
173 75 45 un
174 126 53 un
175 223 126 un
176 163 223 un
177 45 53 un
178 18 122 un
179 219 18 un
180 172 5 un
181 129 122 un
182 221 73 un
183 18 221 un
184 53 73 un
185 55 157 1
186 64 55 1
187 30 64 1
188 221 157 1
189 73 30 1
190 30 107 2
191 84 91 1
192 84 216 1
193 94 220 1
194 94 116 1
195 179 25 1
196 115 48 1
197 209 61 1
198 209 205 1
199 59 142 1
200 42 85 1
201 198 228 1
202 198 50 1
203 146 232 1
204 146 139 1
205 118 169 1
206 137 8 1
207 121 65 1
208 121 31 1
209 28 35 1
210 153 224 1
211 153 102 1
212 130 3 1
213 130 210 1
214 24 188 1
215 24 185 1
216 51 168 1
217 51 154 1
218 167 141 1
219 36 240 1
220 36 44 1
221 88 182 1
222 88 175 1
223 164 29 1
224 164 229 1
225 230 237 1
226 99 100 1
227 99 123 1
228 72 183 1
229 72 81 1
230 78 246 1
231 165 136 1
232 83 109 1
233 174 32 1
234 212 158 1
235 14 119 1
236 140 127 1
237 86 98 1
238 86 133 1
239 23 79 1
240 23 241 1
241 152 160 1
242 120 235 1
243 120 144 1
244 111 37 1
245 111 176 1
246 70 150 1
247 70 43 1
248 225 87 1
249 218 227 1
250 162 177 1
251 155 243 1
252 155 201 1
253 38 250 1
254 38 215 1
255 46 187 1
256 46 96 1
257 239 76 1
258 239 226 1
259 71 192 1
260 184 15 1
261 242 97 1
262 11 238 1
263 9 104 1
264 27 149 1
265 117 41 1
266 117 171 1
267 138 222 1
268 138 143 1
269 106 19 1
270 106 128 1
271 21 148 1
272 206 159 1
273 206 170 1
274 206 249 1
275 125 208 1
276 125 189 1
277 125 207 1
278 166 211 1
279 161 236 1
280 77 54 1
281 57 63 1
282 52 58 1
283 173 56 1
284 126 113 1
285 223 191 1
286 122 134 1
287 157 186 1
288 157 2 1
289 55 49 1
290 55 90 1
291 64 180 1
292 64 7 1
@<TRIPOS>MOLECULE
Sketch 4
130 142
SMALL
USER_CHARGES


@<TRIPOS>ATOM
1 C6114 37.2979 31.642 29.076 C.ar 0.0 **** 0.0
2 H6195 32.5617 39.1194 39.7438 H 0.0 **** 0.053
3 C6116 35.3383 30.2028 28.9556 C.ar 0.0 **** 0.0
4 C6178 36.9474 44.7883 42.4241 C.3 0.0 **** -0.159
5 H6192 35.8782 35.9464 38.0429 H 0.0 **** 0.053
6 H6225 43.8376 34.6179 27.6897 H 0.0 **** 0.053
7 H6236 37.5574 45.6897 42.5535 H 0.0 **** 0.053
8 C6136 41.9665 39.1853 29.6977 C.3 0.0 **** -0.106
9 C6133 40.6478 40.5583 31.6051 C.3 0.0 **** -0.106
10 H6197 33.8642 38.7514 42.4926 H 0.0 **** 0.053
11 C6130 40.5106 39.0549 31.6706 C.2 0.0 **** 0.0
12 H6202 34.7817 42.9538 40.7033 H 0.0 **** 0.053
13 O6171 42.9162 36.476 29.2575 O.3 0.0 **** -0.452
14 C6179 39.7817 45.1169 41.5666 C.3 0.0 **** -0.159
15 C6126 39.7378 36.3739 31.1283 C.ar 0.0 **** 0.0
16 C6142 36.8662 38.4041 36.7469 C.ar 0.0 **** 0.0
17 C6122 41.7099 34.2025 27.9436 C.ar 0.0 **** 0.0
18 C6123 41.0943 34.9474 29.0082 C.ar 0.0 **** 0.0
19 H6239 40.7993 45.0557 41.1576 H 0.0 **** 0.053
20 H6198 32.1752 39.1426 42.1289 H 0.0 **** 0.053
21 H6200 32.9707 41.3629 41.1484 H 0.0 **** 0.053
22 C6129 41.1359 38.3541 30.648 C.2 0.0 **** 0.0
23 C6173 40.1018 42.5445 30.1316 C.3 0.0 **** -0.159
24 O6176 36.326 35.3195 34.899 O.2 0.0 **** -0.419
25 H6227 41.8542 42.2741 28.1148 H 0.0 **** 0.053
26 H6205 40.5478 43.1522 39.896 H 0.0 **** 0.1268
27 H6187 39.2626 40.5834 29.9927 H 0.0 **** 0.053
28 H6209 32.9758 31.7049 29.0199 H 0.0 **** 0.053
29 H6216 34.4071 31.7808 30.9378 H 0.0 **** 0.053
30 H6204 39.2147 41.2146 39.0433 H 0.0 **** 0.1268
31 H6228 42.9914 40.9136 27.9531 H 0.0 **** 0.053
32 H6226 43.2117 37.1484 29.8918 H 0.0 **** 0.41
33 C6147 35.1571 38.5894 38.5581 C.ar 0.0 **** 0.0
34 H6238 39.346 46.0779 41.2471 H 0.0 **** 0.053
35 H6217 39.0151 29.0456 26.472 H 0.0 **** 0.053
36 H6199 33.367 41.2093 42.8724 H 0.0 **** 0.053
37 H6193 33.6922 36.9974 38.5342 H 0.0 **** 0.053
38 C6150 36.6593 40.6232 39.6413 C.ar 0.0 **** 0.2405
39 H6191 34.813 35.7271 36.6492 H 0.0 **** 0.053
40 C6135 41.2325 40.4347 29.1384 C.ar 0.0 **** -0.053
41 C6153 33.399 38.7776 40.3787 C.3 0.0 **** -0.106
42 H6240 39.8546 45.149 42.6655 H 0.0 **** 0.053
43 H6189 42.8567 39.5548 30.2429 H 0.0 **** 0.053
44 C6158 36.8796 42.6675 41.0601 C.ar 0.0 **** 0.0
45 C6128 41.6154 36.1427 29.5623 C.ar 0.0 **** 0.042
46 C6160 38.7871 41.9246 39.7512 C.ar 0.0 **** -0.1268
47 C6163 37.6105 43.7817 41.5127 C.ar 0.0 **** 0.0
48 H6237 36.7664 44.3627 43.4259 H 0.0 **** 0.053
49 C6166 35.181 28.3913 27.1866 C.3 0.0 **** -0.159
50 H6196 33.3347 37.6785 40.3879 H 0.0 **** 0.053
51 H6215 36.0433 32.1477 31.5291 H 0.0 **** 0.053
52 O6177 38.3507 40.209 36.1601 O.2 0.0 **** -0.419
53 H6182 39.9917 30.4075 27.8591 H 0.0 **** 0.053
54 C6137 38.2142 36.4514 33.1555 C.ar 0.0 **** 0.042
55 C6131 39.6521 38.3717 32.597 C.ar 0.0 **** 0.0
56 H6207 33.7842 28.7383 29.2445 H 0.0 **** 0.053
57 H6223 42.7658 35.8461 27.0231 H 0.0 **** 0.053
58 C6134 40.2546 41.0227 30.1883 C.ar 0.0 **** -0.053
59 H6229 42.889 41.8083 29.4863 H 0.0 **** 0.053
60 H6183 39.3302 31.2792 26.5025 H 0.0 **** 0.053
61 N6149 37.119 40.0019 38.55 N.ar 0.0 **** -0.481
62 C6165 32.8486 30.6376 28.7851 C.3 0.0 **** -0.159
63 C6145 35.3439 36.4856 37.2382 C.3 0.0 **** -0.106
64 C6117 37.9758 32.8228 29.7067 C.3 0.0 **** -0.106
65 H6184 38.4234 34.6996 31.1569 H 0.0 **** 0.1268
66 C6143 36.3594 37.1749 36.3741 C.ar 0.0 **** 0.0
67 H6190 42.3265 38.6086 28.8404 H 0.0 **** 0.053
68 C6148 36.3834 39.0262 37.9988 C.ar 0.0 **** 0.2405
69 C6138 37.7723 37.1135 34.3259 C.ar 0.0 **** 0.052
70 C6125 39.2705 35.1461 30.6624 C.ar 0.0 **** -0.1268
71 H6224 42.9539 34.3016 26.1767 H 0.0 **** 0.053
72 H6181 38.119 32.6265 30.7872 H 0.0 **** 0.053
73 C6120 39.3148 31.2469 27.6051 C.3 0.0 **** -0.106
74 C6118 39.2823 33.2559 29.1091 C.ar 0.0 **** 0.0
75 H6203 35.2165 42.944 42.4149 H 0.0 **** 0.053
76 C6111 35.9402 29.4952 27.8919 C.ar 0.0 **** 0.0
77 C6154 33.2124 39.3129 41.8026 C.3 0.0 **** -0.106
78 H6218 37.6461 29.3489 25.3903 H 0.0 **** 0.053
79 H6213 35.3269 27.4144 27.68 H 0.0 **** 0.053
80 H6188 40.6414 40.1067 28.2689 H 0.0 **** 0.053
81 C6156 35.0578 40.9856 41.5401 C.3 0.0 **** -0.053
82 C6141 37.8693 39.0646 35.8856 C.2 0.0 **** 0.367
83 H6212 34.1013 28.5894 27.171 H 0.0 **** 0.053
84 C6170 42.8795 34.7651 27.1669 C.3 0.0 **** -0.159
85 H6194 33.7716 37.955 37.0533 H 0.0 **** 0.053
86 H6210 31.8513 30.322 29.129 H 0.0 **** 0.053
87 H6221 41.4832 32.4152 25.4865 H 0.0 **** 0.053
88 H6230 39.3331 42.8762 30.8453 H 0.0 **** 0.053
89 H6233 39.2767 40.376 35.1238 H 0.0 **** 0.41
90 H6206 33.9038 29.9127 30.5351 H 0.0 **** 0.053
91 C6159 37.4629 41.7405 40.1712 C.ar 0.0 **** 0.0
92 C6113 37.9214 30.901 28.0696 C.ar 0.0 **** 0.0
93 C6152 34.6977 39.209 39.7319 C.ar 0.0 **** 0.0
94 C6162 38.949 43.9493 41.0988 C.ar 0.0 **** 0.0
95 H6219 37.635 27.9379 26.4611 H 0.0 **** 0.053
96 C6172 42.2973 41.4184 28.6426 C.3 0.0 **** -0.159
97 C6124 39.8685 34.4672 29.5898 C.ar 0.0 **** 0.0
98 C6155 33.5788 40.7944 41.8742 C.3 0.0 **** -0.106
99 H6180 37.284 33.6831 29.688 H 0.0 **** 0.053
100 H6214 35.2955 33.1787 30.3133 H 0.0 **** 0.053
101 C6167 35.3996 32.129 30.6343 C.3 0.0 **** -0.159
102 O6174 39.7987 40.1384 34.2213 O.3 0.0 **** -0.452
103 H6234 37.0318 35.0642 33.6996 H 0.0 **** 0.41
104 H6185 40.0189 41.0576 32.3425 H 0.0 **** 0.053
105 C6157 35.4366 42.465 41.4507 C.3 0.0 **** -0.106
106 C6115 36.0118 31.2932 29.5349 C.ar 0.0 **** 0.0
107 O6175 37.7016 35.2517 32.8949 O.3 0.0 **** -0.452
108 C6121 41.1516 32.9869 27.5611 C.ar 0.0 **** 0.0
109 C6144 36.8001 36.4802 35.1734 C.2 0.0 **** 0.367
110 C6164 33.9606 29.8045 29.4419 C.3 0.0 **** -0.106
111 H6211 35.5075 28.2818 26.1446 H 0.0 **** 0.053
112 C6151 35.4538 40.2566 40.277 C.ar 0.0 **** 0.0
113 H6201 35.654 40.5464 42.3653 H 0.0 **** 0.053
114 C6127 40.8679 36.9601 30.4465 C.ar 0.0 **** 0.0
115 H6222 41.5938 31.0751 26.6361 H 0.0 **** 0.053
116 H6231 39.8031 42.8811 29.1273 H 0.0 **** 0.053
117 H6208 32.8871 30.5353 27.6897 H 0.0 **** 0.053
118 H6220 42.912 32.2486 26.5261 H 0.0 **** 0.053
119 C6139 38.2928 38.3802 34.6793 C.ar 0.0 **** 0.052
120 C6132 39.1888 37.0606 32.2823 C.ar 0.0 **** 0.0
121 C6140 39.2465 38.9933 33.8399 C.ar 0.0 **** 0.042
122 H6186 41.6883 40.8688 31.8149 H 0.0 **** 0.053
123 C6112 37.2463 29.8151 27.4776 C.ar 0.0 **** 0.0
124 C6169 41.8203 32.1399 26.5014 C.3 0.0 **** -0.159
125 C6146 34.388 37.5036 37.8538 C.3 0.0 **** -0.106
126 C6161 39.5148 43.0108 40.2213 C.ar 0.0 **** -0.1268
127 C6168 37.9215 28.9964 26.4002 C.3 0.0 **** -0.159
128 H6232 41.0435 43.0512 30.3909 H 0.0 **** 0.053
129 C6119 39.9163 32.5247 28.1297 C.ar 0.0 **** 0.0
130 H6235 35.9674 45.0973 42.0295 H 0.0 **** 0.053
@<TRIPOS>BOND
1 92 123 am
2 1 92 am
3 106 1 am
4 3 106 am
5 76 123 am
6 76 3 am
7 74 64 1
8 129 74 am
9 73 129 1
10 1 64 1
11 92 73 1
12 17 108 am
13 18 17 am
14 97 18 am
15 129 108 am
16 74 97 am
17 15 70 am
18 114 15 am
19 45 114 am
20 97 70 am
21 18 45 am
22 11 22 1
23 55 11 1
24 120 55 am
25 114 22 1
26 15 120 am
27 58 9 1
28 40 58 am
29 8 40 1
30 11 9 1
31 22 8 1
32 69 54 am
33 119 69 am
34 121 119 am
35 120 54 am
36 55 121 am
37 16 82 1
38 66 16 am
39 109 66 1
40 119 82 1
41 69 109 1
42 125 63 1
43 33 125 1
44 68 33 am
45 66 63 1
46 16 68 am
47 38 61 am
48 112 38 am
49 93 112 am
50 68 61 am
51 33 93 am
52 77 41 1
53 98 77 1
54 81 98 1
55 93 41 1
56 112 81 1
57 44 105 1
58 91 44 am
59 38 91 am
60 81 105 1
61 126 46 am
62 94 126 am
63 47 94 am
64 91 46 am
65 44 47 am
66 3 110 1
67 110 62 1
68 76 49 1
69 106 101 1
70 123 127 1
71 108 124 1
72 17 84 1
73 45 13 1
74 40 96 1
75 58 23 1
76 121 102 1
77 54 107 1
78 109 24 2
79 82 52 2
80 47 4 1
81 94 14 1
82 64 99 1
83 64 72 1
84 73 53 1
85 73 60 1
86 70 65 1
87 9 104 1
88 9 122 1
89 58 27 1
90 40 80 1
91 8 43 1
92 8 67 1
93 63 39 1
94 63 5 1
95 125 37 1
96 125 85 1
97 41 2 1
98 41 50 1
99 77 10 1
100 77 20 1
101 98 36 1
102 98 21 1
103 81 113 1
104 105 12 1
105 105 75 1
106 46 30 1
107 126 26 1
108 110 90 1
109 110 56 1
110 62 117 1
111 62 28 1
112 62 86 1
113 49 111 1
114 49 83 1
115 49 79 1
116 101 100 1
117 101 51 1
118 101 29 1
119 127 35 1
120 127 78 1
121 127 95 1
122 124 118 1
123 124 87 1
124 124 115 1
125 84 57 1
126 84 71 1
127 84 6 1
128 13 32 1
129 96 25 1
130 96 31 1
131 96 59 1
132 23 88 1
133 23 116 1
134 23 128 1
135 102 89 1
136 107 103 1
137 4 130 1
138 4 7 1
139 4 48 1
140 14 34 1
141 14 19 1
142 14 42 1
@<TRIPOS>MOLECULE
Sketch 4
130 142
SMALL
USER_CHARGES


@<TRIPOS>ATOM
1 H3328 35.1293 -4.70932 0.931203 H 0.0 **** 0.053
2 H3333 32.6598 7.72908 2.5194 H 0.0 **** 0.053
3 O3317 32.1053 1.9871 4.61104 O.2 0.0 **** -0.419
4 C3260 32.8744 -1.70692 -7.22957 C.3 0.0 **** -0.106
5 C3255 34.0591 1.87049 -6.57035 C.ar 0.0 **** 0.0
6 H3323 33.5286 -2.43959 -7.73199 H 0.0 **** 0.053
7 H3336 32.0884 8.98932 3.97312 H 0.0 **** 0.053
8 C3300 30.3695 3.51628 7.87883 C.ar 0.0 **** -0.1268
9 C3292 32.1417 7.16824 5.11823 C.ar 0.0 **** 0.0
10 C3256 34.4322 2.28044 -7.86311 C.ar 0.0 **** 0.0
11 C3271 32.5617 -0.722554 1.41507 C.ar 0.0 **** 0.0
12 C3275 34.3347 -4.65892 1.69222 C.ar 0.0 **** -0.053
13 H3322 31.913 -1.78705 -7.77395 H 0.0 **** 0.053
14 C3298 31.2276 5.50661 8.97693 C.ar 0.0 **** 0.0
15 C3310 32.0629 -5.50791 -4.04031 C.3 0.0 **** -0.159
16 H3329 32.1924 -4.84994 1.6124 H 0.0 **** 0.053
17 C3299 30.9718 4.77893 7.79593 C.ar 0.0 **** 0.0
18 C3304 34.9462 3.68404 -8.10551 C.3 0.0 **** -0.106
19 H3338 32.4596 10.5255 5.97839 H 0.0 **** 0.053
20 O3315 32.4893 1.73074 -1.34252 O.3 0.0 **** -0.452
21 C3265 32.6708 -0.795566 -2.36324 C.ar 0.0 **** -0.1268
22 C3281 32.1421 2.47289 3.43657 C.2 0.0 **** 0.367
23 H3369 33.5262 -5.99531 3.21278 H 0.0 **** 0.053
24 H3348 37.0266 3.10772 -8.41604 H 0.0 **** 0.053
25 C3309 32.1372 -4.4487 -6.74758 C.3 0.0 **** -0.159
26 H3350 36.8132 4.83267 -8.00525 H 0.0 **** 0.053
27 H3375 32.2717 6.09737 11.4742 H 0.0 **** 0.053
28 H3332 30.9996 6.15618 1.57387 H 0.0 **** 0.053
29 C3303 30.899 4.96746 10.2346 C.ar 0.0 **** 0.0
30 H3321 32.3849 0.810245 -4.60598 H 0.0 **** 0.053
31 C3293 32.4924 8.62884 4.93182 C.3 0.0 **** -0.106
32 H3320 34.0441 0.395196 -4.29518 H 0.0 **** 0.053
33 H3337 30.9072 9.67244 5.97288 H 0.0 **** 0.053
34 H3378 30.7701 2.91922 12.2701 H 0.0 **** 0.053
35 C3319 29.8893 3.08672 11.6286 C.3 0.0 **** -0.159
36 C3278 32.345 2.08207 0.975856 C.ar 0.0 **** 0.052
37 C3257 33.2029 0.158304 -4.96986 C.3 0.0 **** -0.106
38 C3307 34.1739 2.78041 -5.37003 C.3 0.0 **** -0.159
39 O3311 31.4915 -4.66365 -1.53839 O.3 0.0 **** -0.452
40 C3272 32.5424 -0.228714 0.0777244 C.ar 0.0 **** 0.0
41 C3266 32.5642 -1.17102 -1.02514 C.ar 0.0 **** 0.0
42 H3345 29.5494 2.01576 9.18407 H 0.0 **** 0.1268
43 C3282 32.0671 3.92686 3.18214 C.ar 0.0 **** 0.0
44 C3301 30.0215 2.9986 9.12024 C.ar 0.0 **** -0.1268
45 C3308 33.6521 -0.864664 -9.90231 C.3 0.0 **** -0.159
46 C3313 35.3883 -3.8079 3.90175 C.3 0.0 **** -0.159
47 H3326 32.6092 -3.37443 3.4046 H 0.0 **** 0.053
48 C3258 32.8184 -1.27647 -4.75754 C.ar 0.0 **** 0.0
49 H3376 31.0905 5.14154 12.3932 H 0.0 **** 0.053
50 C3269 32.6704 -3.0299 0.599637 C.2 0.0 **** 0.0
51 H3344 30.203 2.95498 6.95945 H 0.0 **** 0.1268
52 H3349 36.6501 3.57567 -6.74741 H 0.0 **** 0.053
53 C3280 32.3609 0.193782 2.51767 C.ar 0.0 **** 0.042
54 C3262 32.1937 -4.01801 -4.26612 C.ar 0.0 **** 0.0
55 C3312 34.2809 -6.01124 2.41023 C.3 0.0 **** -0.159
56 H3324 32.7899 0.250521 -2.59354 H 0.0 **** 0.1268
57 C3264 32.6134 -1.72214 -3.41541 C.ar 0.0 **** 0.0
58 C3279 32.2834 1.5852 2.29856 C.ar 0.0 **** 0.052
59 C3318 31.2294 5.74402 11.4882 C.3 0.0 **** -0.159
60 H3331 32.4791 6.07273 0.609773 H 0.0 **** 0.053
61 H3342 33.0193 6.68382 8.85576 H 0.0 **** 0.053
62 H3360 31.404 -5.23773 -6.53779 H 0.0 **** 0.053
63 C3270 32.7853 -2.12233 1.64412 C.2 0.0 **** 0.0
64 H3357 32.8657 -1.60792 -9.72146 H 0.0 **** 0.053
65 O3314 32.2117 -0.27331 3.75103 O.3 0.0 **** -0.452
66 H3368 34.0002 -6.80742 1.70357 H 0.0 **** 0.053
67 C3259 32.6597 -2.15378 -5.80688 C.ar 0.0 **** 0.0
68 C3290 31.3957 5.32058 6.49142 C.ar 0.0 **** 0.2405
69 H3374 32.4057 2.77864 -1.18084 H 0.0 **** 0.41
70 H3341 30.4564 7.81588 7.64368 H 0.0 **** 0.053
71 H3377 30.5918 6.63954 11.5838 H 0.0 **** 0.053
72 C3274 34.6341 -3.45189 2.61836 C.ar 0.0 **** -0.053
73 C3283 32.1457 4.3909 1.88393 C.ar 0.0 **** 0.0
74 H3364 32.4094 -6.0704 -4.91464 H 0.0 **** 0.053
75 C3287 32.2648 6.2578 4.05574 C.ar 0.0 **** 0.0
76 C3267 32.4144 -2.5782 -0.73682 C.ar 0.0 **** 0.0
77 N3289 31.4691 4.46378 5.46726 N.ar 0.0 **** -0.481
78 C3252 33.817 0.0805008 -8.7334 C.ar 0.0 **** 0.0
79 C3263 32.2948 -3.1027 -3.16198 C.ar 0.0 **** 0.0
80 H3359 33.3892 -0.324542 -10.8218 H 0.0 **** 0.053
81 H3343 31.6998 7.48439 9.71407 H 0.0 **** 0.053
82 H3339 32.0214 9.57972 8.24945 H 0.0 **** 0.053
83 C3277 32.4611 1.19824 -0.123583 C.ar 0.0 **** 0.042
84 C3302 30.2765 3.70336 10.3074 C.ar 0.0 **** 0.0
85 C3286 32.7804 6.6534 2.69773 C.3 0.0 **** -0.106
86 C3297 31.9228 6.83969 8.85265 C.3 0.0 **** -0.106
87 O3316 32.2926 3.98276 -0.446543 O.2 0.0 **** -0.419
88 H3352 35.7003 2.45799 -10.2459 H 0.0 **** 0.053
89 H3358 34.5836 -1.42107 -10.1086 H 0.0 **** 0.053
90 C3253 33.4335 -0.321019 -7.43842 C.ar 0.0 **** 0.0
91 H3351 35.2009 0.883563 -10.8761 H 0.0 **** 0.053
92 H3380 29.2017 3.73627 12.1936 H 0.0 **** 0.053
93 C3273 33.3347 -2.68461 2.93471 C.3 0.0 **** -0.106
94 C3261 32.3195 -3.52748 -5.5619 C.ar 0.0 **** 0.0
95 H3335 33.5904 8.71641 4.84398 H 0.0 **** 0.053
96 C3268 32.0854 -3.45016 -1.8045 C.ar 0.0 **** 0.042
97 H3330 33.0102 -5.11435 0.0616552 H 0.0 **** 0.053
98 H3340 33.3792 8.70348 7.51395 H 0.0 **** 0.053
99 C3294 31.9968 9.53102 6.0673 C.3 0.0 **** -0.106
100 H3354 34.8598 2.35175 -4.62068 H 0.0 **** 0.053
101 C3251 34.3552 1.36479 -8.93558 C.ar 0.0 **** 0.0
102 H3325 33.5393 -1.90219 3.6658 H 0.0 **** 0.053
103 H3379 29.3957 2.11768 11.4741 H 0.0 **** 0.053
104 H3370 35.6371 -2.89454 4.46225 H 0.0 **** 0.053
105 C3288 31.9152 4.90365 4.28213 C.ar 0.0 **** 0.2405
106 H3334 33.8662 6.44646 2.6463 H 0.0 **** 0.053
107 H3346 34.3832 4.40045 -7.48928 H 0.0 **** 0.053
108 C3295 32.2962 8.90092 7.42659 C.3 0.0 **** -0.106
109 H3373 32.1385 0.613466 4.34394 H 0.0 **** 0.41
110 H3355 33.2029 2.89687 -4.86117 H 0.0 **** 0.053
111 H3363 32.6634 -5.82402 -3.17916 H 0.0 **** 0.053
112 H3362 31.7863 -3.90168 -7.63121 H 0.0 **** 0.053
113 H3367 35.2476 -6.27856 2.85885 H 0.0 **** 0.053
114 C3284 32.2674 3.49754 0.741412 C.2 0.0 **** 0.367
115 H3366 31.1814 -4.6523 -0.618945 H 0.0 **** 0.41
116 H3361 33.0837 -4.94295 -7.02941 H 0.0 **** 0.053
117 C3291 31.7139 6.68968 6.36494 C.ar 0.0 **** 0.0
118 C3306 34.8572 1.75784 -10.3089 C.3 0.0 **** -0.159
119 H3347 34.7561 3.98131 -9.14589 H 0.0 **** 0.053
120 H3372 34.7817 -4.45078 4.55701 H 0.0 **** 0.053
121 C3285 32.0661 5.86354 1.60462 C.3 0.0 **** -0.106
122 C3276 32.9874 -4.46693 0.943438 C.3 0.0 **** -0.106
123 H3327 35.2655 -2.75107 2.04767 H 0.0 **** 0.053
124 H3356 34.5472 3.7786 -5.62066 H 0.0 **** 0.053
125 H3365 31.0253 -5.80833 -3.82571 H 0.0 **** 0.053
126 H3371 36.3264 -4.33969 3.682 H 0.0 **** 0.053
127 C3254 33.5729 0.563455 -6.36649 C.ar 0.0 **** 0.0
128 H3353 34.0695 2.24781 -10.9078 H 0.0 **** 0.053
129 C3296 31.5378 7.58205 7.57167 C.3 0.0 **** -0.053
130 C3305 36.4473 3.8142 -7.80212 C.3 0.0 **** -0.159
@<TRIPOS>BOND
1 35 34 1
2 15 74 1
3 90 78 am
4 127 90 am
5 5 127 am
6 10 5 am
7 101 78 am
8 101 10 am
9 48 37 1
10 67 48 am
11 4 67 1
12 127 37 1
13 90 4 1
14 54 94 am
15 79 54 am
16 57 79 am
17 67 94 am
18 48 57 am
19 41 21 am
20 76 41 am
21 96 76 am
22 57 21 am
23 79 96 am
24 63 50 1
25 11 63 1
26 40 11 am
27 76 50 1
28 41 40 am
29 72 93 1
30 12 72 am
31 122 12 1
32 63 93 1
33 50 122 1
34 36 83 am
35 58 36 am
36 53 58 am
37 40 83 am
38 11 53 am
39 43 22 1
40 73 43 am
41 114 73 1
42 58 22 1
43 36 114 1
44 85 121 1
45 75 85 1
46 105 75 am
47 73 121 1
48 43 105 am
49 68 77 am
50 117 68 am
51 9 117 am
52 105 77 am
53 75 9 am
54 99 31 1
55 108 99 1
56 129 108 1
57 9 31 1
58 117 129 1
59 14 86 1
60 17 14 am
61 68 17 am
62 129 86 1
63 44 8 am
64 84 44 am
65 29 84 am
66 17 8 am
67 14 29 am
68 10 18 1
69 18 130 1
70 101 118 1
71 5 38 1
72 78 45 1
73 94 25 1
74 54 15 1
75 96 39 1
76 12 55 1
77 72 46 1
78 53 65 1
79 83 20 1
80 114 87 2
81 22 3 2
82 29 59 1
83 84 35 1
84 37 32 1
85 37 30 1
86 4 13 1
87 4 6 1
88 21 56 1
89 93 102 1
90 93 47 1
91 72 123 1
92 12 1 1
93 122 16 1
94 122 97 1
95 121 60 1
96 121 28 1
97 85 2 1
98 85 106 1
99 31 95 1
100 31 7 1
101 99 33 1
102 99 19 1
103 108 82 1
104 108 98 1
105 129 70 1
106 86 61 1
107 86 81 1
108 8 51 1
109 44 42 1
110 18 107 1
111 18 119 1
112 130 24 1
113 130 52 1
114 130 26 1
115 118 91 1
116 118 88 1
117 118 128 1
118 38 100 1
119 38 110 1
120 38 124 1
121 45 64 1
122 45 89 1
123 45 80 1
124 25 62 1
125 25 116 1
126 25 112 1
127 15 111 1
128 15 125 1
129 39 115 1
130 55 113 1
131 55 66 1
132 55 23 1
133 46 104 1
134 46 126 1
135 46 120 1
136 65 109 1
137 20 69 1
138 59 27 1
139 59 49 1
140 59 71 1
141 35 103 1
142 35 92 1
@<TRIPOS>MOLECULE
Sketch 4
250 292
SMALL
USER_CHARGES


@<TRIPOS>ATOM
1 H26311 50.4891 76.7778 34.2619 H 0.0 **** 0.053
2 C26254 50.6977 67.6541 53.0556 C.2 0.0 **** 0.0
3 C26184 49.1228 76.9835 36.9386 C.2 0.0 **** 0.0
4 C26174 51.0035 74.9828 40.1913 C.2 0.0 **** 0.0
5 H26309 55.4622 75.8563 32.8591 H 0.0 **** 0.053
6 H26349 44.5184 67.1424 47.6286 H 0.0 **** 0.053
7 C26237 54.1824 72.9312 46.2833 C.2 0.0 **** 0.042
8 H26306 53.0289 75.7786 31.2059 H 0.0 **** 0.053
9 H26382 51.0393 64.856 53.2782 H 0.0 **** 0.053
10 C26219 52.8372 72.5463 45.9438 C.2 0.0 **** 0.0
11 C26172 50.6329 76.9528 36.9332 C.3 0.0 **** -0.053
12 C26169 53.3357 77.6007 37.7942 C.2 0.0 **** 0.0
13 C26212 47.9393 69.5498 48.3581 C.2 0.0 **** 0.0
14 H26403 48.4833 61.1794 62.2089 H 0.0 **** 0.053
15 C26161 52.6652 76.9668 34.4514 C.3 0.0 **** -0.053
16 H26345 47.6788 66.5821 49.9626 H 0.0 **** 0.053
17 H26326 55.0719 78.8483 37.7159 H 0.0 **** 0.053
18 H26384 49.0512 69.3443 37.6322 H 0.0 **** 0.053
19 H26374 48.961 66.9406 54.0268 H 0.0 **** 0.053
20 H26338 45.1772 70.499 36.9733 H 0.0 **** 0.053
21 C26171 51.1982 76.4566 38.245 C.2 0.0 **** 0.0
22 C26268 54.5825 68.1355 56.0595 C.2 0.0 **** 0.0
23 H26386 48.5768 70.9196 38.3117 H 0.0 **** 0.053
24 H26380 49.3427 63.2604 53.8549 H 0.0 **** 0.053
25 C26170 52.5612 76.7725 38.5908 C.2 0.0 **** 0.0
26 H26350 45.6208 65.1916 48.9602 H 0.0 **** 0.053
27 H26373 49.0797 67.6621 51.6934 H 0.0 **** 0.1268
28 H26303 52.8309 73.9731 34.4453 H 0.0 **** 0.053
29 C26251 53.9229 69.4898 52.721 C.2 0.0 **** 0.042
30 H26392 57.4103 68.9455 57.8193 H 0.0 **** 0.1268
31 C26232 46.0162 67.1721 51.1994 C.3 0.0 **** -0.053
32 C26279 53.8341 66.4085 59.3257 C.2 0.0 **** 0.0
33 H26388 46.3942 68.956 35.9206 H 0.0 **** 0.053
34 C26262 50.4558 65.16 55.9732 C.3 0.0 **** -0.053
35 C26248 53.9788 70.6694 50.606 C.2 0.0 **** 0.0
36 H26402 47.5449 64.1067 62.1934 H 0.0 **** 0.053
37 C26211 48.1434 70.4875 46.0701 C.2 0.0 **** -0.1268
38 C26234 45.8742 66.1786 53.5256 C.3 0.0 **** -0.106
39 H26327 46.4832 78.5999 37.2463 H 0.0 **** 0.053
40 O26243 54.928 73.6369 45.3657 O.3 0.0 **** -0.202
41 H26337 45.9505 71.4916 38.2251 H 0.0 **** 0.053
42 O26165 50.9336 78.6119 35.1124 O.3 0.0 **** -0.32
43 H26307 53.8585 77.5207 32.75 H 0.0 **** 0.053
44 H26354 47.6169 66.1875 52.2639 H 0.0 **** 0.053
45 H26305 51.0181 74.9297 33.333 H 0.0 **** 0.053
46 C26230 44.8183 65.8355 49.3633 C.3 0.0 **** -0.106
47 C26300 49.8262 62.6224 62.9852 C.2 0.0 **** 0.347
48 H26401 46.6768 62.738 61.4654 H 0.0 **** 0.053
49 C26187 47.1056 75.5306 37.0666 C.2 0.0 **** 0.0
50 H26366 57.9253 71.4725 47.0264 H 0.0 **** 0.053
51 C26258 52.6408 67.829 54.589 C.2 0.0 **** 0.0
52 C26257 53.9206 68.3544 54.8365 C.2 0.0 **** 0.0265
53 H26391 56.3663 69.2985 55.6066 H 0.0 **** 0.1268
54 H26355 47.2219 67.7819 52.9039 H 0.0 **** 0.053
55 C26164 51.3568 77.071 31.7174 C.3 0.0 **** -0.106
56 C26291 52.4029 64.0457 63.6247 C.2 0.0 **** -0.1268
57 C26159 54.548 75.5747 33.4002 C.3 0.0 **** 0.054
58 C26223 51.957 69.4193 51.2408 C.2 0.0 **** 0.0
59 H26377 48.3133 65.2694 55.8879 H 0.0 **** 0.053
60 H26389 48.043 68.5445 35.4031 H 0.0 **** 0.053
61 C26163 51.1821 78.1677 32.7837 C.3 0.0 **** -0.106
62 H26335 48.1905 72.8392 37.5508 H 0.0 **** 0.053
63 C26278 54.514 67.1495 58.323 C.2 0.0 **** 0.0
64 H26397 54.0591 64.5503 64.8847 H 0.0 **** 0.1268
65 H26318 54.4921 77.5663 35.4518 H 0.0 **** 0.053
66 C26200 48.4055 74.2474 39.432 C.2 0.0 **** -0.1268
67 H26346 46.8801 67.1792 47.9063 H 0.0 **** 0.053
68 C26155 52.919 73.8679 33.3454 C.3 0.0 **** 0.054
69 C26242 56.3474 73.6652 45.6119 C.3 0.0 **** 0.107
70 C26259 50.0176 66.644 53.9412 C.3 0.0 **** -0.053
71 C26265 50.01 65.2481 53.2919 C.3 0.0 **** -0.106
72 C26271 47.8504 70.5427 36.2652 C.3 0.0 **** -0.053
73 C26166 51.2677 78.2733 36.4691 C.3 0.0 **** 0.107
74 O26180 52.9198 74.8039 41.6723 O.3 0.0 **** -0.464
75 H26358 44.3356 64.639 53.305 H 0.0 **** 0.053
76 H26365 58.9211 71.3343 45.5669 H 0.0 **** 0.053
77 H26376 51.2412 64.5389 55.4972 H 0.0 **** 0.053
78 C26283 56.2463 66.6828 62.1946 C.2 0.0 **** -0.1268
79 H26395 56.0189 65.8569 64.1581 H 0.0 **** 0.1268
80 C26270 52.0081 65.93 57.7549 C.2 0.0 **** 0.0
81 C26156 51.8383 74.7125 32.6305 C.3 0.0 **** -0.106
82 H26387 47.056 69.6665 34.4272 H 0.0 **** 0.053
83 H26336 46.4765 71.8411 35.2405 H 0.0 **** 0.053
84 H26324 54.4528 78.6337 40.1248 H 0.0 **** 0.053
85 C26293 50.155 64.5195 58.4161 C.2 0.0 **** -0.1268
86 H26319 53.6031 78.8755 34.6606 H 0.0 **** 0.053
87 H26368 59.9037 73.0742 47.0455 H 0.0 **** 0.053
88 C26276 56.437 68.5068 57.5923 C.2 0.0 **** -0.1268
89 H26363 56.2512 71.5272 45.3628 H 0.0 **** 0.053
90 H26361 56.0352 74.9867 47.2788 H 0.0 **** 0.053
91 H26378 48.9172 63.6241 56.1324 H 0.0 **** 0.053
92 C26269 50.827 65.2065 57.4301 C.2 0.0 **** 0.0
93 C26226 46.9909 67.4435 50.0548 C.3 0.0 **** 0.107
94 C26289 52.5707 65.8007 59.0416 C.2 0.0 **** 0.0
95 C26252 54.5985 70.2832 51.8357 C.2 0.0 **** -0.1268
96 H26312 51.9735 78.9287 32.6892 H 0.0 **** 0.053
97 C26295 50.5084 63.5492 62.0314 C.2 0.0 **** 0.052
98 H26394 57.2165 67.1386 62.4007 H 0.0 **** 0.1268
99 C26167 52.7985 78.3407 36.6142 C.3 0.0 **** -0.053
100 C26177 54.5422 76.4758 40.195 C.3 0.0 **** -0.106
101 H26369 58.3612 75.2281 47.3376 H 0.0 **** 0.053
102 O26225 47.7922 68.5784 50.4895 O.3 0.0 **** -0.202
103 C26280 54.4087 66.2555 60.6094 C.2 0.0 **** 0.0
104 C26229 44.8708 67.1991 48.6663 C.3 0.0 **** -0.106
105 H26333 44.2395 75.4981 38.1357 H 0.0 **** 0.053
106 H26393 57.3086 68.0305 60.111 H 0.0 **** 0.1268
107 C26194 46.5726 74.1522 36.973 C.2 0.0 **** 0.0
108 H26313 50.2206 78.6855 32.6568 H 0.0 **** 0.053
109 H26399 48.0422 63.9964 59.7792 H 0.0 **** 0.053
110 C26202 48.9048 72.2675 42.9244 C.2 0.0 **** -0.012
111 C26192 44.3233 75.16 37.0848 C.3 0.0 **** -0.106
112 C26182 50.8814 73.5966 42.2144 C.2 0.0 **** 0.0
113 H26340 44.0992 72.4577 35.9742 H 0.0 **** 0.053
114 C26290 51.792 64.1437 62.3437 C.2 0.0 **** 0.0
115 H26357 46.4138 66.0214 54.4732 H 0.0 **** 0.053
116 C26277 55.7842 67.7431 58.616 C.2 0.0 **** 0.0
117 O26274 45.6663 69.5088 47.2336 O.3 0.0 **** -0.57
118 H26364 57.2802 72.3501 44.1824 H 0.0 **** 0.053
119 C26253 51.9676 68.1632 53.3573 C.2 0.0 **** 0.0
120 C26197 45.6295 71.483 37.1706 C.3 0.0 **** -0.106
121 C26216 52.2001 72.9024 44.6932 C.2 0.0 **** 0.0
122 C26201 50.2276 72.7817 43.1736 C.2 0.0 **** 0.0
123 C26186 49.0898 75.1824 38.5981 C.2 0.0 **** 0.0
124 C26213 48.5782 69.1663 49.522 C.2 0.0 **** 0.042
125 H26343 47.1621 70.1067 45.8047 H 0.0 **** 0.1268
126 C26250 52.6013 69.0206 52.4454 C.2 0.0 **** 0.0
127 H26328 46.4697 78.3784 35.5154 H 0.0 **** 0.053
128 H26322 55.2012 75.6749 39.8094 H 0.0 **** 0.053
129 H26314 51.611 77.5442 30.7571 H 0.0 **** 0.053
130 C26266 52.6558 66.7456 56.7637 C.2 0.0 **** 0.0
131 C26204 48.2505 71.5146 43.8657 C.2 0.0 **** -0.1268
132 H26304 51.4006 74.1551 31.7883 H 0.0 **** 0.053
133 C26205 48.849 71.217 45.1183 C.2 0.0 **** 0.0
134 C26183 50.2958 74.0702 40.9828 C.2 0.0 **** 0.0
135 H26331 44.8482 76.0213 35.1627 H 0.0 **** 0.053
136 C26246 58.9634 73.2944 46.5192 C.3 0.0 **** -0.106
137 C26238 54.7424 72.6093 47.5101 C.2 0.0 **** 0.042
138 C26158 53.4087 76.5968 33.1506 C.3 0.0 **** -0.053
139 C26210 48.6853 70.2042 47.3334 C.2 0.0 **** 0.0
140 C26162 51.2577 77.5703 34.1786 C.3 0.0 **** 0.107
141 C26263 49.1066 64.5622 55.5915 C.3 0.0 **** -0.106
142 O26160 54.2358 74.2549 32.938 O.3 0.0 **** -0.32
143 C26215 50.6586 70.2161 48.8394 C.2 0.0 **** 0.0
144 C26208 50.7741 71.3501 46.6384 C.2 0.0 **** 0.0
145 C26286 53.7277 65.511 61.6175 C.2 0.0 **** 0.0
146 C26195 47.5374 73.0252 36.6846 C.3 0.0 **** -0.106
147 C26275 55.8629 68.7015 56.3669 C.2 0.0 **** -0.1268
148 C26292 53.6187 64.6409 63.8894 C.2 0.0 **** -0.1268
149 C26255 50.0632 68.0564 51.8947 C.2 0.0 **** -0.1268
150 H26332 43.3087 74.891 36.752 H 0.0 **** 0.053
151 C26281 55.682 66.8477 60.8919 C.2 0.0 **** 0.0
152 C26288 51.8952 65.0494 60.0453 C.2 0.0 **** 0.0
153 C26264 49.0676 64.3056 54.0642 C.3 0.0 **** -0.106
154 H26321 54.6345 76.4438 41.2901 H 0.0 **** 0.053
155 C26217 52.822 73.6957 43.7069 C.2 0.0 **** -0.1268
156 C26287 52.4657 64.9029 61.3415 C.2 0.0 **** 0.0
157 N26236 45.3905 64.735 51.4956 N.3 0.0 **** -0.727
158 H26325 55.4285 77.1229 37.6392 H 0.0 **** 0.053
159 C26260 50.589 66.5737 55.3762 C.3 0.0 **** -0.053
160 C26188 46.3295 76.5581 36.6137 C.2 0.0 **** 0.0
161 H26390 45.6305 70.4739 47.1477 H 0.0 **** 0.41
162 H26371 55.6643 71.7962 49.8845 H 0.0 **** 0.1268
163 C26207 50.8648 72.4502 44.4216 C.2 0.0 **** 0.0
164 C26185 48.4622 75.8212 37.5269 C.2 0.0 **** 0.0
165 C26209 50.0444 70.5984 47.6098 C.2 0.0 **** 0.0
166 H26372 55.6111 70.62 52.0607 H 0.0 **** 0.1268
167 C26189 46.8787 77.937 36.4453 C.3 0.0 **** -0.106
168 H26330 44.3062 77.2194 36.3514 H 0.0 **** 0.053
169 H26356 45.021 66.8384 53.7505 H 0.0 **** 0.053
170 C26228 46.4516 69.2136 48.3899 C.3 0.0 **** 0.107
171 C26261 52.0123 67.0328 55.5503 C.2 0.0 **** 0.0
172 C26299 48.4025 62.1819 62.6684 C.3 0.0 **** -0.086
173 H26381 49.6974 65.3345 52.2403 H 0.0 **** 0.053
174 C26198 44.6055 72.5962 36.9495 C.3 0.0 **** -0.106
175 C26285 54.3169 65.3719 62.9023 C.2 0.0 **** 0.0
176 C26241 56.5779 74.0512 47.0633 C.3 0.0 **** 0.107
177 C26249 54.6513 71.4577 49.6724 C.2 0.0 **** -0.1268
178 H26396 51.896 63.4777 64.3974 H 0.0 **** 0.1268
179 O26256 54.5592 69.1359 53.9012 O.3 0.0 **** -0.0685
180 H26385 47.3823 69.6106 38.1784 H 0.0 **** 0.053
181 H26341 47.3754 73.9905 39.186 H 0.0 **** 0.1268
182 H26323 56.0835 77.9724 39.871 H 0.0 **** 0.053
183 C26193 45.2326 73.9586 37.0023 C.2 0.0 **** 0.0
184 H26334 48.2202 73.3539 35.8808 H 0.0 **** 0.053
185 H26308 54.7826 75.5357 34.4845 H 0.0 **** 0.053
186 H26344 53.8215 74.0794 43.8498 H 0.0 **** 0.1268
187 C26220 52.0111 70.6194 49.0967 C.2 0.0 **** 0.0
188 H26317 53.0533 79.405 36.7805 H 0.0 **** 0.053
189 C26199 48.9787 73.6991 40.5531 C.2 0.0 **** -0.012
190 H26310 52.5516 76.046 35.0456 H 0.0 **** 0.053
191 C26173 50.4453 75.5716 38.9969 C.2 0.0 **** 0.0
192 H26339 43.8006 72.545 37.7053 H 0.0 **** 0.053
193 C26247 58.0627 74.1718 47.4128 C.3 0.0 **** -0.106
194 C26168 53.4832 77.9641 35.2674 C.3 0.0 **** -0.106
195 H26383 48.7633 70.9085 35.7604 H 0.0 **** 0.053
196 H26359 45.9817 63.9925 53.3513 H 0.0 **** 0.053
197 C26273 47.3069 69.3611 35.4553 C.3 0.0 **** -0.159
198 C26181 52.1839 74.0234 42.5306 C.2 0.0 **** 0.232
199 C26233 46.7764 66.8627 52.4999 C.3 0.0 **** -0.106
200 H26352 44.0518 66.2875 51.313 H 0.0 **** 0.053
201 C26296 49.9227 63.7637 60.7764 C.2 0.0 **** 0.0
202 H26370 58.1679 73.8835 48.47 H 0.0 **** 0.053
203 C26178 55.0177 77.8198 39.6421 C.3 0.0 **** -0.106
204 C26196 46.8503 71.7179 36.2741 C.3 0.0 **** -0.053
205 H26400 48.5721 62.3178 59.9221 H 0.0 **** 0.053
206 H26353 45.4286 68.0947 51.3432 H 0.0 **** 0.053
207 H26342 47.2447 71.1363 43.6693 H 0.0 **** 0.1268
208 H26329 48.8451 78.8784 36.0152 H 0.0 **** 0.1268
209 O26301 50.3685 62.1442 63.9827 O.2 0.0 **** -0.419
210 H26315 50.397 76.5503 31.5653 H 0.0 **** 0.053
211 C26284 55.5861 65.9733 63.1626 C.2 0.0 **** -0.1268
212 C26294 50.6382 64.4541 59.7493 C.2 0.0 **** 0.0
213 C26190 48.3748 77.9929 36.4397 C.2 0.0 **** -0.1268
214 C26222 50.6297 68.9652 50.98 C.2 0.0 **** 0.0
215 H26379 48.0396 64.4438 53.7005 H 0.0 **** 0.053
216 C26176 53.1202 76.1805 39.7908 C.2 0.0 **** 0.0
217 C26221 52.7163 71.4018 48.1454 C.2 0.0 **** 0.0
218 C26245 58.2425 72.003 46.1165 C.3 0.0 **** -0.106
219 C26231 45.0234 66.0069 50.8715 C.3 0.0 **** 0.134
220 H26316 50.8173 79.0737 37.0745 H 0.0 **** 0.053
221 H26320 50.9129 76.1604 36.2097 H 0.0 **** 0.053
222 C26282 56.3406 67.5761 59.8883 C.2 0.0 **** -0.1268
223 C26206 50.1721 71.6794 45.3956 C.2 0.0 **** 0.0
224 C26218 52.1173 71.7754 46.9051 C.2 0.0 **** 0.0
225 S26203 48.0575 72.4758 41.3998 S.2 0.0 **** 0.024
226 H26375 49.9742 67.2411 56.0126 H 0.0 **** 0.053
227 C26191 44.8982 76.2974 36.2356 C.3 0.0 **** -0.106
228 C26214 49.954 69.4301 49.7939 C.2 0.0 **** 0.0
229 C26179 54.775 77.8706 38.1318 C.3 0.0 **** -0.106
230 H26360 46.3204 64.4608 51.176 H 0.0 **** 0.353
231 C26224 52.6408 70.2444 50.3126 C.2 0.0 **** 0.0
232 C26267 53.9236 67.3307 57.0413 C.2 0.0 **** 0.0
233 H26398 49.2515 63.9777 58.1495 H 0.0 **** 0.1268
234 H26367 59.2371 73.8504 45.6061 H 0.0 **** 0.053
235 H26302 52.8281 72.8011 33.0996 H 0.0 **** 0.053
236 H26351 43.8722 65.3072 49.1819 H 0.0 **** 0.053
237 C26239 54.0462 71.8167 48.459 C.2 0.0 **** 0.0
238 C26297 48.5237 63.2824 60.462 C.3 0.0 **** -0.106
239 H26348 44.2098 67.9134 49.1864 H 0.0 **** 0.053
240 O26240 56.0053 73.0086 47.8822 O.3 0.0 **** -0.202
241 H26347 46.0204 69.7526 49.2587 H 0.0 **** 0.053
242 C26298 47.6772 63.1207 61.7187 C.3 0.0 **** -0.106
243 C26227 46.3154 67.7133 48.687 C.3 0.0 **** -0.053
244 H26404 47.8864 62.0459 63.6294 H 0.0 **** 0.053
245 C26244 57.0061 72.3184 45.2471 C.3 0.0 **** -0.106
246 C26272 48.2395 70.086 37.6772 C.3 0.0 **** -0.159
247 C26157 52.4399 76.0302 32.0999 C.3 0.0 **** -0.053
248 C26235 45.369 64.82 52.9638 C.3 0.0 **** 0.081
249 H26362 56.7163 74.4728 44.9637 H 0.0 **** 0.053
250 C26175 52.3405 75.3435 40.5399 C.2 0.0 **** 0.232
@<TRIPOS>BOND
1 51 52 un
2 231 58 un
3 92 80 un
4 160 49 2
5 247 81 1
6 138 247 1
7 57 138 1
8 142 57 1
9 68 81 1
10 68 142 1
11 140 15 1
12 61 140 1
13 55 61 1
14 138 15 1
15 247 55 1
16 73 42 1
17 99 73 1
18 194 99 1
19 140 42 1
20 15 194 1
21 25 12 un
22 21 25 un
23 11 21 un
24 99 12 1
25 73 11 1
26 4 191 1
27 250 4 un
28 216 250 un
29 21 191 un
30 25 216 un
31 203 100 1
32 229 203 1
33 12 229 1
34 216 100 1
35 198 74 1
36 112 198 un
37 134 112 un
38 250 74 1
39 4 134 un
40 164 3 un
41 123 164 2
42 11 3 1
43 191 123 un
44 167 160 1
45 213 167 1
46 164 49 1
47 3 213 2
48 111 227 1
49 183 111 1
50 107 183 2
51 160 227 1
52 49 107 1
53 204 146 1
54 120 204 1
55 174 120 1
56 107 146 1
57 183 174 1
58 66 189 un
59 123 66 un
60 134 189 un
61 110 122 un
62 225 110 1
63 189 225 un
64 112 122 un
65 133 131 un
66 223 133 un
67 163 223 un
68 110 131 un
69 122 163 un
70 165 144 un
71 139 165 un
72 37 139 un
73 223 144 un
74 133 37 un
75 124 13 un
76 228 124 un
77 143 228 un
78 139 13 un
79 165 143 un
80 155 121 un
81 198 155 un
82 163 121 un
83 10 224 un
84 121 10 un
85 144 224 un
86 217 187 un
87 224 217 un
88 143 187 un
89 58 214 un
90 187 231 un
91 228 214 un
92 93 102 1
93 243 93 1
94 170 243 1
95 124 102 1
96 13 170 1
97 46 104 1
98 219 46 1
99 31 219 1
100 243 104 1
101 93 31 1
102 38 199 1
103 248 38 1
104 157 248 1
105 31 199 1
106 219 157 1
107 137 7 un
108 237 137 un
109 217 237 un
110 10 7 un
111 176 240 1
112 69 176 1
113 40 69 1
114 137 240 1
115 7 40 1
116 218 245 1
117 136 218 1
118 193 136 1
119 69 245 1
120 176 193 1
121 177 35 un
122 237 177 un
123 231 35 un
124 29 126 un
125 95 29 un
126 35 95 un
127 58 126 un
128 2 119 un
129 149 2 un
130 214 149 un
131 126 119 un
132 52 179 1
133 29 179 1
134 119 51 1
135 159 70 1
136 171 159 1
137 2 70 1
138 51 171 un
139 141 34 1
140 153 141 1
141 71 153 1
142 159 34 1
143 70 71 1
144 232 130 1
145 22 232 1
146 52 22 un
147 171 130 un
148 34 92 1
149 130 80 un
150 204 72 1
151 72 246 1
152 72 197 1
153 170 117 1
154 88 147 1
155 116 88 un
156 63 116 1
157 22 147 un
158 232 63 un
159 103 32 un
160 151 103 1
161 222 151 un
162 63 32 un
163 116 222 un
164 211 78 un
165 175 211 1
166 145 175 1
167 151 78 un
168 103 145 un
169 152 156 un
170 94 152 un
171 32 94 un
172 145 156 un
173 56 114 un
174 148 56 un
175 175 148 un
176 156 114 un
177 212 85 un
178 152 212 un
179 80 94 un
180 92 85 un
181 201 97 un
182 212 201 un
183 114 97 un
184 242 238 1
185 172 242 1
186 47 172 1
187 201 238 1
188 97 47 1
189 47 209 2
190 68 235 1
191 68 28 1
192 81 132 1
193 81 45 1
194 247 8 1
195 138 43 1
196 57 185 1
197 57 5 1
198 15 190 1
199 140 1 1
200 61 96 1
201 61 108 1
202 55 129 1
203 55 210 1
204 73 220 1
205 99 188 1
206 194 65 1
207 194 86 1
208 11 221 1
209 100 154 1
210 100 128 1
211 203 182 1
212 203 84 1
213 229 158 1
214 229 17 1
215 167 39 1
216 167 127 1
217 213 208 1
218 227 168 1
219 227 135 1
220 111 150 1
221 111 105 1
222 146 184 1
223 146 62 1
224 204 83 1
225 120 41 1
226 120 20 1
227 174 192 1
228 174 113 1
229 66 181 1
230 131 207 1
231 37 125 1
232 155 186 1
233 93 16 1
234 243 67 1
235 170 241 1
236 104 239 1
237 104 6 1
238 46 26 1
239 46 236 1
240 219 200 1
241 31 206 1
242 199 44 1
243 199 54 1
244 38 169 1
245 38 115 1
246 248 75 1
247 248 196 1
248 157 230 1
249 176 90 1
250 69 249 1
251 245 89 1
252 245 118 1
253 218 76 1
254 218 50 1
255 136 234 1
256 136 87 1
257 193 101 1
258 193 202 1
259 177 162 1
260 95 166 1
261 149 27 1
262 70 19 1
263 159 226 1
264 34 77 1
265 141 59 1
266 141 91 1
267 153 215 1
268 153 24 1
269 71 173 1
270 71 9 1
271 72 195 1
272 246 18 1
273 246 180 1
274 246 23 1
275 197 82 1
276 197 33 1
277 197 60 1
278 117 161 1
279 147 53 1
280 88 30 1
281 222 106 1
282 78 98 1
283 211 79 1
284 56 178 1
285 148 64 1
286 85 233 1
287 238 109 1
288 238 205 1
289 242 48 1
290 242 36 1
291 172 14 1
292 172 244 1
@<TRIPOS>MOLECULE
Sketch 4
250 292
SMALL
USER_CHARGES


@<TRIPOS>ATOM
1 H26870 42.9326 24.2994 56.8701 H 0.0 **** 0.053
2 H26815 43.619 16.1931 39.9266 H 0.0 **** 0.053
3 C26674 40.4286 20.6497 46.7962 C.2 0.0 **** 0.0
4 C26794 28.5415 25.856 64.8266 C.2 0.0 **** 0.0
5 C26754 32.3694 23.7858 58.8174 C.2 0.0 **** 0.0
6 H26820 42.2663 18.9008 43.508 H 0.0 **** 0.053
7 H26881 30.7572 21.6775 58.8537 H 0.0 **** 0.053
8 H26865 43.3632 20.3958 56.6054 H 0.0 **** 0.053
9 C26711 33.9918 21.6205 51.3322 C.2 0.0 **** -0.1268
10 H26810 43.9517 17.8169 43.703 H 0.0 **** 0.053
11 H26851 27.0343 20.4569 53.5682 H 0.0 **** 0.053
12 C26706 36.4331 21.7684 51.4301 C.2 0.0 **** 0.0
13 H26868 44.4648 22.5173 57.2871 H 0.0 **** 0.053
14 H26843 33.1047 21.3025 50.7935 H 0.0 **** 0.1268
15 C26675 41.5685 20.9579 47.5992 C.2 0.0 **** 0.232
16 C26741 42.1938 23.7177 54.9595 C.3 0.0 **** 0.107
17 O26801 25.7984 26.9869 68.638 O.2 0.0 **** -0.419
18 O26743 41.2362 22.523 53.107 O.3 0.0 **** -0.202
19 H26863 41.3411 20.779 54.8817 H 0.0 **** 0.053
20 C26771 37.1424 15.2257 44.5938 C.3 0.0 **** -0.053
21 H26844 41.0572 22.0036 51.2587 H 0.0 **** 0.1268
22 C26724 36.0983 23.6107 56.799 C.2 0.0 **** 0.0
23 C26685 39.6547 19.8656 43.1842 C.2 0.0 **** 0.0
24 H26900 25.8043 24.6855 64.8368 H 0.0 **** 0.053
25 H26873 31.5185 23.1197 56.9992 H 0.0 **** 0.1268
26 H26832 35.2788 19.3932 40.2427 H 0.0 **** 0.053
27 C26753 33.5393 24.1819 59.4786 C.2 0.0 **** 0.0
28 H26903 24.4197 25.369 66.8737 H 0.0 **** 0.053
29 C26762 30.0152 23.9079 61.8561 C.3 0.0 **** -0.053
30 C26663 44.5917 18.0802 40.3843 C.3 0.0 **** -0.106
31 C26733 28.9894 23.387 56.6429 C.3 0.0 **** -0.106
32 C26765 30.6118 22.2645 59.7731 C.3 0.0 **** -0.106
33 C26766 32.2761 25.2897 62.8347 C.2 0.0 **** 0.0
34 C26657 44.8639 15.8751 41.6814 C.3 0.0 **** -0.053
35 C26692 36.1183 19.6685 40.9 C.3 0.0 **** -0.106
36 C26720 36.1747 23.1727 55.4507 C.2 0.0 **** 0.0
37 C26746 43.9791 22.4644 56.3016 C.3 0.0 **** -0.106
38 H26898 27.7367 24.643 63.2172 H 0.0 **** 0.1268
39 C26702 36.518 20.7481 48.7825 C.2 0.0 **** -0.012
40 C26797 26.0264 25.7603 64.6962 C.3 0.0 **** -0.106
41 H26850 28.4856 19.9791 54.4544 H 0.0 **** 0.053
42 C26682 38.9924 20.981 48.7602 C.2 0.0 **** 0.0
43 C26701 37.7515 21.1058 49.4357 C.2 0.0 **** 0.0
44 O26774 31.1152 22.0159 51.2052 O.3 0.0 **** -0.57
45 C26696 36.8665 16.239 43.4631 C.3 0.0 **** -0.053
46 C26780 32.1618 27.222 66.6236 C.2 0.0 **** 0.0
47 C26662 43.8981 18.5504 41.6516 C.3 0.0 **** 0.107
48 C26786 30.9145 27.4347 67.282 C.2 0.0 **** 0.0
49 C26707 37.6904 21.5959 50.7882 C.2 0.0 **** 0.0
50 H26876 30.5325 23.0249 62.2826 H 0.0 **** 0.053
51 H26882 31.2758 21.8214 60.5322 H 0.0 **** 0.053
52 C26781 33.3795 27.6661 67.2331 C.2 0.0 **** 0.0
53 H26852 26.9039 22.5623 54.6098 H 0.0 **** 0.053
54 H26841 37.3494 19.7645 44.5842 H 0.0 **** 0.1268
55 C26796 27.2846 26.126 65.4518 C.2 0.0 **** 0.0
56 O26725 31.304 23.1813 55.0252 O.3 0.0 **** -0.202
57 C26718 37.5491 22.5626 53.4785 C.2 0.0 **** 0.0
58 C26792 29.6428 28.3091 69.1658 C.2 0.0 **** -0.1268
59 C26750 34.7672 24.1226 58.8026 C.2 0.0 **** 0.0
60 H26888 35.3356 14.0328 44.3293 H 0.0 **** 0.053
61 H26899 26.1981 25.9036 63.6202 H 0.0 **** 0.053
62 C26722 33.6334 23.3913 56.749 C.2 0.0 **** 0.0
63 C26790 28.4502 27.1785 67.3567 C.2 0.0 **** 0.0
64 C26739 38.6111 23.348 55.5743 C.2 0.0 **** 0.0
65 C26688 38.5669 20.1061 41.02 C.2 0.0 **** 0.0
66 C26705 35.2329 21.4305 50.7326 C.2 0.0 **** 0.0
67 C26745 42.93 21.3475 56.2644 C.3 0.0 **** -0.106
68 C26693 36.3329 18.6 41.9438 C.2 0.0 **** 0.0
69 H26826 46.393 21.2927 45.518 H 0.0 **** 0.053
70 C26673 40.6551 20.3735 45.3972 C.2 0.0 **** 0.0
71 S26703 36.4453 20.0139 47.1883 S.2 0.0 **** 0.024
72 H26808 45.7307 16.7559 44.8264 H 0.0 **** 0.053
73 C26683 39.1559 20.5992 47.3776 C.2 0.0 **** 0.0
74 O26740 40.9619 23.5703 55.6985 O.3 0.0 **** -0.202
75 C26671 41.9382 20.4236 44.8811 C.2 0.0 **** 0.0
76 C26690 40.9625 20.7614 41.3421 C.2 0.0 **** -0.1268
77 C26726 30.2727 22.17 54.8447 C.3 0.0 **** 0.107
78 H26853 28.8557 23.7212 54.5116 H 0.0 **** 0.053
79 H26885 35.6715 15.868 46.0677 H 0.0 **** 0.053
80 C26760 30.9838 24.5373 60.8372 C.3 0.0 **** -0.053
81 C26664 44.5923 16.5425 40.3088 C.3 0.0 **** -0.106
82 H26895 32.0751 29.0456 70.0895 H 0.0 **** 0.1268
83 C26719 38.8243 22.3948 52.8602 C.2 0.0 **** 0.0
84 C26667 44.6783 20.5106 43.7608 C.3 0.0 **** -0.053
85 C26715 34.9711 22.8957 54.721 C.2 0.0 **** 0.0
86 H26878 27.9918 23.0969 61.8571 H 0.0 **** 0.053
87 H26805 42.7692 16.0782 42.2507 H 0.0 **** 0.053
88 H26874 30.2866 24.1457 58.8456 H 0.0 **** 0.053
89 C26689 39.7121 20.9344 40.5368 C.3 0.0 **** -0.106
90 H26819 46.2537 19.5012 42.6433 H 0.0 **** 0.053
91 H26854 29.4443 22.6149 57.2871 H 0.0 **** 0.053
92 H26840 35.0643 16.9736 41.3612 H 0.0 **** 0.053
93 H26809 46.9923 15.823 43.9634 H 0.0 **** 0.053
94 C26784 32.117 28.5348 69.1255 C.2 0.0 **** -0.1268
95 O26665 43.7954 19.981 41.5821 O.3 0.0 **** -0.32
96 H26816 43.2411 21.6339 42.6003 H 0.0 **** 0.053
97 C26717 40.1119 21.7669 50.793 C.2 0.0 **** -0.1268
98 H26823 46.0743 21.9279 47.9531 H 0.0 **** 0.053
99 H26897 29.6192 28.8378 70.1211 H 0.0 **** 0.1268
100 H26807 46.4904 17.2041 42.176 H 0.0 **** 0.053
101 C26716 38.8978 21.9209 51.4939 C.2 0.0 **** 0.0
102 C26799 24.6605 26.4233 66.6426 C.3 0.0 **** -0.086
103 C26734 27.5833 23.6871 57.1598 C.3 0.0 **** -0.106
104 C26679 45.5548 20.8882 46.1103 C.3 0.0 **** -0.106
105 H26824 44.9611 22.8128 46.886 H 0.0 **** 0.053
106 H26871 39.4346 24.0468 57.4408 H 0.0 **** 0.1268
107 H26835 38.043 17.7206 44.5138 H 0.0 **** 0.053
108 H26803 43.4255 15.8524 44.4771 H 0.0 **** 0.053
109 C26782 34.5995 27.4477 66.5732 C.2 0.0 **** -0.1268
110 C26752 37.1933 24.3699 58.8915 C.2 0.0 **** -0.1268
111 C26751 35.9699 24.4648 59.4949 C.2 0.0 **** 0.042
112 C26738 39.8727 23.2077 54.9402 C.2 0.0 **** 0.042
113 H26812 45.6233 18.4676 40.3896 H 0.0 **** 0.053
114 C26777 34.6588 26.8087 65.3304 C.2 0.0 **** 0.0
115 C26778 33.4465 26.3562 64.7163 C.2 0.0 **** 0.0
116 H26891 36.8876 25.8859 62.8819 H 0.0 **** 0.1268
117 H26904 23.846 27.0304 67.0627 H 0.0 **** 0.053
118 H26838 34.6949 16.0374 43.5936 H 0.0 **** 0.053
119 H26894 34.2504 28.6614 68.9555 H 0.0 **** 0.1268
120 C26661 44.675 18.0874 42.9172 C.3 0.0 **** -0.053
121 H26884 37.0992 15.0759 46.7669 H 0.0 **** 0.053
122 C26666 43.446 20.5805 42.8412 C.3 0.0 **** 0.107
123 H26856 27.1147 24.4423 56.5087 H 0.0 **** 0.053
124 H26811 42.8743 18.1291 41.667 H 0.0 **** 0.053
125 H26872 38.0995 24.6245 59.4423 H 0.0 **** 0.1268
126 C26787 29.6963 26.9815 66.691 C.2 0.0 **** 0.0
127 C26655 43.8262 15.0358 43.8435 C.3 0.0 **** 0.054
128 C26755 32.4357 23.405 57.4897 C.2 0.0 **** -0.1268
129 C26678 45.2113 21.8142 47.2795 C.3 0.0 **** -0.106
130 C26757 34.7161 25.0251 61.4643 C.2 0.0 **** 0.0265
131 H26802 43.342 14.0995 44.1528 H 0.0 **** 0.053
132 C26731 27.7192 21.9269 54.9961 C.3 0.0 **** 0.134
133 C26764 29.1401 22.2122 60.2252 C.3 0.0 **** -0.106
134 H26875 30.5723 25.5364 60.5905 H 0.0 **** 0.053
135 C26759 31.0418 23.7217 59.5249 C.3 0.0 **** -0.053
136 C26721 37.4398 23.022 54.8253 C.2 0.0 **** 0.0
137 H26827 39.4213 22.008 40.5248 H 0.0 **** 0.053
138 H26855 29.6406 24.2691 56.7101 H 0.0 **** 0.053
139 C26723 34.8389 23.7116 57.442 C.2 0.0 **** 0.0
140 H26847 30.8226 23.4836 52.6357 H 0.0 **** 0.053
141 C26773 36.4287 13.8958 44.3298 C.3 0.0 **** -0.159
142 H26883 38.2309 15.0335 44.5873 H 0.0 **** 0.053
143 H26869 44.102 24.5158 55.5612 H 0.0 **** 0.053
144 C26772 36.7642 15.7668 45.9787 C.3 0.0 **** -0.159
145 H26887 36.718 13.4771 43.3529 H 0.0 **** 0.053
146 H26821 43.6952 21.942 48.8419 H 0.0 **** 0.053
147 C26659 45.9291 16.1014 43.952 C.3 0.0 **** 0.054
148 C26791 28.4645 27.8664 68.6018 C.2 0.0 **** -0.1268
149 C26699 38.0552 20.2271 46.5367 C.2 0.0 **** -0.012
150 H26892 36.8179 26.9403 65.1166 H 0.0 **** 0.1268
151 H26836 36.9729 15.6996 42.5033 H 0.0 **** 0.053
152 H26858 25.6886 22.6225 56.9089 H 0.0 **** 0.053
153 C26681 40.146 21.3214 49.4898 C.2 0.0 **** 0.232
154 C26749 38.5229 23.7997 56.8992 C.2 0.0 **** -0.1268
155 H26818 46.1022 18.9333 44.312 H 0.0 **** 0.053
156 H26890 31.5626 22.676 50.6535 H 0.0 **** 0.41
157 C26776 35.8973 26.6038 64.6364 C.2 0.0 **** -0.1268
158 C26783 33.3173 28.3256 68.4996 C.2 0.0 **** -0.1268
159 C26735 26.7339 22.3851 57.1698 C.3 0.0 **** 0.081
160 H26833 35.8459 20.6238 41.3888 H 0.0 **** 0.053
161 C26658 45.5574 16.8507 42.6461 C.3 0.0 **** -0.053
162 C26779 32.2036 26.5677 65.37 C.2 0.0 **** 0.0
163 C26677 44.0104 21.2552 48.0433 C.3 0.0 **** -0.106
164 H26804 43.2528 14.4327 41.8137 H 0.0 **** 0.053
165 H26848 28.5159 22.3344 52.479 H 0.0 **** 0.053
166 H26839 34.2668 18.2235 42.3073 H 0.0 **** 0.053
167 C26656 43.5797 15.3386 42.3469 C.3 0.0 **** -0.106
168 C26687 38.5696 19.5383 42.2612 C.2 0.0 **** 0.0
169 H26902 25.0144 27.6496 64.9 H 0.0 **** 0.053
170 H26828 39.9016 20.7032 39.4703 H 0.0 **** 0.053
171 C26700 38.2256 19.9715 45.1982 C.2 0.0 **** -0.1268
172 H26877 28.3446 24.2337 60.5476 H 0.0 **** 0.053
173 O26680 41.4033 21.2265 48.9445 O.3 0.0 **** -0.464
174 H26889 36.6697 13.1555 45.1078 H 0.0 **** 0.053
175 C26676 42.8504 20.9706 47.1235 C.2 0.0 **** 0.0
176 H26864 42.9681 20.4613 54.2643 H 0.0 **** 0.053
177 C26697 35.4526 16.8298 43.4946 C.3 0.0 **** -0.106
178 H26866 42.1127 21.6019 56.9555 H 0.0 **** 0.053
179 C26713 32.5506 22.8652 54.5296 C.2 0.0 **** 0.042
180 H26886 37.2083 16.7533 46.1812 H 0.0 **** 0.053
181 H26806 45.5353 15.0161 41.5372 H 0.0 **** 0.053
182 C26709 35.0682 22.4518 53.3686 C.2 0.0 **** 0.0
183 C26737 39.9852 22.7136 53.6498 C.2 0.0 **** 0.042
184 O26756 35.9209 24.8938 60.8126 O.3 0.0 **** -0.0685
185 C26686 39.504 20.0139 44.5644 C.2 0.0 **** 0.0
186 C26767 33.4878 25.7262 63.4414 C.2 0.0 **** 0.0
187 H26849 28.9455 20.6933 51.9902 H 0.0 **** 0.053
188 C26732 28.9578 22.8632 55.1975 C.3 0.0 **** -0.053
189 H26830 37.31 20.7052 39.3886 H 0.0 **** 0.053
190 C26672 42.1563 20.0025 43.4452 C.3 0.0 **** -0.053
191 C26669 44.3695 20.6687 45.2128 C.2 0.0 **** 0.0
192 C26761 32.2997 24.7906 61.5236 C.2 0.0 **** 0.0
193 H26893 35.5246 27.7936 67.0397 H 0.0 **** 0.1268
194 C26770 31.0289 25.4342 63.5354 C.2 0.0 **** 0.0
195 H26831 37.6057 18.9602 39.4866 H 0.0 **** 0.053
196 H26813 44.0895 18.5135 39.5075 H 0.0 **** 0.053
197 C26742 42.3247 22.5066 54.0511 C.3 0.0 **** 0.107
198 H26901 23.9208 26.2815 64.6013 H 0.0 **** 0.053
199 C26704 35.3116 20.9067 49.4153 C.2 0.0 **** -0.1268
200 C26769 29.8401 24.8523 63.0137 C.2 0.0 **** 0.0
201 C26795 27.2332 26.7144 66.7227 C.2 0.0 **** 0.052
202 C26785 30.8907 28.0979 68.5377 C.2 0.0 **** 0.0
203 C26714 33.7037 23.0457 55.3507 C.2 0.0 **** 0.0
204 C26670 43.0796 20.6932 45.7188 C.2 0.0 **** 0.0
205 H26880 28.9525 21.2644 60.7528 H 0.0 **** 0.053
206 H26842 34.3819 20.6396 48.9076 H 0.0 **** 0.1268
207 H26862 43.2226 22.6221 53.4276 H 0.0 **** 0.053
208 C26730 27.9898 20.8332 53.9585 C.3 0.0 **** -0.106
209 C26729 28.9036 21.3709 52.8523 C.3 0.0 **** -0.106
210 H26825 45.9113 19.9194 46.5141 H 0.0 **** 0.053
211 O26660 45.2212 14.8668 44.1175 O.3 0.0 **** -0.32
212 H26837 35.3571 17.4875 44.3741 H 0.0 **** 0.053
213 C26708 36.346 22.2618 52.7584 C.2 0.0 **** 0.0
214 H26822 44.3101 20.3171 48.5479 H 0.0 **** 0.053
215 C26775 35.9389 26.0187 63.4015 C.2 0.0 **** -0.1268
216 C26798 24.8286 26.5903 65.1416 C.3 0.0 **** -0.106
217 H26846 30.7969 20.5715 53.4779 H 0.0 **** 0.053
218 C26727 30.315 21.5606 53.421 C.3 0.0 **** -0.053
219 H26861 42.1098 24.6263 54.3402 H 0.0 **** 0.053
220 C26768 34.736 25.5784 62.7586 C.2 0.0 **** 0.0
221 H26867 44.7736 22.2328 55.5717 H 0.0 **** 0.053
222 H26857 27.6262 24.1211 58.1715 H 0.0 **** 0.053
223 C26758 33.512 24.6543 60.8418 C.2 0.0 **** 0.0
224 C26788 29.7428 26.3136 65.4345 C.2 0.0 **** 0.0
225 H26829 41.9026 21.0678 40.8863 H 0.0 **** 0.1268
226 H26860 27.9583 20.8054 56.6844 H 0.0 **** 0.353
227 C26710 33.8699 22.1698 52.618 C.2 0.0 **** 0.0
228 H26817 45.3224 21.3694 43.4913 H 0.0 **** 0.053
229 C26698 35.2075 17.6487 42.2274 C.3 0.0 **** -0.106
230 C26712 32.6056 22.4691 53.2067 C.2 0.0 **** 0.0
231 C26695 37.8928 17.3775 43.4788 C.3 0.0 **** -0.106
232 H26879 28.4889 22.2185 59.3397 H 0.0 **** 0.053
233 C26668 45.5254 19.2468 43.4293 C.3 0.0 **** -0.106
234 C26789 30.9872 26.1096 64.7727 C.2 0.0 **** 0.0
235 C26728 31.2234 22.4515 52.5615 C.3 0.0 **** 0.107
236 C26800 25.9192 26.757 67.4337 C.2 0.0 **** 0.347
237 C26684 40.9348 20.2413 42.5895 C.2 0.0 **** 0.0
238 C26793 28.6344 25.0916 63.634 C.2 0.0 **** -0.1268
239 H26834 38.8788 16.9929 43.1623 H 0.0 **** 0.053
240 N26736 27.2159 21.3496 56.2432 N.3 0.0 **** -0.727
241 C26763 28.7667 23.4047 61.1408 C.3 0.0 **** -0.106
242 H26896 27.522 28.0293 69.1135 H 0.0 **** 0.1268
243 H26859 26.7182 21.9447 58.1778 H 0.0 **** 0.053
244 C26744 42.3641 21.1798 54.8376 C.3 0.0 **** -0.106
245 H26845 30.4673 21.3771 55.591 H 0.0 **** 0.053
246 C26747 43.343 23.8285 55.9637 C.3 0.0 **** -0.106
247 H26814 45.3487 16.2213 39.5772 H 0.0 **** 0.053
248 C26748 37.2877 23.9297 57.5341 C.2 0.0 **** 0.0
249 C26694 37.5276 18.5349 42.5782 C.2 0.0 **** 0.0
250 C26691 37.4063 19.8655 40.0954 C.3 0.0 **** -0.106
@<TRIPOS>BOND
1 42 43 un
2 208 209 1
3 167 164 1
4 22 248 un
5 136 64 un
6 153 173 1
7 34 167 1
8 161 34 1
9 147 161 1
10 211 147 1
11 127 167 1
12 127 211 1
13 47 120 1
14 30 47 1
15 81 30 1
16 161 120 1
17 34 81 1
18 122 95 1
19 84 122 1
20 233 84 1
21 47 95 1
22 120 233 1
23 204 191 un
24 75 204 un
25 190 75 un
26 84 191 1
27 122 190 1
28 3 70 1
29 15 3 un
30 175 15 un
31 75 70 un
32 204 175 un
33 129 163 1
34 104 129 1
35 191 104 1
36 175 163 1
37 42 153 un
38 73 42 un
39 15 173 1
40 3 73 un
41 23 237 un
42 185 23 2
43 190 237 1
44 70 185 un
45 65 168 2
46 89 65 1
47 76 89 1
48 23 168 1
49 237 76 2
50 35 250 1
51 68 35 1
52 249 68 2
53 65 250 1
54 168 249 1
55 45 231 1
56 177 45 1
57 229 177 1
58 249 231 1
59 68 229 1
60 171 149 un
61 185 171 un
62 73 149 un
63 39 43 un
64 71 39 1
65 149 71 un
66 66 199 un
67 12 66 un
68 49 12 un
69 39 199 un
70 43 49 un
71 182 213 un
72 227 182 un
73 9 227 un
74 12 213 un
75 66 9 un
76 179 230 un
77 203 179 un
78 85 203 un
79 227 230 un
80 182 85 un
81 97 101 un
82 153 97 un
83 49 101 un
84 83 57 un
85 101 83 un
86 213 57 un
87 136 36 un
88 57 136 un
89 85 36 un
90 139 62 un
91 22 139 un
92 36 22 un
93 203 62 un
94 77 56 1
95 218 77 1
96 235 218 1
97 179 56 1
98 230 235 1
99 132 208 1
100 188 132 1
101 218 209 1
102 77 188 1
103 103 31 1
104 159 103 1
105 240 159 1
106 188 31 1
107 132 240 1
108 112 183 un
109 64 112 un
110 83 183 un
111 16 74 1
112 197 16 1
113 18 197 1
114 112 74 1
115 183 18 1
116 67 244 1
117 37 67 1
118 246 37 1
119 197 244 1
120 16 246 1
121 154 248 un
122 64 154 un
123 111 59 un
124 110 111 un
125 248 110 un
126 139 59 un
127 5 27 un
128 128 5 un
129 62 128 un
130 59 27 un
131 130 184 1
132 223 130 un
133 111 184 1
134 27 223 1
135 80 135 1
136 192 80 1
137 5 135 1
138 223 192 un
139 241 29 1
140 133 241 1
141 32 133 1
142 80 29 1
143 135 32 1
144 186 33 1
145 220 186 1
146 130 220 un
147 192 33 un
148 29 200 1
149 33 194 un
150 200 194 un
151 45 20 1
152 20 144 1
153 20 141 1
154 235 44 1
155 157 215 1
156 114 157 un
157 115 114 1
158 220 215 un
159 186 115 un
160 46 162 un
161 52 46 1
162 109 52 un
163 115 162 un
164 114 109 un
165 94 158 un
166 202 94 1
167 48 202 1
168 52 158 un
169 46 48 un
170 224 126 un
171 234 224 un
172 162 234 un
173 48 126 un
174 148 63 un
175 58 148 un
176 202 58 un
177 126 63 un
178 4 238 un
179 224 4 un
180 194 234 un
181 200 238 un
182 55 201 un
183 4 55 un
184 63 201 un
185 216 40 1
186 102 216 1
187 236 102 1
188 55 40 1
189 201 236 1
190 236 17 2
191 127 131 1
192 127 108 1
193 167 87 1
194 34 181 1
195 161 100 1
196 147 72 1
197 147 93 1
198 120 10 1
199 47 124 1
200 30 113 1
201 30 196 1
202 81 247 1
203 81 2 1
204 122 96 1
205 84 228 1
206 233 155 1
207 233 90 1
208 190 6 1
209 163 146 1
210 163 214 1
211 129 98 1
212 129 105 1
213 104 210 1
214 104 69 1
215 89 137 1
216 89 170 1
217 76 225 1
218 250 189 1
219 250 195 1
220 35 26 1
221 35 160 1
222 231 239 1
223 231 107 1
224 45 151 1
225 177 212 1
226 177 118 1
227 229 166 1
228 229 92 1
229 171 54 1
230 199 206 1
231 9 14 1
232 97 21 1
233 77 245 1
234 218 217 1
235 235 140 1
236 209 165 1
237 209 187 1
238 208 41 1
239 208 11 1
240 132 53 1
241 188 78 1
242 31 91 1
243 31 138 1
244 103 123 1
245 103 222 1
246 159 152 1
247 159 243 1
248 240 226 1
249 16 219 1
250 197 207 1
251 244 19 1
252 244 176 1
253 67 8 1
254 67 178 1
255 37 221 1
256 37 13 1
257 246 143 1
258 246 1 1
259 154 106 1
260 110 125 1
261 128 25 1
262 135 88 1
263 80 134 1
264 29 50 1
265 241 172 1
266 241 86 1
267 133 232 1
268 133 205 1
269 32 7 1
270 32 51 1
271 20 142 1
272 144 121 1
273 144 79 1
274 144 180 1
275 141 145 1
276 141 60 1
277 141 174 1
278 44 156 1
279 215 116 1
280 157 150 1
281 109 193 1
282 158 119 1
283 94 82 1
284 148 242 1
285 58 99 1
286 238 38 1
287 40 61 1
288 40 24 1
289 216 198 1
290 216 169 1
291 102 28 1
292 102 117 1
@<TRIPOS>MOLECULE
Sketch 4
250 292
SMALL
USER_CHARGES


@<TRIPOS>ATOM
1 H24142 56.9014 34.8376 61.8305 H 0.0 **** 0.1268
2 C23907 57.2431 35.1533 88.9629 C.3 0.0 **** -0.053
3 H24110 57.6812 23.2796 69.113 H 0.0 **** 0.353
4 C23966 58.8455 33.0503 76.257 C.2 0.0 **** 0.0
5 C23979 59.8277 23.7498 72.4401 C.3 0.0 **** -0.106
6 H24108 59.5908 21.7796 67.4984 H 0.0 **** 0.053
7 O23910 55.1264 35.5405 87.3981 O.3 0.0 **** -0.32
8 C24027 57.1415 32.812 61.0798 C.2 0.0 **** 0.0
9 C23949 60.003 30.9488 80.9895 C.2 0.0 **** -0.012
10 C24005 58.5464 28.4232 68.6142 C.2 0.0 **** -0.1268
11 C24048 59.1239 23.5313 58.4998 C.3 0.0 **** -0.106
12 C24011 57.7841 29.3682 64.5232 C.2 0.0 **** 0.0
13 H24085 58.8671 29.8165 83.7828 H 0.0 **** 0.053
14 C23921 60.1563 34.3816 83.449 C.2 0.0 **** 0.0
15 C23956 59.2677 30.6894 75.6655 C.2 0.0 **** 0.0
16 C23919 59.6891 36.7828 83.7615 C.2 0.0 **** 0.0
17 C24045 57.9512 26.0625 57.782 C.2 0.0 **** 0.052
18 C23980 59.026 22.8949 71.4529 C.3 0.0 **** -0.106
19 H24064 58.4591 35.391 90.7649 H 0.0 **** 0.053
20 H24106 61.0268 23.6352 67.4851 H 0.0 **** 0.053
21 S23953 59.8449 29.4776 80.0553 S.2 0.0 **** 0.024
22 H24133 56.5146 29.1384 84.9084 H 0.0 **** 0.053
23 H24130 55.8782 24.9873 65.7094 H 0.0 **** 0.053
24 C24002 57.6767 33.3948 68.3739 C.2 0.0 **** -0.1268
25 H24123 58.7372 27.3985 68.8918 H 0.0 **** 0.1268
26 C23954 59.7559 29.0518 77.4376 C.2 0.0 **** -0.1268
27 C23961 59.7055 28.3465 75.1083 C.2 0.0 **** -0.1268
28 H24079 62.6558 33.9358 86.5998 H 0.0 **** 0.1268
29 H24078 63.4593 31.7298 87.3937 H 0.0 **** 0.053
30 C23937 61.3936 30.5439 85.103 C.2 0.0 **** 0.0
31 C23926 59.3348 35.7577 81.5539 C.2 0.0 **** 0.0
32 H24089 61.1655 26.1092 84.3779 H 0.0 **** 0.053
33 H24129 57.473 24.6422 66.3873 H 0.0 **** 0.053
34 C24003 58.0028 30.0126 66.8952 C.2 0.0 **** 0.0
35 C24038 57.7093 28.0774 59.7818 C.2 0.0 **** 0.0
36 C23977 59.4134 25.2174 72.2782 C.3 0.0 **** -0.053
37 H24082 62.9488 27.1105 85.9501 H 0.0 **** 0.053
38 C23909 56.1037 36.5735 87.2231 C.3 0.0 **** 0.054
39 C23928 59.4753 38.2584 81.7444 C.3 0.0 **** -0.106
40 C23906 56.7353 33.8845 88.2473 C.3 0.0 **** -0.106
41 C24029 57.4364 30.4474 60.4396 C.2 0.0 **** 0.0
42 C24023 56.0564 27.049 85.0904 C.3 0.0 **** -0.159
43 C23982 59.9383 24.6448 69.8102 C.3 0.0 **** -0.053
44 H24068 58.2915 37.7025 85.768 H 0.0 **** 0.053
45 H24118 55.3532 39.3407 72.6317 H 0.0 **** 0.053
46 H24084 58.7324 30.1531 85.4925 H 0.0 **** 0.053
47 C23999 57.8834 34.1438 70.7102 C.2 0.0 **** -0.1268
48 C24019 57.6297 27.3222 62.5074 C.2 0.0 **** 0.0
49 H24132 55.9671 27.3022 66.3338 H 0.0 **** 0.053
50 H24053 56.1655 34.2365 86.1552 H 0.0 **** 0.053
51 H24081 62.4589 29.0269 87.4537 H 0.0 **** 0.053
52 C23941 62.9716 29.2267 86.4908 C.3 0.0 **** -0.106
53 H24074 60.566 38.2852 81.5888 H 0.0 **** 0.053
54 C24000 58.0227 31.0355 67.8552 C.2 0.0 **** 0.0
55 H24127 58.6227 25.3435 64.4567 H 0.0 **** 0.053
56 C23958 59.0571 30.973 74.2905 C.2 0.0 **** 0.0
57 H24080 64.0478 29.2973 86.7158 H 0.0 **** 0.053
58 C24001 57.7214 32.3763 67.4626 C.2 0.0 **** 0.042
59 H24077 64.1526 31.8649 85.7981 H 0.0 **** 0.053
60 H24109 58.1809 22.7199 66.9909 H 0.0 **** 0.053
61 H24152 60.1001 24.0084 58.3137 H 0.0 **** 0.053
62 C23943 61.2255 28.1037 85.1271 C.2 0.0 **** 0.0
63 C23978 60.3953 26.2191 72.9026 C.3 0.0 **** 0.107
64 H24075 58.0947 38.1835 83.404 H 0.0 **** 0.053
65 C24047 58.3847 24.3137 59.5784 C.3 0.0 **** -0.106
66 C23969 58.5969 33.3462 74.8615 C.2 0.0 **** 0.0
67 C24020 57.6177 28.7008 62.1561 C.2 0.0 **** 0.0
68 H24060 58.0962 35.2402 86.1426 H 0.0 **** 0.053
69 C23972 58.6428 29.4224 69.602 C.2 0.0 **** 0.0
70 H24148 57.7974 25.3219 61.8144 H 0.0 **** 0.1268
71 C23960 59.5703 28.609 73.7361 C.2 0.0 **** 0.0
72 H24113 55.7115 35.4903 74.5321 H 0.0 **** 0.053
73 H24061 59.5802 34.0185 87.4499 H 0.0 **** 0.053
74 H24052 54.8557 33.5439 87.1499 H 0.0 **** 0.053
75 H24150 57.4523 23.7821 59.8473 H 0.0 **** 0.053
76 H24117 55.8826 39.2713 74.315 H 0.0 **** 0.053
77 C24039 57.596 29.0712 60.7956 C.2 0.0 **** 0.0
78 C23940 62.3727 33.0299 86.0665 C.2 0.0 **** -0.1268
79 H24058 56.2742 36.7345 86.1381 H 0.0 **** 0.053
80 H24134 55.7276 28.4334 82.691 H 0.0 **** 0.053
81 C24021 56.9041 28.1846 84.5078 C.3 0.0 **** -0.053
82 O23990 57.759 36.1616 72.5422 O.3 0.0 **** -0.202
83 H24128 57.0959 24.8514 63.7096 H 0.0 **** 0.053
84 C24042 57.6035 29.2054 55.7038 C.2 0.0 **** -0.1268
85 H24098 60.9078 23.64 72.2423 H 0.0 **** 0.053
86 C23914 58.5346 34.9015 89.7824 C.3 0.0 **** -0.106
87 H24063 60.7014 34.942 89.4939 H 0.0 **** 0.053
88 H24140 61.4434 26.3121 74.5454 H 0.0 **** 0.41
89 O24024 60.7098 25.7674 74.2209 O.3 0.0 **** -0.57
90 C24026 57.0446 33.795 62.1198 C.2 0.0 **** -0.1268
91 C24035 57.4672 30.2054 56.6925 C.2 0.0 **** 0.0
92 C24013 57.5422 25.563 64.4187 C.3 0.0 **** -0.106
93 C23951 59.3994 31.3979 78.0395 C.2 0.0 **** 0.0
94 C24010 58.1817 27.9512 64.8407 C.3 0.0 **** -0.053
95 H24066 62.018 35.6342 85.2737 H 0.0 **** 0.053
96 H24107 59.8366 24.2676 66.3392 H 0.0 **** 0.053
97 H24147 57.5912 29.5018 54.6528 H 0.0 **** 0.1268
98 C23965 58.9284 30.1975 71.9398 C.2 0.0 **** 0.0
99 H24154 58.7684 23.0534 56.3797 H 0.0 **** 0.053
100 C24012 57.3565 27.002 63.9514 C.3 0.0 **** -0.053
101 C23976 59.2451 25.595 70.7852 C.3 0.0 **** 0.107
102 C23989 58.1275 33.8751 72.0651 C.2 0.0 **** 0.0
103 H24100 57.956 23.16 71.5303 H 0.0 **** 0.053
104 O23993 58.0761 35.6784 75.2907 O.3 0.0 **** -0.202
105 H24057 57.7848 37.177 88.4457 H 0.0 **** 0.053
106 C23971 58.4635 32.56 72.5087 C.2 0.0 **** 0.0
107 H24093 59.8858 27.3319 75.4497 H 0.0 **** 0.1268
108 H24138 56.4036 26.0721 84.7178 H 0.0 **** 0.053
109 C24016 57.5733 29.7103 63.1789 C.2 0.0 **** 0.0
110 C23950 60.4025 30.8178 82.2969 C.2 0.0 **** -0.1268
111 H24097 61.3183 26.1886 72.2875 H 0.0 **** 0.053
112 C24022 56.7678 28.2206 82.9801 C.3 0.0 **** -0.159
113 C23963 59.5068 27.8974 71.4192 C.2 0.0 **** 0.042
114 C23945 59.1124 29.4051 84.7738 C.3 0.0 **** -0.106
115 H24065 58.6302 33.8207 89.9778 H 0.0 **** 0.053
116 H24124 58.9673 26.8648 66.5165 H 0.0 **** 0.053
117 H24116 55.2357 36.7978 72.625 H 0.0 **** 0.053
118 C23912 59.7285 35.1079 87.5805 C.3 0.0 **** 0.107
119 C23936 60.4774 31.9272 83.1923 C.2 0.0 **** 0.0
120 H24139 54.9992 27.1566 84.8039 H 0.0 **** 0.053
121 C24030 57.389 30.8136 59.0739 C.2 0.0 **** 0.0
122 C23932 59.3608 32.4118 79.0305 C.2 0.0 **** 0.0
123 C24004 58.2364 28.6899 67.2933 C.2 0.0 **** 0.0
124 H24076 59.642 38.9208 83.8191 H 0.0 **** 0.053
125 H24136 57.4113 28.9843 82.5175 H 0.0 **** 0.053
126 N23986 58.514 22.6929 69.0483 N.3 0.0 **** -0.727
127 H24112 57.5845 37.6153 75.5461 H 0.0 **** 0.053
128 O23975 59.7964 26.9118 70.5004 O.3 0.0 **** -0.202
129 H24083 63.3136 28.2141 84.6091 H 0.0 **** 0.053
130 C24025 57.1416 33.4538 63.4401 C.2 0.0 **** -0.1268
131 C24040 57.7786 27.4469 57.392 C.2 0.0 **** 0.0
132 H24114 55.3996 36.8118 75.666 H 0.0 **** 0.053
133 H24105 60.2486 25.9699 68.1135 H 0.0 **** 0.053
134 C23947 59.1557 26.9523 84.2879 C.3 0.0 **** -0.106
135 C23942 62.6847 28.0852 85.511 C.3 0.0 **** -0.106
136 H24122 57.4328 34.4085 68.0544 H 0.0 **** 0.1268
137 H24103 61.0211 24.7192 70.0079 H 0.0 **** 0.053
138 C23998 57.945 33.1306 69.7536 C.2 0.0 **** 0.0
139 C24009 58.1176 27.5391 66.3296 C.3 0.0 **** -0.053
140 C23924 59.7337 33.3417 81.2723 C.2 0.0 **** 0.0
141 H24119 57.9641 39.3774 73.1664 H 0.0 **** 0.053
142 H24101 59.0991 21.8208 71.6718 H 0.0 **** 0.053
143 C24014 56.8988 25.3857 65.8168 C.3 0.0 **** -0.106
144 H24086 58.36 27.8545 86.0554 H 0.0 **** 0.053
145 C23957 59.1688 31.7085 76.6526 C.2 0.0 **** 0.0
146 C23925 59.3629 34.6302 80.7808 C.2 0.0 **** 0.232
147 C23962 59.804 27.6158 72.7393 C.2 0.0 **** 0.0
148 H24153 57.3315 23.0251 57.409 H 0.0 **** 0.053
149 C23905 55.6976 34.2495 87.1599 C.3 0.0 **** 0.054
150 H24099 59.6646 23.437 73.4792 H 0.0 **** 0.053
151 C23995 55.1842 37.3719 73.5619 C.3 0.0 **** -0.106
152 C23927 58.8829 37.0755 80.9777 C.3 0.0 **** -0.106
153 O23930 58.97 34.7711 79.4636 O.3 0.0 **** -0.464
154 H24096 58.4458 25.3578 72.7859 H 0.0 **** 0.053
155 C23996 55.891 38.7171 73.3608 C.3 0.0 **** -0.106
156 H24143 56.9607 34.2029 59.4445 H 0.0 **** 0.1268
157 H24072 57.7789 37.1317 81.0266 H 0.0 **** 0.053
158 C23944 60.6089 29.2969 84.9539 C.2 0.0 **** 0.0
159 H24149 58.9941 24.3532 60.4922 H 0.0 **** 0.053
160 C24008 57.7448 30.3507 65.5163 C.2 0.0 **** 0.0
161 C23934 61.3301 33.0302 85.206 C.2 0.0 **** 0.0
162 C24041 57.752 27.8749 56.0356 C.2 0.0 **** -0.1268
163 C23967 58.8001 34.0258 77.2744 C.2 0.0 **** -0.1268
164 H24087 59.3047 27.2112 83.2268 H 0.0 **** 0.053
165 H24145 57.2641 31.8576 55.3003 H 0.0 **** 0.1268
166 O24006 57.4534 32.6732 66.1349 O.3 0.0 **** -0.0685
167 C23983 59.6713 25.0672 68.3559 C.3 0.0 **** -0.106
168 H24102 60.4032 22.5384 69.8501 H 0.0 **** 0.053
169 O23915 60.9964 35.4617 87.0065 O.3 0.0 **** -0.32
170 C23948 60.5187 26.7903 84.9605 C.3 0.0 **** -0.106
171 H24056 56.4436 35.4815 89.6431 H 0.0 **** 0.053
172 C23992 57.3725 36.8362 74.8001 C.3 0.0 **** 0.107
173 H24095 58.1686 25.6373 70.5347 H 0.0 **** 0.053
174 H24059 55.6378 37.4785 87.6374 H 0.0 **** 0.053
175 C24015 56.8526 26.7069 66.6075 C.3 0.0 **** -0.106
176 C24028 57.3133 31.4387 61.449 C.2 0.0 **** 0.0
177 C23970 58.5536 31.524 71.5428 C.2 0.0 **** 0.0
178 H24091 60.7112 29.8376 82.6593 H 0.0 **** 0.1268
179 C24032 57.0901 33.1552 59.7248 C.2 0.0 **** -0.1268
180 C23984 59.9707 23.9308 67.3796 C.3 0.0 **** -0.106
181 C23938 62.4801 30.5315 85.9292 C.2 0.0 **** 0.0
182 H24069 59.5538 37.768 87.0059 H 0.0 **** 0.053
183 C23908 57.4533 36.2648 87.9219 C.3 0.0 **** -0.053
184 C23929 59.1877 38.0997 83.2392 C.3 0.0 **** -0.106
185 H24121 57.6364 35.1589 70.4033 H 0.0 **** 0.1268
186 C23981 59.5045 23.1554 70.0214 C.3 0.0 **** 0.134
187 H24146 57.8397 27.1265 55.2554 H 0.0 **** 0.1268
188 C24018 57.3357 32.0889 63.8317 C.2 0.0 **** 0.0
189 C23917 60.1973 36.7949 85.1651 C.3 0.0 **** -0.053
190 H24111 59.0732 37.3628 73.5947 H 0.0 **** 0.053
191 C23946 58.3718 28.0777 84.9721 C.3 0.0 **** -0.053
192 C23988 58.0511 34.9099 73.0329 C.2 0.0 **** 0.042
193 C24031 57.2113 32.1885 58.7137 C.2 0.0 **** 0.0
194 H24055 57.58 33.3506 87.7839 H 0.0 **** 0.053
195 H24094 58.5743 35.0572 77.0469 H 0.0 **** 0.1268
196 H24104 58.6072 25.3435 68.2595 H 0.0 **** 0.053
197 C24043 57.7849 26.3694 61.5256 C.2 0.0 **** -0.1268
198 C23968 58.7072 32.3052 73.8916 C.2 0.0 **** 0.0
199 C24050 57.9183 24.9592 56.774 C.2 0.0 **** 0.347
200 H24067 60.9204 37.6312 85.2198 H 0.0 **** 0.053
201 C24033 57.1663 32.5392 57.3289 C.2 0.0 **** -0.1268
202 C23913 59.801 35.4077 89.0681 C.3 0.0 **** -0.106
203 C23918 59.109 37.1278 86.2278 C.3 0.0 **** -0.106
204 C23959 59.1906 29.9354 73.3175 C.2 0.0 **** 0.0
205 C23933 59.6763 32.227 80.427 C.2 0.0 **** 0.0
206 H24062 59.9089 36.4967 89.1975 H 0.0 **** 0.053
207 H24131 56.7724 26.5111 67.6875 H 0.0 **** 0.053
208 C24034 57.292 31.5827 56.3565 C.2 0.0 **** -0.1268
209 H24073 59.0612 39.2056 81.3662 H 0.0 **** 0.053
210 C23920 59.7357 35.6645 82.9443 C.2 0.0 **** 0.0
211 H24071 59.1425 37.1261 79.9104 H 0.0 **** 0.053
212 C24036 57.5119 29.8193 58.0586 C.2 0.0 **** 0.0
213 C23931 59.0503 33.712 78.5924 C.2 0.0 **** 0.232
214 C24046 58.0608 25.7238 59.1374 C.2 0.0 **** 0.0
215 C23939 63.1755 31.7928 86.3249 C.3 0.0 **** -0.106
216 H24115 54.1201 37.5231 73.7956 H 0.0 **** 0.053
217 H24054 56.2964 33.2048 88.9937 H 0.0 **** 0.053
218 C23952 59.675 30.0293 78.3962 C.2 0.0 **** -0.012
219 C23987 58.2373 34.6556 74.3831 C.2 0.0 **** 0.042
220 H24137 56.1165 27.0328 86.1901 H 0.0 **** 0.053
221 C23964 59.0163 29.1598 70.9698 C.2 0.0 **** 0.0
222 H24090 60.3989 26.3048 85.9487 H 0.0 **** 0.053
223 H24125 59.2354 27.8501 64.5122 H 0.0 **** 0.053
224 C23955 59.5746 29.3514 76.0617 C.2 0.0 **** 0.0
225 H24126 56.2912 27.2671 64.107 H 0.0 **** 0.053
226 C23985 59.0418 22.7199 67.6758 C.3 0.0 **** 0.081
227 H24070 59.4656 33.9847 85.3665 H 0.0 **** 0.053
228 C23911 58.5556 35.8809 86.9123 C.3 0.0 **** -0.053
229 C24037 57.673 28.444 58.4066 C.2 0.0 **** 0.0
230 C24017 57.3918 31.0767 62.8226 C.2 0.0 **** 0.0
231 C24049 58.2866 23.5535 57.2319 C.3 0.0 **** -0.086
232 C23997 57.3459 38.5097 72.8919 C.3 0.0 **** -0.106
233 H24151 59.3172 22.5003 58.8328 H 0.0 **** 0.053
234 C23935 60.9923 31.806 84.4845 C.2 0.0 **** 0.0
235 C24044 57.8713 26.7137 60.1511 C.2 0.0 **** 0.0
236 O24051 57.5519 25.1073 55.6071 O.2 0.0 **** -0.419
237 C23991 57.9838 37.2449 73.4704 C.3 0.0 **** 0.107
238 H24135 57.0409 27.2464 82.5458 H 0.0 **** 0.053
239 H24092 59.9731 28.0188 77.7186 H 0.0 **** 0.1268
240 C23974 58.284 31.803 70.177 C.2 0.0 **** 0.0
241 H24120 57.39 38.4186 71.7957 H 0.0 **** 0.053
242 H24141 57.0819 34.2166 64.2163 H 0.0 **** 0.1268
243 C23923 60.1334 33.2472 82.6565 C.2 0.0 **** 0.0
244 C24007 57.5016 31.6914 65.1719 C.2 0.0 **** 0.0265
245 C23916 60.9647 35.5238 85.5705 C.3 0.0 **** 0.107
246 C23922 60.453 34.227 84.9237 C.3 0.0 **** -0.053
247 H24144 57.0317 33.5896 57.0643 H 0.0 **** 0.1268
248 H24088 58.596 26.0049 84.319 H 0.0 **** 0.053
249 C23973 58.3221 30.7589 69.2187 C.2 0.0 **** 0.0
250 C23994 55.8566 36.568 74.6958 C.3 0.0 **** -0.106
@<TRIPOS>BOND
1 89 88 1
2 189 245 1
3 2 40 1
4 183 2 1
5 38 183 1
6 7 38 1
7 149 40 1
8 149 7 1
9 118 228 1
10 202 118 1
11 86 202 1
12 183 228 1
13 2 86 1
14 245 169 1
15 203 189 1
16 118 169 1
17 228 203 1
18 210 16 un
19 14 210 un
20 246 14 un
21 189 16 1
22 245 246 1
23 140 243 1
24 146 140 un
25 31 146 un
26 14 243 un
27 210 31 un
28 39 152 1
29 184 39 1
30 16 184 1
31 31 152 1
32 213 153 1
33 122 213 un
34 205 122 un
35 146 153 1
36 140 205 un
37 234 161 un
38 119 234 2
39 246 161 1
40 243 119 un
41 181 30 2
42 215 181 1
43 78 215 1
44 234 30 1
45 161 78 2
46 135 52 1
47 62 135 1
48 158 62 2
49 181 52 1
50 30 158 1
51 191 114 1
52 134 191 1
53 170 134 1
54 158 114 1
55 62 170 1
56 110 9 un
57 119 110 un
58 205 9 un
59 218 93 un
60 21 218 1
61 9 21 un
62 122 93 un
63 224 26 un
64 15 224 un
65 145 15 un
66 218 26 un
67 93 145 un
68 204 56 un
69 71 204 un
70 27 71 un
71 15 56 un
72 224 27 un
73 113 147 un
74 221 113 un
75 98 221 un
76 71 147 un
77 204 98 un
78 163 4 un
79 213 163 un
80 145 4 un
81 66 198 un
82 4 66 un
83 56 198 un
84 106 177 un
85 198 106 un
86 98 177 un
87 249 69 un
88 240 249 un
89 177 240 un
90 221 69 un
91 101 128 1
92 36 101 1
93 63 36 1
94 113 128 1
95 147 63 1
96 18 5 1
97 186 18 1
98 43 186 1
99 36 5 1
100 101 43 1
101 180 167 1
102 226 180 1
103 126 226 1
104 43 167 1
105 186 126 1
106 192 219 un
107 102 192 un
108 106 102 un
109 66 219 un
110 237 82 1
111 172 237 1
112 104 172 1
113 192 82 1
114 219 104 1
115 151 250 1
116 155 151 1
117 232 155 1
118 172 250 1
119 237 232 1
120 47 138 un
121 102 47 un
122 240 138 un
123 58 54 un
124 24 58 un
125 138 24 un
126 249 54 un
127 123 34 un
128 10 123 un
129 69 10 un
130 54 34 un
131 244 166 1
132 160 244 un
133 58 166 1
134 34 160 1
135 94 139 1
136 12 94 1
137 123 139 1
138 160 12 un
139 92 100 1
140 143 92 1
141 175 143 1
142 94 100 1
143 139 175 1
144 230 109 1
145 188 230 1
146 244 188 un
147 12 109 un
148 100 48 1
149 109 67 un
150 48 67 un
151 191 81 1
152 81 112 1
153 81 42 1
154 63 89 1
155 90 130 1
156 8 90 un
157 176 8 1
158 188 130 un
159 230 176 un
160 121 41 un
161 193 121 1
162 179 193 un
163 176 41 un
164 8 179 un
165 208 201 un
166 91 208 1
167 212 91 1
168 193 201 un
169 121 212 un
170 35 229 un
171 77 35 un
172 41 77 un
173 212 229 un
174 162 131 un
175 84 162 un
176 91 84 un
177 229 131 un
178 235 197 un
179 35 235 un
180 67 77 un
181 48 197 un
182 214 17 un
183 235 214 un
184 131 17 un
185 11 65 1
186 231 11 1
187 199 231 1
188 214 65 1
189 17 199 1
190 199 236 2
191 149 74 1
192 149 50 1
193 40 217 1
194 40 194 1
195 2 171 1
196 183 105 1
197 38 79 1
198 38 174 1
199 228 68 1
200 118 73 1
201 202 206 1
202 202 87 1
203 86 19 1
204 86 115 1
205 245 95 1
206 189 200 1
207 203 44 1
208 203 182 1
209 246 227 1
210 152 211 1
211 152 157 1
212 39 209 1
213 39 53 1
214 184 64 1
215 184 124 1
216 215 59 1
217 215 29 1
218 78 28 1
219 52 57 1
220 52 51 1
221 135 37 1
222 135 129 1
223 114 46 1
224 114 13 1
225 191 144 1
226 134 164 1
227 134 248 1
228 170 32 1
229 170 222 1
230 110 178 1
231 26 239 1
232 27 107 1
233 163 195 1
234 101 173 1
235 36 154 1
236 63 111 1
237 5 85 1
238 5 150 1
239 18 103 1
240 18 142 1
241 186 168 1
242 43 137 1
243 167 196 1
244 167 133 1
245 180 20 1
246 180 96 1
247 226 6 1
248 226 60 1
249 126 3 1
250 237 190 1
251 172 127 1
252 250 72 1
253 250 132 1
254 151 216 1
255 151 117 1
256 155 76 1
257 155 45 1
258 232 141 1
259 232 241 1
260 47 185 1
261 24 136 1
262 10 25 1
263 139 116 1
264 94 223 1
265 100 225 1
266 92 55 1
267 92 83 1
268 143 33 1
269 143 23 1
270 175 207 1
271 175 49 1
272 81 22 1
273 112 80 1
274 112 238 1
275 112 125 1
276 42 220 1
277 42 108 1
278 42 120 1
279 130 242 1
280 90 1 1
281 179 156 1
282 201 247 1
283 208 165 1
284 162 187 1
285 84 97 1
286 197 70 1
287 65 159 1
288 65 75 1
289 11 233 1
290 11 61 1
291 231 148 1
292 231 99 1
@<TRIPOS>MOLECULE
Sketch 4
130 142
SMALL
USER_CHARGES


@<TRIPOS>ATOM
1 C6666 22.8995 34.1718 27.423 C.3 0.0 **** -0.106
2 C6637 21.7597 39.6131 35.8045 C.3 0.0 **** -0.106
3 C6664 23.042 35.0935 31.0534 C.2 0.0 **** 0.367
4 C6680 24.8612 28.1964 29.1388 C.ar 0.0 **** -0.1268
5 C6677 23.7158 28.309 25.5219 C.3 0.0 **** -0.106
6 C6673 23.4054 32.6033 24.921 C.3 0.0 **** -0.106
7 C6675 23.6099 30.2912 23.9468 C.3 0.0 **** -0.106
8 C6684 20.4887 43.7186 33.1907 C.3 0.0 **** -0.106
9 C6698 24.2458 25.4397 25.8598 C.3 0.0 **** -0.159
10 C6642 22.2454 37.6731 39.6718 C.ar 0.0 **** 0.0
11 H6721 25.3015 29.6835 25.1208 H 0.0 **** 0.053
12 C6671 23.9281 30.6318 26.4244 C.ar 0.0 **** 0.0
13 H6710 21.261 33.2552 39.3376 H 0.0 **** 0.053
14 H6747 18.8722 30.3433 39.3592 H 0.0 **** 0.053
15 H6760 26.0068 24.0871 27.7858 H 0.0 **** 0.053
16 H6744 21.7871 37.7014 41.7857 H 0.0 **** 0.053
17 C6643 22.2464 36.8909 38.4654 C.ar 0.0 **** 0.0
18 C6665 23.5223 34.9525 28.5769 C.3 0.0 **** -0.106
19 C6658 22.7902 34.4587 32.3176 C.ar 0.0 **** 0.052
20 C6646 22.1946 35.4275 35.9702 C.ar 0.0 **** 0.0
21 C6693 19.0241 30.0767 36.6913 C.3 0.0 **** -0.159
22 C6682 24.9537 25.9274 28.253 C.ar 0.0 **** 0.0
23 H6752 19.5416 29.2354 37.1761 H 0.0 **** 0.053
24 H6714 21.7971 34.2092 27.511 H 0.0 **** 0.053
25 H6750 18.8834 29.8199 35.6309 H 0.0 **** 0.053
26 C6645 22.1471 36.8203 35.9981 C.ar 0.0 **** -0.1268
27 H6706 21.8398 30.5535 36.7435 H 0.0 **** 0.053
28 H6749 20.6119 30.0108 39.1816 H 0.0 **** 0.053
29 C6653 21.2083 31.2369 36.1459 C.3 0.0 **** -0.106
30 H6757 24.9869 25.5819 25.0547 H 0.0 **** 0.053
31 C6655 19.9867 31.8907 38.2723 C.ar 0.0 **** -0.053
32 C6699 25.2504 24.4676 28.4908 C.3 0.0 **** -0.159
33 H6707 19.2922 32.1515 36.2518 H 0.0 **** 0.053
34 C6647 22.1689 34.7335 37.2364 C.ar 0.0 **** 0.0
35 H6719 23.9578 29.6916 23.0907 H 0.0 **** 0.053
36 C6690 22.1914 37.0154 41.0328 C.3 0.0 **** -0.159
37 C6685 19.012 43.5344 32.8067 C.3 0.0 **** -0.159
38 H6729 18.7718 42.4663 32.6976 H 0.0 **** 0.053
39 H6758 24.3498 23.8454 28.3596 H 0.0 **** 0.053
40 H6713 23.152 34.6516 26.4694 H 0.0 **** 0.053
41 H6716 23.8592 33.6063 24.9088 H 0.0 **** 0.053
42 H6718 23.6594 32.1574 22.8161 H 0.0 **** 0.053
43 C6636 20.8255 43.053 34.5085 C.ar 0.0 **** 0.0
44 H6715 22.3271 32.7622 24.739 H 0.0 **** 0.053
45 N6669 23.908 30.8266 28.829 N.ar 0.0 **** -0.481
46 H6703 21.1455 41.5055 39.0489 H 0.0 **** 0.053
47 C6631 20.8003 43.8059 35.7031 C.ar 0.0 **** 0.0
48 C6663 23.2611 34.2583 29.8818 C.ar 0.0 **** 0.0
49 H6739 21.5706 45.0695 37.9735 H 0.0 **** 0.053
50 H6717 25.0962 31.8431 23.8034 H 0.0 **** 0.053
51 H6741 21.2751 40.0816 41.2657 H 0.0 **** 0.053
52 H6723 24.0077 27.6649 24.6809 H 0.0 **** 0.053
53 H6711 23.1472 35.9826 28.626 H 0.0 **** 0.053
54 H6732 19.6108 45.438 34.9013 H 0.0 **** 0.053
55 C6638 21.9644 38.973 37.1461 C.ar 0.0 **** 0.0
56 H6727 20.7235 44.7907 33.2383 H 0.0 **** 0.053
57 C6678 24.242 27.7688 26.8285 C.ar 0.0 **** 0.0
58 H6734 20.3794 39.9962 33.4325 H 0.0 **** 0.053
59 C6650 21.8342 32.6095 36.0571 C.2 0.0 **** 0.0
60 C6674 23.9966 31.7605 23.7856 C.3 0.0 **** -0.106
61 C6649 21.8473 33.3363 37.2401 C.2 0.0 **** 0.0
62 H6746 23.1387 33.9583 39.3088 H 0.0 **** 0.41
63 H6756 24.3017 24.3927 26.1791 H 0.0 **** 0.053
64 C6681 25.1319 26.8435 29.3018 C.ar 0.0 **** -0.1268
65 H6700 20.9474 39.0759 35.2845 H 0.0 **** 0.053
66 O6696 23.0873 36.3713 30.942 O.2 0.0 **** -0.419
67 H6712 24.6167 35.0196 28.4298 H 0.0 **** 0.053
68 H6722 22.6085 28.3097 25.5441 H 0.0 **** 0.053
69 C6633 21.4954 41.841 36.9636 C.ar 0.0 **** 0.0
70 O6695 22.6258 36.5767 33.3207 O.3 0.0 **** -0.452
71 H6724 24.9666 28.9028 29.9622 H 0.0 **** 0.1268
72 C6652 22.3208 34.649 34.7525 C.ar 0.0 **** 0.0
73 C6689 22.2722 39.9146 40.8212 C.3 0.0 **** -0.159
74 C6667 23.3502 32.7357 27.4548 C.ar 0.0 **** 0.0
75 C6660 22.5297 32.434 33.6502 C.ar 0.0 **** 0.042
76 C6632 21.1759 43.2127 36.9225 C.ar 0.0 **** 0.0
77 H6728 18.3566 43.94 33.5925 H 0.0 **** 0.053
78 C6654 19.828 31.3729 36.8194 C.ar 0.0 **** -0.053
79 H6709 22.0903 31.8147 38.7208 H 0.0 **** 0.053
80 H6742 22.6954 40.9029 40.6039 H 0.0 **** 0.053
81 H6751 18.0302 30.1732 37.154 H 0.0 **** 0.053
82 C6635 21.1337 41.6815 34.5571 C.ar 0.0 **** 0.0
83 C6644 22.1009 37.5514 37.1948 C.ar 0.0 **** 0.0
84 H6725 25.48 26.4736 30.2688 H 0.0 **** 0.1268
85 C6634 21.4549 41.0823 35.7916 C.ar 0.0 **** 0.0
86 O6697 22.9826 30.948 31.3589 O.2 0.0 **** -0.419
87 C6679 24.4182 28.6723 27.8973 C.ar 0.0 **** 0.0
88 H6759 25.6236 24.3092 29.5117 H 0.0 **** 0.053
89 H6701 22.6476 39.4196 35.1716 H 0.0 **** 0.053
90 H6743 21.5488 36.1273 41.0094 H 0.0 **** 0.053
91 H6745 23.1826 36.6758 41.3722 H 0.0 **** 0.053
92 H6738 20.2447 44.1211 38.6665 H 0.0 **** 0.053
93 H6737 21.9233 43.6194 38.9245 H 0.0 **** 0.053
94 H6755 23.2545 25.6034 25.4102 H 0.0 **** 0.053
95 C6672 23.5736 31.9819 26.2909 C.ar 0.0 **** 0.0
96 O6691 22.8381 34.8471 39.5565 O.3 0.0 **** -0.452
97 H6726 21.1291 43.3144 32.3929 H 0.0 **** 0.053
98 C6683 24.4907 26.395 27.0049 C.ar 0.0 **** 0.0
99 H6704 22.1586 37.3518 35.0606 H 0.0 **** 0.1268
100 H6720 22.5101 30.1987 23.985 H 0.0 **** 0.053
101 C6670 24.0758 30.0959 27.7216 C.ar 0.0 **** 0.2405
102 C6639 22.0247 39.7114 38.3068 C.ar 0.0 **** 0.0
103 H6708 19.199 32.6385 38.455 H 0.0 **** 0.053
104 C6662 23.2703 32.8789 29.9466 C.ar 0.0 **** 0.0
105 C6686 20.3628 45.2552 35.6798 C.3 0.0 **** -0.159
106 C6651 22.229 33.2279 34.8228 C.ar 0.0 **** 0.0
107 H6754 22.835 36.7253 32.2885 H 0.0 **** 0.41
108 H6733 21.2099 45.9353 35.482 H 0.0 **** 0.053
109 C6648 22.3991 35.4832 38.4169 C.ar 0.0 **** 0.042
110 H6702 22.8289 41.664 38.6262 H 0.0 **** 0.053
111 C6668 23.53 32.1074 28.7119 C.ar 0.0 **** 0.2405
112 H6740 22.9017 39.4503 41.5908 H 0.0 **** 0.053
113 C6676 24.2004 29.7325 25.2409 C.3 0.0 **** -0.053
114 H6735 22.0926 40.311 33.1751 H 0.0 **** 0.053
115 C6661 23.0162 32.2137 31.2417 C.2 0.0 **** 0.367
116 C6692 19.8684 30.8066 39.3484 C.3 0.0 **** -0.159
117 C6688 21.2352 44.045 38.1837 C.3 0.0 **** -0.159
118 H6748 20.0566 31.2359 40.3446 H 0.0 **** 0.053
119 C6641 22.1925 39.06 39.5758 C.ar 0.0 **** 0.0
120 C6657 22.5774 35.2553 33.4681 C.ar 0.0 **** 0.042
121 H6736 20.8731 41.3549 32.4108 H 0.0 **** 0.053
122 H6730 18.775 44.043 31.8593 H 0.0 **** 0.053
123 H6753 22.7846 30.8025 32.7369 H 0.0 **** 0.41
124 O6694 22.6093 31.1125 33.7451 O.3 0.0 **** -0.452
125 C6640 21.8793 41.2107 38.2797 C.3 0.0 **** -0.106
126 C6687 21.1194 40.8066 33.3258 C.3 0.0 **** -0.159
127 H6731 19.9203 45.5566 36.6378 H 0.0 **** 0.053
128 C6659 22.7784 33.0471 32.4043 C.ar 0.0 **** 0.052
129 H6705 21.0938 30.7768 35.1641 H 0.0 **** 0.053
130 C6656 21.3542 32.6015 38.4651 C.3 0.0 **** -0.106
@<TRIPOS>BOND
1 29 27 1
2 87 57 am
3 7 35 1
4 95 12 am
5 85 69 am
6 69 76 am
7 82 85 am
8 43 82 am
9 47 76 am
10 47 43 am
11 55 2 1
12 102 55 am
13 125 102 1
14 85 2 1
15 69 125 1
16 10 119 am
17 17 10 am
18 83 17 am
19 102 119 am
20 55 83 am
21 20 26 am
22 34 20 am
23 109 34 am
24 83 26 am
25 17 109 am
26 59 61 1
27 106 59 1
28 72 106 am
29 34 61 1
30 20 72 am
31 78 29 1
32 31 78 am
33 130 31 1
34 59 29 1
35 61 130 1
36 19 120 am
37 128 19 am
38 75 128 am
39 72 120 am
40 106 75 am
41 104 115 1
42 48 104 am
43 3 48 1
44 128 115 1
45 19 3 1
46 1 18 1
47 74 1 1
48 111 74 am
49 48 18 1
50 104 111 am
51 101 45 am
52 12 101 am
53 111 45 am
54 74 95 am
55 60 6 1
56 7 60 1
57 113 7 1
58 95 6 1
59 12 113 1
60 57 5 1
61 101 87 am
62 113 5 1
63 64 4 am
64 22 64 am
65 98 22 am
66 87 4 am
67 57 98 am
68 43 8 1
69 8 37 1
70 47 105 1
71 82 126 1
72 76 117 1
73 119 73 1
74 10 36 1
75 109 96 1
76 31 116 1
77 78 21 1
78 75 124 1
79 120 70 1
80 3 66 2
81 115 86 2
82 98 9 1
83 22 32 1
84 2 65 1
85 2 89 1
86 125 110 1
87 125 46 1
88 26 99 1
89 29 129 1
90 78 33 1
91 31 103 1
92 130 79 1
93 130 13 1
94 18 53 1
95 18 67 1
96 1 40 1
97 1 24 1
98 6 44 1
99 6 41 1
100 60 50 1
101 60 42 1
102 7 100 1
103 113 11 1
104 5 68 1
105 5 52 1
106 4 71 1
107 64 84 1
108 8 97 1
109 8 56 1
110 37 77 1
111 37 38 1
112 37 122 1
113 105 127 1
114 105 54 1
115 105 108 1
116 126 58 1
117 126 114 1
118 126 121 1
119 117 93 1
120 117 92 1
121 117 49 1
122 73 112 1
123 73 51 1
124 73 80 1
125 36 90 1
126 36 16 1
127 36 91 1
128 96 62 1
129 116 14 1
130 116 118 1
131 116 28 1
132 21 25 1
133 21 81 1
134 21 23 1
135 124 123 1
136 70 107 1
137 9 94 1
138 9 63 1
139 9 30 1
140 32 39 1
141 32 88 1
142 32 15 1
@<TRIPOS>MOLECULE
Sketch 4
130 142
SMALL
USER_CHARGES


@<TRIPOS>ATOM
1 C4172 47.8692 3.01373 26.306 C.ar 0.0 **** 0.0
2 C4169 45.7388 1.8033 26.0558 C.ar 0.0 **** 0.0
3 C4188 43.7894 6.13385 32.4973 C.ar 0.0 **** 0.052
4 H4265 41.424 2.02765 28.8897 H 0.0 **** 0.053
5 C4203 39.0595 8.18622 38.1495 C.3 0.0 **** -0.106
6 C4168 45.1475 2.56397 27.0396 C.ar 0.0 **** 0.0
7 C4182 45.4421 5.94682 30.6483 C.ar 0.0 **** 0.0
8 C4177 47.3069 5.63048 29.0289 C.ar 0.0 **** 0.0
9 H4249 39.2063 10.2955 40.9176 H 0.0 **** 0.053
10 H4280 47.0908 11.6724 30.0106 H 0.0 **** 0.053
11 O4224 46.4331 8.58185 33.0315 O.3 0.0 **** -0.452
12 C4167 43.7042 2.39863 27.4151 C.3 0.0 **** -0.106
13 C4185 48.6261 9.02936 28.2388 C.ar 0.0 **** -0.053
14 O4221 49.3469 4.79126 28.0402 O.3 0.0 **** -0.452
15 H4268 43.2433 -0.45022 22.6738 H 0.0 **** 0.053
16 H4236 48.7699 9.07436 30.9841 H 0.0 **** 0.053
17 C4173 47.2864 3.77488 27.3775 C.ar 0.0 **** 0.0
18 H4281 47.7967 11.7351 28.3765 H 0.0 **** 0.053
19 H4245 38.422 8.77944 37.4693 H 0.0 **** 0.053
20 C4196 40.0981 6.96962 35.6162 C.3 0.0 **** -0.106
21 C4201 41.3849 9.1339 38.488 C.ar 0.0 **** 0.0
22 H4247 39.1921 7.84011 40.2822 H 0.0 **** 0.053
23 C4205 39.464 9.94311 39.9062 C.3 0.0 **** -0.106
24 N4199 43.1858 8.6611 36.9539 N.ar 0.0 **** -0.481
25 C4166 40.6874 0.572556 26.0187 C.ar 0.0 **** 0.0
26 H4230 43.2325 3.39676 27.4264 H 0.0 **** 0.053
27 C4187 44.239 5.50469 31.3118 C.ar 0.0 **** 0.042
28 H4288 46.2937 13.7306 40.6679 H 0.0 **** 0.053
29 H4244 39.7223 7.63229 34.8137 H 0.0 **** 0.053
30 H4231 43.64 2.0676 28.47 H 0.0 **** 0.053
31 H4256 39.0088 0.478521 27.364 H 0.0 **** 0.053
32 C4178 47.9742 4.75001 28.1412 C.ar 0.0 **** 0.042
33 C4210 45.0467 10.0006 38.5865 C.ar 0.0 **** -0.1268
34 H4233 45.1343 0.901571 24.2216 H 0.0 **** 0.053
35 H4285 42.7041 13.5132 40.9064 H 0.0 **** 0.053
36 H4252 41.2772 11.8576 39.1795 H 0.0 **** 0.053
37 H4278 50.6017 9.18911 27.3447 H 0.0 **** 0.053
38 H4290 46.3683 12.5711 42.0033 H 0.0 **** 0.053
39 C4190 45.7011 7.64552 32.4406 C.ar 0.0 **** 0.042
40 C4214 39.1996 0.468871 26.2808 C.3 0.0 **** -0.106
41 C4228 43.5217 12.9414 41.3714 C.3 0.0 **** -0.159
42 H4282 48.8447 11.4777 29.7905 H 0.0 **** 0.053
43 C4212 45.4573 11.784 40.1966 C.ar 0.0 **** 0.0
44 C4174 45.9125 3.54627 27.7409 C.ar 0.0 **** 0.0
45 H4248 37.7052 8.6577 39.7736 H 0.0 **** 0.053
46 H4279 50.4782 9.92583 28.9584 H 0.0 **** 0.053
47 H4243 39.2148 6.57938 36.1367 H 0.0 **** 0.053
48 H4255 46.9963 10.7513 39.0996 H 0.0 **** 0.1268
49 C4197 40.9785 7.76479 36.5431 C.ar 0.0 **** 0.0
50 C4161 41.2654 -0.149316 24.9513 C.ar 0.0 **** 0.0
51 H4262 39.3967 -0.513275 23.9038 H 0.0 **** 0.053
52 C4165 41.4952 1.40749 26.8117 C.ar 0.0 **** 0.0
53 H4240 49.3161 7.03349 27.8377 H 0.0 **** 0.053
54 H4234 44.3422 3.96072 29.141 H 0.0 **** 0.1268
55 C4217 40.9307 2.25212 27.9297 C.3 0.0 **** -0.159
56 C4176 45.987 5.26671 29.4885 C.ar 0.0 **** 0.0
57 H4232 45.3782 -0.232981 25.522 H 0.0 **** 0.053
58 C4211 45.9216 10.8293 39.2779 C.ar 0.0 **** -0.1268
59 C4223 47.8621 11.2391 29.3567 C.3 0.0 **** -0.159
60 H4241 40.2874 5.27149 34.2495 H 0.0 **** 0.053
61 O4225 43.5151 4.49415 30.8374 O.3 0.0 **** -0.452
62 C4186 48.9723 7.5916 28.7137 C.3 0.0 **** -0.106
63 C4194 42.5869 5.67039 33.1327 C.2 0.0 **** 0.367
64 H4273 49.3888 4.44032 25.7408 H 0.0 **** 0.053
65 C4216 40.3906 -0.964213 24.0222 C.3 0.0 **** -0.159
66 C4200 42.7216 9.26297 38.0542 C.ar 0.0 **** 0.2405
67 H4259 38.737 2.58171 25.9959 H 0.0 **** 0.053
68 H4274 49.3492 2.98741 24.7285 H 0.0 **** 0.053
69 C4184 47.6612 9.72692 29.2321 C.ar 0.0 **** -0.053
70 C4215 38.4104 1.60447 25.6102 C.3 0.0 **** -0.159
71 H4275 50.0496 2.93172 26.3645 H 0.0 **** 0.053
72 H4283 45.8509 8.84651 33.8884 H 0.0 **** 0.41
73 O4227 44.7694 8.80382 34.7759 O.2 0.0 **** -0.419
74 C4171 47.1157 2.01095 25.7042 C.ar 0.0 **** 0.0
75 C4175 45.3307 4.23865 28.8137 C.ar 0.0 **** -0.1268
76 H4258 38.5852 1.60502 24.5234 H 0.0 **** 0.053
77 C4170 44.9506 0.764728 25.3008 C.3 0.0 **** -0.106
78 H4270 48.7989 0.979675 24.7993 H 0.0 **** 0.053
79 C4202 40.5022 8.35671 37.7244 C.ar 0.0 **** 0.0
80 C4204 38.7905 8.60668 39.5985 C.3 0.0 **** -0.106
81 C4229 46.4521 12.6665 40.9089 C.3 0.0 **** -0.159
82 H4254 45.4039 9.28284 37.8481 H 0.0 **** 0.1268
83 C4183 47.7287 9.04393 30.6128 C.3 0.0 **** -0.106
84 H4271 47.6118 1.5851 23.6272 H 0.0 **** 0.053
85 H4237 46.6357 9.55907 28.8637 H 0.0 **** 0.053
86 H4284 42.7099 4.39333 31.5249 H 0.0 **** 0.41
87 C4193 42.1414 6.32768 34.3524 C.ar 0.0 **** 0.0
88 C4163 43.4625 0.717528 25.5463 C.ar 0.0 **** 0.0
89 H4239 49.8328 7.6817 29.4049 H 0.0 **** 0.053
90 C4207 41.6896 11.1548 39.9295 C.3 0.0 **** -0.106
91 C4208 43.1826 11.0443 39.7439 C.ar 0.0 **** 0.0
92 H4264 41.1119 3.32276 27.7384 H 0.0 **** 0.053
93 H4263 40.2406 -1.9917 24.3977 H 0.0 **** 0.053
94 C4195 40.8821 5.81889 34.9916 C.3 0.0 **** -0.106
95 H4289 47.4789 12.4048 40.6199 H 0.0 **** 0.053
96 C4189 44.5221 7.19788 33.0728 C.ar 0.0 **** 0.052
97 C4209 43.6679 10.0976 38.8176 C.ar 0.0 **** 0.0
98 H4286 44.2918 13.6535 41.6893 H 0.0 **** 0.053
99 H4257 38.8204 -0.499307 25.9262 H 0.0 **** 0.053
100 H4276 49.6888 5.30723 28.7875 H 0.0 **** 0.41
101 C4218 43.2819 -0.956642 23.6546 C.3 0.0 **** -0.159
102 C4206 40.9809 9.80744 39.779 C.3 0.0 **** -0.053
103 H4269 42.7605 -1.91675 23.5421 H 0.0 **** 0.053
104 C4181 46.1354 7.07138 31.1846 C.ar 0.0 **** 0.0
105 C4198 42.3398 7.94906 36.1961 C.ar 0.0 **** 0.2405
106 H4266 39.852 2.12282 28.0644 H 0.0 **** 0.053
107 H4287 43.1053 12.4742 42.2802 H 0.0 **** 0.053
108 C4220 49.2358 3.35472 25.7548 C.3 0.0 **** -0.159
109 H4250 39.1114 10.7095 39.1936 H 0.0 **** 0.053
110 H4235 47.126 9.60337 31.3287 H 0.0 **** 0.053
111 C4192 42.8496 7.35696 34.9405 C.ar 0.0 **** 0.0
112 H4238 48.1106 8.94003 27.2695 H 0.0 **** 0.053
113 C4179 47.847 6.893 29.4413 C.2 0.0 **** 0.0
114 H4253 41.4431 11.5744 40.9147 H 0.0 **** 0.053
115 C4191 44.0901 7.84064 34.2988 C.2 0.0 **** 0.367
116 O4226 41.911 4.68971 32.6544 O.2 0.0 **** -0.419
117 C4180 47.251 7.61795 30.4646 C.2 0.0 **** 0.0
118 C4219 47.7263 1.13799 24.6305 C.3 0.0 **** -0.159
119 H4272 47.2504 0.150281 24.5969 H 0.0 **** 0.053
120 C4164 42.8797 1.48255 26.5592 C.ar 0.0 **** 0.0
121 C4162 42.6562 -0.111294 24.7412 C.ar 0.0 **** 0.0
122 C4213 44.0694 11.901 40.4221 C.ar 0.0 **** 0.0
123 H4242 41.1586 5.09056 35.7771 H 0.0 **** 0.053
124 H4251 41.3364 9.15884 40.6051 H 0.0 **** 0.053
125 H4277 49.7861 10.759 27.5457 H 0.0 **** 0.053
126 H4267 44.3362 -1.17759 23.8623 H 0.0 **** 0.053
127 H4260 37.3284 1.50387 25.7884 H 0.0 **** 0.053
128 H4261 40.8335 -1.04472 23.0214 H 0.0 **** 0.053
129 C4222 49.9446 9.77423 28.0064 C.3 0.0 **** -0.159
130 H4246 38.7507 7.13899 38.0074 H 0.0 **** 0.053
@<TRIPOS>BOND
1 62 89 1
2 88 121 am
3 120 88 am
4 52 120 am
5 25 52 am
6 50 121 am
7 50 25 am
8 6 12 1
9 2 6 am
10 77 2 1
11 120 12 1
12 88 77 1
13 1 74 am
14 17 1 am
15 44 17 am
16 2 74 am
17 6 44 am
18 56 75 am
19 8 56 am
20 32 8 am
21 44 75 am
22 17 32 am
23 117 113 1
24 104 117 1
25 7 104 am
26 8 113 1
27 56 7 am
28 69 83 1
29 13 69 am
30 62 13 1
31 117 83 1
32 113 62 1
33 3 27 am
34 96 3 am
35 39 96 am
36 7 27 am
37 104 39 am
38 111 115 1
39 87 111 am
40 63 87 1
41 96 115 1
42 3 63 1
43 20 94 1
44 49 20 1
45 105 49 am
46 87 94 1
47 111 105 am
48 66 24 am
49 21 66 am
50 79 21 am
51 105 24 am
52 49 79 am
53 80 5 1
54 23 80 1
55 102 23 1
56 79 5 1
57 21 102 1
58 91 90 1
59 97 91 am
60 66 97 am
61 102 90 1
62 58 33 am
63 43 58 am
64 122 43 am
65 97 33 am
66 91 122 am
67 25 40 1
68 40 70 1
69 50 65 1
70 52 55 1
71 121 101 1
72 74 118 1
73 1 108 1
74 32 14 1
75 13 129 1
76 69 59 1
77 39 11 1
78 27 61 1
79 63 116 2
80 115 73 2
81 122 41 1
82 43 81 1
83 12 26 1
84 12 30 1
85 77 57 1
86 77 34 1
87 75 54 1
88 83 110 1
89 83 16 1
90 69 85 1
91 13 112 1
92 62 53 1
93 94 60 1
94 94 123 1
95 20 47 1
96 20 29 1
97 5 19 1
98 5 130 1
99 80 22 1
100 80 45 1
101 23 9 1
102 23 109 1
103 102 124 1
104 90 36 1
105 90 114 1
106 33 82 1
107 58 48 1
108 40 31 1
109 40 99 1
110 70 76 1
111 70 67 1
112 70 127 1
113 65 128 1
114 65 51 1
115 65 93 1
116 55 92 1
117 55 4 1
118 55 106 1
119 101 126 1
120 101 15 1
121 101 103 1
122 118 78 1
123 118 84 1
124 118 119 1
125 108 64 1
126 108 68 1
127 108 71 1
128 14 100 1
129 129 125 1
130 129 37 1
131 129 46 1
132 59 10 1
133 59 18 1
134 59 42 1
135 11 72 1
136 61 86 1
137 41 35 1
138 41 98 1
139 41 107 1
140 81 28 1
141 81 95 1
142 81 38 1
@<TRIPOS>MOLECULE
Sketch 4
130 142
SMALL
USER_CHARGES


@<TRIPOS>ATOM
1 H1275 42.1521 9.70881 61.5499 H 0.0 **** 0.053
2 H1244 43.4368 12.6638 62.9403 H 0.0 **** 0.1268
3 C1183 45.4872 15.0551 61.5657 C.ar 0.0 **** 0.0
4 C1207 40.2719 10.0758 70.9317 C.ar 0.0 **** 0.0
5 C1194 42.8413 18.5242 66.0346 C.ar 0.0 **** -0.053
6 H1266 40.7656 7.85742 59.2672 H 0.0 **** 0.053
7 H1289 44.9067 20.4668 66.1371 H 0.0 **** 0.053
8 H1291 41.6246 20.3295 66.2438 H 0.0 **** 0.053
9 C1192 43.5273 14.0293 65.297 C.ar 0.0 **** 0.0
10 C1232 44.3553 20.4481 65.1834 C.3 0.0 **** -0.159
11 H1257 39.6456 7.46531 74.0894 H 0.0 **** 0.053
12 C1230 46.9109 16.6306 60.1161 C.3 0.0 **** -0.159
13 H1279 44.2443 10.1116 55.1155 H 0.0 **** 0.053
14 C1215 38.5911 9.21298 74.7761 C.3 0.0 **** -0.106
15 C1176 41.7458 9.50074 58.2797 C.ar 0.0 **** 0.0
16 H1299 43.7315 15.39 77.2717 H 0.0 **** 0.053
17 H1268 39.1582 9.57314 57.2697 H 0.0 **** 0.053
18 H1278 43.6064 11.7639 55.0886 H 0.0 **** 0.053
19 C1178 44.3951 13.0941 60.5089 C.ar 0.0 **** 0.0
20 C1197 42.9689 12.7254 65.5641 C.ar 0.0 **** 0.042
21 H1263 39.4689 11.0779 76.6054 H 0.0 **** 0.053
22 H1256 39.1819 7.69192 71.7241 H 0.0 **** 0.053
23 H1284 46.9787 16.8859 59.0525 H 0.0 **** 0.053
24 H1251 40.6167 8.94637 67.682 H 0.0 **** 0.053
25 C1189 44.6348 16.6271 64.8971 C.2 0.0 **** 0.0
26 H1260 37.7191 9.82319 74.4815 H 0.0 **** 0.053
27 O1234 43.3608 15.3967 68.7186 O.3 0.0 **** -0.452
28 H1258 37.8889 7.34247 73.8978 H 0.0 **** 0.053
29 C1210 41.1497 11.4953 73.1182 C.ar 0.0 **** 0.2405
30 C1219 41.6015 12.3045 74.2653 C.ar 0.0 **** 0.0
31 H1269 39.0569 9.70027 59.0357 H 0.0 **** 0.053
32 H1252 41.7527 8.69785 69.0135 H 0.0 **** 0.053
33 C1173 43.7639 11.466 58.1788 C.ar 0.0 **** 0.0
34 C1196 44.9723 18.0852 64.688 C.3 0.0 **** -0.106
35 C1200 43.1753 14.5739 67.6937 C.ar 0.0 **** 0.042
36 H1300 43.0643 14.248 78.4656 H 0.0 **** 0.053
37 C1216 39.8447 10.086 74.7345 C.3 0.0 **** -0.053
38 C1233 42.1757 19.6162 66.8754 C.3 0.0 **** -0.159
39 C1229 46.7106 14.7003 57.9503 C.3 0.0 **** -0.159
40 C1179 45.0742 13.3519 59.3391 C.ar 0.0 **** 0.0
41 C1174 43.0955 11.2039 59.3768 C.ar 0.0 **** 0.0
42 H1248 43.2037 19.0949 63.9814 H 0.0 **** 0.053
43 C1195 43.7797 19.0531 64.9193 C.ar 0.0 **** -0.053
44 H1271 42.1043 9.76641 54.9001 H 0.0 **** 0.053
45 C1218 40.8888 12.2608 75.4818 C.ar 0.0 **** 0.0
46 C1198 42.5216 12.3779 66.8613 C.ar 0.0 **** 0.052
47 H1298 42.0522 15.556 77.8348 H 0.0 **** 0.053
48 H1240 42.4897 12.344 61.0721 H 0.0 **** 0.053
49 C1199 42.6322 13.2941 67.9329 C.ar 0.0 **** 0.052
50 H1282 46.8822 13.7597 57.4127 H 0.0 **** 0.053
51 H1265 43.941 14.6261 75.1151 H 0.0 **** 0.1268
52 C1202 41.6308 11.604 69.4986 C.ar 0.0 **** 0.0
53 C1185 43.9924 13.5848 62.8717 C.ar 0.0 **** -0.1268
54 H1253 39.4482 8.38638 69.86 H 0.0 **** 0.053
55 H1280 47.6901 15.1654 58.1185 H 0.0 **** 0.053
56 C1188 45.6544 15.8042 62.7565 C.ar 0.0 **** 0.042
57 H1247 42.0387 17.9513 65.5417 H 0.0 **** 0.053
58 H1250 45.3646 18.2859 63.6864 H 0.0 **** 0.053
59 C1180 44.8651 12.4959 58.1171 C.3 0.0 **** -0.106
60 H1242 45.8173 11.9828 57.878 H 0.0 **** 0.053
61 H1287 43.5707 21.2158 65.2301 H 0.0 **** 0.053
62 C1221 43.0827 13.9578 75.2134 C.ar 0.0 **** -0.1268
63 H1270 38.4993 8.2125 58.2206 H 0.0 **** 0.053
64 C1223 41.2618 13.0855 76.5593 C.ar 0.0 **** 0.0
65 H1293 42.9404 14.8623 69.5437 H 0.0 **** 0.41
66 H1264 43.2242 13.2069 73.1836 H 0.0 **** 0.1268
67 O1231 46.6995 16.6994 62.8086 O.3 0.0 **** -0.452
68 H1254 38.9616 9.96651 69.2412 H 0.0 **** 0.053
69 H1274 40.9159 10.8879 61.1237 H 0.0 **** 0.053
70 C1203 41.5172 10.7313 68.4345 C.ar 0.0 **** 0.0
71 H1259 38.4135 8.8672 75.8068 H 0.0 **** 0.053
72 C1228 44.1421 11.0272 55.7133 C.3 0.0 **** -0.159
73 C1175 42.094 10.2144 59.4407 C.ar 0.0 **** 0.0
74 C1190 43.9809 16.3256 66.0842 C.2 0.0 **** 0.0
75 H1276 40.6645 9.18001 60.7321 H 0.0 **** 0.053
76 C1177 43.4253 11.9559 60.6328 C.3 0.0 **** -0.106
77 C1239 42.8323 14.8279 77.558 C.3 0.0 **** -0.159
78 C1222 42.3804 13.9355 76.4289 C.ar 0.0 **** 0.0
79 C1217 39.6813 11.3603 75.565 C.3 0.0 **** -0.106
80 H1272 40.8599 8.88875 55.7981 H 0.0 **** 0.053
81 C1211 40.2572 10.4208 73.3198 C.ar 0.0 **** 0.0
82 N1209 41.6123 11.8338 71.91 N.ar 0.0 **** -0.481
83 C1224 40.6805 8.42573 58.3293 C.3 0.0 **** -0.106
84 C1204 41.9695 11.0719 67.0937 C.2 0.0 **** 0.367
85 C1226 41.9307 9.12974 55.7769 C.3 0.0 **** -0.159
86 H1296 40.733 13.8678 78.5177 H 0.0 **** 0.053
87 H1295 39.3753 13.152 77.6244 H 0.0 **** 0.053
88 H1255 37.8747 8.83447 71.9972 H 0.0 **** 0.053
89 C1186 44.0847 14.3885 64.0067 C.ar 0.0 **** 0.0
90 C1206 39.8137 9.40229 69.6656 C.3 0.0 **** -0.106
91 H1245 42.9545 17.2283 67.7682 H 0.0 **** 0.053
92 C1205 40.9464 9.35896 68.6439 C.3 0.0 **** -0.106
93 C1171 42.3738 9.81233 57.0537 C.ar 0.0 **** 0.0
94 H1273 42.4752 8.18415 55.6082 H 0.0 **** 0.053
95 H1283 46.4167 17.4638 60.6296 H 0.0 **** 0.053
96 H1286 46.8472 16.9367 63.7378 H 0.0 **** 0.41
97 C1193 43.589 17.5154 66.9294 C.3 0.0 **** -0.106
98 O1237 42.3033 13.8068 70.2066 O.2 0.0 **** -0.419
99 C1212 39.8235 9.68875 72.2053 C.ar 0.0 **** 0.0
100 H1288 45.0598 20.7275 64.3849 H 0.0 **** 0.053
101 H1290 41.4643 19.1688 67.5854 H 0.0 **** 0.053
102 C1214 38.7411 8.03398 73.816 C.3 0.0 **** -0.106
103 C1172 43.4108 10.7625 57.0102 C.ar 0.0 **** 0.0
104 C1187 44.8258 15.6228 63.8918 C.ar 0.0 **** 0.0
105 C1238 40.4517 13.058 77.8347 C.3 0.0 **** -0.159
106 C1220 42.7004 13.1649 74.1386 C.ar 0.0 **** -0.1268
107 C1227 41.4187 9.9726 60.7702 C.3 0.0 **** -0.159
108 H1249 45.7599 18.3693 65.4128 H 0.0 **** 0.053
109 C1191 43.5636 14.9794 66.3594 C.ar 0.0 **** 0.0
110 O1235 42.8577 11.8077 64.6071 O.3 0.0 **** -0.452
111 C1201 42.2003 12.9492 69.2736 C.2 0.0 **** 0.367
112 H1261 40.6779 9.50908 75.1844 H 0.0 **** 0.053
113 H1294 42.4284 10.9638 65.0915 H 0.0 **** 0.41
114 C1225 39.2625 9.00602 58.2073 C.3 0.0 **** -0.159
115 H1281 46.143 15.3607 57.2712 H 0.0 **** 0.053
116 C1213 38.8681 8.52635 72.3703 C.3 0.0 **** -0.106
117 H1277 45.1511 11.4224 55.8843 H 0.0 **** 0.053
118 O1236 41.8787 10.2049 66.1516 O.2 0.0 **** -0.419
119 H1262 38.7894 11.9074 75.2023 H 0.0 **** 0.053
120 H1285 47.9326 16.5736 60.5232 H 0.0 **** 0.053
121 H1241 43.7968 11.2449 61.3963 H 0.0 **** 0.053
122 C1208 41.1722 11.1654 70.8345 C.ar 0.0 **** 0.2405
123 C1181 45.9728 14.4688 59.2503 C.ar 0.0 **** 0.0
124 H1246 44.4824 18.0034 67.3614 H 0.0 **** 0.053
125 H1297 40.5876 12.1053 78.3747 H 0.0 **** 0.053
126 H1292 42.9189 20.1836 67.4553 H 0.0 **** 0.053
127 H1267 40.8461 7.69283 57.5278 H 0.0 **** 0.053
128 C1184 44.6056 13.9209 61.6552 C.ar 0.0 **** 0.0
129 C1182 46.1404 15.3448 60.318 C.ar 0.0 **** 0.0
130 H1243 44.6926 13.1574 57.2513 H 0.0 **** 0.053
@<TRIPOS>BOND
1 33 103 am
2 41 33 am
3 73 41 am
4 15 73 am
5 93 103 am
6 93 15 am
7 19 76 1
8 40 19 am
9 59 40 1
10 41 76 1
11 33 59 1
12 129 123 am
13 3 129 am
14 128 3 am
15 40 123 am
16 19 128 am
17 89 53 am
18 104 89 am
19 56 104 am
20 128 53 am
21 3 56 am
22 74 25 1
23 109 74 1
24 9 109 am
25 104 25 1
26 89 9 am
27 5 97 1
28 43 5 am
29 34 43 1
30 74 97 1
31 25 34 1
32 46 20 am
33 49 46 am
34 35 49 am
35 9 20 am
36 109 35 am
37 52 111 1
38 70 52 am
39 84 70 1
40 49 111 1
41 46 84 1
42 90 92 1
43 4 90 1
44 122 4 am
45 70 92 1
46 52 122 am
47 29 82 am
48 81 29 am
49 99 81 am
50 122 82 am
51 4 99 am
52 102 116 1
53 14 102 1
54 37 14 1
55 99 116 1
56 81 37 1
57 45 79 1
58 30 45 am
59 29 30 am
60 37 79 1
61 62 106 am
62 78 62 am
63 64 78 am
64 30 106 am
65 45 64 am
66 15 83 1
67 83 114 1
68 93 85 1
69 73 107 1
70 103 72 1
71 123 39 1
72 129 12 1
73 56 67 1
74 43 10 1
75 5 38 1
76 35 27 1
77 20 110 1
78 84 118 2
79 111 98 2
80 64 105 1
81 78 77 1
82 76 48 1
83 76 121 1
84 59 60 1
85 59 130 1
86 53 2 1
87 97 91 1
88 97 124 1
89 5 57 1
90 43 42 1
91 34 108 1
92 34 58 1
93 92 24 1
94 92 32 1
95 90 54 1
96 90 68 1
97 116 88 1
98 116 22 1
99 102 11 1
100 102 28 1
101 14 71 1
102 14 26 1
103 37 112 1
104 79 119 1
105 79 21 1
106 106 66 1
107 62 51 1
108 83 6 1
109 83 127 1
110 114 17 1
111 114 31 1
112 114 63 1
113 85 44 1
114 85 80 1
115 85 94 1
116 107 69 1
117 107 1 1
118 107 75 1
119 72 117 1
120 72 18 1
121 72 13 1
122 39 55 1
123 39 115 1
124 39 50 1
125 12 95 1
126 12 23 1
127 12 120 1
128 67 96 1
129 10 61 1
130 10 100 1
131 10 7 1
132 38 101 1
133 38 8 1
134 38 126 1
135 27 65 1
136 110 113 1
137 105 87 1
138 105 86 1
139 105 125 1
140 77 47 1
141 77 16 1
142 77 36 1
@<TRIPOS>MOLECULE
Sketch 4
130 142
SMALL
USER_CHARGES


@<TRIPOS>ATOM
1 C6415 59.6822 6.5043 41.151 C.3 0.0 **** -0.106
2 H6475 64.957 19.0224 39.325 H 0.0 **** 0.053
3 H6443 64.8962 23.9282 35.7536 H 0.0 **** 0.053
4 C6376 67.3118 21.3117 38.9834 C.ar 0.0 **** 0.0
5 H6467 68.8536 21.3484 40.4884 H 0.0 **** 0.053
6 C6382 61.4385 22.4324 34.307 C.ar 0.0 **** 0.0
7 C6396 59.0495 18.2732 32.079 C.3 0.0 **** -0.106
8 C6419 57.0262 8.7639 38.5585 C.ar 0.0 **** 0.0
9 H6454 62.6201 11.0335 39.6692 H 0.0 **** 0.053
10 C6403 61.0032 13.2601 39.2278 C.ar 0.0 **** 0.0
11 C6389 59.4992 17.9127 33.4759 C.2 0.0 **** 0.0
12 C6407 60.5664 10.5419 40.0259 C.ar 0.0 **** 0.0
13 H6478 67.3513 24.9405 36.6177 H 0.0 **** 0.053
14 H6500 52.9175 6.39855 37.5177 H 0.0 **** 0.053
15 C6379 63.2863 22.5428 35.9318 C.ar 0.0 **** 0.0
16 H6485 59.6805 23.3877 33.4346 H 0.0 **** 0.053
17 H6488 58.5863 18.5379 29.4719 H 0.0 **** 0.053
18 C6397 61.2166 16.385 37.1037 C.ar 0.0 **** 0.042
19 C6424 68.3278 20.6139 39.8632 C.3 0.0 **** -0.106
20 C6388 60.215 20.2263 34.1346 C.ar 0.0 **** 0.042
21 H6498 53.7842 6.23978 35.9826 H 0.0 **** 0.053
22 H6447 60.7859 15.7662 31.8495 H 0.0 **** 0.053
23 C6425 69.3519 19.8115 39.045 C.3 0.0 **** -0.159
24 C6398 60.8396 15.0987 37.5581 C.ar 0.0 **** 0.052
25 C6372 66.5452 23.3332 37.8426 C.ar 0.0 **** 0.0
26 H6473 68.6816 23.8605 39.9982 H 0.0 **** 0.053
27 H6458 61.1651 6.76414 42.7312 H 0.0 **** 0.053
28 O6435 62.0885 17.0683 37.8407 O.3 0.0 **** -0.452
29 H6474 65.8973 18.5649 37.9084 H 0.0 **** 0.053
30 H6460 60.3906 6.17909 40.3687 H 0.0 **** 0.053
31 C6427 65.9331 19.165 38.8327 C.3 0.0 **** -0.159
32 H6453 62.2199 10.8739 41.3812 H 0.0 **** 0.053
33 H6495 56.4764 4.74398 37.8543 H 0.0 **** 0.053
34 C6383 61.2355 21.0545 34.6638 C.ar 0.0 **** 0.0
35 H6449 57.9452 18.202 32.0379 H 0.0 **** 0.053
36 C6421 54.9566 8.94176 37.329 C.ar 0.0 **** -0.1268
37 C6404 61.4047 14.5836 38.7746 C.2 0.0 **** 0.367
38 C6391 59.7818 16.1184 35.1195 C.ar 0.0 **** 0.0
39 H6457 59.686 7.71848 42.9296 H 0.0 **** 0.053
40 H6499 52.8892 7.73519 36.3398 H 0.0 **** 0.053
41 H6481 63.2966 24.8029 33.8472 H 0.0 **** 0.053
42 C6381 62.4119 23.1659 34.9779 C.ar 0.0 **** 0.0
43 C6410 58.2494 9.37972 39.1057 C.ar 0.0 **** 0.2405
44 C6378 63.1437 21.2088 36.2417 C.ar 0.0 **** 0.0
45 H6442 63.917 24.1596 37.1767 H 0.0 **** 0.053
46 H6480 61.6458 25.1188 34.4171 H 0.0 **** 0.053
47 C6390 59.3365 16.5815 33.8353 C.2 0.0 **** 0.0
48 H6486 58.459 20.2021 33.3704 H 0.0 **** 0.41
49 C6418 56.8334 7.37033 38.6609 C.ar 0.0 **** 0.0
50 H6476 66.7041 18.7282 39.4756 H 0.0 **** 0.053
51 C6423 55.7091 6.75894 38.0755 C.ar 0.0 **** 0.0
52 C6405 61.6112 12.7519 40.5026 C.3 0.0 **** -0.106
53 H6482 63.001 25.1734 35.5516 H 0.0 **** 0.053
54 H6445 58.8875 14.6179 33.031 H 0.0 **** 0.053
55 C6386 60.9549 18.2812 35.4385 C.ar 0.0 **** 0.0
56 H6472 69.6376 22.6902 39.0717 H 0.0 **** 0.053
57 C6393 58.8551 15.6662 32.7334 C.3 0.0 **** -0.106
58 C6400 59.3499 14.8408 35.6456 C.ar 0.0 **** 0.042
59 C6433 59.4993 14.7989 30.4428 C.3 0.0 **** -0.159
60 H6466 67.8146 19.9437 40.5685 H 0.0 **** 0.053
61 O6437 58.6445 12.3462 36.6166 O.2 0.0 **** -0.419
62 H6452 60.918 12.9779 41.3347 H 0.0 **** 0.053
63 C6384 62.1005 20.4417 35.6374 C.ar 0.0 **** 0.0
64 H6487 59.0933 16.9396 28.8729 H 0.0 **** 0.053
65 H6484 61.236 23.9284 32.7577 H 0.0 **** 0.053
66 H6489 57.6883 17.0817 29.9568 H 0.0 **** 0.053
67 C6401 59.4824 13.0153 37.2999 C.2 0.0 **** 0.367
68 C6430 60.6933 23.0612 33.1507 C.3 0.0 **** -0.159
69 C6429 62.5954 24.6382 34.6843 C.3 0.0 **** -0.159
70 C6408 59.7018 11.1728 39.0977 C.ar 0.0 **** 0.2405
71 H6496 54.7408 4.89606 37.5109 H 0.0 **** 0.053
72 C6420 56.0792 9.5449 37.8823 C.ar 0.0 **** -0.1268
73 C6417 57.8983 6.55534 39.3519 C.3 0.0 **** -0.106
74 H6468 69.8798 20.4694 38.3377 H 0.0 **** 0.053
75 C6385 61.8964 19.1136 36.0416 C.ar 0.0 **** -0.1268
76 O6436 62.2408 15.2676 39.4677 O.2 0.0 **** -0.419
77 C6399 59.8982 14.3259 36.8391 C.ar 0.0 **** 0.052
78 H6455 62.0097 8.21832 40.9961 H 0.0 **** 0.053
79 H6459 59.2629 5.59465 41.6093 H 0.0 **** 0.053
80 H6492 58.4549 14.8098 30.0969 H 0.0 **** 0.053
81 N6409 58.5624 10.6067 38.6755 N.ar 0.0 **** -0.481
82 H6462 58.6774 6.27113 38.6178 H 0.0 **** 0.053
83 H6464 56.256 10.6163 37.7885 H 0.0 **** 0.1268
84 O6431 59.1919 20.8341 33.4418 O.3 0.0 **** -0.452
85 C6416 58.5628 7.31635 40.5006 C.3 0.0 **** -0.053
86 C6402 60.0738 12.4955 38.5507 C.ar 0.0 **** 0.0
87 C6375 66.1799 20.6209 38.5144 C.ar 0.0 **** 0.0
88 H6463 57.4855 5.61554 39.7441 H 0.0 **** 0.053
89 H6461 57.7816 7.4961 41.2666 H 0.0 **** 0.053
90 C6438 55.5507 5.25811 38.1546 C.3 0.0 **** -0.159
91 C6432 58.6948 17.4768 29.7446 C.3 0.0 **** -0.159
92 H6465 54.2174 9.5513 36.8047 H 0.0 **** 0.1268
93 C6411 59.0409 8.67235 40.0356 C.ar 0.0 **** 0.0
94 H6477 65.7661 25.2964 37.3221 H 0.0 **** 0.053
95 O6434 58.4009 14.1525 35.0234 O.3 0.0 **** -0.452
96 H6440 64.4123 19.5802 36.7408 H 0.0 **** 0.053
97 H6448 60.6031 17.7006 30.6987 H 0.0 **** 0.053
98 H6450 59.3198 19.2966 31.8019 H 0.0 **** 0.053
99 C6395 59.601 17.334 30.9716 C.ar 0.0 **** -0.053
100 H6471 69.0479 24.1623 38.2902 H 0.0 **** 0.053
101 H6497 55.327 4.93317 39.1851 H 0.0 **** 0.053
102 H6483 60.5711 22.343 32.3313 H 0.0 **** 0.053
103 C6426 68.7839 23.3776 39.0105 C.3 0.0 **** -0.159
104 C6439 53.5211 6.9527 36.7812 C.3 0.0 **** -0.159
105 C6414 60.4152 7.35674 42.1856 C.3 0.0 **** -0.106
106 H6451 62.5409 13.2966 40.7101 H 0.0 **** 0.053
107 C6387 60.1903 18.8243 34.3403 C.ar 0.0 **** 0.0
108 C6392 60.6684 16.931 35.8852 C.ar 0.0 **** 0.0
109 C6377 64.0556 20.5139 37.2098 C.3 0.0 **** -0.106
110 H6444 62.4795 18.72 36.858 H 0.0 **** 0.1268
111 C6422 54.7517 7.55534 37.4122 C.ar 0.0 **** 0.0
112 C6380 64.3813 23.3699 36.5538 C.3 0.0 **** -0.106
113 H6446 57.8046 15.8873 32.468 H 0.0 **** 0.053
114 C6373 65.4071 22.6397 37.3853 C.ar 0.0 **** 0.0
115 H6469 68.8485 19.0313 38.4548 H 0.0 **** 0.053
116 C6406 61.8374 11.2448 40.4223 C.3 0.0 **** -0.106
117 H6491 60.1472 14.9364 29.5638 H 0.0 **** 0.053
118 C6428 66.7244 24.7988 37.5159 C.3 0.0 **** -0.159
119 C6371 67.5158 22.6568 38.6043 C.ar 0.0 **** 0.0
120 C6413 61.0945 8.55591 41.5153 C.3 0.0 **** -0.106
121 H6494 62.3044 16.43 38.6636 H 0.0 **** 0.41
122 H6479 67.2141 25.3369 38.3386 H 0.0 **** 0.053
123 H6470 70.0986 19.3291 39.6948 H 0.0 **** 0.053
124 H6493 58.3334 13.2518 35.5956 H 0.0 **** 0.41
125 C6374 65.24 21.2905 37.7054 C.ar 0.0 **** 0.0
126 H6490 59.7041 13.804 30.8653 H 0.0 **** 0.053
127 C6412 60.2135 9.27347 40.5153 C.ar 0.0 **** 0.0
128 H6456 61.4351 9.26381 42.2867 H 0.0 **** 0.053
129 C6394 59.7483 15.8819 31.4952 C.ar 0.0 **** -0.053
130 H6441 63.4629 20.1609 38.0762 H 0.0 **** 0.053
@<TRIPOS>BOND
1 112 45 1
2 114 25 am
3 125 114 am
4 87 125 am
5 4 87 am
6 119 25 am
7 119 4 am
8 44 109 1
9 15 44 am
10 112 15 1
11 125 109 1
12 114 112 1
13 6 42 am
14 34 6 am
15 63 34 am
16 15 42 am
17 44 63 am
18 55 75 am
19 107 55 am
20 20 107 am
21 63 75 am
22 34 20 am
23 47 11 1
24 38 47 1
25 108 38 am
26 107 11 1
27 55 108 am
28 129 57 1
29 99 129 am
30 7 99 1
31 47 57 1
32 11 7 1
33 24 18 am
34 77 24 am
35 58 77 am
36 108 18 am
37 38 58 am
38 86 67 1
39 10 86 am
40 37 10 1
41 77 67 1
42 24 37 1
43 116 52 1
44 12 116 1
45 70 12 am
46 10 52 1
47 86 70 am
48 43 81 am
49 93 43 am
50 127 93 am
51 70 81 am
52 12 127 am
53 105 120 1
54 1 105 1
55 85 1 1
56 127 120 1
57 93 85 1
58 49 73 1
59 8 49 am
60 43 8 am
61 85 73 1
62 36 72 am
63 111 36 am
64 51 111 am
65 8 72 am
66 49 51 am
67 4 19 1
68 19 23 1
69 119 103 1
70 87 31 1
71 25 118 1
72 42 69 1
73 6 68 1
74 20 84 1
75 99 91 1
76 129 59 1
77 58 95 1
78 18 28 1
79 37 76 2
80 67 61 2
81 51 90 1
82 111 104 1
83 109 96 1
84 109 130 1
85 112 3 1
86 75 110 1
87 57 54 1
88 57 113 1
89 129 22 1
90 99 97 1
91 7 35 1
92 7 98 1
93 52 106 1
94 52 62 1
95 116 32 1
96 116 9 1
97 120 78 1
98 120 128 1
99 105 39 1
100 105 27 1
101 1 79 1
102 1 30 1
103 85 89 1
104 73 82 1
105 73 88 1
106 72 83 1
107 36 92 1
108 19 60 1
109 19 5 1
110 23 74 1
111 23 115 1
112 23 123 1
113 103 100 1
114 103 56 1
115 103 26 1
116 31 29 1
117 31 2 1
118 31 50 1
119 118 94 1
120 118 13 1
121 118 122 1
122 69 46 1
123 69 41 1
124 69 53 1
125 68 102 1
126 68 65 1
127 68 16 1
128 84 48 1
129 91 64 1
130 91 17 1
131 91 66 1
132 59 126 1
133 59 117 1
134 59 80 1
135 95 124 1
136 28 121 1
137 90 33 1
138 90 71 1
139 90 101 1
140 104 21 1
141 104 40 1
142 104 14 1
@<TRIPOS>MOLECULE
Sketch 4
250 292
SMALL
USER_CHARGES


@<TRIPOS>ATOM
1 H21627 69.4305 61.987 64.9574 H 0.0 **** 0.053
2 C21414 77.7666 85.9452 55.5093 C.3 0.0 **** -0.106
3 C21405 78.0428 84.2079 59.0102 C.3 0.0 **** 0.054
4 H21623 70.5759 66.4328 63.2755 H 0.0 **** 0.1268
5 C21480 74.895 64.884 60.8523 C.3 0.0 **** -0.106
6 H21625 67.511 63.7124 64.9602 H 0.0 **** 0.053
7 C21523 81.4398 77.5888 58.0579 C.3 0.0 **** -0.159
8 C21436 75.0004 79.0235 56.2088 C.2 0.0 **** 0.0
9 H21639 81.7095 77.6588 59.1227 H 0.0 **** 0.053
10 H21585 77.5085 78.1937 56.8547 H 0.0 **** 0.053
11 C21501 66.9446 69.2135 65.9087 C.2 0.0 **** 0.042
12 H21644 60.4709 63.1855 71.5503 H 0.0 **** 0.1268
13 C21422 74.49 81.8442 55.9434 C.3 0.0 **** -0.053
14 C21449 74.6034 76.9193 57.4125 C.2 0.0 **** -0.012
15 C21535 62.2865 60.4333 70.597 C.2 0.0 **** 0.0
16 H21609 72.8403 61.8957 63.5914 H 0.0 **** 0.053
17 C21450 75.2533 77.6375 56.439 C.2 0.0 **** -0.1268
18 N21486 73.886 63.2064 62.3532 N.3 0.0 **** -0.727
19 C21504 69.039 66.3673 64.7271 C.2 0.0 **** 0.0
20 H21628 70.056 61.3992 66.5049 H 0.0 **** 0.053
21 H21634 79.2967 77.019 59.7502 H 0.0 **** 0.053
22 H21614 69.8568 78.3379 65.1173 H 0.0 **** 0.053
23 C21534 61.2654 61.224 71.2072 C.2 0.0 **** -0.1268
24 H21617 67.2188 79.103 65.8677 H 0.0 **** 0.053
25 H21606 71.1573 62.3835 61.1194 H 0.0 **** 0.053
26 C21429 71.5618 83.7049 58.6637 C.3 0.0 **** -0.106
27 C21468 70.2301 73.3284 62.0901 C.2 0.0 **** 0.0
28 C21431 71.8482 77.4489 59.9458 C.2 0.0 **** 0.232
29 H21620 65.607 76.5259 65.5404 H 0.0 **** 0.053
30 C21426 72.0679 80.8634 58.793 C.2 0.0 **** 0.0
31 C21428 70.4563 82.7589 59.1386 C.3 0.0 **** -0.106
32 C21545 65.4241 58.115 68.7623 C.2 0.0 **** 0.052
33 H21616 68.1894 76.304 66.653 H 0.0 **** 0.053
34 C21496 67.0307 78.0603 66.1763 C.3 0.0 **** -0.106
35 C21427 71.08 81.4982 59.7384 C.3 0.0 **** -0.106
36 C21462 72.1419 68.9975 60.6377 C.2 0.0 **** 0.0
37 C21442 77.8232 77.447 52.3936 C.3 0.0 **** -0.106
38 C21441 77.4962 78.8756 51.9493 C.3 0.0 **** -0.106
39 H21566 73.0117 82.8129 54.7482 H 0.0 **** 0.053
40 C21536 63.3089 61.0709 69.8451 C.2 0.0 **** 0.0
41 O21490 67.3543 75.3477 64.38 O.3 0.0 **** -0.202
42 H21640 73.2618 68.9937 58.1088 H 0.0 **** 0.41
43 C21443 78.2882 77.4582 53.8292 C.2 0.0 **** 0.0
44 C21409 76.3475 85.844 59.1467 C.3 0.0 **** 0.054
45 C21424 73.3126 78.8721 58.0443 C.2 0.0 **** 0.0
46 H21561 76.5038 83.5539 55.4866 H 0.0 **** 0.053
47 H21601 75.6969 64.2493 60.451 H 0.0 **** 0.053
48 H21633 79.7332 78.8822 58.2104 H 0.0 **** 0.053
49 H21604 71.6327 64.5566 63.2228 H 0.0 **** 0.053
50 C21520 66.3631 63.0166 67.6229 C.2 0.0 **** 0.0
51 C21525 64.1879 67.3726 68.495 C.2 0.0 **** -0.1268
52 H21553 77.2475 83.4379 59.0668 H 0.0 **** 0.053
53 H21651 67.733 56.0314 66.3154 H 0.0 **** 0.053
54 C21435 75.5798 79.7182 55.1451 C.2 0.0 **** 0.0
55 H21599 75.4001 66.5275 59.4918 H 0.0 **** 0.053
56 O21410 77.5998 85.3943 59.678 O.3 0.0 **** -0.32
57 C21544 66.3989 60.1949 67.8863 C.2 0.0 **** 0.0
58 C21478 72.877 68.0029 59.7447 C.3 0.0 **** 0.107
59 H21603 71.8989 64.8641 60.2049 H 0.0 **** 0.053
60 C21546 66.378 58.768 67.9699 C.2 0.0 **** 0.0
61 O21493 69.1083 76.8008 62.7369 O.3 0.0 **** -0.202
62 H21605 70.3481 64.6175 62.017 H 0.0 **** 0.053
63 C21526 63.2466 66.7429 69.2609 C.2 0.0 **** -0.1268
64 H21573 69.8098 83.2553 59.8783 H 0.0 **** 0.053
65 O21430 71.6889 78.8099 59.849 O.3 0.0 **** -0.464
66 C21509 69.3009 64.9133 65.0173 C.3 0.0 **** -0.053
67 H21590 80.3481 76.8697 53.7639 H 0.0 **** 0.053
68 H21577 74.7856 80.0901 51.8364 H 0.0 **** 0.053
69 H21574 69.8265 82.4809 58.278 H 0.0 **** 0.053
70 C21483 71.3615 64.2361 62.2021 C.3 0.0 **** -0.106
71 C21455 73.0212 72.524 59.6923 C.2 0.0 **** 0.0
72 S21453 75.1132 75.2626 57.6521 S.2 0.0 **** 0.024
73 C21522 79.1062 76.8784 58.6756 C.3 0.0 **** -0.159
74 H21611 66.5378 76.6872 63.032 H 0.0 **** 0.053
75 H21583 76.9162 76.8197 52.2958 H 0.0 **** 0.053
76 H21615 68.9194 77.8105 67.235 H 0.0 **** 0.053
77 H21618 66.4548 78.1097 67.1121 H 0.0 **** 0.053
78 C21481 73.6674 64.02 61.1565 C.3 0.0 **** 0.134
79 C21463 71.3361 68.3606 61.5624 C.2 0.0 **** 0.042
80 C21434 75.0247 81.0228 54.7942 C.2 0.0 **** 0.0
81 H21579 74.5951 82.3788 53.2139 H 0.0 **** 0.1268
82 C21407 77.7455 85.8001 57.0525 C.3 0.0 **** -0.053
83 H21567 72.1851 84.4008 56.1593 H 0.0 **** 0.053
84 C21420 72.7401 81.6645 57.7885 C.2 0.0 **** 0.0
85 C21474 68.6211 70.5358 64.0502 C.2 0.0 **** 0.0
86 C21412 75.7875 84.3964 55.5404 C.3 0.0 **** 0.107
87 C21508 67.15 66.4444 66.3345 C.2 0.0 **** 0.0
88 H21564 78.046 86.9724 55.231 H 0.0 **** 0.053
89 H21555 78.0961 83.6533 56.9054 H 0.0 **** 0.053
90 H21559 76.2109 86.8542 59.5574 H 0.0 **** 0.053
91 H21629 71.5592 62.9903 64.9034 H 0.0 **** 0.053
92 H21569 73.7799 85.9452 56.5439 H 0.0 **** 0.053
93 H21638 81.7048 76.5762 57.7143 H 0.0 **** 0.053
94 C21507 66.1809 67.2154 66.999 C.2 0.0 **** 0.0265
95 C21467 70.9997 76.8282 60.8364 C.2 0.0 **** -0.1268
96 C21433 73.5896 77.513 58.2352 C.2 0.0 **** 0.0
97 H21565 78.5485 85.2859 55.0978 H 0.0 **** 0.053
98 O21415 74.6151 84.0391 54.7921 O.3 0.0 **** -0.32
99 H21588 80.4693 75.8724 55.9971 H 0.0 **** 0.053
100 H21575 72.1248 84.0688 59.5465 H 0.0 **** 0.053
101 C21491 67.0657 76.7107 63.9999 C.3 0.0 **** 0.107
102 H21649 67.6197 58.5359 66.241 H 0.0 **** 0.053
103 H21630 71.7034 63.0609 66.6631 H 0.0 **** 0.053
104 H21621 66.8418 73.2071 65.2464 H 0.0 **** 0.1268
105 H21556 78.3037 86.6352 57.5001 H 0.0 **** 0.053
106 C21513 69.7808 62.309 65.9528 C.3 0.0 **** -0.106
107 C21448 79.3993 76.5294 54.2226 C.3 0.0 **** -0.106
108 H21570 75.3786 82.1436 56.5353 H 0.0 **** 0.053
109 H21581 78.4295 79.4728 51.9034 H 0.0 **** 0.053
110 H21619 65.489 78.0369 64.629 H 0.0 **** 0.053
111 H21652 66.0608 56.6236 66.2148 H 0.0 **** 0.053
112 C21489 68.415 73.3225 63.7759 C.2 0.0 **** 0.0
113 C21460 72.1722 70.4232 60.6005 C.2 0.0 **** 0.0
114 C21547 67.4102 57.9983 67.1764 C.3 0.0 **** -0.106
115 C21454 73.9267 73.2061 58.8376 C.2 0.0 **** -0.1268
116 C21472 69.6922 68.3789 63.4786 C.2 0.0 **** 0.0
117 C21469 70.154 74.7484 61.9696 C.2 0.0 **** 0.0
118 H21552 78.9069 83.8439 59.5826 H 0.0 **** 0.053
119 H21584 78.3371 79.6126 56.2592 H 0.0 **** 0.053
120 C21503 68.046 67.0874 65.4039 C.2 0.0 **** 0.0
121 H21593 73.8549 70.6092 59.2586 H 0.0 **** 0.1268
122 C21510 68.1382 64.1922 65.7378 C.3 0.0 **** -0.053
123 H21646 63.3154 57.1916 70.2552 H 0.0 **** 0.1268
124 C21419 72.4943 83.0255 57.7007 C.2 0.0 **** 0.0
125 C21452 73.872 74.5678 58.683 C.2 0.0 **** -0.012
126 C21540 64.3659 58.8741 69.3966 C.2 0.0 **** 0.0
127 C21451 72.8928 75.3562 59.3871 C.2 0.0 **** 0.0
128 H21596 74.3129 67.6506 61.2842 H 0.0 **** 0.053
129 C21521 79.9465 77.8598 57.8482 C.3 0.0 **** -0.053
130 H21637 82.0565 78.3089 57.4971 H 0.0 **** 0.053
131 C21458 71.1741 72.5815 61.3107 C.2 0.0 **** 0.0
132 C21512 68.6481 63.0573 66.6461 C.3 0.0 **** -0.053
133 C21533 61.254 62.5878 71.0802 C.2 0.0 **** -0.1268
134 C21484 71.4065 62.7102 62.1417 C.3 0.0 **** -0.106
135 C21515 70.6175 64.7275 65.7932 C.3 0.0 **** -0.106
136 C21423 73.9827 79.6683 57.0433 C.2 0.0 **** 0.0
137 H21582 78.595 76.9985 51.7487 H 0.0 **** 0.053
138 C21531 62.2637 63.2634 70.3273 C.2 0.0 **** 0.0
139 C21446 79.5823 77.838 56.3488 C.3 0.0 **** -0.053
140 H21562 75.7156 86.4511 54.9496 H 0.0 **** 0.053
141 H21571 70.3063 80.7684 60.017 H 0.0 **** 0.053
142 C21444 77.6941 78.3049 54.7033 C.2 0.0 **** 0.0
143 O21475 71.3191 66.9832 61.5174 O.3 0.0 **** -0.202
144 H21580 77.064 78.8885 50.9359 H 0.0 **** 0.053
145 C21485 72.8232 62.2062 62.5362 C.3 0.0 **** 0.081
146 C21440 75.0222 81.4196 53.5019 C.2 0.0 **** -0.1268
147 O21524 73.7861 68.5137 58.7682 O.3 0.0 **** -0.57
148 H21557 75.8488 86.8054 57.2726 H 0.0 **** 0.053
149 C21479 74.5154 66.0215 59.8985 C.3 0.0 **** -0.106
150 C21473 68.7404 69.1342 64.2266 C.2 0.0 **** 0.0
151 H21595 72.9615 66.3801 62.6193 H 0.0 **** 0.053
152 H21653 67.5149 55.7963 68.7938 H 0.0 **** 0.053
153 H21642 62.4585 67.3199 69.7479 H 0.0 **** 0.1268
154 C21456 72.0544 73.2694 60.4347 C.2 0.0 **** 0.0
155 H21624 69.448 64.4066 64.0513 H 0.0 **** 0.053
156 C21530 63.296 62.4901 69.7043 C.2 0.0 **** 0.0
157 C21477 73.6495 67.0367 60.6543 C.3 0.0 **** -0.053
158 H21643 61.4729 65.2441 70.6531 H 0.0 **** 0.1268
159 C21425 72.3542 79.5288 58.8744 C.2 0.0 **** 0.232
160 C21550 65.588 56.65 69.0095 C.2 0.0 **** 0.347
161 H21632 70.4897 65.1253 66.8124 H 0.0 **** 0.053
162 H21572 71.5997 81.7661 60.6778 H 0.0 **** 0.053
163 C21516 66.3068 64.4381 67.4146 C.2 0.0 **** 0.0
164 C21464 70.4765 69.0482 62.4705 C.2 0.0 **** 0.0
165 C21505 69.8293 67.0132 63.7942 C.2 0.0 **** -0.1268
166 H21589 79.2039 75.5341 53.7833 H 0.0 **** 0.053
167 H21598 73.9567 65.619 59.0361 H 0.0 **** 0.053
168 H21645 60.4873 60.713 71.7776 H 0.0 **** 0.1268
169 C21532 62.2658 64.6599 70.1809 C.2 0.0 **** -0.1268
170 C21542 62.3121 59.0254 70.7127 C.2 0.0 **** -0.1268
171 C21465 70.392 70.4619 62.33 C.2 0.0 **** 0.0
172 C21457 71.9973 74.6831 60.2918 C.2 0.0 **** 0.0
173 H21608 73.0801 61.316 61.9373 H 0.0 **** 0.053
174 C21528 64.2895 64.5546 68.8162 C.2 0.0 **** 0.0
175 C21471 69.3801 72.6205 62.9918 C.2 0.0 **** 0.0
176 H21592 74.6682 72.6174 58.2928 H 0.0 **** 0.1268
177 C21417 73.053 83.8921 56.6211 C.3 0.0 **** -0.053
178 C21438 76.5443 79.5181 52.9192 C.2 0.0 **** 0.0
179 C21406 78.4149 84.4974 57.5371 C.3 0.0 **** -0.106
180 C21437 76.5795 79.1607 54.2361 C.2 0.0 **** 0.0
181 H21650 68.3636 57.9632 67.7368 H 0.0 **** 0.053
182 C21413 76.4131 85.6025 54.8606 C.3 0.0 **** -0.106
183 C21517 65.2842 65.2085 68.0371 C.2 0.0 **** 0.0
184 C21411 75.4521 84.7059 57.0275 C.3 0.0 **** -0.053
185 C21527 63.2502 65.3195 69.4378 C.2 0.0 **** 0.0
186 H21563 76.5357 85.3977 53.7874 H 0.0 **** 0.053
187 C21408 76.3087 85.8567 57.5964 C.3 0.0 **** -0.053
188 C21487 69.1839 75.427 62.7889 C.2 0.0 **** 0.042
189 H21586 80.3609 78.4113 55.8117 H 0.0 **** 0.053
190 C21499 67.5722 72.6434 64.6681 C.2 0.0 **** -0.1268
191 C21519 67.472 62.2639 67.1457 C.2 0.0 **** 0.0
192 H21636 78.0259 76.9999 58.504 H 0.0 **** 0.053
193 C21529 64.3037 63.1413 68.9547 C.2 0.0 **** 0.0
194 H21594 70.2943 77.4534 61.3636 H 0.0 **** 0.1268
195 C21514 71.013 63.2391 65.8243 C.3 0.0 **** -0.106
196 C21466 71.0362 75.4345 61.0488 C.2 0.0 **** 0.0
197 C21498 67.6608 71.261 64.8304 C.2 0.0 **** 0.0
198 C21459 71.2349 71.1578 61.4133 C.2 0.0 **** 0.0
199 C21518 65.2239 66.6247 67.8458 C.2 0.0 **** 0.0
200 C21539 65.3432 62.3675 68.3489 C.2 0.0 **** 0.0
201 H21641 64.1599 68.4535 68.3585 H 0.0 **** 0.1268
202 H21610 73.934 63.8171 63.1697 H 0.0 **** 0.353
203 C21549 66.6058 55.887 68.1709 C.3 0.0 **** -0.086
204 H21607 70.6475 62.2729 62.8099 H 0.0 **** 0.053
205 C21482 72.3525 64.8681 61.2105 C.3 0.0 **** -0.053
206 C21492 68.3962 77.4232 63.824 C.3 0.0 **** 0.107
207 H21554 79.5055 84.5917 57.4209 H 0.0 **** 0.053
208 H21576 71.1357 84.6046 58.1883 H 0.0 **** 0.053
209 C21502 66.8182 70.5662 65.7539 C.2 0.0 **** -0.1268
210 H21654 66.214 54.8686 68.0375 H 0.0 **** 0.053
211 H21560 75.6518 83.8083 57.6344 H 0.0 **** 0.053
212 C21461 73.073 71.1374 59.7954 C.2 0.0 **** -0.1268
213 C21511 67.208 65.0633 66.5396 C.2 0.0 **** 0.0
214 O21551 64.9919 56.0331 69.8938 O.2 0.0 **** -0.419
215 C21416 73.7604 83.1198 55.4932 C.3 0.0 **** 0.107
216 C21541 63.3127 58.2699 70.1378 C.2 0.0 **** -0.1268
217 C21447 79.5566 76.4316 55.7399 C.3 0.0 **** -0.106
218 H21591 75.9631 77.1254 55.7898 H 0.0 **** 0.1268
219 C21421 73.6786 81.0119 56.9106 C.2 0.0 **** 0.0
220 C21418 73.9673 85.0397 57.1423 C.3 0.0 **** -0.106
221 C21494 69.2393 77.4278 65.1162 C.3 0.0 **** -0.106
222 C21445 78.2351 78.5246 56.0972 C.3 0.0 **** -0.106
223 C21432 72.8124 76.7583 59.1894 C.2 0.0 **** 0.0
224 H21612 68.2098 78.4476 63.4713 H 0.0 **** 0.053
225 H21631 71.4088 65.3303 65.3223 H 0.0 **** 0.053
226 C21488 68.3256 74.7306 63.6259 C.2 0.0 **** 0.042
227 H21600 75.2767 65.3147 61.7957 H 0.0 **** 0.053
228 H21622 66.08 71.1199 66.3351 H 0.0 **** 0.1268
229 C21495 68.375 77.3569 66.3938 C.3 0.0 **** -0.106
230 C21537 64.3425 60.292 69.242 C.2 0.0 **** 0.0
231 C21476 72.6186 66.3291 61.5689 C.3 0.0 **** 0.107
232 H21626 69.0726 63.54 67.5494 H 0.0 **** 0.053
233 C21470 69.4648 71.2104 63.1288 C.2 0.0 **** 0.0
234 H21597 72.1002 67.4032 59.2269 H 0.0 **** 0.053
235 H21602 73.5463 63.3039 60.3257 H 0.0 **** 0.053
236 C21497 66.2006 77.3388 65.0946 C.3 0.0 **** -0.106
237 O21506 66.1102 68.5773 66.8153 O.3 0.0 **** -0.0685
238 H21568 73.7131 85.2852 58.1841 H 0.0 **** 0.053
239 H21578 76.1279 81.1926 51.6694 H 0.0 **** 0.053
240 C21538 65.3613 60.9512 68.4974 C.2 0.0 **** 0.0
241 C21548 66.9513 56.5794 66.8631 C.3 0.0 **** -0.106
242 H21647 61.5153 58.5304 71.2721 H 0.0 **** 0.1268
243 H21613 69.9272 76.5707 65.0775 H 0.0 **** 0.053
244 H21558 75.533 85.1969 59.5344 H 0.0 **** 0.053
245 H21587 78.7016 75.8747 56.1568 H 0.0 **** 0.053
246 H21648 68.315 60.3333 66.877 H 0.0 **** 0.1268
247 C21439 75.6053 80.5663 52.4186 C.3 0.0 **** -0.106
248 H21635 79.3692 75.8391 58.4247 H 0.0 **** 0.053
249 C21543 67.4614 60.8912 67.2525 C.2 0.0 **** -0.1268
250 C21500 67.9139 68.4648 65.1721 C.2 0.0 **** 0.0
@<TRIPOS>BOND
1 7 9 1
2 37 38 1
3 190 104 1
4 34 24 1
5 127 172 un
6 142 43 2
7 183 163 1
8 82 179 1
9 187 82 1
10 44 187 1
11 56 44 1
12 3 179 1
13 3 56 1
14 86 184 1
15 182 86 1
16 2 182 1
17 187 184 1
18 82 2 1
19 215 98 1
20 177 215 1
21 220 177 1
22 86 98 1
23 184 220 1
24 84 124 un
25 219 84 un
26 13 219 un
27 177 124 1
28 215 13 1
29 45 136 1
30 159 45 un
31 30 159 un
32 219 136 un
33 84 30 un
34 31 35 1
35 26 31 1
36 124 26 1
37 30 35 1
38 28 65 1
39 223 28 un
40 96 223 un
41 159 65 1
42 45 96 un
43 54 80 un
44 8 54 2
45 13 80 1
46 136 8 un
47 178 180 2
48 247 178 1
49 146 247 1
50 54 180 1
51 80 146 2
52 43 37 1
53 178 38 1
54 180 142 1
55 139 222 1
56 217 139 1
57 107 217 1
58 142 222 1
59 43 107 1
60 17 14 un
61 8 17 un
62 96 14 un
63 125 127 un
64 72 125 1
65 14 72 un
66 223 127 un
67 71 115 un
68 154 71 un
69 172 154 un
70 125 115 un
71 198 131 un
72 113 198 un
73 212 113 un
74 154 131 un
75 71 212 un
76 79 36 un
77 164 79 un
78 171 164 un
79 113 36 un
80 198 171 un
81 95 196 un
82 28 95 un
83 172 196 un
84 117 27 un
85 196 117 un
86 131 27 un
87 175 233 un
88 27 175 un
89 171 233 un
90 150 116 un
91 85 150 un
92 233 85 un
93 164 116 un
94 231 143 1
95 157 231 1
96 58 157 1
97 79 143 1
98 36 58 1
99 5 149 1
100 78 5 1
101 205 78 1
102 157 149 1
103 231 205 1
104 134 70 1
105 145 134 1
106 18 145 1
107 205 70 1
108 78 18 1
109 226 188 un
110 112 226 un
111 175 112 un
112 117 188 un
113 101 41 1
114 206 101 1
115 61 206 1
116 226 41 1
117 188 61 1
118 229 221 1
119 34 229 1
120 236 34 1
121 206 221 1
122 101 236 1
123 190 197 un
124 112 190 un
125 85 197 un
126 11 250 un
127 209 11 un
128 197 209 un
129 150 250 un
130 19 120 un
131 165 19 un
132 116 165 un
133 250 120 un
134 94 237 1
135 87 94 un
136 11 237 1
137 120 87 1
138 122 66 1
139 213 122 1
140 19 66 1
141 87 213 un
142 106 132 1
143 195 106 1
144 135 195 1
145 122 132 1
146 66 135 1
147 199 183 1
148 94 199 un
149 213 163 un
150 132 191 1
151 163 50 un
152 191 50 un
153 139 129 1
154 129 73 1
155 129 7 1
156 58 147 1
157 63 51 1
158 185 63 un
159 174 185 1
160 199 51 un
161 183 174 un
162 156 193 un
163 138 156 1
164 169 138 un
165 174 193 un
166 185 169 un
167 23 133 un
168 15 23 1
169 40 15 1
170 138 133 un
171 156 40 un
172 240 230 un
173 200 240 un
174 193 200 un
175 40 230 un
176 216 126 un
177 170 216 un
178 15 170 un
179 230 126 un
180 57 249 un
181 240 57 un
182 50 200 un
183 191 249 un
184 60 32 un
185 57 60 un
186 126 32 un
187 241 114 1
188 203 241 1
189 160 203 1
190 60 114 1
191 32 160 1
192 160 214 2
193 3 118 1
194 3 52 1
195 179 207 1
196 179 89 1
197 82 105 1
198 187 148 1
199 44 244 1
200 44 90 1
201 184 211 1
202 86 46 1
203 182 140 1
204 182 186 1
205 2 88 1
206 2 97 1
207 215 39 1
208 177 83 1
209 220 238 1
210 220 92 1
211 13 108 1
212 35 141 1
213 35 162 1
214 31 64 1
215 31 69 1
216 26 100 1
217 26 208 1
218 247 68 1
219 247 239 1
220 146 81 1
221 38 144 1
222 38 109 1
223 37 137 1
224 37 75 1
225 222 119 1
226 222 10 1
227 139 189 1
228 217 245 1
229 217 99 1
230 107 166 1
231 107 67 1
232 17 218 1
233 115 176 1
234 212 121 1
235 95 194 1
236 231 151 1
237 157 128 1
238 58 234 1
239 149 167 1
240 149 55 1
241 5 227 1
242 5 47 1
243 78 235 1
244 205 59 1
245 70 49 1
246 70 62 1
247 134 25 1
248 134 204 1
249 145 173 1
250 145 16 1
251 18 202 1
252 101 74 1
253 206 224 1
254 221 243 1
255 221 22 1
256 229 76 1
257 229 33 1
258 34 77 1
259 236 110 1
260 236 29 1
261 209 228 1
262 165 4 1
263 66 155 1
264 122 6 1
265 132 232 1
266 106 1 1
267 106 20 1
268 195 91 1
269 195 103 1
270 135 225 1
271 135 161 1
272 129 48 1
273 73 21 1
274 73 248 1
275 73 192 1
276 7 130 1
277 7 93 1
278 147 42 1
279 51 201 1
280 63 153 1
281 169 158 1
282 133 12 1
283 23 168 1
284 216 123 1
285 170 242 1
286 249 246 1
287 114 102 1
288 114 181 1
289 241 53 1
290 241 111 1
291 203 152 1
292 203 210 1
@<TRIPOS>MOLECULE
Sketch 4
130 142
SMALL
USER_CHARGES


@<TRIPOS>ATOM
1 H5539 65.1543 32.4761 39.8923 H 0.0 **** 0.053
2 H5581 61.3755 32.5843 42.6021 H 0.0 **** 0.053
3 C5494 62.0811 39.4369 36.3501 C.2 0.0 **** 0.367
4 H5533 70.519 40.2053 42.4204 H 0.0 **** 0.053
5 C5498 58.9472 38.3287 34.4557 C.ar 0.0 **** 0.2405
6 C5478 67.1725 35.5647 40.0742 C.ar 0.0 **** 0.042
7 C5470 70.1285 40.3198 41.395 C.3 0.0 **** -0.106
8 C5506 55.4521 38.3436 32.0224 C.3 0.0 **** -0.053
9 H5566 65.6777 43.9669 39.8566 H 0.0 **** 0.053
10 C5483 62.6456 33.6169 39.5088 C.3 0.0 **** -0.106
11 H5559 65.6103 44.9646 42.0321 H 0.0 **** 0.053
12 H5557 68.1563 46.2712 40.8854 H 0.0 **** 0.053
13 C5468 68.0934 39.1653 40.4867 C.ar 0.0 **** 0.0
14 H5561 70.6242 45.02 43.1507 H 0.0 **** 0.053
15 C5518 71.4053 42.7389 42.3826 C.3 0.0 **** -0.159
16 C5515 66.4006 45.73 42.0335 C.3 0.0 **** -0.159
17 C5523 61.4243 32.6474 41.5045 C.3 0.0 **** -0.159
18 H5551 55.8136 38.2325 30.9801 H 0.0 **** 0.053
19 C5461 69.3484 44.0401 41.6931 C.ar 0.0 **** 0.0
20 H5556 66.8957 45.5212 39.9328 H 0.0 **** 0.053
21 C5513 54.9009 34.5981 31.9701 C.ar 0.0 **** 0.0
22 C5476 65.3432 36.9644 39.2222 C.ar 0.0 **** 0.0
23 H5580 60.476 33.0735 41.1447 H 0.0 **** 0.053
24 H5565 66.139 42.5273 38.9206 H 0.0 **** 0.053
25 C5485 63.9801 33.0671 41.5965 C.ar 0.0 **** -0.053
26 C5497 58.351 39.586 34.1896 C.ar 0.0 **** 0.0
27 N5499 58.4591 37.1817 33.9627 N.ar 0.0 **** -0.481
28 C5528 53.4492 34.5246 31.5564 C.3 0.0 **** -0.159
29 C5508 55.4564 35.8378 32.3375 C.ar 0.0 **** 0.0
30 H5589 55.9467 31.3213 31.6759 H 0.0 **** 0.053
31 H5586 53.0977 33.4899 31.4733 H 0.0 **** 0.053
32 O5525 64.3345 39.3696 37.9093 O.3 0.0 **** -0.452
33 C5504 55.5074 40.8452 31.9178 C.3 0.0 **** -0.106
34 H5560 65.9276 46.7189 41.9293 H 0.0 **** 0.053
35 H5554 58.6058 34.8409 33.1848 H 0.0 **** 0.1268
36 C5529 55.1635 32.0884 31.6066 C.3 0.0 **** -0.159
37 C5505 54.6136 39.6191 32.0966 C.3 0.0 **** -0.106
38 C5466 68.094 44.1235 41.0496 C.ar 0.0 **** 0.0
39 C5511 57.0379 33.5454 32.4316 C.ar 0.0 **** -0.1268
40 C5495 60.4766 40.6974 34.8599 C.3 0.0 **** -0.106
41 C5484 62.6006 33.513 41.0465 C.ar 0.0 **** -0.053
42 C5487 63.6611 38.2271 37.8035 C.ar 0.0 **** 0.042
43 H5550 54.1146 39.6636 33.0808 H 0.0 **** 0.053
44 C5488 62.4931 38.2256 37.0039 C.ar 0.0 **** 0.052
45 H5543 58.6727 41.7244 34.2592 H 0.0 **** 0.053
46 H5567 71.9753 41.8787 42.0103 H 0.0 **** 0.053
47 O5526 62.7535 40.5239 36.4667 O.2 0.0 **** -0.419
48 H5577 63.3755 31.3349 42.8014 H 0.0 **** 0.053
49 C5489 61.7414 37.041 36.8256 C.ar 0.0 **** 0.052
50 C5501 56.6762 38.4162 32.9054 C.ar 0.0 **** 0.0
51 H5541 60.9387 41.5459 35.3801 H 0.0 **** 0.053
52 C5493 60.879 39.4158 35.5298 C.ar 0.0 **** 0.0
53 C5463 69.4043 41.6391 41.2868 C.ar 0.0 **** 0.0
54 H5549 53.8221 39.5882 31.3311 H 0.0 **** 0.053
55 H5575 70.2562 34.7108 40.8034 H 0.0 **** 0.053
56 C5471 69.9388 37.7976 41.3154 C.ar 0.0 **** 0.0
57 H5542 60.8826 40.6962 33.8309 H 0.0 **** 0.053
58 C5492 60.1395 38.2672 35.3286 C.ar 0.0 **** 0.0
59 C5481 63.2985 35.855 38.3595 C.ar 0.0 **** 0.0
60 H5537 62.419 34.5373 41.4116 H 0.0 **** 0.053
61 H5584 63.7882 40.0606 37.3132 H 0.0 **** 0.41
62 C5507 54.6261 37.0973 32.3462 C.3 0.0 **** -0.106
63 H5535 61.6473 33.8305 39.1261 H 0.0 **** 0.053
64 C5473 67.9457 36.689 40.4556 C.ar 0.0 **** 0.0
65 H5562 69.21 45.9709 42.6804 H 0.0 **** 0.053
66 C5467 67.434 40.4844 40.2092 C.3 0.0 **** -0.106
67 H5573 68.9867 34.6894 42.0239 H 0.0 **** 0.053
68 C5474 67.3732 37.9756 40.1583 C.ar 0.0 **** 0.0
69 C5472 69.2355 36.6192 41.0871 C.ar 0.0 **** 0.0
70 H5572 71.9272 38.6202 41.5911 H 0.0 **** 0.053
71 C5517 66.1093 42.9637 39.9325 C.3 0.0 **** -0.159
72 H5540 66.0525 33.3842 41.122 H 0.0 **** 0.053
73 H5582 61.5044 31.623 41.111 H 0.0 **** 0.053
74 H5587 53.2866 35.0106 30.5792 H 0.0 **** 0.053
75 C5475 66.1387 38.0751 39.4986 C.ar 0.0 **** -0.1268
76 H5583 60.6929 35.0412 36.6014 H 0.0 **** 0.41
77 C5509 56.7955 35.9227 32.7724 C.ar 0.0 **** 0.0
78 C5522 64.0612 31.5862 41.9804 C.3 0.0 **** -0.159
79 C5477 65.82 35.6752 39.6654 C.ar 0.0 **** 0.0
80 H5553 53.7957 37.0291 31.6299 H 0.0 **** 0.053
81 H5545 56.0287 41.3128 33.9695 H 0.0 **** 0.053
82 H5532 71.038 40.3619 40.764 H 0.0 **** 0.053
83 H5579 63.8091 30.9471 41.119 H 0.0 **** 0.053
84 C5486 65.1091 33.3519 40.5685 C.3 0.0 **** -0.106
85 H5552 54.1661 37.2271 33.3452 H 0.0 **** 0.053
86 C5480 63.6375 34.6926 39.1312 C.2 0.0 **** 0.0
87 H5530 66.4142 40.4577 40.6315 H 0.0 **** 0.053
88 H5568 71.3603 42.6473 43.4824 H 0.0 **** 0.053
89 C5514 67.409 45.4662 40.9041 C.3 0.0 **** -0.106
90 H5531 67.2628 40.5816 39.1194 H 0.0 **** 0.053
91 H5570 71.8747 36.8527 41.5888 H 0.0 **** 0.053
92 O5521 67.7937 34.3359 40.0582 O.3 0.0 **** -0.452
93 H5564 65.4024 42.3447 40.5093 H 0.0 **** 0.053
94 C5500 57.3396 37.2141 33.2318 C.ar 0.0 **** 0.2405
95 O5524 61.4993 34.7287 37.2302 O.3 0.0 **** -0.452
96 C5482 64.1015 37.0275 38.4747 C.ar 0.0 **** 0.0
97 C5464 68.1342 41.7132 40.7106 C.ar 0.0 **** 0.0
98 H5585 52.8026 35.0441 32.28 H 0.0 **** 0.053
99 H5546 57.2887 41.6971 32.8061 H 0.0 **** 0.053
100 O5527 59.8984 35.9316 35.8699 O.2 0.0 **** -0.419
101 C5490 62.1545 35.8573 37.4725 C.ar 0.0 **** 0.042
102 H5538 64.1967 33.6641 42.4964 H 0.0 **** 0.053
103 H5571 71.3094 37.7579 43.0068 H 0.0 **** 0.053
104 H5574 70.5317 35.4755 42.3876 H 0.0 **** 0.053
105 C5503 56.5285 40.9411 33.0568 C.3 0.0 **** -0.106
106 H5558 66.8999 45.685 43.0135 H 0.0 **** 0.053
107 C5510 57.5813 34.7633 32.821 C.ar 0.0 **** -0.1268
108 C5516 69.9728 45.2761 42.3055 C.3 0.0 **** -0.159
109 C5479 64.8853 34.59 39.7315 C.2 0.0 **** 0.0
110 H5590 54.7785 32.0939 30.5743 H 0.0 **** 0.053
111 C5520 69.7871 35.308 41.6011 C.3 0.0 **** -0.159
112 C5519 71.3319 37.7532 41.9027 C.3 0.0 **** -0.159
113 H5555 57.6516 32.6426 32.4669 H 0.0 **** 0.1268
114 C5491 60.5547 37.0137 35.9926 C.2 0.0 **** 0.367
115 C5465 67.4761 42.9522 40.5757 C.ar 0.0 **** 0.0
116 H5563 70.5876 45.8293 41.574 H 0.0 **** 0.053
117 C5512 55.7046 33.4389 32.005 C.ar 0.0 **** 0.0
118 H5536 62.9439 32.6396 39.0859 H 0.0 **** 0.053
119 H5578 65.0836 31.33 42.2985 H 0.0 **** 0.053
120 C5496 58.9561 40.8179 34.8082 C.3 0.0 **** -0.106
121 H5548 54.912 41.7698 31.876 H 0.0 **** 0.053
122 H5588 54.3289 31.7793 32.2572 H 0.0 **** 0.053
123 C5502 57.2026 39.6254 33.3817 C.ar 0.0 **** 0.0
124 H5569 71.9885 43.6421 42.1581 H 0.0 **** 0.053
125 H5576 67.2416 33.7257 39.5439 H 0.0 **** 0.41
126 C5469 69.3525 39.0789 41.0373 C.ar 0.0 **** 0.0
127 H5544 58.5651 40.9384 35.8363 H 0.0 **** 0.053
128 C5462 70.0226 42.8077 41.774 C.ar 0.0 **** 0.0
129 H5534 65.7926 39.0447 39.18 H 0.0 **** 0.1268
130 H5547 56.0398 40.7603 30.9557 H 0.0 **** 0.053
@<TRIPOS>BOND
1 62 80 1
2 22 96 am
3 53 128 am
4 97 53 am
5 115 97 am
6 38 115 am
7 19 128 am
8 19 38 am
9 13 66 1
10 126 13 am
11 7 126 1
12 97 66 1
13 53 7 1
14 69 56 am
15 64 69 am
16 68 64 am
17 126 56 am
18 13 68 am
19 22 75 am
20 79 22 am
21 6 79 am
22 68 75 am
23 64 6 am
24 86 109 1
25 59 86 1
26 96 59 am
27 79 109 1
28 41 10 1
29 25 41 am
30 84 25 1
31 86 10 1
32 109 84 1
33 44 42 am
34 49 44 am
35 101 49 am
36 96 42 am
37 59 101 am
38 58 114 1
39 52 58 am
40 3 52 1
41 49 114 1
42 44 3 1
43 120 40 1
44 26 120 1
45 5 26 am
46 52 40 1
47 58 5 am
48 94 27 am
49 50 94 am
50 123 50 am
51 5 27 am
52 26 123 am
53 33 105 1
54 37 33 1
55 8 37 1
56 123 105 1
57 50 8 1
58 29 62 1
59 77 29 am
60 94 77 am
61 8 62 1
62 39 107 am
63 117 39 am
64 21 117 am
65 77 107 am
66 29 21 am
67 38 89 1
68 89 16 1
69 19 108 1
70 115 71 1
71 128 15 1
72 56 112 1
73 69 111 1
74 6 92 1
75 25 78 1
76 41 17 1
77 101 95 1
78 42 32 1
79 3 47 2
80 114 100 2
81 21 28 1
82 117 36 1
83 66 87 1
84 66 90 1
85 7 82 1
86 7 4 1
87 75 129 1
88 10 63 1
89 10 118 1
90 41 60 1
91 25 102 1
92 84 1 1
93 84 72 1
94 40 51 1
95 40 57 1
96 120 45 1
97 120 127 1
98 105 81 1
99 105 99 1
100 33 130 1
101 33 121 1
102 37 54 1
103 37 43 1
104 8 18 1
105 62 85 1
106 107 35 1
107 39 113 1
108 89 20 1
109 89 12 1
110 16 106 1
111 16 11 1
112 16 34 1
113 108 14 1
114 108 65 1
115 108 116 1
116 71 93 1
117 71 24 1
118 71 9 1
119 15 46 1
120 15 88 1
121 15 124 1
122 112 91 1
123 112 103 1
124 112 70 1
125 111 67 1
126 111 104 1
127 111 55 1
128 92 125 1
129 78 48 1
130 78 119 1
131 78 83 1
132 17 23 1
133 17 2 1
134 17 73 1
135 95 76 1
136 32 61 1
137 28 98 1
138 28 31 1
139 28 74 1
140 36 122 1
141 36 30 1
142 36 110 1
@<TRIPOS>MOLECULE
Sketch 4
250 292
SMALL
USER_CHARGES


@<TRIPOS>ATOM
1 C14671 58.9277 27.302 53.3631 C.2 0.0 **** 0.0
2 O14743 63.5936 22.4279 58.563 O.3 0.0 **** -0.202
3 C14704 60.0576 28.0299 61.294 C.2 0.0 **** -0.1268
4 C14732 63.0201 28.2002 69.5901 C.3 0.0 **** -0.053
5 C14681 61.1 25.2923 57.4251 C.2 0.0 **** 0.232
6 C14775 69.6645 19.2169 68.5175 C.2 0.0 **** -0.1268
7 H14869 66.6592 19.6527 57.5109 H 0.0 **** 0.053
8 C14783 73.2073 17.8271 73.3859 C.2 0.0 **** -0.1268
9 C14764 64.1509 24.187 72.4798 C.3 0.0 **** -0.106
10 H14899 68.3606 24.7151 76.4556 H 0.0 **** 0.053
11 H14877 66.0391 25.1236 73.097 H 0.0 **** 0.053
12 C14663 55.56 28.2204 48.8278 C.3 0.0 **** -0.106
13 C14800 70.4182 22.3863 78.8415 C.2 0.0 **** 0.347
14 H14884 53.9598 26.8824 58.905 H 0.0 **** 0.053
15 C14744 63.0798 20.0319 58.8213 C.3 0.0 **** -0.106
16 H14808 55.9892 23.8405 50.6759 H 0.0 **** 0.053
17 C14763 65.5245 24.1526 73.1953 C.3 0.0 **** -0.106
18 C14669 59.5862 25.7227 51.5873 C.2 0.0 **** 0.0
19 H14809 54.9913 23.4076 49.2535 H 0.0 **** 0.053
20 H14901 68.7496 25.4616 78.8184 H 0.0 **** 0.053
21 C14752 66.7565 21.2064 65.0222 C.2 0.0 **** -0.1268
22 H14861 66.086 21.7502 58.3733 H 0.0 **** 0.053
23 C14794 69.0332 22.4448 75.2969 C.2 0.0 **** 0.0
24 C14785 72.6916 19.1392 75.3745 C.2 0.0 **** 0.0
25 C14724 65.1938 23.1126 64.7423 C.2 0.0 **** 0.0
26 C14780 71.3898 19.4898 73.318 C.2 0.0 **** 0.0
27 C14777 70.8902 18.8306 70.5987 C.2 0.0 **** 0.0
28 C14668 57.8056 25.8542 49.7569 C.3 0.0 **** -0.106
29 C14679 60.2511 24.4494 51.1456 C.3 0.0 **** -0.106
30 C14742 64.0421 21.0946 58.2508 C.3 0.0 **** 0.107
31 H14892 71.2217 17.7701 68.7306 H 0.0 **** 0.1268
32 C14702 59.8518 27.7317 59.9712 C.2 0.0 **** -0.012
33 H14844 62.4569 23.7034 57.6691 H 0.0 **** 0.1268
34 H14893 72.5027 17.418 70.8126 H 0.0 **** 0.1268
35 H14811 55.8185 28.3037 50.9546 H 0.0 **** 0.053
36 H14882 64.1703 22.5762 70.992 H 0.0 **** 0.053
37 H14874 65.6307 25.202 70.5469 H 0.0 **** 0.053
38 C14718 63.2758 24.327 61.7296 C.2 0.0 **** 0.0
39 C14675 60.303 25.7163 55.2081 C.2 0.0 **** 0.232
40 C14754 65.5578 23.8784 68.9004 C.2 0.0 **** 0.0
41 H14841 57.614 29.9732 56.9295 H 0.0 **** 0.1268
42 N14736 61.7398 27.9247 71.7589 N.3 0.0 **** -0.727
43 C14687 56.7711 30.88 54.6049 C.2 0.0 **** 0.0
44 C14689 57.6325 31.9617 52.5274 C.3 0.0 **** -0.106
45 O14740 65.4159 21.0584 60.2037 O.3 0.0 **** -0.202
46 C14767 69.0859 20.5193 70.5333 C.2 0.0 **** 0.0
47 C14784 73.4587 18.1444 74.6945 C.2 0.0 **** -0.1268
48 H14878 65.3808 23.974 74.2704 H 0.0 **** 0.053
49 C14666 58.5755 27.9674 50.9357 C.3 0.0 **** 0.107
50 H14865 63.0826 17.8797 59.1465 H 0.0 **** 0.053
51 C14737 63.7927 22.8293 59.865 C.2 0.0 **** 0.042
52 C14762 66.3996 23.0748 72.5661 C.3 0.0 **** -0.053
53 C14695 55.0859 29.6292 56.0898 C.3 0.0 **** -0.106
54 H14827 58.5901 32.5162 52.6417 H 0.0 **** 0.053
55 C14721 64.1482 23.5661 62.5644 C.2 0.0 **** 0.0
56 H14846 60.5405 27.581 67.3409 H 0.0 **** 0.053
57 H14872 67.2994 20.3623 64.5955 H 0.0 **** 0.1268
58 C14731 61.9182 28.7447 70.5599 C.3 0.0 **** 0.134
59 H14838 53.4599 30.9473 58.8565 H 0.0 **** 0.053
60 H14829 58.1617 30.4712 50.9665 H 0.0 **** 0.1268
61 H14814 53.653 27.718 47.9385 H 0.0 **** 0.053
62 C14707 61.4776 25.8747 60.1287 C.2 0.0 **** 0.0
63 C14787 70.8671 20.7986 75.3562 C.2 0.0 **** 0.0
64 C14664 54.1026 27.7374 48.9425 C.3 0.0 **** -0.106
65 C14667 58.9846 26.5492 50.4994 C.3 0.0 **** -0.053
66 C14751 66.8907 21.5138 66.3478 C.2 0.0 **** 0.042
67 C14734 64.2764 27.8566 71.7632 C.3 0.0 **** -0.106
68 H14903 68.7394 23.1878 79.8553 H 0.0 **** 0.053
69 C14698 54.5615 32.2107 57.4724 C.3 0.0 **** -0.106
70 H14821 61.9204 23.907 54.1372 H 0.0 **** 0.053
71 C14797 68.5715 23.978 77.2432 C.3 0.0 **** -0.106
72 H14859 62.8881 27.0083 73.2376 H 0.0 **** 0.053
73 H14822 60.3875 23.1941 53.6401 H 0.0 **** 0.053
74 C14688 56.8765 31.9885 53.8154 C.2 0.0 **** 0.0
75 H14806 53.2232 25.753 49.0713 H 0.0 **** 0.053
76 C14728 62.0343 28.6596 66.2633 C.3 0.0 **** 0.107
77 H14804 52.4763 26.6819 51.1221 H 0.0 **** 0.053
78 C14661 56.4407 26.3208 50.2557 C.3 0.0 **** -0.053
79 H14842 59.5146 28.8517 61.7662 H 0.0 **** 0.1268
80 H14826 60.5353 24.5339 50.083 H 0.0 **** 0.053
81 O14725 63.5639 27.065 67.5774 O.3 0.0 **** -0.202
82 C14694 55.8089 30.9067 55.7302 C.2 0.0 **** 0.0
83 S14703 58.6155 28.6839 59.1645 S.2 0.0 **** 0.024
84 H14864 62.2943 19.8468 58.074 H 0.0 **** 0.053
85 H14815 53.5201 28.4643 49.5322 H 0.0 **** 0.053
86 C14677 61.0499 24.0667 53.4848 C.3 0.0 **** -0.106
87 C14776 70.6247 18.5423 69.219 C.2 0.0 **** -0.1268
88 H14803 54.7281 25.1286 52.4087 H 0.0 **** 0.053
89 C14678 61.4668 24.1187 52.0146 C.3 0.0 **** -0.106
90 C14757 67.9198 21.0022 68.4558 C.2 0.0 **** 0.0265
91 H14845 61.9676 26.5094 68.7684 H 0.0 **** 0.053
92 C14682 60.384 26.3819 57.9532 C.2 0.0 **** 0.0
93 H14834 54.7486 29.1495 55.1536 H 0.0 **** 0.053
94 O14801 71.0268 21.6562 79.6252 O.2 0.0 **** -0.419
95 H14896 72.3843 20.6645 78.418 H 0.0 **** 0.1268
96 C14758 67.2053 22.0325 69.0907 C.2 0.0 **** 0.0
97 C14795 70.3078 22.123 77.3743 C.2 0.0 **** 0.052
98 C14735 62.9568 27.8908 72.5842 C.3 0.0 **** 0.081
99 C14673 58.8895 27.6575 54.7001 C.2 0.0 **** 0.0
100 H14863 62.5882 20.458 59.7078 H 0.0 **** 0.053
101 H14886 55.3361 27.8339 58.2978 H 0.0 **** 0.053
102 C14713 63.2634 26.5878 66.3198 C.2 0.0 **** 0.042
103 H14881 63.3968 24.0575 70.4313 H 0.0 **** 0.053
104 H14807 55.6026 25.4922 48.4567 H 0.0 **** 0.053
105 C14771 53.3643 28.4997 57.5721 C.3 0.0 **** -0.053
106 C14674 59.5938 26.8629 55.6786 C.2 0.0 **** 0.0
107 C14730 60.5816 28.963 69.8444 C.3 0.0 **** -0.106
108 O14756 67.7327 20.7283 67.1203 O.3 0.0 **** -0.0685
109 C14789 69.5701 21.1422 73.2811 C.2 0.0 **** 0.0
110 C14655 53.8043 25.0722 51.7988 C.3 0.0 **** 0.054
111 H14833 57.1291 33.4915 56.1574 H 0.0 **** 0.053
112 H14810 56.3621 26.0744 51.3266 H 0.0 **** 0.053
113 C14685 57.532 29.6844 54.2472 C.2 0.0 **** 0.0
114 H14880 63.4237 23.5791 73.0399 H 0.0 **** 0.053
115 C14772 54.2907 27.8968 58.6361 C.3 0.0 **** -0.159
116 H14828 57.0787 32.5505 51.7702 H 0.0 **** 0.053
117 C14659 55.1078 24.1353 50.0689 C.3 0.0 **** 0.054
118 C14749 65.7203 21.687 62.841 C.2 0.0 **** -0.1268
119 C14719 63.0753 23.9747 60.3613 C.2 0.0 **** 0.0
120 H14819 57.8697 26.0922 48.6834 H 0.0 **** 0.053
121 H14871 66.2539 20.8437 62.4053 H 0.0 **** 0.1268
122 H14888 51.9278 29.3329 58.9861 H 0.0 **** 0.053
123 H14835 55.7775 28.904 56.5449 H 0.0 **** 0.053
124 C14770 68.5252 21.7869 72.5874 C.2 0.0 **** 0.0
125 C14709 62.8114 25.8199 63.6621 C.2 0.0 **** 0.0
126 C14711 61.2031 27.6489 63.4078 C.2 0.0 **** -0.1268
127 H14812 56.0571 27.7486 47.965 H 0.0 **** 0.053
128 H14855 64.9336 27.1857 69.7905 H 0.0 **** 0.053
129 C14773 51.943 28.6452 58.1256 C.3 0.0 **** -0.159
130 C14706 61.6928 26.2008 61.4961 C.2 0.0 **** 0.0
131 H14802 52.9747 24.8016 52.4662 H 0.0 **** 0.053
132 C14720 64.3365 23.9013 63.9306 C.2 0.0 **** 0.0
133 C14692 56.1087 33.3556 55.75 C.3 0.0 **** -0.106
134 C14670 59.6131 26.1156 52.916 C.2 0.0 **** 0.0
135 C14793 67.9273 22.9956 74.5979 C.2 0.0 **** -0.1268
136 C14765 64.2376 23.6751 71.0295 C.3 0.0 **** -0.106
137 C14745 63.796 18.7156 59.1932 C.3 0.0 **** -0.106
138 C14672 58.0749 28.0778 52.3846 C.3 0.0 **** -0.053
139 H14849 59.9054 29.7952 67.932 H 0.0 **** 0.053
140 C14747 66.0574 19.5618 58.4274 C.3 0.0 **** -0.106
141 H14858 62.9525 28.7762 73.2423 H 0.0 **** 0.053
142 H14823 61.9149 23.1607 51.7096 H 0.0 **** 0.053
143 H14853 63.572 29.0619 69.1778 H 0.0 **** 0.053
144 O14660 53.9223 23.9965 50.8614 O.3 0.0 **** -0.32
145 H14851 59.9735 29.676 70.4178 H 0.0 **** 0.053
146 C14656 53.544 26.4174 51.0811 C.3 0.0 **** -0.106
147 H14854 63.5644 26.2998 70.46 H 0.0 **** 0.053
148 C14786 71.6494 19.8121 74.683 C.2 0.0 **** 0.0
149 C14693 55.4975 32.0926 56.3053 C.2 0.0 **** 0.0
150 C14788 69.8232 21.4572 74.6467 C.2 0.0 **** 0.0
151 C14699 58.8021 28.2934 57.469 C.2 0.0 **** -0.012
152 C14684 57.8462 29.5021 52.8325 C.2 0.0 **** 0.0
153 H14840 53.6191 32.6922 57.1457 H 0.0 **** 0.053
154 H14818 57.8896 24.7612 49.8488 H 0.0 **** 0.053
155 C14700 58.1303 29.0837 56.5691 C.2 0.0 **** -0.1268
156 H14805 54.0941 27.2207 51.5964 H 0.0 **** 0.053
157 C14799 69.6736 23.5848 79.4167 C.3 0.0 **** -0.086
158 O14665 57.634 28.4747 49.975 O.3 0.0 **** -0.32
159 C14690 57.909 30.5805 52.0199 C.2 0.0 **** -0.1268
160 H14867 64.6248 18.4535 57.2166 H 0.0 **** 0.053
161 O14680 60.9899 24.9225 56.1066 O.3 0.0 **** -0.464
162 C14708 62.5934 25.4524 62.2988 C.2 0.0 **** 0.0
163 H14862 64.0543 21.0659 57.1519 H 0.0 **** 0.053
164 H14887 51.2582 29.0443 57.3608 H 0.0 **** 0.053
165 C14716 62.1782 24.7657 59.5451 C.2 0.0 **** 0.0
166 C14746 64.9855 18.4653 58.2594 C.3 0.0 **** -0.106
167 C14658 55.3119 25.5704 49.5177 C.3 0.0 **** -0.053
168 H14856 64.6966 28.8714 71.6755 H 0.0 **** 0.053
169 C14696 53.8865 29.8428 57.0202 C.3 0.0 **** -0.053
170 H14850 60.0201 28.0114 69.829 H 0.0 **** 0.053
171 H14847 62.9683 29.2008 66.5207 H 0.0 **** 0.053
172 C14750 66.1793 22.6043 66.9373 C.2 0.0 **** 0.0
173 H14831 55.1617 33.2719 53.7986 H 0.0 **** 0.053
174 C14759 65.5659 24.1149 70.3874 C.3 0.0 **** -0.053
175 H14875 67.5573 24.2446 71.2039 H 0.0 **** 0.053
176 H14879 63.7701 25.2181 72.4776 H 0.0 **** 0.053
177 C14781 72.1699 18.4867 72.6569 C.2 0.0 **** 0.0
178 C14662 56.339 27.8633 50.0823 C.3 0.0 **** 0.107
179 C14676 60.3201 25.3189 53.8999 C.2 0.0 **** 0.0
180 H14817 59.7765 26.67 49.7355 H 0.0 **** 0.053
181 H14852 62.2717 29.7265 70.9185 H 0.0 **** 0.053
182 H14885 54.2726 28.5063 59.5529 H 0.0 **** 0.053
183 C14701 60.5683 26.6571 59.3322 C.2 0.0 **** 0.0
184 C14782 71.9009 18.1795 71.3135 C.2 0.0 **** -0.1268
185 H14857 65.0309 27.2431 72.281 H 0.0 **** 0.053
186 C14796 69.3336 22.817 76.644 C.2 0.0 **** 0.0
187 C14714 63.8617 25.3756 65.8627 C.2 0.0 **** 0.0
188 H14816 59.4475 28.632 50.8481 H 0.0 **** 0.053
189 H14891 69.4877 18.9957 67.4651 H 0.0 **** 0.1268
190 H14895 74.2573 17.6422 75.244 H 0.0 **** 0.1268
191 C14686 58.1207 28.8145 55.1671 C.2 0.0 **** 0.0
192 H14873 64.207 25.4735 68.5774 H 0.0 **** 0.1268
193 H14870 66.7511 19.3034 59.2421 H 0.0 **** 0.053
194 C14753 66.3046 22.8487 68.3132 C.2 0.0 **** 0.0
195 C14683 59.5787 27.1643 57.0458 C.2 0.0 **** 0.0
196 H14883 53.3253 27.8004 56.7169 H 0.0 **** 0.053
197 H14830 56.7144 34.127 53.7962 H 0.0 **** 0.053
198 H14900 67.5897 23.6291 77.6155 H 0.0 **** 0.053
199 C14760 66.7649 23.4739 71.1238 C.3 0.0 **** -0.053
200 H14832 55.5188 34.2314 56.0626 H 0.0 **** 0.053
201 C14792 72.9394 19.4834 76.7222 C.2 0.0 **** -0.1268
202 C14741 65.4621 20.9301 58.766 C.3 0.0 **** 0.107
203 H14897 73.754 18.9832 77.2502 H 0.0 **** 0.1268
204 H14904 70.2757 23.9662 80.2536 H 0.0 **** 0.053
205 C14748 65.8964 21.9904 64.191 C.2 0.0 **** 0.0
206 C14798 69.3396 24.6432 78.3787 C.3 0.0 **** -0.106
207 C14712 62.4509 27.3851 65.536 C.2 0.0 **** 0.0
208 H14890 61.6375 29.9359 64.8421 H 0.0 **** 0.41
209 H14860 61.4804 26.9772 71.4816 H 0.0 **** 0.353
210 C14733 64.0045 27.3073 70.3637 C.3 0.0 **** -0.106
211 C14791 72.1813 20.4306 77.3784 C.2 0.0 **** -0.1268
212 O14774 61.1526 29.563 65.5944 O.3 0.0 **** -0.57
213 H14894 73.7971 17.065 72.8733 H 0.0 **** 0.1268
214 C14710 62.1367 26.9716 64.2074 C.2 0.0 **** 0.0
215 C14768 68.8786 20.2371 69.1465 C.2 0.0 **** 0.0
216 C14779 70.3589 20.1537 72.6124 C.2 0.0 **** 0.0
217 H14876 65.7903 22.1512 72.4954 H 0.0 **** 0.053
218 C14739 64.8598 22.4469 62.0352 C.2 0.0 **** 0.0
219 C14722 64.6507 24.5144 66.7085 C.2 0.0 **** 0.0
220 C14766 68.3147 21.5194 71.1905 C.2 0.0 **** 0.0
221 H14839 55.0012 32.9036 58.2128 H 0.0 **** 0.053
222 H14837 55.1623 30.496 58.6366 H 0.0 **** 0.053
223 H14902 70.2679 25.0817 77.9773 H 0.0 **** 0.053
224 C14717 61.9544 24.5144 58.1755 C.2 0.0 **** -0.1268
225 H14836 53.0712 30.2943 56.4245 H 0.0 **** 0.053
226 C14778 70.1015 19.8309 71.2537 C.2 0.0 **** 0.0
227 H14843 60.6077 28.4509 63.833 H 0.0 **** 0.1268
228 C14657 53.9844 26.3408 49.6046 C.3 0.0 **** -0.053
229 C14705 60.9838 27.2952 62.0801 C.2 0.0 **** 0.0
230 H14898 67.2505 23.6689 75.117 H 0.0 **** 0.1268
231 C14755 64.7596 24.6779 68.1031 C.2 0.0 **** -0.1268
232 C14729 60.8246 29.426 68.4041 C.3 0.0 **** -0.106
233 C14727 61.3792 28.2505 67.5903 C.3 0.0 **** -0.053
234 H14868 65.4339 17.4785 58.4468 H 0.0 **** 0.053
235 H14820 57.0849 27.5822 52.4481 H 0.0 **** 0.053
236 H14813 55.5991 29.3074 48.6672 H 0.0 **** 0.053
237 C14769 67.6505 22.6605 73.2914 C.2 0.0 **** 0.0
238 H14889 51.5504 27.676 58.4688 H 0.0 **** 0.053
239 C14726 62.4261 27.4467 68.4013 C.3 0.0 **** 0.107
240 C14761 67.4063 22.2904 70.4494 C.2 0.0 **** 0.0
241 H14825 59.5333 23.6064 51.1992 H 0.0 **** 0.053
242 C14790 71.1147 21.1094 76.7263 C.2 0.0 **** 0.0
243 C14723 65.3424 23.4141 66.1195 C.2 0.0 **** 0.0
244 H14848 61.5438 30.2629 68.394 H 0.0 **** 0.053
245 H14824 62.2298 24.9023 51.8788 H 0.0 **** 0.053
246 H14866 64.1617 18.777 60.2289 H 0.0 **** 0.053
247 C14738 64.6778 22.1237 60.6656 C.2 0.0 **** 0.042
248 C14691 56.186 33.2598 54.2235 C.3 0.0 **** -0.106
249 C14697 54.2628 30.8536 58.1093 C.3 0.0 **** -0.106
250 C14715 63.6729 25.0425 64.4921 C.2 0.0 **** 0.0
@<TRIPOS>BOND
1 233 232 1
2 174 37 1
3 140 166 1
4 228 146 1
5 167 228 1
6 117 167 1
7 144 117 1
8 110 146 1
9 110 144 1
10 178 78 1
11 12 178 1
12 64 12 1
13 167 78 1
14 228 64 1
15 49 158 1
16 65 49 1
17 28 65 1
18 178 158 1
19 78 28 1
20 134 18 un
21 1 134 un
22 138 1 un
23 65 18 1
24 49 138 1
25 106 99 1
26 39 106 un
27 179 39 un
28 1 99 un
29 134 179 un
30 89 86 1
31 29 89 1
32 18 29 1
33 179 86 1
34 5 161 1
35 92 5 un
36 195 92 un
37 39 161 1
38 106 195 un
39 113 152 un
40 191 113 2
41 138 152 1
42 99 191 un
43 74 43 2
44 44 74 1
45 159 44 1
46 113 43 1
47 152 159 2
48 133 248 1
49 149 133 1
50 82 149 2
51 74 248 1
52 43 82 1
53 169 53 1
54 249 169 1
55 69 249 1
56 82 53 1
57 149 69 1
58 155 151 un
59 191 155 un
60 195 151 un
61 32 183 un
62 83 32 1
63 151 83 un
64 92 183 un
65 229 3 un
66 130 229 un
67 62 130 un
68 32 3 un
69 183 62 un
70 125 162 un
71 214 125 un
72 126 214 un
73 130 162 un
74 229 126 un
75 102 207 un
76 187 102 un
77 250 187 un
78 214 207 un
79 125 250 un
80 224 165 un
81 5 224 un
82 62 165 un
83 119 38 un
84 165 119 un
85 162 38 un
86 55 132 un
87 38 55 un
88 250 132 un
89 243 219 un
90 25 243 un
91 132 25 un
92 187 219 un
93 239 81 1
94 233 239 1
95 76 233 1
96 102 81 1
97 207 76 1
98 107 232 1
99 58 107 1
100 4 58 1
101 239 4 1
102 67 210 1
103 98 67 1
104 42 98 1
105 4 210 1
106 58 42 1
107 247 51 un
108 218 247 un
109 55 218 un
110 119 51 un
111 202 45 1
112 30 202 1
113 2 30 1
114 247 45 1
115 51 2 1
116 137 15 1
117 166 137 1
118 30 15 1
119 202 140 1
120 118 205 un
121 218 118 un
122 25 205 un
123 66 172 un
124 21 66 un
125 205 21 un
126 243 172 un
127 40 194 un
128 231 40 un
129 219 231 un
130 172 194 un
131 90 108 1
132 96 90 un
133 66 108 1
134 194 96 1
135 199 174 1
136 240 199 1
137 40 174 1
138 96 240 un
139 17 52 1
140 9 17 1
141 136 9 1
142 199 52 1
143 174 136 1
144 46 220 1
145 215 46 1
146 90 215 un
147 240 220 un
148 52 237 1
149 220 124 un
150 237 124 un
151 169 105 1
152 105 115 1
153 105 129 1
154 76 212 1
155 87 6 1
156 27 87 un
157 226 27 1
158 215 6 un
159 46 226 un
160 26 216 un
161 177 26 1
162 184 177 un
163 226 216 un
164 27 184 un
165 47 8 un
166 24 47 1
167 148 24 1
168 177 8 un
169 26 148 un
170 150 63 un
171 109 150 un
172 216 109 un
173 148 63 un
174 211 242 un
175 201 211 un
176 24 201 un
177 63 242 un
178 23 135 un
179 150 23 un
180 124 109 un
181 237 135 un
182 186 97 un
183 23 186 un
184 242 97 un
185 206 71 1
186 157 206 1
187 13 157 1
188 186 71 1
189 97 13 1
190 13 94 2
191 110 131 1
192 110 88 1
193 146 77 1
194 146 156 1
195 228 75 1
196 167 104 1
197 117 16 1
198 117 19 1
199 78 112 1
200 178 35 1
201 12 127 1
202 12 236 1
203 64 61 1
204 64 85 1
205 49 188 1
206 65 180 1
207 28 154 1
208 28 120 1
209 138 235 1
210 86 70 1
211 86 73 1
212 89 142 1
213 89 245 1
214 29 241 1
215 29 80 1
216 44 54 1
217 44 116 1
218 159 60 1
219 248 197 1
220 248 173 1
221 133 200 1
222 133 111 1
223 53 93 1
224 53 123 1
225 169 225 1
226 249 222 1
227 249 59 1
228 69 221 1
229 69 153 1
230 155 41 1
231 3 79 1
232 126 227 1
233 224 33 1
234 239 91 1
235 233 56 1
236 76 171 1
237 232 244 1
238 232 139 1
239 107 170 1
240 107 145 1
241 58 181 1
242 4 143 1
243 210 147 1
244 210 128 1
245 67 168 1
246 67 185 1
247 98 141 1
248 98 72 1
249 42 209 1
250 202 22 1
251 30 163 1
252 15 100 1
253 15 84 1
254 137 50 1
255 137 246 1
256 166 160 1
257 166 234 1
258 140 7 1
259 140 193 1
260 118 121 1
261 21 57 1
262 231 192 1
263 199 175 1
264 52 217 1
265 17 11 1
266 17 48 1
267 9 176 1
268 9 114 1
269 136 103 1
270 136 36 1
271 105 196 1
272 115 14 1
273 115 182 1
274 115 101 1
275 129 164 1
276 129 122 1
277 129 238 1
278 212 208 1
279 6 189 1
280 87 31 1
281 184 34 1
282 8 213 1
283 47 190 1
284 211 95 1
285 201 203 1
286 135 230 1
287 71 10 1
288 71 198 1
289 206 20 1
290 206 223 1
291 157 68 1
292 157 204 1
@<TRIPOS>MOLECULE
Sketch 4
130 142
SMALL
USER_CHARGES


@<TRIPOS>ATOM
1 C9933 30.6393 -2.32896 68.7122 C.ar 0.0 **** 0.0
2 C9887 37.3288 10.7239 62.0426 C.3 0.0 **** -0.106
3 C9910 36.3624 4.16948 65.6313 C.ar 0.0 **** 0.042
4 C9882 37.8835 14.1197 60.3969 C.ar 0.0 **** 0.0
5 C9928 30.2703 -1.05279 68.2479 C.ar 0.0 **** 0.0
6 O9946 32.9537 7.01337 63.7764 O.2 0.0 **** -0.419
7 C9923 27.7172 3.34488 66.8866 C.3 0.0 **** -0.106
8 H9965 27.6951 4.05324 67.7344 H 0.0 **** 0.053
9 C9888 38.7074 10.1519 61.8882 C.ar 0.0 **** 0.0
10 C9934 34.2912 14.7068 61.5825 C.3 0.0 **** -0.106
11 C9897 39.5006 6.49369 63.8912 C.ar 0.0 **** 0.0
12 H9966 27.4536 3.93822 65.9974 H 0.0 **** 0.053
13 C9881 36.6605 14.7521 60.6873 C.ar 0.0 **** 0.0
14 C9913 32.2648 5.0889 64.9769 C.ar 0.0 **** 0.0
15 H9986 33.8825 12.4738 62.6732 H 0.0 **** 0.053
16 H9977 34.1106 15.4804 60.8237 H 0.0 **** 0.053
17 C9889 39.6942 10.803 61.1824 C.ar 0.0 **** 0.0
18 C9907 35.6851 6.4972 64.1759 C.ar 0.0 **** 0.042
19 H9991 42.6264 11.6867 60.9081 H 0.0 **** 0.053
20 H9992 41.6011 11.5665 59.4715 H 0.0 **** 0.053
21 H9953 40.2494 12.8254 60.8023 H 0.0 **** 0.053
22 H9995 43.0021 7.80334 61.0754 H 0.0 **** 0.053
23 C9924 26.6631 2.25391 67.1045 C.3 0.0 **** -0.106
24 C9937 34.8241 11.9321 62.5379 C.3 0.0 **** -0.159
25 H10005 29.4394 -2.4107 70.5154 H 0.0 **** 0.053
26 C9902 37.0803 6.20073 64.397 C.ar 0.0 **** 0.0
27 C9917 30.1613 3.62833 66.2646 C.ar 0.0 **** 0.0
28 H10007 28.8056 -3.38931 69.1855 H 0.0 **** 0.053
29 H9999 42.4751 3.49145 67.1548 H 0.0 **** 0.053
30 H9963 28.9044 5.2858 65.6697 H 0.0 **** 0.053
31 C9938 38.9515 14.8559 59.6196 C.3 0.0 **** -0.159
32 H9996 41.4825 5.43421 63.0046 H 0.0 **** 0.41
33 O9947 34.3227 2.54964 66.5689 O.2 0.0 **** -0.419
34 C9948 29.7366 -3.06078 69.6783 C.3 0.0 **** -0.159
35 C9908 34.6722 5.64952 64.6849 C.ar 0.0 **** 0.052
36 H10009 33.2437 -4.55071 68.2665 H 0.0 **** 0.053
37 C9942 42.6236 4.57133 67.3154 C.3 0.0 **** -0.159
38 H9983 36.005 16.3014 59.3013 H 0.0 **** 0.053
39 H9959 41.4634 4.17426 65.1146 H 0.0 **** 0.053
40 H9979 34.3217 14.562 63.7591 H 0.0 **** 0.053
41 H9971 28.1005 -0.11979 66.7897 H 0.0 **** 0.053
42 C9900 38.784 4.82948 65.5438 C.2 0.0 **** 0.0
43 C9920 30.7584 1.03752 66.97 C.ar 0.0 **** 0.2405
44 C9909 35.0048 4.47807 65.4041 C.ar 0.0 **** 0.052
45 C9898 40.4759 7.0633 63.0351 C.ar 0.0 **** 0.042
46 C9896 38.1468 6.99006 63.8104 C.ar 0.0 **** 0.0
47 H10008 32.4223 -4.3125 69.8265 H 0.0 **** 0.053
48 H9984 35.1941 11.6609 63.5405 H 0.0 **** 0.053
49 H9956 39.8079 3.14238 66.4402 H 0.0 **** 0.053
50 H9987 39.6282 14.1672 59.0986 H 0.0 **** 0.053
51 O9944 36.6717 3.02435 66.2268 O.3 0.0 **** -0.452
52 C9935 34.2004 15.3327 62.9833 C.3 0.0 **** -0.159
53 H9980 33.2326 15.8343 63.1392 H 0.0 **** 0.053
54 H9978 35.0026 16.0726 63.1269 H 0.0 **** 0.053
55 C9949 32.2888 -4.27281 68.7329 C.3 0.0 **** -0.159
56 N9919 31.7334 1.80316 66.4684 N.ar 0.0 **** -0.481
57 C9905 41.3705 5.35491 66.9117 C.ar 0.0 **** -0.053
58 H9973 28.2447 -1.13341 69.0019 H 0.0 **** 0.053
59 H9950 37.0554 10.6855 63.1116 H 0.0 **** 0.053
60 H9975 33.6244 -2.61667 67.0863 H 0.0 **** 0.1268
61 H9981 37.4102 16.7493 60.2848 H 0.0 **** 0.053
62 H9972 29.2059 0.215096 69.6154 H 0.0 **** 0.053
63 C9890 39.4307 12.1367 60.5329 C.3 0.0 **** -0.106
64 H9958 41.5502 6.41948 67.1297 H 0.0 **** 0.053
65 H9982 35.7987 16.7204 61.0112 H 0.0 **** 0.053
66 C9914 33.2925 5.97358 64.4482 C.2 0.0 **** 0.367
67 C9904 40.0783 4.92551 67.6535 C.ar 0.0 **** -0.053
68 H10006 30.2197 -3.95044 70.0984 H 0.0 **** 0.053
69 H9960 41.9503 5.86626 64.906 H 0.0 **** 0.053
70 C9927 28.9975 -0.38793 68.7102 C.3 0.0 **** -0.106
71 C9931 32.6807 -2.17212 67.4099 C.ar 0.0 **** -0.1268
72 C9932 31.8534 -2.90196 68.2781 C.ar 0.0 **** 0.0
73 H9968 25.7103 2.71497 67.4058 H 0.0 **** 0.053
74 C9916 29.9559 5.07452 65.9002 C.3 0.0 **** -0.106
75 H9955 38.3629 3.64574 67.3117 H 0.0 **** 0.053
76 H9964 30.2209 5.70934 66.7669 H 0.0 **** 0.053
77 C9929 31.1196 -0.331299 67.3831 C.ar 0.0 **** 0.0
78 H9998 43.4832 4.88487 66.7031 H 0.0 **** 0.053
79 H10004 34.2407 7.52263 63.4826 H 0.0 **** 0.41
80 C9886 35.6289 14.0405 61.3382 C.ar 0.0 **** 0.0
81 C9906 41.2024 5.2188 65.3736 C.3 0.0 **** -0.106
82 C9903 39.2155 4.02422 66.7475 C.3 0.0 **** -0.106
83 H10001 40.9161 4.91524 69.6737 H 0.0 **** 0.053
84 H9993 43.0219 8.21045 62.7887 H 0.0 **** 0.053
85 C9885 35.8634 12.7267 61.7826 C.ar 0.0 **** 0.0
86 H9976 33.4797 13.9756 61.4534 H 0.0 **** 0.053
87 C9895 37.9387 8.18439 63.1226 C.ar 0.0 **** -0.1268
88 H9954 36.9346 8.57078 63.0598 H 0.0 **** 0.1268
89 H9967 26.4801 1.72706 66.1531 H 0.0 **** 0.053
90 H9969 26.3568 0.502426 68.3707 H 0.0 **** 0.053
91 H9952 39.5273 12.0204 59.4355 H 0.0 **** 0.053
92 C9918 31.46 3.07493 66.1446 C.ar 0.0 **** 0.2405
93 C9921 29.4314 1.49377 67.121 C.ar 0.0 **** 0.0
94 C9901 37.4121 5.06389 65.1909 C.ar 0.0 **** 0.0
95 H9990 42.7772 10.2928 59.8198 H 0.0 **** 0.053
96 C9925 27.1413 1.24183 68.1444 C.3 0.0 **** -0.106
97 H10000 39.3562 4.07041 69.5146 H 0.0 **** 0.053
98 C9911 33.9823 3.58523 65.9143 C.2 0.0 **** 0.367
99 H10002 40.8459 3.31016 68.9102 H 0.0 **** 0.053
100 H9970 27.3803 1.76359 69.0879 H 0.0 **** 0.053
101 H10010 31.5435 -5.0419 68.4741 H 0.0 **** 0.053
102 C9943 40.3162 4.26879 69.0153 C.3 0.0 **** -0.159
103 H10003 35.7182 2.61275 66.4813 H 0.0 **** 0.41
104 H9974 32.9897 -0.319846 66.3247 H 0.0 **** 0.1268
105 C9939 42.056 10.9804 60.2794 C.3 0.0 **** -0.159
106 H9994 43.4599 9.4436 61.5951 H 0.0 **** 0.053
107 C9894 38.9798 8.88937 62.4995 C.ar 0.0 **** 0.0
108 C9930 32.3321 -0.900779 66.9713 C.ar 0.0 **** -0.1268
109 C9883 38.1088 12.7992 60.8338 C.ar 0.0 **** 0.0
110 H9985 34.6001 10.9799 62.0293 H 0.0 **** 0.053
111 H9962 30.4944 4.90911 63.8112 H 0.0 **** 0.053
112 C9891 41.0106 10.2375 61.0813 C.ar 0.0 **** 0.0
113 C9926 28.3944 0.525867 67.6418 C.3 0.0 **** -0.053
114 C9936 36.4588 16.2027 60.3031 C.3 0.0 **** -0.159
115 H9997 42.8832 4.72467 68.3719 H 0.0 **** 0.053
116 C9915 30.8337 5.45539 64.7113 C.3 0.0 **** -0.106
117 O9941 41.6183 6.35606 62.7336 O.3 0.0 **** -0.452
118 H9988 39.5739 15.4845 60.2809 H 0.0 **** 0.053
119 H9951 36.5986 10.044 61.5618 H 0.0 **** 0.053
120 C9893 40.303 8.32843 62.4212 C.ar 0.0 **** 0.0
121 H9989 38.5121 15.5203 58.8634 H 0.0 **** 0.053
122 C9922 29.1261 2.80997 66.7459 C.ar 0.0 **** 0.0
123 C9899 39.8025 5.49785 64.8776 C.2 0.0 **** 0.0
124 O9945 35.3032 7.56981 63.4876 O.3 0.0 **** -0.452
125 H9957 39.4823 5.83687 67.8256 H 0.0 **** 0.053
126 C9940 42.7811 8.60693 61.7953 C.3 0.0 **** -0.159
127 H9961 30.7649 6.52486 64.4756 H 0.0 **** 0.053
128 C9912 32.5669 3.93181 65.6673 C.ar 0.0 **** 0.0
129 C9884 37.1113 12.1196 61.5365 C.ar 0.0 **** 0.0
130 C9892 41.3369 9.05214 61.7324 C.ar 0.0 **** 0.0
@<TRIPOS>BOND
1 52 53 1
2 109 4 am
3 129 109 am
4 85 129 am
5 80 85 am
6 13 4 am
7 13 80 am
8 9 2 1
9 17 9 am
10 63 17 1
11 129 2 1
12 109 63 1
13 130 112 am
14 120 130 am
15 107 120 am
16 17 112 am
17 9 107 am
18 46 87 am
19 11 46 am
20 45 11 am
21 107 87 am
22 120 45 am
23 42 123 1
24 94 42 1
25 26 94 am
26 11 123 1
27 46 26 am
28 67 82 1
29 57 67 am
30 81 57 1
31 42 82 1
32 123 81 1
33 35 18 am
34 44 35 am
35 3 44 am
36 26 18 am
37 94 3 am
38 128 98 1
39 14 128 am
40 66 14 1
41 44 98 1
42 35 66 1
43 74 116 1
44 27 74 1
45 92 27 am
46 14 116 1
47 128 92 am
48 43 56 am
49 93 43 am
50 122 93 am
51 92 56 am
52 27 122 am
53 23 7 1
54 96 23 1
55 113 96 1
56 122 7 1
57 93 113 1
58 5 70 1
59 77 5 am
60 43 77 am
61 113 70 1
62 71 108 am
63 72 71 am
64 1 72 am
65 77 108 am
66 5 1 am
67 80 10 1
68 10 52 1
69 13 114 1
70 85 24 1
71 4 31 1
72 112 105 1
73 130 126 1
74 45 117 1
75 57 37 1
76 67 102 1
77 3 51 1
78 18 124 1
79 66 6 2
80 98 33 2
81 1 34 1
82 72 55 1
83 2 59 1
84 2 119 1
85 63 91 1
86 63 21 1
87 87 88 1
88 82 75 1
89 82 49 1
90 67 125 1
91 57 64 1
92 81 39 1
93 81 69 1
94 116 127 1
95 116 111 1
96 74 30 1
97 74 76 1
98 7 8 1
99 7 12 1
100 23 89 1
101 23 73 1
102 96 90 1
103 96 100 1
104 113 41 1
105 70 62 1
106 70 58 1
107 108 104 1
108 71 60 1
109 10 86 1
110 10 16 1
111 52 54 1
112 52 40 1
113 114 61 1
114 114 65 1
115 114 38 1
116 24 48 1
117 24 110 1
118 24 15 1
119 31 50 1
120 31 118 1
121 31 121 1
122 105 95 1
123 105 19 1
124 105 20 1
125 126 84 1
126 126 106 1
127 126 22 1
128 117 32 1
129 37 115 1
130 37 78 1
131 37 29 1
132 102 97 1
133 102 83 1
134 102 99 1
135 51 103 1
136 124 79 1
137 34 25 1
138 34 68 1
139 34 28 1
140 55 47 1
141 55 36 1
142 55 101 1
@<TRIPOS>MOLECULE
Sketch 4
130 142
SMALL
USER_CHARGES


@<TRIPOS>ATOM
1 H4110 51.8473 34.5848 17.9322 H 0.0 **** 0.053
2 C4033 54.3509 26.4857 20.6786 C.ar 0.0 **** 0.0
3 C4092 50.842 37.1343 18.5839 C.3 0.0 **** -0.159
4 C4031 55.0274 24.8196 22.3217 C.ar 0.0 **** 0.0
5 C4087 56.9214 28.0976 22.9676 C.3 0.0 **** -0.159
6 C4051 55.9918 35.2014 19.8724 C.ar 0.0 **** 0.0
7 H4102 53.8532 26.2669 18.6102 H 0.0 **** 0.053
8 H4107 53.0001 36.3459 21.1236 H 0.0 **** 0.053
9 C4072 63.4572 37.5909 23.708 C.ar 0.0 **** 0.0
10 H4139 53.7881 23.1506 20.583 H 0.0 **** 0.053
11 H4135 57.6099 28.5066 22.21 H 0.0 **** 0.053
12 C4050 54.7428 35.6615 19.3337 C.2 0.0 **** 0.0
13 C4032 54.2654 25.1772 21.1941 C.ar 0.0 **** 0.0
14 H4111 61.5879 33.3464 23.3471 H 0.0 **** 0.053
15 C4034 55.2042 27.4147 21.2783 C.ar 0.0 **** 0.0
16 H4151 51.401 38.2833 21.2225 H 0.0 **** 0.053
17 C4062 60.4471 36.1818 21.9151 C.ar 0.0 **** 0.0
18 C4041 52.5657 28.7469 18.0817 C.ar 0.0 **** 0.0
19 C4083 63.1392 42.877 21.5819 C.ar 0.0 **** 0.0
20 C4093 52.3706 38.3456 20.7056 C.3 0.0 **** -0.159
21 C4081 61.7529 42.0183 19.785 C.ar 0.0 **** -0.1268
22 C4058 58.3777 34.3166 21.1492 C.ar 0.0 **** 0.052
23 H4125 61.1853 42.1978 18.8693 H 0.0 **** 0.1268
24 H4100 55.1759 29.5169 21.6258 H 0.0 **** 0.053
25 C4080 61.7923 40.7418 20.3319 C.ar 0.0 **** -0.1268
26 C4035 56.0119 27.048 22.3735 C.ar 0.0 **** 0.0
27 C4039 53.4979 28.3182 19.0868 C.ar 0.0 **** 0.0
28 C4098 63.8345 44.0164 22.2907 C.3 0.0 **** -0.159
29 H4160 63.3252 44.8681 19.5239 H 0.0 **** 0.053
30 H4123 64.7428 42.0346 23.5733 H 0.0 **** 0.053
31 C4089 51.6843 27.7083 17.4244 C.3 0.0 **** -0.159
32 C4045 55.2231 31.4998 19.8645 C.ar 0.0 **** -0.1268
33 C4059 58.2213 35.6918 20.8585 C.ar 0.0 **** 0.052
34 H4143 50.8743 31.4767 17.2116 H 0.0 **** 0.053
35 H4140 51.4395 27.9815 16.3902 H 0.0 **** 0.053
36 C4052 56.185 33.806 20.0925 C.ar 0.0 **** 0.0
37 H4154 58.5581 32.0889 21.53 H 0.0 **** 0.41
38 H4121 65.3083 39.849 22.6536 H 0.0 **** 0.053
39 H4120 64.5144 39.8065 25.6058 H 0.0 **** 0.053
40 H4138 52.3733 24.1145 21.038 H 0.0 **** 0.053
41 H4124 61.25 39.9108 19.881 H 0.0 **** 0.1268
42 O4094 56.9519 37.4056 19.8483 O.3 0.0 **** -0.452
43 C4063 60.5714 34.8371 22.2035 C.ar 0.0 **** 0.0
44 H4126 57.8048 25.7747 23.9591 H 0.0 **** 0.053
45 O4097 59.0487 37.8934 20.9555 O.2 0.0 **** -0.419
46 C4037 55.2972 28.8249 20.7741 C.3 0.0 **** -0.106
47 C4075 65.2261 39.6071 24.7852 C.3 0.0 **** -0.106
48 C4043 53.3478 31.0427 18.3229 C.ar 0.0 **** 0.0
49 H4148 50.1989 36.5405 17.9161 H 0.0 **** 0.053
50 H4127 56.9751 24.2367 24.0298 H 0.0 **** 0.053
51 H4115 63.9559 37.1909 25.7482 H 0.0 **** 0.053
52 H4117 66.3419 37.9495 23.982 H 0.0 **** 0.053
53 C4056 52.5533 35.351 18.2665 C.3 0.0 **** -0.106
54 H4104 55.9979 31.1195 20.51 H 0.0 **** 0.1268
55 H4103 52.4765 26.5329 19.6453 H 0.0 **** 0.053
56 H4158 61.841 45.1901 20.4332 H 0.0 **** 0.053
57 H4132 55.0201 23.4619 24.0182 H 0.0 **** 0.053
58 C4055 51.8232 36.2211 19.3259 C.ar 0.0 **** -0.053
59 H4153 57.8348 37.8462 20.2601 H 0.0 **** 0.41
60 C4047 54.143 33.359 18.7396 C.ar 0.0 **** 0.0
61 H4156 63.5577 44.9907 21.8719 H 0.0 **** 0.053
62 H4155 63.5878 44.0273 23.3633 H 0.0 **** 0.053
63 C4057 57.3878 33.3799 20.7671 C.ar 0.0 **** 0.042
64 H4130 56.8185 25.3849 26.2467 H 0.0 **** 0.053
65 C4046 55.1944 32.8678 19.5993 C.ar 0.0 **** 0.0
66 C4044 54.2955 30.603 19.313 C.ar 0.0 **** 0.0
67 C4065 61.7981 34.3272 22.9022 C.3 0.0 **** -0.106
68 C4049 53.8621 34.765 18.7433 C.2 0.0 **** 0.0
69 C4088 53.3577 24.1601 20.5393 C.3 0.0 **** -0.159
70 H4129 56.0668 26.8065 25.4703 H 0.0 **** 0.053
71 N4069 61.6005 38.3034 21.7248 N.ar 0.0 **** -0.481
72 C4073 64.4668 37.2072 24.7685 C.3 0.0 **** -0.106
73 C4086 54.8599 23.4443 22.9323 C.3 0.0 **** -0.159
74 C4042 52.4433 30.0897 17.7392 C.ar 0.0 **** 0.0
75 C4048 53.3991 32.4177 17.9851 C.ar 0.0 **** 0.042
76 H4114 61.5328 35.4001 24.758 H 0.0 **** 0.053
77 H4112 62.5907 34.1701 22.1466 H 0.0 **** 0.053
78 H4128 55.1922 25.2645 25.5184 H 0.0 **** 0.053
79 H4136 57.5209 27.7242 23.8041 H 0.0 **** 0.053
80 C4038 54.3313 29.2276 19.6987 C.ar 0.0 **** 0.0
81 C4085 56.19 25.7152 25.405 C.3 0.0 **** -0.159
82 H4141 50.7311 27.5797 17.9671 H 0.0 **** 0.053
83 O4096 59.7519 32.6164 22.0763 O.2 0.0 **** -0.419
84 H4142 52.1721 26.7262 17.3974 H 0.0 **** 0.053
85 C4036 55.9392 25.7396 22.8845 C.ar 0.0 **** 0.0
86 H4118 66.2528 37.9409 25.7512 H 0.0 **** 0.053
87 C4076 64.5395 39.897 23.4511 C.3 0.0 **** -0.053
88 C4078 63.2038 41.5797 22.1233 C.ar 0.0 **** 0.0
89 O4091 52.7364 32.823 16.8482 O.3 0.0 **** -0.452
90 C4067 62.4477 36.6953 23.3186 C.ar 0.0 **** 0.0
91 C4084 56.8068 25.322 24.0533 C.3 0.0 **** -0.106
92 H4152 52.2594 39.0445 19.8631 H 0.0 **** 0.053
93 H4122 63.2404 41.4143 24.2638 H 0.0 **** 0.053
94 C4070 62.5327 39.1734 22.1279 C.ar 0.0 **** 0.2405
95 C4053 54.2094 37.0619 19.5286 C.3 0.0 **** -0.106
96 C4061 59.2341 36.664 21.2218 C.2 0.0 **** 0.367
97 C4090 51.302 30.5336 16.8514 C.3 0.0 **** -0.159
98 C4064 59.5632 33.8599 21.8205 C.2 0.0 **** 0.367
99 H4137 53.1739 24.3937 19.4833 H 0.0 **** 0.053
100 H4101 56.33 29.0196 20.4248 H 0.0 **** 0.053
101 C4054 52.8386 36.9687 20.2284 C.ar 0.0 **** -0.053
102 H4145 51.6251 30.7124 15.8138 H 0.0 **** 0.053
103 H4144 50.5006 29.7862 16.8374 H 0.0 **** 0.053
104 H4157 64.9315 43.9227 22.2182 H 0.0 **** 0.053
105 C4068 61.5336 37.1019 22.3154 C.ar 0.0 **** 0.2405
106 H4109 52.7598 36.0086 17.3998 H 0.0 **** 0.053
107 H4133 55.5754 22.7182 22.508 H 0.0 **** 0.053
108 H4159 61.7449 44.4258 18.8297 H 0.0 **** 0.053
109 C4060 57.0533 36.1297 20.1995 C.ar 0.0 **** 0.042
110 H4147 50.1943 37.6914 19.2747 H 0.0 **** 0.053
111 H4134 56.3359 28.9546 23.3398 H 0.0 **** 0.053
112 C4082 62.4156 43.0976 20.3909 C.ar 0.0 **** 0.0
113 H4113 63.2106 34.9838 24.4 H 0.0 **** 0.053
114 C4077 63.9388 41.3033 23.4115 C.3 0.0 **** -0.106
115 C4099 62.3273 44.465 19.7601 C.3 0.0 **** -0.159
116 H4149 51.3848 37.8646 17.9626 H 0.0 **** 0.053
117 H4116 64.8129 36.1762 24.5973 H 0.0 **** 0.053
118 H4119 66.079 40.2911 24.9202 H 0.0 **** 0.053
119 H4146 53.065 33.7031 16.6052 H 0.0 **** 0.41
120 H4105 54.8846 37.676 20.1247 H 0.0 **** 0.053
121 O4095 57.6092 32.0988 21.0498 O.3 0.0 **** -0.452
122 C4079 62.5234 40.51 21.5048 C.ar 0.0 **** 0.0
123 C4040 53.5158 26.864 19.4801 C.3 0.0 **** -0.106
124 H4106 54.0885 37.5764 18.5572 H 0.0 **** 0.053
125 C4074 65.6749 38.1476 24.8377 C.3 0.0 **** -0.106
126 H4108 51.238 35.5401 19.9637 H 0.0 **** 0.053
127 C4071 63.4928 38.8605 23.1138 C.ar 0.0 **** 0.0
128 H4150 53.1033 38.7747 21.405 H 0.0 **** 0.053
129 H4131 53.8516 23.0477 22.7579 H 0.0 **** 0.053
130 C4066 62.2778 35.3357 23.9424 C.3 0.0 **** -0.106
@<TRIPOS>BOND
1 43 17 am
2 2 13 am
3 15 2 am
4 26 15 am
5 85 26 am
6 4 13 am
7 4 85 am
8 80 46 1
9 27 80 am
10 123 27 1
11 15 46 1
12 2 123 1
13 74 18 am
14 48 74 am
15 66 48 am
16 27 18 am
17 80 66 am
18 65 32 am
19 60 65 am
20 75 60 am
21 66 32 am
22 48 75 am
23 12 68 1
24 6 12 1
25 36 6 am
26 60 68 1
27 65 36 am
28 101 95 1
29 58 101 am
30 53 58 1
31 12 95 1
32 68 53 1
33 22 63 am
34 33 22 am
35 109 33 am
36 36 63 am
37 6 109 am
38 17 96 1
39 98 43 1
40 33 96 1
41 22 98 1
42 130 67 1
43 90 130 1
44 105 90 am
45 43 67 1
46 17 105 am
47 94 71 am
48 127 94 am
49 9 127 am
50 105 71 am
51 90 9 am
52 125 72 1
53 47 125 1
54 87 47 1
55 9 72 1
56 127 87 1
57 88 114 1
58 122 88 am
59 94 122 am
60 87 114 1
61 21 25 am
62 112 21 am
63 19 112 am
64 122 25 am
65 88 19 am
66 85 91 1
67 91 81 1
68 4 73 1
69 26 5 1
70 13 69 1
71 18 31 1
72 74 97 1
73 75 89 1
74 58 3 1
75 101 20 1
76 109 42 1
77 63 121 1
78 98 83 2
79 96 45 2
80 19 28 1
81 112 115 1
82 46 24 1
83 46 100 1
84 123 7 1
85 123 55 1
86 32 54 1
87 95 120 1
88 95 124 1
89 101 8 1
90 58 126 1
91 53 106 1
92 53 1 1
93 67 14 1
94 67 77 1
95 130 113 1
96 130 76 1
97 72 51 1
98 72 117 1
99 125 52 1
100 125 86 1
101 47 118 1
102 47 39 1
103 87 38 1
104 114 93 1
105 114 30 1
106 25 41 1
107 21 23 1
108 91 44 1
109 91 50 1
110 81 78 1
111 81 70 1
112 81 64 1
113 73 129 1
114 73 57 1
115 73 107 1
116 5 111 1
117 5 11 1
118 5 79 1
119 69 99 1
120 69 40 1
121 69 10 1
122 31 35 1
123 31 82 1
124 31 84 1
125 97 34 1
126 97 103 1
127 97 102 1
128 89 119 1
129 3 110 1
130 3 49 1
131 3 116 1
132 20 128 1
133 20 16 1
134 20 92 1
135 42 59 1
136 121 37 1
137 28 62 1
138 28 61 1
139 28 104 1
140 115 56 1
141 115 108 1
142 115 29 1
@<TRIPOS>MOLECULE
Sketch 4
130 142
SMALL
USER_CHARGES


@<TRIPOS>ATOM
1 H503 29.1524 15.4215 27.9501 H 0.0 **** 0.053
2 N429 41.3813 13.896 22.4589 N.ar 0.0 **** -0.481
3 C436 44.7643 12.9405 21.1175 C.3 0.0 **** -0.053
4 H497 26.0737 8.74195 25.396 H 0.0 **** 0.053
5 H473 40.9668 9.44851 21.5544 H 0.0 **** 0.053
6 C450 28.4775 14.9952 27.1985 C.3 0.0 **** -0.159
7 H488 30.5835 4.35076 26.674 H 0.0 **** 0.053
8 C453 36.6319 16.8143 29.8857 C.3 0.0 **** -0.159
9 H489 32.109 5.15567 26.2617 H 0.0 **** 0.053
10 O454 37.6471 15.7969 25.3535 O.3 0.0 **** -0.452
11 C412 34.7421 13.5251 25.2877 C.ar 0.0 **** 0.0
12 H517 47.3315 16.3005 21.1436 H 0.0 **** 0.053
13 H519 44.5808 19.8665 22.4116 H 0.0 **** 0.053
14 C416 33.3147 16.6926 27.9029 C.3 0.0 **** -0.106
15 H495 32.504 8.28624 23.8235 H 0.0 **** 0.053
16 C397 30.9695 10.0863 25.2078 C.3 0.0 **** -0.106
17 C441 43.264 17.6394 22.2898 C.ar 0.0 **** -0.1268
18 O457 39.5193 14.7984 24.1882 O.2 0.0 **** -0.419
19 H510 37.6294 16.3968 29.6836 H 0.0 **** 0.053
20 H508 32.9328 18.2469 30.0288 H 0.0 **** 0.053
21 C408 31.3975 14.8568 26.369 C.ar 0.0 **** 0.042
22 C425 39.0979 10.4718 21.9144 C.3 0.0 **** -0.106
23 C418 36.6513 12.5561 24.0222 C.ar 0.0 **** 0.052
24 H516 47.3169 17.5481 22.405 H 0.0 **** 0.053
25 C433 43.3764 10.2859 21.1673 C.3 0.0 **** -0.106
26 C413 35.9637 16.4521 27.4698 C.3 0.0 **** -0.106
27 C409 33.7196 15.6669 26.8695 C.2 0.0 **** 0.0
28 C411 35.5796 14.6122 25.6743 C.ar 0.0 **** 0.0
29 H512 36.6895 17.9049 29.7519 H 0.0 **** 0.053
30 C422 39.3659 12.6849 23.0412 C.ar 0.0 **** 0.0
31 H513 38.5834 15.565 24.8921 H 0.0 **** 0.41
32 C395 30.7604 7.61576 24.9271 C.ar 0.0 **** 0.0
33 H468 33.6672 15.8583 29.859 H 0.0 **** 0.053
34 C391 28.6268 6.47775 25.2279 C.ar 0.0 **** 0.0
35 C437 45.5082 13.9952 21.9387 C.3 0.0 **** -0.106
36 C415 34.1343 16.6248 29.2206 C.ar 0.0 **** -0.053
37 C452 33.9953 17.9773 29.9267 C.3 0.0 **** -0.159
38 C434 44.6679 10.5476 20.3847 C.3 0.0 **** -0.106
39 C414 35.5975 16.1919 28.9448 C.ar 0.0 **** -0.053
40 C402 29.1093 13.7933 26.5321 C.ar 0.0 **** 0.0
41 H464 32.8671 11.5659 25.0183 H 0.0 **** 0.1268
42 H507 34.4425 17.9663 30.9302 H 0.0 **** 0.053
43 H478 45.2261 9.60652 20.2668 H 0.0 **** 0.053
44 C404 31.1131 12.5216 25.7983 C.ar 0.0 **** 0.0
45 C399 28.94 11.434 25.8452 C.ar 0.0 **** 0.0
46 H471 38.4892 9.57267 22.0732 H 0.0 **** 0.053
47 H499 25.9712 7.00141 25.0932 H 0.0 **** 0.053
48 C393 28.7503 8.90199 25.4299 C.ar 0.0 **** 0.0
49 C406 33.3477 13.5286 25.688 C.ar 0.0 **** 0.0
50 H463 27.4136 10.1314 26.5636 H 0.0 **** 0.053
51 C444 30.6653 5.0991 24.6271 C.3 0.0 **** -0.106
52 H494 32.7924 8.02611 25.5409 H 0.0 **** 0.053
53 C423 38.5671 11.5949 22.757 C.ar 0.0 **** 0.0
54 H491 26.9794 5.30994 26.0246 H 0.0 **** 0.053
55 C430 42.6544 13.9297 22.0509 C.ar 0.0 **** 0.2405
56 C428 40.7464 12.7165 22.5117 C.ar 0.0 **** 0.2405
57 C440 42.6017 16.4205 22.214 C.ar 0.0 **** -0.1268
58 C420 36.9191 14.709 25.134 C.ar 0.0 **** 0.042
59 H485 42.6893 18.5626 22.3916 H 0.0 **** 0.1268
60 H500 26.4266 13.6968 26.275 H 0.0 **** 0.053
61 H479 46.4839 11.7437 20.5748 H 0.0 **** 0.053
62 C394 30.1258 8.8455 25.1942 C.ar 0.0 **** 0.0
63 H472 38.983 10.7493 20.8497 H 0.0 **** 0.053
64 C403 30.5186 13.7519 26.2508 C.ar 0.0 **** 0.0
65 H470 32.257 16.6209 28.1736 H 0.0 **** 0.053
66 H501 26.5648 12.4389 27.5194 H 0.0 **** 0.053
67 H487 29.9278 4.3936 24.2206 H 0.0 **** 0.053
68 H465 37.0215 16.2409 27.3117 H 0.0 **** 0.053
69 C417 35.3121 12.4781 24.4738 C.ar 0.0 **** 0.042
70 H476 42.6901 9.68285 20.5529 H 0.0 **** 0.053
71 C427 41.3562 11.5052 22.1016 C.ar 0.0 **** 0.0
72 C392 27.991 7.71514 25.4388 C.ar 0.0 **** 0.0
73 O455 34.6028 11.41 24.1186 O.3 0.0 **** -0.452
74 C396 30.0049 6.42929 24.923 C.ar 0.0 **** 0.0
75 H469 33.4776 17.7016 27.4766 H 0.0 **** 0.053
76 C435 45.5155 11.6101 21.0825 C.3 0.0 **** -0.106
77 C447 32.2487 7.62635 24.6689 C.3 0.0 **** -0.159
78 H486 31.4186 5.22314 23.8352 H 0.0 **** 0.053
79 H480 45.7307 11.2923 22.118 H 0.0 **** 0.053
80 H466 35.8177 17.5242 27.2416 H 0.0 **** 0.053
81 C459 45.3317 19.0668 22.3546 C.3 0.0 **** -0.159
82 H496 32.6561 6.63232 24.4581 H 0.0 **** 0.053
83 C445 31.3259 4.48782 25.8729 C.3 0.0 **** -0.159
84 H482 45.6796 13.595 22.9571 H 0.0 **** 0.053
85 C410 35.0792 15.5905 26.5987 C.2 0.0 **** 0.0
86 C431 43.3466 12.7796 21.6152 C.ar 0.0 **** 0.0
87 H509 34.4873 18.7723 29.3437 H 0.0 **** 0.053
88 H515 47.3403 15.8287 22.8482 H 0.0 **** 0.053
89 C400 28.0615 10.2219 25.6752 C.3 0.0 **** -0.106
90 H475 43.6023 9.6678 22.055 H 0.0 **** 0.053
91 C439 43.3384 15.2359 22.0796 C.ar 0.0 **** 0.0
92 H505 28.2568 15.802 26.4822 H 0.0 **** 0.053
93 H483 46.502 14.1499 21.4961 H 0.0 **** 0.053
94 H502 26.3252 11.9898 25.8251 H 0.0 **** 0.053
95 H514 35.269 10.8282 23.528 H 0.0 **** 0.41
96 H484 41.5153 16.3566 22.2755 H 0.0 **** 0.1268
97 H477 44.4158 10.9025 19.3714 H 0.0 **** 0.053
98 C424 37.189 11.4964 23.2145 C.2 0.0 **** 0.367
99 C442 44.6654 17.7171 22.2548 C.ar 0.0 **** 0.0
100 C458 46.9266 16.5597 22.1369 C.3 0.0 **** -0.159
101 C419 37.4567 13.6744 24.3398 C.ar 0.0 **** 0.052
102 H492 28.4402 4.36646 25.7067 H 0.0 **** 0.053
103 H462 27.3538 10.4123 24.8445 H 0.0 **** 0.053
104 H518 45.9696 19.1374 23.251 H 0.0 **** 0.053
105 C421 38.8237 13.7833 23.8681 C.2 0.0 **** 0.367
106 C449 26.8395 12.7015 26.4825 C.3 0.0 **** -0.159
107 H460 31.8389 9.91921 25.8673 H 0.0 **** 0.053
108 H461 31.4239 10.2289 24.2079 H 0.0 **** 0.053
109 C446 27.8261 5.19726 25.3356 C.3 0.0 **** -0.159
110 C405 32.4759 12.4632 25.4693 C.ar 0.0 **** -0.1268
111 C401 28.3372 12.6648 26.2749 C.ar 0.0 **** 0.0
112 H498 26.2491 7.59907 26.7373 H 0.0 **** 0.053
113 C448 26.4983 7.76955 25.6749 C.3 0.0 **** -0.159
114 H490 31.7812 3.5104 25.6497 H 0.0 **** 0.053
115 H520 45.9792 19.2649 21.4855 H 0.0 **** 0.053
116 C432 42.6775 11.5473 21.6271 C.ar 0.0 **** 0.0
117 C443 45.4157 16.5279 22.1379 C.ar 0.0 **** 0.0
118 H504 27.5448 14.72 27.7038 H 0.0 **** 0.053
119 C438 44.747 15.2941 22.0331 C.ar 0.0 **** 0.0
120 H481 44.699 13.3234 20.0789 H 0.0 **** 0.053
121 H506 31.5255 16.7669 26.3122 H 0.0 **** 0.41
122 C407 32.8063 14.7186 26.3017 C.ar 0.0 **** 0.0
123 H467 35.6453 15.0986 29.0779 H 0.0 **** 0.053
124 O456 36.4793 10.4794 22.8835 O.2 0.0 **** -0.419
125 O451 30.8385 16.1083 26.5018 O.3 0.0 **** -0.452
126 H511 36.3863 16.6164 30.9401 H 0.0 **** 0.053
127 C426 40.5724 10.2254 22.221 C.3 0.0 **** -0.106
128 H474 40.6697 9.8339 23.2514 H 0.0 **** 0.053
129 H493 27.4146 4.88852 24.3586 H 0.0 **** 0.053
130 C398 30.2976 11.3606 25.6277 C.ar 0.0 **** 0.0
@<TRIPOS>BOND
1 51 78 1
2 117 99 am
3 3 120 1
4 48 72 am
5 62 48 am
6 32 62 am
7 74 32 am
8 34 72 am
9 34 74 am
10 130 16 1
11 45 130 am
12 89 45 1
13 62 16 1
14 48 89 1
15 40 111 am
16 64 40 am
17 44 64 am
18 45 111 am
19 130 44 am
20 49 110 am
21 122 49 am
22 21 122 am
23 44 110 am
24 64 21 am
25 85 27 1
26 28 85 1
27 11 28 am
28 122 27 1
29 49 11 am
30 39 26 1
31 36 39 am
32 14 36 1
33 85 26 1
34 27 14 1
35 23 69 am
36 101 23 am
37 58 101 am
38 11 69 am
39 28 58 am
40 30 105 1
41 53 30 am
42 98 53 1
43 101 105 1
44 23 98 1
45 127 22 1
46 71 127 1
47 56 71 am
48 53 22 1
49 30 56 am
50 55 2 am
51 86 55 am
52 116 86 am
53 56 2 am
54 71 116 am
55 38 25 1
56 76 38 1
57 3 76 1
58 116 25 1
59 86 3 1
60 119 35 1
61 91 119 am
62 55 91 am
63 3 35 1
64 17 57 am
65 99 17 am
66 91 57 am
67 119 117 am
68 74 51 1
69 51 83 1
70 34 109 1
71 32 77 1
72 72 113 1
73 111 106 1
74 40 6 1
75 21 125 1
76 36 37 1
77 39 8 1
78 58 10 1
79 69 73 1
80 98 124 2
81 105 18 2
82 117 100 1
83 99 81 1
84 16 107 1
85 16 108 1
86 89 103 1
87 89 50 1
88 110 41 1
89 26 68 1
90 26 80 1
91 39 123 1
92 36 33 1
93 14 75 1
94 14 65 1
95 22 46 1
96 22 63 1
97 127 5 1
98 127 128 1
99 25 90 1
100 25 70 1
101 38 97 1
102 38 43 1
103 76 61 1
104 76 79 1
105 35 84 1
106 35 93 1
107 57 96 1
108 17 59 1
109 51 67 1
110 83 7 1
111 83 9 1
112 83 114 1
113 109 54 1
114 109 102 1
115 109 129 1
116 77 52 1
117 77 15 1
118 77 82 1
119 113 4 1
120 113 112 1
121 113 47 1
122 106 60 1
123 106 66 1
124 106 94 1
125 6 1 1
126 6 118 1
127 6 92 1
128 125 121 1
129 37 42 1
130 37 20 1
131 37 87 1
132 8 19 1
133 8 126 1
134 8 29 1
135 10 31 1
136 73 95 1
137 100 88 1
138 100 24 1
139 100 12 1
140 81 104 1
141 81 13 1
142 81 115 1
@<TRIPOS>MOLECULE
Sketch 4
130 142
SMALL
USER_CHARGES


@<TRIPOS>ATOM
1 O1754 21.4027 20.3563 1.60237 O.3 0.0 **** -0.452
2 O1756 20.5537 25.8228 -0.664142 O.2 0.0 **** -0.419
3 O1755 22.6905 25.561 0.466687 O.3 0.0 **** -0.452
4 H1801 30.7382 27.2713 3.55569 H 0.0 **** 0.053
5 H1781 13.6963 20.3995 -3.32501 H 0.0 **** 0.053
6 C1744 24.2333 32.8254 1.12875 C.3 0.0 **** -0.106
7 C1718 21.1596 23.7809 0.38561 C.ar 0.0 **** 0.052
8 C1699 28.0882 27.4437 2.00598 C.ar 0.0 **** 0.0
9 H1762 29.1779 28.9812 1.00105 H 0.0 **** 0.053
10 H1779 11.5014 21.2485 -2.70148 H 0.0 **** 0.053
11 H1769 26.0657 19.9467 3.50193 H 0.0 **** 0.053
12 H1780 12.123 21.8848 -1.16485 H 0.0 **** 0.053
13 H1819 16.1668 14.2326 -1.29216 H 0.0 **** 0.053
14 H1804 30.613 24.7874 3.66971 H 0.0 **** 0.053
15 H1794 23.2884 29.3168 1.97927 H 0.0 **** 0.053
16 H1791 27.8265 33.8594 2.39516 H 0.0 **** 0.053
17 H1778 11.9309 23.6971 -2.95427 H 0.0 **** 0.053
18 C1742 15.3403 16.2238 -1.34985 C.ar 0.0 **** 0.0
19 C1732 15.0514 22.7166 -1.76537 C.ar 0.0 **** 0.0
20 C1727 16.2978 23.1984 -1.33255 C.ar 0.0 **** 0.0
21 H1797 29.8285 30.9733 1.58489 H 0.0 **** 0.053
22 H1771 18.3196 26.003 -1.36756 H 0.0 **** 0.053
23 H1805 30.2619 23.5641 2.42466 H 0.0 **** 0.053
24 C1701 29.0968 26.4847 2.36053 C.ar 0.0 **** 0.0
25 H1808 26.8814 19.5453 6.00824 H 0.0 **** 0.053
26 H1807 25.4104 19.2586 6.96976 H 0.0 **** 0.053
27 C1730 15.9128 20.4773 -1.44942 C.ar 0.0 **** 0.2405
28 H1798 29.3321 31.9433 2.98089 H 0.0 **** 0.053
29 C1706 24.6688 23.96 1.89831 C.ar 0.0 **** 0.0
30 H1810 21.8243 19.6668 5.89847 H 0.0 **** 0.053
31 C1691 26.6472 32.219 1.60092 C.ar 0.0 **** 0.0
32 H1799 29.3116 32.6504 1.35692 H 0.0 **** 0.053
33 C1723 18.9742 24.0586 -0.772627 C.ar 0.0 **** 0.0
34 C1722 18.6134 22.7515 -0.511604 C.ar 0.0 **** 0.0
35 C1753 22.9128 19.6139 6.04929 C.3 0.0 **** -0.159
36 H1761 25.2689 27.7653 0.505549 H 0.0 **** 0.053
37 C1719 20.804 22.4438 0.678921 C.ar 0.0 **** 0.052
38 H1792 26.1172 34.2488 2.1673 H 0.0 **** 0.053
39 H1818 14.6519 14.4102 -0.376441 H 0.0 **** 0.053
40 H1800 31.2438 26.1776 2.25256 H 0.0 **** 0.053
41 C1745 23.4606 33.1319 2.4214 C.3 0.0 **** -0.159
42 C1713 23.3039 20.259 3.63161 C.3 0.0 **** -0.106
43 H1768 25.3625 21.5365 5.96919 H 0.0 **** 0.053
44 C1759 15.1847 14.7246 -1.28892 C.3 0.0 **** -0.159
45 H1814 21.8383 25.8944 -0.0754095 H 0.0 **** 0.41
46 C1710 23.7967 21.3996 2.77159 C.2 0.0 **** 0.0
47 H1766 23.7994 19.311 3.35107 H 0.0 **** 0.053
48 C1709 25.1105 21.7898 2.99451 C.2 0.0 **** 0.0
49 C1752 25.7875 19.4338 5.95276 C.3 0.0 **** -0.159
50 H1783 12.3551 18.9573 -1.88848 H 0.0 **** 0.053
51 H1817 12.3015 16.6645 -2.30962 H 0.0 **** 0.053
52 O1751 27.9472 22.3835 2.51428 O.3 0.0 **** -0.452
53 H1767 23.2102 21.5889 5.28741 H 0.0 **** 0.053
54 C1726 16.5976 24.666 -1.18156 C.3 0.0 **** -0.106
55 H1760 24.8492 27.8611 2.18974 H 0.0 **** 0.053
56 H1777 13.096 22.7895 -3.93247 H 0.0 **** 0.053
57 H1782 13.0023 19.7172 -0.431618 H 0.0 **** 0.053
58 H1784 17.8268 18.5884 -1.37054 H 0.0 **** 0.1268
59 C1704 26.4226 25.6737 1.98099 C.ar 0.0 **** 0.0
60 C1717 22.4093 24.3032 0.796617 C.ar 0.0 **** 0.042
61 C1724 20.2535 24.6135 -0.356101 C.2 0.0 **** 0.367
62 H1803 29.3583 23.5661 3.93635 H 0.0 **** 0.053
63 C1736 13.5509 20.7041 -2.26886 C.3 0.0 **** -0.053
64 C1728 17.3054 22.2607 -0.997031 C.ar 0.0 **** 0.2405
65 C1694 26.0551 29.4812 1.51011 C.ar 0.0 **** 0.0
66 C1740 16.8273 18.1546 -1.3996 C.ar 0.0 **** -0.1268
67 C1712 23.3416 23.4934 1.54395 C.ar 0.0 **** 0.0
68 H1802 30.7306 27.8274 1.87635 H 0.0 **** 0.053
69 C1738 14.4195 18.4747 -1.46031 C.ar 0.0 **** 0.0
70 C1748 29.1084 31.7299 1.92055 C.3 0.0 **** -0.159
71 C1716 25.8906 20.9362 3.96737 C.3 0.0 **** -0.106
72 H1763 29.104 29.1711 2.73199 H 0.0 **** 0.053
73 C1692 27.6791 31.272 1.73561 C.ar 0.0 **** 0.0
74 H1765 22.232 20.096 3.5175 H 0.0 **** 0.053
75 C1749 30.5235 26.9619 2.51755 C.3 0.0 **** -0.159
76 C1746 26.9621 33.6934 1.73973 C.3 0.0 **** -0.159
77 H1773 15.9298 25.2786 -1.79963 H 0.0 **** 0.053
78 H1811 23.1233 19.8521 7.10294 H 0.0 **** 0.053
79 H1772 18.2056 24.7664 -2.62576 H 0.0 **** 0.053
80 C1735 12.3868 21.693 -2.21996 C.3 0.0 **** -0.106
81 C1720 21.7007 21.635 1.40817 C.ar 0.0 **** 0.042
82 H1796 22.8866 30.7043 0.956022 H 0.0 **** 0.053
83 H1815 12.2089 17.0515 -0.586346 H 0.0 **** 0.053
84 C1700 28.4869 28.8895 1.86196 C.3 0.0 **** -0.106
85 C1737 13.254 19.4325 -1.47184 C.3 0.0 **** -0.106
86 C1758 12.816 16.5309 -1.34264 C.3 0.0 **** -0.159
87 C1733 13.9407 23.672 -2.14542 C.3 0.0 **** -0.106
88 C1693 27.3753 29.8966 1.69828 C.ar 0.0 **** 0.0
89 C1734 12.7838 23.004 -2.89669 C.3 0.0 **** -0.106
90 C1695 25.0244 30.4232 1.31892 C.ar 0.0 **** 0.0
91 H1793 27.1969 34.1553 0.764688 H 0.0 **** 0.053
92 C1739 15.7225 19.0149 -1.45694 C.ar 0.0 **** 0.0
93 H1786 23.5334 32.4729 0.356917 H 0.0 **** 0.053
94 C1714 23.6253 20.5842 5.10413 C.ar 0.0 **** -0.053
95 C1703 27.4244 24.7117 2.35855 C.ar 0.0 **** 0.0
96 C1743 14.222 17.0832 -1.38911 C.ar 0.0 **** 0.0
97 C1702 28.7732 25.1516 2.59188 C.ar 0.0 **** 0.0
98 C1708 26.9861 23.3679 2.45569 C.ar 0.0 **** 0.042
99 H1812 23.228 18.5754 5.86877 H 0.0 **** 0.053
100 H1775 13.5568 24.1462 -1.22415 H 0.0 **** 0.053
101 H1785 17.4908 16.11 -1.31514 H 0.0 **** 0.1268
102 H1813 20.4237 20.2642 1.18241 H 0.0 **** 0.41
103 H1806 27.5211 21.5341 2.3178 H 0.0 **** 0.41
104 C1705 25.1095 25.2673 1.69928 C.ar 0.0 **** -0.1268
105 O1757 19.2498 20.6811 0.54415 O.2 0.0 **** -0.419
106 C1725 18.0511 24.9542 -1.54653 C.3 0.0 **** -0.106
107 H1816 12.8026 15.4608 -1.10642 H 0.0 **** 0.053
108 H1776 14.3484 24.4937 -2.75428 H 0.0 **** 0.053
109 C1741 16.6293 16.7802 -1.35687 C.ar 0.0 **** -0.1268
110 C1715 25.1591 20.6758 5.31267 C.ar 0.0 **** -0.053
111 H1820 14.6059 14.3416 -2.14461 H 0.0 **** 0.053
112 C1707 25.6143 23.0124 2.44032 C.ar 0.0 **** 0.0
113 H1809 25.5731 18.536 5.35108 H 0.0 **** 0.053
114 N1729 17.1137 20.9367 -1.08178 N.ar 0.0 **** -0.481
115 C1750 29.81 24.2224 3.18313 C.3 0.0 **** -0.159
116 C1731 14.8477 21.3299 -1.8106 C.ar 0.0 **** 0.0
117 H1789 22.9739 32.2229 2.80509 H 0.0 **** 0.053
118 C1697 25.6918 28.0254 1.49553 C.3 0.0 **** -0.106
119 H1770 26.8702 21.3608 4.20655 H 0.0 **** 0.053
120 C1696 25.3242 31.7972 1.34333 C.ar 0.0 **** 0.0
121 H1795 23.5696 29.2254 0.24353 H 0.0 **** 0.053
122 H1774 16.4188 24.9678 -0.132087 H 0.0 **** 0.053
123 H1788 24.1463 33.4926 3.20332 H 0.0 **** 0.053
124 C1747 23.6205 29.9065 1.10886 C.3 0.0 **** -0.159
125 H1764 24.4131 25.9874 1.30179 H 0.0 **** 0.1268
126 C1711 22.9483 22.1724 1.90859 C.ar 0.0 **** 0.0
127 H1787 24.6634 33.7546 0.73044 H 0.0 **** 0.053
128 C1698 26.7798 27.0497 1.83612 C.ar 0.0 **** 0.0
129 H1790 22.6869 33.898 2.25699 H 0.0 **** 0.053
130 C1721 19.538 21.8835 0.247393 C.2 0.0 **** 0.367
@<TRIPOS>BOND
1 118 55 1
2 18 44 1
3 19 87 1
4 88 73 am
5 65 88 am
6 90 65 am
7 120 90 am
8 31 73 am
9 31 120 am
10 128 118 1
11 8 128 am
12 84 8 1
13 65 118 1
14 88 84 1
15 97 24 am
16 95 97 am
17 59 95 am
18 8 24 am
19 128 59 am
20 29 104 am
21 112 29 am
22 98 112 am
23 59 104 am
24 95 98 am
25 46 48 1
26 126 46 1
27 67 126 am
28 112 48 1
29 29 67 am
30 94 42 1
31 110 94 am
32 71 110 1
33 46 42 1
34 48 71 1
35 7 60 am
36 37 7 am
37 81 37 am
38 67 60 am
39 126 81 am
40 34 130 1
41 33 34 am
42 61 33 1
43 37 130 1
44 7 61 1
45 54 106 1
46 20 54 1
47 64 20 am
48 33 106 1
49 34 64 am
50 27 114 am
51 116 27 am
52 19 116 am
53 64 114 am
54 20 19 am
55 89 87 1
56 80 89 1
57 63 80 1
58 116 63 1
59 69 85 1
60 92 69 am
61 27 92 am
62 63 85 1
63 109 66 am
64 18 109 am
65 96 18 am
66 92 66 am
67 69 96 am
68 120 6 1
69 6 41 1
70 31 76 1
71 90 124 1
72 73 70 1
73 24 75 1
74 97 115 1
75 98 52 1
76 110 49 1
77 94 35 1
78 81 1 1
79 60 3 1
80 61 2 2
81 130 105 2
82 96 86 1
83 118 36 1
84 84 9 1
85 84 72 1
86 104 125 1
87 42 74 1
88 42 47 1
89 94 53 1
90 110 43 1
91 71 11 1
92 71 119 1
93 106 22 1
94 106 79 1
95 54 77 1
96 54 122 1
97 87 100 1
98 87 108 1
99 89 56 1
100 89 17 1
101 80 10 1
102 80 12 1
103 63 5 1
104 85 57 1
105 85 50 1
106 66 58 1
107 109 101 1
108 6 93 1
109 6 127 1
110 41 123 1
111 41 117 1
112 41 129 1
113 76 16 1
114 76 38 1
115 76 91 1
116 124 15 1
117 124 121 1
118 124 82 1
119 70 21 1
120 70 28 1
121 70 32 1
122 75 40 1
123 75 4 1
124 75 68 1
125 115 62 1
126 115 14 1
127 115 23 1
128 52 103 1
129 49 26 1
130 49 25 1
131 49 113 1
132 35 30 1
133 35 78 1
134 35 99 1
135 1 102 1
136 3 45 1
137 86 83 1
138 86 107 1
139 86 51 1
140 44 39 1
141 44 13 1
142 44 111 1
@<TRIPOS>MOLECULE
Sketch 4
250 292
SMALL
USER_CHARGES


@<TRIPOS>ATOM
1 C12496 56.6798 10.2086 58.0762 C.3 0.0 **** -0.106
2 C12477 46.6782 19.8559 59.7245 C.3 0.0 **** -0.053
3 H12615 57.4608 12.1152 57.3651 H 0.0 **** 0.053
4 H12607 42.7375 18.6736 55.317 H 0.0 **** 0.053
5 H12636 55.435 20.6275 66.4894 H 0.0 **** 0.053
6 N12486 44.2314 21.4049 56.6868 N.3 0.0 **** -0.727
7 H12614 57.2332 12.7423 59.6447 H 0.0 **** 0.053
8 C12463 47.5656 17.2742 59.0347 C.2 0.0 **** 0.042
9 H12593 49.1623 18.8207 62.465 H 0.0 **** 0.1268
10 H12648 42.237 17.2715 50.4665 H 0.0 **** 0.1268
11 H12585 55.5783 19.6815 68.3595 H 0.0 **** 0.053
12 C12530 43.9322 11.9393 47.9112 C.2 0.0 **** 0.0
13 C12503 47.2669 14.7404 54.4856 C.2 0.0 **** 0.0
14 H12564 62.4915 17.2404 73.4821 H 0.0 **** 0.053
15 C12472 47.9727 15.793 57.0309 C.2 0.0 **** 0.0
16 H12605 44.3017 17.5894 56.9274 H 0.0 **** 0.053
17 H12620 54.6945 9.34387 57.7661 H 0.0 **** 0.053
18 C12507 47.5638 13.0019 52.7744 C.2 0.0 **** 0.0265
19 C12519 43.7672 15.8526 50.86 C.2 0.0 **** 0.0
20 C12500 48.3016 14.1541 55.23 C.2 0.0 **** 0.0
21 O12524 47.1398 19.4246 62.0393 O.3 0.0 **** -0.57
22 H12640 47.111 18.7459 62.7312 H 0.0 **** 0.41
23 C12431 54.7387 14.7077 64.2723 C.2 0.0 **** 0.232
24 C12543 42.6415 16.2977 50.204 C.2 0.0 **** -0.1268
25 H12559 63.7966 15.7197 69.2296 H 0.0 **** 0.053
26 C12438 54.6962 18.1799 72.2504 C.2 0.0 **** 0.0
27 C12517 46.0637 12.8562 50.8672 C.2 0.0 **** 0.0
28 C12539 43.7965 13.8575 49.4426 C.2 0.0 **** 0.0
29 H12627 43.1066 17.7046 53.0588 H 0.0 **** 0.053
30 C12549 38.5448 17.1706 47.1918 C.3 0.0 **** -0.086
31 C12448 53.5197 21.9077 70.3791 C.3 0.0 **** -0.106
32 C12537 42.1447 13.6304 47.6187 C.2 0.0 **** 0.0
33 H12598 44.8385 20.5471 60.6522 H 0.0 **** 0.053
34 C12491 54.5753 10.5984 59.4827 C.3 0.0 **** 0.107
35 C12536 42.7884 12.4233 47.2099 C.2 0.0 **** 0.0
36 C12452 52.2863 17.5137 64.5943 C.2 0.0 **** -0.012
37 C12470 50.1681 14.6344 58.4555 C.2 0.0 **** 0.0
38 H12635 54.784 22.2733 66.3291 H 0.0 **** 0.053
39 C12455 50.7547 17.4222 62.7061 C.2 0.0 **** 0.0
40 C12482 44.7154 19.3665 58.1113 C.3 0.0 **** -0.053
41 H12626 45.4788 16.9599 51.3048 H 0.0 **** 0.053
42 H12597 45.9275 18.2167 60.8742 H 0.0 **** 0.053
43 H12602 43.3221 20.9716 58.4816 H 0.0 **** 0.053
44 C12545 40.3774 15.3472 47.3567 C.2 0.0 **** 0.052
45 C12409 62.7916 16.1641 69.211 C.3 0.0 **** 0.054
46 C12421 56.9405 15.1438 68.769 C.2 0.0 **** 0.0
47 H12609 43.3718 20.8979 54.8569 H 0.0 **** 0.053
48 H12646 39.6651 13.72 45.2654 H 0.0 **** 0.1268
49 C12522 55.7078 21.6937 66.48 C.3 0.0 **** -0.159
50 C12520 44.3118 14.5778 50.5399 C.2 0.0 **** 0.0
51 H12561 59.2621 16.9182 71.5856 H 0.0 **** 0.053
52 C12523 56.6887 23.6379 67.741 C.3 0.0 **** -0.159
53 C12418 60.5565 14.1024 70.2521 C.3 0.0 **** -0.106
54 C12461 49.6328 17.9307 62.0589 C.2 0.0 **** -0.1268
55 C12502 50.0458 12.453 55.3674 C.2 0.0 **** -0.1268
56 H12577 54.2153 16.2893 73.1375 H 0.0 **** 0.053
57 C12416 58.1322 14.4722 70.9109 C.3 0.0 **** 0.107
58 H12606 42.2249 19.0511 56.9676 H 0.0 **** 0.053
59 H12587 53.6243 21.5413 68.2551 H 0.0 **** 0.053
60 H12637 57.2255 23.961 68.6469 H 0.0 **** 0.053
61 H12570 58.2116 16.3614 69.8706 H 0.0 **** 0.053
62 H12630 45.4093 19.5645 52.3757 H 0.0 **** 0.053
63 C12512 44.5492 16.6819 51.8414 C.3 0.0 **** -0.053
64 H12589 52.4224 22.0327 70.3326 H 0.0 **** 0.053
65 C12422 57.4471 15.5976 70.1196 C.3 0.0 **** -0.053
66 C12535 42.2936 11.6978 46.0936 C.2 0.0 **** 0.0
67 H12568 61.1565 13.8233 69.3732 H 0.0 **** 0.053
68 H12647 40.7563 11.622 44.5764 H 0.0 **** 0.1268
69 H12553 60.9555 17.8005 68.465 H 0.0 **** 0.053
70 O12551 38.9837 15.6683 45.4186 O.2 0.0 **** -0.419
71 C12408 62.105 16.0616 70.5977 C.3 0.0 **** -0.053
72 H12594 54.9384 13.2962 62.7254 H 0.0 **** 0.1268
73 H12645 42.5546 9.95503 44.8272 H 0.0 **** 0.1268
74 H12628 43.4648 18.5495 51.5457 H 0.0 **** 0.053
75 C12449 53.9314 17.3809 66.8202 C.2 0.0 **** -0.012
76 C12525 47.8063 11.129 51.1409 C.2 0.0 **** -0.1268
77 H12596 47.6648 20.3054 59.5291 H 0.0 **** 0.053
78 H12651 38.1596 18.1131 49.1148 H 0.0 **** 0.053
79 C12446 55.6277 21.7352 69.04 C.3 0.0 **** -0.053
80 S12453 52.7671 18.4157 66.023 S.2 0.0 **** 0.024
81 C12426 57.1997 13.7476 66.7336 C.2 0.0 **** 0.0
82 C12547 40.1277 17.1966 49.0859 C.3 0.0 **** -0.106
83 H12621 52.0787 11.5876 56.9006 H 0.0 **** 0.1268
84 C12541 40.5315 13.3586 45.8089 C.2 0.0 **** -0.1268
85 C12419 58.6775 13.3962 68.6681 C.2 0.0 **** 0.0
86 C12459 49.8557 16.2539 60.2883 C.2 0.0 **** 0.0
87 H12617 57.4842 10.0314 58.8106 H 0.0 **** 0.053
88 C12474 49.7667 14.0965 57.2044 C.2 0.0 **** 0.0
89 C12505 46.9865 16.3836 56.2173 C.2 0.0 **** -0.1268
90 C12465 49.4341 15.7235 59.0328 C.2 0.0 **** 0.0
91 H12590 53.8704 22.6731 71.0987 H 0.0 **** 0.053
92 H12575 60.2815 12.7783 67.373 H 0.0 **** 0.053
93 H12586 56.0949 22.2602 69.894 H 0.0 **** 0.053
94 H12634 56.3566 21.87 65.6088 H 0.0 **** 0.053
95 C12407 62.2154 17.4144 71.3196 C.3 0.0 **** -0.053
96 C12495 56.5503 11.717 57.8364 C.3 0.0 **** -0.106
97 H12560 60.1932 16.1161 69.6124 H 0.0 **** 0.053
98 H12608 42.2118 21.2488 56.1456 H 0.0 **** 0.053
99 C12412 59.8049 15.9676 71.7517 C.3 0.0 **** 0.107
100 C12494 56.2852 12.4584 59.1646 C.3 0.0 **** -0.106
101 H12562 61.2746 15.2014 73.104 H 0.0 **** 0.053
102 H12625 44.0448 15.3266 53.4139 H 0.0 **** 0.053
103 C12406 61.5058 18.4933 70.4757 C.3 0.0 **** -0.106
104 H12571 57.171 12.165 65.2826 H 0.0 **** 0.053
105 C12479 45.7188 20.9764 60.1438 C.3 0.0 **** -0.106
106 C12527 46.2131 10.9561 49.2928 C.2 0.0 **** 0.0
107 H12566 57.3325 13.8368 71.319 H 0.0 **** 0.053
108 C12471 51.2858 14.0858 59.1368 C.2 0.0 **** 0.0
109 C12510 44.9726 15.7918 53.0252 C.3 0.0 **** -0.053
110 C12468 51.7263 14.6196 60.385 C.2 0.0 **** 0.0
111 C12546 40.8482 16.0013 48.5032 C.2 0.0 **** 0.0
112 H12618 56.9763 9.68623 57.1548 H 0.0 **** 0.053
113 O12410 62.9918 17.5147 68.7768 O.3 0.0 **** -0.32
114 C12437 54.9846 18.3829 70.9318 C.2 0.0 **** 0.0
115 C12501 48.9965 13.0227 54.701 C.2 0.0 **** 0.042
116 H12611 53.9798 10.0694 60.2454 H 0.0 **** 0.053
117 C12538 42.6601 14.3457 48.7366 C.2 0.0 **** 0.0
118 C12405 61.8079 18.2959 68.9716 C.3 0.0 **** 0.054
119 C12526 47.347 10.478 50.0298 C.2 0.0 **** -0.1268
120 H12552 61.9914 19.2537 68.4659 H 0.0 **** 0.053
121 O12490 53.662 11.3336 58.6395 O.3 0.0 **** -0.202
122 C12450 54.2931 17.7194 68.101 C.2 0.0 **** -0.1268
123 C12534 42.954 10.4987 45.6857 C.2 0.0 **** -0.1268
124 H12633 57.3841 21.6087 67.8245 H 0.0 **** 0.053
125 C12440 56.1519 16.1421 72.2291 C.2 0.0 **** -0.1268
126 H12623 46.4697 17.2582 56.5796 H 0.0 **** 0.1268
127 C12529 44.4354 12.6465 49.0283 C.2 0.0 **** 0.0
128 C12531 44.5802 10.7359 47.4826 C.2 0.0 **** 0.0
129 C12528 45.5748 12.1634 49.7248 C.2 0.0 **** 0.0
130 C12513 43.9193 17.969 52.3611 C.3 0.0 **** -0.106
131 H12573 59.0914 10.8741 66.3295 H 0.0 **** 0.053
132 O12506 48.6237 12.4805 53.4804 O.3 0.0 **** -0.0685
133 C12484 43.0254 19.2197 56.2296 C.3 0.0 **** -0.106
134 H12643 46.1929 9.35202 47.8548 H 0.0 **** 0.1268
135 H12622 50.5699 11.5977 54.9396 H 0.0 **** 0.1268
136 H12556 63.2807 17.6847 71.3587 H 0.0 **** 0.053
137 C12469 52.8621 14.0766 61.0569 C.2 0.0 **** 0.0
138 C12516 45.4156 14.0495 51.2948 C.2 0.0 **** 0.0
139 H12583 52.2235 19.3925 71.7776 H 0.0 **** 0.053
140 C12497 55.355 9.61925 58.6026 C.3 0.0 **** -0.106
141 H12644 44.557 9.11835 46.0339 H 0.0 **** 0.1268
142 H12649 40.23 17.1805 50.1801 H 0.0 **** 0.053
143 C12481 44.3341 20.8838 58.0505 C.3 0.0 **** 0.134
144 C12483 44.3403 18.6784 56.7882 C.3 0.0 **** -0.106
145 H12555 60.4178 18.4446 70.6409 H 0.0 **** 0.053
146 H12579 56.7232 15.4126 72.8007 H 0.0 **** 0.1268
147 H12631 46.668 18.4877 54.4471 H 0.0 **** 0.053
148 H12582 52.6003 20.8962 72.6416 H 0.0 **** 0.053
149 H12565 61.1347 18.2634 73.0053 H 0.0 **** 0.053
150 C12499 51.5452 12.439 57.3203 C.2 0.0 **** -0.1268
151 C12413 60.7058 16.1347 72.9635 C.3 0.0 **** -0.106
152 C12550 39.2837 15.9929 46.5686 C.2 0.0 **** 0.347
153 O12493 54.6607 12.4461 61.0171 O.3 0.0 **** -0.202
154 C12515 46.1427 17.9578 53.6382 C.3 0.0 **** -0.106
155 H12558 62.1853 15.6235 68.4543 H 0.0 **** 0.053
156 C12487 53.5336 12.9707 60.4251 C.2 0.0 **** 0.042
157 C12511 45.8115 14.6598 52.4946 C.2 0.0 **** 0.0
158 C12458 51.0069 15.7247 60.9485 C.2 0.0 **** 0.0
159 C12439 55.1069 16.9295 72.9568 C.3 0.0 **** -0.106
160 H12581 54.7319 19.9334 73.4801 H 0.0 **** 0.053
161 C12457 52.5759 15.7706 62.8639 C.2 0.0 **** 0.0
162 C12456 51.45 16.2946 62.1709 C.2 0.0 **** 0.0
163 C12428 58.5204 11.6178 66.9061 C.3 0.0 **** -0.106
164 C12489 51.9631 12.9757 58.5469 C.2 0.0 **** 0.0
165 C12514 44.9977 18.8212 53.0757 C.3 0.0 **** -0.106
166 C12420 57.6246 14.0788 68.0799 C.2 0.0 **** 0.0
167 C12451 52.9979 16.3586 64.1087 C.2 0.0 **** 0.0
168 H12554 61.8378 19.4869 70.8138 H 0.0 **** 0.053
169 H12616 55.7161 11.898 57.1425 H 0.0 **** 0.053
170 H12600 46.1682 22.0026 58.2935 H 0.0 **** 0.053
171 H12578 55.4542 17.1872 73.9765 H 0.0 **** 0.053
172 H12580 53.4257 18.7983 73.8639 H 0.0 **** 0.053
173 O12415 58.8429 14.9488 72.0662 O.3 0.0 **** -0.32
174 C12417 59.0934 13.5958 70.0879 C.3 0.0 **** -0.053
175 C12462 47.923 17.7885 60.2667 C.2 0.0 **** 0.0
176 H12610 45.1269 21.2821 56.2126 H 0.0 **** 0.353
177 C12478 46.8841 18.7734 60.7938 C.3 0.0 **** 0.107
178 C12436 55.3023 17.0164 68.8257 C.2 0.0 **** 0.0
179 H12612 56.1397 11.0865 60.8682 H 0.0 **** 0.053
180 C12540 41.0111 14.1245 46.9075 C.2 0.0 **** 0.0
181 C12480 45.2772 21.7463 58.8947 C.3 0.0 **** -0.106
182 H12599 46.216 21.6289 60.8726 H 0.0 **** 0.053
183 C12533 44.0571 10.0349 46.3522 C.2 0.0 **** -0.1268
184 C12508 46.8818 14.1432 53.2298 C.2 0.0 **** 0.0
185 C12434 56.3866 16.3262 70.9106 C.2 0.0 **** 0.0
186 C12473 48.6833 14.6765 56.4975 C.2 0.0 **** 0.0
187 H12613 55.7288 13.3876 58.974 H 0.0 **** 0.053
188 O12475 46.3668 17.7088 58.5116 O.3 0.0 **** -0.202
189 H12574 57.7272 11.0806 67.4508 H 0.0 **** 0.053
190 C12498 50.4633 12.9832 56.6283 C.2 0.0 **** 0.0
191 C12467 54.3682 14.1463 63.0699 C.2 0.0 **** -0.1268
192 C12504 46.6294 15.8871 54.977 C.2 0.0 **** 0.0
193 C12441 53.9837 19.2506 73.0285 C.3 0.0 **** -0.106
194 C12427 57.8849 12.6444 65.9678 C.3 0.0 **** -0.106
195 C12443 53.8283 20.5384 70.9101 C.2 0.0 **** 0.0
196 C12429 59.4238 12.3314 67.9147 C.3 0.0 **** -0.106
197 H12572 58.6738 13.0842 65.3286 H 0.0 **** 0.053
198 H12650 40.6111 18.1301 48.7407 H 0.0 **** 0.053
199 H12642 47.8355 9.56418 49.6869 H 0.0 **** 0.1268
200 C12548 38.6519 17.2172 48.707 C.3 0.0 **** -0.106
201 H12576 59.8616 11.6149 68.6301 H 0.0 **** 0.053
202 C12466 53.2844 14.647 62.3191 C.2 0.0 **** 0.0
203 C12485 43.1644 20.7379 55.9254 C.3 0.0 **** 0.081
204 H12629 44.5297 19.3817 53.8972 H 0.0 **** 0.053
205 H12641 48.6594 10.7421 51.6979 H 0.0 **** 0.1268
206 C12423 55.9385 15.8774 68.158 C.2 0.0 **** 0.0
207 C12509 45.5914 16.6234 54.1725 C.3 0.0 **** -0.053
208 C12454 51.2093 18.0186 63.9116 C.2 0.0 **** -0.1268
209 H12639 57.2948 23.9119 66.8641 H 0.0 **** 0.053
210 C12544 42.0333 15.549 49.1624 C.2 0.0 **** 0.0
211 H12632 46.8977 17.7471 52.8642 H 0.0 **** 0.053
212 C12532 45.7063 10.2734 48.1823 C.2 0.0 **** -0.1268
213 H12595 46.7974 19.5006 57.5739 H 0.0 **** 0.053
214 C12411 60.634 15.6087 70.4855 C.3 0.0 **** -0.053
215 H12569 61.0113 13.6043 71.1228 H 0.0 **** 0.053
216 C12425 56.1778 14.4593 66.169 C.2 0.0 **** 0.232
217 C12460 49.1301 17.3473 60.8856 C.2 0.0 **** 0.0
218 C12435 55.5844 17.2926 70.165 C.2 0.0 **** 0.0
219 H12619 55.5459 8.69989 59.176 H 0.0 **** 0.053
220 H12601 44.7813 22.6956 59.1399 H 0.0 **** 0.053
221 C12433 54.5199 16.2619 66.143 C.2 0.0 **** 0.0
222 C12445 55.727 20.2283 69.3031 C.3 0.0 **** -0.106
223 H12591 53.7664 18.5316 68.6014 H 0.0 **** 0.1268
224 H12563 60.09 16.275 73.8634 H 0.0 **** 0.053
225 C12424 55.5169 15.5465 66.8173 C.2 0.0 **** 0.0
226 H12604 45.1409 18.8697 56.053 H 0.0 **** 0.053
227 C12518 47.1693 12.3264 51.604 C.2 0.0 **** 0.0
228 H12584 56.7545 19.9736 69.6189 H 0.0 **** 0.053
229 C12447 54.1521 22.1487 69.0085 C.3 0.0 **** -0.106
230 C12464 48.3148 16.2732 58.347 C.2 0.0 **** 0.0
231 H12603 44.1404 18.8997 58.9291 H 0.0 **** 0.053
232 C12476 46.1934 19.1519 58.4325 C.3 0.0 **** 0.107
233 C12492 55.4746 11.6129 60.1689 C.3 0.0 **** 0.107
234 H12557 62.6424 15.3031 71.1913 H 0.0 **** 0.053
235 C12444 54.7719 19.7344 70.365 C.2 0.0 **** 0.0
236 H12567 59.0811 12.5914 70.5528 H 0.0 **** 0.053
237 C12488 53.0721 12.4229 59.2381 C.2 0.0 **** 0.042
238 H12624 44.7726 16.8902 54.858 H 0.0 **** 0.053
239 H12638 55.747 24.2069 67.6843 H 0.0 **** 0.053
240 C12432 54.0832 15.8143 64.8419 C.2 0.0 **** 0.0
241 C12521 56.4116 22.1313 67.7712 C.3 0.0 **** -0.053
242 O12430 55.8117 14.1064 64.8842 O.3 0.0 **** -0.464
243 H12654 37.5088 17.1302 46.8267 H 0.0 **** 0.053
244 H12592 50.6724 18.8901 64.2931 H 0.0 **** 0.1268
245 C12414 61.6615 17.3253 72.7647 C.3 0.0 **** -0.106
246 H12653 38.9962 18.0831 46.7601 H 0.0 **** 0.053
247 C12442 53.0536 20.0462 72.108 C.3 0.0 **** -0.106
248 H12652 38.1549 16.3366 49.1459 H 0.0 **** 0.053
249 H12588 54.0431 23.2038 68.7144 H 0.0 **** 0.053
250 C12542 41.1519 12.189 45.4218 C.2 0.0 **** -0.1268
@<TRIPOS>BOND
1 110 108 un
2 203 133 1
3 89 192 un
4 90 230 un
5 122 75 un
6 8 188 1
7 23 242 1
8 95 103 1
9 71 95 1
10 45 71 1
11 113 45 1
12 118 103 1
13 118 113 1
14 99 214 1
15 151 99 1
16 245 151 1
17 71 214 1
18 95 245 1
19 57 173 1
20 174 57 1
21 53 174 1
22 99 173 1
23 214 53 1
24 166 85 un
25 46 166 un
26 65 46 un
27 174 85 1
28 57 65 1
29 225 206 1
30 216 225 un
31 81 216 un
32 46 206 un
33 166 81 un
34 163 194 1
35 196 163 1
36 85 196 1
37 81 194 1
38 240 23 un
39 221 240 un
40 216 242 1
41 225 221 un
42 218 185 un
43 178 218 2
44 65 185 1
45 206 178 un
46 26 114 2
47 159 26 1
48 125 159 1
49 218 114 1
50 185 125 2
51 247 193 1
52 195 247 1
53 235 195 2
54 26 193 1
55 114 235 1
56 79 222 1
57 229 79 1
58 31 229 1
59 235 222 1
60 195 31 1
61 178 122 un
62 221 75 un
63 36 167 un
64 80 36 1
65 75 80 un
66 240 167 un
67 39 208 un
68 162 39 un
69 161 162 un
70 36 208 un
71 167 161 un
72 86 158 un
73 217 86 un
74 54 217 un
75 162 158 un
76 39 54 un
77 8 175 un
78 230 8 un
79 217 175 un
80 86 90 un
81 191 202 un
82 23 191 un
83 161 202 un
84 137 110 un
85 202 137 un
86 158 110 un
87 108 37 un
88 90 37 un
89 186 15 un
90 88 186 un
91 37 88 un
92 230 15 un
93 232 188 1
94 2 232 1
95 177 2 1
96 175 177 1
97 181 105 1
98 143 181 1
99 40 143 1
100 2 105 1
101 232 40 1
102 133 144 1
103 6 203 1
104 40 144 1
105 143 6 1
106 237 156 un
107 164 237 un
108 108 164 un
109 137 156 un
110 34 121 1
111 233 34 1
112 153 233 1
113 237 121 1
114 156 153 1
115 96 100 1
116 1 96 1
117 140 1 1
118 233 100 1
119 34 140 1
120 150 190 un
121 164 150 un
122 88 190 un
123 115 20 un
124 55 115 un
125 190 55 un
126 186 20 un
127 192 13 un
128 15 89 un
129 20 13 un
130 18 132 1
131 184 18 un
132 115 132 1
133 13 184 1
134 109 207 1
135 157 109 1
136 192 207 1
137 184 157 un
138 130 63 1
139 165 130 1
140 154 165 1
141 109 63 1
142 207 154 1
143 27 138 1
144 227 27 1
145 18 227 un
146 157 138 un
147 63 19 1
148 138 50 un
149 19 50 un
150 79 241 1
151 241 49 1
152 241 52 1
153 177 21 1
154 119 76 1
155 106 119 un
156 129 106 1
157 227 76 un
158 27 129 un
159 12 127 un
160 128 12 1
161 212 128 un
162 129 127 un
163 106 212 un
164 123 183 un
165 66 123 1
166 35 66 1
167 128 183 un
168 12 35 un
169 117 32 un
170 28 117 un
171 127 28 un
172 35 32 un
173 84 180 un
174 250 84 un
175 66 250 un
176 32 180 un
177 210 24 un
178 117 210 un
179 50 28 un
180 19 24 un
181 111 44 un
182 210 111 un
183 180 44 un
184 200 82 1
185 30 200 1
186 152 30 1
187 111 82 1
188 44 152 1
189 152 70 2
190 118 120 1
191 118 69 1
192 103 168 1
193 103 145 1
194 95 136 1
195 71 234 1
196 45 155 1
197 45 25 1
198 214 97 1
199 99 51 1
200 151 101 1
201 151 224 1
202 245 14 1
203 245 149 1
204 57 107 1
205 174 236 1
206 53 67 1
207 53 215 1
208 65 61 1
209 194 104 1
210 194 197 1
211 163 131 1
212 163 189 1
213 196 92 1
214 196 201 1
215 159 56 1
216 159 171 1
217 125 146 1
218 193 172 1
219 193 160 1
220 247 148 1
221 247 139 1
222 222 228 1
223 222 11 1
224 79 93 1
225 229 59 1
226 229 249 1
227 31 64 1
228 31 91 1
229 122 223 1
230 208 244 1
231 54 9 1
232 191 72 1
233 232 213 1
234 2 77 1
235 177 42 1
236 105 33 1
237 105 182 1
238 181 170 1
239 181 220 1
240 143 43 1
241 40 231 1
242 144 226 1
243 144 16 1
244 133 58 1
245 133 4 1
246 203 98 1
247 203 47 1
248 6 176 1
249 34 116 1
250 233 179 1
251 100 187 1
252 100 7 1
253 96 3 1
254 96 169 1
255 1 87 1
256 1 112 1
257 140 219 1
258 140 17 1
259 150 83 1
260 55 135 1
261 89 126 1
262 207 238 1
263 109 102 1
264 63 41 1
265 130 29 1
266 130 74 1
267 165 204 1
268 165 62 1
269 154 147 1
270 154 211 1
271 241 124 1
272 49 94 1
273 49 38 1
274 49 5 1
275 52 60 1
276 52 239 1
277 52 209 1
278 21 22 1
279 76 205 1
280 119 199 1
281 212 134 1
282 183 141 1
283 123 73 1
284 84 48 1
285 250 68 1
286 24 10 1
287 82 142 1
288 82 198 1
289 200 78 1
290 200 248 1
291 30 246 1
292 30 243 1
@<TRIPOS>MOLECULE
Sketch 4
130 142
SMALL
USER_CHARGES


@<TRIPOS>ATOM
1 C7714 -7.70383 27.3263 50.8865 C.3 0.0 **** -0.106
2 H7771 6.75406 35.2815 40.8961 H 0.0 **** 0.053
3 H7741 3.65236 29.6969 43.4341 H 0.0 **** 0.053
4 H7754 -3.18168 29.0235 49.711 H 0.0 **** 0.053
5 H7758 -8.36834 28.1624 51.1522 H 0.0 **** 0.053
6 O7737 -0.624525 24.5197 49.8622 O.2 0.0 **** -0.419
7 H7744 3.59534 28.4486 45.1562 H 0.0 **** 0.1268
8 C7675 4.01118 32.4539 43.198 C.ar 0.0 **** 0.0
9 C7684 5.52335 27.8552 44.4292 C.ar 0.0 **** 0.0
10 H7782 8.55726 28.814 40.812 H 0.0 **** 0.053
11 H7772 5.35379 35.9929 41.7075 H 0.0 **** 0.053
12 H7777 7.67435 31.893 40.0804 H 0.0 **** 0.053
13 H7794 0.780523 28.6128 45.9208 H 0.0 **** 0.41
14 H7742 6.81828 30.0322 40.8132 H 0.0 **** 0.053
15 H7769 3.53058 35.0164 44.8876 H 0.0 **** 0.053
16 C7674 4.89884 31.378 42.9962 C.ar 0.0 **** 0.0
17 O7736 -0.555903 28.697 46.3777 O.2 0.0 **** -0.419
18 O7734 1.66845 23.9815 49.3028 O.3 0.0 **** -0.452
19 C7673 5.98231 31.5012 42.1235 C.ar 0.0 **** 0.0
20 C7705 -2.97091 28.2493 47.7056 C.3 0.0 **** -0.106
21 C7724 3.28508 34.838 42.7273 C.3 0.0 **** -0.106
22 H7750 7.4181 24.3029 47.1761 H 0.0 **** 0.053
23 H7774 3.21614 32.0074 45.1582 H 0.0 **** 0.053
24 H7751 -2.6623 29.2128 47.2808 H 0.0 **** 0.053
25 H7799 -4.06751 18.7429 52.9014 H 0.0 **** 0.053
26 C7687 5.27674 25.681 46.2066 C.ar 0.0 **** 0.0
27 H7755 -6.00214 28.6502 51.1125 H 0.0 **** 0.053
28 C7706 -3.77158 28.4224 48.9932 C.3 0.0 **** -0.106
29 H7760 -6.98132 26.8936 52.8814 H 0.0 **** 0.053
30 C7728 7.37628 32.8603 40.5036 C.3 0.0 **** -0.159
31 H7766 2.24922 34.4721 42.7826 H 0.0 **** 0.053
32 C7695 6.94422 24.3617 49.2719 C.ar 0.0 **** -0.053
33 C7727 2.8528 32.2503 44.1459 C.3 0.0 **** -0.159
34 C7732 7.85161 23.2194 49.7399 C.3 0.0 **** -0.159
35 C7708 -3.10974 26.0539 49.515 C.ar 0.0 **** 0.2405
36 C7702 -1.8312 26.3287 48.8243 C.ar 0.0 **** 0.0
37 C7699 0.580036 25.8324 48.3239 C.ar 0.0 **** 0.052
38 H7796 -6.39104 20.7419 54.7631 H 0.0 **** 0.053
39 C7694 5.68887 24.5868 50.1538 C.ar 0.0 **** -0.053
40 H7756 -6.48407 28.3834 49.4435 H 0.0 **** 0.053
41 H7773 5.17255 35.2789 40.0953 H 0.0 **** 0.053
42 H7789 7.29 22.2728 49.7904 H 0.0 **** 0.053
43 C7685 4.38049 27.7141 45.231 C.ar 0.0 **** -0.1268
44 C7700 1.73963 25.0546 48.525 C.ar 0.0 **** 0.042
45 H7784 9.7333 26.4725 43.1797 H 0.0 **** 0.053
46 C7696 6.54663 24.0764 47.7977 C.3 0.0 **** -0.106
47 C7688 6.27931 25.6904 45.205 C.ar 0.0 **** 0.042
48 H7785 8.63252 25.0847 42.9992 H 0.0 **** 0.053
49 H7800 -5.7875 18.9925 53.2943 H 0.0 **** 0.053
50 H7797 -7.59333 21.6698 53.8459 H 0.0 **** 0.053
51 H7761 -7.31354 24.5614 50.9326 H 0.0 **** 0.053
52 H7745 3.59042 24.0448 50.1544 H 0.0 **** 0.053
53 C7716 -6.69487 25.1588 51.6323 C.3 0.0 **** -0.053
54 C7730 8.82087 26.0076 43.5699 C.3 0.0 **** -0.159
55 C7703 -1.76075 27.3958 47.9508 C.ar 0.0 **** 0.0
56 C7682 7.65357 26.9676 43.5098 C.ar 0.0 **** 0.0
57 C7726 5.67739 35.1598 41.0701 C.3 0.0 **** -0.159
58 H7749 6.3621 22.9872 47.7214 H 0.0 **** 0.053
59 H7786 6.58879 23.8123 45.4175 H 0.0 **** 0.41
60 C7689 5.30355 24.8042 47.3407 C.2 0.0 **** 0.0
61 C7718 -5.48849 23.0807 52.4097 C.ar 0.0 **** 0.0
62 H7743 7.95427 30.6831 41.9636 H 0.0 **** 0.053
63 C7729 8.85604 28.2231 41.6865 C.3 0.0 **** -0.159
64 H7783 9.01745 25.7001 44.6038 H 0.0 **** 0.053
65 C7719 -4.54575 23.276 51.3787 C.ar 0.0 **** 0.0
66 C7720 -3.69718 22.2235 51.0096 C.ar 0.0 **** -0.1268
67 C7697 1.80904 27.2188 46.7066 C.ar 0.0 **** 0.042
68 C7686 4.20942 26.6495 46.1142 C.ar 0.0 **** 0.0
69 C7671 5.36648 33.8201 41.7031 C.ar 0.0 **** 0.0
70 H7757 -8.18838 26.7787 50.0609 H 0.0 **** 0.053
71 H7781 9.72354 28.7345 42.1398 H 0.0 **** 0.053
72 O7735 1.77477 28.2408 45.8554 O.3 0.0 **** -0.452
73 H7747 5.50494 25.6732 50.189 H 0.0 **** 0.053
74 H7748 7.53593 25.2907 49.2788 H 0.0 **** 0.053
75 C7710 -4.41552 24.5996 50.7417 C.ar 0.0 **** 0.2405
76 C7698 0.624275 26.9202 47.4212 C.ar 0.0 **** 0.052
77 C7680 6.9103 30.3378 41.874 C.3 0.0 **** -0.106
78 C7701 -0.630377 25.4967 49.0486 C.2 0.0 **** 0.367
79 H7778 8.26641 33.2856 41.0002 H 0.0 **** 0.053
80 H7753 -4.68689 28.9916 48.7891 H 0.0 **** 0.053
81 C7678 5.67052 29.0182 43.612 C.ar 0.0 **** 0.0
82 H7746 4.61992 22.8935 49.3085 H 0.0 **** 0.053
83 C7721 -3.79916 20.9971 51.6544 C.ar 0.0 **** -0.1268
84 H7765 -3.13957 20.1763 51.3643 H 0.0 **** 0.1268
85 C7712 -5.27769 26.815 50.2892 C.ar 0.0 **** 0.0
86 H7740 4.50617 30.33 44.8096 H 0.0 **** 0.053
87 C7681 7.71728 28.0758 42.671 C.ar 0.0 **** 0.0
88 C7692 3.0069 26.4365 46.8974 C.ar 0.0 **** 0.0
89 H7759 -8.48419 26.0424 52.4699 H 0.0 **** 0.053
90 C7704 -0.550922 27.7193 47.2092 C.2 0.0 **** 0.367
91 H7768 4.64381 36.0287 43.949 H 0.0 **** 0.053
92 H7798 -4.53776 19.5112 54.4355 H 0.0 **** 0.053
93 C7739 -4.78206 19.4378 53.363 C.3 0.0 **** -0.159
94 H7776 2.20809 33.1308 44.2333 H 0.0 **** 0.053
95 H7791 6.70687 24.5484 52.0892 H 0.0 **** 0.053
96 C7672 6.2162 32.7243 41.4641 C.ar 0.0 **** 0.0
97 H7787 8.27958 23.4134 50.7331 H 0.0 **** 0.053
98 C7679 6.73306 29.1193 42.7421 C.ar 0.0 **** 0.0
99 H7770 2.93021 36.5064 44.1077 H 0.0 **** 0.053
100 C7715 -7.51446 26.3737 52.0659 C.3 0.0 **** -0.106
101 H7780 9.20315 27.2485 41.3208 H 0.0 **** 0.053
102 C7677 4.63819 30.0999 43.7379 C.3 0.0 **** -0.106
103 H7790 4.93723 24.3676 52.1795 H 0.0 **** 0.053
104 H7788 8.68233 23.0775 49.0315 H 0.0 **** 0.053
105 H7779 7.12754 33.5239 39.6646 H 0.0 **** 0.053
106 H7764 -2.95596 22.3984 50.2298 H 0.0 **** 0.1268
107 H7793 0.670051 24.0181 49.6837 H 0.0 **** 0.41
108 H7752 -3.59998 27.7527 46.943 H 0.0 **** 0.053
109 C7717 -6.35037 24.2508 52.8143 C.3 0.0 **** -0.106
110 C7733 5.83108 24.0985 51.5974 C.3 0.0 **** -0.159
111 H7792 5.94478 23.005 51.6406 H 0.0 **** 0.053
112 C7707 -4.07995 27.0823 49.6059 C.ar 0.0 **** 0.0
113 H7763 -7.285 23.9112 53.2818 H 0.0 **** 0.053
114 C7711 -5.44427 25.5554 50.8825 C.ar 0.0 **** 0.0
115 C7722 -4.72443 20.7862 52.689 C.ar 0.0 **** 0.0
116 C7693 4.44509 23.9716 49.4815 C.3 0.0 **** -0.106
117 C7690 4.20058 24.6939 48.1769 C.2 0.0 **** 0.0
118 H7795 -6.4779 22.5074 54.9332 H 0.0 **** 0.053
119 N7709 -3.29539 24.8396 50.0517 N.ar 0.0 **** -0.481
120 C7713 -6.35353 27.8728 50.4102 C.3 0.0 **** -0.106
121 C7725 3.61143 35.6491 43.9912 C.3 0.0 **** -0.159
122 H7762 -5.81958 24.8509 53.5789 H 0.0 **** 0.053
123 C7738 -6.55341 21.6769 54.2148 C.3 0.0 **** -0.159
124 H7767 3.31465 35.4992 41.8504 H 0.0 **** 0.053
125 C7691 2.98428 25.3914 47.8669 C.ar 0.0 **** 0.0
126 C7683 6.51847 26.8165 44.3792 C.ar 0.0 **** 0.0
127 H7775 2.22631 31.3979 43.8358 H 0.0 **** 0.053
128 O7731 7.02558 24.5565 44.9736 O.3 0.0 **** -0.452
129 C7723 -5.57039 21.8457 53.0794 C.ar 0.0 **** 0.0
130 C7676 4.23321 33.6733 42.533 C.ar 0.0 **** 0.0
@<TRIPOS>BOND
1 83 84 1
2 110 111 1
3 28 80 1
4 60 46 1
5 19 96 am
6 16 19 am
7 8 16 am
8 130 8 am
9 69 96 am
10 69 130 am
11 81 102 1
12 98 81 am
13 77 98 1
14 16 102 1
15 19 77 1
16 56 87 am
17 126 56 am
18 9 126 am
19 98 87 am
20 81 9 am
21 68 43 am
22 26 68 am
23 47 26 am
24 9 43 am
25 126 47 am
26 117 60 1
27 125 117 1
28 88 125 am
29 26 60 1
30 68 88 am
31 39 116 1
32 32 39 am
33 46 32 1
34 117 116 1
35 76 67 am
36 37 76 am
37 44 37 am
38 88 67 am
39 125 44 am
40 36 78 1
41 55 36 am
42 90 55 1
43 37 78 1
44 76 90 1
45 28 20 1
46 112 28 1
47 35 112 am
48 55 20 1
49 36 35 am
50 75 119 am
51 114 75 am
52 85 114 am
53 35 119 am
54 112 85 am
55 1 120 1
56 100 1 1
57 53 100 1
58 85 120 1
59 114 53 1
60 61 109 1
61 65 61 am
62 75 65 am
63 53 109 1
64 83 66 am
65 115 83 am
66 129 115 am
67 65 66 am
68 61 129 am
69 130 21 1
70 21 121 1
71 69 57 1
72 8 33 1
73 96 30 1
74 87 63 1
75 56 54 1
76 47 128 1
77 32 34 1
78 39 110 1
79 44 18 1
80 67 72 1
81 90 17 2
82 78 6 2
83 129 123 1
84 115 93 1
85 102 86 1
86 102 3 1
87 77 14 1
88 77 62 1
89 43 7 1
90 116 52 1
91 116 82 1
92 39 73 1
93 32 74 1
94 46 58 1
95 46 22 1
96 20 24 1
97 20 108 1
98 28 4 1
99 120 27 1
100 120 40 1
101 1 70 1
102 1 5 1
103 100 89 1
104 100 29 1
105 53 51 1
106 109 122 1
107 109 113 1
108 66 106 1
109 21 31 1
110 21 124 1
111 121 91 1
112 121 15 1
113 121 99 1
114 57 2 1
115 57 11 1
116 57 41 1
117 33 23 1
118 33 127 1
119 33 94 1
120 30 12 1
121 30 79 1
122 30 105 1
123 63 101 1
124 63 71 1
125 63 10 1
126 54 64 1
127 54 45 1
128 54 48 1
129 128 59 1
130 34 97 1
131 34 104 1
132 34 42 1
133 110 103 1
134 110 95 1
135 18 107 1
136 72 13 1
137 123 118 1
138 123 38 1
139 123 50 1
140 93 92 1
141 93 25 1
142 93 49 1
@<TRIPOS>MOLECULE
Sketch 4
250 292
SMALL
USER_CHARGES


@<TRIPOS>ATOM
1 C26423 23.8658 43.1356 37.4054 C.2 0.0 **** 0.0
2 H26554 16.7277 44.7279 36.2241 H 0.0 **** 0.053
3 H26586 19.2307 38.8426 35.4394 H 0.0 **** 0.053
4 C26447 20.9823 37.6304 35.2554 C.3 0.0 **** -0.106
5 C26416 21.7869 45.1592 39.8444 C.3 0.0 **** 0.107
6 C26545 45.2089 35.7396 24.5641 C.2 0.0 **** 0.052
7 H26646 47.711 36.639 23.8871 H 0.0 **** 0.1268
8 C26406 17.6769 45.1795 36.5508 C.3 0.0 **** -0.106
9 C26529 43.2961 40.183 26.3398 C.2 0.0 **** 0.0
10 H26617 31.3192 49.7667 32.4642 H 0.0 **** 0.053
11 C26413 18.1332 45.6316 40.012 C.3 0.0 **** -0.106
12 C26454 27.9204 39.0282 33.9891 C.2 0.0 **** -0.1268
13 H26627 39.067 35.2054 27.305 H 0.0 **** 0.053
14 H26561 19.3429 44.3097 38.8345 H 0.0 **** 0.053
15 C26526 42.162 43.5557 27.5733 C.2 0.0 **** -0.1268
16 H26648 41.2705 35.316 25.6328 H 0.0 **** 0.1268
17 C26489 33.2289 43.8153 32.07 C.2 0.0 **** 0.0
18 C26465 32.985 40.0807 31.6514 C.2 0.0 **** 0.0
19 H26632 36.8018 38.0398 26.1883 H 0.0 **** 0.053
20 C26476 33.395 35.5815 30.1664 C.3 0.0 **** 0.107
21 C26543 41.7111 36.2897 25.829 C.2 0.0 **** -0.1268
22 H26571 26.765 46.9653 36.7009 H 0.0 **** 0.053
23 H26641 40.286 44.0551 28.4711 H 0.0 **** 0.1268
24 C26517 41.1614 40.9209 27.3274 C.2 0.0 **** 0.0
25 O26493 30.5011 45.7063 33.6956 O.3 0.0 **** -0.202
26 C26425 25.6051 44.5913 36.4673 C.2 0.0 **** 0.232
27 O26506 38.3539 42.5843 29.0228 O.3 0.0 **** -0.0685
28 C26446 20.2834 38.9891 35.1333 C.3 0.0 **** -0.053
29 H26612 30.4306 47.707 33.9211 H 0.0 **** 0.053
30 H26576 23.5719 48.7013 39.0543 H 0.0 **** 0.053
31 C26502 36.4538 43.3114 30.2247 C.2 0.0 **** -0.1268
32 C26537 44.9351 38.1074 25.2406 C.2 0.0 **** 0.0
33 H26566 22.4154 44.8943 40.7073 H 0.0 **** 0.053
34 C26484 36.5272 33.586 29.1168 C.3 0.0 **** -0.106
35 C26455 29.1982 39.2951 33.4307 C.2 0.0 **** 0.0
36 C26434 21.8265 42.6711 39.304 C.2 0.0 **** 0.0
37 C26501 37.149 42.2883 29.642 C.2 0.0 **** 0.042
38 C26542 47.5647 38.6984 24.4494 C.2 0.0 **** -0.1268
39 H26615 30.9555 48.6833 30.2001 H 0.0 **** 0.053
40 C26468 31.444 42.2449 32.7662 C.2 0.0 **** 0.0
41 C26482 34.3661 34.4021 30.157 C.3 0.0 **** -0.053
42 H26560 20.2989 45.8837 37.416 H 0.0 **** 0.053
43 C26420 23.8749 45.5585 37.8674 C.2 0.0 **** 0.0
44 C26412 19.4497 45.2922 39.3338 C.3 0.0 **** 0.107
45 C26503 37.3732 39.9393 28.9938 C.2 0.0 **** 0.0
46 H26597 32.7461 35.5288 32.7126 H 0.0 **** 0.053
47 H26614 29.4941 47.6888 31.7865 H 0.0 **** 0.053
48 C26457 28.9116 41.6808 33.9749 C.2 0.0 **** 0.0
49 C26407 17.3808 46.2425 37.6288 C.3 0.0 **** -0.053
50 H26556 16.5478 46.8562 37.2561 H 0.0 **** 0.053
51 C26417 22.1353 46.5896 39.3951 C.3 0.0 **** -0.053
52 C26492 30.9303 47.004 33.2395 C.3 0.0 **** 0.107
53 C26460 31.2449 38.4703 32.3867 C.2 0.0 **** 0.0
54 C26470 33.4588 41.4323 31.5699 C.2 0.0 **** 0.0
55 C26530 44.6178 40.4683 25.9236 C.2 0.0 **** 0.0
56 H26598 32.2331 33.2661 31.58 H 0.0 **** 0.053
57 O26415 20.4454 45.1692 40.3612 O.3 0.0 **** -0.32
58 H26583 22.2067 37.4438 39.4327 H 0.0 **** 0.053
59 H26552 18.0512 45.4277 34.394 H 0.0 **** 0.053
60 C26411 19.8322 46.375 38.2847 C.3 0.0 **** -0.053
61 H26579 21.0948 43.156 41.2405 H 0.0 **** 0.1268
62 H26581 19.4156 38.6508 39.9183 H 0.0 **** 0.053
63 C26527 42.9998 42.5414 27.002 C.2 0.0 **** 0.0
64 C26409 18.8829 47.8641 36.4221 C.3 0.0 **** 0.054
65 H26572 25.2927 47.4882 35.8861 H 0.0 **** 0.053
66 H26639 19.2212 39.2418 31.8078 H 0.0 **** 0.053
67 S26453 25.5747 39.5429 35.1181 S.2 0.0 **** 0.024
68 C26408 18.6051 47.1606 37.7759 C.3 0.0 **** -0.053
69 H26638 19.5643 37.747 32.7041 H 0.0 **** 0.053
70 H26635 21.9903 38.5191 32.8495 H 0.0 **** 0.053
71 C26462 32.084 37.403 31.949 C.2 0.0 **** 0.0
72 H26592 27.5541 37.9991 33.9762 H 0.0 **** 0.1268
73 C26477 31.9907 35.252 30.7315 C.3 0.0 **** -0.053
74 C26549 45.4097 33.2368 23.9271 C.3 0.0 **** -0.086
75 H26647 48.5919 38.9236 24.1547 H 0.0 **** 0.1268
76 C26405 18.4256 45.8103 35.3533 C.3 0.0 **** 0.054
77 H26606 36.7129 32.9603 30.0044 H 0.0 **** 0.053
78 H26553 19.5096 45.5863 35.4101 H 0.0 **** 0.053
79 C26449 24.9978 40.9253 36.0227 C.2 0.0 **** -0.012
80 H26575 23.3477 48.5027 37.3164 H 0.0 **** 0.053
81 H26555 18.2875 44.3691 36.9796 H 0.0 **** 0.053
82 H26618 32.7357 49.9166 31.4203 H 0.0 **** 0.053
83 C26429 23.8329 48.049 38.2038 C.3 0.0 **** -0.106
84 H26570 21.2469 44.2018 37.9871 H 0.0 **** 0.053
85 C26494 30.504 47.2532 31.7777 C.3 0.0 **** -0.106
86 C26469 30.6771 43.3144 33.3181 C.2 0.0 **** 0.0
87 C26488 32.4736 44.8675 32.6494 C.2 0.0 **** 0.042
88 C26487 31.229 44.6403 33.2164 C.2 0.0 **** 0.042
89 H26558 19.977 47.899 36.2379 H 0.0 **** 0.053
90 C26541 47.0795 37.4153 24.3056 C.2 0.0 **** -0.1268
91 H26602 34.124 32.2671 29.9622 H 0.0 **** 0.053
92 C26426 25.0624 45.7039 37.0481 C.2 0.0 **** 0.0
93 H26594 28.9146 45.0517 34.5747 H 0.0 **** 0.1268
94 C26519 40.9042 37.292 26.3191 C.2 0.0 **** 0.0
95 C26422 22.0129 44.0749 38.7789 C.3 0.0 **** -0.053
96 H26565 16.6487 44.5805 38.8253 H 0.0 **** 0.053
97 H26559 18.4998 48.8943 36.4219 H 0.0 **** 0.053
98 C26504 36.8543 38.6386 28.9513 C.2 0.0 **** 0.0
99 C26546 43.921 35.4588 25.0402 C.2 0.0 **** 0.0
100 C26514 37.2591 35.8967 26.2671 C.3 0.0 **** -0.106
101 H26628 39.2002 35.2122 25.5404 H 0.0 **** 0.053
102 C26448 20.7577 37.0589 36.6552 C.3 0.0 **** -0.106
103 C26485 35.7549 32.7739 28.0393 C.3 0.0 **** 0.081
104 H26584 20.2578 40.8494 36.2498 H 0.0 **** 0.053
105 C26440 21.3522 42.3692 40.5334 C.2 0.0 **** -0.1268
106 C26428 25.3464 48.0199 37.9782 C.3 0.0 **** -0.106
107 H26605 36.2699 35.4515 30.2245 H 0.0 **** 0.053
108 H26574 25.8408 47.6716 38.8995 H 0.0 **** 0.053
109 H26613 30.4311 46.2789 31.273 H 0.0 **** 0.053
110 C26418 20.8545 47.3252 38.9024 C.3 0.0 **** -0.106
111 H26596 31.2343 35.7358 30.0931 H 0.0 **** 0.053
112 C26467 28.6012 44.0184 34.5511 C.2 0.0 **** -0.1268
113 H26650 42.7415 33.8748 24.1774 H 0.0 **** 0.053
114 C26433 25.6333 42.2062 35.9112 C.2 0.0 **** 0.0
115 O26490 33.0485 46.1159 32.5862 O.3 0.0 **** -0.202
116 C26436 23.2537 41.8081 37.5104 C.2 0.0 **** 0.0
117 C26472 34.9488 39.3187 30.3436 C.2 0.0 **** 0.0
118 C26464 33.7455 39.0218 31.0806 C.2 0.0 **** 0.0
119 C26521 20.2712 39.5553 33.6979 C.3 0.0 **** -0.053
120 C26437 21.5277 40.3052 38.5902 C.2 0.0 **** 0.0
121 C26520 41.4586 38.5736 26.5913 C.2 0.0 **** 0.0
122 C26531 45.1276 41.8014 26.0444 C.2 0.0 **** 0.0
123 H26629 36.7835 35.0364 26.759 H 0.0 **** 0.053
124 C26528 42.48 41.2123 26.8795 C.2 0.0 **** 0.0
125 C26500 36.6536 40.9476 29.6524 C.2 0.0 **** 0.0
126 C26518 40.3702 41.9474 27.9326 C.2 0.0 **** 0.0
127 H26620 34.006 48.3216 32.6613 H 0.0 **** 0.053
128 H26580 20.6519 38.333 41.1482 H 0.0 **** 0.053
129 O26410 18.2381 47.2291 35.3113 O.3 0.0 **** -0.32
130 H26593 29.5309 37.2575 32.8949 H 0.0 **** 0.1268
131 C26480 32.2514 33.1514 29.4107 C.3 0.0 **** -0.106
132 C26548 44.4864 33.0054 25.1117 C.3 0.0 **** -0.106
133 O26551 46.9545 34.8551 23.1598 O.2 0.0 **** -0.419
134 H26616 32.2803 47.5633 30.563 H 0.0 **** 0.053
135 H26607 37.5127 33.8905 28.7298 H 0.0 **** 0.053
136 C26473 35.4286 40.6622 30.318 C.2 0.0 **** 0.0
137 H26578 20.2389 40.8555 41.583 H 0.0 **** 0.053
138 H26603 34.5359 34.1207 31.2101 H 0.0 **** 0.053
139 C26419 23.2837 46.671 38.4447 C.2 0.0 **** 0.0
140 C26507 39.1045 41.5916 28.4358 C.2 0.0 **** 0.0265
141 H26633 19.9333 40.6049 33.775 H 0.0 **** 0.053
142 C26483 35.7105 34.8089 29.5312 C.3 0.0 **** -0.106
143 C26512 39.4157 37.1615 26.4919 C.3 0.0 **** -0.053
144 H26567 22.4523 47.1373 40.3032 H 0.0 **** 0.053
145 C26534 47.2535 41.0749 25.1049 C.2 0.0 **** -0.1268
146 H26630 36.9704 35.8575 25.2055 H 0.0 **** 0.053
147 C26550 45.9557 34.6573 23.8534 C.2 0.0 **** 0.347
148 C26438 21.0972 39.9754 39.8428 C.2 0.0 **** 0.0
149 C26509 37.5247 37.5429 28.1659 C.3 0.0 **** -0.053
150 C26532 44.3063 42.807 26.5792 C.2 0.0 **** -0.1268
151 C26466 29.4029 43.0295 33.9442 C.2 0.0 **** 0.0
152 H26636 22.4238 40.0285 33.6814 H 0.0 **** 0.053
153 H26651 44.0643 31.9891 25.0965 H 0.0 **** 0.053
154 C26496 32.1205 49.19 31.9712 C.3 0.0 **** -0.106
155 C26544 43.0796 36.5092 25.522 C.2 0.0 **** 0.0
156 H26654 46.2744 32.5583 23.9063 H 0.0 **** 0.053
157 C26536 45.4389 39.4361 25.3807 C.2 0.0 **** 0.0
158 C26474 34.6958 41.7098 30.9307 C.2 0.0 **** 0.0
159 C26452 27.1627 40.0275 34.5443 C.2 0.0 **** -0.012
160 C26525 40.9025 43.2749 28.0249 C.2 0.0 **** -0.1268
161 C26441 20.5103 38.6142 40.0924 C.3 0.0 **** -0.106
162 C26439 21.158 40.951 40.9723 C.3 0.0 **** -0.106
163 O26475 34.0551 36.6201 30.9439 O.3 0.0 **** -0.202
164 H26595 33.2959 35.9678 29.1346 H 0.0 **** 0.053
165 H26622 36.8443 44.3292 30.1945 H 0.0 **** 0.1268
166 C26510 39.0044 37.8272 27.8187 C.3 0.0 **** -0.053
167 C26522 21.661 39.5507 33.048 C.3 0.0 **** -0.159
168 C26432 26.8688 42.4089 35.1926 C.2 0.0 **** 0.0
169 C26424 25.0481 43.2822 36.5897 C.2 0.0 **** 0.0
170 H26577 21.9708 40.6629 41.675 H 0.0 **** 0.053
171 C26444 21.2109 39.3865 37.4728 C.2 0.0 **** 0.0
172 H26643 44.7022 43.8205 26.6745 H 0.0 **** 0.1268
173 N26486 34.3017 33.0006 28.0474 N.3 0.0 **** -0.727
174 H26600 31.8853 33.7631 28.5663 H 0.0 **** 0.053
175 C26431 27.3969 43.7119 35.146 C.2 0.0 **** 0.232
176 H26601 31.8907 32.1285 29.2358 H 0.0 **** 0.053
177 C26539 42.7843 38.8545 26.201 C.2 0.0 **** 0.0
178 C26443 21.0447 38.0671 37.7291 C.2 0.0 **** 0.0
179 C26505 35.6741 38.3566 29.6143 C.2 0.0 **** -0.1268
180 C26459 31.7373 39.8222 32.2932 C.2 0.0 **** 0.0
181 H26621 34.8401 45.096 31.4262 H 0.0 **** 0.1268
182 C26495 31.4848 48.1721 31.0176 C.3 0.0 **** -0.106
183 H26652 45.0483 33.1174 26.0534 H 0.0 **** 0.053
184 H26631 35.6599 37.1005 27.1477 H 0.0 **** 0.053
185 O26430 26.7347 44.783 35.695 O.3 0.0 **** -0.464
186 H26623 35.3041 37.3441 29.5792 H 0.0 **** 0.1268
187 C26523 19.2696 38.8027 32.8158 C.3 0.0 **** -0.159
188 H26590 19.7158 36.6966 36.7545 H 0.0 **** 0.053
189 C26481 33.783 33.1577 29.4069 C.3 0.0 **** 0.134
190 C26491 32.4336 47.1107 33.4333 C.3 0.0 **** 0.107
191 H26644 46.8453 43.0889 25.7161 H 0.0 **** 0.1268
192 C26435 22.1893 41.5928 38.388 C.2 0.0 **** 0.0
193 C26427 25.6778 47.0631 36.8324 C.3 0.0 **** -0.106
194 C26442 21.1441 37.5825 39.1548 C.3 0.0 **** -0.106
195 C26421 23.3223 44.2386 38.0404 C.2 0.0 **** 0.0
196 C26516 40.6579 39.5943 27.211 C.2 0.0 **** 0.0
197 H26645 48.2771 41.2848 24.7883 H 0.0 **** 0.1268
198 C26450 23.8812 40.7403 36.8003 C.2 0.0 **** -0.1268
199 H26634 21.6379 40.0831 32.0853 H 0.0 **** 0.053
200 C26461 29.9622 38.2535 32.9137 C.2 0.0 **** -0.1268
201 C26451 27.6373 41.3876 34.5777 C.2 0.0 **** 0.0
202 H26585 21.841 40.3938 35.6663 H 0.0 **** 0.053
203 H26653 44.8543 33.069 22.9858 H 0.0 **** 0.053
204 H26626 38.9781 37.776 25.6793 H 0.0 **** 0.053
205 H26562 18.2283 46.6271 40.4749 H 0.0 **** 0.053
206 H26640 30.6974 35.7272 33.6574 H 0.0 **** 0.41
207 C26478 31.885 35.9002 32.1194 C.3 0.0 **** 0.107
208 C26479 31.7254 33.7417 30.7233 C.3 0.0 **** -0.106
209 H26568 21.1217 48.1142 38.1839 H 0.0 **** 0.053
210 H26599 30.6512 33.5591 30.8531 H 0.0 **** 0.053
211 H26587 22.0636 37.7658 35.0895 H 0.0 **** 0.053
212 C26414 16.9815 45.6184 38.9904 C.3 0.0 **** -0.106
213 H26642 42.561 44.5686 27.6518 H 0.0 **** 0.1268
214 H26619 33.0673 49.1068 33.938 H 0.0 **** 0.053
215 H26604 35.5104 35.4196 28.6339 H 0.0 **** 0.053
216 H26637 18.2588 38.8277 33.2527 H 0.0 **** 0.053
217 H26569 20.3752 47.8215 39.761 H 0.0 **** 0.053
218 H26611 32.6813 46.864 34.4792 H 0.0 **** 0.053
219 C26508 38.636 40.2679 28.3777 C.2 0.0 **** 0.0
220 C26515 36.7265 37.1985 26.8953 C.3 0.0 **** -0.106
221 C26499 34.462 44.0753 31.4542 C.2 0.0 **** -0.1268
222 C26497 32.9835 48.4823 33.036 C.3 0.0 **** -0.106
223 H26563 17.9423 44.9157 40.8242 H 0.0 **** 0.053
224 H26591 23.4766 39.7347 36.913 H 0.0 **** 0.1268
225 C26513 38.7977 35.7714 26.397 C.3 0.0 **** -0.106
226 H26608 35.937 31.6958 28.1865 H 0.0 **** 0.053
227 C26463 33.2699 37.6947 31.3021 C.2 0.0 **** 0.042
228 H26582 20.6547 36.6013 39.2566 H 0.0 **** 0.053
229 C26547 43.3761 34.0481 25.0671 C.3 0.0 **** -0.106
230 C26458 30.9596 40.8964 32.8245 C.2 0.0 **** 0.0
231 O26524 30.6777 35.4425 32.7308 O.3 0.0 **** -0.57
232 H26649 42.7218 33.9315 25.9424 H 0.0 **** 0.053
233 C26533 46.4654 42.0703 25.619 C.2 0.0 **** -0.1268
234 C26511 39.4118 39.2759 27.7719 C.2 0.0 **** 0.0
235 H26573 25.7269 49.0288 37.7567 H 0.0 **** 0.053
236 C26456 29.6946 40.6347 33.4133 C.2 0.0 **** 0.0
237 H26564 16.1217 46.1582 39.4149 H 0.0 **** 0.053
238 H26625 39.6272 37.3615 28.6084 H 0.0 **** 0.053
239 H26589 21.3925 36.1697 36.8227 H 0.0 **** 0.053
240 C26540 45.7497 37.0783 24.6818 C.2 0.0 **** 0.0
241 H26624 37.506 36.6345 28.7872 H 0.0 **** 0.053
242 C26535 46.7651 39.7392 24.9726 C.2 0.0 **** 0.0
243 C26471 32.7012 42.4902 32.1368 C.2 0.0 **** 0.0
244 C26445 20.9243 39.9792 36.1125 C.3 0.0 **** -0.106
245 H26609 36.1225 33.0244 27.0331 H 0.0 **** 0.053
246 H26588 20.6182 36.9282 34.4899 H 0.0 **** 0.053
247 C26498 35.2058 43.049 30.8721 C.2 0.0 **** 0.0
248 C26538 43.601 37.826 25.6502 C.2 0.0 **** 0.0
249 H26557 18.3729 47.9365 38.5244 H 0.0 **** 0.053
250 H26610 34.0761 33.8347 27.504 H 0.0 **** 0.353
@<TRIPOS>BOND
1 49 50 1
2 83 80 1
3 118 117 un
4 225 13 1
5 242 38 un
6 120 171 1
7 49 8 1
8 68 49 1
9 64 68 1
10 129 64 1
11 76 8 1
12 76 129 1
13 44 60 1
14 11 44 1
15 212 11 1
16 68 60 1
17 49 212 1
18 5 57 1
19 51 5 1
20 110 51 1
21 44 57 1
22 60 110 1
23 43 139 un
24 195 43 un
25 95 195 un
26 51 139 1
27 5 95 1
28 169 1 1
29 26 169 un
30 92 26 un
31 195 1 un
32 43 92 un
33 106 193 1
34 83 106 1
35 139 83 1
36 92 193 1
37 175 185 1
38 168 175 un
39 114 168 un
40 26 185 1
41 169 114 un
42 192 36 un
43 116 192 2
44 95 36 1
45 1 116 un
46 148 120 2
47 162 148 1
48 105 162 1
49 192 120 1
50 36 105 2
51 194 161 1
52 178 194 1
53 171 178 2
54 148 161 1
55 28 244 1
56 4 28 1
57 102 4 1
58 171 244 1
59 178 102 1
60 198 79 un
61 116 198 un
62 114 79 un
63 159 201 un
64 67 159 1
65 79 67 un
66 168 201 un
67 35 12 un
68 236 35 un
69 48 236 un
70 159 12 un
71 201 48 un
72 180 230 un
73 53 180 un
74 200 53 un
75 236 230 un
76 35 200 un
77 227 71 un
78 118 227 un
79 18 118 un
80 53 71 un
81 180 18 un
82 112 151 un
83 175 112 un
84 48 151 un
85 86 40 un
86 151 86 un
87 230 40 un
88 243 54 un
89 40 243 un
90 18 54 un
91 136 117 un
92 158 136 un
93 54 158 un
94 20 163 1
95 73 20 1
96 207 73 1
97 227 163 1
98 71 207 1
99 131 208 1
100 189 131 1
101 41 189 1
102 73 208 1
103 20 41 1
104 34 142 1
105 103 34 1
106 173 103 1
107 41 142 1
108 189 173 1
109 87 88 un
110 17 87 un
111 243 17 un
112 86 88 un
113 190 115 1
114 52 190 1
115 25 52 1
116 87 115 1
117 88 25 1
118 182 85 1
119 154 182 1
120 222 154 1
121 52 85 1
122 190 222 1
123 221 247 un
124 17 221 un
125 158 247 un
126 37 125 un
127 31 37 un
128 247 31 un
129 136 125 un
130 98 45 un
131 179 98 un
132 117 179 un
133 125 45 un
134 140 27 1
135 219 140 un
136 37 27 1
137 45 219 1
138 166 149 1
139 234 166 1
140 98 149 1
141 219 234 un
142 225 143 1
143 100 225 1
144 220 100 1
145 166 143 1
146 149 220 1
147 24 196 1
148 126 24 1
149 140 126 un
150 234 196 un
151 143 94 1
152 196 121 un
153 94 121 un
154 28 119 1
155 119 167 1
156 119 187 1
157 207 231 1
158 15 160 1
159 63 15 un
160 124 63 1
161 126 160 un
162 24 124 un
163 55 9 un
164 122 55 1
165 150 122 un
166 124 9 un
167 63 150 un
168 145 233 un
169 242 145 1
170 157 242 1
171 122 233 un
172 55 157 un
173 248 32 un
174 177 248 un
175 9 177 un
176 157 32 un
177 90 240 un
178 38 90 un
179 32 240 un
180 155 21 un
181 248 155 un
182 121 177 un
183 94 21 un
184 99 6 un
185 155 99 un
186 240 6 un
187 132 229 1
188 74 132 1
189 147 74 1
190 99 229 1
191 6 147 1
192 147 133 2
193 76 59 1
194 76 78 1
195 8 2 1
196 8 81 1
197 68 249 1
198 64 89 1
199 64 97 1
200 60 42 1
201 44 14 1
202 11 205 1
203 11 223 1
204 212 237 1
205 212 96 1
206 5 33 1
207 51 144 1
208 110 209 1
209 110 217 1
210 95 84 1
211 193 22 1
212 193 65 1
213 106 235 1
214 106 108 1
215 83 30 1
216 162 170 1
217 162 137 1
218 105 61 1
219 161 128 1
220 161 62 1
221 194 228 1
222 194 58 1
223 244 104 1
224 244 202 1
225 28 3 1
226 4 211 1
227 4 246 1
228 102 239 1
229 102 188 1
230 198 224 1
231 12 72 1
232 200 130 1
233 112 93 1
234 20 164 1
235 73 111 1
236 207 46 1
237 208 56 1
238 208 210 1
239 131 174 1
240 131 176 1
241 189 91 1
242 41 138 1
243 142 215 1
244 142 107 1
245 34 77 1
246 34 135 1
247 103 226 1
248 103 245 1
249 173 250 1
250 190 218 1
251 52 29 1
252 85 109 1
253 85 47 1
254 182 39 1
255 182 134 1
256 154 10 1
257 154 82 1
258 222 214 1
259 222 127 1
260 221 181 1
261 31 165 1
262 179 186 1
263 149 241 1
264 166 238 1
265 143 204 1
266 225 101 1
267 100 123 1
268 100 146 1
269 220 184 1
270 220 19 1
271 119 141 1
272 167 199 1
273 167 70 1
274 167 152 1
275 187 216 1
276 187 69 1
277 187 66 1
278 231 206 1
279 160 23 1
280 15 213 1
281 150 172 1
282 233 191 1
283 145 197 1
284 90 7 1
285 38 75 1
286 21 16 1
287 229 232 1
288 229 113 1
289 132 153 1
290 132 183 1
291 74 203 1
292 74 156 1
@<TRIPOS>MOLECULE
Sketch 4
130 142
SMALL
USER_CHARGES


@<TRIPOS>ATOM
1 H3243 68.8823 37.9796 9.16253 H 0.0 **** 0.41
2 C3161 67.7553 36.3399 3.06116 C.ar 0.0 **** 0.0
3 H3241 66.039 40.5339 14.4447 H 0.0 **** 0.053
4 H3245 64.5877 32.2948 3.66958 H 0.0 **** 0.053
5 C3189 66.7096 30.7479 6.4747 C.3 0.0 **** -0.159
6 H3217 73.6831 50.9293 6.09232 H 0.0 **** 0.053
7 C3145 68.8027 41.1358 14.6109 C.ar 0.0 **** -0.053
8 C3158 68.8198 38.1198 4.86883 C.ar 0.0 **** 0.2405
9 C3125 73.0295 48.2808 8.12528 C.ar 0.0 **** 0.0
10 O3184 69.1969 38.4764 10.0555 O.3 0.0 **** -0.452
11 C3144 67.9747 40.5719 13.4274 C.ar 0.0 **** -0.053
12 C3130 74.6164 48.0326 11.5974 C.3 0.0 **** -0.106
13 O3181 72.9271 42.3464 14.4007 O.3 0.0 **** -0.452
14 C3172 67.0507 32.0998 5.89885 C.ar 0.0 **** 0.0
15 C3143 68.8484 39.6485 12.5548 C.3 0.0 **** -0.106
16 H3206 68.5694 38.6704 0.812691 H 0.0 **** 0.053
17 C3156 68.8246 40.0037 3.20415 C.3 0.0 **** -0.106
18 H3232 75.8927 47.6851 13.6981 H 0.0 **** 0.053
19 C3183 66.6758 39.8734 13.8369 C.3 0.0 **** -0.159
20 C3153 69.9444 40.243 5.41158 C.ar 0.0 **** 0.0
21 C3141 70.1835 40.6139 10.5444 C.ar 0.0 **** 0.0
22 C3134 72.7939 44.672 11.5708 C.ar 0.0 **** 0.0
23 H3201 70.2352 41.5779 3.76948 H 0.0 **** 0.053
24 C3148 70.4158 41.0046 7.73382 C.ar 0.0 **** 0.052
25 H3199 70.6615 40.0509 14.6267 H 0.0 **** 0.053
26 H3226 71.9837 47.8315 6.25834 H 0.0 **** 0.053
27 C3131 74.3105 46.2404 13.3576 C.ar 0.0 **** 0.0
28 H3220 71.2841 51.1049 5.40572 H 0.0 **** 0.053
29 C3175 71.5506 50.689 6.38979 C.3 0.0 **** -0.159
30 C3171 67.9479 32.9322 6.5868 C.ar 0.0 **** -0.1268
31 H3190 71.9208 46.2805 9.58216 H 0.0 **** 0.053
32 O3186 71.0962 42.2694 5.84288 O.2 0.0 **** -0.419
33 H3221 74.4403 52.4781 9.2253 H 0.0 **** 0.053
34 H3231 74.547 47.8189 14.8386 H 0.0 **** 0.053
35 C3122 74.5105 49.8916 9.9011 C.ar 0.0 **** 0.0
36 C3179 75.1601 47.0998 14.2672 C.3 0.0 **** -0.159
37 H3244 71.474 42.8917 7.05615 H 0.0 **** 0.41
38 C3146 70.3253 41.0585 14.3135 C.3 0.0 **** -0.106
39 C3138 72.4895 42.9466 13.2412 C.ar 0.0 **** 0.042
40 C3136 71.5183 42.6541 11.0047 C.ar 0.0 **** 0.0
41 H3239 68.757 39.356 15.8686 H 0.0 **** 0.053
42 H3223 75.3196 51.9669 7.77338 H 0.0 **** 0.053
43 C3180 73.8423 44.7231 15.3022 C.3 0.0 **** -0.159
44 C3154 70.5131 41.2295 6.31803 C.2 0.0 **** 0.367
45 C3166 67.1981 35.2702 2.15092 C.3 0.0 **** -0.053
46 C3164 67.4888 36.8794 0.254067 C.3 0.0 **** -0.106
47 C3182 68.5527 40.4356 15.9504 C.3 0.0 **** -0.159
48 H3215 68.3761 32.5789 7.52743 H 0.0 **** 0.1268
49 H3213 65.9205 33.5429 2.24996 H 0.0 **** 0.053
50 H3219 70.8306 49.8951 6.63841 H 0.0 **** 0.053
51 C3174 72.9853 50.1379 6.39853 C.3 0.0 **** -0.106
52 C3173 66.4821 32.5546 4.69024 C.ar 0.0 **** 0.0
53 C3124 73.416 47.7861 9.38711 C.ar 0.0 **** 0.0
54 C3129 74.0646 46.6951 12.0176 C.ar 0.0 **** 0.0
55 H3205 66.8566 38.7233 1.20269 H 0.0 **** 0.053
56 H3210 65.6048 36.3556 1.18398 H 0.0 **** 0.053
57 H3196 69.2529 38.8313 13.1805 H 0.0 **** 0.053
58 C3157 68.5572 38.5629 3.549 C.ar 0.0 **** 0.0
59 H3249 67.2719 30.5682 7.40098 H 0.0 **** 0.053
60 C3140 69.965 40.4723 11.9565 C.2 0.0 **** 0.0
61 C3123 74.1661 48.5741 10.263 C.ar 0.0 **** 0.0
62 H3191 73.4566 45.6776 9.03464 H 0.0 **** 0.053
63 H3208 67.0811 37.2494 -0.698835 H 0.0 **** 0.053
64 C3188 65.481 31.7098 3.93653 C.3 0.0 **** -0.159
65 H3228 74.7011 51.3893 11.4677 H 0.0 **** 0.053
66 C3178 75.338 50.745 10.8359 C.3 0.0 **** -0.159
67 H3194 72.0745 44.1674 9.61476 H 0.0 **** 0.1268
68 C3151 69.2424 38.8375 7.31452 C.2 0.0 **** 0.367
69 C3150 69.7012 39.62 9.60879 C.ar 0.0 **** 0.042
70 C3160 68.046 35.9972 4.39899 C.ar 0.0 **** 0.2405
71 H3229 76.0162 51.4071 10.2811 H 0.0 **** 0.053
72 C3162 68.0315 37.644 2.62585 C.ar 0.0 **** 0.0
73 H3192 75.7227 47.9753 11.6017 H 0.0 **** 0.053
74 H3211 68.0544 34.6436 1.82915 H 0.0 **** 0.053
75 H3248 65.6355 30.6681 6.71013 H 0.0 **** 0.053
76 H3236 72.6948 41.4051 14.3591 H 0.0 **** 0.41
77 C3127 73.006 46.3898 9.75317 C.3 0.0 **** -0.106
78 N3159 68.5894 36.8598 5.26443 N.ar 0.0 **** -0.481
79 H3214 68.9556 34.8514 6.65671 H 0.0 **** 0.1268
80 H3247 65.9073 31.3321 2.99142 H 0.0 **** 0.053
81 H3209 66.2959 35.0523 0.19581 H 0.0 **** 0.053
82 H3202 70.9586 39.9785 3.56028 H 0.0 **** 0.053
83 C3155 70.0637 40.5074 3.93888 C.3 0.0 **** -0.106
84 H3218 71.4385 51.4824 7.14453 H 0.0 **** 0.053
85 C3137 71.5829 42.2627 12.3933 C.ar 0.0 **** 0.0
86 H3242 66.8779 38.9655 14.4245 H 0.0 **** 0.053
87 C3163 67.7396 38.059 1.1998 C.3 0.0 **** -0.106
88 C3139 70.6813 41.2491 12.8572 C.2 0.0 **** 0.0
89 H3204 67.9518 40.6165 3.49937 H 0.0 **** 0.053
90 H3246 65.153 30.8424 4.52077 H 0.0 **** 0.053
91 O3187 68.6764 37.8026 7.78935 O.2 0.0 **** -0.419
92 C3149 69.7919 39.8309 8.21689 C.ar 0.0 **** 0.052
93 H3195 68.2327 39.1782 11.7878 H 0.0 **** 0.053
94 H3250 66.9428 29.9353 5.76812 H 0.0 **** 0.053
95 H3233 72.8963 44.3011 15.6617 H 0.0 **** 0.053
96 H3222 73.5782 52.2885 7.69357 H 0.0 **** 0.053
97 H3193 74.3834 48.7704 12.3838 H 0.0 **** 0.053
98 H3237 67.5163 40.5597 16.2934 H 0.0 **** 0.053
99 H3240 66.1057 39.577 12.9439 H 0.0 **** 0.053
100 H3216 73.0817 49.3518 5.63523 H 0.0 **** 0.053
101 C3126 73.381 49.5912 7.75413 C.ar 0.0 **** 0.0
102 H3197 67.7026 41.4245 12.7835 H 0.0 **** 0.053
103 H3200 70.8213 41.7839 14.9653 H 0.0 **** 0.053
104 C3169 67.7397 34.6434 4.89719 C.ar 0.0 **** 0.0
105 C3176 74.368 51.8579 8.32283 C.3 0.0 **** -0.159
106 C3165 66.5502 35.861 0.899205 C.3 0.0 **** -0.106
107 C3128 73.3109 45.9361 11.1506 C.ar 0.0 **** 0.0
108 H3207 68.4473 36.3845 0.0246197 H 0.0 **** 0.053
109 H3225 72.7667 46.4303 7.02322 H 0.0 **** 0.053
110 C3147 70.9654 41.9522 8.63008 C.ar 0.0 **** 0.042
111 C3142 70.8835 41.7567 10.0578 C.ar 0.0 **** 0.0
112 H3230 75.717 46.4934 14.9926 H 0.0 **** 0.053
113 C3168 66.8436 33.8179 4.1865 C.ar 0.0 **** 0.0
114 C3167 66.2368 34.3581 2.91535 C.3 0.0 **** -0.106
115 O3185 71.5595 43.0222 8.10823 O.3 0.0 **** -0.452
116 C3121 74.0809 50.4115 8.66617 C.ar 0.0 **** 0.0
117 H3224 71.2792 47.085 7.70056 H 0.0 **** 0.053
118 H3227 75.9522 50.1368 11.5115 H 0.0 **** 0.053
119 C3132 73.7546 45.0555 13.8293 C.ar 0.0 **** 0.0
120 C3133 73.0175 44.2213 12.9193 C.ar 0.0 **** 0.0
121 C3177 72.2297 47.3725 7.22134 C.3 0.0 **** -0.159
122 C3135 72.1206 43.8589 10.6464 C.ar 0.0 **** -0.1268
123 H3238 69.2202 40.844 16.7248 H 0.0 **** 0.053
124 H3198 68.5448 42.2 14.7301 H 0.0 **** 0.053
125 H3234 74.0562 45.6191 15.8959 H 0.0 **** 0.053
126 H3203 68.9505 40.1419 2.12319 H 0.0 **** 0.053
127 H3235 74.6206 43.9738 15.5158 H 0.0 **** 0.053
128 H3212 65.3225 34.933 3.16025 H 0.0 **** 0.053
129 C3170 68.2858 34.1911 6.10595 C.ar 0.0 **** -0.1268
130 C3152 69.3458 39.0825 5.86067 C.ar 0.0 **** 0.0
@<TRIPOS>BOND
1 29 28 1
2 12 73 1
3 35 66 1
4 27 36 1
5 53 77 1
6 61 35 am
7 53 61 am
8 9 53 am
9 101 9 am
10 116 35 am
11 116 101 am
12 107 77 1
13 54 107 am
14 12 54 1
15 61 12 1
16 119 27 am
17 120 119 am
18 22 120 am
19 54 27 am
20 107 22 am
21 40 122 am
22 85 40 am
23 39 85 am
24 22 122 am
25 120 39 am
26 60 88 1
27 21 60 1
28 111 21 am
29 85 88 1
30 40 111 am
31 11 15 1
32 7 11 am
33 38 7 1
34 60 15 1
35 88 38 1
36 24 110 am
37 92 24 am
38 69 92 am
39 111 110 am
40 21 69 am
41 130 68 1
42 20 130 am
43 44 20 1
44 92 68 1
45 24 44 1
46 17 83 1
47 58 17 1
48 8 58 am
49 20 83 1
50 130 8 am
51 70 78 am
52 2 70 am
53 72 2 am
54 8 78 am
55 58 72 am
56 46 87 1
57 106 46 1
58 45 106 1
59 72 87 1
60 2 45 1
61 113 114 1
62 104 113 am
63 70 104 am
64 45 114 1
65 30 129 am
66 14 30 am
67 52 14 am
68 104 129 am
69 113 52 am
70 101 51 1
71 51 29 1
72 116 105 1
73 9 121 1
74 119 43 1
75 39 13 1
76 7 47 1
77 11 19 1
78 69 10 1
79 110 115 1
80 44 32 2
81 68 91 2
82 52 64 1
83 14 5 1
84 77 31 1
85 77 62 1
86 12 97 1
87 122 67 1
88 15 93 1
89 15 57 1
90 11 102 1
91 7 124 1
92 38 25 1
93 38 103 1
94 83 23 1
95 83 82 1
96 17 126 1
97 17 89 1
98 87 55 1
99 87 16 1
100 46 108 1
101 46 63 1
102 106 81 1
103 106 56 1
104 45 74 1
105 114 128 1
106 114 49 1
107 129 79 1
108 30 48 1
109 51 100 1
110 51 6 1
111 29 84 1
112 29 50 1
113 105 33 1
114 105 96 1
115 105 42 1
116 121 117 1
117 121 109 1
118 121 26 1
119 66 118 1
120 66 65 1
121 66 71 1
122 36 112 1
123 36 34 1
124 36 18 1
125 43 95 1
126 43 125 1
127 43 127 1
128 13 76 1
129 47 98 1
130 47 123 1
131 47 41 1
132 19 99 1
133 19 3 1
134 19 86 1
135 10 1 1
136 115 37 1
137 64 4 1
138 64 90 1
139 64 80 1
140 5 75 1
141 5 59 1
142 5 94 1
@<TRIPOS>MOLECULE
Sketch 4
250 292
SMALL
USER_CHARGES


@<TRIPOS>ATOM
1 H16887 13.4733 23.5749 35.9131 H 0.0 **** 0.053
2 C16723 4.51562 27.5505 21.3965 C.2 0.0 **** 0.0
3 H16835 11.8826 27.4407 34.0065 H 0.0 **** 0.053
4 C16708 6.98225 28.2733 25.8352 C.2 0.0 **** 0.0
5 H16900 4.9656 22.6784 10.7515 H 0.0 **** 0.053
6 C16758 2.87485 26.8397 18.0783 C.2 0.0 **** 0.0
7 C16694 13.7049 28.5294 34.418 C.2 0.0 **** 0.0
8 H16819 7.93191 32.7409 39.5187 H 0.0 **** 0.053
9 C16750 3.55702 27.4738 20.3474 C.2 0.0 **** 0.0
10 H16844 4.9886 30.3265 29.8752 H 0.0 **** 0.1268
11 C16710 8.71855 27.2735 24.3707 C.2 0.0 **** 0.0
12 C16744 1.41045 29.0453 29.0087 C.3 0.0 **** -0.106
13 C16770 2.52104 25.7494 14.5124 C.2 0.0 **** 0.0
14 H16826 5.74842 33.4965 37.0379 H 0.0 **** 0.053
15 C16668 7.81357 32.0012 38.7114 C.3 0.0 **** -0.106
16 C16659 7.03992 29.2601 40.2006 C.3 0.0 **** 0.054
17 C16765 5.50358 23.9501 18.0115 C.3 0.0 **** -0.106
18 S16703 11.0142 28.019 30.2814 S.2 0.0 **** 0.024
19 H16875 5.03593 26.542 15.9048 H 0.0 **** 0.053
20 C16746 -0.707047 30.3541 28.5562 C.3 0.0 **** -0.106
21 H16824 5.72254 33.856 34.5677 H 0.0 **** 0.053
22 C16693 14.9719 28.312 33.9918 C.2 0.0 **** 0.0
23 C16796 3.57969 24.3249 10.6367 C.2 0.0 **** 0.0
24 H16822 4.81403 30.9308 34.3894 H 0.0 **** 0.053
25 C16761 3.16832 26.2837 16.8302 C.2 0.0 **** 0.0
26 H16802 8.52369 26.4504 39.3971 H 0.0 **** 0.053
27 C16769 3.67587 24.9365 14.3399 C.2 0.0 **** 0.0
28 H16880 5.82714 22.141 16.8558 H 0.0 **** 0.053
29 C16656 9.76716 28.163 40.0088 C.3 0.0 **** -0.106
30 H16903 4.37606 22.1271 8.32625 H 0.0 **** 0.053
31 H16873 7.01779 25.8775 19.8116 H 0.0 **** 0.1268
32 C16698 15.4671 26.9609 33.5659 C.3 0.0 **** -0.106
33 C16767 0.979328 26.9868 16.0064 C.2 0.0 **** 0.0
34 H16896 0.745 24.9805 7.70049 H 0.0 **** 0.1268
35 C16799 4.42902 23.2086 8.10191 C.3 0.0 **** -0.086
36 C16780 -0.478588 26.8236 12.5466 C.2 0.0 **** 0.0
37 H16865 -0.604094 28.2211 28.9924 H 0.0 **** 0.053
38 C16664 10.6721 30.2152 41.2728 C.3 0.0 **** -0.106
39 H16848 12.3626 25.3793 20.9291 H 0.0 **** 0.053
40 C16715 6.44031 27.7047 23.4843 C.2 0.0 **** 0.0
41 O16680 6.46823 30.4759 31.8418 O.3 0.0 **** -0.464
42 H16831 15.9887 29.8552 36.0826 H 0.0 **** 0.053
43 C16757 1.6265 27.4443 18.3044 C.2 0.0 **** 0.0265
44 H16813 11.6772 31.9777 40.4583 H 0.0 **** 0.053
45 H16853 10.6638 26.112 19.2715 H 0.0 **** 0.053
46 H16832 16.973 29.1028 33.9289 H 0.0 **** 0.053
47 H16862 1.95451 31.0576 29.6868 H 0.0 **** 0.053
48 C16749 2.49457 29.2203 24.0424 C.2 0.0 **** -0.1268
49 C16688 14.2456 30.7686 35.2367 C.2 0.0 **** 0.0
50 C16724 4.16312 28.144 22.6347 C.2 0.0 **** 0.0
51 H16860 9.51932 22.572 18.839 H 0.0 **** 0.353
52 C16727 10.44 25.1217 21.9091 C.3 0.0 **** -0.053
53 H16863 2.03799 28.2854 28.5207 H 0.0 **** 0.053
54 C16666 9.67599 32.532 37.0689 C.3 0.0 **** 0.107
55 C16764 6.13383 23.1978 16.8241 C.3 0.0 **** -0.106
56 C16663 10.672 31.5327 40.4762 C.3 0.0 **** -0.106
57 C16674 8.70245 30.2374 32.7633 C.2 0.0 **** 0.0
58 H16886 11.1471 25.7746 32.9597 H 0.0 **** 0.053
59 H16872 0.895957 29.0139 21.8679 H 0.0 **** 0.1268
60 H16837 13.7518 26.2362 32.4755 H 0.0 **** 0.053
61 C16748 2.83816 28.664 22.8104 C.2 0.0 **** 0.0
62 C16705 9.20664 27.7225 26.72 C.2 0.0 **** 0.0
63 O16665 10.3683 32.5219 38.3288 O.3 0.0 **** -0.32
64 H16845 8.70457 24.3718 20.8176 H 0.0 **** 0.053
65 C16704 10.124 27.6906 27.8031 C.2 0.0 **** -0.1268
66 C16790 1.41948 25.125 9.74886 C.2 0.0 **** 0.0
67 H16881 6.07606 23.77 18.9339 H 0.0 **** 0.053
68 C16741 1.52414 31.1547 27.5867 C.3 0.0 **** 0.107
69 H16868 -1.76514 30.2941 28.2619 H 0.0 **** 0.053
70 C16687 13.2917 29.9034 34.7844 C.2 0.0 **** 0.0
71 H16827 14.1227 32.9063 35.1483 H 0.0 **** 0.053
72 H16899 5.66308 24.257 11.1264 H 0.0 **** 0.053
73 C16702 9.79679 28.2102 29.0295 C.2 0.0 **** -0.012
74 C16773 12.9465 23.5352 34.9466 C.3 0.0 **** -0.159
75 H16882 4.47958 23.5947 18.2077 H 0.0 **** 0.053
76 H16898 4.90388 23.8764 12.9696 H 0.0 **** 0.1268
77 C16795 2.68152 24.4376 9.56687 C.2 0.0 **** 0.052
78 C16686 10.9642 29.9918 33.7951 C.2 0.0 **** 0.0
79 H16840 16.187 26.5761 34.3145 H 0.0 **** 0.053
80 C16782 -2.0415 27.9821 14.0337 C.2 0.0 **** -0.1268
81 H16833 15.7837 30.0528 33.0164 H 0.0 **** 0.053
82 C16762 4.39444 24.5277 15.5965 C.3 0.0 **** -0.053
83 H16866 0.00266216 28.682 27.3922 H 0.0 **** 0.053
84 H16806 9.07214 28.8836 41.9013 H 0.0 **** 0.053
85 C16667 8.17009 32.6745 37.3535 C.3 0.0 **** -0.053
86 C16768 0.662424 27.547 17.2837 C.2 0.0 **** 0.0
87 C16683 9.10438 29.5251 31.6268 C.2 0.0 **** 0.0
88 C16675 7.35882 30.7084 32.8723 C.2 0.0 **** 0.232
89 C16726 9.422 25.2105 20.7448 C.3 0.0 **** 0.107
90 H16858 10.9153 23.2071 16.3588 H 0.0 **** 0.053
91 H16807 8.04242 30.9704 41.0693 H 0.0 **** 0.053
92 H16829 12.1794 32.9422 36.9905 H 0.0 **** 0.1268
93 C16753 3.8624 26.8463 19.1303 C.2 0.0 **** 0.0
94 C16784 -2.27842 27.2019 10.4012 C.2 0.0 **** -0.1268
95 C16720 5.10845 28.1953 23.6928 C.2 0.0 **** 0.0
96 C16735 10.021 23.3281 16.9933 C.3 0.0 **** 0.081
97 H16805 10.4013 28.5216 39.1827 H 0.0 **** 0.053
98 C16760 4.54267 25.7573 16.5124 C.3 0.0 **** -0.053
99 H16884 10.7183 24.0951 33.3643 H 0.0 **** 0.053
100 C16797 4.96373 23.7435 10.4517 C.3 0.0 **** -0.106
101 C16778 0.0729533 27.1385 14.9203 C.2 0.0 **** 0.0
102 C16696 13.3934 26.0068 34.5936 C.3 0.0 **** -0.053
103 C16739 3.41405 29.2572 25.101 C.2 0.0 **** 0.0
104 H16895 -2.95544 27.3425 9.55635 H 0.0 **** 0.1268
105 C16673 9.59262 30.5031 33.8686 C.2 0.0 **** 0.0
106 C16689 13.8825 32.0798 35.8531 C.3 0.0 **** -0.106
107 H16864 1.41579 28.8251 30.0863 H 0.0 **** 0.053
108 C16792 -0.683814 26.0323 8.89672 C.2 0.0 **** -0.1268
109 H16843 10.561 26.7662 25.3781 H 0.0 **** 0.1268
110 H16830 16.3211 31.2907 35.0972 H 0.0 **** 0.053
111 C16734 9.51538 24.7958 16.909 C.3 0.0 **** -0.106
112 H16828 14.5493 32.271 36.7165 H 0.0 **** 0.053
113 C16788 1.97704 25.4482 12.136 C.2 0.0 **** 0.0
114 C16729 11.7915 24.5784 21.4294 C.3 0.0 **** -0.106
115 C16712 9.12224 26.8672 23.0643 C.2 0.0 **** 0.0
116 C16716 6.23439 29.3455 28.3883 C.2 0.0 **** 0.0
117 H16861 2.07745 32.0993 27.4536 H 0.0 **** 0.053
118 H16812 10.0013 32.2695 40.9471 H 0.0 **** 0.053
119 C16714 6.80974 27.1549 22.2247 C.2 0.0 **** 0.0
120 H16820 9.89296 30.4104 36.7382 H 0.0 **** 0.053
121 C16738 3.05195 29.8146 26.3546 C.2 0.0 **** 0.042
122 C16732 10.0505 25.1985 19.3523 C.3 0.0 **** -0.053
123 C16655 8.47044 27.5471 39.4331 C.3 0.0 **** 0.054
124 H16803 8.28934 27.9137 38.4028 H 0.0 **** 0.053
125 C16791 0.500943 25.3576 8.68782 C.2 0.0 **** -0.1268
126 C16759 5.45925 25.4615 17.722 C.3 0.0 **** -0.053
127 C16728 10.518 26.5082 22.5644 C.3 0.0 **** 0.107
128 C16776 -1.47566 28.33 16.4223 C.2 0.0 **** -0.1268
129 C16711 9.58283 27.2267 25.4756 C.2 0.0 **** -0.1268
130 H16841 12.3623 28.9317 32.5197 H 0.0 **** 0.1268
131 H16857 8.74379 24.8881 16.128 H 0.0 **** 0.053
132 H16856 10.3408 25.4668 16.6222 H 0.0 **** 0.053
133 C16794 3.20938 24.7647 11.9455 C.2 0.0 **** 0.0
134 H16817 7.97852 33.7539 37.5067 H 0.0 **** 0.053
135 C16719 5.27502 29.3212 27.304 C.2 0.0 **** 0.0
136 C16785 -1.04385 26.5208 10.1726 C.2 0.0 **** 0.0
137 N16736 10.3603 22.89 18.3557 N.3 0.0 **** -0.727
138 H16816 10.0305 33.4427 36.5641 H 0.0 **** 0.053
139 H16808 6.53869 29.4919 39.2375 H 0.0 **** 0.053
140 H16846 10.0432 24.4298 22.6689 H 0.0 **** 0.053
141 H16904 4.67356 23.2958 7.03374 H 0.0 **** 0.053
142 H16850 10.8144 22.7237 20.8965 H 0.0 **** 0.053
143 H16891 -0.838994 28.6137 18.4445 H 0.0 **** 0.1268
144 C16783 -2.60858 27.673 11.6443 C.2 0.0 **** -0.1268
145 H16849 12.3859 24.262 22.2958 H 0.0 **** 0.053
146 C16670 7.76275 31.6271 35.0819 C.2 0.0 **** 0.0
147 H16889 12.1766 22.7508 35.0049 H 0.0 **** 0.053
148 H16818 6.75909 31.6878 38.7153 H 0.0 **** 0.053
149 H16859 9.25885 22.6366 16.6043 H 0.0 **** 0.053
150 C16800 3.01687 23.7516 8.28188 C.2 0.0 **** 0.347
151 C16779 0.41058 26.6446 13.6323 C.2 0.0 **** 0.0
152 O16740 1.7773 30.3267 26.4309 O.3 0.0 **** -0.202
153 C16771 12.3259 24.8925 34.5998 C.3 0.0 **** -0.053
154 C16678 5.22569 32.9651 34.9847 C.3 0.0 **** -0.106
155 H16869 -0.157703 32.4114 28.0689 H 0.0 **** 0.053
156 C16662 10.1961 31.2941 39.0533 C.3 0.0 **** 0.107
157 C16661 8.71673 30.8136 39.0332 C.3 0.0 **** -0.053
158 C16672 10.0529 31.3467 36.1661 C.3 0.0 **** -0.053
159 O16743 3.50251 30.2957 28.6469 O.3 0.0 **** -0.202
160 C16676 6.87018 31.3596 33.9709 C.2 0.0 **** 0.0
161 C16707 7.54895 28.8044 28.1867 C.2 0.0 **** 0.0
162 C16671 9.13484 31.1994 34.9735 C.2 0.0 **** 0.0
163 C16709 7.37473 27.7601 24.561 C.2 0.0 **** 0.0
164 C16751 2.25625 28.032 20.5455 C.2 0.0 **** 0.042
165 O16660 7.33794 27.8596 40.2514 O.3 0.0 **** -0.32
166 H16810 8.59463 30.0618 38.2371 H 0.0 **** 0.053
167 H16809 6.31952 29.4269 41.0136 H 0.0 **** 0.053
168 C16677 5.42469 31.783 34.0355 C.3 0.0 **** -0.106
169 C16706 7.90338 28.2745 26.9155 C.2 0.0 **** 0.0
170 C16781 -1.72346 27.5012 12.7533 C.2 0.0 **** 0.0
171 C16745 -0.0274984 28.9844 28.4495 C.3 0.0 **** -0.106
172 C16793 4.01497 24.4913 13.082 C.2 0.0 **** -0.1268
173 C16679 5.84245 32.6412 36.3475 C.3 0.0 **** -0.106
174 H16855 8.51619 26.2366 18.2126 H 0.0 **** 0.053
175 H16894 -3.55437 28.1916 11.8115 H 0.0 **** 0.1268
176 H16825 5.26867 31.8144 36.8124 H 0.0 **** 0.053
177 C16717 5.9533 29.8924 29.6575 C.2 0.0 **** -0.1268
178 H16897 -1.36571 26.1982 8.05996 H 0.0 **** 0.1268
179 C16754 5.11625 26.2446 18.9614 C.2 0.0 **** 0.0
180 H16890 11.734 27.4063 23.7975 H 0.0 **** 0.41
181 C16722 5.81956 27.0105 21.1864 C.2 0.0 **** 0.0
182 C16682 8.1888 29.3808 30.52 C.2 0.0 **** 0.0
183 C16787 1.08932 25.6364 11.0389 C.2 0.0 **** 0.0
184 C16789 1.64487 25.9516 13.4261 C.2 0.0 **** 0.0
185 C16730 11.5449 23.4239 20.4525 C.3 0.0 **** -0.106
186 H16851 12.4547 22.8417 20.2521 H 0.0 **** 0.053
187 C16690 12.4467 32.1737 36.2671 C.2 0.0 **** -0.1268
188 C16763 5.73685 23.8183 15.4613 C.3 0.0 **** -0.106
189 O16801 2.20133 23.5448 7.38191 O.2 0.0 **** -0.419
190 C16684 11.51 31.3364 35.7682 C.2 0.0 **** 0.0
191 C16701 8.50553 28.8056 29.2629 C.2 0.0 **** 0.0
192 C16700 11.3308 29.2687 32.6201 C.2 0.0 **** -0.1268
193 C16713 8.18029 26.7954 22.0555 C.2 0.0 **** 0.042
194 H16815 11.5885 29.6471 41.043 H 0.0 **** 0.053
195 H16839 16.0491 27.0727 32.6329 H 0.0 **** 0.053
196 H16836 14.0237 25.8651 35.4914 H 0.0 **** 0.053
197 C16786 -0.141603 26.3277 11.2524 C.2 0.0 **** 0.0
198 H16878 5.6995 23.0348 14.6912 H 0.0 **** 0.053
199 C16699 10.4483 29.0249 31.5966 C.2 0.0 **** -0.012
200 H16804 10.3499 27.406 40.5557 H 0.0 **** 0.053
201 C16692 15.9358 29.4722 33.9467 C.3 0.0 **** -0.106
202 O16756 1.31549 27.9927 19.5276 O.3 0.0 **** -0.0685
203 H16877 6.49086 24.5544 15.1342 H 0.0 **** 0.053
204 O16725 8.64277 26.4385 20.8071 O.3 0.0 **** -0.202
205 H16883 11.6053 25.1496 35.3976 H 0.0 **** 0.053
206 C16657 9.43859 29.3284 40.9646 C.3 0.0 **** -0.053
207 H16879 7.22829 23.2153 16.9243 H 0.0 **** 0.053
208 H16842 11.1088 27.2486 27.6351 H 0.0 **** 0.1268
209 C16737 3.92792 29.8137 27.4292 C.2 0.0 **** 0.042
210 H16867 -0.692258 30.6792 29.6107 H 0.0 **** 0.053
211 H16811 10.8449 30.5247 38.5918 H 0.0 **** 0.053
212 H16838 14.7215 24.9487 33.2187 H 0.0 **** 0.053
213 H16847 10.7645 27.2299 21.7583 H 0.0 **** 0.053
214 C16775 -0.597838 28.2056 17.4631 C.2 0.0 **** -0.1268
215 C16777 -1.17149 27.8199 15.1167 C.2 0.0 **** 0.0
216 C16718 5.65886 28.7872 26.0374 C.2 0.0 **** 0.0
217 H16888 13.6733 23.2302 34.177 H 0.0 **** 0.053
218 C16658 8.29254 30.1595 40.365 C.3 0.0 **** -0.053
219 C16697 14.3246 25.9632 33.3769 C.3 0.0 **** -0.106
220 O16774 11.5912 26.4923 23.5072 O.3 0.0 **** -0.57
221 C16742 2.07514 30.4217 28.7983 C.3 0.0 **** 0.107
222 H16834 12.3185 27.5353 35.6964 H 0.0 **** 0.053
223 H16902 5.54776 24.9363 8.75721 H 0.0 **** 0.053
224 H16852 11.8361 24.3145 18.525 H 0.0 **** 0.053
225 C16669 7.29016 32.258 36.2217 C.2 0.0 **** 0.0
226 H16871 1.49544 29.6277 24.1887 H 0.0 **** 0.1268
227 C16766 2.21837 26.3173 15.7981 C.2 0.0 **** 0.0
228 H16876 3.70073 23.8314 16.1095 H 0.0 **** 0.053
229 C16691 15.6966 30.3848 35.153 C.3 0.0 **** -0.106
230 H16821 5.0586 32.0203 33.0263 H 0.0 **** 0.053
231 H16874 6.48291 25.741 17.4294 H 0.0 **** 0.053
232 C16695 12.7459 27.393 34.6877 C.3 0.0 **** -0.106
233 H16892 -2.43126 28.8371 16.5669 H 0.0 **** 0.1268
234 H16893 -2.98948 28.5033 14.1844 H 0.0 **** 0.1268
235 C16731 10.9849 23.9618 19.1322 C.3 0.0 **** 0.134
236 C16772 11.5561 24.8029 33.2757 C.3 0.0 **** -0.159
237 C16747 0.0161913 31.3972 27.6796 C.3 0.0 **** -0.106
238 H16854 8.1524 24.5459 18.5548 H 0.0 **** 0.053
239 H16814 10.7101 30.4479 42.3475 H 0.0 **** 0.053
240 H16885 12.2142 24.4401 32.4711 H 0.0 **** 0.053
241 C16721 4.73721 28.7423 24.9487 C.2 0.0 **** 0.0
242 H16870 -0.375867 31.3771 26.6511 H 0.0 **** 0.053
243 C16733 8.96418 25.2349 18.2645 C.3 0.0 **** -0.106
244 H16823 4.15475 33.1978 35.0871 H 0.0 **** 0.053
245 C16681 6.89245 29.9072 30.6654 C.2 0.0 **** 0.232
246 C16755 6.05477 26.3357 19.9728 C.2 0.0 **** -0.1268
247 C16685 11.8949 30.334 34.7781 C.2 0.0 **** 0.0
248 C16798 5.45045 23.8685 9.01318 C.3 0.0 **** -0.106
249 H16901 6.44377 23.4086 8.89888 H 0.0 **** 0.053
250 C16752 1.89802 28.6049 21.7343 C.2 0.0 **** -0.1268
@<TRIPOS>BOND
1 144 175 1
2 126 17 1
3 206 29 1
4 218 206 1
5 16 218 1
6 165 16 1
7 123 29 1
8 123 165 1
9 156 157 1
10 56 156 1
11 38 56 1
12 218 157 1
13 206 38 1
14 54 63 1
15 85 54 1
16 15 85 1
17 156 63 1
18 157 15 1
19 146 225 un
20 162 146 un
21 158 162 un
22 85 225 1
23 54 158 1
24 57 105 1
25 88 57 un
26 160 88 un
27 162 105 un
28 146 160 un
29 154 168 1
30 173 154 1
31 225 173 1
32 160 168 1
33 245 41 1
34 182 245 un
35 87 182 un
36 88 41 1
37 57 87 un
38 247 190 un
39 78 247 2
40 158 190 1
41 105 78 un
42 49 70 2
43 106 49 1
44 187 106 1
45 247 70 1
46 190 187 2
47 201 229 1
48 22 201 1
49 7 22 2
50 49 229 1
51 70 7 1
52 102 232 1
53 219 102 1
54 32 219 1
55 7 232 1
56 22 32 1
57 192 199 un
58 78 192 un
59 87 199 un
60 73 191 un
61 18 73 1
62 199 18 un
63 182 191 un
64 62 65 un
65 169 62 un
66 161 169 un
67 73 65 un
68 191 161 un
69 163 4 un
70 11 163 un
71 129 11 un
72 169 4 un
73 62 129 un
74 193 115 un
75 119 193 un
76 40 119 un
77 11 115 un
78 163 40 un
79 177 116 un
80 245 177 un
81 161 116 un
82 135 216 un
83 116 135 un
84 4 216 un
85 241 95 un
86 216 241 un
87 40 95 un
88 2 181 un
89 50 2 un
90 95 50 un
91 119 181 un
92 89 204 1
93 52 89 1
94 127 52 1
95 193 204 1
96 115 127 1
97 185 114 1
98 235 185 1
99 122 235 1
100 52 114 1
101 89 122 1
102 111 243 1
103 96 111 1
104 137 96 1
105 122 243 1
106 235 137 1
107 121 209 un
108 103 121 un
109 241 103 un
110 135 209 un
111 68 152 1
112 221 68 1
113 159 221 1
114 121 152 1
115 209 159 1
116 171 12 1
117 20 171 1
118 237 20 1
119 221 12 1
120 68 237 1
121 48 61 un
122 103 48 un
123 50 61 un
124 164 9 un
125 250 164 un
126 61 250 un
127 2 9 un
128 179 93 un
129 246 179 un
130 181 246 un
131 9 93 un
132 43 202 1
133 6 43 un
134 164 202 1
135 93 6 1
136 98 126 1
137 25 98 1
138 179 126 1
139 6 25 un
140 188 82 1
141 55 188 1
142 17 55 1
143 98 82 1
144 33 227 1
145 86 33 1
146 43 86 un
147 25 227 un
148 82 27 1
149 227 13 un
150 27 13 un
151 102 153 1
152 153 236 1
153 153 74 1
154 127 220 1
155 128 214 1
156 215 128 un
157 101 215 1
158 86 214 un
159 33 101 un
160 36 151 un
161 170 36 1
162 80 170 un
163 101 151 un
164 215 80 un
165 94 144 un
166 136 94 1
167 197 136 1
168 170 144 un
169 36 197 un
170 113 183 un
171 184 113 un
172 151 184 un
173 197 183 un
174 125 66 un
175 108 125 un
176 136 108 un
177 183 66 un
178 133 172 un
179 113 133 un
180 13 184 un
181 27 172 un
182 23 77 un
183 133 23 un
184 66 77 un
185 248 100 1
186 35 248 1
187 150 35 1
188 23 100 1
189 77 150 1
190 150 189 2
191 123 26 1
192 123 124 1
193 29 200 1
194 29 97 1
195 206 84 1
196 218 91 1
197 16 139 1
198 16 167 1
199 157 166 1
200 156 211 1
201 56 118 1
202 56 44 1
203 38 239 1
204 38 194 1
205 54 138 1
206 85 134 1
207 15 148 1
208 15 8 1
209 158 120 1
210 168 230 1
211 168 24 1
212 154 244 1
213 154 21 1
214 173 176 1
215 173 14 1
216 106 71 1
217 106 112 1
218 187 92 1
219 229 110 1
220 229 42 1
221 201 46 1
222 201 81 1
223 232 222 1
224 232 3 1
225 102 196 1
226 219 60 1
227 219 212 1
228 32 195 1
229 32 79 1
230 192 130 1
231 65 208 1
232 129 109 1
233 177 10 1
234 89 64 1
235 52 140 1
236 127 213 1
237 114 39 1
238 114 145 1
239 185 142 1
240 185 186 1
241 235 224 1
242 122 45 1
243 243 238 1
244 243 174 1
245 111 132 1
246 111 131 1
247 96 90 1
248 96 149 1
249 137 51 1
250 68 117 1
251 221 47 1
252 12 53 1
253 12 107 1
254 171 37 1
255 171 83 1
256 20 210 1
257 20 69 1
258 237 155 1
259 237 242 1
260 48 226 1
261 250 59 1
262 246 31 1
263 126 231 1
264 98 19 1
265 82 228 1
266 188 203 1
267 188 198 1
268 55 207 1
269 55 28 1
270 17 67 1
271 17 75 1
272 153 205 1
273 236 99 1
274 236 240 1
275 236 58 1
276 74 1 1
277 74 217 1
278 74 147 1
279 220 180 1
280 214 143 1
281 128 233 1
282 80 234 1
283 94 104 1
284 125 34 1
285 108 178 1
286 172 76 1
287 100 72 1
288 100 5 1
289 248 249 1
290 248 223 1
291 35 30 1
292 35 141 1
@<TRIPOS>MOLECULE
Sketch 4
130 142
SMALL
USER_CHARGES


@<TRIPOS>ATOM
1 C4731 9.5006 64.0279 9.17392 C.ar 0.0 **** -0.1268
2 C4700 10.5334 61.4115 0.127195 C.2 0.0 **** 0.0
3 C4682 18.9117 58.2212 -5.63781 C.ar 0.0 **** 0.0
4 H4783 21.7836 57.1071 -5.63494 H 0.0 **** 0.053
5 C4692 13.5584 61.482 -5.32433 C.ar 0.0 **** 0.0
6 H4786 18.9831 57.1331 -0.8724 H 0.0 **** 0.053
7 C4707 14.0476 60.6371 1.27022 C.ar 0.0 **** 0.042
8 C4706 9.4147 61.67 -2.04321 C.3 0.0 **** -0.106
9 C4725 13.9323 60.156 12.0461 C.3 0.0 **** -0.106
10 H4762 16.5562 61.115 6.07409 H 0.0 **** 0.053
11 C4696 13.0804 60.9639 -1.05237 C.ar 0.0 **** 0.0
12 C4739 15.0153 61.24 -7.36518 C.3 0.0 **** -0.159
13 H4781 20.5399 56.3579 -6.65202 H 0.0 **** 0.053
14 O4747 11.3774 61.5506 5.1691 O.2 0.0 **** -0.419
15 C4724 15.3784 60.0717 11.5604 C.3 0.0 **** -0.106
16 H4794 12.5926 61.6655 -7.25124 H 0.0 **** 0.053
17 H4801 6.64858 58.885 -0.238509 H 0.0 **** 0.053
18 H4810 8.08318 65.13 11.9011 H 0.0 **** 0.053
19 C4734 20.5353 56.3736 -2.70442 C.3 0.0 **** -0.106
20 C4736 20.8204 56.5678 -5.61201 C.3 0.0 **** -0.159
21 H4795 12.4006 63.1025 -6.21765 H 0.0 **** 0.053
22 O4746 16.1591 60.0755 3.03445 O.2 0.0 **** -0.419
23 C4732 9.06841 63.8054 10.491 C.ar 0.0 **** 0.0
24 C4685 18.5214 57.9068 -2.86467 C.ar 0.0 **** 0.0
25 H4768 15.966 59.3749 12.1771 H 0.0 **** 0.053
26 H4773 11.5751 61.4367 12.6773 H 0.0 **** 0.053
27 H4800 7.2559 59.3224 1.37776 H 0.0 **** 0.053
28 C4742 7.00832 61.0404 -2.19304 C.3 0.0 **** -0.159
29 H4767 15.8462 61.0653 11.6613 H 0.0 **** 0.053
30 H4756 8.53218 62.1654 0.480612 H 0.0 **** 0.053
31 H4766 16.4508 59.7771 9.70278 H 0.0 **** 0.053
32 C4681 19.7481 57.3642 -4.89899 C.ar 0.0 **** 0.0
33 H4770 13.4343 59.1811 11.9007 H 0.0 **** 0.053
34 H4792 16.0904 61.3016 -7.57366 H 0.0 **** 0.053
35 C4704 8.454 60.1194 -0.248816 C.ar 0.0 **** -0.053
36 C4684 17.6541 58.7199 -3.62166 C.ar 0.0 **** 0.0
37 C4730 10.6071 63.37 8.65132 C.ar 0.0 **** -0.1268
38 C4709 12.6694 61.1043 3.25274 C.ar 0.0 **** 0.052
39 C4694 14.3644 60.6644 -3.12145 C.ar 0.0 **** 0.0
40 H4784 17.2568 57.3388 -1.20577 H 0.0 **** 0.053
41 C4698 12.2525 61.8455 -3.18976 C.ar 0.0 **** 0.042
42 C4708 13.8998 60.7124 2.67588 C.ar 0.0 **** 0.052
43 H4754 15.0459 60.1527 -1.15378 H 0.0 **** 0.1268
44 C4729 11.3281 62.476 9.45437 C.ar 0.0 **** 0.0
45 H4788 18.6589 57.6276 -7.71565 H 0.0 **** 0.053
46 O4745 15.2389 60.2854 0.793421 O.3 0.0 **** -0.452
47 C4714 15.0197 60.4079 3.52299 C.2 0.0 **** 0.367
48 H4807 10.0309 63.0019 13.4538 H 0.0 **** 0.053
49 H4808 7.04596 63.8381 11.2779 H 0.0 **** 0.053
50 C4733 9.77761 62.8933 11.3009 C.ar 0.0 **** 0.0
51 H4777 21.509 56.3163 -3.2101 H 0.0 **** 0.053
52 C4728 10.9151 62.2462 10.7834 C.ar 0.0 **** 0.0
53 H4793 11.4766 61.6427 -5.87599 H 0.0 **** 0.053
54 H4751 16.9296 60.0812 -2.14055 H 0.0 **** 0.053
55 C4721 13.3749 61.0749 9.76557 C.ar 0.0 **** 0.0
56 C4738 19.1469 58.4183 -7.11859 C.3 0.0 **** -0.159
57 H4787 18.753 59.3792 -7.47245 H 0.0 **** 0.053
58 C4740 12.4543 62.0025 -6.21768 C.3 0.0 **** -0.159
59 H4774 10.9228 63.5164 7.61839 H 0.0 **** 0.1268
60 H4771 13.5859 62.2132 11.5389 H 0.0 **** 0.053
61 C4715 16.0393 60.1698 5.82241 C.3 0.0 **** -0.106
62 H4782 21.0002 55.6022 -5.12153 H 0.0 **** 0.053
63 H4759 8.92183 62.631 -1.79849 H 0.0 **** 0.053
64 H4750 15.9693 58.6432 -2.31932 H 0.0 **** 0.053
65 H4755 9.05946 60.9626 1.65371 H 0.0 **** 0.053
66 H4791 14.6166 60.4078 -7.97185 H 0.0 **** 0.053
67 H4752 17.5505 60.648 -6.1776 H 0.0 **** 0.053
68 H4769 13.8863 60.3881 13.1219 H 0.0 **** 0.053
69 C4702 12.9421 60.9354 0.391512 C.ar 0.0 **** 0.0
70 O4741 11.4342 62.7492 -3.83005 O.3 0.0 **** -0.452
71 H4799 6.67465 61.8883 -1.57352 H 0.0 **** 0.053
72 H4809 7.45935 65.2183 10.2344 H 0.0 **** 0.053
73 H4790 14.556 62.1656 -7.73457 H 0.0 **** 0.053
74 H4798 7.05333 61.3871 -3.23704 H 0.0 **** 0.053
75 C4695 14.2285 60.5558 -1.7291 C.ar 0.0 **** -0.1268
76 C4705 8.38554 60.5475 -1.73756 C.ar 0.0 **** -0.053
77 N4719 12.5982 61.7007 7.56887 N.ar 0.0 **** -0.481
78 C4686 19.5854 57.2427 -3.50139 C.ar 0.0 **** 0.0
79 C4727 11.685 61.2397 11.6019 C.3 0.0 **** -0.106
80 H4780 20.6954 54.3262 -1.93138 H 0.0 **** 0.053
81 C4690 16.9525 59.7962 -5.79804 C.3 0.0 **** -0.106
82 H4796 10.8903 63.1914 -3.15905 H 0.0 **** 0.41
83 H4789 20.2175 58.3917 -7.36244 H 0.0 **** 0.053
84 H4776 20.7396 56.8391 -1.72897 H 0.0 **** 0.053
85 H4804 15.8423 60.139 1.65695 H 0.0 **** 0.41
86 H4805 9.27305 61.5071 12.8889 H 0.0 **** 0.053
87 C4726 13.1751 61.2229 11.2561 C.3 0.0 **** -0.053
88 C4737 18.2553 57.7712 -1.3839 C.3 0.0 **** -0.159
89 C4710 11.576 61.4005 2.412 C.ar 0.0 **** 0.042
90 H4785 18.2535 58.7544 -0.885379 H 0.0 **** 0.053
91 H4760 9.59375 61.6621 -3.1226 H 0.0 **** 0.053
92 H4765 15.2394 58.5456 10.027 H 0.0 **** 0.053
93 H4757 9.13483 59.2544 -0.188707 H 0.0 **** 0.053
94 C4749 7.85218 64.5373 11.0015 C.3 0.0 **** -0.159
95 H4763 16.4673 59.2995 7.7535 H 0.0 **** 0.053
96 C4701 11.6806 61.2515 0.975842 C.ar 0.0 **** 0.0
97 C4711 12.5045 61.209 4.68969 C.2 0.0 **** 0.367
98 C4717 14.5392 60.2795 7.80742 C.ar 0.0 **** 0.0
99 C4683 17.8547 58.8937 -4.99291 C.ar 0.0 **** 0.0
100 H4806 8.33742 63.016 12.925 H 0.0 **** 0.053
101 H4772 11.2693 60.2284 11.4263 H 0.0 **** 0.053
102 O4744 10.4522 61.8546 2.95281 O.3 0.0 **** -0.452
103 C4688 15.5339 60.1446 -3.75708 C.ar 0.0 **** 0.0
104 C4716 15.5986 59.472 7.1061 C.3 0.0 **** -0.106
105 C4691 14.7477 61.0347 -5.89075 C.ar 0.0 **** 0.0
106 C4722 14.4366 60.3493 9.20655 C.ar 0.0 **** 0.0
107 H4778 19.7812 54.4713 -3.45879 H 0.0 **** 0.053
108 H4797 6.24595 60.2519 -2.12795 H 0.0 **** 0.053
109 H4779 19.0367 54.9878 -1.9343 H 0.0 **** 0.053
110 C4689 15.729 60.3387 -5.10623 C.ar 0.0 **** 0.0
111 C4713 14.8499 60.4933 4.96594 C.ar 0.0 **** 0.0
112 C4687 16.5202 59.3967 -2.90897 C.3 0.0 **** -0.106
113 H4775 8.9408 64.7267 8.54854 H 0.0 **** 0.1268
114 H4764 15.1901 58.4744 6.85661 H 0.0 **** 0.053
115 H4802 6.40444 60.5312 0.389684 H 0.0 **** 0.053
116 H4803 10.6464 61.8066 4.00316 H 0.0 **** 0.41
117 C4743 7.11283 59.6902 0.350867 C.3 0.0 **** -0.159
118 C4735 19.9851 54.9545 -2.49102 C.3 0.0 **** -0.159
119 C4720 12.4728 61.7297 8.89999 C.ar 0.0 **** 0.2405
120 C4712 13.663 60.8895 5.55003 C.ar 0.0 **** 0.0
121 H4753 16.6326 59.2657 -6.7109 H 0.0 **** 0.053
122 C4718 13.5864 60.9769 7.02437 C.ar 0.0 **** 0.2405
123 C4703 9.10899 61.2292 0.597742 C.3 0.0 **** -0.106
124 H4758 8.65627 59.6765 -2.35494 H 0.0 **** 0.053
125 C4723 15.4316 59.6318 10.0933 C.3 0.0 **** -0.106
126 C4699 10.6927 61.5718 -1.24275 C.2 0.0 **** 0.0
127 C4697 11.9929 61.4927 -1.84196 C.ar 0.0 **** 0.0
128 C4748 9.32525 62.592 12.7111 C.3 0.0 **** -0.159
129 C4693 13.3666 61.3427 -3.90625 C.ar 0.0 **** 0.0
130 H4761 16.7522 59.5638 5.24915 H 0.0 **** 0.053
@<TRIPOS>BOND
1 56 57 1
2 7 46 1
3 99 3 am
4 36 99 am
5 24 36 am
6 78 24 am
7 32 3 am
8 32 78 am
9 103 112 1
10 110 103 am
11 81 110 1
12 36 112 1
13 99 81 1
14 5 105 am
15 129 5 am
16 39 129 am
17 110 105 am
18 103 39 am
19 11 75 am
20 127 11 am
21 41 127 am
22 39 75 am
23 129 41 am
24 2 126 1
25 96 2 1
26 69 96 am
27 127 126 1
28 11 69 am
29 35 123 1
30 76 35 am
31 8 76 1
32 2 123 1
33 126 8 1
34 42 7 am
35 38 42 am
36 89 38 am
37 69 7 am
38 96 89 am
39 120 97 1
40 111 120 am
41 47 111 1
42 38 97 1
43 42 47 1
44 104 61 1
45 98 104 1
46 122 98 am
47 111 61 1
48 120 122 am
49 119 77 am
50 55 119 am
51 106 55 am
52 122 77 am
53 98 106 am
54 15 125 1
55 9 15 1
56 87 9 1
57 106 125 1
58 55 87 1
59 52 79 1
60 44 52 am
61 119 44 am
62 87 79 1
63 1 37 am
64 23 1 am
65 50 23 am
66 44 37 am
67 52 50 am
68 78 19 1
69 19 118 1
70 32 20 1
71 24 88 1
72 3 56 1
73 105 12 1
74 5 58 1
75 41 70 1
76 76 28 1
77 35 117 1
78 89 102 1
79 47 22 2
80 97 14 2
81 50 128 1
82 23 94 1
83 112 64 1
84 112 54 1
85 81 67 1
86 81 121 1
87 75 43 1
88 123 65 1
89 123 30 1
90 35 93 1
91 76 124 1
92 8 63 1
93 8 91 1
94 61 130 1
95 61 10 1
96 104 95 1
97 104 114 1
98 125 92 1
99 125 31 1
100 15 29 1
101 15 25 1
102 9 68 1
103 9 33 1
104 87 60 1
105 79 101 1
106 79 26 1
107 37 59 1
108 1 113 1
109 19 84 1
110 19 51 1
111 118 107 1
112 118 109 1
113 118 80 1
114 20 13 1
115 20 62 1
116 20 4 1
117 88 40 1
118 88 90 1
119 88 6 1
120 56 45 1
121 56 83 1
122 12 73 1
123 12 66 1
124 12 34 1
125 58 53 1
126 58 16 1
127 58 21 1
128 70 82 1
129 28 108 1
130 28 74 1
131 28 71 1
132 117 27 1
133 117 17 1
134 117 115 1
135 102 116 1
136 46 85 1
137 128 86 1
138 128 100 1
139 128 48 1
140 94 49 1
141 94 72 1
142 94 18 1
@<TRIPOS>MOLECULE
Sketch 4
250 292
SMALL
USER_CHARGES


@<TRIPOS>ATOM
1 C22512 -7.55347 11.8124 73.2572 C.3 0.0 **** -0.053
2 C22509 -5.23742 12.3414 72.3193 C.3 0.0 **** -0.053
3 C22406 11.2638 23.8611 61.4766 C.3 0.0 **** -0.106
4 H22569 11.36 20.1122 58.2358 H 0.0 **** 0.053
5 C22548 -10.6427 8.14764 77.9386 C.3 0.0 **** -0.106
6 C22408 11.118 22.6264 59.2991 C.3 0.0 **** -0.053
7 C22419 8.88406 18.4731 59.8786 C.2 0.0 **** 0.0
8 C22523 9.09101 24.0952 68.7136 C.3 0.0 **** -0.159
9 H22637 10.0303 24.6326 68.5082 H 0.0 **** 0.053
10 H22563 14.3755 21.0452 60.5872 H 0.0 **** 0.053
11 C22515 -5.61667 13.6958 72.9451 C.3 0.0 **** -0.106
12 C22508 -6.44282 11.6614 69.7135 C.2 0.0 **** 0.0
13 C22424 7.26589 17.7949 63.7464 C.2 0.0 **** 0.0
14 H22643 -12.3215 8.32378 67.1402 H 0.0 **** 0.1268
15 H22578 14.5627 18.2921 64.4239 H 0.0 **** 0.053
16 H22576 8.65487 18.1201 57.7811 H 0.0 **** 0.053
17 H22560 10.1339 21.3545 60.7284 H 0.0 **** 0.053
18 H22555 11.4163 23.0244 62.1766 H 0.0 **** 0.053
19 H22592 5.10162 16.7628 69.6854 H 0.0 **** 0.1268
20 C22533 -13.751 7.35996 69.2172 C.2 0.0 **** -0.1268
21 C22528 -10.1538 9.64326 69.4517 C.2 0.0 **** 0.0
22 C22425 6.50439 17.585 62.5568 C.2 0.0 **** 0.232
23 C22536 -12.6401 7.99985 71.7482 C.2 0.0 **** 0.0
24 C22426 6.99215 17.7958 61.2969 C.2 0.0 **** 0.0
25 H22585 9.25899 20.538 66.5719 H 0.0 **** 0.053
26 C22461 2.76863 15.533 69.8789 C.2 0.0 **** -0.1268
27 H22583 12.6044 17.6286 68.4064 H 0.0 **** 0.053
28 C22507 -7.01843 11.4143 68.4555 C.2 0.0 **** 0.0265
29 H22567 10.6697 18.0648 58.875 H 0.0 **** 0.053
30 C22435 10.7874 18.766 64.7037 C.2 0.0 **** 0.0
31 C22440 12.7139 18.2263 63.3239 C.2 0.0 **** -0.1268
32 C22483 -2.41644 12.6247 74.4622 C.3 0.0 **** -0.106
33 H22626 -8.05047 12.7205 72.8602 H 0.0 **** 0.053
34 H22618 -2.98021 15.6334 59.254 H 0.0 **** 0.053
35 C22437 11.6673 19.0129 65.8444 C.2 0.0 **** 0.0
36 H22614 -0.164292 17.7054 61.093 H 0.0 **** 0.053
37 H22595 -1.53006 14.9071 73.3066 H 0.0 **** 0.053
38 C22497 -1.55824 14.2935 60.2088 C.3 0.0 **** -0.106
39 C22537 -12.1033 8.3235 73.031 C.2 0.0 **** 0.0
40 C22456 2.70831 15.7268 67.4396 C.2 0.0 **** 0.0
41 O22551 -14.0811 7.59641 76.8448 O.2 0.0 **** -0.419
42 C22498 -3.17396 13.1965 66.1526 C.2 0.0 **** 0.0
43 C22489 -1.25955 14.126 64.9686 C.2 0.0 **** 0.0
44 C22434 11.4255 18.6288 63.3969 C.2 0.0 **** 0.0
45 C22457 3.34515 16.1308 66.2339 C.2 0.0 **** 0.0
46 C22439 13.5187 17.9462 64.555 C.3 0.0 **** -0.106
47 H22552 9.35394 24.8949 61.8464 H 0.0 **** 0.053
48 N22486 -2.21443 14.4151 76.514 N.3 0.0 **** -0.727
49 H22646 -14.4462 6.77364 74.9811 H 0.0 **** 0.1268
50 H22629 -5.21008 13.4755 75.0623 H 0.0 **** 0.053
51 H22600 -0.540144 16.1002 75.4907 H 0.0 **** 0.053
52 C22478 1.58936 14.214 72.4742 C.3 0.0 **** 0.107
53 H22606 -2.20887 11.3283 76.1718 H 0.0 **** 0.053
54 C22458 1.42757 15.1145 67.4266 C.2 0.0 **** 0.0
55 H22639 8.25357 24.7932 68.5622 H 0.0 **** 0.053
56 C22459 0.823709 14.6929 68.6509 C.2 0.0 **** 0.0
57 C22504 -4.51382 12.5277 71.0121 C.2 0.0 **** 0.0
58 H22640 3.51296 14.2038 72.1494 H 0.0 **** 0.41
59 H22625 -6.14446 10.394 72.5042 H 0.0 **** 0.053
60 H22588 9.99479 21.799 70.1438 H 0.0 **** 0.053
61 C22499 -2.54067 13.5549 64.9626 C.2 0.0 **** -0.1268
62 C22446 10.164 21.921 67.9689 C.3 0.0 **** -0.053
63 H22645 -15.284 6.33726 70.3095 H 0.0 **** 0.1268
64 C22466 2.68273 15.9223 64.9773 C.2 0.0 **** 0.0
65 C22452 5.25707 16.9709 67.5587 C.2 0.0 **** -0.012
66 C22448 11.5019 20.3998 69.4395 C.3 0.0 **** -0.106
67 H22620 -2.42396 13.6932 60.5283 H 0.0 **** 0.053
68 C22494 -0.678434 16.8619 61.5766 C.3 0.0 **** -0.106
69 H22611 0.116574 13.4695 61.3529 H 0.0 **** 0.053
70 H22596 0.507501 15.9288 73.1413 H 0.0 **** 0.053
71 H22642 -10.4677 9.51375 66.0235 H 0.0 **** 0.1268
72 H22584 10.5498 21.4901 65.8776 H 0.0 **** 0.053
73 H22647 -15.3581 6.18938 72.7689 H 0.0 **** 0.1268
74 C22479 1.18187 14.924 74.9163 C.3 0.0 **** -0.106
75 H22653 -12.4791 9.14584 78.477 H 0.0 **** 0.053
76 H22573 6.28173 17.2405 57.9525 H 0.0 **** 0.053
77 C22541 -13.9413 7.11227 74.0827 C.2 0.0 **** -0.1268
78 H22594 2.94575 16.1686 62.8336 H 0.0 **** 0.1268
79 H22616 -2.75354 16.2291 61.7185 H 0.0 **** 0.053
80 H22649 -9.17374 9.14986 76.7141 H 0.0 **** 0.053
81 C22502 -4.48846 12.633 66.1536 C.2 0.0 **** -0.1268
82 C22432 5.3243 17.0958 65.0773 C.2 0.0 **** 0.0
83 C22422 10.5644 18.9653 62.2026 C.3 0.0 **** -0.053
84 H22570 10.4063 20.062 62.2479 H 0.0 **** 0.053
85 C22547 -10.2599 9.17482 76.8802 C.3 0.0 **** -0.106
86 C22538 -10.9098 9.09598 73.1073 C.2 0.0 **** 0.0
87 C22545 -12.1828 8.23308 75.5058 C.2 0.0 **** 0.052
88 O22493 1.15189 15.5243 62.5419 O.3 0.0 **** -0.202
89 H22651 -10.1405 8.36881 78.8927 H 0.0 **** 0.053
90 C22413 13.4691 21.4693 60.1318 C.3 0.0 **** -0.106
91 C22527 -10.7138 9.3175 68.1742 C.2 0.0 **** 0.0
92 H22630 -6.69671 14.3619 74.7067 H 0.0 **** 0.053
93 H22602 -0.484263 13.3142 76.6881 H 0.0 **** 0.053
94 C22519 -8.62549 10.7574 73.2713 C.2 0.0 **** 0.0
95 C22411 10.9475 21.2579 59.9918 C.3 0.0 **** -0.053
96 H22557 11.6265 22.451 58.3363 H 0.0 **** 0.053
97 C22427 6.11235 17.602 60.0881 C.3 0.0 **** -0.106
98 C22423 8.63748 18.2189 63.5925 C.2 0.0 **** 0.0
99 H22582 13.6324 18.8591 69.167 H 0.0 **** 0.053
100 H22559 9.73002 23.7319 57.9946 H 0.0 **** 0.053
101 H22634 6.77348 22.8191 67.829 H 0.0 **** 0.053
102 C22451 4.65004 16.7383 66.2728 C.2 0.0 **** 0.0
103 C22438 12.9535 18.5585 65.7947 C.2 0.0 **** 0.0
104 C22492 0.220896 15.615 61.4459 C.3 0.0 **** 0.107
105 C22516 -8.38462 10.6886 70.8026 C.2 0.0 **** 0.0
106 C22449 7.46378 17.8955 66.1609 C.2 0.0 **** -0.012
107 C22532 -11.8963 8.57288 68.115 C.2 0.0 **** -0.1268
108 O22475 -0.800038 13.2955 72.2365 O.3 0.0 **** -0.202
109 H22597 1.60186 13.1328 72.7236 H 0.0 **** 0.053
110 H22562 13.5081 21.2339 59.0559 H 0.0 **** 0.053
111 C22431 4.63891 16.8624 63.8713 C.2 0.0 **** 0.232
112 C22482 -1.02287 13.2601 74.5997 C.3 0.0 **** -0.053
113 C22503 -5.12611 12.2475 69.7836 C.2 0.0 **** 0.0
114 H22574 7.41119 16.3003 58.9531 H 0.0 **** 0.053
115 C22468 0.748666 14.9279 66.1773 C.2 0.0 **** 0.0
116 H22641 -8.33343 10.7541 66.1531 H 0.0 **** 0.1268
117 C22534 -14.3681 6.92921 70.3616 C.2 0.0 **** -0.1268
118 O22506 -6.36879 11.7712 67.2961 O.3 0.0 **** -0.0685
119 C22476 -0.719086 14.1612 73.404 C.3 0.0 **** 0.107
120 C22469 1.36255 15.3279 64.9527 C.2 0.0 **** 0.0
121 C22495 -2.07936 16.6554 60.961 C.3 0.0 **** -0.106
122 C22460 1.53477 14.8642 69.8934 C.2 0.0 **** 0.0
123 C22511 -7.12213 11.296 70.8789 C.2 0.0 **** 0.0
124 C22407 11.9866 23.5718 60.1447 C.3 0.0 **** -0.053
125 H22598 1.63427 13.9506 75.1723 H 0.0 **** 0.053
126 H22590 12.3042 21.119 69.6958 H 0.0 **** 0.053
127 C22474 -2.48156 13.4042 67.3912 C.2 0.0 **** 0.0
128 H22607 -3.88825 11.5761 75.6737 H 0.0 **** 0.053
129 H22619 -1.08955 13.7582 59.3695 H 0.0 **** 0.053
130 C22463 -0.321665 13.8273 71.0583 C.2 0.0 **** 0.042
131 H22628 -7.64568 12.3236 75.3742 H 0.0 **** 0.053
132 O22415 12.4347 19.3791 60.6249 O.3 0.0 **** -0.32
133 C22539 -10.256 9.53108 71.9193 C.2 0.0 **** 0.0
134 H22613 -0.767658 17.1075 62.6447 H 0.0 **** 0.053
135 C22505 -3.22403 13.026 71.0298 C.2 0.0 **** -0.1268
136 O22430 5.18624 17.1818 62.6524 O.3 0.0 **** -0.464
137 H22608 -2.78122 12.8854 77.8311 H 0.0 **** 0.053
138 C22481 -0.916624 14.024 75.9622 C.3 0.0 **** 0.134
139 C22417 10.3196 18.7969 59.6277 C.3 0.0 **** -0.053
140 C22530 -11.9905 8.4436 70.5584 C.2 0.0 **** 0.0
141 H22605 -2.39951 11.842 73.6917 H 0.0 **** 0.053
142 H22589 11.4634 19.692 70.2876 H 0.0 **** 0.053
143 H22615 -2.49812 17.6266 60.6589 H 0.0 **** 0.053
144 C22443 11.879 19.6463 68.1976 C.2 0.0 **** 0.0
145 C22477 0.646033 14.8897 73.4799 C.3 0.0 **** -0.053
146 H22575 7.53745 19.3207 58.4294 H 0.0 **** 0.053
147 C22546 -10.9679 8.92911 75.5664 C.2 0.0 **** 0.0
148 C22409 9.75515 23.3068 59.0078 C.3 0.0 **** 0.054
149 C22464 -1.11225 13.7435 69.8733 C.2 0.0 **** 0.0
150 C22529 -10.7987 9.20176 70.6374 C.2 0.0 **** 0.0
151 C22549 -12.1542 8.16029 78.0951 C.3 0.0 **** -0.086
152 H22623 -2.76962 13.2185 71.9889 H 0.0 **** 0.1268
153 C22544 -10.3563 9.42787 74.3745 C.2 0.0 **** 0.0
154 H22650 -10.4963 10.191 77.2486 H 0.0 **** 0.053
155 O22490 -1.34046 14.2313 62.6078 O.3 0.0 **** -0.202
156 C22517 -8.93859 10.3792 69.5281 C.2 0.0 **** 0.0
157 H22599 1.98163 15.6718 74.9897 H 0.0 **** 0.053
158 H22624 -4.53116 11.8736 73.0221 H 0.0 **** 0.053
159 C22485 -3.05151 13.2462 76.8243 C.3 0.0 **** 0.081
160 H22633 8.95212 23.2083 66.7636 H 0.0 **** 0.053
161 C22510 -6.47367 11.4168 72.2323 C.3 0.0 **** -0.053
162 C22433 6.66964 17.6137 65.0003 C.2 0.0 **** 0.0
163 H22648 -8.86749 10.6466 75.3781 H 0.0 **** 0.1268
164 H22577 13.6219 16.847 64.6916 H 0.0 **** 0.053
165 H22609 -4.09433 13.5923 76.8795 H 0.0 **** 0.053
166 C22491 -0.579099 14.3246 61.3842 C.3 0.0 **** 0.107
167 H22571 5.37391 16.8116 60.2853 H 0.0 **** 0.053
168 H22610 -2.69423 15.0199 75.8462 H 0.0 **** 0.353
169 H22580 14.6184 17.9278 66.9905 H 0.0 **** 0.053
170 C22442 13.0102 18.6511 68.2826 C.3 0.0 **** -0.106
171 C22522 7.61584 22.1573 68.0807 C.3 0.0 **** -0.159
172 H22568 9.64651 20.5082 58.4288 H 0.0 **** 0.053
173 C22480 0.023737 15.2296 75.872 C.3 0.0 **** -0.106
174 H22581 14.3708 19.6823 66.942 H 0.0 **** 0.053
175 O22524 2.90109 14.7438 72.673 O.3 0.0 **** -0.57
176 H22565 13.75 23.2306 61.3711 H 0.0 **** 0.053
177 H22636 7.50495 21.2306 67.4974 H 0.0 **** 0.053
178 O22410 9.47514 24.4092 59.879 O.3 0.0 **** -0.32
179 H22652 -10.3074 7.15011 77.6105 H 0.0 **** 0.053
180 C22550 -12.9004 7.94311 76.7846 C.2 0.0 **** 0.347
181 C22518 -8.25901 10.7611 68.3289 C.2 0.0 **** 0.0
182 H22553 9.18544 23.1506 61.5091 H 0.0 **** 0.053
183 C22472 -2.47547 13.2734 69.8629 C.2 0.0 **** 0.0
184 C22416 11.2294 18.6308 60.858 C.3 0.0 **** 0.107
185 C22447 10.1703 21.1341 69.2842 C.3 0.0 **** -0.106
186 C22414 13.4095 22.9922 60.35 C.3 0.0 **** -0.106
187 H22638 9.0926 23.8043 69.7761 H 0.0 **** 0.053
188 H22586 11.0739 22.5499 67.9612 H 0.0 **** 0.053
189 C22412 12.2411 20.7986 60.7236 C.3 0.0 **** 0.107
190 C22429 8.02111 18.349 58.6545 C.3 0.0 **** -0.106
191 H22612 0.861028 15.6823 60.5548 H 0.0 **** 0.053
192 H22558 8.93954 22.5585 59.0923 H 0.0 **** 0.053
193 C22520 -9.08231 10.3085 72.0009 C.2 0.0 **** 0.0
194 C22428 6.93419 17.2871 58.8377 C.3 0.0 **** -0.106
195 C22471 -0.553708 14.3443 66.1906 C.2 0.0 **** 0.0
196 C22450 8.77633 18.286 66.0582 C.2 0.0 **** -0.1268
197 C22420 8.36934 18.2219 61.1405 C.2 0.0 **** 0.0
198 C22525 -8.84886 10.4435 67.0619 C.2 0.0 **** -0.1268
199 C22462 0.961955 14.3386 71.0894 C.2 0.0 **** 0.0
200 H22617 -1.29343 16.1044 59.0268 H 0.0 **** 0.053
201 H22564 14.1177 23.4792 59.663 H 0.0 **** 0.053
202 C22455 3.3616 15.9484 68.6908 C.2 0.0 **** 0.0
203 C22514 -6.0862 13.499 74.399 C.3 0.0 **** -0.106
204 H22566 11.5597 17.5833 60.9175 H 0.0 **** 0.053
205 C22418 10.5475 20.1921 58.9751 C.3 0.0 **** -0.106
206 S22453 6.78 17.8206 67.7699 S.2 0.0 **** 0.024
207 H22561 12.1786 21.0668 61.796 H 0.0 **** 0.053
208 H22556 12.0615 24.5269 59.6046 H 0.0 **** 0.053
209 C22496 -2.00809 15.7004 59.7642 C.3 0.0 **** -0.106
210 H22554 11.7123 24.7532 61.9399 H 0.0 **** 0.053
211 H22572 5.53056 18.5267 59.9126 H 0.0 **** 0.053
212 H22603 -0.265472 12.458 74.5949 H 0.0 **** 0.053
213 H22631 -4.75081 14.3739 72.9045 H 0.0 **** 0.053
214 C22421 9.16878 18.3965 62.327 C.2 0.0 **** 0.0
215 C22500 -4.44568 12.5387 68.5917 C.2 0.0 **** 0.0
216 H22635 7.52513 21.8942 69.1459 H 0.0 **** 0.053
217 C22473 -3.12572 13.0703 68.6091 C.2 0.0 **** 0.0
218 C22470 -1.17606 13.962 67.4075 C.2 0.0 **** 0.0
219 H22587 9.35099 20.3969 69.2663 H 0.0 **** 0.053
220 H22593 3.26852 15.7661 70.8139 H 0.0 **** 0.1268
221 H22622 -5.00575 12.4643 65.2085 H 0.0 **** 0.1268
222 C22454 4.62864 16.5885 68.7163 C.2 0.0 **** -0.1268
223 C22542 -14.4526 6.79562 72.8414 C.2 0.0 **** -0.1268
224 C22488 -0.62775 14.4982 63.7539 C.2 0.0 **** 0.042
225 C22521 8.95172 22.863 67.8137 C.3 0.0 **** -0.053
226 H22644 -14.1665 7.12299 68.236 H 0.0 **** 0.1268
227 H22632 -6.40497 14.1627 72.3335 H 0.0 **** 0.053
228 C22467 3.37942 16.307 63.8131 C.2 0.0 **** -0.1268
229 H22604 -3.1212 13.396 74.1066 H 0.0 **** 0.053
230 C22543 -9.23441 10.2967 74.417 C.2 0.0 **** -0.1268
231 C22436 9.42414 18.4805 64.8011 C.2 0.0 **** 0.0
232 H22654 -12.5275 7.40967 78.8061 H 0.0 **** 0.053
233 H22579 13.2041 18.0971 62.3604 H 0.0 **** 0.1268
234 H22627 -6.2381 11.3647 74.8938 H 0.0 **** 0.053
235 C22501 -5.09333 12.3137 67.3376 C.2 0.0 **** 0.042
236 C22526 -10.0281 9.75523 66.9929 C.2 0.0 **** -0.1268
237 C22444 11.2533 19.8267 67.0102 C.2 0.0 **** 0.0
238 C22441 13.8418 18.7092 66.9979 C.3 0.0 **** -0.106
239 C22445 10.2584 20.9432 66.7921 C.3 0.0 **** -0.106
240 C22531 -12.5466 8.12727 69.2769 C.2 0.0 **** 0.0
241 C22405 9.74892 24.067 61.242 C.3 0.0 **** 0.054
242 H22621 -3.04942 13.395 64.0133 H 0.0 **** 0.1268
243 C22487 0.615491 15.1117 63.7411 C.2 0.0 **** 0.042
244 C22540 -12.7616 7.89484 74.2217 C.2 0.0 **** 0.0
245 C22465 -0.485455 14.1259 68.6542 C.2 0.0 **** 0.0
246 C22484 -2.91895 12.0843 75.8 C.3 0.0 **** -0.106
247 H22591 9.36105 18.4176 66.9684 H 0.0 **** 0.1268
248 C22535 -13.833 7.2353 71.6502 C.2 0.0 **** 0.0
249 H22601 0.370115 15.4978 76.8795 H 0.0 **** 0.053
250 C22513 -6.89739 12.1917 74.5798 C.3 0.0 **** -0.106
@<TRIPOS>BOND
1 138 93 1
2 52 175 1
3 86 153 un
4 124 3 1
5 6 124 1
6 148 6 1
7 178 148 1
8 241 3 1
9 241 178 1
10 189 95 1
11 90 189 1
12 186 90 1
13 6 95 1
14 124 186 1
15 184 132 1
16 139 184 1
17 205 139 1
18 189 132 1
19 95 205 1
20 197 7 un
21 214 197 un
22 83 214 un
23 139 7 1
24 184 83 1
25 13 98 1
26 22 13 un
27 24 22 un
28 214 98 un
29 197 24 un
30 194 97 1
31 190 194 1
32 7 190 1
33 24 97 1
34 111 136 1
35 82 111 un
36 162 82 un
37 22 136 1
38 13 162 un
39 30 44 un
40 231 30 2
41 83 44 1
42 98 231 un
43 103 35 2
44 46 103 1
45 31 46 1
46 30 35 1
47 44 31 2
48 170 238 1
49 144 170 1
50 237 144 2
51 103 238 1
52 35 237 1
53 62 239 1
54 185 62 1
55 66 185 1
56 237 239 1
57 144 66 1
58 196 106 un
59 231 196 un
60 162 106 un
61 65 102 un
62 206 65 1
63 106 206 un
64 82 102 un
65 202 222 un
66 40 202 un
67 45 40 un
68 65 222 un
69 102 45 un
70 56 54 un
71 122 56 un
72 26 122 un
73 40 54 un
74 202 26 un
75 130 199 un
76 149 130 un
77 245 149 un
78 122 199 un
79 56 245 un
80 228 64 un
81 111 228 un
82 45 64 un
83 120 115 un
84 64 120 un
85 54 115 un
86 195 218 un
87 115 195 un
88 245 218 un
89 217 183 un
90 127 217 un
91 218 127 un
92 149 183 un
93 119 108 1
94 145 119 1
95 52 145 1
96 130 108 1
97 199 52 1
98 173 74 1
99 138 173 1
100 112 138 1
101 145 74 1
102 119 112 1
103 246 32 1
104 159 246 1
105 48 159 1
106 112 32 1
107 138 48 1
108 224 243 un
109 43 224 un
110 195 43 un
111 120 243 un
112 166 155 1
113 104 166 1
114 88 104 1
115 224 155 1
116 243 88 1
117 121 68 1
118 209 121 1
119 38 209 1
120 104 68 1
121 166 38 1
122 61 42 un
123 43 61 un
124 127 42 un
125 235 215 un
126 81 235 un
127 42 81 un
128 217 215 un
129 57 113 un
130 135 57 un
131 183 135 un
132 215 113 un
133 28 118 1
134 12 28 un
135 235 118 1
136 113 12 1
137 161 2 1
138 123 161 1
139 57 2 1
140 12 123 un
141 250 1 1
142 203 250 1
143 11 203 1
144 161 1 1
145 2 11 1
146 156 105 1
147 181 156 1
148 28 181 un
149 123 105 un
150 1 94 1
151 105 193 un
152 94 193 un
153 62 225 1
154 225 171 1
155 225 8 1
156 236 198 1
157 91 236 un
158 21 91 1
159 181 198 un
160 156 21 un
161 140 150 un
162 240 140 1
163 107 240 un
164 21 150 un
165 91 107 un
166 117 20 un
167 248 117 1
168 23 248 1
169 240 20 un
170 140 23 un
171 86 39 un
172 133 86 un
173 150 133 un
174 23 39 un
175 77 244 un
176 223 77 un
177 248 223 un
178 39 244 un
179 153 230 un
180 193 133 un
181 94 230 un
182 147 87 un
183 153 147 un
184 244 87 un
185 5 85 1
186 151 5 1
187 180 151 1
188 147 85 1
189 87 180 1
190 180 41 2
191 241 47 1
192 241 182 1
193 3 210 1
194 3 18 1
195 124 208 1
196 6 96 1
197 148 192 1
198 148 100 1
199 95 17 1
200 189 207 1
201 90 110 1
202 90 10 1
203 186 201 1
204 186 176 1
205 184 204 1
206 139 29 1
207 205 172 1
208 205 4 1
209 83 84 1
210 97 167 1
211 97 211 1
212 194 76 1
213 194 114 1
214 190 146 1
215 190 16 1
216 46 164 1
217 46 15 1
218 31 233 1
219 238 169 1
220 238 174 1
221 170 99 1
222 170 27 1
223 239 72 1
224 239 25 1
225 62 188 1
226 185 219 1
227 185 60 1
228 66 142 1
229 66 126 1
230 196 247 1
231 222 19 1
232 26 220 1
233 228 78 1
234 119 37 1
235 145 70 1
236 52 109 1
237 74 125 1
238 74 157 1
239 173 51 1
240 173 249 1
241 112 212 1
242 32 229 1
243 32 141 1
244 246 53 1
245 246 128 1
246 159 137 1
247 159 165 1
248 48 168 1
249 166 69 1
250 104 191 1
251 68 134 1
252 68 36 1
253 121 143 1
254 121 79 1
255 209 200 1
256 209 34 1
257 38 129 1
258 38 67 1
259 61 242 1
260 81 221 1
261 135 152 1
262 2 158 1
263 161 59 1
264 1 33 1
265 250 234 1
266 250 131 1
267 203 50 1
268 203 92 1
269 11 213 1
270 11 227 1
271 225 160 1
272 171 101 1
273 171 216 1
274 171 177 1
275 8 9 1
276 8 187 1
277 8 55 1
278 175 58 1
279 198 116 1
280 236 71 1
281 107 14 1
282 20 226 1
283 117 63 1
284 77 49 1
285 223 73 1
286 230 163 1
287 85 80 1
288 85 154 1
289 5 89 1
290 5 179 1
291 151 75 1
292 151 232 1
@<TRIPOS>MOLECULE
Sketch 4
130 142
SMALL
USER_CHARGES


@<TRIPOS>ATOM
1 H10094 18.736 11.0595 43.3558 H 0.0 **** 0.053
2 C10046 17.8806 11.081 44.0574 C.3 0.0 **** -0.106
3 C10027 13.3154 7.26157 36.201 C.ar 0.0 **** 0.0
4 H10139 16.9035 1.34567 47.7075 H 0.0 **** 0.053
5 C10068 11.389 15.1943 31.5282 C.3 0.0 **** -0.159
6 H10080 14.2935 12.0013 35.3426 H 0.0 **** 0.053
7 H10111 12.9079 17.2117 31.3655 H 0.0 **** 0.053
8 H10123 11.5605 6.84598 32.5527 H 0.0 **** 0.053
9 C10050 17.7248 7.30659 46.0108 C.ar 0.0 **** 0.2405
10 C10018 12.524 11.1058 34.5827 C.ar 0.0 **** 0.0
11 C10032 14.4845 8.27962 38.1496 C.ar 0.0 **** 0.0
12 H10081 12.8673 12.3849 36.2594 H 0.0 **** 0.053
13 C10044 15.6818 10.3153 41.12 C.2 0.0 **** 0.367
14 H10098 20.0954 11.3078 48.6293 H 0.0 **** 0.053
15 C10072 15.062 2.77239 34.7973 C.3 0.0 **** -0.159
16 C10024 12.7239 9.80971 35.1502 C.ar 0.0 **** 0.0
17 H10110 16.6635 17.9355 34.8018 H 0.0 **** 0.053
18 H10112 14.0822 17.8638 32.5148 H 0.0 **** 0.053
19 C10035 15.2591 4.22072 35.2563 C.ar 0.0 **** -0.053
20 C10014 13.1383 13.588 34.5128 C.ar 0.0 **** 0.0
21 H10113 12.3471 18.0789 32.8063 H 0.0 **** 0.053
22 C10054 19.4141 10.5303 48.2519 C.3 0.0 **** -0.106
23 C10021 11.0687 10.1194 32.888 C.ar 0.0 **** 0.0
24 C10065 16.1026 17.0658 34.4255 C.3 0.0 **** -0.159
25 C10025 13.4733 9.67971 36.3293 C.ar 0.0 **** -0.1268
26 H10086 14.8322 3.71924 37.9257 H 0.0 **** 0.053
27 C10029 13.9106 6.00032 36.5337 C.2 0.0 **** 0.0
28 H10122 9.68892 11.3303 31.7319 H 0.0 **** 0.053
29 H10109 16.6103 16.1509 34.7655 H 0.0 **** 0.053
30 H10138 18.6554 1.41657 48.0089 H 0.0 **** 0.053
31 C10060 16.8008 4.98942 46.1128 C.ar 0.0 **** -0.1268
32 C10040 15.4036 6.77788 39.9002 C.ar 0.0 **** 0.042
33 C10026 13.7791 8.4418 36.8922 C.ar 0.0 **** 0.0
34 H10120 9.35734 9.59492 31.6585 H 0.0 **** 0.053
35 H10087 16.8065 5.33267 36.2571 H 0.0 **** 0.053
36 C10057 19.5745 6.66312 48.0906 C.3 0.0 **** -0.106
37 H10090 13.3375 4.99698 34.6859 H 0.0 **** 0.053
38 N10049 17.1217 7.47366 44.8289 N.ar 0.0 **** -0.481
39 H10135 20.6546 4.27543 48.9138 H 0.0 **** 0.053
40 H10130 18.0159 3.5055 37.3469 H 0.0 **** 0.053
41 O10071 11.5462 6.35389 34.8264 O.3 0.0 **** -0.452
42 H10100 20.9088 9.01792 47.8431 H 0.0 **** 0.053
43 C10043 16.3004 10.0834 42.4168 C.ar 0.0 **** 0.0
44 C10028 12.342 7.41955 35.1832 C.ar 0.0 **** 0.042
45 C10034 16.2583 4.3919 36.4296 C.ar 0.0 **** -0.053
46 O10075 14.5098 10.6448 38.6641 O.3 0.0 **** -0.452
47 C10013 12.3235 13.7549 33.3907 C.ar 0.0 **** 0.0
48 H10103 19.918 6.45864 49.1141 H 0.0 **** 0.053
49 C10051 18.3849 8.35581 46.6854 C.ar 0.0 **** 0.0
50 H10129 14.7232 2.142 35.6351 H 0.0 **** 0.053
51 C10022 11.3051 8.83246 33.3605 C.ar 0.0 **** 0.0
52 H10082 10.4127 12.8849 32.9838 H 0.0 **** 0.053
53 C10053 19.1193 10.7794 46.7687 C.3 0.0 **** -0.106
54 H10115 14.1377 14.0546 37.0878 H 0.0 **** 0.053
55 H10116 15.288 15.3101 36.5758 H 0.0 **** 0.053
56 H10131 17.8544 3.14066 35.6111 H 0.0 **** 0.053
57 C10047 17.8334 9.78394 44.8203 C.ar 0.0 **** 0.0
58 C10056 18.981 8.07233 48.0448 C.3 0.0 **** -0.053
59 C10064 14.6438 17.0844 34.9087 C.3 0.0 **** -0.106
60 C10030 14.7009 5.8673 37.6676 C.2 0.0 **** 0.0
61 H10124 10.592 7.92204 31.5324 H 0.0 **** 0.053
62 H10106 14.6208 17.0816 36.0084 H 0.0 **** 0.053
63 H10092 15.7463 11.4254 43.9717 H 0.0 **** 0.053
64 C10066 13.1058 17.3687 32.4334 C.3 0.0 **** -0.159
65 C10011 13.0771 16.0633 33.1999 C.ar 0.0 **** 0.0
66 C10037 14.7878 9.39252 39.0172 C.ar 0.0 **** 0.042
67 C10023 12.1089 8.66025 34.5401 C.ar 0.0 **** 0.0
68 H10108 16.1438 17.075 33.3256 H 0.0 **** 0.053
69 C10012 12.2826 15.0001 32.7327 C.ar 0.0 **** 0.0
70 H10085 16.2048 4.60286 38.586 H 0.0 **** 0.053
71 H10137 19.4131 4.43812 50.1629 H 0.0 **** 0.053
72 C10015 13.8944 14.6639 35.0197 C.ar 0.0 **** 0.0
73 C10036 13.8633 4.79467 35.6238 C.3 0.0 **** -0.106
74 C10062 17.7176 3.34221 47.658 C.ar 0.0 **** 0.0
75 C10016 13.8479 15.9125 34.3736 C.ar 0.0 **** 0.0
76 C10031 14.8615 6.9711 38.5719 C.ar 0.0 **** 0.0
77 H10101 18.1458 8.09748 48.7737 H 0.0 **** 0.053
78 H10118 11.9403 15.0357 30.5843 H 0.0 **** 0.053
79 O10077 16.5583 6.45706 42.3957 O.2 0.0 **** -0.419
80 H10088 15.6376 4.8004 34.3997 H 0.0 **** 0.053
81 C10079 17.6975 1.93104 48.1907 C.3 0.0 **** -0.159
82 C10055 19.9993 9.13414 48.4585 C.3 0.0 **** -0.106
83 C10078 19.6452 3.94558 49.2031 C.3 0.0 **** -0.159
84 O10074 15.603 5.55053 40.3644 O.3 0.0 **** -0.452
85 C10052 18.4253 9.62176 46.0837 C.ar 0.0 **** 0.0
86 H10125 9.89647 7.20335 33.0054 H 0.0 **** 0.053
87 H10133 16.0492 5.71781 41.3216 H 0.0 **** 0.41
88 H10105 16.1197 2.9547 46.267 H 0.0 **** 0.1268
89 H10084 13.8186 10.5693 36.8302 H 0.0 **** 0.1268
90 H10099 20.2939 8.97705 49.5082 H 0.0 **** 0.053
91 O10076 15.3982 11.5126 40.7547 O.2 0.0 **** -0.419
92 C10045 16.5895 11.2843 43.2696 C.3 0.0 **** -0.106
93 C10063 18.6289 4.30384 48.1435 C.ar 0.0 **** 0.0
94 C10073 17.2948 3.27217 36.5495 C.3 0.0 **** -0.159
95 C10039 15.692 7.87979 40.7325 C.ar 0.0 **** 0.052
96 H10134 14.8315 11.235 39.4884 H 0.0 **** 0.41
97 C10038 15.3917 9.18585 40.2806 C.ar 0.0 **** 0.052
98 H10121 10.7159 10.2807 30.7454 H 0.0 **** 0.053
99 H10102 20.4763 6.63757 47.4483 H 0.0 **** 0.053
100 H10097 18.4784 10.613 48.8296 H 0.0 **** 0.053
101 C10067 14.7456 14.4191 36.2434 C.3 0.0 **** -0.159
102 C10020 11.4813 12.616 32.8705 C.3 0.0 **** -0.106
103 C10017 13.2291 12.2673 35.2193 C.3 0.0 **** -0.106
104 H10140 17.5256 1.91047 49.2788 H 0.0 **** 0.053
105 H10091 16.6292 12.1822 42.6401 H 0.0 **** 0.053
106 H10136 19.6838 2.86576 49.3868 H 0.0 **** 0.053
107 H10095 20.0644 10.9861 46.2348 H 0.0 **** 0.053
108 H10119 10.9769 16.2117 31.4935 H 0.0 **** 0.053
109 C10033 15.4975 4.58627 37.7566 C.3 0.0 **** -0.106
110 H10104 16.1238 5.26348 45.3037 H 0.0 **** 0.1268
111 C10070 10.8076 7.64279 32.5699 C.3 0.0 **** -0.159
112 C10061 16.8151 3.70671 46.6463 C.ar 0.0 **** -0.1268
113 C10069 10.1612 10.3408 31.6984 C.3 0.0 **** -0.159
114 C10058 18.5983 5.61155 47.6246 C.ar 0.0 **** 0.0
115 H10128 14.2938 2.72288 34.0102 H 0.0 **** 0.053
116 H10132 16.819 2.3112 36.796 H 0.0 **** 0.053
117 H10126 11.6364 5.66894 35.5079 H 0.0 **** 0.41
118 C10019 11.7035 11.2597 33.4877 C.ar 0.0 **** 0.0
119 H10127 15.9882 2.33679 34.3979 H 0.0 **** 0.053
120 H10107 14.1712 18.0299 34.6093 H 0.0 **** 0.053
121 H10114 15.4936 13.6334 36.0465 H 0.0 **** 0.053
122 H10096 18.513 11.6923 46.6629 H 0.0 **** 0.053
123 C10042 16.587 8.81623 42.8849 C.ar 0.0 **** 0.0
124 H10089 13.3118 3.98659 36.1426 H 0.0 **** 0.053
125 H10083 11.6221 12.5319 31.7795 H 0.0 **** 0.053
126 C10041 16.2902 7.64578 42.0326 C.2 0.0 **** 0.367
127 H10117 10.5424 14.4966 31.5284 H 0.0 **** 0.053
128 H10093 18.0477 11.9348 44.7257 H 0.0 **** 0.053
129 C10048 17.1895 8.6698 44.2276 C.ar 0.0 **** 0.2405
130 C10059 17.6902 5.95587 46.6016 C.ar 0.0 **** 0.0
@<TRIPOS>BOND
1 2 1 1
2 47 69 am
3 20 47 am
4 72 20 am
5 75 72 am
6 65 69 am
7 65 75 am
8 10 103 1
9 118 10 am
10 102 118 1
11 20 103 1
12 47 102 1
13 51 23 am
14 67 51 am
15 16 67 am
16 118 23 am
17 10 16 am
18 33 25 am
19 3 33 am
20 44 3 am
21 16 25 am
22 67 44 am
23 60 27 1
24 76 60 1
25 11 76 am
26 3 27 1
27 33 11 am
28 45 109 1
29 19 45 am
30 73 19 1
31 60 109 1
32 27 73 1
33 97 66 am
34 95 97 am
35 32 95 am
36 11 66 am
37 76 32 am
38 123 126 1
39 43 123 am
40 13 43 1
41 95 126 1
42 97 13 1
43 2 92 1
44 57 2 1
45 129 57 am
46 43 92 1
47 123 129 am
48 9 38 am
49 49 9 am
50 85 49 am
51 129 38 am
52 57 85 am
53 22 53 1
54 82 22 1
55 58 82 1
56 85 53 1
57 49 58 1
58 114 36 1
59 130 114 am
60 9 130 am
61 58 36 1
62 112 31 am
63 74 112 am
64 93 74 am
65 130 31 am
66 114 93 am
67 75 59 1
68 59 24 1
69 65 64 1
70 72 101 1
71 69 5 1
72 23 113 1
73 51 111 1
74 44 41 1
75 19 15 1
76 45 94 1
77 32 84 1
78 66 46 1
79 13 91 2
80 126 79 2
81 93 83 1
82 74 81 1
83 103 6 1
84 103 12 1
85 102 52 1
86 102 125 1
87 25 89 1
88 109 70 1
89 109 26 1
90 45 35 1
91 19 80 1
92 73 124 1
93 73 37 1
94 92 105 1
95 92 63 1
96 2 128 1
97 53 107 1
98 53 122 1
99 22 100 1
100 22 14 1
101 82 90 1
102 82 42 1
103 58 77 1
104 36 99 1
105 36 48 1
106 31 110 1
107 112 88 1
108 59 62 1
109 59 120 1
110 24 68 1
111 24 29 1
112 24 17 1
113 64 7 1
114 64 18 1
115 64 21 1
116 101 121 1
117 101 54 1
118 101 55 1
119 5 127 1
120 5 78 1
121 5 108 1
122 113 34 1
123 113 98 1
124 113 28 1
125 111 8 1
126 111 61 1
127 111 86 1
128 41 117 1
129 15 119 1
130 15 115 1
131 15 50 1
132 94 40 1
133 94 56 1
134 94 116 1
135 84 87 1
136 46 96 1
137 83 39 1
138 83 106 1
139 83 71 1
140 81 30 1
141 81 4 1
142 81 104 1
@<TRIPOS>MOLECULE
Sketch 4
130 142
SMALL
USER_CHARGES


@<TRIPOS>ATOM
1 C9792 62.4559 2.63759 -3.28384 C.ar 0.0 **** 0.0
2 C9799 65.8758 3.82985 -4.34689 C.ar 0.0 **** 0.0
3 C9795 62.5964 1.44904 -5.91485 C.3 0.0 **** -0.106
4 C9812 71.0843 5.23037 6.93554 C.3 0.0 **** -0.159
5 H9851 57.4707 5.329 13.2261 H 0.0 **** 0.053
6 H9835 61.2282 0.893003 -3.42535 H 0.0 **** 0.053
7 H9872 71.2879 3.80953 4.64768 H 0.0 **** 0.053
8 H9849 58.1456 2.23907 9.17764 H 0.0 **** 0.053
9 C9793 61.2476 1.91643 -3.84155 C.3 0.0 **** -0.106
10 H9867 71.6646 4.31319 7.10654 H 0.0 **** 0.053
11 O9816 61.4037 4.72016 2.69049 O.2 0.0 **** -0.419
12 H9832 60.8868 4.80555 -0.503744 H 0.0 **** 0.053
13 H9827 68.4401 3.42163 5.72464 H 0.0 **** 0.053
14 C9782 63.7187 4.12053 -0.0486176 C.ar 0.0 **** 0.0
15 C9788 63.6482 3.71772 -1.46987 C.ar 0.0 **** 0.2405
16 C9801 67.9926 4.94372 -4.67064 C.ar 0.0 **** -0.1268
17 C9802 68.2248 4.22587 -5.85463 C.ar 0.0 **** 0.0
18 H9836 60.3263 2.40038 -3.48192 H 0.0 **** 0.053
19 H9856 58.5034 3.86976 7.46137 H 0.0 **** 0.053
20 H9865 66.6804 9.60337 10.2536 H 0.0 **** 0.053
21 H9844 66.6777 5.2801 -2.97896 H 0.0 **** 0.1268
22 C9818 67.4911 2.46169 -7.53275 C.3 0.0 **** -0.159
23 C9767 66.2787 6.64393 6.65015 C.ar 0.0 **** 0.0
24 H9863 67.2555 7.94364 10.381 H 0.0 **** 0.053
25 H9870 70.1115 2.57135 4.15222 H 0.0 **** 0.053
26 C9778 63.7697 4.91899 2.72771 C.ar 0.0 **** 0.052
27 H9848 57.4866 2.41033 10.8151 H 0.0 **** 0.053
28 O9815 62.5884 5.41813 4.6961 O.3 0.0 **** -0.452
29 H9829 69.4899 6.99766 6.10988 H 0.0 **** 0.053
30 C9768 66.2437 7.45341 7.81291 C.ar 0.0 **** 0.042
31 C9810 66.4115 8.6008 10.6216 C.3 0.0 **** -0.159
32 H9852 56.7049 4.25018 12.0535 H 0.0 **** 0.053
33 C9805 57.2765 2.59516 9.75054 C.3 0.0 **** -0.159
34 H9873 67.0084 4.78537 0.985327 H 0.0 **** 0.41
35 H9859 58.2636 7.35777 13.2063 H 0.0 **** 0.053
36 C9777 63.7657 5.32695 4.08306 C.ar 0.0 **** 0.042
37 H9850 56.3992 1.9965 9.46012 H 0.0 **** 0.053
38 C9786 61.3824 2.75106 -0.967238 C.3 0.0 **** -0.106
39 C9794 61.2245 1.84625 -5.37235 C.3 0.0 **** -0.106
40 C9796 63.6311 2.51463 -5.55516 C.3 0.0 **** -0.053
41 H9838 60.4469 1.13908 -5.69855 H 0.0 **** 0.053
42 C9753 60.4032 6.54617 10.7139 C.ar 0.0 **** 0.0
43 H9824 62.9648 5.86877 6.5674 H 0.0 **** 0.1268
44 C9756 58.2279 4.93631 9.92568 C.ar 0.0 **** 0.0
45 H9868 71.2237 5.89029 7.8057 H 0.0 **** 0.053
46 C9764 63.9462 6.81173 8.22441 C.ar 0.0 **** 0.0
47 H9831 60.4812 3.67943 0.797248 H 0.0 **** 0.053
48 H9821 61.2242 6.53352 7.59495 H 0.0 **** 0.053
49 C9807 59.3945 4.45833 7.70248 C.3 0.0 **** -0.159
50 H9862 62.8805 9.19128 12.2753 H 0.0 **** 0.053
51 H9857 59.8969 7.97784 12.924 H 0.0 **** 0.053
52 C9766 65.0282 6.14812 6.12478 C.ar 0.0 **** 0.0
53 H9823 61.8564 7.16119 12.1609 H 0.0 **** 0.053
54 C9798 66.0865 3.10576 -5.53894 C.ar 0.0 **** 0.0
55 C9819 69.4976 4.46922 -6.62689 C.3 0.0 **** -0.159
56 H9842 65.2732 1.12012 -5.45955 H 0.0 **** 0.053
57 H9843 65.0755 1.90672 -7.02826 H 0.0 **** 0.053
58 C9797 65.048 2.08966 -5.9451 C.3 0.0 **** -0.106
59 H9847 56.1393 4.41717 10.035 H 0.0 **** 0.053
60 C9751 58.2472 5.52655 11.2086 C.ar 0.0 **** 0.0
61 C9791 63.5716 2.89401 -4.09363 C.ar 0.0 **** 0.0
62 C9763 65.1383 7.46385 8.69904 C.ar 0.0 **** 0.0
63 H9841 63.3949 3.42979 -6.13484 H 0.0 **** 0.053
64 C9785 61.2319 3.8986 0.027506 C.3 0.0 **** -0.106
65 H9858 59.6704 6.41846 13.7321 H 0.0 **** 0.053
66 H9820 61.8963 5.05054 8.20398 H 0.0 **** 0.053
67 H9834 61.6115 1.81912 -0.416362 H 0.0 **** 0.053
68 O9814 67.3228 5.11876 1.9514 O.3 0.0 **** -0.452
69 H9846 56.8287 4.25985 8.43527 H 0.0 **** 0.053
70 C9759 62.7712 7.44238 10.2565 C.ar 0.0 **** 0.0
71 H9876 68.5134 2.56549 -7.91412 H 0.0 **** 0.053
72 C9783 62.5487 4.20364 0.680144 C.ar 0.0 **** 0.0
73 C9790 64.6747 3.57125 -3.53129 C.ar 0.0 **** 0.2405
74 H9830 68.7904 6.67226 7.70618 H 0.0 **** 0.053
75 H9861 64.1841 8.16539 12.8899 H 0.0 **** 0.053
76 C9781 65.005 4.42989 0.61024 C.2 0.0 **** 0.367
77 C9809 63.8928 8.8296 12.0571 C.3 0.0 **** -0.159
78 C9804 57.0434 4.09369 9.50119 C.3 0.0 **** -0.106
79 H9860 64.5632 9.69803 12.0792 H 0.0 **** 0.053
80 C9773 68.7676 4.98845 4.3257 C.3 0.0 **** -0.106
81 C9808 59.2849 7.06729 12.9257 C.3 0.0 **** -0.159
82 C9772 64.9982 5.63444 4.76833 C.ar 0.0 **** 0.0
83 H9840 62.9056 0.485243 -5.47317 H 0.0 **** 0.053
84 C9775 69.5954 4.9377 6.72444 C.ar 0.0 **** -0.053
85 H9855 59.5349 5.20707 6.90561 H 0.0 **** 0.053
86 H9871 70.795 2.54429 5.79676 H 0.0 **** 0.053
87 H9878 70.1149 3.55777 -6.68643 H 0.0 **** 0.053
88 C9776 68.8475 6.29831 6.67948 C.3 0.0 **** -0.106
89 H9854 60.2624 3.78132 7.63925 H 0.0 **** 0.053
90 N9789 64.6934 3.99349 -2.26252 N.ar 0.0 **** -0.481
91 C9769 67.4949 6.2385 6.00814 C.2 0.0 **** 0.0
92 H9839 62.5684 1.31259 -7.00755 H 0.0 **** 0.053
93 O9811 67.2894 8.30753 8.08348 O.3 0.0 **** -0.452
94 C9770 67.4677 5.62194 4.76438 C.2 0.0 **** 0.0
95 H9825 68.6471 4.39757 3.41746 H 0.0 **** 0.053
96 C9762 65.1351 8.0835 9.9964 C.ar 0.0 **** 0.0
97 C9787 62.4964 3.0386 -1.9383 C.ar 0.0 **** 0.0
98 H9845 68.7445 5.66171 -4.33585 H 0.0 **** 0.1268
99 C9760 61.5486 7.43279 11.1368 C.3 0.0 **** -0.106
100 O9817 66.1175 4.34283 0.000634943 O.2 0.0 **** -0.419
101 H9864 66.3243 8.64766 11.713 H 0.0 **** 0.053
102 H9828 69.2281 4.38984 7.60653 H 0.0 **** 0.053
103 C9761 63.9507 8.11439 10.7256 C.ar 0.0 **** 0.0
104 H9874 61.8766 5.14404 3.95485 H 0.0 **** 0.41
105 H9826 69.5268 5.76078 4.10198 H 0.0 **** 0.053
106 H9879 70.0989 5.25264 -6.14604 H 0.0 **** 0.053
107 H9833 60.4309 2.58021 -1.48573 H 0.0 **** 0.053
108 C9780 66.1981 5.12073 2.65618 C.ar 0.0 **** 0.042
109 H9877 66.8025 2.76158 -8.34117 H 0.0 **** 0.053
110 C9784 62.5254 4.61901 2.07484 C.2 0.0 **** 0.367
111 C9813 70.4364 3.2036 4.99183 C.3 0.0 **** -0.159
112 C9800 66.8427 4.74821 -3.91593 C.ar 0.0 **** -0.1268
113 H9822 61.1756 8.47128 11.2346 H 0.0 **** 0.053
114 H9875 67.3087 1.39322 -7.34146 H 0.0 **** 0.053
115 C9771 66.2251 5.46078 4.06306 C.ar 0.0 **** 0.0
116 C9757 61.5729 6.05436 8.53059 C.3 0.0 **** -0.106
117 H9866 67.8325 8.38227 7.28277 H 0.0 **** 0.41
118 H9880 69.2902 4.78258 -7.66262 H 0.0 **** 0.053
119 C9765 63.9038 6.24093 6.94328 C.ar 0.0 **** -0.1268
120 H9869 71.5081 5.74219 6.05667 H 0.0 **** 0.053
121 C9754 60.4134 5.90759 9.47177 C.ar 0.0 **** 0.0
122 C9806 57.1242 5.25584 12.1874 C.3 0.0 **** -0.159
123 C9774 69.2804 4.08712 5.4668 C.ar 0.0 **** -0.053
124 C9803 67.2651 3.28606 -6.2865 C.ar 0.0 **** 0.0
125 H9837 60.9533 2.83461 -5.77962 H 0.0 **** 0.053
126 C9755 59.325 5.11099 9.06304 C.ar 0.0 **** 0.0
127 C9752 59.3121 6.36485 11.5868 C.ar 0.0 **** 0.0
128 H9853 56.2946 5.97453 12.0675 H 0.0 **** 0.053
129 C9758 62.7745 6.79322 9.04218 C.ar 0.0 **** 0.0
130 C9779 64.982 4.82448 2.0055 C.ar 0.0 **** 0.052
@<TRIPOS>BOND
1 14 15 am
2 39 41 1
3 77 79 1
4 88 84 1
5 22 114 1
6 54 58 1
7 42 127 am
8 121 42 am
9 126 121 am
10 44 126 am
11 60 127 am
12 60 44 am
13 129 116 1
14 70 129 am
15 99 70 1
16 121 116 1
17 42 99 1
18 96 103 am
19 62 96 am
20 46 62 am
21 70 103 am
22 129 46 am
23 52 119 am
24 23 52 am
25 30 23 am
26 46 119 am
27 62 30 am
28 94 91 1
29 115 94 1
30 82 115 am
31 23 91 1
32 52 82 am
33 123 80 1
34 84 123 am
35 94 80 1
36 91 88 1
37 26 36 am
38 130 26 am
39 108 130 am
40 82 36 am
41 115 108 am
42 14 76 1
43 72 14 am
44 110 72 1
45 130 76 1
46 26 110 1
47 38 64 1
48 97 38 1
49 15 97 am
50 72 64 1
51 73 90 am
52 61 73 am
53 1 61 am
54 15 90 am
55 97 1 am
56 39 9 1
57 3 39 1
58 40 3 1
59 1 9 1
60 61 40 1
61 2 54 am
62 73 2 am
63 40 58 1
64 16 112 am
65 17 16 am
66 124 17 am
67 2 112 am
68 54 124 am
69 44 78 1
70 78 33 1
71 60 122 1
72 126 49 1
73 127 81 1
74 103 77 1
75 96 31 1
76 30 93 1
77 84 4 1
78 123 111 1
79 108 68 1
80 36 28 1
81 110 11 2
82 76 100 2
83 124 22 1
84 17 55 1
85 116 66 1
86 116 48 1
87 99 113 1
88 99 53 1
89 119 43 1
90 80 95 1
91 80 105 1
92 123 13 1
93 84 102 1
94 88 29 1
95 88 74 1
96 64 47 1
97 64 12 1
98 38 107 1
99 38 67 1
100 9 6 1
101 9 18 1
102 39 125 1
103 3 92 1
104 3 83 1
105 40 63 1
106 58 56 1
107 58 57 1
108 112 21 1
109 16 98 1
110 78 69 1
111 78 59 1
112 33 27 1
113 33 8 1
114 33 37 1
115 122 5 1
116 122 32 1
117 122 128 1
118 49 89 1
119 49 85 1
120 49 19 1
121 81 51 1
122 81 65 1
123 81 35 1
124 77 75 1
125 77 50 1
126 31 24 1
127 31 101 1
128 31 20 1
129 93 117 1
130 4 10 1
131 4 45 1
132 4 120 1
133 111 25 1
134 111 86 1
135 111 7 1
136 68 34 1
137 28 104 1
138 22 71 1
139 22 109 1
140 55 87 1
141 55 106 1
142 55 118 1
@<TRIPOS>MOLECULE
Sketch 4
250 292
SMALL
USER_CHARGES


@<TRIPOS>ATOM
1 H29558 48.3982 11.8809 75.5212 H 0.0 **** 0.053
2 C29533 55.4212 -4.19877 52.2728 C.2 0.0 **** -0.1268
3 H29581 46.6544 19.7005 69.5881 H 0.0 **** 0.053
4 C29460 52.0395 10.1148 60.8816 C.2 0.0 **** 0.0
5 H29569 44.935 12.548 75.1497 H 0.0 **** 0.053
6 C29459 51.7965 8.81028 61.4456 C.2 0.0 **** 0.0
7 H29650 58.9609 3.69934 49.409 H 0.0 **** 0.053
8 H29565 47.0592 17.0743 75.6667 H 0.0 **** 0.053
9 C29409 48.406 12.6765 76.2953 C.3 0.0 **** 0.054
10 H29625 54.5293 4.40269 54.0301 H 0.0 **** 0.053
11 C29455 51.2104 11.1483 62.9318 C.2 0.0 **** 0.0
12 C29424 48.0874 11.8684 68.6613 C.2 0.0 **** 0.0
13 H29588 52.0365 18.7701 67.5758 H 0.0 **** 0.053
14 H29635 53.1024 16.3291 67.6726 H 0.0 **** 0.053
15 C29476 54.3768 10.1779 57.3557 C.3 0.0 **** 0.107
16 H29570 47.1864 14.0858 72.0554 H 0.0 **** 0.053
17 S29453 50.125 13.7945 65.7351 S.2 0.0 **** 0.024
18 H29577 44.1571 17.0228 69.0813 H 0.0 **** 0.053
19 C29544 57.1108 1.9489 50.9502 C.2 0.0 **** 0.0
20 C29518 54.2046 0.503082 56.6237 C.2 0.0 **** 0.0
21 C29474 52.2774 5.17734 60.5837 C.2 0.0 **** 0.0
22 C29418 45.7806 12.3673 74.4674 C.3 0.0 **** -0.106
23 H29555 48.6172 15.6783 74.3396 H 0.0 **** 0.053
24 C29527 54.5629 -1.89073 55.1154 C.2 0.0 **** 0.0
25 C29461 51.7803 11.249 61.6665 C.2 0.0 **** -0.1268
26 H29591 48.6954 15.496 67.3848 H 0.0 **** 0.1268
27 H29613 51.7924 4.86179 66.8164 H 0.0 **** 0.053
28 C29530 55.7291 -1.76705 52.5264 C.2 0.0 **** 0.0
29 C29497 49.2537 2.05236 66.4422 C.3 0.0 **** -0.106
30 C29452 50.3293 12.257 64.9103 C.2 0.0 **** -0.012
31 C29546 57.6355 2.01335 49.6221 C.2 0.0 **** 0.0
32 C29519 56.5497 3.03611 53.0677 C.2 0.0 **** 0.0
33 H29576 44.9298 9.63209 73.4205 H 0.0 **** 0.053
34 C29442 47.3096 19.1196 67.6019 C.3 0.0 **** -0.106
35 C29543 57.0793 3.0873 51.7978 C.2 0.0 **** -0.1268
36 H29623 54.3024 7.5217 57.1691 H 0.0 **** 0.1268
37 H29631 56.6446 6.85317 56.7619 H 0.0 **** 0.053
38 C29496 50.2945 1.85962 67.5643 C.3 0.0 **** -0.106
39 H29634 53.6082 15.2678 69.0039 H 0.0 **** 0.053
40 H29649 57.2441 4.11132 49.4484 H 0.0 **** 0.053
41 H29572 47.9424 8.56055 71.3599 H 0.0 **** 0.053
42 H29589 49.7916 19.3728 66.474 H 0.0 **** 0.053
43 C29502 52.373 2.70541 60.3984 C.2 0.0 **** -0.1268
44 C29425 47.8697 10.5441 69.1492 C.2 0.0 **** 0.232
45 C29482 54.4468 10.3651 55.8411 C.3 0.0 **** -0.053
46 H29574 44.8996 8.81719 71.061 H 0.0 **** 0.053
47 H29610 57.17 10.2981 55.6864 H 0.0 **** 0.353
48 H29608 56.603 10.7452 52.8611 H 0.0 **** 0.053
49 H29584 49.6582 16.677 70.5027 H 0.0 **** 0.053
50 C29412 45.9735 14.8417 74.1023 C.3 0.0 **** 0.107
51 H29651 58.206 4.38313 47.1479 H 0.0 **** 0.053
52 C29528 55.0154 -0.637915 54.5888 C.2 0.0 **** 0.0
53 C29417 45.2305 12.1606 73.0255 C.3 0.0 **** -0.053
54 C29505 54.0184 6.57003 57.5898 C.2 0.0 **** -0.1268
55 C29435 47.131 15.4036 69.5823 C.2 0.0 **** 0.0
56 C29462 52.5251 10.2037 59.5433 C.2 0.0 **** 0.0
57 O29430 48.3964 9.46801 68.4608 O.3 0.0 **** -0.464
58 C29434 46.1019 15.1103 70.5764 C.2 0.0 **** 0.0
59 H29583 46.8917 18.5824 66.7286 H 0.0 **** 0.053
60 H29560 47.5809 13.384 73.9008 H 0.0 **** 0.053
61 H29647 57.0782 -3.74981 48.5822 H 0.0 **** 0.1268
62 C29405 49.9002 14.1644 75.2355 C.3 0.0 **** 0.054
63 O29415 44.8378 14.5241 73.2828 O.3 0.0 **** -0.32
64 C29526 53.9577 -1.90983 56.4157 C.2 0.0 **** -0.1268
65 H29644 55.0744 -5.14592 52.69 H 0.0 **** 0.1268
66 H29620 49.4787 1.39491 65.5884 H 0.0 **** 0.053
67 C29473 52.9462 5.27923 59.3379 C.2 0.0 **** 0.0
68 C29485 56.574 10.0679 53.7314 C.3 0.0 **** 0.081
69 H29616 51.9362 2.55243 66.3479 H 0.0 **** 0.053
70 C29511 55.017 2.98521 55.5012 C.2 0.0 **** 0.0
71 C29470 51.9133 6.35219 61.2929 C.2 0.0 **** 0.0
72 C29499 51.3666 3.79171 62.3654 C.2 0.0 **** -0.1268
73 C29466 49.9814 8.50267 65.328 C.2 0.0 **** 0.0
74 C29521 52.3695 16.9475 69.6293 C.3 0.0 **** -0.053
75 C29456 50.8953 9.8688 63.484 C.2 0.0 **** 0.0
76 C29509 55.2694 5.55798 55.6935 C.3 0.0 **** -0.053
77 C29432 49.3046 10.931 66.7458 C.2 0.0 **** 0.0
78 H29645 56.0749 -5.05135 50.4194 H 0.0 **** 0.1268
79 C29498 52.0001 3.87892 61.1259 C.2 0.0 **** 0.0
80 H29603 53.4515 10.7132 55.5166 H 0.0 **** 0.053
81 H29652 56.9066 3.17204 47.1919 H 0.0 **** 0.053
82 H29626 57.3954 3.81164 54.8103 H 0.0 **** 0.053
83 H29628 57.9726 5.4407 52.8988 H 0.0 **** 0.053
84 H29552 50.9623 14.4442 75.2553 H 0.0 **** 0.053
85 H29646 57.9092 -1.61892 47.668 H 0.0 **** 0.1268
86 H29553 49.709 13.6183 74.2901 H 0.0 **** 0.053
87 C29514 57.4597 6.42449 54.7785 C.3 0.0 **** -0.106
88 H29648 57.5236 4.01833 51.4563 H 0.0 **** 0.1268
89 C29416 45.1199 13.5135 72.3 C.3 0.0 **** 0.107
90 H29562 44.8195 14.992 75.8971 H 0.0 **** 0.053
91 C29520 55.9555 1.83111 53.5355 C.2 0.0 **** 0.0
92 H29554 49.538 16.2708 75.7301 H 0.0 **** 0.053
93 C29449 49.0853 13.4254 67.0933 C.2 0.0 **** -0.012
94 H29561 46.6583 15.4822 73.5135 H 0.0 **** 0.053
95 H29556 48.1703 15.1435 77.3066 H 0.0 **** 0.053
96 C29411 46.7244 13.5623 74.5704 C.3 0.0 **** -0.053
97 C29438 46.2036 17.6316 69.2644 C.2 0.0 **** 0.0
98 C29535 56.4338 -2.91169 50.4673 C.2 0.0 **** 0.0
99 C29550 58.6005 0.935796 47.5976 C.2 0.0 **** 0.347
100 C29540 57.3795 -0.431579 49.3946 C.2 0.0 **** 0.0
101 C29507 53.9916 1.7184 57.3015 C.2 0.0 **** 0.0265
102 H29636 51.9434 15.1825 68.3798 H 0.0 **** 0.053
103 C29407 47.7872 15.1176 76.276 C.3 0.0 **** -0.053
104 H29566 44.2304 13.4987 71.6531 H 0.0 **** 0.053
105 H29639 54.4312 17.3947 70.1973 H 0.0 **** 0.053
106 C29420 46.617 11.356 71.0626 C.2 0.0 **** 0.0
107 C29421 46.787 12.6975 70.5638 C.2 0.0 **** 0.0
108 C29503 54.0444 4.17169 57.4339 C.2 0.0 **** 0.0
109 H29615 52.296 2.5491 68.0833 H 0.0 **** 0.053
110 C29463 52.9023 9.05067 58.8811 C.2 0.0 **** 0.042
111 C29439 44.9174 17.1832 69.8773 C.3 0.0 **** -0.106
112 H29643 54.3614 -4.00387 54.7476 H 0.0 **** 0.1268
113 C29443 48.6161 18.4886 68.0165 C.2 0.0 **** 0.0
114 H29595 55.3201 9.71414 57.7 H 0.0 **** 0.053
115 H29593 52.0556 12.2337 61.3017 H 0.0 **** 0.1268
116 H29632 57.2106 5.19422 56.5765 H 0.0 **** 0.053
117 H29607 55.4078 8.28593 53.2042 H 0.0 **** 0.053
118 C29523 53.529 17.9235 69.8541 C.3 0.0 **** -0.159
119 C29492 49.6702 4.50788 66.9313 C.3 0.0 **** 0.107
120 O29475 53.3211 9.20024 57.5766 O.3 0.0 **** -0.202
121 H29582 47.4748 20.1623 67.2887 H 0.0 **** 0.053
122 N29486 56.7625 10.8729 54.9478 N.3 0.0 **** -0.727
123 C29487 50.0853 5.97369 65.0994 C.2 0.0 **** 0.042
124 C29414 46.6506 16.1616 76.131 C.3 0.0 **** -0.106
125 C29427 47.0421 8.84086 70.7809 C.3 0.0 **** -0.106
126 O29524 52.3654 12.7149 59.2259 O.3 0.0 **** -0.57
127 C29541 57.4624 -1.64458 48.6561 C.2 0.0 **** -0.1268
128 H29586 50.9869 18.5736 69.8892 H 0.0 **** 0.053
129 H29654 58.8892 2.22029 45.9312 H 0.0 **** 0.053
130 H29624 54.8404 6.36654 55.0821 H 0.0 **** 0.053
131 H29633 52.1541 16.4493 70.5923 H 0.0 **** 0.053
132 C29480 55.7508 12.4643 56.538 C.3 0.0 **** -0.106
133 H29557 46.44 13.4862 76.7008 H 0.0 **** 0.053
134 H29637 53.2672 18.6844 70.6063 H 0.0 **** 0.053
135 C29515 56.6954 6.01421 56.0515 C.3 0.0 **** -0.106
136 H29619 48.2496 1.78003 66.8003 H 0.0 **** 0.053
137 C29512 56.6513 4.1577 54.0648 C.3 0.0 **** -0.053
138 H29596 54.7738 11.4827 59.0403 H 0.0 **** 0.053
139 H29598 53.6313 12.935 56.6126 H 0.0 **** 0.053
140 H29606 54.4785 9.79007 53.1433 H 0.0 **** 0.053
141 C29468 50.9337 7.41113 63.3103 C.2 0.0 **** 0.0
142 C29408 47.2719 13.6942 76.0073 C.3 0.0 **** -0.053
143 H29587 51.0617 17.3696 67.0871 H 0.0 **** 0.053
144 C29406 48.9813 15.404 75.3423 C.3 0.0 **** -0.106
145 H29568 46.2851 11.4542 74.8166 H 0.0 **** 0.053
146 H29573 45.7715 7.64986 72.0799 H 0.0 **** 0.053
147 H29571 47.0091 8.15671 69.9208 H 0.0 **** 0.053
148 O29506 53.3608 1.66074 58.5231 O.3 0.0 **** -0.0685
149 C29501 53.0144 2.82239 59.1965 C.2 0.0 **** 0.042
150 C29433 48.8494 12.0718 67.5044 C.2 0.0 **** 0.0
151 H29604 55.5438 8.50915 55.7117 H 0.0 **** 0.053
152 H29575 46.6871 9.48881 73.4624 H 0.0 **** 0.053
153 C29542 57.0037 -2.83667 49.1766 C.2 0.0 **** -0.1268
154 C29534 55.9757 -4.14596 51.0214 C.2 0.0 **** -0.1268
155 C29522 52.7715 15.868 68.616 C.3 0.0 **** -0.159
156 H29614 51.1855 4.61466 68.4595 H 0.0 **** 0.053
157 O29493 49.5415 5.82235 66.3553 O.3 0.0 **** -0.202
158 H29621 51.1408 2.8132 62.7864 H 0.0 **** 0.1268
159 C29448 49.8918 19.1238 67.5462 C.3 0.0 **** -0.106
160 C29489 51.0213 4.94576 63.084 C.2 0.0 **** 0.0
161 C29510 55.3094 4.29013 54.8093 C.3 0.0 **** -0.053
162 C29441 46.3127 19.0441 68.762 C.3 0.0 **** -0.106
163 H29630 58.5427 6.37953 54.971 H 0.0 **** 0.053
164 C29423 47.5189 12.9584 69.4186 C.2 0.0 **** 0.0
165 C29413 45.4695 15.643 75.2905 C.3 0.0 **** -0.106
166 H29567 44.1965 11.7894 73.1608 H 0.0 **** 0.053
167 C29517 54.8527 0.553198 55.3496 C.2 0.0 **** 0.0
168 C29446 51.083 17.6963 69.2225 C.3 0.0 **** -0.053
169 C29431 49.0195 9.64911 67.25 C.2 0.0 **** 0.232
170 H29564 46.2798 16.4558 77.1243 H 0.0 **** 0.053
171 C29513 57.1046 5.52561 53.5678 C.3 0.0 **** -0.106
172 C29529 55.5964 -0.586071 53.294 C.2 0.0 **** 0.0
173 C29479 54.4555 12.7225 57.315 C.3 0.0 **** -0.106
174 C29504 54.414 5.42369 56.9253 C.2 0.0 **** 0.0
175 H29594 49.0731 7.55479 67.0605 H 0.0 **** 0.1268
176 C29481 55.5016 11.4439 55.4233 C.3 0.0 **** 0.134
177 H29641 53.3029 -0.795851 58.1201 H 0.0 **** 0.1268
178 H29600 56.5144 12.0649 57.2298 H 0.0 **** 0.053
179 H29601 56.1706 13.3824 56.1045 H 0.0 **** 0.053
180 C29508 54.3723 2.94944 56.7406 C.2 0.0 **** 0.0
181 C29428 45.808 8.66966 71.6673 C.3 0.0 **** -0.106
182 H29602 55.0743 11.985 54.5618 H 0.0 **** 0.053
183 H29642 53.6268 -2.87012 56.8151 H 0.0 **** 0.1268
184 C29488 50.3875 4.84729 64.3497 C.2 0.0 **** 0.042
185 C29471 51.291 6.24811 62.5642 C.2 0.0 **** 0.0
186 C29538 56.6548 0.7052 51.4673 C.2 0.0 **** 0.0
187 C29457 50.2846 9.78855 64.7658 C.2 0.0 **** 0.0
188 C29450 48.5501 14.4896 67.7767 C.2 0.0 **** -0.1268
189 H29585 50.0484 15.8044 69.0395 H 0.0 **** 0.053
190 C29525 53.7796 -0.764376 57.1405 C.2 0.0 **** -0.1268
191 C29484 55.2518 9.25046 53.7132 C.3 0.0 **** -0.106
192 C29445 49.8443 16.8158 69.4227 C.3 0.0 **** -0.106
193 C29494 51.1095 4.25084 67.4244 C.3 0.0 **** -0.106
194 H29638 53.7861 18.4461 68.919 H 0.0 **** 0.053
195 H29611 48.208 3.75455 65.5467 H 0.0 **** 0.053
196 H29629 57.2222 7.46966 54.5347 H 0.0 **** 0.053
197 H29618 50.5912 0.801692 67.6152 H 0.0 **** 0.053
198 C29495 51.5128 2.7627 67.3412 C.3 0.0 **** -0.106
199 C29464 52.7907 7.74308 59.4415 C.2 0.0 **** 0.0
200 C29531 55.2792 -3.01646 53.0632 C.2 0.0 **** 0.0
201 C29447 51.1039 18.2232 67.7834 C.3 0.0 **** -0.106
202 C29454 50.9294 12.3226 63.6787 C.2 0.0 **** -0.1268
203 H29590 50.0346 20.0949 68.0592 H 0.0 **** 0.053
204 H29599 54.5404 13.5957 57.9741 H 0.0 **** 0.053
205 H29579 44.2558 15.7343 71.4269 H 0.0 **** 0.1268
206 H29563 44.848 16.4773 74.9348 H 0.0 **** 0.053
207 H29578 44.4947 18.0116 70.4788 H 0.0 **** 0.053
208 C29467 49.3405 8.48648 66.5841 C.2 0.0 **** -0.1268
209 C29477 54.1217 11.4819 58.1523 C.3 0.0 **** -0.053
210 C29516 55.296 1.79495 54.8127 C.2 0.0 **** 0.0
211 C29539 56.0632 0.656992 52.7619 C.2 0.0 **** 0.0
212 C29537 56.7797 -0.479698 50.688 C.2 0.0 **** 0.0
213 C29429 45.8326 9.70835 72.7912 C.3 0.0 **** -0.106
214 C29465 52.1649 7.64115 60.7156 C.2 0.0 **** 0.0
215 C29483 54.756 9.03103 55.1415 C.3 0.0 **** -0.106
216 C29547 57.9626 3.37762 49.0568 C.3 0.0 **** -0.106
217 C29422 46.3175 13.8646 71.4029 C.3 0.0 **** -0.053
218 O29490 50.121 3.56881 64.7825 O.3 0.0 **** -0.202
219 H29605 53.8724 8.37879 55.1662 H 0.0 **** 0.053
220 H29612 48.9607 4.51205 67.771 H 0.0 **** 0.053
221 C29478 52.6737 11.4393 58.6612 C.3 0.0 **** 0.107
222 H29622 52.1479 1.7202 60.8082 H 0.0 **** 0.1268
223 H29592 51.1944 13.289 63.2438 H 0.0 **** 0.1268
224 H29580 45.3195 19.4116 68.4582 H 0.0 **** 0.053
225 C29444 48.5905 17.3828 68.7979 C.2 0.0 **** 0.0
226 C29419 45.9471 11.1056 72.2496 C.2 0.0 **** 0.0
227 C29491 49.2156 3.48434 65.9044 C.3 0.0 **** 0.107
228 H29653 59.9187 2.57181 47.3246 H 0.0 **** 0.053
229 C29532 54.7082 -3.04938 54.3456 C.2 0.0 **** -0.1268
230 C29549 58.8843 2.31932 47.026 C.3 0.0 **** -0.086
231 H29609 57.4413 9.39711 53.6417 H 0.0 **** 0.053
232 C29451 49.9648 10.9901 65.492 C.2 0.0 **** 0.0
233 H29627 56.2867 5.97273 52.9775 H 0.0 **** 0.053
234 H29640 51.4114 12.7312 59.3987 H 0.0 **** 0.41
235 C29436 47.7659 14.3278 68.9586 C.2 0.0 **** 0.0
236 C29472 53.2514 6.55254 58.7708 C.2 0.0 **** 0.0
237 C29440 45.0455 15.9436 70.7072 C.2 0.0 **** -0.1268
238 O29551 59.0713 -0.0383996 47.0084 O.2 0.0 **** -0.419
239 O29410 49.7065 13.2761 76.3415 O.3 0.0 **** -0.32
240 C29437 47.2845 16.8019 69.185 C.2 0.0 **** 0.0
241 C29469 50.3253 7.30126 64.5965 C.2 0.0 **** 0.0
242 C29426 47.1884 10.2624 70.3007 C.2 0.0 **** 0.0
243 H29597 52.0271 11.2785 57.7739 H 0.0 **** 0.053
244 C29545 57.8325 0.8431 48.8766 C.2 0.0 **** 0.052
245 C29458 51.2089 8.69914 62.7431 C.2 0.0 **** 0.0
246 C29536 56.313 -1.71715 51.226 C.2 0.0 **** 0.0
247 C29548 57.932 3.3893 47.5333 C.3 0.0 **** -0.106
248 H29617 49.8409 2.10601 68.5396 H 0.0 **** 0.053
249 H29559 48.2766 12.2027 77.2785 H 0.0 **** 0.053
250 C29500 53.3363 4.10019 58.643 C.2 0.0 **** 0.0
@<TRIPOS>BOND
1 107 106 un
2 149 148 1
3 45 176 1
4 103 144 1
5 142 103 1
6 9 142 1
7 239 9 1
8 62 144 1
9 62 239 1
10 50 96 1
11 165 50 1
12 124 165 1
13 142 96 1
14 103 124 1
15 89 63 1
16 53 89 1
17 22 53 1
18 50 63 1
19 96 22 1
20 106 226 un
21 217 107 un
22 53 226 1
23 89 217 1
24 12 164 1
25 44 12 un
26 242 44 un
27 107 164 un
28 106 242 un
29 181 125 1
30 213 181 1
31 226 213 1
32 242 125 1
33 169 57 1
34 77 169 un
35 150 77 un
36 44 57 1
37 12 150 un
38 55 58 un
39 235 55 2
40 217 58 1
41 164 235 un
42 97 240 2
43 111 97 1
44 237 111 1
45 55 240 1
46 58 237 2
47 34 162 1
48 113 34 1
49 225 113 2
50 97 162 1
51 240 225 1
52 168 192 1
53 201 168 1
54 159 201 1
55 225 192 1
56 113 159 1
57 188 93 un
58 235 188 un
59 150 93 un
60 30 232 un
61 17 30 1
62 93 17 un
63 77 232 un
64 11 202 un
65 75 11 un
66 187 75 un
67 30 202 un
68 232 187 un
69 6 245 un
70 4 6 un
71 25 4 un
72 75 245 un
73 11 25 un
74 110 56 un
75 199 110 un
76 214 199 un
77 4 56 un
78 6 214 un
79 208 73 un
80 169 208 un
81 187 73 un
82 241 141 un
83 73 241 un
84 245 141 un
85 185 71 un
86 141 185 un
87 214 71 un
88 67 236 un
89 21 67 un
90 71 21 un
91 199 236 un
92 15 120 1
93 209 15 1
94 221 209 1
95 110 120 1
96 56 221 1
97 132 173 1
98 176 132 1
99 209 173 1
100 15 45 1
101 191 215 1
102 68 191 1
103 122 68 1
104 45 215 1
105 176 122 1
106 184 123 un
107 160 184 un
108 185 160 un
109 241 123 un
110 227 218 1
111 119 227 1
112 157 119 1
113 184 218 1
114 123 157 1
115 198 193 1
116 38 198 1
117 29 38 1
118 119 193 1
119 227 29 1
120 72 79 un
121 160 72 un
122 21 79 un
123 149 250 un
124 43 149 un
125 79 43 un
126 67 250 un
127 174 108 un
128 54 174 un
129 236 54 un
130 250 108 un
131 101 148 1
132 180 101 un
133 108 180 1
134 161 76 1
135 70 161 1
136 174 76 1
137 180 70 un
138 171 137 1
139 87 171 1
140 135 87 1
141 161 137 1
142 76 135 1
143 167 210 1
144 20 167 1
145 101 20 un
146 70 210 un
147 137 32 1
148 210 91 un
149 32 91 un
150 168 74 1
151 74 155 1
152 74 118 1
153 221 126 1
154 64 190 1
155 24 64 un
156 52 24 1
157 20 190 un
158 167 52 un
159 28 172 un
160 200 28 1
161 229 200 un
162 52 172 un
163 24 229 un
164 154 2 un
165 98 154 1
166 246 98 1
167 200 2 un
168 28 246 un
169 186 212 un
170 211 186 un
171 172 211 un
172 246 212 un
173 127 100 un
174 153 127 un
175 98 153 un
176 212 100 un
177 19 35 un
178 186 19 un
179 91 211 un
180 32 35 un
181 31 244 un
182 19 31 un
183 100 244 un
184 247 216 1
185 230 247 1
186 99 230 1
187 31 216 1
188 244 99 1
189 99 238 2
190 62 84 1
191 62 86 1
192 144 92 1
193 144 23 1
194 103 95 1
195 142 133 1
196 9 1 1
197 9 249 1
198 96 60 1
199 50 94 1
200 165 90 1
201 165 206 1
202 124 170 1
203 124 8 1
204 89 104 1
205 53 166 1
206 22 145 1
207 22 5 1
208 217 16 1
209 125 147 1
210 125 41 1
211 181 146 1
212 181 46 1
213 213 152 1
214 213 33 1
215 111 18 1
216 111 207 1
217 237 205 1
218 162 224 1
219 162 3 1
220 34 121 1
221 34 59 1
222 192 49 1
223 192 189 1
224 168 128 1
225 201 143 1
226 201 13 1
227 159 42 1
228 159 203 1
229 188 26 1
230 202 223 1
231 25 115 1
232 208 175 1
233 15 114 1
234 209 138 1
235 221 243 1
236 173 139 1
237 173 204 1
238 132 178 1
239 132 179 1
240 176 182 1
241 45 80 1
242 215 151 1
243 215 219 1
244 191 140 1
245 191 117 1
246 68 48 1
247 68 231 1
248 122 47 1
249 227 195 1
250 119 220 1
251 193 27 1
252 193 156 1
253 198 109 1
254 198 69 1
255 38 248 1
256 38 197 1
257 29 136 1
258 29 66 1
259 72 158 1
260 43 222 1
261 54 36 1
262 76 130 1
263 161 10 1
264 137 82 1
265 171 233 1
266 171 83 1
267 87 196 1
268 87 163 1
269 135 37 1
270 135 116 1
271 74 131 1
272 155 39 1
273 155 14 1
274 155 102 1
275 118 134 1
276 118 194 1
277 118 105 1
278 126 234 1
279 190 177 1
280 64 183 1
281 229 112 1
282 2 65 1
283 154 78 1
284 127 85 1
285 153 61 1
286 35 88 1
287 216 40 1
288 216 7 1
289 247 51 1
290 247 81 1
291 230 228 1
292 230 129 1
@<TRIPOS>MOLECULE
Sketch 4
130 142
SMALL
USER_CHARGES


@<TRIPOS>ATOM
1 H7526 34.1128 37.5426 12.8098 H 0.0 **** 0.41
2 C7424 37.1428 40.583 12.9879 C.ar 0.0 **** 0.0
3 C7434 34.5107 36.671 17.5977 C.ar 0.0 **** -0.053
4 H7492 32.8208 46.8013 18.664 H 0.0 **** 0.053
5 C7459 28.5613 43.7694 22.3076 C.ar 0.0 **** 0.0
6 C7421 38.3206 39.6449 10.6034 C.ar 0.0 **** 0.0
7 H7522 39.3124 40.0584 8.71885 H 0.0 **** 0.053
8 H7508 43.9151 45.0921 14.2583 H 0.0 **** 0.053
9 H7482 39.565 41.9855 9.57365 H 0.0 **** 0.053
10 C7452 31.3018 46.3621 22.184 C.ar 0.0 **** 0.0
11 H7481 37.8529 43.2974 13.0882 H 0.0 **** 0.053
12 H7533 31.6269 40.6216 18.9428 H 0.0 **** 0.41
13 H7513 43.3898 45.9109 10.4182 H 0.0 **** 0.053
14 H7534 35.6159 44.0984 16.2443 H 0.0 **** 0.41
15 C7433 33.3617 37.6674 17.3438 C.3 0.0 **** -0.106
16 H7486 32.4891 37.122 16.9386 H 0.0 **** 0.053
17 C7466 43.5521 45.0573 11.0994 C.3 0.0 **** -0.159
18 H7514 39.7339 43.9631 15.2143 H 0.0 **** 0.053
19 C7417 38.6823 42.5638 13.0662 C.3 0.0 **** -0.106
20 O7475 35.7554 43.1664 15.7513 O.3 0.0 **** -0.452
21 H7488 35.9768 35.8632 16.2299 H 0.0 **** 0.053
22 C7444 34.2384 44.2418 17.7651 C.2 0.0 **** 0.367
23 C7440 33.0106 40.6977 17.6621 C.ar 0.0 **** 0.042
24 H7511 44.1623 44.3218 10.56 H 0.0 **** 0.053
25 C7416 41.6041 44.9575 12.7214 C.ar 0.0 **** 0.0
26 C7411 42.2436 44.4555 11.5666 C.ar 0.0 **** 0.0
27 H7493 33.454 47.4637 20.9628 H 0.0 **** 0.053
28 C7414 39.9095 43.2228 12.5082 C.ar 0.0 **** 0.0
29 O7471 34.9615 37.7035 12.3677 O.3 0.0 **** -0.452
30 H7497 29.8892 48.7648 23.0542 H 0.0 **** 0.053
31 C7441 32.297 42.5729 19.0976 C.2 0.0 **** 0.367
32 C7412 41.6721 43.3901 10.8468 C.ar 0.0 **** 0.0
33 H7537 25.7807 44.4882 25.4231 H 0.0 **** 0.053
34 C7435 34.8788 35.9285 16.2872 C.ar 0.0 **** -0.053
35 C7419 38.7776 40.8633 11.2113 C.ar 0.0 **** 0.0
36 H7525 36.1269 37.4585 10.0565 H 0.0 **** 0.053
37 H7484 36.7772 42.0889 14.47 H 0.0 **** 0.1268
38 C7469 38.9587 39.2019 9.30565 C.3 0.0 **** -0.159
39 C7443 33.4043 44.7629 18.8379 C.ar 0.0 **** 0.0
40 C7425 36.5028 41.1066 14.1216 C.ar 0.0 **** -0.1268
41 C7428 35.6152 38.7061 13.0485 C.ar 0.0 **** 0.042
42 C7462 26.322 42.2777 23.1491 C.ar 0.0 **** 0.0
43 H7494 34.2199 45.899 21.2485 H 0.0 **** 0.053
44 C7431 33.8753 40.1205 16.6547 C.ar 0.0 **** 0.0
45 H7539 24.8381 40.7636 22.753 H 0.0 **** 0.053
46 C7426 35.5102 40.4126 14.8114 C.ar 0.0 **** 0.0
47 H7501 28.3742 46.7307 23.149 H 0.0 **** 0.053
48 H7527 34.7168 33.8464 16.9627 H 0.0 **** 0.053
49 C7438 34.0953 42.8633 17.3856 C.ar 0.0 **** 0.052
50 H7490 34.9886 36.3791 14.1883 H 0.0 **** 0.053
51 C7448 31.6315 44.6097 20.5412 C.ar 0.0 **** 0.2405
52 H7521 39.8322 38.5497 9.48242 H 0.0 **** 0.053
53 H7487 35.3822 37.2835 17.8819 H 0.0 **** 0.053
54 H7520 38.253 38.6433 8.67792 H 0.0 **** 0.053
55 C7458 27.9748 44.0157 23.5666 C.ar 0.0 **** 0.0
56 H7540 24.2577 42.0878 23.7946 H 0.0 **** 0.053
57 C7467 39.7464 44.7737 14.4671 C.3 0.0 **** -0.159
58 C7415 40.4445 44.3249 13.2049 C.ar 0.0 **** 0.0
59 C7422 37.339 38.8641 11.2053 C.ar 0.0 **** 0.0
60 H7532 33.2818 35.1611 18.5918 H 0.0 **** 0.053
61 H7499 29.1721 47.6929 25.2382 H 0.0 **** 0.053
62 C7451 30.1309 45.6967 22.5747 C.ar 0.0 **** 0.0
63 H7507 42.759 46.7765 12.7492 H 0.0 **** 0.053
64 H7516 40.2205 45.6421 14.9357 H 0.0 **** 0.053
65 H7531 35.0147 35.051 18.9779 H 0.0 **** 0.053
66 C7472 34.3145 34.5079 16.1832 C.3 0.0 **** -0.159
67 C7445 33.5778 46.2069 19.2093 C.3 0.0 **** -0.106
68 H7480 38.8545 42.3337 14.1321 H 0.0 **** 0.053
69 O7477 31.463 41.8046 19.6728 O.2 0.0 **** -0.419
70 C7453 31.7296 47.6396 22.874 C.3 0.0 **** -0.106
71 C7465 43.0947 45.7321 14.6174 C.3 0.0 **** -0.159
72 N7449 30.4898 44.0026 20.8949 N.ar 0.0 **** -0.481
73 C7457 28.611 45.0561 24.4547 C.3 0.0 **** -0.106
74 H7483 40.7088 40.8959 10.3101 H 0.0 **** 0.053
75 H7506 41.3788 46.7937 13.8233 H 0.0 **** 0.053
76 H7496 32.0893 48.3639 22.1269 H 0.0 **** 0.053
77 C7454 30.6249 48.2827 23.7195 C.3 0.0 **** -0.106
78 H7485 33.0427 38.108 18.2886 H 0.0 **** 0.053
79 C7429 34.4371 38.2228 15.2111 C.2 0.0 **** 0.0
80 O7474 32.0545 39.9631 18.217 O.3 0.0 **** -0.452
81 O7476 35.0728 45.0169 17.1734 O.2 0.0 **** -0.419
82 H7500 30.6437 46.7003 25.1974 H 0.0 **** 0.053
83 H7518 43.1207 42.1893 9.75436 H 0.0 **** 0.053
84 C7442 32.4566 43.9914 19.481 C.ar 0.0 **** 0.0
85 C7455 29.9098 47.2293 24.5641 C.3 0.0 **** -0.106
86 H7504 28.5044 42.5804 20.5186 H 0.0 **** 0.1268
87 C7460 28.0236 42.7772 21.4768 C.ar 0.0 **** -0.1268
88 C7420 39.9092 41.6141 10.5589 C.3 0.0 **** -0.106
89 C7478 26.2887 43.5099 25.3734 C.3 0.0 **** -0.159
90 H7529 33.2169 34.5179 16.2786 H 0.0 **** 0.053
91 H7515 38.6905 45.0243 14.2735 H 0.0 **** 0.053
92 C7463 26.8679 43.2623 23.9997 C.ar 0.0 **** 0.0
93 H7489 33.347 36.4191 14.8571 H 0.0 **** 0.053
94 H7524 37.8746 37.1184 10.0455 H 0.0 **** 0.053
95 H7530 34.0228 36.3482 19.6892 H 0.0 **** 0.053
96 C7423 36.6958 39.3495 12.396 C.ar 0.0 **** 0.0
97 H7512 44.1523 45.4237 11.9424 H 0.0 **** 0.053
98 C7436 34.3961 36.7217 15.042 C.3 0.0 **** -0.106
99 C7479 25.1267 41.4531 23.5579 C.3 0.0 **** -0.159
100 C7427 35.1634 39.0943 14.3344 C.ar 0.0 **** 0.0
101 C7446 33.3906 46.3976 20.7118 C.3 0.0 **** -0.106
102 C7418 38.2128 41.3126 12.3839 C.ar 0.0 **** 0.0
103 H7491 34.5599 46.5592 18.8695 H 0.0 **** 0.053
104 H7510 43.5319 46.6075 15.1223 H 0.0 **** 0.053
105 C7464 42.1885 46.1503 13.4486 C.3 0.0 **** -0.106
106 C7439 33.1426 42.0498 18.042 C.ar 0.0 **** 0.052
107 C7430 33.8441 38.7142 16.3665 C.2 0.0 **** 0.0
108 C7473 34.1904 35.7526 18.7795 C.3 0.0 **** -0.159
109 H7519 42.7536 43.7495 9.00024 H 0.0 **** 0.053
110 C7447 32.0824 45.802 21.1594 C.ar 0.0 **** 0.0
111 C7437 34.8964 42.3402 16.3426 C.ar 0.0 **** 0.042
112 C7413 40.5036 42.7677 11.3289 C.ar 0.0 **** 0.0
113 H7495 32.6012 47.4157 23.5152 H 0.0 **** 0.053
114 C7468 42.3111 42.9152 9.56105 C.3 0.0 **** -0.159
115 H7538 25.3385 40.8527 24.4579 H 0.0 **** 0.053
116 H7523 36.8983 36.768 11.4812 H 0.0 **** 0.053
117 C7432 34.7781 40.9597 15.9381 C.ar 0.0 **** 0.0
118 H7517 41.587 42.4225 8.90037 H 0.0 **** 0.053
119 H7509 42.5255 45.1514 15.3586 H 0.0 **** 0.053
120 H7535 27.0774 43.5233 26.1411 H 0.0 **** 0.053
121 H7536 25.5578 42.7434 25.6553 H 0.0 **** 0.053
122 C7470 37.0459 37.4828 10.663 C.3 0.0 **** -0.159
123 H7503 27.8845 45.4621 25.1722 H 0.0 **** 0.053
124 H7528 34.5605 34.0706 15.2032 H 0.0 **** 0.053
125 H7505 26.4935 41.2826 21.2468 H 0.0 **** 0.1268
126 C7461 26.914 42.0538 21.896 C.ar 0.0 **** -0.1268
127 C7450 29.7701 44.51 21.9014 C.ar 0.0 **** 0.2405
128 H7498 31.0557 49.0745 24.3508 H 0.0 **** 0.053
129 C7456 29.2134 46.2148 23.6579 C.3 0.0 **** -0.053
130 H7502 29.4129 44.5851 25.056 H 0.0 **** 0.053
@<TRIPOS>BOND
1 15 16 1
2 58 57 1
3 87 86 1
4 126 125 1
5 122 94 1
6 106 31 1
7 71 119 1
8 25 105 1
9 112 32 am
10 28 112 am
11 58 28 am
12 25 58 am
13 26 32 am
14 26 25 am
15 102 19 1
16 35 102 am
17 88 35 1
18 28 19 1
19 112 88 1
20 59 6 am
21 96 59 am
22 2 96 am
23 35 6 am
24 102 2 am
25 46 40 am
26 100 46 am
27 41 100 am
28 2 40 am
29 96 41 am
30 107 79 1
31 44 107 1
32 117 44 am
33 100 79 1
34 46 117 am
35 3 15 1
36 34 3 am
37 98 34 1
38 107 15 1
39 79 98 1
40 49 111 am
41 106 49 am
42 23 106 am
43 117 111 am
44 44 23 am
45 84 31 1
46 39 84 am
47 22 39 1
48 49 22 1
49 101 67 1
50 110 101 1
51 51 110 am
52 39 67 1
53 84 51 am
54 127 72 am
55 62 127 am
56 10 62 am
57 51 72 am
58 110 10 am
59 77 70 1
60 85 77 1
61 129 85 1
62 10 70 1
63 62 129 1
64 55 73 1
65 5 55 am
66 127 5 am
67 129 73 1
68 126 87 am
69 42 126 am
70 92 42 am
71 5 87 am
72 55 92 am
73 105 71 1
74 26 17 1
75 32 114 1
76 6 38 1
77 59 122 1
78 41 29 1
79 34 66 1
80 3 108 1
81 23 80 1
82 111 20 1
83 22 81 2
84 31 69 2
85 92 89 1
86 42 99 1
87 19 68 1
88 19 11 1
89 88 9 1
90 88 74 1
91 40 37 1
92 15 78 1
93 3 53 1
94 34 21 1
95 98 93 1
96 98 50 1
97 67 103 1
98 67 4 1
99 101 27 1
100 101 43 1
101 70 113 1
102 70 76 1
103 77 30 1
104 77 128 1
105 85 61 1
106 85 82 1
107 129 47 1
108 73 130 1
109 73 123 1
110 105 75 1
111 105 63 1
112 71 8 1
113 71 104 1
114 17 24 1
115 17 97 1
116 17 13 1
117 57 18 1
118 57 91 1
119 57 64 1
120 114 118 1
121 114 83 1
122 114 109 1
123 38 54 1
124 38 52 1
125 38 7 1
126 122 116 1
127 122 36 1
128 29 1 1
129 66 48 1
130 66 124 1
131 66 90 1
132 108 95 1
133 108 65 1
134 108 60 1
135 80 12 1
136 20 14 1
137 89 120 1
138 89 121 1
139 89 33 1
140 99 115 1
141 99 45 1
142 99 56 1
@<TRIPOS>MOLECULE
Sketch 4
250 292
SMALL
USER_CHARGES


@<TRIPOS>ATOM
1 H22893 46.6446 33.5898 7.13829 H 0.0 **** 0.1268
2 C22710 42.9515 18.858 10.5567 C.2 0.0 **** 0.0
3 C22793 39.9925 29.5566 4.71857 C.2 0.0 **** -0.1268
4 C22730 37.5463 19.688 7.68353 C.3 0.0 **** -0.106
5 C22709 43.9718 19.7091 11.1165 C.2 0.0 **** 0.0
6 C22779 43.4908 31.6209 5.91486 C.2 0.0 **** 0.0
7 C22769 40.7941 29.0205 5.70127 C.2 0.0 **** 0.0
8 C22723 44.2766 23.803 9.94185 C.2 0.0 **** 0.0
9 C22685 46.5923 9.80371 16.2606 C.2 0.0 **** 0.0
10 H22877 39.4767 26.4234 5.23142 H 0.0 **** 0.053
11 H22831 44.7767 5.9255 15.6664 H 0.0 **** 0.053
12 C22734 38.8366 22.9672 5.20572 C.3 0.0 **** -0.106
13 H22862 50.2013 20.3974 16.3363 H 0.0 **** 0.053
14 H22812 50.3972 7.41581 21.2815 H 0.0 **** 0.053
15 C22762 40.406 27.8406 6.54955 C.3 0.0 **** -0.053
16 H22819 51.3549 9.75292 20.8744 H 0.0 **** 0.053
17 C22683 46.3398 13.9743 15.3041 C.2 0.0 **** 0.0
18 C22694 44.1754 8.98118 15.8803 C.2 0.0 **** 0.0
19 C22684 47.8503 9.32495 16.8277 C.2 0.0 **** 0.0
20 H22807 50.0682 9.2079 22.7714 H 0.0 **** 0.053
21 H22888 39.4315 10.3671 17.8076 H 0.0 **** 0.053
22 H22897 42.6309 36.2532 2.42075 H 0.0 **** 0.1268
23 H22823 52.3557 15.1319 18.8298 H 0.0 **** 0.053
24 C22768 44.9676 29.1708 8.36975 C.2 0.0 **** 0.0
25 H22827 48.0473 7.2277 14.539 H 0.0 **** 0.053
26 C22746 50.4205 23.3114 16.8996 C.3 0.0 **** -0.106
27 O22665 49.9139 8.52857 18.9189 O.3 0.0 **** -0.32
28 C22794 40.3214 30.77 4.05925 C.2 0.0 **** 0.0
29 C22731 37.9709 20.7474 6.66204 C.3 0.0 **** 0.134
30 C22711 42.7932 17.563 11.0744 C.2 0.0 **** -0.1268
31 C22674 47.3783 13.4943 16.1114 C.2 0.0 **** 0.0
32 C22722 43.2209 23.0071 9.40526 C.2 0.0 **** 0.0
33 H22809 49.3879 10.9681 24.1104 H 0.0 **** 0.053
34 H22895 44.6139 36.4179 3.87568 H 0.0 **** 0.1268
35 H22805 46.5303 8.95055 21.1784 H 0.0 **** 0.053
36 C22708 44.859 19.1907 12.1091 C.2 0.0 **** 0.0
37 H22885 40.737 12.2025 16.6119 H 0.0 **** 0.053
38 H22815 47.4422 6.70502 21.6912 H 0.0 **** 0.053
39 C22714 43.1668 21.6048 9.73737 C.2 0.0 **** 0.0
40 C22732 39.4968 21.0823 6.76453 C.3 0.0 **** -0.053
41 C22658 49.096 9.59 22.4175 C.3 0.0 **** -0.053
42 H22847 41.5222 18.699 7.56602 H 0.0 **** 0.053
43 H22899 38.696 29.3914 2.50784 H 0.0 **** 0.053
44 H22808 48.9778 11.7712 22.5633 H 0.0 **** 0.053
45 O22740 48.9307 22.5274 14.0968 O.3 0.0 **** -0.202
46 C22659 48.7729 10.8875 23.2031 C.3 0.0 **** 0.054
47 H22902 38.8413 30.6502 0.390766 H 0.0 **** 0.053
48 C22712 42.1478 19.3607 9.49083 C.2 0.0 **** 0.0
49 H22832 43.2484 6.51956 13.7996 H 0.0 **** 0.053
50 C22790 40.9027 33.3397 2.95578 C.2 0.0 **** 0.0
51 H22835 43.8637 10.9141 16.7978 H 0.0 **** 0.053
52 H22842 42.6509 15.1359 12.1142 H 0.0 **** 0.1268
53 C22800 38.7196 33.2053 1.61203 C.2 0.0 **** 0.347
54 H22810 48.4328 10.5614 20.616 H 0.0 **** 0.053
55 C22777 45.4956 31.7791 7.34443 C.2 0.0 **** 0.0
56 C22679 51.4422 13.2123 19.3067 C.3 0.0 **** -0.106
57 C22754 42.3534 24.9879 8.24097 C.2 0.0 **** 0.0
58 C22782 45.7634 33.0398 6.80093 C.2 0.0 **** -0.1268
59 H22848 39.051 18.318 6.92277 H 0.0 **** 0.053
60 H22869 51.9195 22.6704 15.4458 H 0.0 **** 0.053
61 H22881 39.759 24.8115 8.77354 H 0.0 **** 0.053
62 H22833 44.3823 7.75676 13.2223 H 0.0 **** 0.053
63 C22766 42.925 29.0466 6.97248 C.2 0.0 **** 0.0
64 C22726 40.0603 20.8017 8.15652 C.3 0.0 **** 0.107
65 C22705 43.6519 17.0523 12.0428 C.2 0.0 **** 0.0
66 C22664 48.3692 7.17493 22.0591 C.3 0.0 **** -0.106
67 C22717 47.5306 17.4992 14.9885 C.2 0.0 **** -0.1268
68 C22759 41.2541 25.5887 7.40573 C.3 0.0 **** -0.053
69 C22739 47.0305 22.2148 12.7246 C.2 0.0 **** 0.0
70 C22666 49.9365 9.78174 18.2146 C.3 0.0 **** 0.107
71 C22697 41.4224 9.66338 15.789 C.3 0.0 **** -0.106
72 H22839 41.5462 8.44931 13.9809 H 0.0 **** 0.053
73 C22718 45.8978 20.0126 12.6584 C.2 0.0 **** 0.0
74 H22892 47.2213 31.7364 8.66538 H 0.0 **** 0.1268
75 C22729 38.6792 18.6785 7.89725 C.3 0.0 **** -0.106
76 H22816 50.4932 9.5709 17.2897 H 0.0 **** 0.053
77 H22851 36.6158 19.2102 7.34766 H 0.0 **** 0.053
78 O22680 48.3043 15.7333 16.2769 O.3 0.0 **** -0.464
79 C22670 49.4894 12.6251 17.8372 C.2 0.0 **** 0.0
80 H22878 38.3555 27.6527 5.83414 H 0.0 **** 0.053
81 H22817 51.8066 10.606 18.8386 H 0.0 **** 0.053
82 C22792 42.3841 35.2809 2.85243 C.2 0.0 **** -0.1268
83 C22799 37.6235 32.3071 1.05242 C.3 0.0 **** -0.086
84 H22867 50.9277 22.6351 17.6088 H 0.0 **** 0.053
85 C22733 39.7401 22.5469 6.36385 C.3 0.0 **** -0.106
86 H22890 41.7183 16.7464 8.69664 H 0.0 **** 0.41
87 C22716 46.6599 18.1112 14.0632 C.2 0.0 **** 0.0
88 C22661 49.2202 9.84529 20.9005 C.3 0.0 **** -0.053
89 N22736 37.1082 21.9267 6.74494 N.3 0.0 **** -0.727
90 C22675 48.3674 14.3943 16.6122 C.2 0.0 **** 0.232
91 H22898 39.0602 29.0538 4.47558 H 0.0 **** 0.1268
92 H22875 41.9989 26.6914 5.70917 H 0.0 **** 0.053
93 C22706 44.7148 17.8532 12.5626 C.2 0.0 **** 0.0
94 C22707 45.6008 17.3023 13.5291 C.2 0.0 **** 0.0
95 C22663 49.3694 7.31538 20.8971 C.3 0.0 **** -0.106
96 C22657 48.0188 8.53456 22.716 C.3 0.0 **** -0.053
97 O22660 47.4186 10.9458 23.6673 O.3 0.0 **** -0.32
98 C22701 45.4412 15.9388 13.9635 C.2 0.0 **** 0.0
99 H22904 37.3737 32.6892 0.0524523 H 0.0 **** 0.053
100 C22737 47.8113 20.3756 14.1395 C.2 0.0 **** 0.042
101 C22764 38.7777 26.077 7.28446 C.3 0.0 **** -0.106
102 H22845 39.6234 21.5264 8.86895 H 0.0 **** 0.053
103 H22846 39.5238 19.4122 9.73119 H 0.0 **** 0.053
104 H22830 45.7058 5.87945 14.1576 H 0.0 **** 0.053
105 C22720 45.0969 21.8983 11.2608 C.2 0.0 **** 0.0
106 C22727 39.8146 19.3608 8.66981 C.3 0.0 **** -0.053
107 C22673 47.487 12.1062 16.4937 C.2 0.0 **** 0.0
108 H22856 39.0349 22.3149 4.3402 H 0.0 **** 0.053
109 C22699 45.3415 13.0367 14.8781 C.2 0.0 **** -0.012
110 O22743 48.6722 19.9222 15.1138 O.3 0.0 **** -0.202
111 C22785 43.2365 34.7414 3.8417 C.2 0.0 **** 0.0
112 H22880 37.9711 26.5481 7.86697 H 0.0 **** 0.053
113 H22858 36.7381 22.5275 4.77056 H 0.0 **** 0.053
114 C22765 39.9557 25.7412 8.21864 C.3 0.0 **** -0.106
115 C22715 44.0741 21.0678 10.6934 C.2 0.0 **** 0.0
116 C22667 50.7375 10.7888 19.0592 C.3 0.0 **** -0.053
117 C22787 41.7663 32.7632 3.93392 C.2 0.0 **** 0.0
118 H22860 37.2716 22.3998 7.63459 H 0.0 **** 0.353
119 H22872 47.1518 26.0832 11.356 H 0.0 **** 0.1268
120 H22841 44.6754 11.0182 14.7993 H 0.0 **** 0.1268
121 C22686 46.4583 11.1734 16.025 C.2 0.0 **** 0.0
122 C22700 45.4164 11.7055 15.2069 C.2 0.0 **** -0.1268
123 H22865 48.5774 23.4792 18.051 H 0.0 **** 0.053
124 C22745 48.9044 23.1469 17.0548 C.3 0.0 **** -0.106
125 C22797 38.3813 30.4442 2.48386 C.3 0.0 **** -0.106
126 H22849 38.3405 17.7941 8.45162 H 0.0 **** 0.053
127 C22692 44.003 7.25009 14.1307 C.3 0.0 **** -0.106
128 H22861 50.6003 21.3067 14.0777 H 0.0 **** 0.053
129 H22879 38.3686 25.1455 6.86849 H 0.0 **** 0.053
130 C22704 43.4805 15.7238 12.5133 C.2 0.0 **** -0.1268
131 C22783 45.2109 34.8983 5.26251 C.2 0.0 **** -0.1268
132 H22806 47.9728 8.40574 23.8073 H 0.0 **** 0.053
133 C22728 41.1536 18.6117 8.60903 C.3 0.0 **** 0.107
134 C22778 44.3414 31.0557 6.9016 C.2 0.0 **** 0.0
135 C22798 37.9874 30.8317 1.0638 C.3 0.0 **** -0.106
136 H22882 40.0992 26.5292 8.97486 H 0.0 **** 0.053
137 C22781 44.934 33.6133 5.82387 C.2 0.0 **** 0.0
138 C22770 42.0233 29.6556 6.03263 C.2 0.0 **** 0.0
139 C22755 42.2673 23.6541 8.59583 C.2 0.0 **** -0.1268
140 C22668 50.5742 10.4696 20.5744 C.3 0.0 **** -0.106
141 H22884 41.2306 12.9743 18.1334 H 0.0 **** 0.053
142 C22690 48.3183 8.10648 16.476 C.2 0.0 **** -0.1268
143 H22871 47.9471 24.1668 12.7038 H 0.0 **** 0.1268
144 C22750 44.3757 25.1704 9.56014 C.2 0.0 **** 0.0
145 C22693 43.3752 8.26082 15.0588 C.2 0.0 **** 0.0
146 H22854 39.5209 23.1905 7.23324 H 0.0 **** 0.053
147 C22788 41.4712 31.4867 4.49107 C.2 0.0 **** 0.0
148 C22682 46.349 15.3553 14.8838 C.2 0.0 **** 0.0
149 C22791 41.2576 34.6103 2.4236 C.2 0.0 **** -0.1268
150 C22758 43.6071 27.1286 8.29866 C.2 0.0 **** 0.0
151 H22804 45.8532 8.48219 22.7451 H 0.0 **** 0.053
152 H22887 40.189 9.4763 19.1513 H 0.0 **** 0.053
153 H22876 40.1797 28.2673 7.54752 H 0.0 **** 0.053
154 C22773 40.1625 10.4452 18.6281 C.3 0.0 **** -0.159
155 H22900 37.4987 30.5216 3.14659 H 0.0 **** 0.053
156 H22866 48.3984 23.7837 16.3142 H 0.0 **** 0.053
157 C22744 48.4916 21.6752 16.836 C.3 0.0 **** -0.106
158 C22753 43.4347 25.7527 8.69769 C.2 0.0 **** 0.0
159 H22901 37.1498 30.211 0.711036 H 0.0 **** 0.053
160 C22688 46.1178 7.575 15.4047 C.2 0.0 **** 0.0
161 C22681 47.3758 16.1845 15.3706 C.2 0.0 **** 0.232
162 C22738 47.9402 21.6735 13.6695 C.2 0.0 **** 0.042
163 C22724 45.2112 23.2543 10.8558 C.2 0.0 **** 0.0
164 C22763 39.2001 27.0113 6.12315 C.3 0.0 **** -0.106
165 H22859 36.9589 23.8413 5.93448 H 0.0 **** 0.053
166 S22703 43.9374 13.5539 13.971 S.2 0.0 **** 0.024
167 C22741 50.0154 21.8914 14.8071 C.3 0.0 **** 0.107
168 H22814 48.7893 6.49011 22.8109 H 0.0 **** 0.053
169 C22795 39.7392 32.5955 2.51905 C.2 0.0 **** 0.052
170 H22803 46.685 11.2089 21.7391 H 0.0 **** 0.053
171 C22687 45.642 8.78757 15.8125 C.2 0.0 **** 0.0
172 C22656 46.6463 9.07678 22.2665 C.3 0.0 **** -0.106
173 C22767 44.0688 29.762 7.4271 C.2 0.0 **** 0.0
174 H22825 51.041 13.6006 20.2643 H 0.0 **** 0.053
175 H22822 49.9253 15.5213 18.8771 H 0.0 **** 0.053
176 O22774 40.903 17.2339 8.89122 O.3 0.0 **** -0.57
177 H22838 40.326 9.67044 15.888 H 0.0 **** 0.053
178 C22669 50.4851 12.2184 18.7111 C.2 0.0 **** 0.0
179 C22742 49.3981 20.9451 15.8231 C.3 0.0 **** 0.107
180 H22826 52.3871 12.7034 19.5621 H 0.0 **** 0.053
181 C22721 46.0016 21.3654 12.2157 C.2 0.0 **** 0.0
182 O22756 45.5753 27.2935 9.69883 O.3 0.0 **** -0.0685
183 H22818 50.7266 11.3796 21.1734 H 0.0 **** 0.053
184 H22811 48.0023 8.46419 19.7104 H 0.0 **** 0.053
185 H22844 48.3557 18.0452 15.4216 H 0.0 **** 0.1268
186 C22776 46.3507 31.1736 8.32395 C.2 0.0 **** -0.1268
187 C22702 44.3366 15.1788 13.4359 C.2 0.0 **** -0.012
188 C22747 50.865 22.9842 15.4592 C.3 0.0 **** -0.106
189 H22852 37.8077 20.3273 5.65477 H 0.0 **** 0.053
190 H22896 40.6129 35.055 1.67319 H 0.0 **** 0.1268
191 C22752 46.3518 25.4546 10.9635 C.2 0.0 **** -0.1268
192 C22784 44.3931 35.4391 4.306 C.2 0.0 **** -0.1268
193 H22891 46.7741 29.4708 9.54705 H 0.0 **** 0.1268
194 C22757 44.701 27.8564 8.79758 C.2 0.0 **** 0.0265
195 C22789 42.3285 30.9136 5.47335 C.2 0.0 **** 0.0
196 C22689 47.5615 7.21629 15.5397 C.3 0.0 **** -0.106
197 C22672 48.538 10.2604 17.7938 C.3 0.0 **** -0.053
198 C22760 41.6326 26.9262 6.7285 C.3 0.0 **** -0.053
199 C22698 41.8829 8.41707 15.0332 C.3 0.0 **** -0.106
200 C22655 46.5052 10.5736 22.6295 C.3 0.0 **** 0.054
201 C22695 43.6147 9.85707 16.9768 C.3 0.0 **** -0.106
202 C22662 49.0482 8.54487 20.0645 C.3 0.0 **** 0.107
203 O22725 41.4816 21.1032 8.06672 O.3 0.0 **** -0.202
204 C22735 37.3453 22.8571 5.63066 C.3 0.0 **** 0.081
205 H22840 41.4073 7.51453 15.4643 H 0.0 **** 0.053
206 C22771 41.5467 10.8191 18.088 C.3 0.0 **** -0.053
207 C22761 42.7279 27.7211 7.38825 C.2 0.0 **** 0.0
208 H22802 45.5021 10.805 23.0128 H 0.0 **** 0.053
209 H22828 47.6435 6.15848 15.8577 H 0.0 **** 0.053
210 H22834 44.1302 9.60064 17.9196 H 0.0 **** 0.053
211 H22857 39.0666 23.9967 4.88808 H 0.0 **** 0.053
212 H22813 49.351 6.42201 20.2566 H 0.0 **** 0.053
213 H22883 42.2388 10.8876 18.9472 H 0.0 **** 0.053
214 C22678 51.6908 14.3901 18.3616 C.3 0.0 **** -0.106
215 C22671 48.5273 11.6921 17.307 C.2 0.0 **** 0.0
216 H22864 48.5236 21.1196 17.7846 H 0.0 **** 0.053
217 H22820 47.8937 10.2846 18.696 H 0.0 **** 0.053
218 C22751 45.4437 25.9664 10.0785 C.2 0.0 **** 0.042
219 H22868 50.7356 24.3324 17.1606 H 0.0 **** 0.053
220 H22894 46.0925 35.438 5.6131 H 0.0 **** 0.1268
221 H22837 41.7062 10.5601 15.2142 H 0.0 **** 0.053
222 O22801 38.6766 34.4056 1.33756 O.2 0.0 **** -0.419
223 C22775 46.1042 29.9217 8.81504 C.2 0.0 **** -0.1268
224 H22874 41.0227 24.8724 6.60261 H 0.0 **** 0.053
225 C22677 50.3577 15.0357 17.9818 C.3 0.0 **** -0.106
226 H22886 42.461 12.4704 16.9499 H 0.0 **** 0.053
227 H22863 47.4572 21.624 16.4664 H 0.0 **** 0.053
228 H22836 41.9085 8.74381 17.657 H 0.0 **** 0.053
229 C22796 39.501 31.3084 3.01972 C.2 0.0 **** 0.0
230 H22889 39.7922 11.2071 19.3307 H 0.0 **** 0.053
231 C22696 42.0998 9.71474 17.1629 C.3 0.0 **** -0.053
232 H22903 36.7326 32.4741 1.68575 H 0.0 **** 0.053
233 C22772 41.4988 12.1929 17.4066 C.3 0.0 **** -0.159
234 C22780 43.7808 32.8944 5.37108 C.2 0.0 **** 0.0
235 C22786 42.9273 33.4641 4.38046 C.2 0.0 **** 0.0
236 C22719 46.7983 19.4868 13.6327 C.2 0.0 **** 0.0
237 H22853 40.0407 20.4277 6.06253 H 0.0 **** 0.053
238 H22873 41.4335 23.0834 8.21827 H 0.0 **** 0.1268
239 C22749 47.1469 23.5472 12.302 C.2 0.0 **** -0.1268
240 H22824 52.1905 14.0215 17.4511 H 0.0 **** 0.053
241 H22850 37.3169 20.1835 8.64425 H 0.0 **** 0.053
242 H22843 41.9648 16.9452 10.7421 H 0.0 **** 0.1268
243 C22691 45.1679 6.55517 14.8416 C.3 0.0 **** -0.106
244 C22713 42.253 20.6912 9.132 C.2 0.0 **** 0.042
245 H22829 49.2638 7.73725 16.8697 H 0.0 **** 0.1268
246 H22870 50.7878 23.8758 14.8183 H 0.0 **** 0.053
247 H22821 50.5026 15.8364 17.2423 H 0.0 **** 0.053
248 H22855 40.801 22.7009 6.12433 H 0.0 **** 0.053
249 C22748 46.2503 24.0909 11.3822 C.2 0.0 **** 0.0
250 C22676 49.3789 14.0188 17.4522 C.2 0.0 **** 0.0
@<TRIPOS>BOND
1 121 122 un
2 122 120 1
3 124 123 1
4 154 152 1
5 234 235 un
6 24 173 1
7 214 225 1
8 40 85 1
9 199 71 1
10 71 221 1
11 66 168 1
12 244 203 1
13 96 172 1
14 41 96 1
15 46 41 1
16 97 46 1
17 200 172 1
18 200 97 1
19 202 88 1
20 95 202 1
21 66 95 1
22 41 88 1
23 96 66 1
24 70 27 1
25 116 70 1
26 140 116 1
27 202 27 1
28 88 140 1
29 79 178 un
30 215 79 un
31 197 215 un
32 116 178 1
33 70 197 1
34 31 107 1
35 90 31 un
36 250 90 un
37 215 107 un
38 79 250 un
39 56 214 1
40 178 56 1
41 250 225 1
42 161 78 1
43 148 161 un
44 17 148 un
45 90 78 1
46 31 17 un
47 9 19 un
48 121 9 2
49 197 19 1
50 107 121 un
51 160 171 2
52 196 160 1
53 142 196 1
54 9 171 1
55 19 142 2
56 127 243 1
57 145 127 1
58 18 145 2
59 160 243 1
60 171 18 1
61 231 201 1
62 71 231 1
63 18 201 1
64 145 199 1
65 122 109 un
66 17 109 un
67 187 98 un
68 166 187 1
69 109 166 un
70 148 98 un
71 65 130 un
72 93 65 un
73 94 93 un
74 187 130 un
75 98 94 un
76 5 36 un
77 2 5 un
78 30 2 un
79 93 36 un
80 65 30 un
81 244 48 un
82 39 244 un
83 115 39 un
84 2 48 un
85 5 115 un
86 67 87 un
87 161 67 un
88 94 87 un
89 236 73 un
90 87 236 un
91 36 73 un
92 181 105 un
93 73 181 un
94 115 105 un
95 8 32 un
96 163 8 un
97 105 163 un
98 39 32 un
99 64 203 1
100 106 64 1
101 133 106 1
102 48 133 1
103 4 75 1
104 29 4 1
105 40 29 1
106 106 75 1
107 64 40 1
108 12 85 1
109 204 12 1
110 89 204 1
111 29 89 1
112 162 100 un
113 69 162 un
114 181 69 un
115 236 100 un
116 167 45 1
117 179 167 1
118 110 179 1
119 162 45 1
120 100 110 1
121 124 157 1
122 26 124 1
123 188 26 1
124 179 157 1
125 167 188 1
126 239 249 un
127 69 239 un
128 163 249 un
129 218 144 un
130 191 218 un
131 249 191 un
132 8 144 un
133 57 158 un
134 139 57 un
135 32 139 un
136 144 158 un
137 194 182 1
138 150 194 un
139 218 182 1
140 158 150 1
141 198 68 1
142 207 198 1
143 57 68 1
144 150 207 un
145 164 15 1
146 101 164 1
147 114 101 1
148 198 15 1
149 68 114 1
150 173 63 1
151 194 24 un
152 207 63 un
153 15 7 1
154 63 138 un
155 7 138 un
156 231 206 1
157 206 233 1
158 206 154 1
159 133 176 1
160 186 223 1
161 55 186 un
162 134 55 1
163 24 223 un
164 173 134 un
165 234 6 un
166 137 234 1
167 58 137 un
168 134 6 un
169 55 58 un
170 192 131 un
171 111 192 1
172 235 111 1
173 137 131 un
174 147 117 un
175 195 147 un
176 6 195 un
177 235 117 un
178 149 50 un
179 82 149 un
180 111 82 un
181 117 50 un
182 28 3 un
183 147 28 un
184 138 195 un
185 7 3 un
186 229 169 un
187 28 229 un
188 50 169 un
189 135 125 1
190 83 135 1
191 53 83 1
192 229 125 1
193 169 53 1
194 53 222 2
195 200 208 1
196 200 170 1
197 172 151 1
198 172 35 1
199 96 132 1
200 41 20 1
201 46 44 1
202 46 33 1
203 88 54 1
204 202 184 1
205 95 14 1
206 95 212 1
207 66 38 1
208 70 76 1
209 116 81 1
210 140 183 1
211 140 16 1
212 197 217 1
213 225 247 1
214 225 175 1
215 214 23 1
216 214 240 1
217 56 174 1
218 56 180 1
219 196 25 1
220 196 209 1
221 142 245 1
222 243 104 1
223 243 11 1
224 127 49 1
225 127 62 1
226 201 210 1
227 201 51 1
228 231 228 1
229 71 177 1
230 199 72 1
231 199 205 1
232 130 52 1
233 30 242 1
234 67 185 1
235 64 102 1
236 106 103 1
237 133 42 1
238 75 59 1
239 75 126 1
240 4 241 1
241 4 77 1
242 29 189 1
243 40 237 1
244 85 146 1
245 85 248 1
246 12 108 1
247 12 211 1
248 204 113 1
249 204 165 1
250 89 118 1
251 167 128 1
252 179 13 1
253 157 227 1
254 157 216 1
255 124 156 1
256 26 84 1
257 26 219 1
258 188 60 1
259 188 246 1
260 239 143 1
261 191 119 1
262 139 238 1
263 68 224 1
264 198 92 1
265 15 153 1
266 164 10 1
267 164 80 1
268 101 129 1
269 101 112 1
270 114 61 1
271 114 136 1
272 206 213 1
273 233 141 1
274 233 37 1
275 233 226 1
276 154 21 1
277 154 230 1
278 176 86 1
279 223 193 1
280 186 74 1
281 58 1 1
282 131 220 1
283 192 34 1
284 149 190 1
285 82 22 1
286 3 91 1
287 125 43 1
288 125 155 1
289 135 159 1
290 135 47 1
291 83 232 1
292 83 99 1
@<TRIPOS>MOLECULE
Sketch 4
130 142
SMALL
USER_CHARGES


@<TRIPOS>ATOM
1 C2212 64.4794 16.5833 14.7376 C.ar 0.0 **** 0.0
2 C2278 81.6794 19.0273 26.8155 C.3 0.0 **** -0.159
3 H2306 66.9085 12.9715 15.9967 H 0.0 **** 0.053
4 H2331 68.9154 23.8079 25.135 H 0.0 **** 0.053
5 C2254 79.4488 13.6304 23.6193 C.3 0.0 **** -0.106
6 H2303 81.0439 16.7459 25.9269 H 0.0 **** 0.053
7 C2226 69.64 20.6325 19.1564 C.ar 0.0 **** 0.0
8 H2338 81.1731 21.9427 27.0293 H 0.0 **** 0.053
9 H2287 69.2399 22.1932 23.2355 H 0.0 **** 0.053
10 C2224 67.8185 20.3197 17.5428 C.ar 0.0 **** 0.0
11 H2334 71.4427 17.1188 18.9255 H 0.0 **** 0.41
12 H2295 77.3111 13.4467 23.9292 H 0.0 **** 0.053
13 C2237 71.3671 18.855 19.6991 C.ar 0.0 **** 0.042
14 H2297 80.121 13.8191 22.7656 H 0.0 **** 0.053
15 H2301 80.6247 16.1635 23.5973 H 0.0 **** 0.053
16 H2304 78.117 20.3416 22.9523 H 0.0 **** 0.1268
17 H2289 69.8847 24.891 20.7167 H 0.0 **** 0.053
18 H2315 68.6376 15.5486 16.9608 H 0.0 **** 0.053
19 H2281 68.3496 17.7478 16.5499 H 0.0 **** 0.053
20 C2279 81.3767 21.8617 25.9489 C.3 0.0 **** -0.159
21 H2308 64.0993 12.9778 17.2717 H 0.0 **** 0.053
22 H2291 74.057 14.7556 20.2076 H 0.0 **** 0.053
23 H2282 65.4113 19.164 14.0269 H 0.0 **** 0.053
24 H2302 79.3158 16.7568 26.2905 H 0.0 **** 0.053
25 H2290 68.2636 24.356 20.2381 H 0.0 **** 0.053
26 C2260 78.8636 20.0924 23.7063 C.ar 0.0 **** -0.1268
27 O2277 74.9953 19.8256 22.709 O.2 0.0 **** -0.419
28 C2218 67.0321 19.4163 16.7634 C.ar 0.0 **** 0.0
29 H2311 62.6178 14.7245 14.2575 H 0.0 **** 0.053
30 H2336 82.072 19.9052 27.3412 H 0.0 **** 0.053
31 H2333 74.1749 20.9488 22.5516 H 0.0 **** 0.41
32 H2318 62.437 17.2227 14.346 H 0.0 **** 0.053
33 C2264 65.8388 13.2272 15.98 C.3 0.0 **** -0.106
34 C2267 67.661 15.1767 17.3121 C.3 0.0 **** -0.159
35 C2263 80.7195 19.4097 25.7126 C.ar 0.0 **** 0.0
36 C2262 80.5703 20.7554 25.3154 C.ar 0.0 **** 0.0
37 H2298 79.5624 12.5699 23.8905 H 0.0 **** 0.053
38 H2328 67.9397 26.0887 22.0917 H 0.0 **** 0.053
39 H2313 63.9151 13.8596 13.4141 H 0.0 **** 0.053
40 H2292 75.6235 15.4681 19.8029 H 0.0 **** 0.053
41 C2220 65.2089 18.9672 15.0981 C.3 0.0 **** -0.106
42 H2339 81.137 22.8292 25.4874 H 0.0 **** 0.053
43 C2246 75.4824 14.8314 21.8659 C.3 0.0 **** -0.106
44 H2284 69.1414 18.78 18.2336 H 0.0 **** 0.1268
45 H2316 67.7271 14.088 17.4069 H 0.0 **** 0.053
46 C2229 69.7714 22.7871 20.3592 C.2 0.0 **** 0.0
47 C2225 68.8845 19.824 18.3088 C.ar 0.0 **** -0.1268
48 C2248 76.2335 17.1837 22.3379 C.ar 0.0 **** 0.2405
49 H2285 71.7288 22.5185 23.1023 H 0.0 **** 0.053
50 C2241 74.4384 18.9951 21.9236 C.2 0.0 **** 0.367
51 H2296 77.7962 13.3934 22.2408 H 0.0 **** 0.053
52 C2245 74.8554 15.4003 20.5962 C.3 0.0 **** -0.106
53 C2258 79.9545 18.4118 25.0808 C.ar 0.0 **** 0.0
54 C2231 71.4182 21.0381 20.8384 C.ar 0.0 **** 0.0
55 C2214 66.3743 17.0108 16.1942 C.ar 0.0 **** 0.0
56 H2332 70.3755 24.6847 24.622 H 0.0 **** 0.053
57 H2280 67.3424 17.6932 17.9656 H 0.0 **** 0.053
58 C2247 76.4924 15.794 22.4315 C.ar 0.0 **** 0.0
59 C2244 73.0942 17.1564 20.1511 C.2 0.0 **** 0.367
60 C2252 77.6684 15.3733 23.074 C.ar 0.0 **** 0.0
61 C2268 63.3956 17.0912 13.8134 C.3 0.0 **** -0.159
62 H2324 64.99 23.7578 16.3697 H 0.0 **** 0.053
63 H2309 65.6189 13.2306 18.1505 H 0.0 **** 0.053
64 C2215 66.5424 15.627 16.4023 C.ar 0.0 **** 0.0
65 N2249 77.0693 18.1067 22.8345 N.ar 0.0 **** -0.481
66 C2213 65.3651 17.4885 15.3552 C.ar 0.0 **** 0.0
67 C2236 69.1414 24.0779 20.8291 C.3 0.0 **** -0.106
68 C2242 74.9853 17.642 21.6905 C.ar 0.0 **** 0.0
69 H2340 82.4593 21.6882 25.8402 H 0.0 **** 0.053
70 C2234 69.6742 23.2046 23.1745 C.ar 0.0 **** -0.053
71 C2269 64.7179 21.7981 14.9037 C.3 0.0 **** -0.159
72 C2259 79.0181 18.7511 24.082 C.ar 0.0 **** 0.0
73 H2283 64.1491 19.2459 15.226 H 0.0 **** 0.053
74 C2232 70.7945 20.1646 19.9 C.ar 0.0 **** 0.0
75 C2250 78.1656 17.7053 23.4866 C.ar 0.0 **** 0.2405
76 H2307 65.4213 12.6804 15.1235 H 0.0 **** 0.053
77 C2221 65.7909 21.3115 15.8521 C.ar 0.0 **** 0.0
78 H2327 68.1605 25.6032 23.7905 H 0.0 **** 0.053
79 H2319 63.2117 16.3914 12.9871 H 0.0 **** 0.053
80 C2228 68.3897 22.5546 18.277 C.ar 0.0 **** 0.042
81 C2217 67.3155 17.9484 16.8918 C.3 0.0 **** -0.106
82 C2253 78.0011 13.9017 23.1958 C.3 0.0 **** -0.106
83 H2305 79.5212 22.1168 24.0176 H 0.0 **** 0.1268
84 H2314 67.527 15.5872 18.3266 H 0.0 **** 0.053
85 C2273 69.8754 23.7048 24.6069 C.3 0.0 **** -0.159
86 C2266 63.5937 14.2428 14.3985 C.3 0.0 **** -0.159
87 H2330 70.5014 22.9982 25.1718 H 0.0 **** 0.053
88 C2251 78.5149 16.3451 23.6265 C.ar 0.0 **** 0.0
89 C2222 66.4783 22.2145 16.6569 C.ar 0.0 **** 0.0
90 C2270 66.0228 23.6554 16.7215 C.3 0.0 **** -0.159
91 H2320 64.942 22.8014 14.5199 H 0.0 **** 0.053
92 C2227 69.2742 22.0264 19.2502 C.ar 0.0 **** 0.0
93 H2286 71.4579 24.0368 22.2524 H 0.0 **** 0.053
94 H2326 69.1581 24.3009 18.4443 H 0.0 **** 0.41
95 C2261 79.6399 21.072 24.3128 C.ar 0.0 **** -0.1268
96 C2265 65.173 12.7354 17.275 C.3 0.0 **** -0.159
97 O2276 72.5356 16.3256 19.348 O.2 0.0 **** -0.419
98 C2257 80.0576 16.9648 25.4949 C.3 0.0 **** -0.106
99 H2321 63.7299 21.8447 15.3948 H 0.0 **** 0.053
100 H2337 82.5414 18.4645 26.4183 H 0.0 **** 0.053
101 O2274 73.3427 21.519 22.1972 O.3 0.0 **** -0.452
102 H2300 79.1543 14.4045 25.62 H 0.0 **** 0.053
103 C2240 72.6704 20.65 21.4525 C.ar 0.0 **** 0.042
104 H2288 67.709 23.6102 22.3705 H 0.0 **** 0.053
105 H2310 65.2834 11.6466 17.3972 H 0.0 **** 0.053
106 H2323 66.0645 24.0297 17.7512 H 0.0 **** 0.053
107 C2243 74.3132 16.7768 20.8499 C.ar 0.0 **** 0.0
108 H2329 69.5737 26.0138 22.789 H 0.0 **** 0.053
109 C2272 68.5867 25.5243 22.7809 C.3 0.0 **** -0.159
110 O2275 70.8083 17.971 18.8766 O.3 0.0 **** -0.452
111 C2235 68.7095 24.068 22.321 C.ar 0.0 **** -0.053
112 C2233 71.0258 23.0385 22.4512 C.3 0.0 **** -0.106
113 O2271 68.3706 23.9098 18.0338 O.3 0.0 **** -0.452
114 H2322 64.6141 21.1319 14.0385 H 0.0 **** 0.053
115 H2317 63.6546 18.0611 13.371 H 0.0 **** 0.053
116 H2312 63.4372 13.3735 15.0503 H 0.0 **** 0.053
117 C2211 64.6063 15.2038 14.9845 C.ar 0.0 **** 0.0
118 H2325 66.66 24.3223 16.1198 H 0.0 **** 0.053
119 C2230 70.7886 22.2876 21.1615 C.2 0.0 **** 0.0
120 C2216 65.6684 14.7183 15.7786 C.ar 0.0 **** 0.0
121 C2256 79.8081 16.0048 24.3303 C.3 0.0 **** -0.053
122 H2299 80.8614 14.2981 25.1436 H 0.0 **** 0.053
123 C2255 79.8525 14.5436 24.7758 C.3 0.0 **** -0.106
124 H2294 74.6887 14.6542 22.6163 H 0.0 **** 0.053
125 C2239 73.213 19.365 21.242 C.ar 0.0 **** 0.052
126 C2219 66.0525 19.9013 15.926 C.ar 0.0 **** 0.0
127 H2293 75.9333 13.8542 21.6532 H 0.0 **** 0.053
128 H2335 81.1926 18.3779 27.559 H 0.0 **** 0.053
129 C2223 67.5459 21.732 17.4904 C.ar 0.0 **** 0.0
130 C2238 72.5505 18.4679 20.3722 C.ar 0.0 **** 0.052
@<TRIPOS>BOND
1 35 36 am
2 109 108 1
3 43 52 1
4 66 1 am
5 55 66 am
6 64 55 am
7 120 64 am
8 117 1 am
9 117 120 am
10 28 81 1
11 126 28 am
12 41 126 1
13 55 81 1
14 66 41 1
15 89 77 am
16 129 89 am
17 10 129 am
18 126 77 am
19 28 10 am
20 7 47 am
21 92 7 am
22 80 92 am
23 10 47 am
24 129 80 am
25 119 46 1
26 54 119 1
27 74 54 am
28 92 46 1
29 7 74 am
30 70 112 1
31 111 70 am
32 67 111 1
33 119 112 1
34 46 67 1
35 130 13 am
36 125 130 am
37 103 125 am
38 74 13 am
39 54 103 am
40 68 50 1
41 107 68 am
42 59 107 1
43 125 50 1
44 130 59 1
45 58 43 1
46 48 58 am
47 107 52 1
48 68 48 am
49 75 65 am
50 88 75 am
51 60 88 am
52 48 65 am
53 58 60 am
54 5 82 1
55 123 5 1
56 121 123 1
57 60 82 1
58 88 121 1
59 53 98 1
60 72 53 am
61 75 72 am
62 121 98 1
63 95 26 am
64 36 95 am
65 72 26 am
66 53 35 am
67 120 33 1
68 33 96 1
69 117 86 1
70 64 34 1
71 1 61 1
72 77 71 1
73 89 90 1
74 80 113 1
75 111 109 1
76 70 85 1
77 103 101 1
78 13 110 1
79 59 97 2
80 50 27 2
81 35 2 1
82 36 20 1
83 81 57 1
84 81 19 1
85 41 23 1
86 41 73 1
87 47 44 1
88 112 49 1
89 112 93 1
90 70 9 1
91 111 104 1
92 67 17 1
93 67 25 1
94 52 22 1
95 52 40 1
96 43 127 1
97 43 124 1
98 82 12 1
99 82 51 1
100 5 14 1
101 5 37 1
102 123 122 1
103 123 102 1
104 121 15 1
105 98 24 1
106 98 6 1
107 26 16 1
108 95 83 1
109 33 3 1
110 33 76 1
111 96 21 1
112 96 63 1
113 96 105 1
114 86 29 1
115 86 116 1
116 86 39 1
117 34 84 1
118 34 18 1
119 34 45 1
120 61 115 1
121 61 32 1
122 61 79 1
123 71 91 1
124 71 99 1
125 71 114 1
126 90 106 1
127 90 62 1
128 90 118 1
129 113 94 1
130 109 78 1
131 109 38 1
132 85 87 1
133 85 4 1
134 85 56 1
135 101 31 1
136 110 11 1
137 2 128 1
138 2 30 1
139 2 100 1
140 20 8 1
141 20 42 1
142 20 69 1
@<TRIPOS>MOLECULE
Sketch 4
130 142
SMALL
USER_CHARGES


@<TRIPOS>ATOM
1 H884 9.41785 8.06863 54.3576 H 0.0 **** 0.053
2 H870 5.03699 11.7569 66.8872 H 0.0 **** 0.053
3 H909 4.5156 3.71262 70.0403 H 0.0 **** 0.053
4 C838 9.89252 5.21306 48.7612 C.3 0.0 **** -0.159
5 H900 12.4415 2.8742 62.9891 H 0.0 **** 0.053
6 C783 9.4212 5.34152 51.2463 C.ar 0.0 **** 0.0
7 H873 4.09027 9.68543 68.8772 H 0.0 **** 0.053
8 C843 12.65 2.01108 62.3396 C.3 0.0 **** -0.159
9 H857 12.071 3.07547 60.5785 H 0.0 **** 0.053
10 H852 8.75622 3.38318 50.7017 H 0.0 **** 0.053
11 H896 9.36013 -0.208526 57.5336 H 0.0 **** 0.41
12 C823 4.31262 11.5458 64.2623 C.3 0.0 **** -0.106
13 H855 10.1312 2.86601 62.1633 H 0.0 **** 0.053
14 C811 6.86905 6.10634 62.2299 C.2 0.0 **** 0.367
15 C834 8.91379 9.63807 51.0096 C.3 0.0 **** -0.106
16 C816 5.50617 10.1629 61.8876 C.3 0.0 **** -0.106
17 H906 4.60739 7.066 71.3081 H 0.0 **** 0.053
18 H882 10.1724 9.12097 48.8182 H 0.0 **** 0.053
19 C808 7.25558 6.10513 59.7602 C.ar 0.0 **** 0.052
20 H894 11.1501 -0.457942 53.2086 H 0.0 **** 0.053
21 C796 8.97746 3.53969 57.5044 C.ar 0.0 **** 0.0
22 C807 7.77933 5.49066 58.5976 C.ar 0.0 **** 0.042
23 C798 9.61692 1.38824 56.5077 C.ar 0.0 **** 0.042
24 C805 12.1335 1.00058 60.0097 C.ar 0.0 **** -0.053
25 C820 4.85667 7.96452 65.4697 C.ar 0.0 **** 0.2405
26 C792 10.0016 1.18746 54.0166 C.ar 0.0 **** 0.0
27 C786 9.10579 8.13884 51.102 C.ar 0.0 **** 0.0
28 C827 4.59556 9.30687 67.9778 C.3 0.0 **** -0.106
29 H895 9.79079 -0.973953 54.2362 H 0.0 **** 0.053
30 H905 5.22113 8.54583 70.542 H 0.0 **** 0.053
31 C804 11.8302 2.10889 61.0508 C.ar 0.0 **** -0.053
32 C787 8.96904 5.40726 53.7298 C.3 0.0 **** -0.106
33 C814 6.53372 7.34198 59.6433 C.2 0.0 **** 0.367
34 O844 8.19935 3.68377 62.3123 O.3 0.0 **** -0.452
35 C840 10.5734 -0.209977 54.1068 C.3 0.0 **** -0.159
36 H907 3.48012 8.24048 70.6026 H 0.0 **** 0.053
37 C797 9.49347 2.20015 57.6627 C.ar 0.0 **** 0.0
38 C806 10.8585 0.626576 59.2053 C.3 0.0 **** -0.106
39 C832 4.57392 5.63511 69.0646 C.ar 0.0 **** 0.0
40 H898 12.832 -1.04972 59.8188 H 0.0 **** 0.053
41 H880 10.0353 11.4996 51.3125 H 0.0 **** 0.053
42 C781 9.47287 7.40477 49.9527 C.ar 0.0 **** 0.0
43 H902 12.4033 1.0984 62.9024 H 0.0 **** 0.053
44 H901 13.73 1.99571 62.1285 H 0.0 **** 0.053
45 C801 8.74199 3.68597 59.97 C.ar 0.0 **** 0.0
46 C839 10.177 1.0339 51.5083 C.3 0.0 **** -0.159
47 C835 10.1806 10.4123 51.407 C.3 0.0 **** -0.159
48 C788 9.29056 3.94314 53.7969 C.ar 0.0 **** 0.0
49 H868 3.39416 13.0975 65.4634 H 0.0 **** 0.053
50 C825 3.98666 11.4419 66.7561 C.3 0.0 **** -0.106
51 H878 11.0276 10.1179 50.7687 H 0.0 **** 0.053
52 H869 3.42011 11.8307 67.6171 H 0.0 **** 0.053
53 O841 9.64983 0.0175725 56.6354 O.3 0.0 **** -0.452
54 H910 3.5865 4.9781 70.8832 H 0.0 **** 0.053
55 C824 3.44373 11.9984 65.4409 C.3 0.0 **** -0.106
56 H872 5.6394 9.67324 68.0294 H 0.0 **** 0.053
57 H883 8.83132 8.25293 48.0501 H 0.0 **** 0.053
58 H864 6.56481 10.4848 61.8799 H 0.0 **** 0.053
59 H876 8.07663 9.94851 51.652 H 0.0 **** 0.053
60 H891 11.2476 1.06179 51.2391 H 0.0 **** 0.053
61 C817 5.2183 9.43869 63.1757 C.ar 0.0 **** 0.0
62 H888 10.9779 5.17155 48.561 H 0.0 **** 0.053
63 H871 2.8565 9.61666 66.7759 H 0.0 **** 0.053
64 C810 8.12816 4.28988 61.1337 C.ar 0.0 **** 0.042
65 H892 9.6219 1.44498 50.6562 H 0.0 **** 0.053
66 C821 4.50591 9.33149 65.4786 C.ar 0.0 **** 0.0
67 C842 12.7047 -0.290129 60.6055 C.3 0.0 **** -0.159
68 C799 9.91558 1.78348 58.9681 C.2 0.0 **** 0.0
69 H862 4.17008 9.01967 60.6269 H 0.0 **** 0.053
70 C800 9.58612 2.53069 60.091 C.2 0.0 **** 0.0
71 C790 9.56547 3.84062 51.3043 C.3 0.0 **** -0.106
72 C789 9.56723 3.20297 52.6693 C.ar 0.0 **** 0.0
73 C822 4.67637 10.0771 64.3033 C.ar 0.0 **** 0.0
74 O847 7.04911 5.5414 63.3547 O.2 0.0 **** -0.419
75 H851 7.93836 5.56922 54.1013 H 0.0 **** 0.053
76 C784 9.12388 6.07685 52.3959 C.ar 0.0 **** 0.0
77 H854 8.53549 5.05703 56.0783 H 0.0 **** 0.1268
78 H908 5.35404 4.97075 70.9779 H 0.0 **** 0.053
79 C837 8.61932 8.2076 53.6101 C.3 0.0 **** -0.159
80 H890 9.89046 -0.0206286 51.6083 H 0.0 **** 0.053
81 H889 9.41892 5.66212 47.8778 H 0.0 **** 0.053
82 C791 9.89942 1.8098 52.7766 C.ar 0.0 **** 0.0
83 C836 9.75004 8.122 48.6484 C.3 0.0 **** -0.159
84 C794 9.30128 3.31923 55.0824 C.ar 0.0 **** 0.0
85 H897 13.6805 -0.127056 61.0834 H 0.0 **** 0.053
86 H850 9.59776 5.93444 54.4685 H 0.0 **** 0.053
87 C829 4.71829 7.15913 66.6972 C.ar 0.0 **** 0.0
88 C828 4.59559 7.79857 67.9486 C.ar 0.0 **** 0.0
89 H863 4.90299 11.0745 61.7952 H 0.0 **** 0.053
90 C812 6.13182 7.38036 62.0966 C.ar 0.0 **** 0.0
91 H860 11.1877 0.155584 58.2742 H 0.0 **** 0.053
92 C802 8.51019 4.24878 58.6807 C.ar 0.0 **** 0.0
93 H875 4.72297 3.9263 67.7622 H 0.0 **** 0.1268
94 H887 9.53797 4.17738 48.8334 H 0.0 **** 0.053
95 C782 9.58864 6.00378 50.0139 C.ar 0.0 **** 0.0
96 H866 3.7977 11.7756 63.3166 H 0.0 **** 0.053
97 C785 8.95154 7.47418 52.332 C.ar 0.0 **** 0.0
98 N819 5.3293 7.34662 64.3819 N.ar 0.0 **** -0.481
99 H886 8.49041 9.28529 53.467 H 0.0 **** 0.053
100 C815 5.25039 9.24878 60.6926 C.3 0.0 **** -0.106
101 C818 5.53326 8.0603 63.2656 C.ar 0.0 **** 0.2405
102 C809 7.41728 5.50395 61.0301 C.ar 0.0 **** 0.052
103 H885 7.69955 7.81207 54.0716 H 0.0 **** 0.053
104 H867 2.41355 11.6316 65.2976 H 0.0 **** 0.053
105 H899 12.0201 -0.70476 61.3627 H 0.0 **** 0.053
106 H858 12.869 1.39892 59.2931 H 0.0 **** 0.053
107 H853 10.4898 3.54618 50.7788 H 0.0 **** 0.053
108 C793 9.65573 1.92909 55.1988 C.ar 0.0 **** 0.0
109 C831 4.68681 5.0169 67.8092 C.ar 0.0 **** -0.1268
110 H893 11.243 -0.300282 54.9703 H 0.0 **** 0.053
111 H903 7.71756 4.37209 62.9737 H 0.0 **** 0.41
112 H859 10.3243 -0.14492 59.7933 H 0.0 **** 0.053
113 C813 6.00009 7.95787 60.8492 C.ar 0.0 **** 0.0
114 C830 4.76842 5.75986 66.6381 C.ar 0.0 **** -0.1268
115 H861 5.52994 9.72442 59.744 H 0.0 **** 0.053
116 O845 7.57042 6.09734 57.4321 O.3 0.0 **** -0.452
117 C833 4.54093 7.04393 69.1351 C.ar 0.0 **** 0.0
118 C849 4.50262 4.77874 70.3044 C.3 0.0 **** -0.159
119 H856 9.99154 1.16611 61.7255 H 0.0 **** 0.053
120 H874 4.89047 5.28165 65.6662 H 0.0 **** 0.1268
121 C795 8.91203 4.05601 56.2114 C.ar 0.0 **** -0.1268
122 C848 4.46091 7.75339 70.4671 C.3 0.0 **** -0.159
123 H865 5.24605 12.1369 64.2442 H 0.0 **** 0.053
124 H881 10.4656 7.56652 48.0289 H 0.0 **** 0.053
125 C826 3.92394 9.91501 66.7452 C.3 0.0 **** -0.053
126 H904 7.00932 6.96687 57.6776 H 0.0 **** 0.41
127 O846 6.34369 7.90241 58.5044 O.2 0.0 **** -0.419
128 C803 10.3199 2.15602 61.3578 C.3 0.0 **** -0.106
129 H877 8.61847 9.91867 49.9893 H 0.0 **** 0.053
130 H879 10.4598 10.1878 52.4473 H 0.0 **** 0.053
@<TRIPOS>BOND
1 50 52 1
2 45 64 am
3 6 95 am
4 76 6 am
5 97 76 am
6 27 97 am
7 42 95 am
8 42 27 am
9 48 32 1
10 72 48 am
11 71 72 1
12 76 32 1
13 6 71 1
14 26 82 am
15 108 26 am
16 84 108 am
17 72 82 am
18 48 84 am
19 21 121 am
20 37 21 am
21 23 37 am
22 84 121 am
23 108 23 am
24 70 68 1
25 45 70 1
26 92 45 am
27 37 68 1
28 21 92 am
29 31 128 1
30 24 31 am
31 38 24 1
32 70 128 1
33 68 38 1
34 19 22 am
35 102 19 am
36 64 102 am
37 92 22 am
38 90 14 1
39 113 90 am
40 33 113 1
41 102 14 1
42 19 33 1
43 16 100 1
44 61 16 1
45 101 61 am
46 113 100 1
47 90 101 am
48 25 98 am
49 66 25 am
50 73 66 am
51 101 98 am
52 61 73 am
53 55 12 1
54 50 55 1
55 125 50 1
56 73 12 1
57 66 125 1
58 88 28 1
59 87 88 am
60 25 87 am
61 125 28 1
62 109 114 am
63 39 109 am
64 117 39 am
65 87 114 am
66 88 117 am
67 27 15 1
68 15 47 1
69 42 83 1
70 97 79 1
71 95 4 1
72 82 46 1
73 26 35 1
74 23 53 1
75 24 67 1
76 31 8 1
77 64 34 1
78 22 116 1
79 33 127 2
80 14 74 2
81 117 122 1
82 39 118 1
83 32 86 1
84 32 75 1
85 71 10 1
86 71 107 1
87 121 77 1
88 128 13 1
89 128 119 1
90 31 9 1
91 24 106 1
92 38 112 1
93 38 91 1
94 100 115 1
95 100 69 1
96 16 89 1
97 16 58 1
98 12 123 1
99 12 96 1
100 55 104 1
101 55 49 1
102 50 2 1
103 125 63 1
104 28 56 1
105 28 7 1
106 114 120 1
107 109 93 1
108 15 59 1
109 15 129 1
110 47 51 1
111 47 130 1
112 47 41 1
113 83 124 1
114 83 18 1
115 83 57 1
116 79 1 1
117 79 103 1
118 79 99 1
119 4 94 1
120 4 62 1
121 4 81 1
122 46 80 1
123 46 60 1
124 46 65 1
125 35 110 1
126 35 20 1
127 35 29 1
128 53 11 1
129 67 85 1
130 67 40 1
131 67 105 1
132 8 5 1
133 8 44 1
134 8 43 1
135 34 111 1
136 116 126 1
137 122 30 1
138 122 17 1
139 122 36 1
140 118 78 1
141 118 3 1
142 118 54 1
@<TRIPOS>MOLECULE
Sketch 4
188 213
SMALL
USER_CHARGES


@<TRIPOS>ATOM
1 C10442 69.5034 63.7641 29.0023 C.2 0.0 **** 0.367
2 C10409 52.3333 53.1039 28.901 C.ar 0.0 **** -0.1268
3 C10420 57.4032 60.2492 30.3576 C.2 0.0 **** 0.0
4 H10573 81.6689 64.4515 25.5043 H 0.0 **** 0.053
5 H10533 48.2886 53.5956 27.6231 H 0.0 **** 0.053
6 O10488 67.9847 64.8891 30.3895 O.3 0.0 **** -0.4365
7 C10459 78.0743 61.612 27.893 C.ar 0.0 **** 0.0
8 C10411 54.6695 56.0114 29.4723 C.ar 0.0 **** 0.0
9 H10586 78.2368 52.5926 29.3163 H 0.0 **** 0.053
10 C10443 70.7184 62.9104 29.0058 C.2 0.0 **** 0.052
11 C10484 81.4678 67.9291 25.5495 C.2 0.0 **** 0.347
12 C10455 75.6049 62.9499 27.9688 C.ar 0.0 **** 0.0
13 C10462 78.275 58.7967 28.5968 C.ar 0.0 **** 0.0
14 C10407 51.875 55.5441 29.1696 C.ar 0.0 **** 0.0
15 C10438 68.4348 62.6128 31.0091 C.2 0.0 **** 0.0
16 C10453 74.478 60.8274 28.7739 C.3 0.0 **** -0.106
17 C10508 70.1729 59.8148 42.8007 C.3 0.0 **** -0.106
18 C10457 76.7702 63.6406 27.5775 C.ar 0.0 **** 0.0
19 C10480 80.3179 65.8411 26.4056 C.ar 0.0 **** 0.0
20 H10584 77.9354 69.4019 25.7271 H 0.0 **** 0.41
21 C10434 66.2844 60.935 31.5236 C.ar 0.0 **** 0.0
22 C10449 69.7474 59.3329 29.3198 C.3 0.0 **** -0.106
23 H10532 50.2503 51.357 27.4536 H 0.0 **** 0.053
24 C10401 48.7968 51.9452 28.9809 C.3 0.0 **** -0.106
25 C10410 54.1802 54.7037 29.2595 C.ar 0.0 **** -0.1268
26 C10498 68.5011 62.4319 34.6179 C.2 0.0 **** 0.042
27 C10465 80.6501 58.7648 28.2121 C.ar 0.0 **** 0.1137
28 C10435 66.2283 62.3018 31.9041 C.ar 0.0 **** 0.0
29 H10578 48.7088 56.0022 28.9708 H 0.0 **** 0.41
30 H10534 47.9057 53.9446 29.3235 H 0.0 **** 0.053
31 H10567 79.9802 63.5794 28.0205 H 0.0 **** 0.053
32 C10499 69.2618 61.9833 36.92 C.2 0.0 **** 0.367
33 H10574 83.7761 65.4297 26.2499 H 0.0 **** 0.053
34 O10512 69.0003 58.4001 33.6265 O.3 0.0 **** -0.452
35 C10471 78.7177 54.675 29.6171 C.ar 0.0 **** 0.0
36 C10496 69.1219 60.1523 35.234 C.2 0.0 **** 0.052
37 H10563 81.559 59.305 27.9178 H 0.0 **** 0.1268
38 C10497 68.9661 61.5175 35.58 C.2 0.0 **** 0.052
39 H10517 70.6937 62.2744 39.3088 H 0.0 **** 0.053
40 H10521 69.139 59.4331 42.8467 H 0.0 **** 0.053
41 C10492 78.8555 53.22 29.9776 C.3 0.0 **** -0.159
42 C10483 82.704 67.0739 25.3023 C.3 0.0 **** -0.086
43 C10468 78.3833 57.4189 28.9439 C.ar 0.0 **** 0.0
44 H10585 79.8983 52.8862 29.8946 H 0.0 **** 0.053
45 H10572 81.6885 64.423 27.2612 H 0.0 **** 0.053
46 H10516 71.2354 58.2328 38.2797 H 0.0 **** 0.053
47 C10469 77.2739 56.6252 29.3343 C.ar 0.0 **** -0.1268
48 C10493 68.1385 61.9413 33.3426 C.2 0.0 **** 0.0
49 C10479 80.2505 67.205 26.0186 C.ar 0.0 **** 0.052
50 C10415 55.5501 58.6871 29.9295 C.2 0.0 **** 0.0
51 C10440 67.6943 60.3107 31.5759 C.3 0.0 **** 0.0
52 C10444 70.7787 61.5503 29.4032 C.2 0.0 **** 0.0
53 C10456 74.2959 63.6909 27.9919 C.3 0.0 **** -0.106
54 C10419 58.3563 59.1484 30.2567 C.2 0.0 **** 0.2405
55 C10507 70.2437 60.9467 41.7711 C.3 0.0 **** -0.106
56 H10561 79.8327 61.0196 26.818 H 0.0 **** 0.053
57 H10538 53.4332 59.2008 29.8002 H 0.0 **** 0.1268
58 H10580 68.5295 58.2939 31.3338 H 0.0 **** 0.053
59 H10541 59.9404 63.7307 30.3626 H 0.0 **** 0.053
60 H10550 70.7585 58.7095 31.12 H 0.0 **** 0.053
61 C10454 75.6828 61.6042 28.3258 C.ar 0.0 **** 0.0
62 C10464 79.4133 60.9243 27.8376 C.3 0.0 **** -0.106
63 C10495 68.7905 59.684 33.9367 C.2 0.0 **** 0.042
64 H10554 71.7715 64.5921 28.2063 H 0.0 **** 0.1268
65 O10490 78.8742 69.1541 25.6804 O.3 0.0 **** -0.452
66 H10515 69.5782 57.8031 38.5464 H 0.0 **** 0.053
67 C10481 81.6391 65.1036 26.3985 C.3 0.0 **** -0.106
68 H10535 53.0495 52.2813 28.8575 H 0.0 **** 0.1268
69 C10458 77.9983 62.9785 27.5475 C.ar 0.0 **** 0.0
70 O10486 55.1956 61.0756 30.2882 O.3 0.0 **** -0.452
71 C10403 50.9886 52.8922 28.764 C.ar 0.0 **** 0.0
72 H10560 76.2372 58.9181 27.9975 H 0.0 **** 0.053
73 C10461 76.9401 59.4716 28.6483 C.3 0.0 **** -0.106
74 C10423 59.2334 61.7239 30.8097 C.2 0.0 **** 0.0
75 C10426 61.475 61.0216 30.9079 C.ar 0.0 **** 0.0
76 N10425 59.7129 59.3475 30.4126 N.2 0.0 **** -0.481
77 C10487 67.5735 58.8151 31.2895 C.3 0.0 **** -0.159
78 C10472 79.8103 55.4367 29.2384 C.ar 0.0 **** -0.1268
79 H10587 78.5133 53.036 31.0087 H 0.0 **** 0.053
80 C10424 60.1014 60.575 30.6744 C.2 0.0 **** 0.2405
81 O10511 68.3604 63.7357 34.8896 O.3 0.0 **** -0.452
82 O10491 81.5046 69.1406 25.3593 O.2 0.0 **** -0.419
83 C10430 63.8437 62.3812 31.5303 C.ar 0.0 **** 0.0
84 H10527 68.6504 63.8223 35.8685 H 0.0 **** 0.41
85 C10413 52.3393 56.8375 29.378 C.ar 0.0 **** -0.1268
86 H10557 74.0837 64.0884 26.9817 H 0.0 **** 0.053
87 C10460 76.9198 60.929 28.2787 C.ar 0.0 **** 0.0
88 C10503 70.2686 58.6654 38.6039 C.3 0.0 **** -0.106
89 H10542 59.7282 63.413 32.0915 H 0.0 **** 0.053
90 H10522 70.4242 60.1945 43.8027 H 0.0 **** 0.053
91 H10558 74.398 64.5931 28.622 H 0.0 **** 0.053
92 H10588 58.6181 57.0479 29.945 H 0.0 **** 0.1268
93 C10463 79.4185 59.4744 28.2262 C.ar 0.0 **** 0.0
94 H10559 76.5205 59.3406 29.663 H 0.0 **** 0.053
95 C10412 53.7146 57.1083 29.5361 C.ar 0.0 **** 0.0
96 O10489 69.3387 64.6411 28.1511 O.2 0.0 **** -0.419
97 H10551 71.0167 57.6066 29.7552 H 0.0 **** 0.053
98 N10466 80.8019 57.4941 28.5272 N.ar 0.0 **** -0.481
99 H10577 83.5662 67.7496 25.2277 H 0.0 **** 0.053
100 C10474 79.1641 65.1323 26.7918 C.ar 0.0 **** 0.0
101 C10510 70.6918 58.1009 41.038 C.3 0.0 **** -0.106
102 H10528 69.3753 57.9802 34.4929 H 0.0 **** 0.41
103 C10421 56.0393 59.9984 30.1873 C.2 0.0 **** 0.042
104 H10556 74.3505 59.9448 28.1181 H 0.0 **** 0.053
105 C10432 62.6627 60.3136 30.8854 C.ar 0.0 **** -0.1268
106 C10494 68.23 60.601 32.9949 C.2 0.0 **** 0.0
107 H10523 71.1186 57.8799 43.1591 H 0.0 **** 0.053
108 C10422 57.8915 61.5595 30.6466 C.2 0.0 **** -0.1268
109 H10549 72.6502 58.915 28.766 H 0.0 **** 0.053
110 C10441 68.615 63.693 30.183 C.2 0.0 **** 0.0265
111 C10478 78.9815 67.8458 26.0506 C.ar 0.0 **** 0.042
112 H10544 62.6641 59.2488 30.6454 H 0.0 **** 0.1268
113 H10536 54.8934 53.8774 29.2106 H 0.0 **** 0.1268
114 H10540 57.1864 62.3866 30.735 H 0.0 **** 0.1268
115 H10548 72.9643 59.3208 30.4406 H 0.0 **** 0.053
116 H10519 71.1765 61.5265 41.9082 H 0.0 **** 0.053
117 C10433 65.1188 60.2886 31.1836 C.ar 0.0 **** -0.1268
118 H10569 75.9214 65.2055 26.3853 H 0.0 **** 0.053
119 H10562 80.1339 61.468 28.477 H 0.0 **** 0.053
120 H10547 67.5818 63.8711 32.6067 H 0.0 **** 0.053
121 H10555 74.6874 60.3815 29.764 H 0.0 **** 0.053
122 C10404 50.0481 53.9704 28.8251 C.ar 0.0 **** 0.0
123 H10552 68.828 58.7613 29.407 H 0.0 **** 0.053
124 C10445 69.627 60.7468 29.8384 C.2 0.0 **** 0.0
125 C10451 73.0967 62.914 28.4642 C.2 0.0 **** 0.0
126 H10530 48.0298 51.3241 28.4988 H 0.0 **** 0.053
127 H10539 56.7555 55.4725 29.5698 H 0.0 **** 0.1268
128 C10475 77.9269 65.7858 26.8052 C.ar 0.0 **** 0.0
129 C10414 54.1884 58.4088 29.7602 C.2 0.0 **** -0.1268
130 C10505 70.1781 60.4542 40.3459 C.2 0.0 **** 0.0
131 C10506 69.8873 61.5153 39.3214 C.3 0.0 **** -0.106
132 H10546 65.0392 64.0671 32.2069 H 0.0 **** 0.1268
133 C10429 62.6119 63.0844 31.5207 C.ar 0.0 **** -0.1268
134 H10518 68.9977 62.1015 39.619 H 0.0 **** 0.053
135 C10452 73.1749 61.566 28.8427 C.2 0.0 **** 0.0
136 H10579 54.2788 60.7757 30.1881 H 0.0 **** 0.41
137 C10476 76.6541 65.093 27.2064 C.3 0.0 **** -0.106
138 H10545 65.1099 59.2334 30.9126 H 0.0 **** 0.1268
139 O10513 69.1494 63.2068 37.2274 O.2 0.0 **** -0.419
140 H10520 69.4232 61.6665 41.9376 H 0.0 **** 0.053
141 H10526 71.4883 57.4514 40.6342 H 0.0 **** 0.053
142 C10448 70.9267 58.6678 30.0326 C.3 0.0 **** -0.106
143 C10428 60.0392 62.9531 31.1389 C.3 0.0 **** -0.106
144 H10543 62.6059 64.1483 31.7695 H 0.0 **** 0.1268
145 H10571 76.8791 67.6348 26.4497 H 0.0 **** 0.1268
146 O10514 69.8029 57.9956 35.9512 O.2 0.0 **** -0.419
147 H10581 67.0952 58.6553 30.315 H 0.0 **** 0.053
148 C10439 68.6586 61.2069 30.6939 C.2 0.0 **** 0.0
149 C10416 56.5152 57.593 29.8524 C.2 0.0 **** 0.0
150 C10446 72.031 60.8808 29.2889 C.2 0.0 **** 0.0
151 C10417 56.0358 56.2924 29.6256 C.2 0.0 **** -0.1268
152 C10447 72.2067 59.4163 29.6445 C.3 0.0 **** -0.106
153 C10473 79.2737 63.6824 27.1748 C.3 0.0 **** -0.106
154 H10525 69.8102 57.4424 41.1573 H 0.0 **** 0.053
155 C10482 82.8589 66.0196 26.3958 C.3 0.0 **** -0.106
156 C10501 69.8406 59.691 37.6033 C.ar 0.0 **** 0.0
157 H10566 80.8108 55.0031 29.1901 H 0.0 **** 0.1268
158 H10575 82.9446 66.5199 27.3747 H 0.0 **** 0.053
159 C10509 71.1104 58.6737 42.3961 C.3 0.0 **** -0.106
160 C10502 69.603 59.2168 36.2322 C.2 0.0 **** 0.367
161 H10531 50.6677 50.7462 29.0666 H 0.0 **** 0.053
162 C10436 65.0569 63.0176 31.9001 C.ar 0.0 **** -0.1268
163 H10583 67.2003 64.7521 30.945 H 0.0 **** 0.41
164 H10564 76.2792 57.0711 29.3775 H 0.0 **** 0.1268
165 H10524 72.1394 59.0639 42.3223 H 0.0 **** 0.053
166 C10427 61.4523 62.4163 31.208 C.ar 0.0 **** 0.0
167 C10405 48.6392 53.4531 28.6618 C.3 0.0 **** -0.106
168 H10553 69.9798 59.3953 28.2425 H 0.0 **** 0.053
169 C10450 71.867 63.5529 28.5261 C.2 0.0 **** -0.1268
170 H10570 76.2021 65.6498 28.0483 H 0.0 **** 0.053
171 H10565 76.5724 54.6989 29.9567 H 0.0 **** 0.1268
172 H10537 51.6264 57.6612 29.4294 H 0.0 **** 0.1268
173 H10568 79.768 63.1299 26.3541 H 0.0 **** 0.053
174 C10402 50.2357 51.6027 28.5303 C.3 0.0 **** -0.106
175 C10406 50.4739 55.2595 29.0167 C.ar 0.0 **** 0.042
176 C10418 57.8929 57.8592 30.0101 C.2 0.0 **** -0.1268
177 H10576 82.5798 66.5732 24.3241 H 0.0 **** 0.053
178 C10500 69.6766 61.0045 37.9326 C.ar 0.0 **** 0.0
179 H10529 48.7178 51.8033 30.0692 H 0.0 **** 0.053
180 C10470 77.439 55.2939 29.6592 C.ar 0.0 **** -0.1268
181 H10582 66.9263 58.3749 32.0591 H 0.0 **** 0.053
182 C10431 63.8732 60.9807 31.1881 C.ar 0.0 **** 0.0
183 C10477 77.8503 67.1294 26.4381 C.ar 0.0 **** -0.1268
184 C10408 52.8209 54.4344 29.109 C.ar 0.0 **** 0.0
185 C10437 67.5898 62.8304 32.266 C.3 0.0 **** -0.053
186 C10504 70.3676 59.164 40.018 C.2 0.0 **** 0.0
187 O10485 49.6148 56.3323 29.0836 O.3 0.0 **** -0.452
188 C10467 79.6764 56.8055 28.8957 C.ar 0.0 **** 0.2405
@<TRIPOS>BOND
1 73 72 1
2 131 130 1
3 152 150 1
4 2 184 am
5 71 174 1
6 122 71 am
7 167 122 1
8 24 174 1
9 24 167 1
10 14 175 am
11 184 14 am
12 122 175 am
13 71 2 am
14 8 25 am
15 95 8 un
16 85 95 am
17 184 25 am
18 14 85 am
19 50 129 un
20 149 50 un
21 151 149 un
22 95 129 un
23 8 151 un
24 54 176 un
25 3 54 un
26 103 3 un
27 149 176 un
28 50 103 un
29 74 108 un
30 80 74 un
31 76 80 un
32 3 108 un
33 54 76 un
34 166 75 am
35 143 166 1
36 80 75 1
37 74 143 1
38 83 133 am
39 182 83 am
40 105 182 am
41 166 133 am
42 75 105 am
43 21 117 am
44 28 21 am
45 162 28 am
46 182 117 am
47 83 162 am
48 15 185 1
49 148 15 1
50 51 148 1
51 28 185 1
52 21 51 1
53 15 110 2
54 110 1 1
55 1 10 1
56 10 52 un
57 52 124 1
58 148 124 2
59 142 152 1
60 22 142 1
61 52 150 un
62 124 22 1
63 125 169 un
64 135 125 un
65 150 135 un
66 10 169 un
67 61 16 1
68 12 61 am
69 53 12 1
70 135 16 1
71 125 53 1
72 69 18 am
73 7 69 am
74 87 7 am
75 12 18 am
76 61 87 am
77 13 73 1
78 93 13 am
79 62 93 1
80 87 73 1
81 7 62 1
82 98 27 am
83 188 98 am
84 43 188 am
85 93 27 am
86 13 43 am
87 180 47 am
88 35 180 am
89 78 35 am
90 43 47 am
91 188 78 am
92 100 153 1
93 128 100 am
94 137 128 1
95 69 153 1
96 18 137 1
97 111 183 am
98 49 111 am
99 19 49 am
100 128 183 am
101 100 19 am
102 155 67 1
103 42 155 1
104 11 42 1
105 19 67 1
106 49 11 1
107 175 187 1
108 103 70 1
109 51 77 1
110 110 6 1
111 1 96 2
112 111 65 1
113 11 82 2
114 35 41 1
115 63 106 un
116 36 63 un
117 38 36 un
118 26 38 un
119 48 106 un
120 48 26 un
121 178 32 1
122 156 178 am
123 160 156 1
124 38 32 1
125 36 160 1
126 186 88 1
127 130 186 2
128 156 88 1
129 178 131 1
130 17 55 1
131 159 17 1
132 101 159 1
133 130 55 1
134 186 101 1
135 26 81 1
136 63 34 1
137 32 139 2
138 160 146 2
139 88 66 1
140 88 46 1
141 131 39 1
142 131 134 1
143 55 116 1
144 55 140 1
145 17 40 1
146 17 90 1
147 159 107 1
148 159 165 1
149 101 154 1
150 101 141 1
151 81 84 1
152 34 102 1
153 51 106 1
154 185 48 1
155 24 179 1
156 24 126 1
157 174 161 1
158 174 23 1
159 167 5 1
160 167 30 1
161 2 68 1
162 25 113 1
163 85 172 1
164 129 57 1
165 151 127 1
166 108 114 1
167 143 59 1
168 143 89 1
169 133 144 1
170 105 112 1
171 117 138 1
172 162 132 1
173 185 120 1
174 152 115 1
175 152 109 1
176 142 60 1
177 142 97 1
178 22 123 1
179 22 168 1
180 169 64 1
181 16 121 1
182 16 104 1
183 53 86 1
184 53 91 1
185 73 94 1
186 62 56 1
187 62 119 1
188 27 37 1
189 47 164 1
190 180 171 1
191 78 157 1
192 153 31 1
193 153 173 1
194 137 118 1
195 137 170 1
196 183 145 1
197 67 45 1
198 67 4 1
199 155 33 1
200 155 158 1
201 42 177 1
202 42 99 1
203 187 29 1
204 70 136 1
205 77 58 1
206 77 147 1
207 77 181 1
208 6 163 1
209 65 20 1
210 41 44 1
211 41 9 1
212 41 79 1
213 176 92 1
@<TRIPOS>MOLECULE
Sketch 4
130 142
SMALL
USER_CHARGES


@<TRIPOS>ATOM
1 C3693 57.7825 58.5358 36.6098 C.ar 0.0 **** 0.0
2 H3766 57.8347 56.6691 37.7232 H 0.0 **** 0.053
3 H3744 58.1946 73.8622 33.7567 H 0.0 **** 0.053
4 H3754 66.7591 74.3773 31.9108 H 0.0 **** 0.053
5 H3759 67.4809 67.6087 36.4903 H 0.0 **** 0.053
6 H3721 55.405 67.6102 33.7187 H 0.0 **** 0.053
7 C3663 64.2065 67.2619 36.008 C.3 0.0 **** -0.106
8 H3738 56.7579 78.0522 33.9812 H 0.0 **** 0.053
9 H3736 55.9028 75.8948 31.9485 H 0.0 **** 0.053
10 H3710 60.2585 73.5257 33.2807 H 0.0 **** 0.053
11 H3751 65.3253 76.3744 31.5183 H 0.0 **** 0.053
12 C3650 62.1356 75.9623 31.0587 C.3 0.0 **** -0.106
13 H3764 58.4581 69.6825 33.0508 H 0.0 **** 0.41
14 H3762 65.9619 66.7108 38.1199 H 0.0 **** 0.053
15 C3646 57.9453 76.5766 31.9481 C.ar 0.0 **** 0.0
16 O3705 59.4633 70.0244 33.1139 O.3 0.0 **** -0.452
17 O3701 65.8664 70.7607 32.4973 O.3 0.0 **** -0.452
18 C3647 60.515 73.8027 32.2432 C.3 0.0 **** -0.106
19 C3655 61.8168 71.4018 32.9701 C.ar 0.0 **** -0.1268
20 H3723 53.968 65.7312 34.6284 H 0.0 **** 0.053
21 C3709 59.9167 57.1533 36.4269 C.3 0.0 **** -0.159
22 C3668 59.3988 67.8443 33.9869 C.ar 0.0 **** 0.052
23 C3675 55.774 66.5799 33.7993 C.3 0.0 **** -0.106
24 H3758 68.0531 69.2809 36.2956 H 0.0 **** 0.053
25 H3732 55.6801 60.406 37.8035 H 0.0 **** 0.053
26 C3657 63.7914 70.1198 33.5589 C.ar 0.0 **** 0.0
27 C3661 62.1895 67.9801 34.534 C.ar 0.0 **** 0.0
28 H3750 65.8718 75.2628 30.2473 H 0.0 **** 0.053
29 C3684 52.6748 62.0099 35.4964 C.3 0.0 **** -0.106
30 C3690 59.0076 60.6307 35.1793 C.ar 0.0 **** -0.1268
31 C3678 57.0446 64.2802 34.8992 C.ar 0.0 **** 0.2405
32 H3753 66.6842 72.903 32.8896 H 0.0 **** 0.053
33 H3765 56.6466 57.8454 38.3217 H 0.0 **** 0.053
34 H3714 60.7446 71.4959 32.9158 H 0.0 **** 0.1268
35 H3763 61.2566 64.9846 35.3704 H 0.0 **** 0.41
36 H3749 60.3005 79.1668 29.8574 H 0.0 **** 0.053
37 H3755 66.7895 72.7745 31.1363 H 0.0 **** 0.053
38 H3712 62.2666 76.0474 29.962 H 0.0 **** 0.053
39 H3745 57.8263 73.2822 32.1355 H 0.0 **** 0.053
40 H3713 62.7231 76.8031 31.4648 H 0.0 **** 0.053
41 H3740 55.1288 77.3282 33.8731 H 0.0 **** 0.053
42 H3748 61.3216 79.2133 31.3041 H 0.0 **** 0.053
43 C3662 61.5519 69.086 33.8991 C.ar 0.0 **** 0.0
44 H3761 65.5688 68.1343 39.1114 H 0.0 **** 0.053
45 C3645 58.5416 75.3293 32.2072 C.ar 0.0 **** 0.0
46 H3715 63.4939 66.5777 36.4692 H 0.0 **** 0.053
47 H3768 60.0506 56.9854 37.5082 H 0.0 **** 0.053
48 O3706 57.3678 68.794 33.2048 O.2 0.0 **** -0.419
49 H3767 56.3239 56.9443 36.8345 H 0.0 **** 0.053
50 C3700 66.3454 73.3635 31.954 C.3 0.0 **** -0.159
51 C3682 54.8796 63.2824 35.342 C.ar 0.0 **** 0.0
52 C3667 60.1311 69.0096 33.6564 C.ar 0.0 **** 0.042
53 H3741 58.8875 79.8044 31.3876 H 0.0 **** 0.053
54 H3769 60.9135 57.2292 35.9717 H 0.0 **** 0.053
55 H3760 64.3145 66.9208 38.7558 H 0.0 **** 0.053
56 H3719 66.3268 68.2848 34.5249 H 0.0 **** 0.053
57 C3641 58.735 77.6401 31.4583 C.ar 0.0 **** 0.0
58 H3731 54.7296 60.212 34.9091 H 0.0 **** 0.053
59 O3707 59.9363 64.5201 35.3803 O.2 0.0 **** -0.419
60 C3702 67.3152 68.6489 36.8134 C.3 0.0 **** -0.159
61 O3704 62.0548 65.681 35.2249 O.3 0.0 **** -0.452
62 H3743 57.6727 79.1368 30.2826 H 0.0 **** 0.053
63 C3681 55.5449 62.0634 35.5357 C.ar 0.0 **** 0.0
64 H3724 55.1042 66.3335 35.8379 H 0.0 **** 0.053
65 H3722 55.6086 66.1052 32.8138 H 0.0 **** 0.053
66 C3703 65.1808 67.4545 38.3377 C.3 0.0 **** -0.159
67 C3696 58.1308 79.0169 31.2801 C.3 0.0 **** -0.159
68 C3685 53.416 61.0255 36.3997 C.3 0.0 **** -0.106
69 C3649 62.7644 74.6729 31.519 C.ar 0.0 **** 0.0
70 C3672 57.8643 65.4757 34.6059 C.ar 0.0 **** 0.0
71 H3733 55.1454 58.9528 36.9545 H 0.0 **** 0.053
72 C3691 59.7014 59.4566 35.4444 C.ar 0.0 **** -0.1268
73 H3729 52.8732 60.0702 36.4777 H 0.0 **** 0.053
74 C3671 59.3186 65.5063 34.8679 C.2 0.0 **** 0.367
75 C3674 57.9851 67.8008 33.7336 C.2 0.0 **** 0.367
76 C3660 63.5697 68.0885 34.9149 C.2 0.0 **** 0.0
77 H3756 65.9971 69.8076 32.6242 H 0.0 **** 0.41
78 C3689 57.6812 60.7672 35.6106 C.ar 0.0 **** 0.0
79 H3726 52.9589 63.9973 34.6859 H 0.0 **** 0.053
80 C3656 62.3527 70.2229 33.4859 C.ar 0.0 **** 0.0
81 C3683 53.376 63.3726 35.4909 C.3 0.0 **** -0.106
82 C3686 54.8235 60.7756 35.8593 C.3 0.0 **** -0.053
83 C3673 57.249 66.5932 34.0775 C.ar 0.0 **** 0.0
84 H3746 56.7101 74.3977 32.9546 H 0.0 **** 0.053
85 H3725 53.1491 63.9076 36.4308 H 0.0 **** 0.053
86 C3677 55.6416 64.422 35.0356 C.ar 0.0 **** 0.0
87 C3694 56.4721 76.7954 32.2219 C.3 0.0 **** -0.106
88 C3643 60.6783 76.1732 31.3886 C.ar 0.0 **** 0.0
89 C3648 62.0001 73.6709 32.0739 C.ar 0.0 **** 0.0
90 C3651 64.1877 74.5216 31.4004 C.ar 0.0 **** 0.0
91 C3695 56.2 77.1482 33.6928 C.3 0.0 **** -0.159
92 C3670 61.4355 66.7707 34.7883 C.ar 0.0 **** 0.042
93 C3692 59.1116 58.3999 36.1561 C.ar 0.0 **** 0.0
94 H3718 65.7613 70.1276 36.8473 H 0.0 **** 0.053
95 H3727 52.654 61.6053 34.4707 H 0.0 **** 0.053
96 H3734 59.476 61.4647 34.6568 H 0.0 **** 0.1268
97 H3717 63.9412 68.889 37.3502 H 0.0 **** 0.053
98 C3642 60.0888 77.4283 31.1383 C.ar 0.0 **** 0.0
99 H3730 53.492 61.4422 37.4196 H 0.0 **** 0.053
100 C3669 60.0473 66.7172 34.5431 C.ar 0.0 **** 0.052
101 N3679 57.6669 63.1021 35.0472 N.ar 0.0 **** -0.481
102 H3711 60.0107 73.0274 31.6339 H 0.0 **** 0.053
103 C3644 59.9119 75.1418 31.9358 C.ar 0.0 **** 0.0
104 H3728 51.6287 62.1334 35.8152 H 0.0 **** 0.053
105 H3757 67.5153 68.705 37.8923 H 0.0 **** 0.053
106 H3770 59.4223 56.2552 36.0231 H 0.0 **** 0.053
107 H3752 64.3837 76.1933 30.0317 H 0.0 **** 0.053
108 C3652 64.8345 73.39 31.8869 C.ar 0.0 **** 0.0
109 C3659 64.3592 69.1096 34.4031 C.2 0.0 **** 0.0
110 H3739 56.5317 76.333 34.353 H 0.0 **** 0.053
111 C3666 65.7782 69.1617 34.9203 C.3 0.0 **** -0.106
112 C3665 65.893 69.1019 36.4682 C.ar 0.0 **** -0.053
113 C3676 55.035 65.7906 34.8762 C.3 0.0 **** -0.106
114 H3742 57.3472 79.2137 32.0233 H 0.0 **** 0.053
115 C3658 64.5685 71.0643 32.843 C.ar 0.0 **** 0.042
116 H3737 56.0826 77.5942 31.5759 H 0.0 **** 0.053
117 C3708 57.1205 57.4411 37.4143 C.3 0.0 **** -0.159
118 C3680 56.9475 62.0263 35.3843 C.ar 0.0 **** 0.2405
119 H3747 61.7543 78.1616 29.9466 H 0.0 **** 0.053
120 C3699 64.9825 75.6416 30.7667 C.3 0.0 **** -0.159
121 C3697 57.7677 74.1692 32.7875 C.3 0.0 **** -0.159
122 C3653 64.0458 72.3087 32.4122 C.ar 0.0 **** 0.0
123 C3654 62.6174 72.4572 32.5074 C.ar 0.0 **** 0.0
124 H3720 66.3133 70.0566 34.5887 H 0.0 **** 0.053
125 C3698 60.9071 78.5445 30.529 C.3 0.0 **** -0.159
126 C3664 64.7727 68.2189 37.0761 C.ar 0.0 **** -0.053
127 C3688 57.068 59.7128 36.319 C.ar 0.0 **** 0.0
128 C3687 55.6563 59.9149 36.8112 C.3 0.0 **** -0.106
129 H3716 65.0267 66.6395 35.6045 H 0.0 **** 0.053
130 H3735 60.7342 59.3496 35.1055 H 0.0 **** 0.1268
@<TRIPOS>BOND
1 111 112 1
2 123 122 am
3 88 98 am
4 103 88 am
5 45 103 am
6 15 45 am
7 57 98 am
8 57 15 am
9 89 18 1
10 69 89 am
11 12 69 1
12 103 18 1
13 88 12 1
14 108 90 am
15 122 108 am
16 69 90 am
17 89 123 am
18 80 19 am
19 26 80 am
20 115 26 am
21 123 19 am
22 122 115 am
23 76 109 1
24 27 76 1
25 43 27 am
26 26 109 1
27 80 43 am
28 126 7 1
29 112 126 am
30 76 7 1
31 109 111 1
32 22 52 am
33 100 22 am
34 92 100 am
35 43 52 am
36 27 92 am
37 70 74 1
38 83 70 am
39 75 83 1
40 100 74 1
41 22 75 1
42 113 23 1
43 86 113 1
44 31 86 am
45 83 23 1
46 70 31 am
47 118 101 am
48 63 118 am
49 51 63 am
50 31 101 am
51 86 51 am
52 29 81 1
53 68 29 1
54 82 68 1
55 51 81 1
56 63 82 1
57 127 128 1
58 78 127 am
59 118 78 am
60 82 128 1
61 72 30 am
62 93 72 am
63 1 93 am
64 78 30 am
65 127 1 am
66 15 87 1
67 87 91 1
68 57 67 1
69 45 121 1
70 98 125 1
71 90 120 1
72 108 50 1
73 115 17 1
74 112 60 1
75 126 66 1
76 92 61 1
77 52 16 1
78 75 48 2
79 74 59 2
80 1 117 1
81 93 21 1
82 18 10 1
83 18 102 1
84 12 38 1
85 12 40 1
86 19 34 1
87 7 46 1
88 7 129 1
89 126 97 1
90 112 94 1
91 111 56 1
92 111 124 1
93 23 6 1
94 23 65 1
95 113 20 1
96 113 64 1
97 81 85 1
98 81 79 1
99 29 95 1
100 29 104 1
101 68 73 1
102 68 99 1
103 82 58 1
104 128 25 1
105 128 71 1
106 30 96 1
107 72 130 1
108 87 9 1
109 87 116 1
110 91 8 1
111 91 110 1
112 91 41 1
113 67 53 1
114 67 114 1
115 67 62 1
116 121 3 1
117 121 39 1
118 121 84 1
119 125 119 1
120 125 42 1
121 125 36 1
122 120 28 1
123 120 11 1
124 120 107 1
125 50 32 1
126 50 4 1
127 50 37 1
128 17 77 1
129 60 105 1
130 60 24 1
131 60 5 1
132 66 55 1
133 66 44 1
134 66 14 1
135 61 35 1
136 16 13 1
137 117 33 1
138 117 2 1
139 117 49 1
140 21 47 1
141 21 54 1
142 21 106 1
@<TRIPOS>MOLECULE
Sketch 4
130 142
SMALL
USER_CHARGES


@<TRIPOS>ATOM
1 C9559 64.9036 16.7333 57.618 C.3 0.0 **** -0.159
2 C9512 70.0559 18.6879 46.6142 C.ar 0.0 **** 0.0
3 C9530 69.2902 14.9426 54.2713 C.ar 0.0 **** 0.2405
4 C9522 70.5344 15.8579 50.9609 C.ar 0.0 **** 0.0
5 C9541 66.5694 17.0756 55.7674 C.ar 0.0 **** -0.1268
6 C9539 68.2073 15.4113 55.1558 C.ar 0.0 **** 0.0
7 H9594 74.0322 16.0019 43.2856 H 0.0 **** 0.053
8 H9587 78.2379 15.7077 40.9685 H 0.0 **** 0.053
9 C9516 66.7399 20.9882 44.9946 C.3 0.0 **** -0.106
10 C9544 77.254 15.6014 41.4456 C.3 0.0 **** -0.106
11 C9547 75.0779 16.3464 43.3444 C.3 0.0 **** -0.159
12 H9573 73.0518 13.0401 51.946 H 0.0 **** 0.053
13 C9527 71.2381 14.058 52.5423 C.ar 0.0 **** 0.0
14 C9500 74.198 20.5209 40.6832 C.3 0.0 **** -0.106
15 O9554 67.5647 18.4017 49.319 O.3 0.0 **** -0.452
16 C9493 74.9621 19.2341 40.876 C.ar 0.0 **** 0.0
17 C9520 68.6572 18.1747 48.6003 C.ar 0.0 **** 0.042
18 C9511 68.81 18.7914 47.2995 C.ar 0.0 **** 0.0
19 C9524 71.9224 16.3617 48.9606 C.2 0.0 **** 0.367
20 H9617 66.7942 13.9022 58.8545 H 0.0 **** 0.053
21 C9536 69.8277 13.1978 55.9941 C.3 0.0 **** -0.053
22 C9498 72.7337 19.9044 42.6262 C.ar 0.0 **** 0.0
23 H9592 77.7429 16.1674 38.977 H 0.0 **** 0.053
24 C9496 76.4386 16.8612 41.2431 C.ar 0.0 **** 0.0
25 H9618 64.016 16.0903 57.4988 H 0.0 **** 0.053
26 H9601 72.0407 22.4445 39.1995 H 0.0 **** 0.053
27 H9589 75.5836 14.1991 41.3965 H 0.0 **** 0.053
28 H9593 78.704 17.6168 39.3196 H 0.0 **** 0.053
29 C9526 72.2364 13.6246 51.5021 C.3 0.0 **** -0.106
30 C9537 68.3337 13.2002 56.3231 C.3 0.0 **** -0.106
31 C9510 67.7258 19.5028 46.683 C.2 0.0 **** 0.0
32 H9569 66.3413 21.7262 45.7175 H 0.0 **** 0.053
33 H9599 77.3627 19.7859 38.5561 H 0.0 **** 0.053
34 C9531 70.0777 13.833 54.6459 C.ar 0.0 **** 0.0
35 C9525 72.8062 14.837 50.7711 C.3 0.0 **** -0.106
36 C9542 66.057 16.2455 56.7771 C.ar 0.0 **** 0.0
37 H9560 72.9419 17.8336 43.0494 H 0.0 **** 0.053
38 C9545 76.5472 14.3553 40.8891 C.3 0.0 **** -0.159
39 C9523 71.6977 15.6952 50.2348 C.ar 0.0 **** 0.0
40 C9540 67.6222 16.6692 54.9572 C.ar 0.0 **** -0.1268
41 H9566 65.802 20.181 47.4159 H 0.0 **** 0.053
42 C9515 65.5847 19.9983 44.6811 C.ar 0.0 **** -0.053
43 H9565 66.1452 18.4905 47.7698 H 0.0 **** 0.053
44 H9580 69.8393 11.1079 55.4616 H 0.0 **** 0.053
45 H9568 65.789 19.5571 43.6928 H 0.0 **** 0.053
46 H9584 67.998 17.2992 54.1509 H 0.0 **** 0.1268
47 H9595 75.158 16.914 44.2861 H 0.0 **** 0.053
48 C9553 64.1352 18.3235 46.0267 C.3 0.0 **** -0.159
49 C9548 76.291 19.8023 38.7963 C.3 0.0 **** -0.159
50 H9578 72.3622 10.8376 55.7537 H 0.0 **** 0.053
51 H9582 67.8213 12.4869 55.6484 H 0.0 **** 0.053
52 C9546 77.6889 17.2597 39.072 C.3 0.0 **** -0.159
53 H9576 72.9981 12.421 53.8544 H 0.0 **** 0.053
54 H9577 72.4459 12.5477 56.2082 H 0.0 **** 0.053
55 O9557 68.3514 16.8759 51.0258 O.2 0.0 **** -0.419
56 O9551 68.9412 22.6065 44.0089 O.3 0.0 **** -0.452
57 H9605 70.0464 24.0483 42.149 H 0.0 **** 0.053
58 H9602 73.5815 22.8212 39.9827 H 0.0 **** 0.053
59 H9590 77.1608 13.4506 41.0211 H 0.0 **** 0.053
60 H9603 68.9581 22.743 41.6866 H 0.0 **** 0.053
61 H9609 64.0201 21.2378 45.5572 H 0.0 **** 0.053
62 C9532 71.0805 13.3937 53.7698 C.ar 0.0 **** 0.0
63 H9572 73.4085 15.443 51.4738 H 0.0 **** 0.053
64 C9506 70.2615 19.4545 45.3997 C.ar 0.0 **** 0.0
65 C9549 72.4976 22.7823 40.1464 C.3 0.0 **** -0.159
66 H9611 63.6152 18.0069 45.1099 H 0.0 **** 0.053
67 H9583 68.1969 12.814 57.3427 H 0.0 **** 0.053
68 C9513 66.2703 19.2642 47.012 C.3 0.0 **** -0.106
69 C9518 70.8805 17.191 48.421 C.ar 0.0 **** 0.052
70 H9579 70.3614 11.4329 57.1272 H 0.0 **** 0.053
71 C9558 66.0832 14.0271 58.0199 C.3 0.0 **** -0.159
72 C9509 67.9629 20.3393 45.6004 C.2 0.0 **** 0.0
73 H9596 75.7101 15.4567 43.43 H 0.0 **** 0.053
74 H9575 71.6495 11.3503 53.5026 H 0.0 **** 0.053
75 C9502 70.984 22.0806 42.034 C.ar 0.0 **** 0.0
76 H9607 63.4456 20.1979 44.2315 H 0.0 **** 0.053
77 H9570 66.9657 21.528 44.07 H 0.0 **** 0.053
78 C9499 73.009 20.7545 41.5786 C.ar 0.0 **** 0.0
79 C9494 74.6825 18.3902 41.9533 C.ar 0.0 **** 0.0
80 H9564 72.1323 18.5996 44.8514 H 0.0 **** 0.1268
81 H9612 63.5191 19.0931 46.5153 H 0.0 **** 0.053
82 H9616 65.1373 14.3848 58.4425 H 0.0 **** 0.053
83 H9604 70.1311 23.3574 40.5103 H 0.0 **** 0.053
84 C9505 71.3892 19.3349 44.5893 C.ar 0.0 **** -0.1268
85 C9497 73.5958 18.7159 42.9355 C.3 0.0 **** -0.106
86 H9561 74.0404 18.8429 43.9418 H 0.0 **** 0.053
87 C9521 69.4563 16.7111 50.4186 C.2 0.0 **** 0.367
88 C9543 66.6281 14.9701 56.9723 C.ar 0.0 **** 0.0
89 C9528 70.401 15.166 52.2611 C.ar 0.0 **** 0.2405
90 C9534 71.8804 11.8161 55.6072 C.3 0.0 **** -0.106
91 C9533 71.9527 12.2095 54.1277 C.3 0.0 **** -0.106
92 C9503 70.7147 21.2402 43.169 C.ar 0.0 **** 0.0
93 H9563 73.8651 20.5894 39.6337 H 0.0 **** 0.053
94 C9538 67.7127 14.5666 56.1715 C.ar 0.0 **** 0.0
95 H9614 72.7952 17.0212 47.2186 H 0.0 **** 0.41
96 H9619 64.6202 17.7552 57.3319 H 0.0 **** 0.053
97 C9491 76.6762 17.6791 40.1165 C.ar 0.0 **** 0.0
98 C9492 75.9697 18.8852 39.955 C.ar 0.0 **** 0.0
99 C9535 70.4309 11.7969 56.0899 C.3 0.0 **** -0.106
100 C9519 69.6739 17.3587 49.1394 C.ar 0.0 **** 0.052
101 H9581 70.3281 13.8376 56.7488 H 0.0 **** 0.053
102 C9517 71.0828 17.8488 47.1841 C.ar 0.0 **** 0.042
103 C9508 69.6292 21.4149 44.0625 C.ar 0.0 **** 0.042
104 H9610 64.192 17.4577 46.703 H 0.0 **** 0.053
105 H9613 67.7051 17.7874 50.1829 H 0.0 **** 0.41
106 C9507 69.273 20.439 45.0265 C.ar 0.0 **** 0.0
107 H9571 73.4759 14.5458 49.9521 H 0.0 **** 0.053
108 H9600 72.1563 23.8092 40.3282 H 0.0 **** 0.053
109 H9562 74.8995 21.3704 40.7989 H 0.0 **** 0.053
110 C9501 72.1435 21.8653 41.2959 C.ar 0.0 **** 0.0
111 H9620 65.1553 16.7343 58.6907 H 0.0 **** 0.053
112 H9567 66.1218 18.0089 45.3028 H 0.0 **** 0.053
113 H9615 65.9082 13.0246 57.6003 H 0.0 **** 0.053
114 C9514 65.5401 18.8475 45.7195 C.ar 0.0 **** -0.053
115 H9585 66.1157 18.0572 55.6141 H 0.0 **** 0.1268
116 C9504 71.5985 20.1423 43.4609 C.ar 0.0 **** 0.0
117 O9556 73.041 16.2081 48.3501 O.2 0.0 **** -0.419
118 N9529 69.4717 15.603 53.1227 N.ar 0.0 **** -0.481
119 C9552 64.2895 20.8102 44.5781 C.3 0.0 **** -0.159
120 O9555 72.2503 17.6669 46.5726 O.3 0.0 **** -0.452
121 H9598 75.7493 19.5047 37.881 H 0.0 **** 0.053
122 H9574 71.736 12.9609 50.7718 H 0.0 **** 0.053
123 H9597 76.0177 20.8433 39.0088 H 0.0 **** 0.053
124 H9586 77.4623 15.4584 42.5162 H 0.0 **** 0.053
125 C9550 69.9829 23.1145 41.5685 C.3 0.0 **** -0.159
126 H9608 64.4182 21.6456 43.8728 H 0.0 **** 0.053
127 C9495 75.4235 17.2081 42.1528 C.ar 0.0 **** 0.0
128 H9606 68.4175 22.689 44.8218 H 0.0 **** 0.41
129 H9591 77.435 17.661 38.0827 H 0.0 **** 0.053
130 H9588 76.337 14.4793 39.8157 H 0.0 **** 0.053
@<TRIPOS>BOND
1 85 86 1
2 97 98 am
3 125 57 1
4 10 8 1
5 9 77 1
6 16 98 am
7 79 16 am
8 127 79 am
9 24 127 am
10 97 24 am
11 22 85 1
12 78 22 am
13 14 78 1
14 79 85 1
15 16 14 1
16 75 110 am
17 92 75 am
18 116 92 am
19 78 110 am
20 22 116 am
21 64 84 am
22 106 64 am
23 103 106 am
24 116 84 am
25 92 103 am
26 31 72 1
27 18 31 1
28 2 18 am
29 106 72 1
30 64 2 am
31 114 68 1
32 42 114 am
33 9 42 1
34 31 68 1
35 72 9 1
36 69 102 am
37 100 69 am
38 17 100 am
39 2 102 am
40 18 17 am
41 4 87 1
42 39 4 am
43 19 39 1
44 100 87 1
45 69 19 1
46 29 35 1
47 13 29 1
48 89 13 am
49 39 35 1
50 4 89 am
51 3 118 am
52 34 3 am
53 62 34 am
54 89 118 am
55 13 62 am
56 90 91 1
57 99 90 1
58 21 99 1
59 62 91 1
60 34 21 1
61 94 30 1
62 6 94 am
63 3 6 am
64 21 30 1
65 5 40 am
66 36 5 am
67 88 36 am
68 6 40 am
69 94 88 am
70 24 10 1
71 10 38 1
72 97 52 1
73 127 11 1
74 98 49 1
75 110 65 1
76 75 125 1
77 103 56 1
78 42 119 1
79 114 48 1
80 17 15 1
81 102 120 1
82 19 117 2
83 87 55 2
84 88 71 1
85 36 1 1
86 85 37 1
87 14 109 1
88 14 93 1
89 84 80 1
90 68 43 1
91 68 41 1
92 114 112 1
93 42 45 1
94 9 32 1
95 35 107 1
96 35 63 1
97 29 12 1
98 29 122 1
99 91 74 1
100 91 53 1
101 90 54 1
102 90 50 1
103 99 70 1
104 99 44 1
105 21 101 1
106 30 51 1
107 30 67 1
108 40 46 1
109 5 115 1
110 10 124 1
111 38 130 1
112 38 27 1
113 38 59 1
114 52 129 1
115 52 23 1
116 52 28 1
117 11 7 1
118 11 47 1
119 11 73 1
120 49 123 1
121 49 121 1
122 49 33 1
123 65 108 1
124 65 26 1
125 65 58 1
126 125 60 1
127 125 83 1
128 56 128 1
129 119 76 1
130 119 126 1
131 119 61 1
132 48 104 1
133 48 66 1
134 48 81 1
135 15 105 1
136 120 95 1
137 71 113 1
138 71 82 1
139 71 20 1
140 1 25 1
141 1 96 1
142 1 111 1
@<TRIPOS>MOLECULE
Sketch 4
130 142
SMALL
USER_CHARGES


@<TRIPOS>ATOM
1 C661 48.0469 25.5265 68.1005 C.ar 0.0 **** 0.0
2 H721 43.8015 24.9537 66.9249 H 0.0 **** 0.053
3 C674 44.4948 22.6522 75.2699 C.ar 0.0 **** -0.053
4 C656 43.0733 28.4889 64.9416 C.ar 0.0 **** 0.0
5 H731 37.2271 21.9125 68.4854 H 0.0 **** 0.053
6 C701 37.6658 15.0152 74.822 C.ar 0.0 **** -0.1268
7 C676 46.4337 22.3029 73.6371 C.3 0.0 **** -0.106
8 C669 45.3493 22.2216 72.5877 C.2 0.0 **** 0.0
9 C695 32.3513 17.7545 72.1514 C.3 0.0 **** -0.106
10 C671 43.022 21.6217 72.1138 C.ar 0.0 **** 0.0
11 C704 41.7605 29.0252 64.4104 C.3 0.0 **** -0.106
12 H776 34.3101 13.9471 76.8334 H 0.0 **** 0.053
13 C660 46.8479 26.918 66.3599 C.3 0.0 **** -0.106
14 C700 37.5425 16.0116 73.8618 C.ar 0.0 **** -0.1268
15 C686 35.8942 20.9342 69.9186 C.3 0.0 **** -0.106
16 H761 49.6262 27.0244 68.0408 H 0.0 **** 0.053
17 H749 40.9256 29.6234 66.3351 H 0.0 **** 0.053
18 C706 44.2846 30.265 63.5949 C.3 0.0 **** -0.159
19 C652 45.5174 28.5301 64.9543 C.ar 0.0 **** 0.0
20 H755 41.7987 25.7336 66.2403 H 0.0 **** 0.053
21 H767 46.7832 23.0572 77.0087 H 0.0 **** 0.053
22 C703 35.2733 15.0492 75.2259 C.ar 0.0 **** 0.0
23 C662 48.0673 24.6788 69.2034 C.ar 0.0 **** 0.0
24 H778 36.4337 13.7941 77.5568 H 0.0 **** 0.053
25 H771 44.4656 23.4248 77.3158 H 0.0 **** 0.053
26 C679 40.7161 20.8442 71.6021 C.ar 0.0 **** 0.052
27 H775 33.4572 15.4268 76.347 H 0.0 **** 0.053
28 C653 45.5273 27.4718 65.8844 C.ar 0.0 **** 0.0
29 C680 41.8674 20.8025 72.4162 C.ar 0.0 **** 0.042
30 H744 38.4127 16.4199 73.348 H 0.0 **** 0.1268
31 H737 32.5401 17.4573 70.0268 H 0.0 **** 0.053
32 O717 39.5936 19.3483 73.0315 O.2 0.0 **** -0.419
33 C666 44.2781 23.0497 70.5205 C.ar 0.0 **** 0.0
34 C702 36.5493 14.5209 75.515 C.ar 0.0 **** 0.0
35 H753 44.2657 29.9645 62.5326 H 0.0 **** 0.053
36 H739 31.5277 17.0416 72.3148 H 0.0 **** 0.053
37 C683 38.3799 20.9278 69.9902 C.ar 0.0 **** 0.0
38 H748 41.8288 30.9074 65.5101 H 0.0 **** 0.053
39 C687 35.9121 19.7317 70.8242 C.ar 0.0 **** 0.0
40 H740 32.2076 18.5879 72.8616 H 0.0 **** 0.053
41 H747 41.9089 29.4706 63.4172 H 0.0 **** 0.053
42 C693 33.4163 19.369 70.5403 C.3 0.0 **** -0.106
43 H773 40.911 19.5529 73.4578 H 0.0 **** 0.41
44 C685 37.1773 21.0015 69.0951 C.3 0.0 **** -0.106
45 H745 38.6522 14.61 75.0583 H 0.0 **** 0.1268
46 C699 36.2767 16.5294 73.5554 C.ar 0.0 **** 0.0
47 H768 47.9968 22.7227 75.7494 H 0.0 **** 0.053
48 H780 36.1476 12.5495 76.3311 H 0.0 **** 0.053
49 C668 46.7249 23.1504 70.7052 C.ar 0.0 **** 0.042
50 C682 38.363 20.1166 71.1076 C.ar 0.0 **** 0.0
51 O711 47.8801 22.5322 71.1288 O.3 0.0 **** -0.452
52 C664 45.5963 24.4884 69.0332 C.ar 0.0 **** 0.0
53 C665 44.381 23.9083 69.4273 C.ar 0.0 **** -0.1268
54 H726 44.693 20.5466 74.768 H 0.0 **** 0.053
55 H760 50.169 25.377 67.6648 H 0.0 **** 0.053
56 C681 39.5588 20.0533 71.9739 C.2 0.0 **** 0.367
57 C719 36.7441 13.4479 76.5572 C.3 0.0 **** -0.159
58 H754 41.7595 26.9504 67.5123 H 0.0 **** 0.053
59 H758 47.141 29.9777 65.0016 H 0.0 **** 0.053
60 H751 45.1757 30.8887 63.741 H 0.0 **** 0.053
61 C690 36.1336 17.6238 72.5774 C.ar 0.0 **** 0.2405
62 O715 41.8049 23.1263 68.9701 O.3 0.0 **** -0.452
63 C691 34.8637 17.934 72.0455 C.ar 0.0 **** 0.0
64 C654 44.3208 26.9476 66.3539 C.ar 0.0 **** 0.0
65 H765 49.8332 23.5014 69.7127 H 0.0 **** 0.053
66 H762 49.2501 26.302 66.4704 H 0.0 **** 0.053
67 H752 43.4081 30.903 63.7679 H 0.0 **** 0.053
68 H730 47.3174 22.8446 73.2864 H 0.0 **** 0.053
69 C651 44.2912 29.0646 64.5177 C.ar 0.0 **** 0.0
70 H779 37.8002 13.1519 76.616 H 0.0 **** 0.053
71 N689 37.2415 18.2929 72.2407 N.ar 0.0 **** -0.481
72 H774 40.8301 22.9473 68.5839 H 0.0 **** 0.41
73 H757 47.6337 28.3582 64.4816 H 0.0 **** 0.053
74 C670 44.1382 21.6931 73.0142 C.2 0.0 **** 0.0
75 H736 33.5366 19.592 69.4688 H 0.0 **** 0.053
76 H732 37.2113 20.1471 68.3931 H 0.0 **** 0.053
77 H746 41.0527 28.1974 64.2568 H 0.0 **** 0.053
78 H729 46.7564 21.2735 73.8868 H 0.0 **** 0.053
79 C713 44.1629 22.5252 76.7586 C.3 0.0 **** -0.159
80 H741 33.7424 16.1493 71.8394 H 0.0 **** 0.053
81 C657 44.2947 25.8412 67.3672 C.3 0.0 **** -0.106
82 C675 45.9827 22.9666 74.967 C.ar 0.0 **** -0.053
83 C692 34.756 18.999 71.1398 C.ar 0.0 **** 0.0
84 H764 50.0786 25.2646 69.7428 H 0.0 **** 0.053
85 H769 46.8666 21.4465 76.2553 H 0.0 **** 0.053
86 H733 35.0235 20.9224 69.2514 H 0.0 **** 0.053
87 C673 44.0438 21.3987 74.4934 C.3 0.0 **** -0.106
88 H722 47.3682 26.4537 65.4991 H 0.0 **** 0.053
89 H727 43.8964 23.4862 74.8678 H 0.0 **** 0.053
90 H728 46.0813 24.0563 74.8404 H 0.0 **** 0.053
91 C694 32.3419 18.2911 70.7209 C.3 0.0 **** -0.106
92 C718 34.0489 14.5765 75.9749 C.3 0.0 **** -0.159
93 H750 40.194 30.467 64.9416 H 0.0 **** 0.053
94 H742 33.6471 17.5478 74.5513 H 0.0 **** 0.053
95 H734 35.8068 21.8507 70.5324 H 0.0 **** 0.053
96 H725 43.0308 21.1275 74.7913 H 0.0 **** 0.053
97 C678 40.7166 21.6553 70.4435 C.ar 0.0 **** 0.052
98 C659 46.8085 25.9234 67.4908 C.ar 0.0 **** 0.0
99 C684 39.549 21.7056 69.6076 C.2 0.0 **** 0.367
100 C705 41.1351 30.0677 65.3507 C.3 0.0 **** -0.159
101 H735 33.074 20.3118 71.0039 H 0.0 **** 0.053
102 H723 47.506 27.7541 66.6513 H 0.0 **** 0.053
103 C696 33.6876 17.0747 72.4477 C.3 0.0 **** -0.053
104 C707 41.821 26.8212 66.4191 C.3 0.0 **** -0.159
105 O716 39.5227 22.4088 68.5343 O.2 0.0 **** -0.419
106 H724 43.4908 24.1222 68.8587 H 0.0 **** 0.1268
107 H756 40.9128 27.2544 65.9878 H 0.0 **** 0.053
108 H763 49.1818 24.4583 71.04 H 0.0 **** 0.053
109 C672 43.0521 22.3755 70.904 C.ar 0.0 **** 0.0
110 H766 47.6312 21.7452 71.6391 H 0.0 **** 0.41
111 C658 45.6112 25.4282 67.9569 C.ar 0.0 **** 0.0
112 H770 43.0802 22.3869 76.8962 H 0.0 **** 0.053
113 C698 35.1416 16.039 74.2342 C.ar 0.0 **** 0.0
114 H720 43.6204 26.1294 68.1925 H 0.0 **** 0.053
115 H772 44.6732 21.6613 77.2101 H 0.0 **** 0.053
116 C663 46.8321 24.1043 69.6632 C.ar 0.0 **** 0.0
117 H743 32.9818 15.9624 74.1478 H 0.0 **** 0.053
118 C697 33.8022 16.6551 73.9144 C.3 0.0 **** -0.106
119 C712 46.9595 22.5273 76.0625 C.3 0.0 **** -0.159
120 H759 46.7267 29.4029 63.3781 H 0.0 **** 0.053
121 C710 49.3605 24.4653 69.9582 C.3 0.0 **** -0.159
122 C655 43.0887 27.4404 65.8792 C.ar 0.0 **** 0.0
123 H738 31.3563 18.7031 70.4563 H 0.0 **** 0.053
124 C709 49.3377 26.0826 67.5415 C.3 0.0 **** -0.159
125 C667 45.4803 22.7831 71.275 C.ar 0.0 **** 0.0
126 C708 46.8191 29.091 64.4272 C.3 0.0 **** -0.159
127 H777 33.3826 13.9877 75.3214 H 0.0 **** 0.053
128 C677 41.8636 22.4033 70.0854 C.ar 0.0 **** 0.042
129 C688 37.1419 19.3376 71.4067 C.ar 0.0 **** 0.2405
130 O714 41.8949 19.9716 73.4508 O.3 0.0 **** -0.452
@<TRIPOS>BOND
1 52 53 am
2 64 28 am
3 83 42 1
4 81 2 1
5 28 19 am
6 122 64 am
7 4 122 am
8 69 19 am
9 69 4 am
10 111 81 1
11 98 111 am
12 13 98 1
13 64 81 1
14 28 13 1
15 23 1 am
16 116 23 am
17 52 116 am
18 98 1 am
19 111 52 am
20 33 53 am
21 125 33 am
22 49 125 am
23 116 49 am
24 74 8 1
25 10 74 1
26 109 10 am
27 125 8 1
28 33 109 am
29 3 87 1
30 82 3 am
31 7 82 1
32 74 87 1
33 8 7 1
34 97 128 am
35 26 97 am
36 29 26 am
37 109 128 am
38 10 29 am
39 50 56 1
40 37 50 am
41 99 37 1
42 26 56 1
43 97 99 1
44 15 44 1
45 39 15 1
46 129 39 am
47 37 44 1
48 50 129 am
49 61 71 am
50 63 61 am
51 83 63 am
52 129 71 am
53 39 83 am
54 91 42 1
55 9 91 1
56 103 9 1
57 63 103 1
58 113 118 1
59 46 113 am
60 61 46 am
61 103 118 1
62 6 14 am
63 34 6 am
64 22 34 am
65 46 14 am
66 113 22 am
67 4 11 1
68 11 100 1
69 69 18 1
70 122 104 1
71 19 126 1
72 1 124 1
73 23 121 1
74 49 51 1
75 82 119 1
76 3 79 1
77 29 130 1
78 128 62 1
79 99 105 2
80 56 32 2
81 22 92 1
82 34 57 1
83 81 114 1
84 13 88 1
85 13 102 1
86 53 106 1
87 87 96 1
88 87 54 1
89 3 89 1
90 82 90 1
91 7 78 1
92 7 68 1
93 44 5 1
94 44 76 1
95 15 86 1
96 15 95 1
97 42 101 1
98 42 75 1
99 91 31 1
100 91 123 1
101 9 36 1
102 9 40 1
103 103 80 1
104 118 94 1
105 118 117 1
106 14 30 1
107 6 45 1
108 11 77 1
109 11 41 1
110 100 38 1
111 100 17 1
112 100 93 1
113 18 60 1
114 18 67 1
115 18 35 1
116 104 58 1
117 104 20 1
118 104 107 1
119 126 73 1
120 126 59 1
121 126 120 1
122 124 55 1
123 124 16 1
124 124 66 1
125 121 108 1
126 121 84 1
127 121 65 1
128 51 110 1
129 119 21 1
130 119 47 1
131 119 85 1
132 79 112 1
133 79 25 1
134 79 115 1
135 130 43 1
136 62 72 1
137 92 27 1
138 92 12 1
139 92 127 1
140 57 24 1
141 57 70 1
142 57 48 1
@<TRIPOS>MOLECULE
Sketch 4
130 142
SMALL
USER_CHARGES


@<TRIPOS>ATOM
1 C6784 21.3453 64.7347 58.2427 C.ar 0.0 **** -0.053
2 C6809 24.0872 62.0166 67.8894 C.ar 0.0 **** 0.0
3 H6850 24.8663 65.4156 70.9089 H 0.0 **** 0.053
4 C6805 24.286 64.6009 71.377 C.3 0.0 **** -0.106
5 H6833 11.6306 68.5843 57.8168 H 0.0 **** 0.053
6 H6888 28.0023 59.3277 66.9102 H 0.0 **** 0.053
7 C6761 10.8663 71.0071 61.0028 C.ar 0.0 **** 0.0
8 C6762 10.8238 70.0583 59.9646 C.ar 0.0 **** 0.0
9 O6824 21.1707 63.2071 62.1015 O.3 0.0 **** -0.452
10 C6790 20.1355 64.013 62.3027 C.ar 0.0 **** 0.042
11 H6853 26.07 62.6619 70.5692 H 0.0 **** 0.053
12 C6813 26.214 60.9634 68.4855 C.ar 0.0 **** 0.0
13 N6799 22.256 63.3409 67.0755 N.ar 0.0 **** -0.481
14 H6847 22.3407 64.2987 72.2502 H 0.0 **** 0.053
15 C6769 12.933 67.1108 58.6384 C.ar 0.0 **** 0.0
16 C6822 21.0496 63.715 55.8781 C.3 0.0 **** -0.159
17 C6815 12.7861 73.062 62.9401 C.3 0.0 **** -0.159
18 C6778 16.2466 64.4891 58.2179 C.ar 0.0 **** 0.042
19 C6765 12.8187 69.8974 61.9486 C.ar 0.0 **** 0.0
20 C6816 9.8708 72.1479 61.0149 C.3 0.0 **** -0.159
21 H6887 27.236 60.6519 70.3747 H 0.0 **** 0.053
22 C6796 20.3579 66.3367 68.3431 C.3 0.0 **** -0.106
23 H6860 12.7537 73.7814 63.7731 H 0.0 **** 0.053
24 H6832 10.8362 67.4443 58.869 H 0.0 **** 0.053
25 H6857 10.8114 72.2656 63.3404 H 0.0 **** 0.053
26 C6823 22.8387 64.7056 57.9088 C.3 0.0 **** -0.159
27 C6829 27.024 58.9134 67.2045 C.3 0.0 **** -0.159
28 H6872 10.9472 66.6057 56.9215 H 0.0 **** 0.053
29 C6771 13.0215 66.2824 57.4684 C.ar 0.0 **** 0.0
30 C6773 15.1313 65.3614 58.2691 C.ar 0.0 **** 0.0
31 C6818 9.72966 70.1235 58.9228 C.3 0.0 **** -0.159
32 H6861 9.5434 72.4058 59.9997 H 0.0 **** 0.053
33 C6800 23.1138 63.1088 68.0749 C.ar 0.0 **** 0.2405
34 C6779 18.641 64.0799 58.8489 C.2 0.0 **** 0.0
35 C6774 15.0253 66.1773 59.4501 C.ar 0.0 **** 0.0
36 C6797 21.3336 65.1902 68.3298 C.ar 0.0 **** 0.0
37 H6841 18.378 66.7984 67.5342 H 0.0 **** 0.053
38 C6817 13.9184 69.7652 62.9758 C.3 0.0 **** -0.159
39 C6787 17.8174 65.5548 62.7974 C.ar 0.0 **** 0.042
40 C6810 23.9089 61.0719 66.8698 C.ar 0.0 **** -0.1268
41 C6819 11.904 66.3478 56.4513 C.3 0.0 **** -0.159
42 C6804 22.9292 65.1337 71.8345 C.3 0.0 **** -0.106
43 H6848 23.0433 65.8782 72.637 H 0.0 **** 0.053
44 H6859 13.8203 72.7029 62.8306 H 0.0 **** 0.053
45 C6828 27.4629 60.948 69.3362 C.3 0.0 **** -0.159
46 C6783 21.0121 63.7436 59.3759 C.3 0.0 **** -0.106
47 H6838 20.1015 65.482 56.6404 H 0.0 **** 0.053
48 C6763 11.8045 69.0487 59.8995 C.ar 0.0 **** 0.0
49 H6858 12.5223 73.5922 62.0123 H 0.0 **** 0.053
50 H6864 14.9079 69.8857 62.5045 H 0.0 **** 0.053
51 C6766 11.835 70.8999 62.0249 C.ar 0.0 **** 0.0
52 C6770 11.7604 68.0472 58.7717 C.3 0.0 **** -0.106
53 H6884 16.8217 66.4646 64.1387 H 0.0 **** 0.41
54 C6806 24.0922 63.4798 70.3567 C.3 0.0 **** -0.053
55 H6878 20.3093 63.5302 55.0844 H 0.0 **** 0.053
56 H6849 24.876 64.229 72.2297 H 0.0 **** 0.053
57 C6802 22.2014 64.9166 69.3998 C.ar 0.0 **** 0.0
58 C6814 11.8282 71.8835 63.1763 C.3 0.0 **** -0.106
59 H6877 21.8983 64.2535 55.4343 H 0.0 **** 0.053
60 O6821 16.2338 63.4881 57.2725 O.3 0.0 **** -0.452
61 C6795 19.0749 65.9543 67.6106 C.3 0.0 **** -0.106
62 C6775 15.9667 66.0658 60.4845 C.ar 0.0 **** -0.1268
63 H6836 21.109 62.7096 58.9961 H 0.0 **** 0.053
64 H6874 13.6887 65.2735 55.1381 H 0.0 **** 0.053
65 C6776 17.1127 65.2798 60.3757 C.ar 0.0 **** 0.0
66 C6782 18.0623 65.0845 61.4549 C.ar 0.0 **** 0.0
67 H6889 26.6793 58.2559 66.3949 H 0.0 **** 0.053
68 C6789 19.8772 64.4829 63.6075 C.ar 0.0 **** 0.052
69 H6866 13.8477 70.505 63.7797 H 0.0 **** 0.053
70 H6885 27.9234 61.9466 69.385 H 0.0 **** 0.053
71 C6801 23.1204 63.866 69.2658 C.ar 0.0 **** 0.0
72 H6880 23.4322 64.9635 58.7984 H 0.0 **** 0.053
73 H6863 8.9667 71.8959 61.5966 H 0.0 **** 0.053
74 C6808 25.2383 61.9541 68.7022 C.ar 0.0 **** 0.0
75 H6883 21.6452 63.1706 63.059 H 0.0 **** 0.41
76 H6876 16.9067 62.8333 57.5176 H 0.0 **** 0.41
77 C6803 22.168 65.7561 70.6589 C.3 0.0 **** -0.106
78 H6840 18.3621 63.9383 56.692 H 0.0 **** 0.053
79 H6834 15.7961 66.5972 61.4065 H 0.0 **** 0.1268
80 C6792 20.5144 64.6613 66.031 C.ar 0.0 **** 0.0
81 C6811 24.8607 60.0786 66.6761 C.ar 0.0 **** -0.1268
82 H6870 11.7685 65.3879 55.937 H 0.0 **** 0.053
83 C6798 21.4009 64.3681 67.1779 C.ar 0.0 **** 0.2405
84 H6886 28.2142 60.2495 68.9503 H 0.0 **** 0.053
85 H6852 25.9321 63.8929 69.3106 H 0.0 **** 0.053
86 C6772 14.1234 65.4621 57.2487 C.ar 0.0 **** 0.0
87 O6827 21.8392 63.4627 64.4141 O.2 0.0 **** -0.419
88 C6781 19.2679 64.3676 61.1994 C.ar 0.0 **** 0.0
89 H6842 18.5506 65.1593 68.1737 H 0.0 **** 0.053
90 H6837 21.1154 65.7362 58.6422 H 0.0 **** 0.053
91 C6812 26.0174 60.0055 67.4684 C.ar 0.0 **** 0.0
92 H6843 20.1224 66.6526 69.3669 H 0.0 **** 0.053
93 H6873 15.3408 64.8179 55.5853 H 0.0 **** 0.053
94 H6839 19.3564 62.6626 57.4184 H 0.0 **** 0.053
95 H6871 12.0998 67.1123 55.6787 H 0.0 **** 0.053
96 C6794 18.4494 65.7468 65.1714 C.2 0.0 **** 0.367
97 C6767 13.8793 67.9415 60.8192 C.3 0.0 **** -0.106
98 H6882 23.1538 63.7069 57.5712 H 0.0 **** 0.053
99 H6844 20.8165 67.2106 67.8426 H 0.0 **** 0.053
100 H6856 12.1014 71.3692 64.1095 H 0.0 **** 0.053
101 C6820 14.2937 64.7821 55.9084 C.3 0.0 **** -0.159
102 H6869 8.78169 70.469 59.3567 H 0.0 **** 0.053
103 H6854 23.0277 61.1498 66.233 H 0.0 **** 0.1268
104 H6851 23.6534 62.6092 70.8848 H 0.0 **** 0.053
105 H6875 14.0124 63.7178 55.9412 H 0.0 **** 0.053
106 C6786 19.1211 63.7441 57.4559 C.3 0.0 **** -0.106
107 C6793 19.3891 65.4344 66.238 C.ar 0.0 **** 0.0
108 H6865 13.9204 68.7624 63.4337 H 0.0 **** 0.053
109 H6846 21.1239 65.9424 70.9545 H 0.0 **** 0.053
110 H6881 23.0864 65.4244 57.113 H 0.0 **** 0.053
111 H6835 21.7394 63.8493 60.1812 H 0.0 **** 0.053
112 H6862 10.3008 73.0549 61.4593 H 0.0 **** 0.053
113 C6764 12.8021 68.9846 60.8749 C.ar 0.0 **** 0.0
114 C6785 20.4099 64.4985 57.0287 C.ar 0.0 **** -0.053
115 H6879 21.4139 62.7364 56.2297 H 0.0 **** 0.053
116 O6826 17.3969 66.434 65.4311 O.2 0.0 **** -0.419
117 H6867 9.54302 69.1457 58.4617 H 0.0 **** 0.053
118 C6807 25.4213 63.0174 69.7566 C.3 0.0 **** -0.106
119 H6855 24.7198 59.3408 65.8831 H 0.0 **** 0.1268
120 C6768 13.9196 67.0704 59.5981 C.ar 0.0 **** 0.0
121 H6890 27.1957 58.2947 68.0999 H 0.0 **** 0.053
122 H6830 14.8606 68.4363 60.9246 H 0.0 **** 0.053
123 C6780 19.6025 64.0142 59.8484 C.2 0.0 **** 0.0
124 C6788 18.7217 65.2627 63.8463 C.ar 0.0 **** 0.052
125 H6845 22.5939 66.7493 70.4284 H 0.0 **** 0.053
126 C6777 17.328 64.583 59.1291 C.ar 0.0 **** 0.0
127 H6831 13.8123 67.3001 61.7196 H 0.0 **** 0.053
128 C6791 20.8041 64.1542 64.6733 C.2 0.0 **** 0.367
129 O6825 16.7379 66.2729 63.0959 O.3 0.0 **** -0.452
130 H6868 9.98678 70.8231 58.1077 H 0.0 **** 0.053
@<TRIPOS>BOND
1 4 3 1
2 7 8 am
3 42 43 1
4 80 83 am
5 48 8 am
6 113 48 am
7 19 113 am
8 51 19 am
9 7 51 am
10 120 97 1
11 15 120 am
12 52 15 1
13 113 97 1
14 48 52 1
15 86 29 am
16 30 86 am
17 35 30 am
18 15 29 am
19 120 35 am
20 65 62 am
21 126 65 am
22 18 126 am
23 35 62 am
24 30 18 am
25 123 34 1
26 88 123 1
27 66 88 am
28 126 34 1
29 65 66 am
30 1 46 1
31 114 1 am
32 106 114 1
33 123 46 1
34 34 106 1
35 124 39 am
36 68 124 am
37 10 68 am
38 66 39 am
39 88 10 am
40 80 128 1
41 107 80 am
42 96 107 1
43 68 128 1
44 124 96 1
45 22 61 1
46 36 22 1
47 83 36 am
48 107 61 1
49 33 13 am
50 71 33 am
51 57 71 am
52 83 13 am
53 36 57 am
54 42 77 1
55 4 42 1
56 54 4 1
57 57 77 1
58 71 54 1
59 74 118 1
60 2 74 am
61 33 2 am
62 54 118 1
63 81 40 am
64 91 81 am
65 12 91 am
66 2 40 am
67 74 12 am
68 51 58 1
69 58 17 1
70 7 20 1
71 19 38 1
72 8 31 1
73 29 41 1
74 86 101 1
75 18 60 1
76 114 16 1
77 1 26 1
78 10 9 1
79 39 129 1
80 96 116 2
81 128 87 2
82 12 45 1
83 91 27 1
84 97 122 1
85 97 127 1
86 52 24 1
87 52 5 1
88 62 79 1
89 46 111 1
90 46 63 1
91 1 90 1
92 114 47 1
93 106 94 1
94 106 78 1
95 61 37 1
96 61 89 1
97 22 92 1
98 22 99 1
99 77 125 1
100 77 109 1
101 42 14 1
102 4 56 1
103 54 104 1
104 118 85 1
105 118 11 1
106 40 103 1
107 81 119 1
108 58 100 1
109 58 25 1
110 17 49 1
111 17 44 1
112 17 23 1
113 20 32 1
114 20 112 1
115 20 73 1
116 38 50 1
117 38 108 1
118 38 69 1
119 31 117 1
120 31 130 1
121 31 102 1
122 41 82 1
123 41 95 1
124 41 28 1
125 101 93 1
126 101 64 1
127 101 105 1
128 60 76 1
129 16 59 1
130 16 55 1
131 16 115 1
132 26 72 1
133 26 110 1
134 26 98 1
135 9 75 1
136 129 53 1
137 45 70 1
138 45 84 1
139 45 21 1
140 27 6 1
141 27 67 1
142 27 121 1
@<TRIPOS>MOLECULE
Sketch 4
130 142
SMALL
USER_CHARGES


@<TRIPOS>ATOM
1 H3079 54.3417 57.8651 50.6983 H 0.0 **** 0.053
2 C2994 58.4935 43.8541 59.8514 C.ar 0.0 **** 0.0
3 H3111 59.3835 43.6413 48.3728 H 0.0 **** 0.053
4 H3084 59.8129 53.582 49.9376 H 0.0 **** 0.1268
5 H3075 53.5975 54.8227 52.933 H 0.0 **** 0.053
6 C3027 56.1411 53.4369 53.1137 C.ar 0.0 **** 0.0
7 C3017 59.0378 47.8201 54.8928 C.ar 0.0 **** 0.042
8 H3081 56.6528 57.1811 51.0424 H 0.0 **** 0.053
9 C3012 59.8454 46.8685 54.1678 C.ar 0.0 **** 0.0
10 H3091 56.9717 41.0941 63.4785 H 0.0 **** 0.053
11 H3097 60.3511 41.1363 62.2249 H 0.0 **** 0.053
12 H3068 60.5353 42.7347 51.0163 H 0.0 **** 0.053
13 C2996 56.7533 43.8986 61.5531 C.ar 0.0 **** 0.0
14 H3099 59.1447 41.2419 63.5153 H 0.0 **** 0.053
15 O3057 58.8769 50.7827 51.103 O.2 0.0 **** -0.419
16 C3050 63.412 41.4883 56.009 C.3 0.0 **** -0.159
17 C3026 55.4803 52.8023 54.3084 C.3 0.0 **** -0.106
18 H3112 60.6824 44.8009 48.0091 H 0.0 **** 0.053
19 C3009 61.4567 45.0767 52.6418 C.2 0.0 **** 0.0
20 C3024 57.7958 49.9441 55.0285 C.2 0.0 **** 0.367
21 H3104 63.4735 40.4979 56.4742 H 0.0 **** 0.053
22 H3065 60.1051 46.8395 50.0934 H 0.0 **** 0.053
23 H3120 60.1721 57.1191 45.8918 H 0.0 **** 0.053
24 O3051 63.3701 43.5595 54.2749 O.3 0.0 **** -0.452
25 H3096 55.7664 45.9397 60.088 H 0.0 **** 0.053
26 H3076 54.6141 55.4114 54.2402 H 0.0 **** 0.053
27 C3020 59.7512 48.4054 52.22 C.ar 0.0 **** 0.042
28 C3033 54.5217 55.3908 53.1432 C.3 0.0 **** -0.106
29 C3039 58.0979 54.843 49.6436 C.ar 0.0 **** 0.0
30 H3094 56.3971 45.2383 58.59 H 0.0 **** 0.053
31 C3038 57.4609 55.7702 48.7927 C.ar 0.0 **** 0.0
32 H3072 57.1855 52.881 55.6378 H 0.0 **** 0.053
33 H3115 56.2935 56.7955 46.4988 H 0.0 **** 0.053
34 H3092 55.6208 42.2275 63.3538 H 0.0 **** 0.053
35 C3032 55.692 54.6401 52.5449 C.ar 0.0 **** 0.0
36 H3060 58.2395 44.4536 57.8224 H 0.0 **** 0.053
37 C3058 57.3351 57.1124 46.6606 C.3 0.0 **** -0.159
38 H3063 60.3493 41.1288 59.969 H 0.0 **** 0.053
39 C3019 58.9622 49.3217 52.9466 C.ar 0.0 **** 0.052
40 C3001 61.9885 42.0291 58.0051 C.ar 0.0 **** 0.0
41 C3022 57.7124 51.4963 53.088 C.ar 0.0 **** 0.0
42 H3098 58.8728 40.1656 62.1349 H 0.0 **** 0.053
43 H3107 61.4143 42.472 48.7031 H 0.0 **** 0.053
44 H3093 57.0359 42.6439 64.3366 H 0.0 **** 0.053
45 C3000 60.4248 42.2294 59.9845 C.3 0.0 **** -0.106
46 C3035 54.5313 56.8556 51.0961 C.3 0.0 **** -0.106
47 C3008 62.1571 43.9689 54.7821 C.ar 0.0 **** 0.042
48 C3037 56.096 56.2758 49.1889 C.3 0.0 **** -0.106
49 H3087 55.4488 44.3189 63.2159 H 0.0 **** 0.053
50 H3069 62.9538 44.5289 51.2187 H 0.0 **** 0.053
51 C2995 57.3094 44.4161 60.3693 C.ar 0.0 **** 0.0
52 C3059 60.0189 56.0297 45.9523 C.3 0.0 **** -0.159
53 H3095 57.3756 46.3965 59.4853 H 0.0 **** 0.053
54 C2992 58.5755 42.2753 61.6942 C.ar 0.0 **** 0.0
55 H3090 53.3087 44.3488 61.9211 H 0.0 **** 0.053
56 C3047 56.6731 45.556 59.6092 C.3 0.0 **** -0.159
57 H3116 57.8199 57.1876 45.6805 H 0.0 **** 0.053
58 C2993 59.1348 42.8054 60.5145 C.ar 0.0 **** 0.0
59 C3002 62.3978 42.3589 56.717 C.ar 0.0 **** 0.0
60 H3083 55.8864 57.2517 48.7294 H 0.0 **** 0.053
61 H3071 56.0563 51.5779 56.0278 H 0.0 **** 0.053
62 H3073 54.9183 53.539 54.8957 H 0.0 **** 0.053
63 H3074 54.7457 52.051 53.9615 H 0.0 **** 0.053
64 H3109 62.6085 43.7592 48.996 H 0.0 **** 0.053
65 H3119 60.9998 55.5413 45.8771 H 0.0 **** 0.053
66 O3054 60.1643 48.735 51.0025 O.3 0.0 **** -0.452
67 C3003 61.7683 43.4649 56.0478 C.ar 0.0 **** 0.0
68 C3046 56.7155 42.1581 63.3983 C.3 0.0 **** -0.159
69 H3086 55.502 45.5891 62.0148 H 0.0 **** 0.053
70 H3108 62.716 42.2278 49.8933 H 0.0 **** 0.053
71 C3053 59.8043 44.6205 48.6471 C.3 0.0 **** -0.159
72 C3052 62.0137 42.9676 49.4792 C.3 0.0 **** -0.159
73 C3041 59.9476 54.722 48.0975 C.ar 0.0 **** -0.1268
74 C3048 59.2732 41.1522 62.4282 C.3 0.0 **** -0.159
75 C3049 62.6852 40.9243 58.7677 C.3 0.0 **** -0.159
76 C3031 56.3329 55.1171 51.3926 C.ar 0.0 **** 0.0
77 C2997 59.0451 44.422 58.5767 C.3 0.0 **** -0.106
78 H3106 63.6163 44.1643 53.5571 H 0.0 **** 0.41
79 O3055 58.6808 47.608 56.1568 O.3 0.0 **** -0.452
80 C2998 60.2267 43.7197 57.9748 C.ar 0.0 **** 0.0
81 N3029 57.8773 53.2643 51.4404 N.ar 0.0 **** -0.481
82 H3088 54.1884 42.8303 61.5891 H 0.0 **** 0.053
83 C3016 62.0848 44.0585 51.7185 C.3 0.0 **** -0.106
84 H3070 62.4546 43.1785 52.2534 H 0.0 **** 0.053
85 H3064 59.3353 45.8212 56.6314 H 0.0 **** 0.1268
86 C3042 59.3253 55.6365 47.2329 C.ar 0.0 **** 0.0
87 C3034 54.3733 56.8219 52.6154 C.3 0.0 **** -0.106
88 H3114 58.1092 48.4646 56.4227 H 0.0 **** 0.41
89 H3080 53.7943 56.1775 50.631 H 0.0 **** 0.053
90 H3101 62.2344 39.9379 58.5596 H 0.0 **** 0.053
91 H3085 60.9217 54.3146 47.8181 H 0.0 **** 0.1268
92 C3023 57.3566 51.1721 54.3823 C.ar 0.0 **** 0.0
93 C3036 55.9379 56.4036 50.7051 C.3 0.0 **** -0.053
94 O3056 57.4703 49.715 56.2487 O.2 0.0 **** -0.419
95 H3062 61.2311 42.4333 60.7162 H 0.0 **** 0.053
96 C3028 57.2459 52.7791 52.5188 C.ar 0.0 **** 0.2405
97 C3018 58.5996 49.0181 54.2795 C.ar 0.0 **** 0.052
98 C3043 58.0604 56.1567 47.5795 C.ar 0.0 **** 0.0
99 H3113 59.6862 49.6749 50.8253 H 0.0 **** 0.41
100 C3011 60.1421 47.1377 52.7995 C.ar 0.0 **** 0.0
101 H3066 61.7381 46.1814 50.0551 H 0.0 **** 0.053
102 C3014 60.1744 44.6736 50.1313 C.ar 0.0 **** -0.053
103 C3045 54.2215 43.9246 61.4747 C.3 0.0 **** -0.159
104 H3110 59.0546 45.3913 48.4145 H 0.0 **** 0.053
105 C3004 60.6718 44.1452 56.6853 C.ar 0.0 **** 0.0
106 C3015 61.1404 43.5524 50.594 C.ar 0.0 **** -0.053
107 H3082 55.3222 55.5802 48.8095 H 0.0 **** 0.053
108 C3044 55.4878 44.4955 62.1323 C.3 0.0 **** -0.106
109 H3089 54.2148 44.1425 60.3963 H 0.0 **** 0.053
110 H3118 59.4283 55.7406 45.0674 H 0.0 **** 0.053
111 C3005 60.0696 45.2581 56.0789 C.ar 0.0 **** -0.1268
112 C3007 61.3732 44.9052 54.0628 C.ar 0.0 **** 0.0
113 H3077 55.1497 57.461 53.0682 H 0.0 **** 0.053
114 C2991 57.3641 42.7943 62.1871 C.ar 0.0 **** 0.0
115 C3006 60.3939 45.6783 54.7901 C.ar 0.0 **** 0.0
116 H3102 62.6224 41.0827 59.8513 H 0.0 **** 0.053
117 C3013 60.7387 46.0571 50.5119 C.3 0.0 **** -0.106
118 C3010 60.8205 46.1419 52.0185 C.2 0.0 **** 0.0
119 H3067 59.242 44.5602 50.7086 H 0.0 **** 0.053
120 H3100 63.7491 40.8613 58.5066 H 0.0 **** 0.053
121 C2999 60.879 42.697 58.6263 C.ar 0.0 **** 0.0
122 H3103 63.1359 41.3478 54.9573 H 0.0 **** 0.053
123 H3061 59.2986 45.4887 58.7327 H 0.0 **** 0.053
124 C3025 56.5192 52.1183 55.1925 C.3 0.0 **** -0.106
125 H3105 64.4192 41.9338 56.0116 H 0.0 **** 0.053
126 C3040 59.346 54.3177 49.2827 C.ar 0.0 **** -0.1268
127 C3030 57.4211 54.3852 50.8713 C.ar 0.0 **** 0.2405
128 C3021 58.5419 50.554 52.308 C.2 0.0 **** 0.367
129 H3117 57.2948 58.1279 47.0904 H 0.0 **** 0.053
130 H3078 53.3992 57.2309 52.924 H 0.0 **** 0.053
@<TRIPOS>BOND
1 118 117 1
2 58 54 am
3 2 58 am
4 51 2 am
5 13 51 am
6 114 54 am
7 114 13 am
8 80 77 1
9 121 80 am
10 45 121 1
11 2 77 1
12 58 45 1
13 59 40 am
14 67 59 am
15 105 67 am
16 121 40 am
17 80 105 am
18 115 111 am
19 112 115 am
20 47 112 am
21 105 111 am
22 67 47 am
23 118 19 1
24 100 118 1
25 9 100 am
26 112 19 1
27 115 9 am
28 102 117 1
29 106 102 am
30 83 106 1
31 19 83 1
32 97 7 am
33 39 97 am
34 27 39 am
35 9 7 am
36 100 27 am
37 41 128 1
38 92 41 am
39 20 92 1
40 39 128 1
41 97 20 1
42 17 124 1
43 6 17 1
44 96 6 am
45 92 124 1
46 41 96 am
47 127 81 am
48 76 127 am
49 35 76 am
50 96 81 am
51 6 35 am
52 87 28 1
53 46 87 1
54 93 46 1
55 35 28 1
56 76 93 1
57 31 48 1
58 29 31 am
59 127 29 am
60 93 48 1
61 73 126 am
62 86 73 am
63 98 86 am
64 29 126 am
65 31 98 am
66 13 108 1
67 108 103 1
68 114 68 1
69 51 56 1
70 54 74 1
71 40 75 1
72 59 16 1
73 47 24 1
74 106 72 1
75 102 71 1
76 27 66 1
77 7 79 1
78 20 94 2
79 128 15 2
80 98 37 1
81 86 52 1
82 77 36 1
83 77 123 1
84 45 95 1
85 45 38 1
86 111 85 1
87 117 22 1
88 117 101 1
89 102 119 1
90 106 12 1
91 83 50 1
92 83 84 1
93 124 61 1
94 124 32 1
95 17 62 1
96 17 63 1
97 28 5 1
98 28 26 1
99 87 113 1
100 87 130 1
101 46 1 1
102 46 89 1
103 93 8 1
104 48 107 1
105 48 60 1
106 126 4 1
107 73 91 1
108 108 69 1
109 108 49 1
110 103 82 1
111 103 109 1
112 103 55 1
113 68 10 1
114 68 34 1
115 68 44 1
116 56 30 1
117 56 53 1
118 56 25 1
119 74 11 1
120 74 42 1
121 74 14 1
122 75 120 1
123 75 90 1
124 75 116 1
125 16 122 1
126 16 21 1
127 16 125 1
128 24 78 1
129 72 43 1
130 72 70 1
131 72 64 1
132 71 104 1
133 71 3 1
134 71 18 1
135 66 99 1
136 79 88 1
137 37 33 1
138 37 57 1
139 37 129 1
140 52 110 1
141 52 65 1
142 52 23 1
@<TRIPOS>MOLECULE
Sketch 4
250 292
SMALL
USER_CHARGES


@<TRIPOS>ATOM
1 H28390 -0.715864 61.4952 57.6882 H 0.0 **** 0.41
2 H28307 5.05256 66.4697 41.3594 H 0.0 **** 0.053
3 C28282 8.33749 68.5066 70.1101 C.2 0.0 **** -0.1268
4 C28253 5.09357 64.7241 64.0035 C.2 0.0 **** 0.0
5 H28323 5.85589 70.2492 47.7573 H 0.0 **** 0.053
6 C28265 4.75689 61.3905 65.0556 C.3 0.0 **** -0.106
7 H28400 4.00752 60.4927 72.3527 H 0.0 **** 0.053
8 H28389 3.82873 57.2438 47.2599 H 0.0 **** 0.053
9 S28203 1.21743 62.4079 51.4943 S.2 0.0 **** 0.024
10 C28244 8.6087 67.8724 54.7211 C.3 0.0 **** -0.106
11 C28298 2.61502 61.3005 73.7954 C.3 0.0 **** -0.106
12 C28249 6.37655 67.4866 59.2751 C.2 0.0 **** -0.1268
13 C28233 1.27837 60.8759 63.9043 C.3 0.0 **** -0.106
14 H28315 2.63691 63.6189 40.7559 H 0.0 **** 0.053
15 C28204 1.51451 62.5304 54.1284 C.2 0.0 **** -0.1268
16 C28266 5.91436 65.0246 67.6534 C.2 0.0 **** 0.0
17 C28162 2.57022 65.7203 42.8029 C.3 0.0 **** 0.107
18 H28374 2.95159 62.4972 65.2012 H 0.0 **** 0.053
19 C28281 7.97215 67.9262 71.3354 C.2 0.0 **** 0.0
20 C28255 3.67039 63.2362 62.7634 C.2 0.0 **** -0.1268
21 C28285 7.20811 66.7281 73.7979 C.2 0.0 **** 0.0
22 H28308 6.56344 65.8755 43.6325 H 0.0 **** 0.053
23 H28401 1.95318 60.4229 73.7401 H 0.0 **** 0.053
24 C28191 -2.6592 62.2853 45.4767 C.3 0.0 **** -0.106
25 C28227 0.974705 60.092 60.0615 C.3 0.0 **** -0.053
26 H28318 5.23223 67.6997 43.8409 H 0.0 **** 0.053
27 C28216 4.20781 65.839 54.2283 C.2 0.0 **** 0.0
28 C28291 6.0625 64.963 75.0291 C.2 0.0 **** -0.1268
29 H28303 5.59494 63.6506 44.2358 H 0.0 **** 0.053
30 H28354 2.35988 60.6573 63.8795 H 0.0 **** 0.053
31 C28250 5.36475 65.4272 62.82 C.2 0.0 **** 0.0
32 H28358 0.082012 58.1549 65.5522 H 0.0 **** 0.053
33 H28388 2.12771 56.9496 47.6789 H 0.0 **** 0.053
34 C28246 9.69581 70.0287 55.4763 C.3 0.0 **** -0.106
35 C28156 4.61813 63.1747 42.3266 C.3 0.0 **** -0.106
36 C28212 1.57649 62.2597 59.0336 C.2 0.0 **** 0.0
37 H28343 0.969767 61.4978 56.4871 H 0.0 **** 0.1268
38 H28352 -0.678191 58.7015 63.1253 H 0.0 **** 0.053
39 H28369 8.15711 71.5746 55.5943 H 0.0 **** 0.053
40 H28348 -1.0241 59.3993 60.5593 H 0.0 **** 0.053
41 C28196 1.18654 59.5271 47.0216 C.3 0.0 **** -0.053
42 H28329 -0.39041 66.2167 44.1789 H 0.0 **** 0.1268
43 C28242 7.3547 68.766 54.6227 C.3 0.0 **** 0.107
44 H28392 8.90084 69.4564 67.6442 H 0.0 **** 0.1268
45 N28236 1.19498 58.1496 63.7753 N.3 0.0 **** -0.727
46 C28178 5.02592 69.5346 47.6476 C.3 0.0 **** -0.106
47 C28201 2.73899 64.288 52.9431 C.2 0.0 **** 0.0
48 C28264 4.27403 60.4232 66.153 C.3 0.0 **** -0.106
49 C28237 5.71897 67.3432 55.6112 C.2 0.0 **** 0.042
50 H28305 3.70801 63.1846 42.9471 H 0.0 **** 0.053
51 C28194 -0.287476 61.597 46.837 C.2 0.0 **** 0.0
52 H28359 1.81715 58.4421 65.743 H 0.0 **** 0.053
53 C28226 1.51294 60.6487 61.4033 C.3 0.0 **** 0.107
54 H28306 5.34513 64.1484 40.5639 H 0.0 **** 0.053
55 H28312 2.75378 66.68 40.9 H 0.0 **** 0.053
56 H28310 4.30165 65.3941 44.0855 H 0.0 **** 0.053
57 C28300 4.56103 62.3516 75.0519 C.2 0.0 **** 0.347
58 C28275 7.85252 68.0331 66.4447 C.2 0.0 **** -0.1268
59 C28232 0.638915 60.3325 62.6157 C.3 0.0 **** -0.053
60 C28289 5.98531 64.9643 70.1193 C.2 0.0 **** 0.0
61 C28252 6.59822 67.218 61.7124 C.2 0.0 **** -0.1268
62 C28192 -2.73964 61.363 46.6966 C.3 0.0 **** -0.106
63 H28383 3.30433 59.6275 46.7327 H 0.0 **** 0.053
64 H28330 -3.62344 62.7848 45.2907 H 0.0 **** 0.053
65 H28381 4.58053 60.9643 64.0565 H 0.0 **** 0.053
66 H28371 7.07553 68.321 59.3066 H 0.0 **** 0.1268
67 C28287 6.01387 64.9397 72.5901 C.2 0.0 **** 0.0
68 H28391 8.11202 68.5116 65.5005 H 0.0 **** 0.1268
69 C28158 5.03999 65.634 42.0789 C.3 0.0 **** -0.053
70 C28238 6.19896 67.7555 56.8448 C.2 0.0 **** 0.042
71 C28271 2.61205 59.0546 47.3765 C.3 0.0 **** -0.053
72 C28231 0.359883 58.799 62.764 C.3 0.0 **** 0.134
73 H28337 0.251641 59.5482 48.9691 H 0.0 **** 0.053
74 H28325 5.97272 68.5108 45.9979 H 0.0 **** 0.053
75 H28357 1.09805 60.6653 66.0622 H 0.0 **** 0.053
76 C28288 5.61594 64.3572 71.3535 C.2 0.0 **** 0.0
77 H28349 -0.189962 58.412 59.3568 H 0.0 **** 0.053
78 H28382 5.84177 61.5659 65.1309 H 0.0 **** 0.053
79 H28327 -2.48457 65.2518 45.5409 H 0.0 **** 0.053
80 C28269 4.95022 63.1098 68.9028 C.2 0.0 **** 0.0
81 O28301 5.12868 62.5533 76.1266 O.2 0.0 **** -0.419
82 O28256 6.83161 66.9458 64.0481 O.3 0.0 **** -0.0685
83 H28376 5.87707 62.1344 67.3081 H 0.0 **** 0.053
84 C28278 7.14538 66.7631 68.8822 C.2 0.0 **** 0.0
85 C28209 3.02255 63.8835 57.8661 C.2 0.0 **** 0.0
86 C28155 5.86476 63.2469 43.2393 C.3 0.0 **** 0.054
87 H28353 -0.325449 60.8438 62.4556 H 0.0 **** 0.053
88 H28317 2.94037 68.9313 44.5096 H 0.0 **** 0.053
89 H28372 7.29587 68.055 61.7567 H 0.0 **** 0.1268
90 H28328 -2.16669 64.4978 43.9997 H 0.0 **** 0.053
91 H28304 4.60664 62.2343 41.7546 H 0.0 **** 0.053
92 C28184 0.619285 65.1167 45.6925 C.2 0.0 **** 0.0
93 H28399 2.77697 61.5513 71.657 H 0.0 **** 0.053
94 C28187 -0.479612 63.0039 46.4169 C.2 0.0 **** 0.0
95 H28319 3.94545 68.0722 42.6852 H 0.0 **** 0.053
96 H28362 7.38339 69.387 53.7161 H 0.0 **** 0.053
97 C28234 0.676574 60.2209 65.1464 C.3 0.0 **** -0.106
98 H28351 -0.0977961 57.1201 61.4831 H 0.0 **** 0.053
99 C28221 4.9112 66.0039 57.9585 C.2 0.0 **** 0.0
100 C28284 8.00155 67.9155 73.7703 C.2 0.0 **** -0.1268
101 C28222 3.85908 63.9475 61.5626 C.2 0.0 **** 0.0
102 C28214 3.20572 63.6086 60.3226 C.2 0.0 **** 0.0
103 H28339 -2.05259 59.1921 48.2169 H 0.0 **** 0.053
104 H28377 2.92547 61.4385 67.558 H 0.0 **** 0.053
105 H28379 3.35846 59.9186 65.8135 H 0.0 **** 0.053
106 H28345 2.52946 60.2524 61.5855 H 0.0 **** 0.053
107 H28326 4.84289 69.7633 45.483 H 0.0 **** 0.053
108 H28398 4.05516 61.5865 70.081 H 0.0 **** 0.1268
109 C28263 3.98858 61.1513 67.4903 C.3 0.0 **** -0.106
110 C28279 6.76751 66.1619 70.112 C.2 0.0 **** 0.0
111 H28366 9.57592 68.2146 56.6379 H 0.0 **** 0.053
112 C28183 2.481 64.6476 50.4394 C.2 0.0 **** 0.0
113 H28316 1.1033 67.677 45.0074 H 0.0 **** 0.053
114 C28277 7.93913 67.9554 68.888 C.2 0.0 **** 0.0
115 C28193 -1.37156 60.8011 46.9963 C.2 0.0 **** 0.0
116 H28402 1.97562 62.1922 73.9008 H 0.0 **** 0.053
117 C28241 7.18586 69.6669 55.8346 C.3 0.0 **** 0.107
118 H28360 2.17767 58.2722 63.5278 H 0.0 **** 0.353
119 C28299 3.56456 61.2014 74.9776 C.3 0.0 **** -0.086
120 H28370 8.47016 70.7617 57.1334 H 0.0 **** 0.053
121 H28340 -1.52487 58.6978 46.6136 H 0.0 **** 0.053
122 H28395 8.30437 68.3571 74.7218 H 0.0 **** 0.1268
123 O28240 7.06692 68.8126 56.9929 O.3 0.0 **** -0.202
124 C28230 0.457761 58.0659 61.4227 C.3 0.0 **** -0.106
125 C28283 8.3725 68.4929 72.5849 C.2 0.0 **** -0.1268
126 C28259 4.02494 62.7396 65.1744 C.3 0.0 **** -0.053
127 H28341 0.200942 62.5803 48.9257 H 0.0 **** 0.1268
128 C28159 6.4817 65.4379 42.6156 C.3 0.0 **** 0.054
129 H28320 2.66418 65.0759 45.2129 H 0.0 **** 0.053
130 C28267 6.71195 66.2039 67.6479 C.2 0.0 **** 0.0
131 C28174 2.77533 65.4708 49.3457 C.2 0.0 **** 0.0
132 O28225 1.62483 62.0998 61.3747 O.3 0.0 **** -0.202
133 H28385 2.38985 58.6996 49.515 H 0.0 **** 0.053
134 C28167 3.2379 67.89 44.7384 C.3 0.0 **** -0.053
135 H28364 8.97229 67.6814 53.7008 H 0.0 **** 0.053
136 C28219 4.7681 66.2687 55.4924 C.2 0.0 **** 0.0
137 C28168 4.18834 67.4738 43.5775 C.3 0.0 **** -0.106
138 C28189 -1.72392 64.6426 45.0046 C.3 0.0 **** -0.106
139 C28276 8.28541 68.5551 67.6318 C.2 0.0 **** -0.1268
140 C28213 2.16256 62.6397 60.2262 C.2 0.0 **** 0.042
141 H28403 4.16471 60.2764 74.8946 H 0.0 **** 0.053
142 C28224 5.10446 65.7395 60.3946 C.2 0.0 **** 0.0
143 C28177 5.16779 68.3955 48.6577 C.3 0.0 **** -0.106
144 C28157 4.59596 64.3608 41.3405 C.3 0.0 **** -0.053
145 C28223 4.77223 65.0437 61.5843 C.2 0.0 **** 0.0
146 C28161 4.04719 66.0012 43.202 C.3 0.0 **** -0.053
147 C28171 2.50912 66.1221 46.9999 C.2 0.0 **** 0.0
148 H28387 2.56817 57.3563 46.0015 H 0.0 **** 0.053
149 H28365 10.7013 68.1055 55.2731 H 0.0 **** 0.053
150 C28229 -0.0440183 58.9689 60.291 C.3 0.0 **** -0.106
151 H28311 2.25887 64.7327 43.1948 H 0.0 **** 0.053
152 H28361 6.24533 70.234 55.7348 H 0.0 **** 0.053
153 C28172 1.95395 65.8207 45.626 C.3 0.0 **** -0.053
154 C28245 9.72336 68.5 55.5858 C.3 0.0 **** -0.106
155 C28210 2.05565 62.8155 57.8104 C.2 0.0 **** 0.0
156 C28290 5.64994 64.3265 73.8256 C.2 0.0 **** 0.0
157 C28175 3.72918 66.5247 49.4818 C.2 0.0 **** 0.232
158 H28338 0.204133 57.958 48.1821 H 0.0 **** 0.053
159 H28393 8.94144 69.4167 70.1133 H 0.0 **** 0.1268
160 C28258 5.67767 65.1829 65.2406 C.2 0.0 **** 0.0
161 C28207 3.2882 64.7368 54.1962 C.2 0.0 **** 0.0
162 C28176 4.11617 67.3353 48.4508 C.2 0.0 **** 0.0
163 C28198 -1.27459 59.375 47.4534 C.3 0.0 **** -0.106
164 C28190 -0.441991 65.4101 44.9083 C.2 0.0 **** -0.1268
165 O28274 -0.243725 60.7577 58.1045 O.3 0.0 **** -0.57
166 C28179 4.98717 68.9629 46.2283 C.3 0.0 **** -0.106
167 C28202 1.85647 63.149 52.9531 C.2 0.0 **** -0.012
168 C28186 1.21744 64.184 47.8768 C.2 0.0 **** 0.0
169 C28217 4.50839 66.4599 52.9982 C.2 0.0 **** -0.1268
170 C28218 4.37464 65.6103 56.6959 C.2 0.0 **** 0.0
171 C28163 2.40638 65.7107 41.2925 C.3 0.0 **** -0.106
172 C28185 0.509631 64.0471 46.681 C.2 0.0 **** 0.0
173 C28295 4.84752 63.1207 73.8027 C.2 0.0 **** 0.052
174 C28215 3.57783 64.2741 59.1209 C.2 0.0 **** 0.0
175 O28243 6.15969 67.9755 54.4701 O.3 0.0 **** -0.202
176 H28332 -3.45687 60.5446 46.5278 H 0.0 **** 0.053
177 C28211 1.61428 62.3686 56.5552 C.2 0.0 **** -0.1268
178 H28350 1.51325 57.7996 61.2325 H 0.0 **** 0.053
179 C28173 2.16765 65.2865 48.049 C.2 0.0 **** 0.0
180 C28292 6.81162 66.1209 75.0105 C.2 0.0 **** -0.1268
181 C28170 3.50706 67.1514 47.1478 C.2 0.0 **** 0.0
182 C28294 4.83492 63.1689 71.3448 C.2 0.0 **** 0.0
183 H28356 -0.407398 60.4171 65.1668 H 0.0 **** 0.053
184 H28378 4.19192 60.4761 68.3336 H 0.0 **** 0.053
185 C28297 3.443 61.429 72.5226 C.3 0.0 **** -0.106
186 C28199 1.55993 63.5683 50.2301 C.2 0.0 **** -0.012
187 H28396 5.78471 64.5104 75.975 H 0.0 **** 0.1268
188 C28247 8.38124 70.5979 56.0484 C.3 0.0 **** -0.106
189 C28257 6.51759 66.3096 65.2271 C.2 0.0 **** 0.0265
190 H28344 5.18337 67.3017 52.95 H 0.0 **** 0.1268
191 H28397 7.10893 66.5871 75.9523 H 0.0 **** 0.1268
192 O28180 4.34034 66.7388 50.7024 O.3 0.0 **** -0.464
193 C28188 -1.57992 63.3134 45.6708 C.2 0.0 **** 0.0
194 C28272 2.98174 59.3356 48.8388 C.3 0.0 **** -0.159
195 C28208 3.43486 64.5278 56.6594 C.2 0.0 **** 0.0
196 C28268 7.03894 66.8536 66.4163 C.2 0.0 **** 0.0
197 C28260 4.36991 63.43 66.5142 C.3 0.0 **** -0.053
198 C28293 4.55604 62.5507 70.0977 C.2 0.0 **** -0.1268
199 C28166 1.9507 67.047 44.6995 C.3 0.0 **** 0.107
200 H28322 6.16908 67.9381 48.5457 H 0.0 **** 0.053
201 C28200 0.948641 63.3679 49.0168 C.2 0.0 **** -0.1268
202 H28334 1.66866 61.3882 46.0158 H 0.0 **** 0.053
203 H28368 10.552 70.4777 56.0008 H 0.0 **** 0.053
204 C28205 2.01339 62.9896 55.3758 C.2 0.0 **** 0.0
205 C28248 6.03626 66.8279 60.4565 C.2 0.0 **** 0.0
206 H28363 8.30453 66.9032 55.1423 H 0.0 **** 0.053
207 H28386 2.80314 60.3834 49.1247 H 0.0 **** 0.053
208 C28261 5.37592 64.5483 66.4485 C.2 0.0 **** 0.0
209 H28346 1.82024 59.6757 59.4909 H 0.0 **** 0.053
210 C28197 0.112732 59.04 48.0009 C.3 0.0 **** -0.106
211 H28384 4.0442 59.1119 49.0174 H 0.0 **** 0.053
212 C28273 2.79625 57.5673 47.0582 C.3 0.0 **** -0.159
213 C28296 4.39908 62.5996 72.5815 C.2 0.0 **** 0.0
214 H28309 7.21927 65.9312 41.9671 H 0.0 **** 0.053
215 C28206 2.91681 64.0959 55.4102 C.2 0.0 **** 0.0
216 H28336 0.93709 59.107 46.0293 H 0.0 **** 0.053
217 C28239 5.83804 67.0869 58.0431 C.2 0.0 **** 0.0
218 H28347 -0.312764 61.7913 59.897 H 0.0 **** 0.053
219 H28333 -3.10839 61.9415 47.5655 H 0.0 **** 0.053
220 O28165 1.6772 66.7149 43.3277 O.3 0.0 **** -0.32
221 H28394 8.97985 69.3998 72.5719 H 0.0 **** 0.1268
222 H28314 3.33771 64.7474 39.5941 H 0.0 **** 0.053
223 H28375 3.43705 63.8827 66.9055 H 0.0 **** 0.053
224 C28251 6.26385 66.5378 62.8506 C.2 0.0 **** 0.042
225 H28331 -2.43357 61.6851 44.5719 H 0.0 **** 0.053
226 C28228 0.429887 61.2776 59.2521 C.3 0.0 **** 0.107
227 C28169 3.89995 67.9367 46.0757 C.2 0.0 **** 0.0
228 C28254 4.26176 63.5977 63.96 C.2 0.0 **** 0.0
229 H28367 9.79379 70.3126 54.4144 H 0.0 **** 0.053
230 H28335 1.66583 61.5041 47.7597 H 0.0 **** 0.053
231 H28380 5.03126 59.6396 66.3096 H 0.0 **** 0.053
232 H28355 1.18441 61.9698 63.9394 H 0.0 **** 0.053
233 H28321 5.12045 68.7735 49.6891 H 0.0 **** 0.053
234 H28404 3.05189 61.1567 75.949 H 0.0 **** 0.053
235 C28182 3.05386 64.9508 51.7293 C.2 0.0 **** 0.0
236 O28160 6.88736 64.0644 42.6598 O.3 0.0 **** -0.32
237 H28342 0.838392 61.6724 54.125 H 0.0 **** 0.1268
238 C28235 0.944759 58.6898 65.1202 C.3 0.0 **** 0.081
239 H28302 6.3171 62.2568 43.3869 H 0.0 **** 0.053
240 C28270 5.60104 64.3749 68.8971 C.2 0.0 **** 0.0
241 C28280 7.17372 66.737 71.3391 C.2 0.0 **** 0.0
242 C28195 1.12101 61.0549 46.9154 C.3 0.0 **** -0.106
243 C28220 4.53719 65.3401 59.1558 C.2 0.0 **** 0.0
244 H28373 3.02193 62.3744 62.76 H 0.0 **** 0.1268
245 C28164 3.21186 64.5556 40.6702 C.3 0.0 **** -0.106
246 C28181 3.95083 66.0311 51.8135 C.2 0.0 **** 0.232
247 C28262 4.83772 62.4144 67.5738 C.3 0.0 **** -0.053
248 H28313 1.34023 65.6239 41.0385 H 0.0 **** 0.053
249 C28286 6.79579 66.1343 72.5753 C.2 0.0 **** 0.0
250 H28324 4.08806 70.0799 47.8414 H 0.0 **** 0.053
@<TRIPOS>BOND
1 102 101 un
2 142 145 un
3 188 39 1
4 85 174 un
5 57 81 2
6 164 42 1
7 13 232 1
8 155 36 un
9 144 35 1
10 69 144 1
11 128 69 1
12 236 128 1
13 86 35 1
14 86 236 1
15 17 146 1
16 171 17 1
17 245 171 1
18 69 146 1
19 144 245 1
20 199 220 1
21 134 199 1
22 137 134 1
23 17 220 1
24 146 137 1
25 181 227 un
26 147 181 un
27 153 147 un
28 134 227 1
29 199 153 1
30 131 179 1
31 157 131 un
32 162 157 un
33 147 179 un
34 181 162 un
35 46 143 1
36 166 46 1
37 227 166 1
38 162 143 1
39 246 192 1
40 235 246 un
41 112 235 un
42 157 192 1
43 131 112 un
44 172 92 un
45 168 172 2
46 153 92 1
47 179 168 un
48 193 94 2
49 138 193 1
50 164 138 1
51 172 94 1
52 92 164 2
53 62 24 1
54 115 62 1
55 51 115 2
56 193 24 1
57 94 51 1
58 41 242 1
59 210 41 1
60 163 210 1
61 51 242 1
62 115 163 1
63 201 186 un
64 168 201 un
65 112 186 un
66 167 47 un
67 9 167 1
68 186 9 un
69 235 47 un
70 204 15 un
71 215 204 un
72 161 215 un
73 167 15 un
74 47 161 un
75 85 195 un
76 155 85 un
77 177 155 un
78 215 195 un
79 204 177 un
80 140 36 un
81 102 140 un
82 174 102 un
83 169 27 un
84 246 169 un
85 161 27 un
86 136 170 un
87 27 136 un
88 195 170 un
89 99 243 un
90 170 99 un
91 174 243 un
92 145 101 un
93 243 142 un
94 53 132 1
95 25 53 1
96 226 25 1
97 140 132 1
98 36 226 1
99 124 150 1
100 72 124 1
101 59 72 1
102 25 150 1
103 53 59 1
104 97 13 1
105 238 97 1
106 45 238 1
107 59 13 1
108 72 45 1
109 70 49 un
110 217 70 un
111 99 217 un
112 136 49 un
113 117 123 1
114 43 117 1
115 175 43 1
116 70 123 1
117 49 175 1
118 154 10 1
119 34 154 1
120 188 34 1
121 43 10 1
122 117 188 1
123 12 205 un
124 217 12 un
125 142 205 un
126 224 31 un
127 61 224 un
128 205 61 un
129 145 31 un
130 228 4 un
131 20 228 un
132 101 20 un
133 31 4 un
134 189 82 1
135 160 189 un
136 224 82 1
137 4 160 1
138 197 126 1
139 208 197 1
140 228 126 1
141 160 208 un
142 109 247 1
143 48 109 1
144 6 48 1
145 197 247 1
146 126 6 1
147 130 16 1
148 196 130 1
149 189 196 un
150 208 16 un
151 247 80 1
152 16 240 un
153 80 240 un
154 41 71 1
155 71 194 1
156 71 212 1
157 226 165 1
158 139 58 1
159 114 139 un
160 84 114 1
161 196 58 un
162 130 84 un
163 241 110 un
164 19 241 1
165 3 19 un
166 84 110 un
167 114 3 un
168 100 125 un
169 21 100 1
170 249 21 1
171 19 125 un
172 241 249 un
173 76 67 un
174 60 76 un
175 110 60 un
176 249 67 un
177 28 156 un
178 180 28 un
179 21 180 un
180 67 156 un
181 182 198 un
182 76 182 un
183 240 60 un
184 80 198 un
185 213 173 un
186 182 213 un
187 156 173 un
188 11 185 1
189 119 11 1
190 57 119 1
191 213 185 1
192 173 57 1
193 86 239 1
194 86 29 1
195 35 91 1
196 35 50 1
197 144 54 1
198 69 2 1
199 128 22 1
200 128 214 1
201 146 56 1
202 17 151 1
203 171 55 1
204 171 248 1
205 245 222 1
206 245 14 1
207 199 113 1
208 134 88 1
209 137 26 1
210 137 95 1
211 153 129 1
212 143 233 1
213 143 200 1
214 46 5 1
215 46 250 1
216 166 74 1
217 166 107 1
218 138 79 1
219 138 90 1
220 24 64 1
221 24 225 1
222 62 176 1
223 62 219 1
224 242 202 1
225 242 230 1
226 41 216 1
227 210 73 1
228 210 158 1
229 163 103 1
230 163 121 1
231 201 127 1
232 15 237 1
233 177 37 1
234 169 190 1
235 53 106 1
236 25 209 1
237 226 218 1
238 150 40 1
239 150 77 1
240 124 178 1
241 124 98 1
242 72 38 1
243 59 87 1
244 13 30 1
245 97 183 1
246 97 75 1
247 238 32 1
248 238 52 1
249 45 118 1
250 117 152 1
251 43 96 1
252 10 206 1
253 10 135 1
254 154 149 1
255 154 111 1
256 34 229 1
257 34 203 1
258 188 120 1
259 12 66 1
260 61 89 1
261 20 244 1
262 126 18 1
263 197 223 1
264 247 83 1
265 109 104 1
266 109 184 1
267 48 105 1
268 48 231 1
269 6 65 1
270 6 78 1
271 71 63 1
272 194 211 1
273 194 133 1
274 194 207 1
275 212 148 1
276 212 33 1
277 212 8 1
278 165 1 1
279 58 68 1
280 139 44 1
281 3 159 1
282 125 221 1
283 100 122 1
284 28 187 1
285 180 191 1
286 198 108 1
287 185 93 1
288 185 7 1
289 11 23 1
290 11 116 1
291 119 141 1
292 119 234 1
@<TRIPOS>MOLECULE
Sketch 4
130 142
SMALL
USER_CHARGES


@<TRIPOS>ATOM
1 C7041 28.4101 15.5428 39.9579 C.ar 0.0 **** 0.0
2 C7065 20.9889 16.1859 48.5213 C.3 0.0 **** -0.106
3 H7133 33.2819 16.2217 35.1676 H 0.0 **** 0.053
4 H7130 34.5679 19.5273 34.3739 H 0.0 **** 0.053
5 H7107 20.8264 18.2939 48.1118 H 0.0 **** 0.053
6 C7082 30.5728 11.3507 36.8489 C.3 0.0 **** -0.159
7 H7110 21.7 15.4868 48.9959 H 0.0 **** 0.053
8 O7081 31.0166 16.2153 35.6971 O.3 0.0 **** -0.452
9 H7099 29.3782 13.5343 36.4594 H 0.0 **** 0.053
10 H7115 20.2364 12.8803 41.6989 H 0.0 **** 0.1268
11 H7145 19.1158 11.9271 46.9096 H 0.0 **** 0.053
12 H7094 30.9855 18.7625 40.2203 H 0.0 **** 0.1268
13 C7054 27.3049 18.266 43.0743 C.2 0.0 **** 0.367
14 C7038 31.191 16.7123 36.9694 C.ar 0.0 **** 0.042
15 H7147 17.7684 12.9546 46.403 H 0.0 **** 0.053
16 C7039 29.7905 14.9212 38.032 C.2 0.0 **** 0.0
17 C7036 30.2278 17.0532 39.2026 C.ar 0.0 **** 0.0
18 C7070 21.176 14.1461 43.1627 C.ar 0.0 **** -0.1268
19 H7139 29.526 11.1637 36.5605 H 0.0 **** 0.053
20 H7137 30.9835 10.418 37.2594 H 0.0 **** 0.053
21 H7124 33.0389 20.2182 42.7646 H 0.0 **** 0.053
22 C7053 26.1526 17.9586 43.9086 C.ar 0.0 **** 0.0
23 H7116 34.024 23.5129 43.6742 H 0.0 **** 0.053
24 H7105 23.6608 17.2861 48.6937 H 0.0 **** 0.053
25 H7143 25.6945 14.3356 41.2658 H 0.0 **** 0.41
26 H7117 35.5374 24.2967 43.2813 H 0.0 **** 0.053
27 C7080 33.3765 17.2898 34.9387 C.3 0.0 **** -0.159
28 C7072 19.3923 12.5591 43.6541 C.ar 0.0 **** 0.0
29 H7148 18.6265 10.5285 43.6243 H 0.0 **** 0.053
30 C7030 34.8508 21.0427 37.9419 C.3 0.0 **** -0.106
31 H7095 27.8917 12.87 39.9334 H 0.0 **** 0.053
32 H7120 35.8216 22.8856 45.3272 H 0.0 **** 0.053
33 C7026 35.0021 22.7004 41.9365 C.ar 0.0 **** 0.0
34 H7134 34.3841 17.4593 34.5425 H 0.0 **** 0.053
35 H7128 37.8431 22.381 38.6817 H 0.0 **** 0.053
36 C7033 32.1434 17.7458 37.1482 C.ar 0.0 **** 0.0
37 C7029 33.8826 19.9161 37.6907 C.ar 0.0 **** 0.0
38 C7050 27.2261 15.3144 40.759 C.ar 0.0 **** 0.042
39 C7048 27.656 17.3571 42.0183 C.ar 0.0 **** 0.052
40 C7061 22.0557 16.131 46.2378 C.ar 0.0 **** 0.0
41 C7063 22.9129 17.7264 48.0098 C.3 0.0 **** -0.106
42 H7122 37.4024 23.8515 42.4175 H 0.0 **** 0.053
43 C7037 30.391 16.2231 38.032 C.ar 0.0 **** 0.0
44 H7109 20.0255 16.0752 49.0437 H 0.0 **** 0.053
45 C7047 28.772 17.6415 41.1954 C.ar 0.0 **** 0.042
46 H7090 32.9211 19.42 40.7775 H 0.0 **** 0.053
47 H7126 33.0546 21.7939 43.5711 H 0.0 **** 0.053
48 H7123 36.8598 25.0289 41.2087 H 0.0 **** 0.053
49 C7079 34.9328 19.7039 35.3936 C.3 0.0 **** -0.159
50 H7098 31.7145 12.6272 38.141 H 0.0 **** 0.053
51 C7055 25.8123 18.9289 45.0021 C.3 0.0 **** -0.106
52 C7066 20.8244 15.8044 47.0507 C.3 0.0 **** -0.053
53 H7129 37.1948 24.0274 38.7649 H 0.0 **** 0.053
54 H7102 25.0423 19.6268 44.6227 H 0.0 **** 0.053
55 C7021 35.984 23.0458 40.982 C.ar 0.0 **** 0.0
56 H7150 17.3897 11.7694 43.3723 H 0.0 **** 0.053
57 H7138 31.1326 11.5969 35.9334 H 0.0 **** 0.053
58 H7146 18.0276 11.3864 45.6147 H 0.0 **** 0.053
59 H7091 31.9162 20.6728 40.1123 H 0.0 **** 0.053
60 C7062 23.0322 17.0423 46.6649 C.ar 0.0 **** 0.0
61 H7119 35.2637 21.4477 44.4272 H 0.0 **** 0.053
62 H7144 28.9447 19.2063 42.2631 H 0.0 **** 0.41
63 C7058 24.194 16.6235 44.5784 C.ar 0.0 **** 0.2405
64 N7059 23.2352 15.7843 44.162 N.ar 0.0 **** -0.481
65 H7111 19.9935 16.4075 46.6321 H 0.0 **** 0.053
66 C7067 20.4407 14.3332 46.8816 C.3 0.0 **** -0.106
67 C7023 34.9071 21.6021 39.3422 C.ar 0.0 **** 0.0
68 C7027 32.9112 20.2003 39.9966 C.3 0.0 **** -0.106
69 H7103 24.9661 18.9106 46.9903 H 0.0 **** 0.053
70 H7093 35.86 20.7102 37.6451 H 0.0 **** 0.053
71 H7113 19.4957 14.1524 47.4124 H 0.0 **** 0.053
72 H7097 30.4016 12.7394 39.9749 H 0.0 **** 0.053
73 C7051 25.7123 15.9032 42.616 C.2 0.0 **** 0.367
74 C7069 21.2145 14.533 44.5091 C.ar 0.0 **** 0.0
75 C7022 35.9128 22.5314 39.6742 C.ar 0.0 **** 0.0
76 C7076 37.1234 23.9677 41.3622 C.3 0.0 **** -0.159
77 H7114 21.8794 14.6034 42.4669 H 0.0 **** 0.1268
78 C7035 31.0908 18.138 39.3483 C.ar 0.0 **** -0.1268
79 H7135 32.6506 17.5041 34.1387 H 0.0 **** 0.053
80 H7121 38.0205 23.7652 40.7635 H 0.0 **** 0.053
81 H7125 31.945 21.4845 42.2167 H 0.0 **** 0.053
82 H7108 21.5576 17.9417 49.6863 H 0.0 **** 0.053
83 C7032 33.1312 18.1259 36.1751 C.ar 0.0 **** 0.0
84 C7040 28.8551 14.5728 38.9971 C.2 0.0 **** 0.0
85 C7089 18.4364 11.506 43.1513 C.3 0.0 **** -0.159
86 C7042 29.1519 16.7485 40.127 C.ar 0.0 **** 0.0
87 H7092 34.6222 21.8682 37.2394 H 0.0 **** 0.053
88 H7141 30.4926 10.26 39.5691 H 0.0 **** 0.053
89 C7024 33.9764 21.2104 40.3072 C.ar 0.0 **** 0.0
90 C7046 30.2299 13.8047 37.1133 C.3 0.0 **** -0.106
91 C7052 25.3641 16.8442 43.7012 C.ar 0.0 **** 0.0
92 H7136 30.1813 15.7217 35.6781 H 0.0 **** 0.41
93 H7100 31.059 14.0983 36.4625 H 0.0 **** 0.053
94 O7087 25.0427 14.8451 42.3949 O.2 0.0 **** -0.419
95 C7064 21.5187 17.6144 48.6363 C.3 0.0 **** -0.106
96 C7073 19.4367 12.9295 45.0149 C.ar 0.0 **** 0.0
97 C7075 35.7755 22.4169 44.3319 C.3 0.0 **** -0.159
98 C7088 18.5413 12.2601 46.0318 C.3 0.0 **** -0.159
99 C7057 24.1361 17.2836 45.8306 C.ar 0.0 **** 0.0
100 C7025 34.0075 21.7632 41.6033 C.ar 0.0 **** 0.0
101 H7112 21.2046 13.708 47.3836 H 0.0 **** 0.053
102 C7028 32.9823 19.5274 38.6573 C.ar 0.0 **** 0.0
103 C7044 29.8274 12.2994 39.143 C.ar 0.0 **** -0.053
104 O7086 27.9763 19.3392 43.2861 O.2 0.0 **** -0.419
105 H7142 28.9222 10.3513 38.7387 H 0.0 **** 0.053
106 C7078 36.913 22.9744 38.6301 C.3 0.0 **** -0.159
107 H7118 36.8037 22.2139 43.9953 H 0.0 **** 0.053
108 H7140 29.0383 10.7668 40.4639 H 0.0 **** 0.053
109 C7043 28.5133 13.1025 39.0685 C.3 0.0 **** -0.106
110 C7077 32.9647 21.3052 42.5956 C.3 0.0 **** -0.159
111 C7074 35.0463 23.3147 43.3198 C.3 0.0 **** -0.106
112 H7106 23.1881 18.7881 47.9131 H 0.0 **** 0.053
113 C7083 29.557 10.8349 39.4961 C.3 0.0 **** -0.159
114 C7056 25.273 18.1891 46.2231 C.3 0.0 **** -0.106
115 C7049 26.8724 16.2005 41.7981 C.ar 0.0 **** 0.052
116 H7132 35.1305 20.7785 35.4895 H 0.0 **** 0.053
117 H7127 36.5182 22.8676 37.6121 H 0.0 **** 0.053
118 C7034 32.0751 18.4538 38.3995 C.ar 0.0 **** 0.0
119 H7131 35.9041 19.1876 35.4915 H 0.0 **** 0.053
120 H7149 18.5356 11.3796 42.0647 H 0.0 **** 0.053
121 C7068 20.3362 13.928 45.4322 C.ar 0.0 **** 0.0
122 H7104 26.0839 17.5826 46.6691 H 0.0 **** 0.053
123 C7031 33.9403 19.2283 36.4312 C.ar 0.0 **** 0.0
124 H7101 26.6945 19.5346 45.245 H 0.0 **** 0.053
125 C7071 20.268 13.1794 42.7489 C.ar 0.0 **** -0.1268
126 C7045 30.6589 12.5067 37.8507 C.ar 0.0 **** -0.053
127 H7096 27.9431 12.7865 38.1752 H 0.0 **** 0.053
128 C7060 22.2074 15.5187 44.9753 C.ar 0.0 **** 0.2405
129 O7085 29.4512 18.7586 41.4419 O.3 0.0 **** -0.452
130 O7084 26.4368 14.2797 40.4982 O.3 0.0 **** -0.452
@<TRIPOS>BOND
1 67 75 am
2 89 67 am
3 100 89 am
4 33 100 am
5 55 75 am
6 55 33 am
7 102 68 1
8 37 102 am
9 30 37 1
10 89 68 1
11 67 30 1
12 83 123 am
13 36 83 am
14 118 36 am
15 37 123 am
16 102 118 am
17 17 78 am
18 43 17 am
19 14 43 am
20 118 78 am
21 36 14 am
22 84 16 1
23 1 84 1
24 86 1 am
25 43 16 1
26 17 86 am
27 103 109 1
28 126 103 am
29 90 126 1
30 84 109 1
31 16 90 1
32 39 45 am
33 115 39 am
34 38 115 am
35 86 45 am
36 1 38 am
37 91 73 1
38 22 91 am
39 13 22 1
40 115 73 1
41 39 13 1
42 114 51 1
43 99 114 1
44 63 99 am
45 22 51 1
46 91 63 am
47 128 64 am
48 40 128 am
49 60 40 am
50 63 64 am
51 99 60 am
52 95 41 1
53 2 95 1
54 52 2 1
55 60 41 1
56 40 52 1
57 121 66 1
58 74 121 am
59 128 74 am
60 52 66 1
61 125 18 am
62 28 125 am
63 96 28 am
64 74 18 am
65 121 96 am
66 33 111 1
67 111 97 1
68 55 76 1
69 100 110 1
70 75 106 1
71 123 49 1
72 83 27 1
73 14 8 1
74 126 6 1
75 103 113 1
76 38 130 1
77 45 129 1
78 13 104 2
79 73 94 2
80 96 98 1
81 28 85 1
82 68 46 1
83 68 59 1
84 30 87 1
85 30 70 1
86 78 12 1
87 109 31 1
88 109 127 1
89 103 72 1
90 126 50 1
91 90 9 1
92 90 93 1
93 51 124 1
94 51 54 1
95 114 69 1
96 114 122 1
97 41 24 1
98 41 112 1
99 95 5 1
100 95 82 1
101 2 44 1
102 2 7 1
103 52 65 1
104 66 101 1
105 66 71 1
106 18 77 1
107 125 10 1
108 111 23 1
109 111 26 1
110 97 107 1
111 97 61 1
112 97 32 1
113 76 80 1
114 76 42 1
115 76 48 1
116 110 21 1
117 110 81 1
118 110 47 1
119 106 117 1
120 106 35 1
121 106 53 1
122 49 4 1
123 49 119 1
124 49 116 1
125 27 3 1
126 27 34 1
127 27 79 1
128 8 92 1
129 6 20 1
130 6 57 1
131 6 19 1
132 113 108 1
133 113 88 1
134 113 105 1
135 130 25 1
136 129 62 1
137 98 11 1
138 98 58 1
139 98 15 1
140 85 29 1
141 85 120 1
142 85 56 1
@<TRIPOS>MOLECULE
Sketch 4
250 292
SMALL
USER_CHARGES


@<TRIPOS>ATOM
1 H12824 17.9898 47.4724 16.4802 H 0.0 **** 0.053
2 H12889 9.27935 56.556 13.8744 H 0.0 **** 0.053
3 H12883 10.3107 54.295 14.1176 H 0.0 **** 0.053
4 C12676 16.6874 49.8356 15.6898 C.2 0.0 **** 0.0
5 C12732 21.9824 61.0074 5.25284 C.3 0.0 **** -0.053
6 C12682 17.3714 52.8784 12.8904 C.2 0.0 **** 0.0
7 C12711 18.9978 56.723 9.06895 C.2 0.0 **** -0.1268
8 C12669 15.2706 48.0509 16.6156 C.2 0.0 **** 0.0
9 C12778 32.0613 62.2735 9.69913 C.2 0.0 **** 0.0
10 C12677 17.7331 49.601 16.7501 C.3 0.0 **** -0.106
11 C12757 28.9373 60.4237 10.5814 C.2 0.0 **** 0.0265
12 C12741 24.2704 53.2807 15.7905 C.3 0.0 **** 0.107
13 C12712 20.7554 58.0909 7.9756 C.2 0.0 **** 0.0
14 C12784 36.5924 64.3504 8.64534 C.2 0.0 **** -0.1268
15 C12785 35.691 64.9107 7.68935 C.2 0.0 **** 0.0
16 C12738 23.5933 54.8123 14.1041 C.2 0.0 **** 0.042
17 H12845 21.5512 61.3179 7.34077 H 0.0 **** 0.053
18 H12849 18.1708 60.367 5.49187 H 0.0 **** 0.053
19 H12806 9.05421 48.5619 19.429 H 0.0 **** 0.053
20 H12866 24.4182 55.7803 17.2727 H 0.0 **** 0.053
21 C12789 31.5893 63.7685 7.78752 C.2 0.0 **** 0.0
22 H12863 22.2129 55.4309 16.5062 H 0.0 **** 0.053
23 H12837 11.2975 54.2491 10.4638 H 0.0 **** 0.053
24 C12699 15.0727 52.4864 11.914 C.2 0.0 **** -0.012
25 H12852 21.0476 61.9297 3.5411 H 0.0 **** 0.053
26 H12880 25.1627 65.3049 7.4516 H 0.0 **** 0.053
27 O12660 10.8645 50.3731 19.8991 O.3 0.0 **** -0.32
28 H12844 20.2131 52.674 14.7435 H 0.0 **** 0.1268
29 C12749 25.2563 56.3637 13.1889 C.2 0.0 **** -0.1268
30 H12817 14.5543 46.0889 16.6252 H 0.0 **** 0.053
31 C12721 23.0345 56.1538 12.1408 C.2 0.0 **** 0.0
32 C12753 26.7268 60.3561 9.51002 C.2 0.0 **** 0.0
33 C12742 22.8299 53.3809 16.2634 C.3 0.0 **** 0.107
34 C12709 21.2246 56.882 10.0755 C.2 0.0 **** 0.0
35 H12820 12.548 49.1957 15.2994 H 0.0 **** 0.053
36 H12834 10.5772 51.929 13.3297 H 0.0 **** 0.053
37 C12662 11.1576 47.4122 16.3569 C.3 0.0 **** 0.107
38 H12838 9.68597 54.992 10.4267 H 0.0 **** 0.053
39 H12856 23.7136 61.8473 3.27613 H 0.0 **** 0.053
40 H12857 24.8405 62.766 4.28404 H 0.0 **** 0.053
41 C12728 20.0555 58.4516 6.66907 C.3 0.0 **** 0.107
42 C12718 21.7387 55.5561 12.1143 C.2 0.0 **** 0.0
43 C12780 33.8694 63.5967 8.69021 C.2 0.0 **** 0.0
44 H12804 8.55947 50.2945 17.8863 H 0.0 **** 0.053
45 C12659 11.6299 49.1634 19.8389 C.3 0.0 **** 0.054
46 H12832 9.37775 50.6725 8.40761 H 0.0 **** 0.053
47 H12859 23.3248 64.5449 4.60028 H 0.0 **** 0.053
48 C12779 32.51 63.2066 8.72712 C.2 0.0 **** 0.0
49 C12719 21.3494 54.6011 13.1007 C.2 0.0 **** 0.0
50 C12655 10.5625 50.8538 18.5847 C.3 0.0 **** 0.054
51 H12839 10.0458 53.1506 8.66699 H 0.0 **** 0.053
52 C12681 18.3078 52.4995 13.8693 C.2 0.0 **** 0.232
53 C12766 29.788 62.3974 8.76947 C.2 0.0 **** 0.0
54 C12798 31.2803 66.9989 2.51825 C.3 0.0 **** -0.106
55 H12898 29.0052 65.4381 5.40615 H 0.0 **** 0.1268
56 C12658 11.0664 48.1313 18.8279 C.3 0.0 **** -0.053
57 C12797 30.588 66.5818 3.81004 C.3 0.0 **** -0.106
58 C12661 11.9322 48.0337 17.5541 C.3 0.0 **** -0.053
59 C12781 34.7905 63.0497 9.64099 C.2 0.0 **** 0.0
60 H12813 9.54047 46.0397 15.9875 H 0.0 **** 0.053
61 C12729 19.249 60.5074 5.34354 C.3 0.0 **** -0.106
62 H12892 33.2264 60.366 12.3205 H 0.0 **** 0.1268
63 H12825 16.0007 48.4546 18.5996 H 0.0 **** 0.053
64 C12717 19.5726 53.0391 13.9542 C.2 0.0 **** -0.1268
65 C12666 13.2867 47.1679 15.2853 C.3 0.0 **** 0.107
66 H12847 20.7119 58.0991 5.84671 H 0.0 **** 0.053
67 C12686 13.6557 50.6496 12.7219 C.2 0.0 **** 0.0
68 H12842 16.5952 55.6347 9.2578 H 0.0 **** 0.1268
69 H12867 24.1608 53.1501 18.8246 H 0.0 **** 0.053
70 C12768 30.272 60.8652 10.6559 C.2 0.0 **** 0.0
71 H12843 18.2587 57.0611 8.34943 H 0.0 **** 0.1268
72 C12668 13.1827 47.2007 17.8223 C.3 0.0 **** -0.106
73 C12678 17.6866 48.1674 17.28 C.3 0.0 **** -0.106
74 H12885 11.5908 56.061 11.9541 H 0.0 **** 0.053
75 C12713 22.0006 58.6828 8.07244 C.2 0.0 **** 0.042
76 H12821 18.7295 49.8438 16.3535 H 0.0 **** 0.053
77 C12672 13.1874 48.5639 14.65 C.3 0.0 **** -0.053
78 C12692 10.1725 50.4565 9.13865 C.3 0.0 **** -0.106
79 H12904 32.8711 68.421 1.97377 H 0.0 **** 0.053
80 H12894 36.8546 63.0323 10.3157 H 0.0 **** 0.1268
81 C12800 33.2785 67.6981 3.92869 C.2 0.0 **** 0.347
82 H12827 11.8611 47.0783 10.6419 H 0.0 **** 0.053
83 C12787 33.4088 65.098 6.77324 C.2 0.0 **** 0.0
84 C12723 25.0754 58.7127 10.3038 C.2 0.0 **** 0.0
85 H12864 21.7796 54.3772 17.8595 H 0.0 **** 0.053
86 H12868 25.5947 54.1802 18.8651 H 0.0 **** 0.053
87 H12826 16.1935 46.7832 18.071 H 0.0 **** 0.053
88 C12688 10.898 48.9604 10.9924 C.2 0.0 **** 0.0
89 H12893 35.0373 61.7108 11.3146 H 0.0 **** 0.1268
90 H12881 24.2523 62.9509 8.26647 H 0.0 **** 0.053
91 C12771 10.28 54.767 13.1185 C.3 0.0 **** -0.053
92 H12809 11.6154 48.7667 20.8638 H 0.0 **** 0.053
93 C12683 16.106 52.1841 12.8617 C.2 0.0 **** 0.0
94 C12674 15.8834 51.1234 13.748 C.2 0.0 **** 0.0
95 O12680 18.0175 51.555 14.8237 O.3 0.0 **** -0.464
96 C12748 25.6399 57.3296 12.2587 C.2 0.0 **** 0.0
97 C12770 30.2289 63.4008 7.83887 C.2 0.0 **** 0.0
98 H12900 29.9764 67.4221 4.18965 H 0.0 **** 0.053
99 C12657 9.61365 48.4988 18.4843 C.3 0.0 **** -0.053
100 H12835 11.9421 52.7591 12.6207 H 0.0 **** 0.053
101 H12874 25.7525 61.7353 6.6586 H 0.0 **** 0.053
102 C12715 22.5164 57.4858 10.1212 C.2 0.0 **** 0.0
103 H12816 13.7469 46.5082 14.5352 H 0.0 **** 0.053
104 H12890 18.8051 56.9875 6.3544 H 0.0 **** 0.41
105 C12691 9.87673 49.1663 9.90883 C.3 0.0 **** -0.106
106 C12694 10.923 51.3858 11.2975 C.2 0.0 **** 0.0
107 C12716 20.0245 54.0193 13.0465 C.2 0.0 **** 0.0
108 C12698 9.75529 52.94 9.71246 C.3 0.0 **** -0.106
109 C12734 23.7923 62.4365 4.2038 C.3 0.0 **** -0.106
110 H12811 10.7518 48.2184 15.7157 H 0.0 **** 0.053
111 C12714 22.9042 58.454 9.15294 C.2 0.0 **** 0.0
112 H12814 8.31369 46.7666 18.181 H 0.0 **** 0.053
113 C12791 35.2393 66.3837 5.79983 C.2 0.0 **** -0.1268
114 C12690 11.9077 47.4853 12.7466 C.2 0.0 **** -0.1268
115 C12782 34.3294 62.1292 10.5957 C.2 0.0 **** -0.1268
116 C12752 26.9336 57.9372 12.3097 C.2 0.0 **** -0.1268
117 C12730 19.6097 61.9812 5.12944 C.3 0.0 **** -0.106
118 H12819 12.8564 46.1869 18.1031 H 0.0 **** 0.053
119 C12790 33.8568 66.0487 5.80876 C.2 0.0 **** 0.0
120 H12858 22.6481 63.9292 3.08614 H 0.0 **** 0.053
121 O12725 22.396 59.4606 7.00557 O.3 0.0 **** -0.202
122 H12884 11.8216 56.1882 13.7105 H 0.0 **** 0.053
123 H12803 11.5044 50.9659 18.0111 H 0.0 **** 0.053
124 H12891 30.8739 59.6069 12.3273 H 0.0 **** 0.1268
125 C12724 24.7078 57.7116 11.2379 C.2 0.0 **** 0.0
126 C12773 9.12828 55.7774 13.1113 C.3 0.0 **** -0.159
127 C12700 13.9222 51.7402 11.8401 C.2 0.0 **** -0.1268
128 H12818 13.7339 47.6099 18.6819 H 0.0 **** 0.053
129 C12733 23.4143 61.5511 5.39008 C.3 0.0 **** -0.106
130 H12878 27.0274 65.3982 6.03219 H 0.0 **** 0.053
131 H12836 8.97692 53.3172 12.2112 H 0.0 **** 0.053
132 H12828 10.301 46.9591 11.4146 H 0.0 **** 0.053
133 C12739 23.979 55.7858 13.1466 C.2 0.0 **** 0.0
134 C12695 10.9187 52.419 12.4004 C.3 0.0 **** -0.106
135 C12687 11.4748 50.0432 11.5905 C.2 0.0 **** 0.0
136 H12871 25.956 56.0562 13.9644 H 0.0 **** 0.1268
137 C12727 20.0051 59.983 6.57031 C.3 0.0 **** -0.053
138 C12763 26.7946 64.3699 6.34314 C.3 0.0 **** -0.106
139 C12701 17.7815 53.875 11.9683 C.2 0.0 **** 0.0
140 C12769 29.2904 64.0668 7.00241 C.2 0.0 **** 0.0
141 C12737 22.3186 54.2673 14.1117 C.2 0.0 **** 0.042
142 C12664 8.96204 47.4216 17.5799 C.3 0.0 **** -0.106
143 H12876 27.6722 64.3388 8.29117 H 0.0 **** 0.053
144 H12822 17.5598 50.3006 17.5897 H 0.0 **** 0.053
145 C12760 27.6097 62.3305 7.5543 C.3 0.0 **** -0.053
146 C12693 10.3112 51.6037 10.1091 C.2 0.0 **** 0.0
147 H12848 19.5251 59.9189 4.45177 H 0.0 **** 0.053
148 C12762 27.838 63.8353 7.31738 C.3 0.0 **** -0.053
149 C12706 19.521 55.3891 11.0535 C.2 0.0 **** 0.0
150 N12736 21.5545 63.4656 4.81389 N.3 0.0 **** -0.727
151 H12853 21.9963 60.1403 4.57088 H 0.0 **** 0.053
152 H12805 9.86949 49.8416 16.7858 H 0.0 **** 0.053
153 H12903 31.7516 68.9847 3.2203 H 0.0 **** 0.053
154 C12731 21.0529 62.103 4.63087 C.3 0.0 **** 0.134
155 C12786 34.3218 64.5342 7.71517 C.2 0.0 **** 0.0
156 H12854 23.4748 62.1535 6.31285 H 0.0 **** 0.053
157 C12705 18.6035 55.8107 10.0427 C.2 0.0 **** 0.0
158 H12895 37.6412 64.651 8.60507 H 0.0 **** 0.1268
159 H12901 30.5429 67.3415 1.77663 H 0.0 **** 0.053
160 H12846 19.4871 60.3457 7.47245 H 0.0 **** 0.053
161 C12788 32.0392 64.7118 6.82001 C.2 0.0 **** 0.0
162 S12703 15.1956 53.8661 10.8448 S.2 0.0 **** 0.024
163 C12772 11.6176 55.4831 12.8908 C.3 0.0 **** -0.159
164 C12747 25.2674 53.2057 16.9488 C.3 0.0 **** -0.106
165 C12799 32.2845 68.0922 2.84327 C.3 0.0 **** -0.086
166 H12855 24.1224 60.7207 5.5155 H 0.0 **** 0.053
167 H12896 35.5933 67.0995 5.06564 H 0.0 **** 0.1268
168 H12899 29.8906 65.7568 3.60805 H 0.0 **** 0.053
169 H12902 31.8005 66.1263 2.09028 H 0.0 **** 0.053
170 C12745 23.8521 55.0777 17.9019 C.3 0.0 **** -0.106
171 H12875 28.0007 61.8099 6.65737 H 0.0 **** 0.053
172 O12801 34.3183 68.3521 4.02221 O.2 0.0 **** -0.419
173 C12744 22.5838 54.6199 17.1495 C.3 0.0 **** -0.106
174 H12870 26.1937 53.6923 16.6066 H 0.0 **** 0.053
175 H12851 18.9357 62.4797 4.41952 H 0.0 **** 0.053
176 H12831 8.86776 49.2293 10.3648 H 0.0 **** 0.053
177 H12873 23.8806 60.572 7.71787 H 0.0 **** 0.1268
178 C12710 20.303 57.2375 9.02521 C.2 0.0 **** 0.0
179 H12897 37.1757 66.1063 6.6708 H 0.0 **** 0.1268
180 H12862 22.5625 52.4567 16.7951 H 0.0 **** 0.053
181 H12812 10.4011 45.7783 17.5119 H 0.0 **** 0.053
182 H12877 26.8136 63.747 5.43265 H 0.0 **** 0.053
183 C12793 29.737 64.9435 6.0392 C.2 0.0 **** -0.1268
184 C12794 31.113 65.2589 5.88997 C.2 0.0 **** 0.0
185 H12850 19.5119 62.5209 6.08875 H 0.0 **** 0.053
186 C12679 16.2615 47.8279 17.7232 C.3 0.0 **** -0.106
187 C12751 27.2726 58.8987 11.3985 C.2 0.0 **** 0.042
188 C12761 28.4815 61.8904 8.70025 C.2 0.0 **** 0.0
189 H12865 23.5657 55.6154 18.8177 H 0.0 **** 0.053
190 C12667 14.1165 47.1046 16.5801 C.3 0.0 **** -0.053
191 C12776 32.5149 60.7683 11.5972 C.2 0.0 **** -0.1268
192 H12886 12.4647 54.7832 12.8269 H 0.0 **** 0.053
193 C12764 25.3956 64.3251 7.00705 C.3 0.0 **** -0.106
194 O12774 18.7362 57.9503 6.44736 O.3 0.0 **** -0.57
195 H12861 24.3695 52.4141 15.1157 H 0.0 **** 0.053
196 C12722 24.1719 59.1294 9.28108 C.2 0.0 **** 0.0
197 H12833 11.1119 50.3307 8.56662 H 0.0 **** 0.053
198 C12767 30.7012 61.8564 9.71824 C.2 0.0 **** 0.0
199 C12783 36.16 63.4554 9.58776 C.2 0.0 **** -0.1268
200 C12704 17.2846 55.2852 10.0298 C.2 0.0 **** -0.1268
201 C12707 19.1081 54.4322 12.0212 C.2 0.0 **** 0.0
202 H12882 25.6887 63.5997 9.0555 H 0.0 **** 0.053
203 O12743 21.9682 53.3843 15.1085 O.3 0.0 **** -0.202
204 C12795 32.9045 66.5923 4.86222 C.2 0.0 **** 0.052
205 C12697 10.2268 54.0578 10.6425 C.3 0.0 **** -0.106
206 C12726 21.4644 60.5025 6.59843 C.3 0.0 **** 0.107
207 C12671 14.5102 49.2962 14.6276 C.2 0.0 **** 0.0
208 C12670 15.4815 49.0309 15.6588 C.2 0.0 **** 0.0
209 H12888 9.05654 56.2804 12.1337 H 0.0 **** 0.053
210 H12860 21.6488 63.6569 5.81211 H 0.0 **** 0.353
211 C12746 24.7452 53.8775 18.2354 C.3 0.0 **** -0.106
212 H12887 8.16447 55.2822 13.3088 H 0.0 **** 0.053
213 H12872 27.6441 57.6338 13.0793 H 0.0 **** 0.1268
214 C12796 31.5755 66.1476 4.87033 C.2 0.0 **** 0.0
215 C12720 23.4198 57.1178 11.173 C.2 0.0 **** 0.0
216 H12830 9.86397 48.2944 9.23537 H 0.0 **** 0.053
217 H12879 24.6354 64.136 6.23601 H 0.0 **** 0.053
218 O12740 24.5563 54.472 15.0259 O.3 0.0 **** -0.202
219 C12684 12.5152 48.5599 13.2975 C.2 0.0 **** 0.0
220 C12750 26.3561 59.3273 10.389 C.2 0.0 **** 0.0
221 C12689 11.2275 47.5661 11.4152 C.3 0.0 **** -0.106
222 C12673 14.6822 50.3229 13.7156 C.2 0.0 **** 0.0
223 O12756 28.5357 59.4647 11.4827 O.3 0.0 **** -0.0685
224 H12802 10.1288 51.8538 18.7211 H 0.0 **** 0.053
225 H12823 18.394 48.0445 18.1143 H 0.0 **** 0.053
226 H12840 8.64873 52.8946 9.70437 H 0.0 **** 0.053
227 C12675 16.8528 50.8152 14.7502 C.2 0.0 **** 0.232
228 C12702 16.8801 54.3528 10.9507 C.2 0.0 **** -0.012
229 C12708 20.8276 55.9437 11.077 C.2 0.0 **** 0.0
230 H12807 11.0719 47.1398 19.3108 H 0.0 **** 0.053
231 C12735 22.8458 63.6681 4.13961 C.3 0.0 **** 0.081
232 C12696 10.0314 53.6328 12.1021 C.3 0.0 **** -0.053
233 O12665 12.0029 46.5776 15.5499 O.3 0.0 **** -0.32
234 H12815 8.30867 47.9186 16.844 H 0.0 **** 0.053
235 C12656 9.58808 49.9043 17.8489 C.3 0.0 **** -0.106
236 C12775 31.2138 60.3486 11.6046 C.2 0.0 **** -0.1268
237 C12765 25.3009 63.2349 8.09119 C.3 0.0 **** -0.106
238 H12829 11.8951 46.5265 13.2622 H 0.0 **** 0.1268
239 C12685 12.5393 49.8252 12.5682 C.2 0.0 **** 0.0
240 C12759 26.1053 61.992 7.66912 C.3 0.0 **** -0.053
241 C12755 24.5668 60.208 8.46619 C.2 0.0 **** -0.1268
242 H12869 25.5119 52.1501 17.1399 H 0.0 **** 0.053
243 H12841 13.1986 51.9614 11.0559 H 0.0 **** 0.1268
244 C12754 25.8041 60.8178 8.56226 C.2 0.0 **** 0.0
245 C12758 28.055 60.9122 9.60255 C.2 0.0 **** 0.0
246 C12792 36.1194 65.8313 6.70688 C.2 0.0 **** -0.1268
247 C12777 32.9905 61.7273 10.6425 C.2 0.0 **** 0.0
248 H12808 12.6799 49.4086 19.5748 H 0.0 **** 0.053
249 C12663 10.0001 46.5563 16.8423 C.3 0.0 **** -0.106
250 H12810 12.2488 49.0542 17.2854 H 0.0 **** 0.053
@<TRIPOS>BOND
1 94 93 un
2 42 31 un
3 237 90 1
4 65 103 1
5 201 107 un
6 220 32 un
7 99 235 1
8 56 99 1
9 45 56 1
10 27 45 1
11 50 235 1
12 50 27 1
13 37 58 1
14 249 37 1
15 142 249 1
16 56 58 1
17 99 142 1
18 65 233 1
19 190 65 1
20 72 190 1
21 37 233 1
22 58 72 1
23 208 8 un
24 207 208 un
25 77 207 un
26 190 8 1
27 65 77 1
28 94 222 1
29 227 94 un
30 4 227 un
31 207 222 un
32 208 4 un
33 73 10 1
34 186 73 1
35 8 186 1
36 4 10 1
37 52 95 1
38 6 52 un
39 93 6 un
40 227 95 1
41 239 219 un
42 67 239 2
43 77 219 1
44 222 67 un
45 88 135 2
46 221 88 1
47 114 221 1
48 239 135 1
49 219 114 2
50 78 105 1
51 146 78 1
52 106 146 2
53 88 105 1
54 135 106 1
55 232 134 1
56 205 232 1
57 108 205 1
58 106 134 1
59 146 108 1
60 127 24 un
61 67 127 un
62 93 24 un
63 228 139 un
64 162 228 1
65 24 162 un
66 6 139 un
67 157 200 un
68 149 157 un
69 201 149 un
70 228 200 un
71 139 201 un
72 34 229 un
73 178 34 un
74 7 178 un
75 149 229 un
76 157 7 un
77 75 13 un
78 111 75 un
79 102 111 un
80 178 13 un
81 34 102 un
82 64 107 un
83 52 64 un
84 49 42 un
85 107 49 un
86 229 42 un
87 31 215 un
88 102 215 un
89 84 196 un
90 125 84 un
91 215 125 un
92 111 196 un
93 206 121 1
94 137 206 1
95 41 137 1
96 75 121 1
97 13 41 1
98 117 61 1
99 154 117 1
100 5 154 1
101 137 61 1
102 206 5 1
103 109 129 1
104 231 109 1
105 150 231 1
106 5 129 1
107 154 150 1
108 16 141 un
109 133 16 un
110 31 133 un
111 49 141 un
112 12 218 1
113 33 12 1
114 203 33 1
115 16 218 1
116 141 203 1
117 170 173 1
118 211 170 1
119 164 211 1
120 33 173 1
121 12 164 1
122 29 96 un
123 133 29 un
124 125 96 un
125 187 220 un
126 116 187 un
127 96 116 un
128 84 220 un
129 244 32 un
130 241 244 un
131 196 241 un
132 11 223 1
133 245 11 un
134 187 223 1
135 32 245 1
136 145 240 1
137 188 145 1
138 244 240 1
139 245 188 un
140 138 148 1
141 193 138 1
142 237 193 1
143 145 148 1
144 240 237 1
145 198 53 1
146 70 198 1
147 11 70 un
148 188 53 un
149 148 140 1
150 53 97 un
151 140 97 un
152 232 91 1
153 91 163 1
154 91 126 1
155 41 194 1
156 191 236 1
157 247 191 un
158 9 247 1
159 70 236 un
160 198 9 un
161 43 48 un
162 59 43 1
163 115 59 un
164 9 48 un
165 247 115 un
166 14 199 un
167 15 14 1
168 155 15 1
169 59 199 un
170 43 155 un
171 161 83 un
172 21 161 un
173 48 21 un
174 155 83 un
175 113 119 un
176 246 113 un
177 15 246 un
178 83 119 un
179 184 183 un
180 161 184 un
181 97 21 un
182 140 183 un
183 214 204 un
184 184 214 un
185 119 204 un
186 54 57 1
187 165 54 1
188 81 165 1
189 214 57 1
190 204 81 1
191 81 172 2
192 50 224 1
193 50 123 1
194 235 44 1
195 235 152 1
196 99 19 1
197 56 230 1
198 45 248 1
199 45 92 1
200 58 250 1
201 37 110 1
202 249 181 1
203 249 60 1
204 142 112 1
205 142 234 1
206 190 30 1
207 72 128 1
208 72 118 1
209 77 35 1
210 10 76 1
211 10 144 1
212 73 225 1
213 73 1 1
214 186 63 1
215 186 87 1
216 221 82 1
217 221 132 1
218 114 238 1
219 105 216 1
220 105 176 1
221 78 46 1
222 78 197 1
223 134 36 1
224 134 100 1
225 232 131 1
226 205 23 1
227 205 38 1
228 108 51 1
229 108 226 1
230 127 243 1
231 200 68 1
232 7 71 1
233 64 28 1
234 206 17 1
235 137 160 1
236 41 66 1
237 61 147 1
238 61 18 1
239 117 185 1
240 117 175 1
241 154 25 1
242 5 151 1
243 129 156 1
244 129 166 1
245 109 39 1
246 109 40 1
247 231 120 1
248 231 47 1
249 150 210 1
250 12 195 1
251 33 180 1
252 173 22 1
253 173 85 1
254 170 189 1
255 170 20 1
256 211 69 1
257 211 86 1
258 164 242 1
259 164 174 1
260 29 136 1
261 116 213 1
262 241 177 1
263 240 101 1
264 145 171 1
265 148 143 1
266 138 182 1
267 138 130 1
268 193 217 1
269 193 26 1
270 237 202 1
271 91 3 1
272 163 122 1
273 163 74 1
274 163 192 1
275 126 212 1
276 126 209 1
277 126 2 1
278 194 104 1
279 236 124 1
280 191 62 1
281 115 89 1
282 199 80 1
283 14 158 1
284 113 167 1
285 246 179 1
286 183 55 1
287 57 168 1
288 57 98 1
289 54 159 1
290 54 169 1
291 165 153 1
292 165 79 1
@<TRIPOS>MOLECULE
Sketch 4
188 213
SMALL
USER_CHARGES


@<TRIPOS>ATOM
1 C11433 58.035 59.2608 51.3434 C.2 0.0 **** 0.0
2 C11389 62.8766 60.6752 51.7082 C.3 0.0 **** -0.106
3 H11471 58.9735 63.642 72.0501 H 0.0 **** 0.053
4 H11477 57.2423 57.7228 68.7586 H 0.0 **** 0.1268
5 C11441 55.2686 63.1626 49.544 C.ar 0.0 **** 0.0
6 C11443 54.7515 64.5375 49.2632 C.3 0.0 **** -0.106
7 H11500 66.3153 62.2209 46.247 H 0.0 **** 0.053
8 H11526 67.3388 68.9068 46.2465 H 0.0 **** 0.053
9 H11503 68.039 63.1664 41.286 H 0.0 **** 0.1268
10 C11345 58.0051 60.5428 73.0813 C.3 0.0 **** -0.106
11 H11469 57.1573 62.5346 73.2333 H 0.0 **** 0.053
12 H11456 55.4718 65.0615 48.6048 H 0.0 **** 0.053
13 C11368 57.1336 55.5853 58.9035 C.3 0.0 **** -0.106
14 H11492 62.6371 60.995 52.7181 H 0.0 **** 0.053
15 C11369 57.5976 56.2345 56.4247 C.ar 0.0 **** -0.1268
16 C11401 65.8156 62.1122 45.2659 C.3 0.0 **** -0.106
17 H11491 63.3247 62.7053 51.0309 H 0.0 **** 0.053
18 C11398 66.2964 58.8199 43.3792 C.ar 0.0 **** 0.0
19 H11520 60.8989 61.994 52.6922 H 0.0 **** 0.053
20 H11512 67.4105 58.3296 39.5971 H 0.0 **** 0.053
21 C11394 65.1677 59.7541 45.7686 C.ar 0.0 **** 0.0
22 C11408 66.5292 64.4349 44.5732 C.ar 0.0 **** 0.0
23 C11448 50.61 64.883 47.9705 C.3 0.0 **** -0.106
24 C11436 57.0776 61.7671 50.6035 C.2 0.0 **** 0.052
25 C11409 66.006 65.0112 45.7596 C.ar 0.0 **** -0.1268
26 H11485 59.9271 60.1484 55.591 H 0.0 **** 0.1268
27 C11373 59.4213 59.2835 55.1629 C.ar 0.0 **** -0.1268
28 C11348 58.7269 60.8425 68.8341 C.ar 0.0 **** 0.0
29 C11388 62.7791 61.8125 50.6893 C.3 0.0 **** -0.106
30 H11467 55.4343 58.5306 49.6453 H 0.0 **** 0.41
31 C11390 63.2491 57.1028 48.5411 C.2 0.0 **** -0.1268
32 C11362 57.2228 56.1508 61.447 C.2 0.0 **** -0.1268
33 N11406 67.6843 64.8279 42.4425 N.ar 0.0 **** -0.481
34 C11423 68.8718 55.5152 38.2409 C.3 0.0 **** -0.086
35 H11511 65.7746 53.9433 43.0882 H 0.0 **** 0.1268
36 H11486 57.5253 56.177 53.7192 H 0.0 **** 0.1268
37 C11372 58.8806 58.5495 57.4631 C.ar 0.0 **** -0.1268
38 C11411 66.706 67.2366 45.0348 C.ar 0.0 **** 0.0
39 H11506 67.7009 67.3155 43.1178 H 0.0 **** 0.1268
40 C11413 66.8802 58.3724 42.0677 C.3 0.0 **** -0.106
41 C11378 60.0924 57.9389 51.3987 C.2 0.0 **** 0.0
42 H11487 58.0442 57.122 51.3738 H 0.0 **** 0.053
43 C11440 54.5888 62.0399 49.1725 C.ar 0.0 **** 0.0
44 O11453 54.5122 59.6713 49.0769 O.2 0.0 **** -0.419
45 C11392 63.8828 59.3391 47.9446 C.2 0.0 **** 0.0
46 C11350 58.9692 60.9867 67.469 C.ar 0.0 **** -0.1268
47 C11367 57.6676 56.4475 57.7806 C.ar 0.0 **** 0.0
48 C11410 66.0943 66.3707 45.9813 C.ar 0.0 **** -0.1268
49 O11425 57.2267 58.3128 71.1215 O.3 0.0 **** -0.452
50 H11457 53.3534 61.6031 47.492 H 0.0 **** 0.053
51 C11376 58.071 57.0311 54.1296 C.ar 0.0 **** -0.1268
52 H11519 56.6491 55.8097 65.1118 H 0.0 **** 0.41
53 O11451 56.2528 58.2074 50.1702 O.3 0.0 **** -0.452
54 C11420 67.3887 56.4127 40.5701 C.ar 0.0 **** 0.0
55 C11377 58.6155 57.9544 51.7981 C.3 0.0 **** -0.053
56 C11412 67.2208 66.6891 43.8718 C.ar 0.0 **** -0.1268
57 C11424 68.0285 54.5142 39.0205 C.2 0.0 **** 0.347
58 C11391 63.8677 57.9681 47.6507 C.2 0.0 **** 0.0
59 H11470 58.4817 62.2698 74.3933 H 0.0 **** 0.053
60 H11480 56.7056 55.2541 61.7897 H 0.0 **** 0.1268
61 C11379 60.802 59.1652 51.7434 C.2 0.0 **** 0.0
62 C11361 57.4206 56.9531 63.77 C.2 0.0 **** 0.042
63 H11463 51.0737 66.9962 47.6766 H 0.0 **** 0.053
64 H11474 57.0393 60.1369 73.4275 H 0.0 **** 0.053
65 H11501 68.0494 60.8096 42.5408 H 0.0 **** 0.053
66 H11461 50.3233 64.9881 49.0305 H 0.0 **** 0.053
67 C11358 58.7213 59.2973 62.8443 C.2 0.0 **** -0.1268
68 H11496 65.3313 60.8598 47.5915 H 0.0 **** 0.053
69 O11426 56.7844 55.799 64.1516 O.3 0.0 **** -0.452
70 H11481 57.6158 54.5931 58.9149 H 0.0 **** 0.053
71 C11422 68.1874 56.8794 38.1967 C.3 0.0 **** -0.106
72 H11462 49.685 64.9382 47.3765 H 0.0 **** 0.053
73 C11395 65.1338 58.3925 45.4702 C.ar 0.0 **** 0.0
74 C11347 58.0859 59.6197 69.3075 C.ar 0.0 **** 0.0
75 H11466 53.6026 66.6271 48.0812 H 0.0 **** 0.053
76 H11509 66.1214 55.8895 44.7954 H 0.0 **** 0.053
77 H11490 61.7224 62.099 50.5715 H 0.0 **** 0.053
78 C11416 65.6415 56.4504 43.9715 C.3 0.0 **** -0.106
79 C11386 63.2705 59.8271 49.1126 C.2 0.0 **** 0.0
80 C11343 58.8224 61.671 71.1055 C.ar 0.0 **** 0.0
81 H11516 69.8467 55.6096 38.7542 H 0.0 **** 0.053
82 C11447 51.2908 63.5261 47.7676 C.3 0.0 **** -0.106
83 C11370 58.1676 57.1828 55.5371 C.ar 0.0 **** 0.0
84 C11349 59.0864 61.8594 69.7763 C.ar 0.0 **** -0.1268
85 C11415 66.2532 56.0028 42.6729 C.ar 0.0 **** 0.0
86 H11507 66.3669 58.9265 41.2587 H 0.0 **** 0.053
87 C11346 57.8359 59.4782 70.7164 C.ar 0.0 **** 0.042
88 C11445 52.6905 63.477 48.3305 C.2 0.0 **** 0.0
89 C11344 58.1904 60.4784 71.5844 C.ar 0.0 **** 0.0
90 C11366 58.2945 57.6187 58.3012 C.ar 0.0 **** 0.0
91 C11446 53.2655 62.0961 48.4799 C.3 0.0 **** -0.106
92 C11404 67.006 61.1352 42.714 C.3 0.0 **** -0.106
93 C11359 58.3289 58.3247 61.9289 C.2 0.0 **** 0.2405
94 C11400 65.7843 60.6592 44.8804 C.ar 0.0 **** 0.0
95 H11514 68.7679 57.5941 37.5943 H 0.0 **** 0.053
96 H11468 58.3751 63.5531 51.2803 H 0.0 **** 0.41
97 H11464 51.8779 65.8931 46.5449 H 0.0 **** 0.053
98 C11419 67.3809 55.027 40.263 C.ar 0.0 **** 0.052
99 H11489 64.438 61.5902 49.335 H 0.0 **** 0.053
100 H11458 52.5568 61.4426 49.0225 H 0.0 **** 0.053
101 O11452 58.9375 62.7867 51.6853 O.3 0.0 **** -0.452
102 H11495 63.8335 61.1013 46.748 H 0.0 **** 0.053
103 C11380 59.9038 60.0363 52.7159 C.3 0.0 **** 0.0
104 O11430 66.7538 52.8007 40.9397 O.3 0.0 **** -0.452
105 C11437 56.3725 60.6051 50.2031 C.2 0.0 **** 0.052
106 C11434 58.7143 60.3837 51.7943 C.2 0.0 **** 0.0
107 C11357 58.8506 60.1287 65.1559 C.2 0.0 **** -0.1268
108 H11476 59.4529 61.898 67.1094 H 0.0 **** 0.1268
109 C11342 59.108 62.576 72.2817 C.3 0.0 **** -0.106
110 C11405 67.6064 63.53 42.2268 C.ar 0.0 **** 0.1137
111 C11382 61.9867 56.4834 50.5111 C.2 0.0 **** 0.367
112 H11522 59.6914 61.7659 53.9543 H 0.0 **** 0.053
113 C11421 68.0118 57.4087 39.6166 C.3 0.0 **** -0.106
114 C11381 60.6366 56.7246 51.0655 C.2 0.0 **** 0.0265
115 C11355 57.8202 57.9355 64.7189 C.2 0.0 **** 0.0
116 H11493 63.9193 60.3135 51.7301 H 0.0 **** 0.053
117 C11444 53.3715 64.5854 48.6705 C.2 0.0 **** 0.0
118 C11374 59.3337 59.101 53.8024 C.ar 0.0 **** 0.0
119 H11527 65.7771 69.1428 45.4448 H 0.0 **** 0.053
120 C11399 66.3454 60.1962 43.6891 C.ar 0.0 **** 0.0
121 H11505 65.6863 66.7956 46.9013 H 0.0 **** 0.1268
122 C11450 52.812 65.9751 48.4925 C.3 0.0 **** -0.106
123 H11473 58.8013 59.9764 73.5984 H 0.0 **** 0.053
124 C11383 62.5942 57.562 49.6911 C.2 0.0 **** 0.052
125 H11475 59.5652 62.7699 69.4115 H 0.0 **** 0.1268
126 C11385 62.0138 59.5359 51.2184 C.2 0.0 **** 0.0
127 H11459 51.3283 63.2777 46.6897 H 0.0 **** 0.053
128 H11494 63.2515 56.0275 48.3533 H 0.0 **** 0.1268
129 H11525 67.2844 69.2482 44.4967 H 0.0 **** 0.053
130 H11513 68.9983 57.7073 40.0207 H 0.0 **** 0.053
131 H11528 59.2199 60.1924 62.4724 H 0.0 **** 0.1268
132 C11397 65.7016 57.9233 44.2679 C.ar 0.0 **** 0.0
133 H11455 54.7912 65.1295 50.1968 H 0.0 **** 0.053
134 H11478 57.1156 56.8989 66.5052 H 0.0 **** 0.1268
135 H11499 64.7856 62.4685 45.4525 H 0.0 **** 0.053
136 C11371 58.8366 58.3467 56.0635 C.ar 0.0 **** 0.0
137 O11454 57.1826 64.1366 50.5407 O.2 0.0 **** -0.419
138 C11403 67.0132 62.584 43.1064 C.ar 0.0 **** 0.0
139 C11414 66.8336 56.8995 41.7692 C.ar 0.0 **** 0.0
140 C11384 62.5892 58.946 50.0009 C.2 0.0 **** 0.0
141 C11432 66.7835 68.7137 45.3147 C.3 0.0 **** -0.159
142 C11354 57.5966 57.7925 66.0936 C.2 0.0 **** -0.1268
143 C11375 58.6295 57.9739 53.3026 C.ar 0.0 **** 0.0
144 H11498 63.7347 56.8199 45.8613 H 0.0 **** 0.053
145 C11356 58.4787 59.1432 64.2267 C.2 0.0 **** 0.0
146 H11484 59.3639 59.436 57.8777 H 0.0 **** 0.1268
147 C11449 51.5695 66.0163 47.5968 C.3 0.0 **** -0.106
148 C11363 57.4739 56.3903 60.1302 C.2 0.0 **** 0.0
149 C11418 66.7762 54.1402 41.1956 C.ar 0.0 **** 0.042
150 C11407 67.1498 65.2974 43.6132 C.ar 0.0 **** 0.2405
151 C11364 58.1671 57.604 59.7588 C.2 0.0 **** 0.2405
152 O11428 59.9448 55.5511 51.1876 O.3 0.0 **** -0.4365
153 C11435 58.2674 61.6731 51.3701 C.2 0.0 **** 0.042
154 H11479 59.3412 61.0336 64.7897 H 0.0 **** 0.1268
155 H11515 67.1993 56.776 37.7185 H 0.0 **** 0.053
156 C11393 64.5565 60.3109 47.0225 C.3 0.0 **** -0.106
157 C11360 57.6509 57.122 62.4022 C.2 0.0 **** 0.0
158 C11427 60.4961 61.268 53.398 C.3 0.0 **** -0.159
159 H11517 69.0552 55.0909 37.245 H 0.0 **** 0.053
160 H11482 56.0491 55.4111 58.8066 H 0.0 **** 0.053
161 H11502 66.525 61.036 41.7228 H 0.0 **** 0.053
162 C11402 66.4682 63.0398 44.2893 C.ar 0.0 **** 0.0
163 H11465 52.5772 66.394 49.4897 H 0.0 **** 0.053
164 H11460 50.6912 62.7243 48.2333 H 0.0 **** 0.053
165 H11523 59.215 55.6675 51.8172 H 0.0 **** 0.41
166 C11417 66.2293 54.6399 42.3765 C.ar 0.0 **** -0.1268
167 H11524 66.3416 52.3579 41.7006 H 0.0 **** 0.41
168 H11497 65.2517 56.6477 46.7057 H 0.0 **** 0.053
169 H11488 62.9142 61.8637 48.5159 H 0.0 **** 0.053
170 H11508 67.9275 58.7208 41.9976 H 0.0 **** 0.053
171 C11442 56.5579 63.0724 50.2446 C.2 0.0 **** 0.367
172 C11351 58.6115 59.9925 66.5318 C.ar 0.0 **** 0.0
173 C11353 57.7276 58.6308 68.3989 C.ar 0.0 **** -0.1268
174 O11429 62.4909 55.3594 50.5666 O.2 0.0 **** -0.419
175 H11521 61.2669 60.966 54.1182 H 0.0 **** 0.053
176 H11510 64.5876 56.1159 43.9966 H 0.0 **** 0.053
177 H11472 60.1552 62.4403 72.6059 H 0.0 **** 0.053
178 H11504 65.5294 64.3734 46.5053 H 0.0 **** 0.1268
179 C11387 63.3674 61.3205 49.3622 C.3 0.0 **** -0.106
180 C11396 64.4992 57.4016 46.4076 C.3 0.0 **** -0.106
181 C11439 55.1328 60.7068 49.4598 C.2 0.0 **** 0.367
182 H11483 57.1049 55.3506 56.0125 H 0.0 **** 0.1268
183 O11431 67.9134 53.3592 38.6233 O.2 0.0 **** -0.419
184 C11341 58.14 62.0589 73.3709 C.3 0.0 **** -0.106
185 H11518 57.1141 58.3493 72.0851 H 0.0 **** 0.41
186 N11365 58.5827 58.5339 60.5887 N.2 0.0 **** -0.481
187 C11352 57.9678 58.7803 67.017 C.ar 0.0 **** 0.0
188 C11438 56.8699 59.3349 50.546 C.2 0.0 **** 0.042
@<TRIPOS>BOND
1 5 6 1
2 87 49 1
3 80 109 1
4 89 80 am
5 10 89 1
6 184 109 1
7 184 10 1
8 74 87 am
9 28 74 am
10 84 28 am
11 89 87 am
12 80 84 am
13 172 46 am
14 187 172 un
15 173 187 am
16 28 46 am
17 74 173 am
18 115 142 un
19 145 115 un
20 107 145 un
21 187 142 un
22 172 107 un
23 93 67 un
24 157 93 un
25 62 157 un
26 145 67 un
27 115 62 un
28 148 32 un
29 151 148 un
30 186 151 un
31 157 32 un
32 93 186 un
33 47 90 am
34 13 47 1
35 151 90 1
36 148 13 1
37 83 15 am
38 136 83 am
39 37 136 am
40 47 15 am
41 90 37 am
42 118 27 am
43 143 118 am
44 51 143 am
45 136 27 am
46 83 51 am
47 41 55 1
48 61 41 1
49 103 61 1
50 143 55 1
51 118 103 1
52 41 114 2
53 114 111 1
54 111 124 1
55 124 140 un
56 140 126 1
57 61 126 2
58 179 79 1
59 29 179 1
60 2 29 1
61 140 79 un
62 126 2 1
63 58 31 un
64 45 58 un
65 79 45 un
66 124 31 un
67 21 156 1
68 73 21 am
69 180 73 1
70 45 156 1
71 58 180 1
72 18 132 am
73 120 18 am
74 94 120 am
75 73 132 am
76 21 94 am
77 162 16 1
78 138 162 am
79 92 138 1
80 94 16 1
81 120 92 1
82 33 110 am
83 150 33 am
84 22 150 am
85 138 110 am
86 162 22 am
87 48 25 am
88 38 48 am
89 56 38 am
90 22 25 am
91 150 56 am
92 139 40 1
93 85 139 am
94 78 85 1
95 18 40 1
96 132 78 1
97 149 166 am
98 98 149 am
99 54 98 am
100 85 166 am
101 139 54 am
102 71 113 1
103 34 71 1
104 57 34 1
105 54 113 1
106 98 57 1
107 62 69 1
108 103 158 1
109 114 152 1
110 111 174 2
111 149 104 1
112 57 183 2
113 38 141 1
114 153 106 un
115 24 153 un
116 105 24 un
117 188 105 un
118 1 106 un
119 1 188 un
120 43 181 1
121 5 43 am
122 171 5 1
123 105 181 1
124 24 171 1
125 117 6 1
126 88 117 2
127 91 88 1
128 43 91 1
129 23 82 1
130 147 23 1
131 122 147 1
132 88 82 1
133 117 122 1
134 188 53 1
135 153 101 1
136 181 44 2
137 171 137 2
138 6 133 1
139 6 12 1
140 91 50 1
141 91 100 1
142 82 127 1
143 82 164 1
144 23 66 1
145 23 72 1
146 147 63 1
147 147 97 1
148 122 163 1
149 122 75 1
150 53 30 1
151 101 96 1
152 103 106 1
153 55 1 1
154 184 11 1
155 184 59 1
156 109 3 1
157 109 177 1
158 10 123 1
159 10 64 1
160 84 125 1
161 46 108 1
162 173 4 1
163 142 134 1
164 107 154 1
165 32 60 1
166 13 70 1
167 13 160 1
168 15 182 1
169 37 146 1
170 27 26 1
171 51 36 1
172 55 42 1
173 179 169 1
174 179 99 1
175 29 77 1
176 29 17 1
177 2 14 1
178 2 116 1
179 31 128 1
180 156 102 1
181 156 68 1
182 180 168 1
183 180 144 1
184 16 135 1
185 16 7 1
186 92 65 1
187 92 161 1
188 110 9 1
189 25 178 1
190 48 121 1
191 56 39 1
192 40 86 1
193 40 170 1
194 78 76 1
195 78 176 1
196 166 35 1
197 113 20 1
198 113 130 1
199 71 95 1
200 71 155 1
201 34 81 1
202 34 159 1
203 49 185 1
204 69 52 1
205 158 19 1
206 158 175 1
207 158 112 1
208 152 165 1
209 104 167 1
210 141 129 1
211 141 8 1
212 141 119 1
213 67 131 1
@<TRIPOS>MOLECULE
Sketch 4
130 142
SMALL
USER_CHARGES


@<TRIPOS>ATOM
1 C1363 27.4189 37.5267 50.167 C.3 0.0 **** -0.159
2 C1333 25.2684 29.4478 53.6186 C.ar 0.0 **** 0.0
3 C1362 25.2298 39.0808 49.1191 C.3 0.0 **** -0.159
4 H1430 31.7744 26.3674 45.6456 H 0.0 **** 0.053
5 C1324 26.013 37.0993 50.5952 C.ar 0.0 **** -0.053
6 C1331 26.2053 30.722 51.7243 C.2 0.0 **** 0.367
7 H1384 27.1974 28.4833 55.3836 H 0.0 **** 0.053
8 H1428 32.6001 27.8457 46.1614 H 0.0 **** 0.053
9 C1306 18.3921 34.3656 59.3821 C.ar 0.0 **** 0.0
10 H1414 18.2577 39.642 51.9887 H 0.0 **** 0.053
11 C1309 18.3163 36.7044 54.7393 C.ar 0.0 **** 0.0
12 C1322 23.2949 33.8527 52.4091 C.ar 0.0 **** 0.0
13 H1399 20.7667 34.2189 60.8591 H 0.0 **** 0.053
14 H1415 18.3852 38.4835 50.6427 H 0.0 **** 0.053
15 H1407 15.373 37.153 57.3469 H 0.0 **** 0.053
16 C1335 25.2364 28.2414 54.5112 C.3 0.0 **** -0.106
17 C1317 22.1865 35.9003 51.5266 C.ar 0.0 **** 0.0
18 C1326 23.5603 37.4242 49.9426 C.3 0.0 **** -0.106
19 C1304 18.8274 35.0391 57.0836 C.ar 0.0 **** 0.0
20 H1423 26.6325 32.0784 50.2216 H 0.0 **** 0.41
21 C1369 31.6077 27.3786 46.0501 C.3 0.0 **** -0.159
22 O1366 23.4115 30.3356 54.7945 O.2 0.0 **** -0.419
23 C1349 29.4166 27.3157 49.781 C.ar 0.0 **** 0.0
24 H1412 16.0668 38.0699 54.2691 H 0.0 **** 0.053
25 C1312 18.9881 37.6957 52.587 C.ar 0.0 **** 0.0
26 H1418 24.3721 39.7385 48.9098 H 0.0 **** 0.053
27 H1382 24.6495 27.45 54.0081 H 0.0 **** 0.053
28 C1350 28.9349 28.0329 48.6776 C.ar 0.0 **** -0.1268
29 C1319 23.3349 36.137 50.7016 C.2 0.0 **** 0.0
30 H1389 31.1577 23.7875 52.7601 H 0.0 **** 0.053
31 H1411 17.124 39.4867 54.1998 H 0.0 **** 0.053
32 H1408 16.0735 37.9704 58.753 H 0.0 **** 0.053
33 H1383 26.6134 26.8173 55.3746 H 0.0 **** 0.053
34 H1401 16.1815 36.5356 60.8051 H 0.0 **** 0.053
35 H1374 21.3648 34.1259 54.3134 H 0.0 **** 0.1268
36 H1422 27.4955 37.6114 49.0727 H 0.0 **** 0.053
37 C1341 28.9985 26.4072 52.0721 C.ar 0.0 **** 0.0
38 H1420 28.1597 36.7848 50.5003 H 0.0 **** 0.053
39 C1302 16.9846 36.0469 58.3016 C.ar 0.0 **** 0.0
40 H1391 29.4907 24.5592 51.1624 H 0.0 **** 0.053
41 C1348 30.6306 26.6056 49.6731 C.ar 0.0 **** 0.0
42 C1355 19.8408 34.1295 61.4466 C.3 0.0 **** -0.159
43 C1318 20.9985 36.669 51.4477 C.ar 0.0 **** 0.042
44 H1376 25.5009 35.8219 48.9128 H 0.0 **** 0.053
45 H1387 28.7044 23.5927 53.3735 H 0.0 **** 0.053
46 H1425 33.332 26.1522 49.2574 H 0.0 **** 0.053
47 O1361 20.6769 37.3125 50.2736 O.3 0.0 **** -0.452
48 C1358 15.7971 36.9823 58.3442 C.3 0.0 **** -0.159
49 H1416 21.2412 36.9552 49.5697 H 0.0 **** 0.41
50 C1356 16.5828 35.5164 60.7377 C.3 0.0 **** -0.159
51 H1421 27.6923 38.5005 50.6007 H 0.0 **** 0.053
52 H1426 33.2417 26.144 47.4839 H 0.0 **** 0.053
53 C1314 20.2836 35.8371 53.6057 C.ar 0.0 **** 0.0
54 C1344 29.3802 24.2578 53.9366 C.3 0.0 **** -0.106
55 C1310 17.3667 36.7341 55.9086 C.3 0.0 **** -0.106
56 C1323 25.649 35.7225 50.0042 C.3 0.0 **** -0.106
57 C1352 30.8658 27.3366 47.3629 C.ar 0.0 **** 0.0
58 C1307 19.6741 34.8993 55.8527 C.3 0.0 **** -0.106
59 H1419 25.4467 38.512 48.2007 H 0.0 **** 0.053
60 C1311 18.0968 37.6171 53.6523 C.ar 0.0 **** 0.0
61 C1342 28.3173 26.4857 53.2953 C.ar 0.0 **** 0.0
62 H1395 29.2736 28.586 46.6265 H 0.0 **** 0.1268
63 C1354 18.7179 33.5179 60.5939 C.3 0.0 **** -0.106
64 C1321 24.302 34.001 51.4108 C.ar 0.0 **** 0.0
65 C1337 27.3857 27.5206 53.4798 C.ar 0.0 **** 0.0
66 C1343 28.604 25.4944 54.4026 C.3 0.0 **** -0.106
67 C1332 26.1929 29.5285 52.596 C.ar 0.0 **** 0.0
68 O1364 26.0539 32.9724 50.1249 O.3 0.0 **** -0.452
69 O1365 22.4388 32.4878 54.2156 O.3 0.0 **** -0.452
70 C1308 19.3931 35.8463 54.7232 C.ar 0.0 **** 0.0
71 C1359 16.8898 38.527 53.706 C.3 0.0 **** -0.159
72 N1339 27.7764 28.3083 51.228 N.ar 0.0 **** -0.481
73 C1336 26.6518 27.7362 54.7765 C.3 0.0 **** -0.106
74 C1305 19.1527 34.2493 58.2047 C.ar 0.0 **** 0.0
75 H1385 29.175 26.0109 55.1952 H 0.0 **** 0.053
76 H1403 15.7301 34.8216 60.8341 H 0.0 **** 0.053
77 H1427 32.5478 24.8061 48.4201 H 0.0 **** 0.053
78 H1404 21.2566 33.8712 57.8817 H 0.0 **** 0.053
79 H1424 22.6906 31.5422 54.6325 H 0.0 **** 0.41
80 O1367 27.0506 30.8675 50.7857 O.2 0.0 **** -0.419
81 C1360 18.8541 38.8178 51.5815 C.3 0.0 **** -0.159
82 C1351 29.651 28.0294 47.487 C.ar 0.0 **** -0.1268
83 H1410 16.5119 38.7575 52.7019 H 0.0 **** 0.053
84 H1396 19.0078 32.5057 60.2757 H 0.0 **** 0.053
85 H1405 20.2044 32.6056 57.256 H 0.0 **** 0.053
86 C1301 17.3372 35.3026 59.4425 C.ar 0.0 **** 0.0
87 H1417 26.0999 39.7145 49.3392 H 0.0 **** 0.053
88 H1390 31.2003 25.3701 53.5639 H 0.0 **** 0.053
89 C1320 24.3877 35.2321 50.6766 C.2 0.0 **** 0.0
90 H1400 20.0512 33.5162 62.3367 H 0.0 **** 0.053
91 C1347 31.1435 25.8868 50.8962 C.3 0.0 **** -0.106
92 H1392 31.7474 26.586 51.5069 H 0.0 **** 0.053
93 C1328 24.2784 31.6509 53.0177 C.ar 0.0 **** 0.052
94 C1329 25.2269 31.7627 51.9747 C.ar 0.0 **** 0.052
95 H1397 17.8203 33.3835 61.2129 H 0.0 **** 0.053
96 H1406 20.5042 32.7278 59.0042 H 0.0 **** 0.053
97 C1330 25.2225 32.9128 51.1578 C.ar 0.0 **** 0.042
98 C1353 31.3674 26.6267 48.4743 C.ar 0.0 **** 0.0
99 H1373 17.2179 37.7841 56.2124 H 0.0 **** 0.053
100 C1368 32.6904 25.9001 48.3993 C.3 0.0 **** -0.159
101 H1409 14.9945 36.584 58.9793 H 0.0 **** 0.053
102 H1379 23.5822 37.1926 48.86 H 0.0 **** 0.053
103 H1413 19.8389 39.2177 51.3129 H 0.0 **** 0.053
104 H1388 29.734 23.6917 54.8115 H 0.0 **** 0.053
105 H1398 19.5637 35.1415 61.7793 H 0.0 **** 0.053
106 C1313 20.0822 36.7651 52.5241 C.ar 0.0 **** 0.0
107 H1378 24.7353 38.7423 51.179 H 0.0 **** 0.053
108 H1380 22.7591 38.152 50.1032 H 0.0 **** 0.053
109 H1372 16.3664 36.4107 55.5595 H 0.0 **** 0.053
110 C1346 30.013 25.3305 51.7638 C.3 0.0 **** -0.053
111 C1338 27.149 28.416 52.4077 C.ar 0.0 **** 0.2405
112 C1345 30.543 24.6605 53.031 C.3 0.0 **** -0.106
113 C1340 28.697 27.3516 51.0677 C.ar 0.0 **** 0.2405
114 H1393 31.8134 25.0612 50.6184 H 0.0 **** 0.053
115 H1375 26.4807 35.0317 50.1442 H 0.0 **** 0.053
116 H1394 28.0093 28.5984 48.7851 H 0.0 **** 0.1268
117 C1325 24.9016 38.1326 50.2769 C.ar 0.0 **** -0.053
118 C1357 20.3311 33.3107 58.0939 C.3 0.0 **** -0.159
119 C1334 24.2743 30.484 53.856 C.2 0.0 **** 0.367
120 H1371 19.6048 33.8591 55.479 H 0.0 **** 0.053
121 H1386 27.6602 25.1797 54.8742 H 0.0 **** 0.053
122 C1327 23.3173 32.6675 53.2327 C.ar 0.0 **** 0.042
123 H1381 24.7059 28.4847 55.4404 H 0.0 **** 0.053
124 H1377 26.028 36.9623 51.689 H 0.0 **** 0.053
125 H1402 17.2285 35.3616 61.6119 H 0.0 **** 0.053
126 C1315 21.3128 34.8849 53.5501 C.ar 0.0 **** -0.1268
127 H1429 31.0447 27.9569 45.3051 H 0.0 **** 0.053
128 C1303 17.7423 35.9177 57.1207 C.ar 0.0 **** 0.0
129 C1316 22.2677 34.8694 52.5348 C.ar 0.0 **** 0.0
130 H1370 20.7359 35.0037 56.1365 H 0.0 **** 0.053
@<TRIPOS>BOND
1 91 92 1
2 94 93 am
3 16 27 1
4 91 114 1
5 128 39 am
6 19 128 am
7 74 19 am
8 9 74 am
9 86 39 am
10 86 9 am
11 70 58 1
12 11 70 am
13 55 11 1
14 19 58 1
15 128 55 1
16 25 60 am
17 106 25 am
18 53 106 am
19 11 60 am
20 70 53 am
21 129 126 am
22 17 129 am
23 43 17 am
24 53 126 am
25 106 43 am
26 89 29 1
27 64 89 1
28 12 64 am
29 17 29 1
30 129 12 am
31 5 56 1
32 117 5 am
33 18 117 1
34 89 56 1
35 29 18 1
36 93 122 am
37 97 94 am
38 12 122 am
39 64 97 am
40 67 6 1
41 2 67 am
42 119 2 1
43 94 6 1
44 93 119 1
45 73 16 1
46 65 73 1
47 111 65 am
48 2 16 1
49 67 111 am
50 113 72 am
51 37 113 am
52 61 37 am
53 111 72 am
54 65 61 am
55 54 66 1
56 112 54 1
57 110 112 1
58 61 66 1
59 37 110 1
60 41 91 1
61 23 41 am
62 113 23 am
63 110 91 1
64 82 28 am
65 57 82 am
66 98 57 am
67 23 28 am
68 41 98 am
69 9 63 1
70 63 42 1
71 86 50 1
72 74 118 1
73 39 48 1
74 60 71 1
75 25 81 1
76 43 47 1
77 117 3 1
78 5 1 1
79 97 68 1
80 122 69 1
81 119 22 2
82 6 80 2
83 98 100 1
84 57 21 1
85 58 130 1
86 58 120 1
87 55 109 1
88 55 99 1
89 126 35 1
90 56 115 1
91 56 44 1
92 5 124 1
93 117 107 1
94 18 102 1
95 18 108 1
96 16 123 1
97 73 33 1
98 73 7 1
99 66 75 1
100 66 121 1
101 54 45 1
102 54 104 1
103 112 30 1
104 112 88 1
105 110 40 1
106 28 116 1
107 82 62 1
108 63 84 1
109 63 95 1
110 42 105 1
111 42 13 1
112 42 90 1
113 50 34 1
114 50 125 1
115 50 76 1
116 118 78 1
117 118 85 1
118 118 96 1
119 48 15 1
120 48 32 1
121 48 101 1
122 71 83 1
123 71 31 1
124 71 24 1
125 81 103 1
126 81 10 1
127 81 14 1
128 47 49 1
129 3 87 1
130 3 26 1
131 3 59 1
132 1 38 1
133 1 51 1
134 1 36 1
135 68 20 1
136 69 79 1
137 100 46 1
138 100 52 1
139 100 77 1
140 21 8 1
141 21 127 1
142 21 4 1
@<TRIPOS>MOLECULE
Sketch 4
250 292
SMALL
USER_CHARGES


@<TRIPOS>ATOM
1 C19037 11.2414 63.4647 42.8648 C.2 0.0 **** 0.0
2 H19124 6.32477 62.6787 36.1455 H 0.0 **** 0.053
3 C19039 9.77246 62.1532 41.3718 C.2 0.0 **** 0.0
4 H19070 -3.90406 50.3663 23.8965 H 0.0 **** 0.053
5 H19101 1.61554 65.9583 31.7747 H 0.0 **** 0.053
6 C18935 -2.85052 52.8368 23.0951 C.2 0.0 **** 0.0
7 H19129 4.76387 64.6957 36.9731 H 0.0 **** 0.053
8 H19057 -6.24735 46.2669 23.4483 H 0.0 **** 0.053
9 H19083 -2.29836 56.4242 20.8297 H 0.0 **** 0.053
10 C18934 -2.76049 51.4894 22.5386 C.2 0.0 **** 0.0
11 H19058 -5.8868 47.2356 26.0434 H 0.0 **** 0.053
12 C18923 -1.84081 51.931 25.1727 C.2 0.0 **** 0.0
13 H19076 -1.40593 46.1477 25.5559 H 0.0 **** 0.053
14 H19123 4.73286 61.4465 34.7574 H 0.0 **** 0.1268
15 O19006 7.11043 57.1329 38.3367 O.3 0.0 **** -0.0685
16 H19071 0.352413 48.9677 28.3314 H 0.0 **** 0.053
17 C18920 -1.64877 49.5115 25.6125 C.2 0.0 **** 0.0
18 C19008 7.09004 59.5507 38.2134 C.2 0.0 **** 0.0
19 C19030 11.2476 60.9884 42.9562 C.2 0.0 **** 0.0
20 H19137 -8.67981 56.4303 24.6989 H 0.0 **** 0.053
21 H19095 2.7651 62.5828 33.777 H 0.0 **** 0.053
22 C19001 6.33412 57.0458 37.1911 C.2 0.0 **** 0.042
23 H19080 -2.89089 54.8359 19.0195 H 0.0 **** 0.053
24 H19098 2.99206 64.2224 30.3611 H 0.0 **** 0.053
25 H19067 -1.79865 47.0738 23.4949 H 0.0 **** 0.053
26 H19072 -1.33632 48.5087 28.5376 H 0.0 **** 0.053
27 C18948 -4.86561 57.422 22.3711 C.3 0.0 **** -0.106
28 H19119 4.62609 48.7202 34.129 H 0.0 **** 0.053
29 C18974 4.76625 56.8369 34.8434 C.2 0.0 **** 0.0
30 C18932 -0.198216 53.7306 28.0893 C.2 0.0 **** 0.0
31 H19116 2.38259 51.0876 36.0666 H 0.0 **** 0.053
32 C18992 2.43556 50.5988 33.0571 C.3 0.0 **** 0.107
33 C18909 -6.77011 47.0517 25.3966 C.3 0.0 **** 0.054
34 H19060 -5.02981 48.8192 24.5234 H 0.0 **** 0.053
35 C18925 -0.753656 51.1027 27.2114 C.2 0.0 **** 0.232
36 C19044 9.74844 64.6106 41.2728 C.2 0.0 **** 0.0
37 C18987 2.71909 52.8736 32.4079 C.2 0.0 **** 0.042
38 H19102 3.92902 65.9334 32.201 H 0.0 **** 0.053
39 H19135 -5.55775 57.3908 26.5729 H 0.0 **** 0.053
40 O18975 4.26876 61.5279 32.8275 O.3 0.0 **** -0.202
41 C18919 -1.91863 48.2018 25.2487 C.2 0.0 **** 0.0
42 C18911 -5.04633 48.0232 23.7617 C.3 0.0 **** -0.053
43 C18955 1.08678 57.5397 29.5262 C.2 0.0 **** 0.0
44 H19094 1.29403 51.7325 30.3984 H 0.0 **** 0.1268
45 C18978 2.90092 61.5282 30.6508 C.3 0.0 **** 0.107
46 C19007 7.51545 58.3562 38.8195 C.2 0.0 **** 0.0265
47 S18953 -1.3431 56.2602 26.6113 S.2 0.0 **** 0.024
48 C19023 -7.98682 56.7354 25.4988 C.3 0.0 **** -0.159
49 C19019 8.18151 63.3118 39.9169 C.2 0.0 **** 0.0
50 H19154 11.8784 69.2896 42.6859 H 0.0 **** 0.053
51 H19145 13.9519 61.1031 45.7879 H 0.0 **** 0.1268
52 C18928 -0.324855 47.3775 27.0015 C.3 0.0 **** -0.106
53 H19096 1.38655 62.2062 31.9936 H 0.0 **** 0.053
54 H19082 -3.74424 57.0431 20.0076 H 0.0 **** 0.053
55 C18960 2.42567 58.9346 31.0165 C.2 0.0 **** 0.0
56 H19068 -3.97279 46.6066 25.002 H 0.0 **** 0.053
57 C18924 -1.17383 52.2154 26.4213 C.2 0.0 **** 0.0
58 C18984 5.6489 65.3029 34.4086 C.3 0.0 **** -0.106
59 H19052 -8.41713 49.8415 25.8922 H 0.0 **** 0.053
60 C18989 3.96909 54.293 33.9626 C.2 0.0 **** 0.0
61 C18965 3.60567 57.8989 32.9393 C.2 0.0 **** 0.0
62 H19147 13.9665 63.5644 45.6543 H 0.0 **** 0.1268
63 C18908 -6.37921 47.2596 23.9103 C.3 0.0 **** -0.053
64 H19115 1.02671 49.9505 36.1642 H 0.0 **** 0.053
65 C18907 -7.52043 47.9889 23.1828 C.3 0.0 **** -0.053
66 C18976 3.33639 62.6458 32.832 C.3 0.0 **** 0.107
67 H19074 0.544861 47.4964 26.3352 H 0.0 **** 0.053
68 C18977 2.3588 62.5774 31.6321 C.3 0.0 **** -0.053
69 H19099 1.24996 63.9367 30.3681 H 0.0 **** 0.053
70 C18982 4.20697 63.9007 32.8682 C.3 0.0 **** -0.053
71 H19086 -6.80466 55.8911 23.3135 H 0.0 **** 0.053
72 C18931 0.23158 52.5963 28.8016 C.2 0.0 **** 0.232
73 H19059 -7.12243 46.0264 25.5767 H 0.0 **** 0.053
74 C18949 -1.45183 54.5988 26.0729 C.2 0.0 **** -0.012
75 C19042 13.1961 63.5357 44.8807 C.2 0.0 **** -0.1268
76 H19132 4.47764 62.0468 38.4723 H 0.0 **** 0.053
77 H19108 4.71829 67.2789 34.2826 H 0.0 **** 0.053
78 C18913 -5.74061 47.9463 21.3256 C.3 0.0 **** -0.106
79 C18942 -3.37031 56.2227 20.6399 C.3 0.0 **** -0.106
80 C19014 4.94617 64.1061 37.8827 C.3 0.0 **** -0.106
81 C18995 1.8812 50.2594 35.5444 C.3 0.0 **** -0.106
82 C18929 -1.56119 47.0593 26.1573 C.3 0.0 **** -0.106
83 C18926 -0.978836 49.799 26.866 C.2 0.0 **** 0.0
84 C19018 8.39865 58.3606 39.9157 C.2 0.0 **** 0.0
85 C19033 12.7227 59.8449 44.5652 C.2 0.0 **** -0.1268
86 H19063 -5.52391 48.3439 20.3237 H 0.0 **** 0.053
87 C18980 2.00328 64.9953 32.1343 C.3 0.0 **** -0.106
88 C18962 2.97927 60.1954 31.3887 C.2 0.0 **** 0.0
89 C18954 0.217345 57.4331 28.4089 C.2 0.0 **** -0.1268
90 C19005 5.06415 60.5373 35.2339 C.2 0.0 **** -0.1268
91 H19103 4.84956 63.8688 31.972 H 0.0 **** 0.053
92 H19141 8.54744 56.2008 40.1441 H 0.0 **** 0.1268
93 C18999 4.77239 54.4172 35.1057 C.2 0.0 **** -0.1268
94 H19087 -4.44417 57.4263 24.4875 H 0.0 **** 0.053
95 H19100 1.27958 64.6239 32.8823 H 0.0 **** 0.053
96 C18970 3.97063 56.7215 33.6731 C.2 0.0 **** 0.0
97 C19020 8.78282 62.1041 40.3684 C.2 0.0 **** 0.0
98 C18943 -4.12583 56.1875 21.9457 C.2 0.0 **** 0.0
99 C18997 4.14124 49.5709 34.6308 C.3 0.0 **** -0.106
100 H19151 10.48 69.1378 40.5303 H 0.0 **** 0.053
101 H19120 4.87516 49.9864 35.3383 H 0.0 **** 0.053
102 C19041 12.7158 64.7158 44.3523 C.2 0.0 **** -0.1268
103 C18947 -5.32329 57.3445 23.8275 C.3 0.0 **** -0.106
104 C19013 6.37085 64.41 38.4098 C.3 0.0 **** -0.106
105 C19016 8.34822 60.8371 39.846 C.2 0.0 **** 0.0
106 C18914 -7.23459 48.1018 21.6635 C.3 0.0 **** -0.106
107 C18951 0.209988 54.9919 28.5933 C.2 0.0 **** 0.0
108 C18967 1.01849 52.666 29.9303 C.2 0.0 **** -0.1268
109 C19015 4.74952 62.6114 37.5665 C.3 0.0 **** -0.106
110 H19062 -5.45409 46.8822 21.3195 H 0.0 **** 0.053
111 H19146 13.0907 65.6666 44.7157 H 0.0 **** 0.1268
112 H19093 1.15848 59.6693 29.4287 H 0.0 **** 0.1268
113 H19125 8.11158 62.3602 37.4744 H 0.0 **** 0.053
114 H19133 -6.97664 54.8441 25.6035 H 0.0 **** 0.053
115 C18939 -2.55704 52.5004 20.2747 C.3 0.0 **** -0.106
116 C19050 11.5451 67.2841 43.3 C.2 0.0 **** 0.347
117 C18933 -0.956648 53.5207 26.879 C.2 0.0 **** 0.0
118 C19022 -5.77029 56.3112 26.612 C.3 0.0 **** -0.159
119 H19054 -8.73161 49.7471 23.5507 H 0.0 **** 0.053
120 O18993 2.28327 51.6175 32.0496 O.3 0.0 **** -0.202
121 C18959 2.80156 57.7633 31.7686 C.2 0.0 **** 0.0
122 H19091 -2.37129 55.2241 24.2597 H 0.0 **** 0.1268
123 H19153 10.187 68.882 42.9989 H 0.0 **** 0.053
124 C18957 1.05545 55.0869 29.755 C.2 0.0 **** 0.0
125 H19078 -3.08662 52.2691 19.3299 H 0.0 **** 0.053
126 H19140 2.56469 61.0473 28.7903 H 0.0 **** 0.41
127 C19026 9.79888 57.2197 41.5479 C.2 0.0 **** -0.1268
128 C18971 3.54925 55.4421 33.2262 C.2 0.0 **** 0.0
129 C18991 3.85573 50.6595 33.5941 C.3 0.0 **** 0.107
130 H19121 5.08151 53.5207 35.641 H 0.0 **** 0.1268
131 C18937 -3.32661 53.8896 22.1998 C.2 0.0 **** 0.0
132 C18964 4.02779 59.181 33.3904 C.2 0.0 **** 0.0
133 H19148 8.21235 65.4343 39.9801 H 0.0 **** 0.1268
134 H19104 4.50124 63.5761 34.983 H 0.0 **** 0.053
135 O18915 -3.52469 48.6137 21.8968 O.3 0.0 **** -0.32
136 H19134 -6.24408 56.1009 27.5826 H 0.0 **** 0.053
137 H19122 6.29496 54.9121 37.2882 H 0.0 **** 0.1268
138 H19065 -7.59289 49.08 21.3029 H 0.0 **** 0.053
139 C18938 -3.12261 53.7544 20.857 C.2 0.0 **** 0.0
140 C19009 6.04168 62.0165 36.9779 C.3 0.0 **** -0.053
141 C18994 1.37661 50.7482 34.1694 C.3 0.0 **** -0.106
142 N18986 3.18884 65.854 34.1198 N.3 0.0 **** -0.727
143 H19130 4.1984 64.4249 38.6251 H 0.0 **** 0.053
144 C19036 11.7359 62.2457 43.4198 C.2 0.0 **** 0.0
145 C18922 -2.85665 50.3562 23.5325 C.3 0.0 **** -0.053
146 H19106 6.23311 65.6479 33.5405 H 0.0 **** 0.053
147 H19113 1.0901 51.8083 34.2272 H 0.0 **** 0.053
148 C18973 5.14426 58.1171 35.321 C.2 0.0 **** 0.0
149 C19003 6.26149 59.4867 37.0338 C.2 0.0 **** 0.0
150 C19021 -6.69991 55.9048 25.4611 C.3 0.0 **** -0.053
151 H19089 -4.21447 58.3005 22.2104 H 0.0 **** 0.053
152 C18921 -2.04145 50.6196 24.7786 C.2 0.0 **** 0.0
153 H19126 6.17253 62.7695 39.7646 H 0.0 **** 0.053
154 C18918 -3.86617 47.0905 24.0198 C.3 0.0 **** -0.106
155 H19114 0.480692 50.1876 33.8648 H 0.0 **** 0.053
156 C18969 2.29408 54.0092 31.6315 C.2 0.0 **** 0.0
157 H19152 11.7814 67.9283 40.5497 H 0.0 **** 0.053
158 C19000 5.91695 58.2314 36.5106 C.2 0.0 **** 0.0
159 C19010 7.18772 62.0719 38.0144 C.3 0.0 **** -0.053
160 C19049 11.1136 68.5181 42.5175 C.3 0.0 **** -0.086
161 H19066 -1.61571 49.0555 22.3835 H 0.0 **** 0.053
162 H19127 7.03773 64.7047 37.5818 H 0.0 **** 0.053
163 H19055 -6.99496 50.0827 23.4879 H 0.0 **** 0.053
164 H19131 3.92298 62.4703 36.8537 H 0.0 **** 0.053
165 C19040 11.7166 64.7231 43.3398 C.2 0.0 **** 0.0
166 C18946 -6.016 56.001 24.0812 C.3 0.0 **** -0.053
167 H19092 -0.100159 58.3515 27.91 H 0.0 **** 0.1268
168 H19064 -7.806 47.3383 21.1146 H 0.0 **** 0.053
169 H19097 3.94354 61.8228 30.4109 H 0.0 **** 0.053
170 H19088 -5.99209 58.1857 24.0662 H 0.0 **** 0.053
171 C19027 10.2887 58.4714 42.0486 C.2 0.0 **** 0.0
172 H19053 -6.65583 49.5958 25.7432 H 0.0 **** 0.053
173 C19012 6.94483 63.1636 39.0736 C.3 0.0 **** -0.053
174 C19002 5.97579 55.8033 36.7467 C.2 0.0 **** -0.1268
175 H19143 11.6286 57.6174 43.5034 H 0.0 **** 0.1268
176 H19107 6.33849 65.279 35.2675 H 0.0 **** 0.053
177 C18983 5.10243 63.9061 34.1183 C.3 0.0 **** -0.106
178 O19024 2.12089 61.5953 29.4558 O.3 0.0 **** -0.57
179 C19032 11.2465 58.5421 43.0654 C.2 0.0 **** -0.1268
180 C18963 3.726 60.2923 32.5476 C.2 0.0 **** 0.042
181 H19077 -1.50744 52.6761 19.9508 H 0.0 **** 0.053
182 C18940 -2.60644 51.3285 21.2053 C.2 0.0 **** -0.1268
183 C19031 11.7385 59.7719 43.5314 C.2 0.0 **** 0.0
184 C19038 10.2532 63.4089 41.8414 C.2 0.0 **** 0.0
185 C18916 -2.57608 48.9775 22.914 C.3 0.0 **** 0.107
186 C18979 2.13899 63.9621 31.0109 C.3 0.0 **** -0.106
187 H19110 2.72648 65.202 34.7546 H 0.0 **** 0.353
188 C19034 13.1948 61.0539 45.0029 C.2 0.0 **** -0.1268
189 C18998 5.174 55.6696 35.5699 C.2 0.0 **** 0.0
190 C18941 -3.50967 54.8728 19.9303 C.3 0.0 **** -0.106
191 C18905 -7.64524 49.2435 25.3889 C.3 0.0 **** 0.054
192 C19047 9.83094 67.1085 40.9486 C.3 0.0 **** -0.106
193 C18906 -7.74488 49.3617 23.8499 C.3 0.0 **** -0.106
194 H19084 -5.54409 53.906 23.7711 H 0.0 **** 0.053
195 C18950 -2.07781 54.3717 24.8719 C.2 0.0 **** -0.1268
196 C19048 10.8481 68.2388 41.0476 C.3 0.0 **** -0.106
197 H19081 -4.56054 54.7311 19.6054 H 0.0 **** 0.053
198 H19144 13.0915 58.9125 44.9966 H 0.0 **** 0.1268
199 C18966 1.45948 53.8993 30.4533 C.2 0.0 **** 0.0
200 H19079 -2.51626 50.3346 20.7702 H 0.0 **** 0.1268
201 C19043 8.6814 64.5227 40.3406 C.2 0.0 **** -0.1268
202 C19029 10.2736 60.9359 41.9315 C.2 0.0 **** 0.0
203 C18958 2.34564 56.4764 31.3479 C.2 0.0 **** 0.0
204 H19149 9.65889 66.8551 39.8931 H 0.0 **** 0.053
205 H19075 -2.40842 46.8324 26.8351 H 0.0 **** 0.053
206 C19004 5.79846 60.6474 36.4004 C.2 0.0 **** 0.0
207 H19061 -5.19881 49.7269 22.39 H 0.0 **** 0.053
208 C19028 9.78805 59.6831 41.4717 C.2 0.0 **** 0.0
209 C18996 2.87392 49.1037 35.3758 C.3 0.0 **** -0.106
210 C18981 3.35817 65.2151 32.814 C.3 0.0 **** 0.134
211 C18985 4.47517 66.2828 34.6897 C.3 0.0 **** 0.081
212 H19109 4.33081 66.4082 35.7731 H 0.0 **** 0.053
213 C18912 -4.88488 48.6657 22.3543 C.3 0.0 **** 0.107
214 O18990 4.01991 51.9444 34.2326 O.3 0.0 **** -0.202
215 C19035 12.7175 62.2795 44.4458 C.2 0.0 **** 0.0
216 C18945 -5.0065 54.8644 23.8842 C.3 0.0 **** -0.106
217 C18968 2.73077 55.2964 32.0661 C.2 0.0 **** 0.0
218 H19139 -8.50292 56.6229 26.4644 H 0.0 **** 0.053
219 C18927 -0.550855 48.6761 27.7764 C.3 0.0 **** -0.106
220 C19045 11.1998 65.9393 42.7464 C.2 0.0 **** 0.052
221 H19118 3.15415 48.6784 36.3507 H 0.0 **** 0.053
222 C19046 10.2834 65.8693 41.6884 C.2 0.0 **** 0.0
223 H19112 2.30035 49.656 32.5082 H 0.0 **** 0.053
224 H19056 -8.43893 47.4032 23.3336 H 0.0 **** 0.053
225 H19105 5.91155 63.1717 34.0056 H 0.0 **** 0.053
226 C18972 4.74802 59.3031 34.6337 C.2 0.0 **** 0.0
227 C18961 1.53675 58.7896 29.9401 C.2 0.0 **** -0.1268
228 H19090 -5.73786 57.5798 21.7072 H 0.0 **** 0.053
229 H19136 -4.80671 55.7801 26.5829 H 0.0 **** 0.053
230 H19142 10.176 56.3012 42.0011 H 0.0 **** 0.1268
231 C19011 7.5087 60.7828 38.7231 C.2 0.0 **** 0.0
232 C18988 3.55561 53.0153 33.5043 C.2 0.0 **** 0.042
233 O18930 -0.113779 51.3238 28.416 O.3 0.0 **** -0.464
234 H19111 4.56348 50.6086 32.7499 H 0.0 **** 0.053
235 H19069 -3.89867 46.2912 23.2627 H 0.0 **** 0.053
236 H19128 6.33697 65.2566 39.1102 H 0.0 **** 0.053
237 H19085 -4.4067 54.7449 24.7993 H 0.0 **** 0.053
238 H19138 -7.76445 57.806 25.3642 H 0.0 **** 0.053
239 C19017 8.83155 59.6272 40.42 C.2 0.0 **** 0.0
240 C19025 8.8963 57.1614 40.5226 C.2 0.0 **** -0.1268
241 O18910 -7.84856 47.8939 25.8214 O.3 0.0 **** -0.32
242 C18956 1.50158 56.3573 30.2127 C.2 0.0 **** 0.0
243 H19150 8.85826 67.4503 41.3503 H 0.0 **** 0.053
244 C18944 -4.1141 55.0488 22.6786 C.2 0.0 **** 0.0
245 C18936 -2.31758 53.0583 24.3665 C.2 0.0 **** 0.0
246 O19051 12.1056 67.4562 44.3836 O.2 0.0 **** -0.419
247 C18952 -0.208763 56.2122 27.9517 C.2 0.0 **** -0.012
248 H19117 2.38561 48.2931 34.8082 H 0.0 **** 0.053
249 H19073 -0.103287 46.5517 27.6947 H 0.0 **** 0.053
250 C18917 -2.49387 47.82 23.9251 C.3 0.0 **** -0.053
@<TRIPOS>BOND
1 63 65 1
2 211 212 1
3 222 220 un
4 118 229 1
5 33 11 1
6 129 234 1
7 206 149 un
8 65 193 1
9 33 63 1
10 241 33 1
11 191 193 1
12 191 241 1
13 213 42 1
14 78 213 1
15 106 78 1
16 63 42 1
17 65 106 1
18 185 135 1
19 250 185 1
20 154 250 1
21 213 135 1
22 42 154 1
23 17 41 un
24 152 17 un
25 145 152 un
26 250 41 1
27 185 145 1
28 57 12 1
29 35 57 un
30 83 35 un
31 152 12 un
32 17 83 un
33 52 219 1
34 82 52 1
35 41 82 1
36 83 219 1
37 72 233 1
38 30 72 un
39 117 30 un
40 35 233 1
41 57 117 un
42 6 10 un
43 245 6 2
44 145 10 1
45 12 245 un
46 139 131 2
47 115 139 1
48 182 115 1
49 6 131 1
50 10 182 2
51 79 190 1
52 98 79 1
53 244 98 2
54 139 190 1
55 131 244 1
56 166 216 1
57 103 166 1
58 27 103 1
59 244 216 1
60 98 27 1
61 195 74 un
62 245 195 un
63 117 74 un
64 247 107 un
65 47 247 1
66 74 47 un
67 30 107 un
68 43 89 un
69 242 43 un
70 124 242 un
71 247 89 un
72 107 124 un
73 121 203 un
74 55 121 un
75 227 55 un
76 242 203 un
77 43 227 un
78 180 88 un
79 132 180 un
80 61 132 un
81 55 88 un
82 121 61 un
83 108 199 un
84 72 108 un
85 124 199 un
86 156 217 un
87 199 156 un
88 203 217 un
89 128 96 un
90 217 128 un
91 61 96 un
92 148 226 un
93 29 148 un
94 96 29 un
95 132 226 un
96 66 40 1
97 68 66 1
98 45 68 1
99 180 40 1
100 88 45 1
101 87 186 1
102 210 87 1
103 70 210 1
104 68 186 1
105 66 70 1
106 58 177 1
107 211 58 1
108 142 211 1
109 70 177 1
110 210 142 1
111 232 37 un
112 60 232 un
113 128 60 un
114 156 37 un
115 129 214 1
116 32 129 1
117 120 32 1
118 232 214 1
119 37 120 1
120 81 141 1
121 209 81 1
122 99 209 1
123 32 141 1
124 129 99 1
125 93 189 un
126 60 93 un
127 29 189 un
128 22 158 un
129 174 22 un
130 189 174 un
131 148 158 un
132 90 206 un
133 226 90 un
134 158 149 un
135 46 15 1
136 18 46 un
137 22 15 1
138 149 18 1
139 159 140 1
140 231 159 1
141 206 140 1
142 18 231 un
143 104 173 1
144 80 104 1
145 109 80 1
146 159 173 1
147 140 109 1
148 239 105 1
149 84 239 1
150 46 84 un
151 231 105 un
152 173 49 1
153 105 97 un
154 49 97 un
155 166 150 1
156 150 118 1
157 150 48 1
158 45 178 1
159 127 240 1
160 171 127 un
161 208 171 1
162 84 240 un
163 239 208 un
164 19 202 un
165 183 19 1
166 179 183 un
167 208 202 un
168 171 179 un
169 188 85 un
170 215 188 1
171 144 215 1
172 183 85 un
173 19 144 un
174 184 1 un
175 3 184 un
176 202 3 un
177 144 1 un
178 102 165 un
179 75 102 un
180 215 75 un
181 1 165 un
182 36 201 un
183 184 36 un
184 97 3 un
185 49 201 un
186 36 222 un
187 165 220 un
188 196 192 1
189 160 196 1
190 116 160 1
191 222 192 1
192 220 116 1
193 116 246 2
194 191 59 1
195 191 172 1
196 193 119 1
197 193 163 1
198 65 224 1
199 63 8 1
200 33 73 1
201 42 34 1
202 213 207 1
203 78 110 1
204 78 86 1
205 106 168 1
206 106 138 1
207 185 161 1
208 250 25 1
209 154 56 1
210 154 235 1
211 145 4 1
212 219 16 1
213 219 26 1
214 52 249 1
215 52 67 1
216 82 205 1
217 82 13 1
218 115 181 1
219 115 125 1
220 182 200 1
221 190 23 1
222 190 197 1
223 79 54 1
224 79 9 1
225 216 194 1
226 216 237 1
227 166 71 1
228 103 94 1
229 103 170 1
230 27 151 1
231 27 228 1
232 195 122 1
233 89 167 1
234 227 112 1
235 108 44 1
236 66 21 1
237 68 53 1
238 45 169 1
239 186 24 1
240 186 69 1
241 87 95 1
242 87 5 1
243 210 38 1
244 70 91 1
245 177 134 1
246 177 225 1
247 58 146 1
248 58 176 1
249 211 77 1
250 142 187 1
251 32 223 1
252 141 147 1
253 141 155 1
254 81 64 1
255 81 31 1
256 209 248 1
257 209 221 1
258 99 28 1
259 99 101 1
260 93 130 1
261 174 137 1
262 90 14 1
263 140 2 1
264 159 113 1
265 173 153 1
266 104 162 1
267 104 236 1
268 80 7 1
269 80 143 1
270 109 164 1
271 109 76 1
272 150 114 1
273 118 136 1
274 118 39 1
275 48 20 1
276 48 238 1
277 48 218 1
278 178 126 1
279 240 92 1
280 127 230 1
281 179 175 1
282 85 198 1
283 188 51 1
284 102 111 1
285 75 62 1
286 201 133 1
287 192 204 1
288 192 243 1
289 196 100 1
290 196 157 1
291 160 123 1
292 160 50 1
@<TRIPOS>MOLECULE
Sketch 4
130 142
SMALL
USER_CHARGES


@<TRIPOS>ATOM
1 C4840 40.5559 41.3563 45.5771 C.ar 0.0 **** 0.042
2 H4889 44.3321 43.379 42.76 H 0.0 **** 0.053
3 H4907 37.1496 32.2929 37.6794 H 0.0 **** 0.053
4 C4864 37.1424 33.2687 38.184 C.3 0.0 **** -0.106
5 H4909 35.9172 35.0737 38.182 H 0.0 **** 0.053
6 C4854 33.8836 38.6013 52.4913 C.3 0.0 **** -0.106
7 H4912 37.6626 32.7941 35.7026 H 0.0 **** 0.053
8 H4911 39.1821 32.9735 34.8171 H 0.0 **** 0.053
9 H4926 45.0816 41.2416 41.8062 H 0.0 **** 0.41
10 H4916 37.1498 34.7633 40.211 H 0.0 **** 0.053
11 N4849 37.9024 40.6812 50.075 N.ar 0.0 **** -0.481
12 H4888 42.2359 44.2052 40.7519 H 0.0 **** 0.053
13 C4862 38.8783 43.9095 53.8238 C.ar 0.0 **** 0.0
14 C4878 36.6653 44.0741 55.0657 C.3 0.0 **** -0.159
15 H4899 33.6525 40.1083 54.0535 H 0.0 **** 0.053
16 C4829 42.788 41.9107 42.5976 C.2 0.0 **** 0.0
17 C4873 41.1703 45.9099 43.1314 C.3 0.0 **** -0.159
18 C4816 38.4791 33.9573 38.0043 C.ar 0.0 **** 0.0
19 O4876 38.1549 37.2037 45.2041 O.2 0.0 **** -0.419
20 C4866 38.7545 32.7341 35.799 C.3 0.0 **** -0.159
21 H4893 34.9924 37.4144 48.7986 H 0.0 **** 0.053
22 H4887 40.6575 43.9865 42.3521 H 0.0 **** 0.053
23 C4842 38.0539 39.659 47.8842 C.ar 0.0 **** 0.0
24 H4897 34.5523 37.9477 53.0761 H 0.0 **** 0.053
25 C4824 42.2286 38.3751 40.3569 C.ar 0.0 **** 0.0
26 H4885 41.1275 43.8455 44.8173 H 0.0 **** 0.053
27 H4936 37.1161 44.9666 55.5146 H 0.0 **** 0.053
28 H4914 37.8631 36.3805 40.1138 H 0.0 **** 0.053
29 O4877 39.2882 41.7245 48.0103 O.2 0.0 **** -0.419
30 C4839 39.6394 40.4131 46.0874 C.ar 0.0 **** 0.052
31 H4932 41.9971 46.4307 43.637 H 0.0 **** 0.053
32 C4848 37.3756 39.8255 49.1878 C.ar 0.0 **** 0.2405
33 C4867 38.0993 35.304 40.1431 C.3 0.0 **** -0.159
34 H4883 42.4537 36.1827 36.4674 H 0.0 **** 0.053
35 H4908 36.1237 34.3402 36.5806 H 0.0 **** 0.053
36 O4875 39.6914 37.8915 43.4493 O.3 0.0 **** -0.452
37 H4892 37.3479 36.8286 48.3163 H 0.0 **** 0.053
38 H4921 44.4857 37.8206 36.0844 H 0.0 **** 0.053
39 C4865 35.9761 34.1138 37.6477 C.3 0.0 **** -0.159
40 O4874 40.8907 42.3996 46.3261 O.3 0.0 **** -0.452
41 H4891 36.4526 36.8954 46.7933 H 0.0 **** 0.053
42 H4903 35.2457 42.1143 54.3295 H 0.0 **** 0.053
43 H4882 43.1225 35.0421 37.603 H 0.0 **** 0.053
44 C4831 41.1574 41.178 44.2724 C.ar 0.0 **** 0.0
45 C4825 41.4436 38.6337 41.4908 C.ar 0.0 **** -0.1268
46 C4822 44.2232 38.8291 38.9475 C.ar 0.0 **** 0.0
47 C4845 36.8081 37.5088 47.6308 C.3 0.0 **** -0.106
48 C4870 45.3548 39.7326 38.5103 C.3 0.0 **** -0.159
49 H4918 41.1881 34.4681 34.6626 H 0.0 **** 0.053
50 H4898 32.8608 38.2174 52.6244 H 0.0 **** 0.053
51 H4933 40.263 42.2982 47.1858 H 0.0 **** 0.41
52 C4853 34.2717 38.5307 51.0104 C.3 0.0 **** -0.106
53 H4922 44.7019 36.2281 36.824 H 0.0 **** 0.053
54 H4905 40.6779 43.6995 52.6594 H 0.0 **** 0.1268
55 C4844 38.4196 38.2834 45.8457 C.2 0.0 **** 0.367
56 C4827 42.7558 40.6138 41.9871 C.ar 0.0 **** 0.0
57 C4855 34.0104 40.0311 53.0146 C.3 0.0 **** -0.106
58 C4813 40.9906 35.1948 37.6786 C.ar 0.0 **** 0.0
59 C4832 40.9299 39.9687 43.5523 C.ar 0.0 **** 0.0
60 O4871 44.9485 40.752 40.979 O.3 0.0 **** -0.452
61 C4826 41.6749 39.7204 42.3325 C.ar 0.0 **** 0.0
62 H4895 33.4495 38.9369 50.3941 H 0.0 **** 0.053
63 H4930 40.3013 45.9225 43.806 H 0.0 **** 0.053
64 H4886 42.8451 44.0248 44.4731 H 0.0 **** 0.053
65 C4838 39.352 39.2503 45.3354 C.ar 0.0 **** 0.052
66 C4863 37.551 43.4657 54.003 C.ar 0.0 **** 0.0
67 H4925 46.2757 39.5584 39.0887 H 0.0 **** 0.053
68 H4938 38.9293 45.9347 54.6026 H 0.0 **** 0.053
69 H4939 40.5247 45.1693 54.4186 H 0.0 **** 0.053
70 C4850 37.2607 40.8967 51.2283 C.ar 0.0 **** 0.2405
71 C4820 42.3489 35.8293 37.5072 C.3 0.0 **** -0.106
72 H4896 34.3767 37.4773 50.7078 H 0.0 **** 0.053
73 C4851 36.0759 40.2159 51.5809 C.ar 0.0 **** 0.0
74 H4910 35.0134 33.5919 37.7625 H 0.0 **** 0.053
75 H4900 33.3867 40.707 52.4032 H 0.0 **** 0.053
76 H4920 45.8285 37.5354 37.2094 H 0.0 **** 0.053
77 C4823 43.4114 39.1505 40.0898 C.ar 0.0 **** 0.0
78 H4884 40.636 37.9621 41.7319 H 0.0 **** 0.1268
79 C4821 43.8933 37.7186 38.1772 C.ar 0.0 **** 0.0
80 H4924 45.5842 39.5901 37.4482 H 0.0 **** 0.053
81 C4811 39.2717 33.6694 36.8714 C.ar 0.0 **** 0.0
82 C4861 39.6549 43.3438 52.8001 C.ar 0.0 **** -0.1268
83 C4852 35.5394 39.2877 50.677 C.ar 0.0 **** 0.0
84 C4856 35.4656 40.4913 52.9356 C.3 0.0 **** -0.053
85 H4940 39.4509 44.703 55.7619 H 0.0 **** 0.053
86 H4904 39.7366 41.9457 51.1441 H 0.0 **** 0.1268
87 C4830 41.977 42.2012 43.6865 C.2 0.0 **** 0.0
88 H4937 36.4666 43.3564 55.88 H 0.0 **** 0.053
89 C4828 43.6931 40.1873 41.0134 C.ar 0.0 **** 0.042
90 H4919 41.3022 32.8163 35.2922 H 0.0 **** 0.053
91 H4901 36.0492 39.9076 53.6759 H 0.0 **** 0.053
92 H4929 44.0825 45.7414 42.665 H 0.0 **** 0.053
93 C4834 41.5497 44.4682 42.7848 C.ar 0.0 **** -0.053
94 C4818 41.879 37.2937 39.4906 C.ar 0.0 **** 0.0
95 C4860 39.1459 42.3608 51.9606 C.ar 0.0 **** -0.1268
96 C4872 43.6323 45.5443 41.6788 C.3 0.0 **** -0.159
97 H4880 39.7966 37.2852 39.908 H 0.0 **** 0.053
98 C4868 41.4267 33.8736 35.5623 C.3 0.0 **** -0.159
99 H4923 45.089 40.7861 38.6571 H 0.0 **** 0.053
100 H4913 39.006 31.6815 36.0179 H 0.0 **** 0.053
101 H4881 40.6867 36.0653 40.7692 H 0.0 **** 0.053
102 C4846 35.6578 38.1782 48.3777 C.3 0.0 **** -0.106
103 H4934 38.9918 37.3972 44.0798 H 0.0 **** 0.41
104 C4819 42.6996 36.9629 38.4356 C.ar 0.0 **** 0.0
105 C4857 35.6188 41.9675 53.3064 C.3 0.0 **** -0.106
106 C4858 37.0417 42.4505 53.1721 C.ar 0.0 **** 0.0
107 C4812 40.5438 34.2539 36.7297 C.ar 0.0 **** 0.0
108 H4894 35.0504 38.7637 47.6618 H 0.0 **** 0.053
109 C4833 41.8866 43.6636 44.0563 C.3 0.0 **** -0.106
110 C4814 40.1766 35.5285 38.7634 C.ar 0.0 **** 0.0
111 C4815 38.9248 34.9061 38.9422 C.ar 0.0 **** 0.0
112 C4817 40.6082 36.5485 39.7757 C.3 0.0 **** -0.106
113 H4902 34.9631 42.5684 52.6465 H 0.0 **** 0.053
114 C4869 44.7728 37.3054 37.0181 C.3 0.0 **** -0.159
115 C4837 39.9893 39.0169 44.0933 C.ar 0.0 **** 0.042
116 H4917 42.4895 34.0337 35.7823 H 0.0 **** 0.053
117 C4879 39.4785 44.9834 54.6968 C.3 0.0 **** -0.159
118 C4847 36.1876 39.0978 49.4455 C.ar 0.0 **** 0.0
119 C4841 39.0138 40.6595 47.3723 C.2 0.0 **** 0.367
120 H4915 38.6533 35.1403 41.0821 H 0.0 **** 0.053
121 C4843 37.776 38.539 47.1258 C.ar 0.0 **** 0.0
122 H4890 44.0761 42.8243 41.0956 H 0.0 **** 0.053
123 H4906 36.9761 33.0463 39.2483 H 0.0 **** 0.053
124 H4927 43.1099 46.4554 41.3561 H 0.0 **** 0.053
125 H4931 40.9106 46.4848 42.2296 H 0.0 **** 0.053
126 H4928 44.4524 45.3512 40.97 H 0.0 **** 0.053
127 H4935 35.687 44.3617 54.6513 H 0.0 **** 0.053
128 C4836 43.5594 43.0778 42.0263 C.3 0.0 **** -0.106
129 C4859 37.8346 41.9012 52.1429 C.ar 0.0 **** 0.0
130 C4835 42.6929 44.3359 41.7455 C.ar 0.0 **** -0.053
@<TRIPOS>BOND
1 73 84 1
2 58 107 am
3 110 58 am
4 111 110 am
5 18 111 am
6 81 107 am
7 81 18 am
8 94 112 1
9 104 94 am
10 71 104 1
11 110 112 1
12 58 71 1
13 46 79 am
14 77 46 am
15 25 77 am
16 104 79 am
17 94 25 am
18 61 45 am
19 56 61 am
20 89 56 am
21 25 45 am
22 77 89 am
23 87 16 1
24 44 87 1
25 59 44 am
26 56 16 1
27 61 59 am
28 93 109 1
29 130 93 am
30 128 130 1
31 87 109 1
32 16 128 1
33 65 115 am
34 30 65 am
35 1 30 am
36 59 115 am
37 44 1 am
38 23 119 1
39 121 23 am
40 55 121 1
41 30 119 1
42 65 55 1
43 102 47 1
44 118 102 1
45 32 118 am
46 121 47 1
47 23 32 am
48 70 11 am
49 73 70 am
50 83 73 am
51 32 11 am
52 118 83 am
53 6 52 1
54 57 6 1
55 84 57 1
56 83 52 1
57 106 105 1
58 129 106 am
59 70 129 am
60 84 105 1
61 82 95 am
62 13 82 am
63 66 13 am
64 129 95 am
65 106 66 am
66 18 4 1
67 4 39 1
68 81 20 1
69 111 33 1
70 107 98 1
71 79 114 1
72 46 48 1
73 89 60 1
74 130 96 1
75 93 17 1
76 1 40 1
77 115 36 1
78 55 19 2
79 119 29 2
80 66 14 1
81 13 117 1
82 112 97 1
83 112 101 1
84 71 43 1
85 71 34 1
86 45 78 1
87 109 26 1
88 109 64 1
89 93 22 1
90 130 12 1
91 128 2 1
92 128 122 1
93 47 41 1
94 47 37 1
95 102 21 1
96 102 108 1
97 52 62 1
98 52 72 1
99 6 24 1
100 6 50 1
101 57 15 1
102 57 75 1
103 84 91 1
104 105 113 1
105 105 42 1
106 95 86 1
107 82 54 1
108 4 123 1
109 4 3 1
110 39 35 1
111 39 5 1
112 39 74 1
113 20 8 1
114 20 7 1
115 20 100 1
116 33 28 1
117 33 120 1
118 33 10 1
119 98 116 1
120 98 49 1
121 98 90 1
122 114 76 1
123 114 38 1
124 114 53 1
125 48 99 1
126 48 80 1
127 48 67 1
128 60 9 1
129 96 124 1
130 96 126 1
131 96 92 1
132 17 63 1
133 17 125 1
134 17 31 1
135 40 51 1
136 36 103 1
137 14 127 1
138 14 27 1
139 14 88 1
140 117 68 1
141 117 69 1
142 117 85 1
@<TRIPOS>MOLECULE
Sketch 4
130 142
SMALL
USER_CHARGES


@<TRIPOS>ATOM
1 C1974 4.19919 2.99362 14.2038 C.ar 0.0 **** -0.053
2 C1988 12.376 0.265995 16.5862 C.ar 0.0 **** 0.2405
3 C1982 11.498 1.45603 16.5949 C.ar 0.0 **** 0.0
4 H2021 9.06532 9.45314 17.3679 H 0.0 **** 0.053
5 H2072 3.03699 1.1858 13.8051 H 0.0 **** 0.053
6 C1976 3.32998 4.50985 16.0728 C.3 0.0 **** -0.106
7 H2049 12.0115 11.9097 13.4043 H 0.0 **** 0.053
8 H2062 4.63106 12.7613 18.4194 H 0.0 **** 0.053
9 H2031 13.8584 3.86714 16.5134 H 0.0 **** 0.053
10 H2064 2.237 10.3506 17.4561 H 0.0 **** 0.053
11 C1968 4.57868 7.01234 17.3285 C.ar 0.0 **** 0.042
12 C1967 5.35577 5.92856 16.8489 C.ar 0.0 **** 0.0
13 H2075 12.9453 -6.88644 15.2457 H 0.0 **** 0.053
14 H2030 2.76108 5.43873 16.1764 H 0.0 **** 0.053
15 C1965 7.27245 7.41599 16.7971 C.ar 0.0 **** -0.1268
16 C1964 6.44001 8.52605 17.0061 C.ar 0.0 **** 0.0
17 C2002 10.658 -5.80093 17.4052 C.ar 0.0 **** 0.0
18 H2054 10.606 9.67207 14.9021 H 0.0 **** 0.053
19 C1959 6.21636 10.9297 17.2889 C.ar 0.0 **** 0.0
20 H2022 6.75031 12.7383 18.2916 H 0.0 **** 0.053
21 C1952 8.69649 13.7841 16.5162 C.ar 0.0 **** 0.0
22 C1971 7.01907 3.66569 16.3922 C.ar 0.0 **** 0.0
23 H2060 3.2051 11.7446 18.6637 H 0.0 **** 0.053
24 H2024 8.33468 7.56987 16.6996 H 0.0 **** 0.1268
25 H2034 14.0571 2.01365 14.8593 H 0.0 **** 0.053
26 H2069 1.61232 2.47418 15.247 H 0.0 **** 0.053
27 C1987 13.7451 0.420977 16.2566 C.ar 0.0 **** 0.0
28 H2061 3.54369 12.433 17.0632 H 0.0 **** 0.053
29 H2045 9.07248 -4.64647 18.2951 H 0.0 **** 0.1268
30 H2067 1.36322 3.08182 13.5925 H 0.0 **** 0.053
31 H2076 11.912 -7.87218 16.3012 H 0.0 **** 0.053
32 O2014 7.2646 1.27401 16.4176 O.3 0.0 **** -0.452
33 C2008 7.85545 14.9964 16.8477 C.3 0.0 **** -0.159
34 C1955 10.2936 11.5288 15.9647 C.ar 0.0 **** 0.0
35 O2017 9.44223 0.217071 16.3832 O.2 0.0 **** -0.419
36 H2035 16.1286 -0.387433 14.8113 H 0.0 **** 0.053
37 H2036 16.4733 0.244535 16.4146 H 0.0 **** 0.053
38 H2057 7.09819 14.7747 17.6099 H 0.0 **** 0.053
39 C1963 5.04226 8.35088 17.3016 C.ar 0.0 **** 0.0
40 C1954 8.97309 11.3734 16.4322 C.ar 0.0 **** 0.0
41 C1997 13.9105 -4.40994 15.9391 C.3 0.0 **** -0.106
42 C1977 9.06529 5.00612 16.6807 C.ar 0.0 **** 0.042
43 H2037 16.9796 -1.94836 17.3067 H 0.0 **** 0.053
44 H2071 3.22545 2.24994 12.3922 H 0.0 **** 0.053
45 O2015 9.701 6.16742 16.8126 O.3 0.0 **** -0.452
46 C1958 7.00011 9.84043 16.9804 C.ar 0.0 **** 0.0
47 C1961 4.82615 10.7594 17.6068 C.ar 0.0 **** 0.0
48 C1999 11.9472 -3.3197 17.0457 C.ar 0.0 **** 0.0
49 C1980 7.83657 2.47162 16.4322 C.ar 0.0 **** 0.042
50 H2050 13.3726 13.0657 13.4003 H 0.0 **** 0.053
51 H2047 12.6197 13.9848 15.6017 H 0.0 **** 0.053
52 C1960 6.78461 12.3248 17.2645 C.3 0.0 **** -0.106
53 C2001 10.0579 -4.60349 17.8259 C.ar 0.0 **** -0.1268
54 C1998 12.5707 -4.51292 16.6247 C.ar 0.0 **** 0.0
55 H2078 9.70816 -7.60381 16.6581 H 0.0 **** 0.053
56 H2041 14.9852 -3.49968 17.5458 H 0.0 **** 0.053
57 C1951 9.99424 13.9468 15.9972 C.ar 0.0 **** 0.0
58 H2058 7.3203 15.3744 15.9585 H 0.0 **** 0.053
59 C2009 4.01038 11.9838 17.9576 C.3 0.0 **** -0.159
60 H2053 11.0437 15.7789 16.5386 H 0.0 **** 0.053
61 H2026 4.20552 1.93565 16.1026 H 0.0 **** 0.053
62 C1969 4.79084 4.68298 16.4187 C.2 0.0 **** 0.0
63 H2023 6.09899 12.9724 16.692 H 0.0 **** 0.053
64 H2029 2.88951 3.77431 16.7737 H 0.0 **** 0.053
65 C2000 10.6812 -3.37525 17.6442 C.ar 0.0 **** -0.1268
66 H2077 13.4735 -7.26942 16.8896 H 0.0 **** 0.053
67 C2019 9.92906 -7.10473 17.6159 C.3 0.0 **** -0.159
68 H2073 8.09681 0.602896 16.4006 H 0.0 **** 0.41
69 H2063 2.33313 8.65109 16.9666 H 0.0 **** 0.053
70 H2033 15.3441 1.86501 16.0585 H 0.0 **** 0.053
71 C1956 10.8141 12.8203 15.7662 C.ar 0.0 **** 0.0
72 C2018 12.5905 -7.01169 16.2801 C.3 0.0 **** -0.159
73 C2003 11.9245 -5.75271 16.7853 C.ar 0.0 **** 0.0
74 H2020 8.62747 9.40751 15.6862 H 0.0 **** 0.053
75 H2040 15.885 -3.0503 14.6586 H 0.0 **** 0.053
76 C1970 5.60508 3.58994 16.1539 C.2 0.0 **** 0.0
77 C1986 14.2572 1.79754 15.9259 C.3 0.0 **** -0.106
78 C1992 14.5603 -0.722442 16.2253 C.ar 0.0 **** 0.0
79 C1995 16.0877 -3.12824 15.7414 C.3 0.0 **** -0.106
80 C1972 7.62641 4.94073 16.5875 C.ar 0.0 **** 0.0
81 H2025 5.65112 1.67818 15.1306 H 0.0 **** 0.053
82 H2039 16.6925 -4.03592 15.8952 H 0.0 **** 0.053
83 H2042 13.7566 -4.25059 14.854 H 0.0 **** 0.053
84 C1983 12.0724 2.7083 16.6883 C.ar 0.0 **** 0.0
85 C1962 4.22547 9.50534 17.5608 C.ar 0.0 **** 0.0
86 C1994 16.8322 -1.88129 16.2158 C.3 0.0 **** -0.106
87 O2011 3.34588 6.77289 17.8933 O.3 0.0 **** -0.452
88 C1966 6.7828 6.11295 16.7251 C.ar 0.0 **** 0.0
89 H2052 11.1984 15.3294 14.831 H 0.0 **** 0.053
90 C2013 3.73491 1.85993 13.2864 C.3 0.0 **** -0.159
91 H2074 10.7309 5.90671 16.8627 H 0.0 **** 0.41
92 C2006 10.505 15.3369 15.6821 C.3 0.0 **** -0.159
93 N1989 11.8349 -0.926687 16.872 N.ar 0.0 **** -0.481
94 H2068 0.934142 4.0978 14.9904 H 0.0 **** 0.053
95 C2012 1.66681 3.37028 14.6083 C.3 0.0 **** -0.159
96 H2065 2.40209 9.06517 18.677 H 0.0 **** 0.053
97 C2005 12.3398 12.9027 13.7458 C.3 0.0 **** -0.159
98 H2066 3.27741 5.82227 18.0758 H 0.0 **** 0.41
99 C1979 9.24159 2.55814 16.5244 C.ar 0.0 **** 0.052
100 C2010 2.72145 9.39231 17.675 C.3 0.0 **** -0.159
101 H2070 4.59687 1.2623 12.9545 H 0.0 **** 0.053
102 O2016 11.867 5.06342 16.8629 O.2 0.0 **** -0.419
103 C1975 3.0761 3.97041 14.6385 C.ar 0.0 **** -0.053
104 H2044 10.2011 -2.44236 17.9395 H 0.0 **** 0.1268
105 C1978 9.85081 3.82946 16.6376 C.ar 0.0 **** 0.052
106 H2056 12.1134 10.4943 15.3328 H 0.0 **** 0.053
107 C1991 13.9754 -1.97011 16.4849 C.ar 0.0 **** 0.0
108 H2059 8.47249 15.8219 17.2273 H 0.0 **** 0.053
109 C1957 8.44842 9.97935 16.6135 C.3 0.0 **** -0.106
110 H2043 14.4782 -5.34573 16.0367 H 0.0 **** 0.053
111 H2055 11.1674 9.63747 16.5706 H 0.0 **** 0.053
112 H2032 13.8561 2.70728 17.8476 H 0.0 **** 0.053
113 H2080 10.5264 -7.81152 18.2139 H 0.0 **** 0.053
114 C1996 14.7601 -3.26155 16.4866 C.3 0.0 **** -0.053
115 C1993 16.0321 -0.61591 15.8881 C.3 0.0 **** -0.106
116 H2048 11.6898 13.6479 13.2623 H 0.0 **** 0.053
117 C2004 12.2341 13.0092 15.2753 C.3 0.0 **** -0.106
118 C1953 8.18419 12.4882 16.7247 C.ar 0.0 **** 0.0
119 H2051 9.68347 16.0184 15.4274 H 0.0 **** 0.053
120 H2027 4.94756 3.58268 13.6486 H 0.0 **** 0.053
121 H2038 17.8314 -1.81582 15.7592 H 0.0 **** 0.053
122 C1981 10.0276 1.33967 16.501 C.2 0.0 **** 0.367
123 H2046 12.8938 12.2631 15.7422 H 0.0 **** 0.053
124 C1973 4.93438 2.43897 15.4405 C.3 0.0 **** -0.106
125 C1985 13.5635 2.84699 16.7899 C.3 0.0 **** -0.106
126 H2028 3.09273 4.83389 13.9549 H 0.0 **** 0.053
127 C1990 12.6 -2.02093 16.7971 C.ar 0.0 **** 0.2405
128 H2079 8.97623 -6.93642 18.1358 H 0.0 **** 0.053
129 C2007 11.0967 10.2817 15.6788 C.3 0.0 **** -0.159
130 C1984 11.2811 3.92906 16.7317 C.2 0.0 **** 0.367
@<TRIPOS>BOND
1 73 72 1
2 95 94 1
3 118 21 am
4 40 118 am
5 34 40 am
6 71 34 am
7 57 21 am
8 57 71 am
9 46 109 1
10 19 46 am
11 52 19 1
12 40 109 1
13 118 52 1
14 85 47 am
15 39 85 am
16 16 39 am
17 19 47 am
18 46 16 am
19 88 15 am
20 12 88 am
21 11 12 am
22 16 15 am
23 39 11 am
24 76 62 1
25 22 76 1
26 80 22 am
27 12 62 1
28 88 80 am
29 1 124 1
30 103 1 am
31 6 103 1
32 76 124 1
33 62 6 1
34 105 42 am
35 99 105 am
36 49 99 am
37 80 42 am
38 22 49 am
39 3 122 1
40 84 3 am
41 130 84 1
42 99 122 1
43 105 130 1
44 77 125 1
45 27 77 1
46 2 27 am
47 84 125 1
48 3 2 am
49 127 93 am
50 107 127 am
51 78 107 am
52 2 93 am
53 27 78 am
54 86 115 1
55 79 86 1
56 114 79 1
57 78 115 1
58 107 114 1
59 54 41 1
60 48 54 am
61 127 48 am
62 114 41 1
63 53 65 am
64 17 53 am
65 73 17 am
66 48 65 am
67 54 73 am
68 71 117 1
69 117 97 1
70 57 92 1
71 34 129 1
72 21 33 1
73 47 59 1
74 85 100 1
75 11 87 1
76 103 95 1
77 1 90 1
78 49 32 1
79 42 45 1
80 130 102 2
81 122 35 2
82 17 67 1
83 109 74 1
84 109 4 1
85 52 20 1
86 52 63 1
87 15 24 1
88 124 81 1
89 124 61 1
90 1 120 1
91 103 126 1
92 6 64 1
93 6 14 1
94 125 9 1
95 125 112 1
96 77 70 1
97 77 25 1
98 115 36 1
99 115 37 1
100 86 43 1
101 86 121 1
102 79 82 1
103 79 75 1
104 114 56 1
105 41 83 1
106 41 110 1
107 65 104 1
108 53 29 1
109 117 123 1
110 117 51 1
111 97 116 1
112 97 7 1
113 97 50 1
114 92 119 1
115 92 89 1
116 92 60 1
117 129 18 1
118 129 111 1
119 129 106 1
120 33 38 1
121 33 58 1
122 33 108 1
123 59 23 1
124 59 28 1
125 59 8 1
126 100 69 1
127 100 10 1
128 100 96 1
129 87 98 1
130 95 30 1
131 95 26 1
132 90 101 1
133 90 44 1
134 90 5 1
135 32 68 1
136 45 91 1
137 72 13 1
138 72 31 1
139 72 66 1
140 67 55 1
141 67 128 1
142 67 113 1
@<TRIPOS>MOLECULE
Sketch 4
130 142
SMALL
USER_CHARGES


@<TRIPOS>ATOM
1 H244 21.8845 12.1792 16.7879 H 0.0 **** 0.053
2 H216 32.7335 25.5129 20.0125 H 0.0 **** 0.053
3 C157 27.5651 18.5116 18.6375 C.ar 0.0 **** 0.042
4 C193 30.1046 12.6686 21.6778 C.3 0.0 **** -0.159
5 C177 34.6961 23.6344 24.6035 C.3 0.0 **** -0.106
6 C182 33.1957 21.6227 27.4959 C.ar 0.0 **** 0.0
7 H210 25.6383 12.6801 20.2079 H 0.0 **** 0.053
8 H227 24.8821 19.9985 9.4177 H 0.0 **** 0.053
9 C158 28.4772 19.3328 19.3425 C.ar 0.0 **** 0.052
10 C145 25.6139 16.6806 17.268 C.ar 0.0 **** -0.1268
11 C162 30.3032 21.0647 20.7618 C.ar 0.0 **** 0.0
12 H208 27.8071 12.0308 19.6732 H 0.0 **** 0.053
13 O191 23.7871 13.8112 19.6052 O.3 0.0 **** -0.452
14 C178 33.7675 22.7832 25.4336 C.ar 0.0 **** 0.0
15 C160 28.6811 17.6401 21.085 C.ar 0.0 **** 0.042
16 H204 25.9627 17.5506 16.736 H 0.0 **** 0.1268
17 C149 26.5195 14.6729 20.2546 C.2 0.0 **** 0.0
18 H240 20.5284 13.4063 15.7909 H 0.0 **** 0.053
19 C155 27.7187 12.4396 20.6921 C.ar 0.0 **** -0.053
20 C153 28.511 14.637 21.6848 C.3 0.0 **** -0.106
21 H205 29.3913 15.2224 21.9513 H 0.0 **** 0.053
22 C174 34.1237 26.0087 21.5965 C.3 0.0 **** -0.106
23 H228 26.5834 18.1513 9.03745 H 0.0 **** 0.053
24 H217 33.3529 26.6468 22.0599 H 0.0 **** 0.053
25 H215 34.2071 24.5555 19.99 H 0.0 **** 0.053
26 H226 25.7663 20.5235 10.8325 H 0.0 **** 0.053
27 C188 21.7915 16.2498 10.7099 C.3 0.0 **** -0.159
28 C173 33.4509 24.9933 20.6664 C.3 0.0 **** -0.106
29 H224 30.8632 21.0374 25.0482 H 0.0 **** 0.1268
30 C147 25.7166 15.2081 19.1941 C.ar 0.0 **** 0.0
31 H241 21.5343 12.8829 14.4256 H 0.0 **** 0.053
32 H211 29.8866 22.7961 17.8947 H 0.0 **** 0.053
33 H249 27.5402 11.6218 22.7048 H 0.0 **** 0.053
34 H202 21.477 16.2275 13.5919 H 0.0 **** 0.053
35 H209 26.086 13.279 21.8154 H 0.0 **** 0.053
36 C137 24.8039 17.3039 14.6331 C.3 0.0 **** -0.106
37 C136 24.764 18.6341 11.0814 C.ar 0.0 **** 0.0
38 C133 23.3129 16.8025 12.6577 C.ar 0.0 **** 0.0
39 C167 31.8581 23.0183 20.7264 C.ar 0.0 **** 0.0
40 C184 25.5215 19.6341 10.2334 C.3 0.0 **** -0.106
41 C186 23.4071 18.0028 9.03301 C.3 0.0 **** -0.159
42 C161 29.9491 19.7432 21.3209 C.2 0.0 **** 0.367
43 H238 22.1123 15.3234 10.2013 H 0.0 **** 0.053
44 O196 28.3234 21.0521 17.7119 O.2 0.0 **** -0.419
45 O197 30.4358 19.3175 22.4158 O.2 0.0 **** -0.419
46 C131 23.7195 17.8752 10.509 C.ar 0.0 **** 0.0
47 H206 28.0139 14.3635 22.634 H 0.0 **** 0.053
48 C170 32.3349 22.5702 23.3982 C.ar 0.0 **** 0.2405
49 C165 30.1071 22.7936 18.9696 C.3 0.0 **** -0.106
50 H229 27.4909 18.721 10.4506 H 0.0 **** 0.053
51 H207 29.32 13.6815 19.9667 H 0.0 **** 0.053
52 H219 35.4589 26.0136 23.3234 H 0.0 **** 0.053
53 H222 35.4119 22.9814 24.0671 H 0.0 **** 0.053
54 C190 22.3765 12.8278 17.5214 C.3 0.0 **** -0.159
55 C159 29.0304 18.9072 20.5726 C.ar 0.0 **** 0.052
56 C192 27.5889 11.2627 21.6643 C.3 0.0 **** -0.159
57 C189 21.224 13.7606 15.0197 C.3 0.0 **** -0.159
58 C175 34.9023 25.2953 22.7008 C.3 0.0 **** -0.106
59 H250 30.9647 13.3509 21.7484 H 0.0 **** 0.053
60 H225 31.3657 20.4888 27.4367 H 0.0 **** 0.1268
61 H253 29.7726 18.0929 22.5562 H 0.0 **** 0.41
62 N169 31.4479 21.7919 22.7689 N.ar 0.0 **** -0.481
63 C172 32.7534 23.8668 21.3983 C.ar 0.0 **** 0.0
64 C142 22.9067 14.084 16.8664 C.ar 0.0 **** 0.0
65 H239 21.2659 16.8613 9.96409 H 0.0 **** 0.053
66 C198 35.355 22.9614 27.3857 C.3 0.0 **** -0.159
67 H237 21.0587 15.9613 11.4737 H 0.0 **** 0.053
68 H200 25.8902 17.1093 14.6649 H 0.0 **** 0.053
69 C132 22.9667 16.9923 11.3051 C.ar 0.0 **** 0.0
70 H247 28.4355 10.5669 21.5848 H 0.0 **** 0.053
71 H213 31.7873 24.1498 18.8836 H 0.0 **** 0.053
72 H221 33.3164 25.2 24.1448 H 0.0 **** 0.053
73 H255 36.218 22.7835 26.7261 H 0.0 **** 0.053
74 H233 22.6828 18.8127 8.8365 H 0.0 **** 0.053
75 O194 29.1307 17.283 22.2817 O.3 0.0 **** -0.452
76 H201 24.6937 18.2594 15.1821 H 0.0 **** 0.053
77 H254 27.5036 19.9452 17.3887 H 0.0 **** 0.41
78 H235 25.9205 19.7195 13.9774 H 0.0 **** 0.053
79 C187 26.2581 19.1664 13.0855 C.3 0.0 **** -0.159
80 C181 32.0383 21.135 26.8685 C.ar 0.0 **** -0.1268
81 H260 33.5729 22.1341 29.5719 H 0.0 **** 0.053
82 C185 26.8114 19.0397 9.64609 C.3 0.0 **** -0.159
83 C183 34.0773 22.4466 26.7644 C.ar 0.0 **** 0.0
84 C151 27.8144 16.7504 20.3414 C.ar 0.0 **** 0.0
85 H203 22.3915 14.8916 12.9462 H 0.0 **** 0.053
86 C135 25.1129 18.4319 12.4289 C.ar 0.0 **** 0.0
87 H257 35.3059 24.0503 27.5575 H 0.0 **** 0.053
88 O195 27.0638 18.9831 17.4988 O.3 0.0 **** -0.452
89 H242 20.6604 14.419 14.3474 H 0.0 **** 0.053
90 C152 27.1943 17.2115 19.1433 C.ar 0.0 **** 0.0
91 H223 35.2992 24.2978 25.2389 H 0.0 **** 0.053
92 C171 33.01 23.6304 22.7564 C.ar 0.0 **** 0.0
93 H252 29.8197 12.3784 22.7002 H 0.0 **** 0.053
94 C141 22.4123 14.4735 15.6257 C.ar 0.0 **** 0.0
95 H232 24.3085 18.2235 8.44665 H 0.0 **** 0.053
96 C156 26.3959 13.2514 20.7527 C.3 0.0 **** -0.106
97 H245 21.6567 13.0478 18.3253 H 0.0 **** 0.053
98 C139 23.0342 15.5289 14.8759 C.ar 0.0 **** 0.0
99 H236 26.7556 19.8749 12.4155 H 0.0 **** 0.053
100 H256 35.5644 22.484 28.3499 H 0.0 **** 0.053
101 H243 23.1916 12.2561 17.9806 H 0.0 **** 0.053
102 H220 35.6428 24.6109 22.2504 H 0.0 **** 0.053
103 H248 26.6642 10.7006 21.4615 H 0.0 **** 0.053
104 C163 29.764 21.4531 19.5513 C.ar 0.0 **** 0.0
105 C134 24.3891 17.5045 13.205 C.ar 0.0 **** 0.0
106 C176 33.9469 24.4861 23.5771 C.3 0.0 **** -0.053
107 C148 24.5139 14.6062 18.7473 C.ar 0.0 **** 0.042
108 C179 32.6044 22.2756 24.8178 C.ar 0.0 **** 0.0
109 C180 31.7437 21.4434 25.5463 C.ar 0.0 **** -0.1268
110 C138 24.1079 16.2158 15.3967 C.ar 0.0 **** 0.0
111 H212 29.4486 23.5535 19.4308 H 0.0 **** 0.053
112 C154 28.9451 13.3528 20.9499 C.ar 0.0 **** -0.053
113 C140 22.5104 15.8396 13.4978 C.3 0.0 **** -0.106
114 C168 31.226 21.9849 21.461 C.ar 0.0 **** 0.2405
115 H218 34.7794 26.6699 21.01 H 0.0 **** 0.053
116 H251 30.4316 11.7609 21.1482 H 0.0 **** 0.053
117 C143 23.9869 14.8309 17.4515 C.ar 0.0 **** 0.0
118 C164 28.8266 20.6213 18.8113 C.2 0.0 **** 0.367
119 H234 27.0236 18.4566 13.4402 H 0.0 **** 0.053
120 H230 27.3399 19.769 9.01262 H 0.0 **** 0.053
121 H231 22.9762 17.0765 8.63227 H 0.0 **** 0.053
122 H214 32.2215 22.4492 18.6941 H 0.0 **** 0.053
123 C146 26.1911 16.3831 18.5013 C.ar 0.0 **** 0.0
124 H258 34.4114 20.6748 29.0237 H 0.0 **** 0.053
125 H259 32.6598 20.6232 29.3303 H 0.0 **** 0.053
126 C199 33.4723 21.2445 28.9297 C.3 0.0 **** -0.159
127 H246 24.12 13.9558 20.5051 H 0.0 **** 0.41
128 C144 24.5911 15.9026 16.7045 C.ar 0.0 **** 0.0
129 C150 27.571 15.4071 20.7866 C.2 0.0 **** 0.0
130 C166 31.5654 23.1416 19.2548 C.3 0.0 **** -0.106
@<TRIPOS>BOND
1 42 45 2
2 79 78 1
3 112 20 1
4 19 112 am
5 118 104 1
6 38 69 am
7 105 38 am
8 86 105 am
9 37 86 am
10 46 69 am
11 46 37 am
12 110 36 1
13 98 110 am
14 113 98 1
15 105 36 1
16 38 113 1
17 64 94 am
18 117 64 am
19 128 117 am
20 98 94 am
21 110 128 am
22 123 10 am
23 30 123 am
24 107 30 am
25 128 10 am
26 117 107 am
27 129 17 1
28 84 129 1
29 90 84 am
30 30 17 1
31 123 90 am
32 96 19 1
33 129 20 1
34 17 96 1
35 9 3 am
36 55 9 am
37 15 55 am
38 90 3 am
39 84 15 am
40 11 42 1
41 104 11 am
42 55 42 1
43 9 118 1
44 130 49 1
45 39 130 1
46 114 39 am
47 104 49 1
48 11 114 am
49 48 62 am
50 92 48 am
51 63 92 am
52 114 62 am
53 39 63 am
54 22 28 1
55 58 22 1
56 106 58 1
57 63 28 1
58 92 106 1
59 14 5 1
60 108 14 am
61 48 108 am
62 106 5 1
63 80 109 am
64 6 80 am
65 83 6 am
66 108 109 am
67 14 83 am
68 37 40 1
69 40 82 1
70 46 41 1
71 86 79 1
72 69 27 1
73 94 57 1
74 64 54 1
75 107 13 1
76 19 56 1
77 112 4 1
78 15 75 1
79 3 88 1
80 118 44 2
81 83 66 1
82 6 126 1
83 36 68 1
84 36 76 1
85 113 34 1
86 113 85 1
87 10 16 1
88 20 21 1
89 20 47 1
90 112 51 1
91 19 12 1
92 96 35 1
93 96 7 1
94 49 32 1
95 49 111 1
96 130 71 1
97 130 122 1
98 28 25 1
99 28 2 1
100 22 24 1
101 22 115 1
102 58 52 1
103 58 102 1
104 106 72 1
105 5 53 1
106 5 91 1
107 109 29 1
108 80 60 1
109 40 26 1
110 40 8 1
111 82 23 1
112 82 50 1
113 82 120 1
114 41 121 1
115 41 95 1
116 41 74 1
117 79 119 1
118 79 99 1
119 27 67 1
120 27 43 1
121 27 65 1
122 57 18 1
123 57 31 1
124 57 89 1
125 54 101 1
126 54 1 1
127 54 97 1
128 13 127 1
129 56 70 1
130 56 103 1
131 56 33 1
132 4 59 1
133 4 116 1
134 4 93 1
135 75 61 1
136 88 77 1
137 66 73 1
138 66 100 1
139 66 87 1
140 126 124 1
141 126 125 1
142 126 81 1
@<TRIPOS>MOLECULE
Sketch 4
130 142
SMALL
USER_CHARGES


@<TRIPOS>ATOM
1 H5679 17.2002 48.0828 -6.26624 H 0.0 **** 0.053
2 C5645 14.2179 46.8549 11.0566 C.3 0.0 **** -0.159
3 H5686 14.5673 45.0092 9.97357 H 0.0 **** 0.053
4 H5708 2.16538 48.2211 3.18029 H 0.0 **** 0.053
5 H5673 16.2564 46.7551 -0.43422 H 0.0 **** 0.053
6 C5617 10.1817 45.873 3.0293 C.ar 0.0 **** 0.042
7 H5707 2.63149 49.7732 2.44275 H 0.0 **** 0.053
8 H5685 9.391 46.347 -6.71385 H 0.0 **** 0.1268
9 H5704 3.70154 44.4081 8.65528 H 0.0 **** 0.053
10 C5659 10.1255 47.4777 -9.04195 C.3 0.0 **** -0.159
11 H5690 15.2834 47.0928 11.1996 H 0.0 **** 0.053
12 C5622 12.361 46.5586 -0.618862 C.ar 0.0 **** 0.0
13 H5663 7.78451 44.3559 11.0426 H 0.0 **** 0.053
14 C5609 5.92904 46.4636 3.1296 C.2 0.0 **** 0.0
15 C5637 14.4042 48.2928 -6.40489 C.3 0.0 **** -0.106
16 C5608 5.80833 45.0951 5.22993 C.ar 0.0 **** 0.042
17 H5666 5.1809 47.3914 0.566463 H 0.0 **** 0.053
18 H5692 13.166 45.3527 13.2941 H 0.0 **** 0.053
19 C5646 12.41 44.5643 13.1839 C.3 0.0 **** -0.159
20 C5611 8.07634 46.5664 1.95524 C.ar 0.0 **** 0.0
21 C5658 12.8838 48.5948 -8.8999 C.3 0.0 **** -0.159
22 H5662 8.29008 42.8051 10.4287 H 0.0 **** 0.053
23 H5698 9.22372 44.4853 13.4324 H 0.0 **** 0.053
24 C5623 13.0119 46.1659 0.533935 C.ar 0.0 **** 0.0
25 C5602 5.61204 44.3614 7.64177 C.ar 0.0 **** 0.0
26 H5672 14.6945 44.9243 0.142565 H 0.0 **** 0.053
27 H5720 10.6233 47.0073 -9.90498 H 0.0 **** 0.053
28 C5640 11.1304 46.6117 -5.47606 C.ar 0.0 **** -0.1268
29 H5665 6.67711 48.3039 0.394349 H 0.0 **** 0.053
30 C5633 16.7817 47.405 -2.87537 C.3 0.0 **** -0.106
31 C5649 5.53914 43.4617 9.9937 C.3 0.0 **** -0.159
32 C5618 10.8845 46.1158 1.82492 C.ar 0.0 **** 0.052
33 C5605 8.55708 45.3597 5.50569 C.ar 0.0 **** -0.1268
34 C5627 14.5504 46.968 -1.74767 C.ar 0.0 **** 0.0
35 C5653 4.92925 50.1833 1.11467 C.3 0.0 **** -0.159
36 C5624 12.3064 45.9137 1.78172 C.2 0.0 **** 0.367
37 H5689 13.8492 47.4192 10.187 H 0.0 **** 0.053
38 H5675 16.9782 48.4006 -2.43818 H 0.0 **** 0.053
39 H5674 15.0813 47.9733 0.0673209 H 0.0 **** 0.053
40 H5700 4.66614 42.8742 9.68265 H 0.0 **** 0.053
41 H5713 8.93461 47.1411 -1.12297 H 0.0 **** 0.41
42 H5668 4.44468 48.9401 3.92953 H 0.0 **** 0.053
43 C5632 15.2841 47.1905 -2.92459 C.ar 0.0 **** 0.0
44 C5636 15.2857 47.4621 -5.47046 C.3 0.0 **** -0.053
45 C5610 6.68365 46.903 2.05012 C.2 0.0 **** 0.0
46 C5643 12.2692 47.8764 -7.72091 C.ar 0.0 **** 0.0
47 H5705 3.68031 43.48 7.13597 H 0.0 **** 0.053
48 C5647 12.6474 45.6036 8.20716 C.3 0.0 **** -0.159
49 H5703 3.71755 45.2402 7.0918 H 0.0 **** 0.053
50 H5680 16.563 49.1298 -4.98165 H 0.0 **** 0.053
51 C5597 9.91914 44.9213 7.94291 C.3 0.0 **** -0.106
52 H5706 4.37274 44.7001 4.02535 H 0.0 **** 0.41
53 N5629 12.5086 46.7731 -3.02715 N.ar 0.0 **** -0.481
54 H5667 6.22642 49.3888 2.61658 H 0.0 **** 0.053
55 C5644 13.9998 45.3472 10.8531 C.3 0.0 **** -0.106
56 H5682 14.3475 49.3267 -6.01221 H 0.0 **** 0.053
57 C5625 14.4964 45.9444 0.522141 C.3 0.0 **** -0.106
58 H5696 13.7004 45.8326 8.40006 H 0.0 **** 0.053
59 H5688 13.6613 47.2088 11.9379 H 0.0 **** 0.053
60 C5614 5.39755 49.019 1.99082 C.ar 0.0 **** -0.053
61 C5648 9.65968 43.665 12.8349 C.3 0.0 **** -0.159
62 C5596 12.5358 44.9972 10.6875 C.ar 0.0 **** 0.0
63 H5664 9.63181 45.356 5.58612 H 0.0 **** 0.1268
64 H5661 10.4367 44.2589 7.22191 H 0.0 **** 0.053
65 H5660 10.1304 45.9359 7.56211 H 0.0 **** 0.053
66 C5619 10.1992 46.534 0.660575 C.ar 0.0 **** 0.052
67 H5719 9.14867 46.9943 -8.90489 H 0.0 **** 0.053
68 H5684 10.6945 46.1555 -4.58723 H 0.0 **** 0.1268
69 C5621 10.898 46.7665 -0.588659 C.2 0.0 **** 0.367
70 H5671 14.8823 45.979 1.54878 H 0.0 **** 0.053
71 C5613 5.99281 47.8849 1.13239 C.3 0.0 **** -0.106
72 H5711 4.52008 51.0043 1.72274 H 0.0 **** 0.053
73 H5697 8.83121 43.016 12.5252 H 0.0 **** 0.053
74 C5603 6.36449 44.8083 6.50106 C.ar 0.0 **** 0.0
75 O5651 4.52125 44.672 4.9839 O.3 0.0 **** -0.452
76 C5606 7.98524 45.737 4.29181 C.ar 0.0 **** 0.0
77 C5612 8.75356 46.0674 3.10638 C.ar 0.0 **** 0.0
78 C5628 13.1521 46.7648 -1.85123 C.ar 0.0 **** 0.2405
79 H5702 6.17409 42.8076 10.6037 H 0.0 **** 0.053
80 C5593 9.82197 44.2969 10.3878 C.ar 0.0 **** 0.0
81 H5701 5.17664 44.2677 10.6559 H 0.0 **** 0.053
82 O5656 12.9576 45.5085 2.81081 O.2 0.0 **** -0.419
83 O5654 8.1523 47.034 -0.402012 O.3 0.0 **** -0.452
84 H5695 12.6027 44.8662 7.38884 H 0.0 **** 0.053
85 H5693 12.909 43.6016 13.3922 H 0.0 **** 0.053
86 O5655 10.8842 45.4582 4.0803 O.3 0.0 **** -0.452
87 H5718 9.94647 48.5315 -9.31172 H 0.0 **** 0.053
88 H5717 13.6961 48.0001 -9.35173 H 0.0 **** 0.053
89 H5670 3.98207 46.6659 4.0878 H 0.0 **** 0.053
90 H5714 11.8864 45.4005 3.72881 H 0.0 **** 0.41
91 H5678 18.4978 47.6732 -4.17032 H 0.0 **** 0.053
92 C5642 10.9575 47.361 -7.78909 C.ar 0.0 **** 0.0
93 H5710 5.77103 50.58 0.527927 H 0.0 **** 0.053
94 H5676 17.2388 46.6814 -2.18278 H 0.0 **** 0.053
95 H5687 14.4254 44.7978 11.7039 H 0.0 **** 0.053
96 H5699 10.3008 43.0811 13.5089 H 0.0 **** 0.053
97 C5594 10.5521 44.7696 9.29494 C.ar 0.0 **** 0.0
98 C5620 8.80319 46.7299 0.714015 C.ar 0.0 **** 0.042
99 H5691 11.6604 44.7193 13.9703 H 0.0 **** 0.053
100 C5630 13.1994 47.0307 -4.1429 C.ar 0.0 **** 0.2405
101 H5712 4.14752 49.8641 0.409288 H 0.0 **** 0.053
102 C5595 11.9128 45.1102 9.43147 C.ar 0.0 **** 0.0
103 C5592 10.4379 44.1932 11.6508 C.ar 0.0 **** 0.0
104 O5657 10.2471 47.1561 -1.60911 O.2 0.0 **** -0.419
105 C5615 4.31435 48.4578 2.94794 C.ar 0.0 **** -0.053
106 C5598 8.4403 44.6833 7.85398 C.ar 0.0 **** 0.0
107 C5607 6.54355 45.7444 4.20705 C.ar 0.0 **** 0.0
108 C5599 7.71231 44.2001 8.91818 C.ar 0.0 **** 0.0
109 H5669 3.94713 46.4288 2.3311 H 0.0 **** 0.053
110 C5631 14.5953 47.2386 -4.14501 C.ar 0.0 **** 0.0
111 H5715 13.3268 49.5548 -8.59392 H 0.0 **** 0.053
112 C5641 10.4108 46.7339 -6.65819 C.ar 0.0 **** -0.1268
113 H5683 14.896 48.3608 -7.38516 H 0.0 **** 0.053
114 H5694 12.1781 46.521 7.81496 H 0.0 **** 0.053
115 C5604 7.78994 44.9721 6.61481 C.ar 0.0 **** 0.0
116 C5639 12.4404 47.1046 -5.40512 C.ar 0.0 **** 0.0
117 C5600 8.37629 43.8924 10.2351 C.3 0.0 **** -0.106
118 C5638 13.0106 47.7296 -6.53382 C.ar 0.0 **** 0.0
119 H5677 17.5198 46.2452 -4.54751 H 0.0 **** 0.053
120 C5652 2.87351 48.7025 2.48827 C.3 0.0 **** -0.159
121 C5626 15.1813 46.9664 -0.380765 C.3 0.0 **** -0.106
122 H5709 2.70679 48.2731 1.48734 H 0.0 **** 0.053
123 C5635 16.6739 48.0778 -5.2986 C.3 0.0 **** -0.106
124 C5616 4.49144 46.9287 3.15576 C.3 0.0 **** -0.106
125 C5650 4.09949 44.3677 7.63503 C.3 0.0 **** -0.159
126 C5634 17.4637 47.304 -4.24414 C.3 0.0 **** -0.106
127 H5681 15.4097 46.4657 -5.94059 H 0.0 **** 0.053
128 H5716 12.1476 48.7992 -9.6857 H 0.0 **** 0.053
129 C5591 11.7806 44.5839 11.807 C.ar 0.0 **** 0.0
130 C5601 6.29292 44.0129 8.80383 C.ar 0.0 **** 0.0
@<TRIPOS>BOND
1 45 14 1
2 44 15 1
3 83 41 1
4 80 103 am
5 97 80 am
6 102 97 am
7 62 102 am
8 129 103 am
9 129 62 am
10 106 51 1
11 108 106 am
12 117 108 1
13 97 51 1
14 80 117 1
15 25 130 am
16 74 25 am
17 115 74 am
18 108 130 am
19 106 115 am
20 76 33 am
21 107 76 am
22 16 107 am
23 115 33 am
24 74 16 am
25 20 45 1
26 77 20 am
27 107 14 1
28 76 77 am
29 60 71 1
30 105 60 am
31 124 105 1
32 45 71 1
33 14 124 1
34 32 6 am
35 66 32 am
36 98 66 am
37 77 6 am
38 20 98 am
39 12 69 1
40 24 12 am
41 36 24 1
42 66 69 1
43 32 36 1
44 121 57 1
45 34 121 1
46 78 34 am
47 24 57 1
48 12 78 am
49 100 53 am
50 110 100 am
51 43 110 am
52 78 53 am
53 34 43 am
54 126 30 1
55 123 126 1
56 44 123 1
57 43 30 1
58 110 44 1
59 118 15 1
60 116 118 am
61 100 116 am
62 112 28 am
63 92 112 am
64 46 92 am
65 116 28 am
66 118 46 am
67 62 55 1
68 55 2 1
69 129 19 1
70 102 48 1
71 103 61 1
72 130 31 1
73 25 125 1
74 16 75 1
75 105 120 1
76 60 35 1
77 98 83 1
78 6 86 1
79 36 82 2
80 69 104 2
81 46 21 1
82 92 10 1
83 51 65 1
84 51 64 1
85 117 22 1
86 117 13 1
87 33 63 1
88 71 29 1
89 71 17 1
90 60 54 1
91 105 42 1
92 124 109 1
93 124 89 1
94 57 70 1
95 57 26 1
96 121 5 1
97 121 39 1
98 30 38 1
99 30 94 1
100 126 119 1
101 126 91 1
102 123 1 1
103 123 50 1
104 44 127 1
105 15 56 1
106 15 113 1
107 28 68 1
108 112 8 1
109 55 3 1
110 55 95 1
111 2 59 1
112 2 37 1
113 2 11 1
114 19 99 1
115 19 18 1
116 19 85 1
117 48 114 1
118 48 84 1
119 48 58 1
120 61 73 1
121 61 23 1
122 61 96 1
123 31 40 1
124 31 81 1
125 31 79 1
126 125 49 1
127 125 9 1
128 125 47 1
129 75 52 1
130 120 7 1
131 120 4 1
132 120 122 1
133 35 93 1
134 35 72 1
135 35 101 1
136 86 90 1
137 21 111 1
138 21 128 1
139 21 88 1
140 10 87 1
141 10 67 1
142 10 27 1
@<TRIPOS>MOLECULE
Sketch 4
250 292
SMALL
USER_CHARGES


@<TRIPOS>ATOM
1 C27719 40.1421 14.0091 11.5599 C.2 0.0 **** 0.0
2 H27852 38.1893 16.0182 23.2789 H 0.0 **** 0.053
3 C27684 36.8783 4.14219 8.99663 C.2 0.0 **** 0.0
4 H27876 42.7611 22.571 20.3785 H 0.0 **** 0.053
5 H27870 41.6917 18.2524 7.53763 H 0.0 **** 0.053
6 H27873 40.0823 18.1516 18.8994 H 0.0 **** 0.1268
7 C27741 40.9703 16.3613 8.19951 C.3 0.0 **** 0.107
8 C27715 39.8416 15.9879 15.375 C.2 0.0 **** 0.0
9 H27864 43.422 13.9819 8.07809 H 0.0 **** 0.053
10 C27733 39.0901 18.0931 21.2673 C.3 0.0 **** -0.106
11 H27830 33.9499 1.84465 12.1184 H 0.0 **** 0.053
12 C27686 37.7901 5.73009 10.6233 C.2 0.0 **** 0.0
13 H27831 35.4881 0.968971 12.2137 H 0.0 **** 0.053
14 C27787 41.715 28.4486 20.7618 C.2 0.0 **** 0.0
15 C27707 39.4194 11.8797 12.6371 C.2 0.0 **** 0.0
16 H27903 41.9037 27.9263 26.2543 H 0.0 **** 0.053
17 H27878 41.8878 22.3489 22.7929 H 0.0 **** 0.053
18 C27663 38.2975 0.981097 5.69516 C.3 0.0 **** -0.106
19 C27773 41.9237 2.32989 14.9007 C.3 0.0 **** -0.159
20 C27657 40.8462 0.862887 6.02545 C.3 0.0 **** -0.053
21 H27886 40.7743 5.40451 13.7064 H 0.0 **** 0.053
22 H27826 38.8536 6.96414 3.74227 H 0.0 **** 0.053
23 C27694 37.4712 3.33547 12.6734 C.2 0.0 **** 0.0
24 C27693 36.8025 2.88356 13.7608 C.2 0.0 **** 0.0
25 C27690 35.7942 3.37652 8.74024 C.2 0.0 **** -0.1268
26 C27739 40.7722 16.8119 11.8201 C.2 0.0 **** 0.0
27 H27819 38.737 3.58502 3.98897 H 0.0 **** 0.053
28 H27824 38.0207 8.99087 4.93842 H 0.0 **** 0.053
29 H27841 37.5056 5.69276 12.7734 H 0.0 **** 0.1268
30 C27797 40.7909 26.2507 24.4023 C.3 0.0 **** -0.106
31 H27880 43.0068 20.3917 22.1467 H 0.0 **** 0.053
32 C27699 38.3386 7.55553 12.1729 C.2 0.0 **** -0.012
33 H27887 41.8074 1.27207 14.6166 H 0.0 **** 0.053
34 H27877 40.3445 21.8535 22.0826 H 0.0 **** 0.053
35 H27857 38.9975 19.8255 22.5801 H 0.0 **** 0.053
36 H27882 42.973 20.421 19.7478 H 0.0 **** 0.053
37 C27734 38.7983 18.7427 22.619 C.3 0.0 **** -0.106
38 H27900 41.6879 25.7939 24.8617 H 0.0 **** 0.053
39 C27761 41.3286 22.8254 18.2105 C.2 0.0 **** 0.0
40 C27735 39.665 18.0768 23.7245 C.3 0.0 **** 0.081
41 H27872 41.6887 20.7697 12.4104 H 0.0 **** 0.1268
42 O27740 41.2013 16.948 9.49873 O.3 0.0 **** -0.202
43 C27702 38.763 9.78086 13.7686 C.2 0.0 **** -0.012
44 C27656 41.3418 1.17875 7.45178 C.3 0.0 **** -0.106
45 H27845 40.5007 16.0641 20.1611 H 0.0 **** 0.053
46 H27890 37.0543 12.584 18.3507 H 0.0 **** 0.41
47 C27767 41.8702 24.8974 17.0367 C.2 0.0 **** 0.0
48 H27810 40.1409 3.64735 6.68799 H 0.0 **** 0.053
49 C27732 38.7342 16.5971 21.2732 C.3 0.0 **** -0.053
50 C27788 41.5954 27.0301 20.7406 C.2 0.0 **** 0.0
51 C27696 39.6574 2.85737 13.8914 C.3 0.0 **** -0.053
52 H27827 33.9878 3.42525 9.89439 H 0.0 **** 0.053
53 H27839 36.8257 3.06235 15.8846 H 0.0 **** 0.053
54 C27754 40.7115 20.0066 18.1017 C.2 0.0 **** 0.0
55 H27825 40.3913 7.07316 4.59883 H 0.0 **** 0.053
56 C27722 40.2162 18.0091 16.7614 C.2 0.0 **** 0.0
57 C27799 40.9792 28.2953 25.7727 C.3 0.0 **** -0.086
58 C27718 40.0424 14.6671 12.8222 C.2 0.0 **** 0.0
59 C27768 41.9129 24.1972 15.7902 C.2 0.0 **** 0.0
60 H27822 40.7876 9.05601 6.26294 H 0.0 **** 0.053
61 H27850 40.5698 14.4266 22.2794 H 0.0 **** 0.053
62 C27701 39.1073 10.4765 12.5545 C.2 0.0 **** 0.0
63 C27678 39.1004 8.76986 4.94626 C.3 0.0 **** -0.106
64 C27730 39.4959 14.4925 22.5317 C.3 0.0 **** -0.106
65 H27855 38.56 18.6034 20.4516 H 0.0 **** 0.053
66 C27682 39.1335 9.79515 11.3109 C.2 0.0 **** 0.0
67 C27681 39.5143 10.5485 10.1856 C.2 0.0 **** 0.232
68 H27803 42.0296 3.25093 7.69337 H 0.0 **** 0.053
69 C27720 40.2855 16.7051 14.2146 C.2 0.0 **** 0.0
70 C27757 41.6646 22.8116 15.8054 C.2 0.0 **** 0.0265
71 C27679 39.3057 7.27332 4.69983 C.3 0.0 **** -0.106
72 H27809 42.6024 2.66932 4.18336 H 0.0 **** 0.053
73 C27786 41.9448 29.1445 19.5364 C.2 0.0 **** 0.0
74 C27659 42.1246 2.85095 5.15629 C.3 0.0 **** 0.054
75 C27777 42.2732 27.0258 15.8453 C.2 0.0 **** 0.0
76 C27765 42.0531 20.0496 20.2266 C.3 0.0 **** -0.106
77 O27665 37.211 3.04761 6.17583 O.3 0.0 **** -0.32
78 H27833 34.7489 3.53425 13.7486 H 0.0 **** 0.053
79 C27729 38.6777 13.8215 21.4234 C.3 0.0 **** -0.106
80 C27689 34.9335 2.84187 9.84258 C.3 0.0 **** -0.106
81 C27661 39.6674 3.10744 5.85245 C.3 0.0 **** -0.053
82 C27758 41.3542 22.1335 16.9966 C.2 0.0 **** 0.0
83 C27655 42.4462 2.26114 7.41869 C.3 0.0 **** 0.054
84 C27785 42.0731 30.559 19.5365 C.2 0.0 **** 0.0
85 C27738 40.838 16.1561 10.5635 C.2 0.0 **** 0.042
86 C27772 41.3645 4.71607 14.3301 C.3 0.0 **** -0.159
87 C27759 40.8359 20.6156 19.4731 C.3 0.0 **** -0.053
88 H27883 41.5538 3.09524 12.9294 H 0.0 **** 0.053
89 C27706 39.3326 12.5595 13.8833 C.2 0.0 **** 0.0
90 H27863 43.1187 14.7338 9.65034 H 0.0 **** 0.053
91 C27708 39.6231 13.9451 13.9882 C.2 0.0 **** 0.0
92 C27793 41.3677 24.898 21.9093 C.2 0.0 **** -0.1268
93 O27660 43.0525 2.34662 6.12451 O.3 0.0 **** -0.32
94 H27815 39.3605 -0.390159 7.00149 H 0.0 **** 0.053
95 H27881 42.0711 18.954 20.1239 H 0.0 **** 0.053
96 C27700 37.8687 6.28721 11.9353 C.2 0.0 **** -0.1268
97 C27717 39.8425 11.8852 10.2468 C.2 0.0 **** -0.1268
98 H27817 37.4585 5.34541 4.57474 H 0.0 **** 0.053
99 H27804 41.7165 0.25218 7.91304 H 0.0 **** 0.053
100 H27884 42.4252 4.99004 14.2269 H 0.0 **** 0.053
101 H27893 42.5886 28.9619 14.9547 H 0.0 **** 0.1268
102 O27725 38.9255 16.5366 18.9078 O.3 0.0 **** -0.202
103 H27868 43.7166 17.5776 6.46896 H 0.0 **** 0.053
104 C27723 40.6057 18.719 15.5865 C.2 0.0 **** 0.0
105 S27703 38.4888 8.04744 13.8455 S.2 0.0 **** 0.024
106 H27837 38.7824 4.35619 15.1779 H 0.0 **** 0.053
107 C27710 39.0506 13.8708 16.4018 C.2 0.0 **** 0.0
108 C27794 41.364 26.317 21.949 C.2 0.0 **** 0.0
109 C27748 41.0436 18.8221 13.1677 C.2 0.0 **** 0.0
110 C27798 40.0785 27.1199 25.4313 C.3 0.0 **** -0.106
111 O27756 41.7006 22.148 14.6005 O.3 0.0 **** -0.0685
112 C27711 38.8364 12.4892 16.2792 C.2 0.0 **** -0.1268
113 H27889 42.9974 2.57202 14.8985 H 0.0 **** 0.053
114 C27755 40.3251 18.6833 17.993 C.2 0.0 **** -0.1268
115 C27800 41.4226 29.0927 24.5524 C.2 0.0 **** 0.347
116 C27771 41.1497 3.246 13.9472 C.3 0.0 **** -0.053
117 C27751 41.3546 20.8076 14.52 C.2 0.0 **** 0.042
118 C27691 35.0327 1.97853 12.2714 C.3 0.0 **** -0.106
119 H27813 37.3599 0.499352 6.00763 H 0.0 **** 0.053
120 C27714 39.7643 16.6456 16.6347 C.2 0.0 **** 0.0
121 C27781 42.3002 29.1359 17.0857 C.2 0.0 **** 0.0
122 H27821 39.4831 10.2076 6.54077 H 0.0 **** 0.053
123 H27844 40.118 12.3687 9.32107 H 0.0 **** 0.1268
124 C27685 37.2062 4.48575 10.3779 C.2 0.0 **** 0.0
125 C27746 43.1195 16.7403 6.85925 C.3 0.0 **** -0.106
126 H27875 39.824 22.5121 19.642 H 0.0 **** 0.053
127 C27753 41.0142 20.7322 16.9421 C.2 0.0 **** 0.0
128 C27727 39.1543 14.3484 20.0644 C.3 0.0 **** -0.053
129 H27891 42.2263 24.3862 13.6442 H 0.0 **** 0.1268
130 H27885 41.0776 4.88694 15.3792 H 0.0 **** 0.053
131 C27687 36.7271 3.57456 11.4155 C.2 0.0 **** 0.0
132 C27769 41.5083 24.2021 20.7296 C.2 0.0 **** 0.0
133 C27658 40.7307 2.1756 5.23364 C.3 0.0 **** -0.053
134 C27695 38.978 3.44956 12.6514 C.3 0.0 **** -0.106
135 N27736 40.1212 16.7191 23.3898 N.3 0.0 **** -0.727
136 H27832 35.0038 1.92623 14.4549 H 0.0 **** 0.053
137 C27713 39.2048 15.9021 17.7166 C.2 0.0 **** 0.042
138 C27670 38.6827 6.93242 7.1109 C.2 0.0 **** 0.0
139 H27848 37.6057 14.0456 21.5587 H 0.0 **** 0.053
140 C27704 38.6944 10.4435 14.9674 C.2 0.0 **** -0.1268
141 C27744 43.0059 14.8757 8.56571 C.3 0.0 **** -0.106
142 C27752 41.3912 20.2036 13.2937 C.2 0.0 **** -0.1268
143 H27865 44.8203 15.8961 7.92958 H 0.0 **** 0.053
144 H27835 39.2884 4.49853 12.5299 H 0.0 **** 0.053
145 C27671 38.1894 6.12625 8.19903 C.2 0.0 **** 0.0
146 C27770 41.5897 24.9108 19.4987 C.2 0.0 **** 0.0
147 H27892 42.5505 26.8362 13.6978 H 0.0 **** 0.1268
148 H27849 38.7761 12.7288 21.4461 H 0.0 **** 0.053
149 O27774 37.7826 12.7058 18.9792 O.3 0.0 **** -0.57
150 C27763 41.4331 21.8855 21.9058 C.3 0.0 **** -0.106
151 C27745 43.7645 16.1427 8.11478 C.3 0.0 **** -0.106
152 H27818 40.0571 4.68291 4.41591 H 0.0 **** 0.053
153 H27867 43.1003 15.9721 6.06725 H 0.0 **** 0.053
154 C27672 37.8127 4.68459 7.94115 C.3 0.0 **** -0.053
155 C27705 38.9563 11.836 15.0564 C.2 0.0 **** 0.0
156 H27851 39.3717 13.9969 23.5042 H 0.0 **** 0.053
157 H27802 43.2605 2.03096 8.11912 H 0.0 **** 0.053
158 H27899 40.1379 25.4189 24.1029 H 0.0 **** 0.053
159 H27888 41.5596 2.4451 15.9341 H 0.0 **** 0.053
160 C27674 38.6826 7.91307 9.7996 C.2 0.0 **** 0.0
161 H27853 37.6463 16.4909 21.1239 H 0.0 **** 0.053
162 H27858 39.091 18.026 24.6652 H 0.0 **** 0.053
163 C27782 42.406 28.4176 15.8838 C.2 0.0 **** -0.1268
164 C27669 38.7296 6.4458 5.81419 C.2 0.0 **** 0.0
165 H27866 43.7391 16.8914 8.92025 H 0.0 **** 0.053
166 H27846 40.0995 13.8413 19.8131 H 0.0 **** 0.053
167 C27728 38.1802 14.0761 18.9092 C.3 0.0 **** 0.107
168 H27816 36.2857 4.81984 6.45727 H 0.0 **** 0.053
169 C27712 38.8308 14.575 17.6227 C.2 0.0 **** 0.0
170 C27709 39.5004 14.6085 15.2475 C.2 0.0 **** 0.0
171 H27820 38.7667 4.13547 8.07608 H 0.0 **** 0.053
172 C27688 35.6005 2.84113 11.1791 C.2 0.0 **** 0.0
173 C27664 39.5063 0.0834595 6.01668 C.3 0.0 **** -0.106
174 C27779 41.9229 27.0209 18.2877 C.2 0.0 **** 0.0
175 H27874 39.9532 20.3042 20.0522 H 0.0 **** 0.053
176 H27894 42.6154 31.0885 16.189 H 0.0 **** 0.1268
177 H27901 39.8302 26.5332 26.3288 H 0.0 **** 0.053
178 H27808 42.0154 3.94733 5.29189 H 0.0 **** 0.053
179 C27676 39.1567 8.27036 7.40739 C.2 0.0 **** 0.0
180 C27790 41.6237 29.1612 21.9942 C.2 0.0 **** 0.0
181 C27796 41.1891 27.0356 23.1723 C.2 0.0 **** 0.0
182 C27692 35.326 2.59553 13.642 C.3 0.0 **** -0.106
183 C27667 38.1517 5.12989 5.41037 C.3 0.0 **** -0.053
184 C27795 41.3799 28.4233 23.2166 C.2 0.0 **** 0.052
185 C27683 38.741 8.42161 11.1028 C.2 0.0 **** 0.0
186 H27862 41.2775 14.4426 7.28879 H 0.0 **** 0.053
187 C27775 42.1775 24.9302 14.5874 C.2 0.0 **** -0.1268
188 H27859 40.559 18.6843 23.9294 H 0.0 **** 0.053
189 C27750 40.9839 20.0864 15.697 C.2 0.0 **** 0.0
190 C27675 39.1257 8.71105 8.70141 C.2 0.0 **** 0.232
191 C27662 38.4341 2.32585 6.38879 C.3 0.0 **** 0.107
192 C27749 41.0945 18.1722 11.9346 C.2 0.0 **** -0.1268
193 O27801 41.8529 30.2326 24.7346 O.2 0.0 **** -0.419
194 H27842 38.4247 9.90765 15.8804 H 0.0 **** 0.1268
195 H27861 39.8812 16.3378 8.02801 H 0.0 **** 0.053
196 H27871 41.3945 18.7263 11.0466 H 0.0 **** 0.1268
197 H27838 39.3892 2.93948 16.0582 H 0.0 **** 0.053
198 C27766 41.6199 24.1973 18.2508 C.2 0.0 **** 0.0
199 C27737 40.5743 14.8009 10.4377 C.2 0.0 **** 0.042
200 C27780 42.0532 28.4295 18.307 C.2 0.0 **** 0.0
201 H27869 41.0851 17.2273 6.23042 H 0.0 **** 0.053
202 C27731 39.1006 15.9669 22.6588 C.3 0.0 **** 0.134
203 H27814 39.5501 -0.733373 5.28076 H 0.0 **** 0.053
204 H27836 39.606 1.75531 13.8126 H 0.0 **** 0.053
205 H27843 38.6012 11.8981 17.1588 H 0.0 **** 0.1268
206 C27742 41.4978 14.937 8.24557 C.3 0.0 **** 0.107
207 H27856 37.7279 18.6237 22.8513 H 0.0 **** 0.053
208 H27897 42.0264 32.3371 20.7642 H 0.0 **** 0.1268
209 C27677 39.6862 9.1529 6.30575 C.3 0.0 **** -0.106
210 C27762 41.6959 22.7117 20.6521 C.3 0.0 **** -0.053
211 H27904 40.5229 29.0079 26.4743 H 0.0 **** 0.053
212 H27828 34.5938 1.81434 9.60693 H 0.0 **** 0.053
213 C27791 41.735 30.5787 21.9509 C.2 0.0 **** -0.1268
214 H27806 41.6218 0.250562 5.54286 H 0.0 **** 0.053
215 C27697 38.8677 3.25778 15.1425 C.3 0.0 **** -0.106
216 H27829 35.5184 3.12484 7.71753 H 0.0 **** 0.1268
217 C27666 37.3177 4.44269 6.50641 C.3 0.0 **** 0.107
218 C27776 42.354 26.2855 14.6194 C.2 0.0 **** -0.1268
219 C27778 42.0318 26.3107 17.0627 C.2 0.0 **** 0.0
220 C27716 39.8123 12.6027 11.4605 C.2 0.0 **** 0.0
221 H27805 40.5022 1.52995 8.07238 H 0.0 **** 0.053
222 H27807 40.4074 1.93763 4.20644 H 0.0 **** 0.053
223 C27792 41.9497 31.2477 20.7639 C.2 0.0 **** -0.1268
224 C27721 40.3652 16.0507 12.9577 C.2 0.0 **** 0.0
225 H27840 37.5185 1.56012 15.2873 H 0.0 **** 0.053
226 H27854 40.1673 18.1975 21.0513 H 0.0 **** 0.053
227 C27726 39.412 15.8753 20.1099 C.3 0.0 **** 0.107
228 C27698 37.4672 2.64791 15.0855 C.3 0.0 **** -0.106
229 H27811 38.548 2.14886 7.47579 H 0.0 **** 0.053
230 H27898 41.3014 24.3388 22.8387 H 0.0 **** 0.1268
231 H27896 41.659 31.1321 22.8807 H 0.0 **** 0.1268
232 O27680 39.5898 9.99195 8.93189 O.3 0.0 **** -0.464
233 C27747 41.6836 17.2208 7.15362 C.3 0.0 **** -0.106
234 H27879 41.3679 19.741 22.2593 H 0.0 **** 0.053
235 C27764 41.9977 20.4561 21.7114 C.3 0.0 **** -0.106
236 C27668 39.1964 4.1341 4.826 C.3 0.0 **** -0.106
237 H27834 39.3487 2.93802 11.7452 H 0.0 **** 0.053
238 O27743 40.7274 14.1948 9.21087 O.3 0.0 **** -0.202
239 H27823 39.5682 9.36428 4.14664 H 0.0 **** 0.053
240 H27812 38.224 1.15678 4.60977 H 0.0 **** 0.053
241 H27902 39.1316 27.485 25.001 H 0.0 **** 0.053
242 C27724 40.6342 18.0771 14.3227 C.2 0.0 **** 0.0
243 C27783 42.4284 30.5589 17.1249 C.2 0.0 **** -0.1268
244 H27860 40.971 16.7661 22.8263 H 0.0 **** 0.353
245 C27784 42.3164 31.243 18.3063 C.2 0.0 **** -0.1268
246 H27847 37.289 14.7135 19.0849 H 0.0 **** 0.053
247 H27895 42.4081 32.3306 18.329 H 0.0 **** 0.1268
248 C27673 38.21 6.58069 9.50609 C.2 0.0 **** 0.0
249 C27789 41.6941 26.317 19.5118 C.2 0.0 **** 0.0
250 C27760 40.8627 22.1616 19.4791 C.3 0.0 **** -0.053
@<TRIPOS>BOND
1 89 91 un
2 235 234 1
3 245 243 un
4 75 163 un
5 167 149 1
6 51 204 1
7 30 158 1
8 125 151 1
9 227 45 1
10 183 98 1
11 20 44 1
12 133 20 1
13 74 133 1
14 93 74 1
15 83 44 1
16 83 93 1
17 191 81 1
18 18 191 1
19 173 18 1
20 133 81 1
21 20 173 1
22 217 77 1
23 183 217 1
24 236 183 1
25 191 77 1
26 81 236 1
27 138 164 un
28 145 138 un
29 154 145 un
30 183 164 1
31 217 154 1
32 160 248 1
33 190 160 un
34 179 190 un
35 145 248 un
36 138 179 un
37 63 209 1
38 71 63 1
39 164 71 1
40 179 209 1
41 67 232 1
42 66 67 un
43 185 66 un
44 190 232 1
45 160 185 un
46 124 3 un
47 12 124 2
48 154 3 1
49 248 12 un
50 172 131 2
51 80 172 1
52 25 80 1
53 124 131 1
54 3 25 2
55 182 118 1
56 24 182 1
57 23 24 2
58 172 118 1
59 131 23 1
60 51 134 1
61 215 51 1
62 228 215 1
63 23 134 1
64 24 228 1
65 96 32 un
66 12 96 un
67 185 32 un
68 43 62 un
69 105 43 1
70 32 105 un
71 66 62 un
72 155 140 un
73 89 155 un
74 15 89 un
75 43 140 un
76 62 15 un
77 170 91 un
78 107 170 un
79 112 107 un
80 155 112 un
81 137 169 un
82 120 137 un
83 8 120 un
84 107 169 un
85 170 8 un
86 97 220 un
87 67 97 un
88 15 220 un
89 1 58 un
90 220 1 un
91 91 58 un
92 224 69 un
93 58 224 un
94 8 69 un
95 104 56 un
96 242 104 un
97 69 242 un
98 120 56 un
99 227 102 1
100 128 227 1
101 167 128 1
102 137 102 1
103 169 167 1
104 64 79 1
105 202 64 1
106 49 202 1
107 128 79 1
108 227 49 1
109 37 10 1
110 40 37 1
111 135 40 1
112 49 10 1
113 202 135 1
114 85 199 un
115 26 85 un
116 224 26 un
117 1 199 un
118 7 42 1
119 206 7 1
120 238 206 1
121 85 42 1
122 199 238 1
123 151 141 1
124 233 125 1
125 206 141 1
126 7 233 1
127 192 109 un
128 26 192 un
129 242 109 un
130 117 189 un
131 142 117 un
132 109 142 un
133 104 189 un
134 54 127 un
135 114 54 un
136 56 114 un
137 189 127 un
138 70 111 1
139 82 70 un
140 117 111 1
141 127 82 1
142 250 87 1
143 39 250 1
144 54 87 1
145 82 39 un
146 150 210 1
147 235 150 1
148 76 235 1
149 250 210 1
150 87 76 1
151 47 198 1
152 59 47 1
153 70 59 un
154 39 198 un
155 210 132 1
156 198 146 un
157 132 146 un
158 51 116 1
159 116 86 1
160 116 19 1
161 218 187 1
162 75 218 un
163 219 75 1
164 59 187 un
165 47 219 un
166 200 174 un
167 121 200 1
168 163 121 un
169 219 174 un
170 84 245 1
171 73 84 1
172 121 243 un
173 200 73 un
174 50 14 un
175 249 50 un
176 174 249 un
177 73 14 un
178 213 180 un
179 223 213 un
180 84 223 un
181 14 180 un
182 108 92 un
183 50 108 un
184 146 249 un
185 132 92 un
186 181 184 un
187 108 181 un
188 180 184 un
189 110 30 1
190 57 110 1
191 115 57 1
192 181 30 1
193 184 115 1
194 115 193 2
195 83 157 1
196 83 68 1
197 44 99 1
198 44 221 1
199 20 214 1
200 133 222 1
201 74 178 1
202 74 72 1
203 81 48 1
204 191 229 1
205 18 240 1
206 18 119 1
207 173 203 1
208 173 94 1
209 217 168 1
210 236 152 1
211 236 27 1
212 154 171 1
213 209 122 1
214 209 60 1
215 63 239 1
216 63 28 1
217 71 55 1
218 71 22 1
219 80 52 1
220 80 212 1
221 25 216 1
222 118 11 1
223 118 13 1
224 182 136 1
225 182 78 1
226 134 237 1
227 134 144 1
228 215 106 1
229 215 197 1
230 228 53 1
231 228 225 1
232 96 29 1
233 140 194 1
234 112 205 1
235 97 123 1
236 128 166 1
237 167 246 1
238 79 139 1
239 79 148 1
240 64 61 1
241 64 156 1
242 202 2 1
243 49 161 1
244 10 226 1
245 10 65 1
246 37 207 1
247 37 35 1
248 40 162 1
249 40 188 1
250 135 244 1
251 7 195 1
252 206 186 1
253 141 90 1
254 141 9 1
255 151 143 1
256 151 165 1
257 125 153 1
258 125 103 1
259 233 201 1
260 233 5 1
261 192 196 1
262 142 41 1
263 114 6 1
264 87 175 1
265 250 126 1
266 210 4 1
267 150 34 1
268 150 17 1
269 235 31 1
270 76 95 1
271 76 36 1
272 116 88 1
273 86 100 1
274 86 130 1
275 86 21 1
276 19 33 1
277 19 159 1
278 19 113 1
279 149 46 1
280 187 129 1
281 218 147 1
282 163 101 1
283 243 176 1
284 245 247 1
285 213 231 1
286 223 208 1
287 92 230 1
288 30 38 1
289 110 177 1
290 110 241 1
291 57 16 1
292 57 211 1
@<TRIPOS>MOLECULE
Sketch 4
250 292
SMALL
USER_CHARGES


@<TRIPOS>ATOM
1 C23685 6.88829 40.1696 12.9235 C.2 0.0 **** 0.0
2 C23792 0.322197 22.8788 -9.53728 C.2 0.0 **** -0.1268
3 H23835 4.55092 41.2018 11.3621 H 0.0 **** 0.053
4 C23659 11.2277 45.6904 10.7285 C.3 0.0 **** 0.054
5 C23739 6.99503 33.7862 1.69982 C.2 0.0 **** 0.0
6 C23778 3.18243 27.0648 -6.01941 C.2 0.0 **** 0.0
7 C23760 0.293735 28.6937 -2.3557 C.3 0.0 **** -0.053
8 C23780 2.28674 25.3718 -7.55857 C.2 0.0 **** 0.0
9 H23820 8.92463 41.9243 12.1296 H 0.0 **** 0.053
10 C23735 -4.37786 29.9167 1.22542 C.3 0.0 **** 0.081
11 C23781 3.5686 25.2788 -8.1909 C.2 0.0 **** 0.0
12 C23784 2.6948 23.5947 -9.71744 C.2 0.0 **** -0.1268
13 H23852 -4.099 30.4111 3.73374 H 0.0 **** 0.053
14 H23885 1.61888 41.6393 9.72426 H 0.0 **** 0.053
15 C23719 6.88459 35.3504 4.12091 C.2 0.0 **** 0.0
16 C23666 10.671 40.9993 12.9969 C.3 0.0 **** 0.107
17 C23655 8.87983 45.9019 10.8408 C.3 0.0 **** 0.054
18 C23707 5.57534 36.1316 6.09383 C.2 0.0 **** 0.0
19 H23879 -2.86624 30.2108 -1.10802 H 0.0 **** 0.053
20 C23751 4.89989 30.903 -1.60047 C.2 0.0 **** 0.042
21 H23849 -2.87293 33.4508 5.67818 H 0.0 **** 0.053
22 H23810 10.0626 43.4755 11.536 H 0.0 **** 0.053
23 H23884 2.61987 42.7162 8.72794 H 0.0 **** 0.053
24 H23850 -3.62296 33.3555 3.18372 H 0.0 **** 0.053
25 H23822 11.248 40.2358 7.29902 H 0.0 **** 0.053
26 C23758 2.6736 29.5171 -2.60763 C.2 0.0 **** 0.0
27 H23864 9.94284 38.2915 1.9124 H 0.0 **** 0.053
28 C23775 5.38324 28.5893 -5.07757 C.2 0.0 **** -0.1268
29 C23672 9.24587 40.9061 12.4291 C.3 0.0 **** -0.053
30 H23877 -2.25416 28.0634 -1.85299 H 0.0 **** 0.053
31 H23881 -0.967798 31.6447 -0.990183 H 0.0 **** 0.053
32 H23838 0.833802 41.6992 12.2707 H 0.0 **** 0.053
33 C23676 10.1797 39.4394 8.97573 C.2 0.0 **** 0.0
34 C23741 10.4588 34.9129 1.98906 C.3 0.0 **** 0.107
35 N23736 -4.30922 31.2408 1.86204 N.3 0.0 **** -0.727
36 C23728 -0.108278 32.5728 5.23945 C.3 0.0 **** 0.107
37 H23854 -1.78885 30.6795 0.867507 H 0.0 **** 0.053
38 C23744 9.64776 37.2898 1.56735 C.3 0.0 **** -0.106
39 C23715 3.47778 33.052 2.82776 C.2 0.0 **** 0.0
40 C23737 8.06223 35.3077 3.2937 C.2 0.0 **** 0.042
41 H23829 9.47302 40.4444 15.1644 H 0.0 **** 0.1268
42 C23681 7.76592 37.582 7.03663 C.2 0.0 **** 0.232
43 H23897 0.482473 22.1731 -10.3552 H 0.0 **** 0.1268
44 C23754 1.32869 30.3469 -0.694397 C.2 0.0 **** 0.0
45 H23811 9.22994 43.2684 13.6964 H 0.0 **** 0.053
46 C23698 1.95253 40.752 13.8759 C.3 0.0 **** -0.106
47 C23750 3.67271 30.9288 -0.868258 C.2 0.0 **** 0.0
48 C23753 2.54689 30.2677 -1.38177 C.2 0.0 **** 0.0
49 H23867 12.2607 37.0578 0.811039 H 0.0 **** 0.053
50 C23746 11.6 36.3883 0.234036 C.3 0.0 **** -0.106
51 H23870 11.3234 34.2191 0.170864 H 0.0 **** 0.053
52 C23699 5.4784 38.4812 9.90862 C.2 0.0 **** -0.012
53 H23853 -1.85066 30.1078 3.85796 H 0.0 **** 0.053
54 C23764 -2.28588 30.2514 -2.0406 C.3 0.0 **** -0.106
55 C23776 5.54263 27.7616 -6.154 C.2 0.0 **** -0.1268
56 H23809 12.103 46.3295 10.546 H 0.0 **** 0.053
57 C23738 8.12008 34.5231 2.15218 C.2 0.0 **** 0.042
58 C23692 3.59455 39.5743 15.4846 C.3 0.0 **** -0.106
59 H23863 8.5485 37.2643 1.55192 H 0.0 **** 0.053
60 C23691 4.87662 40.0565 16.1694 C.3 0.0 **** -0.106
61 C23729 -2.6706 32.6258 4.98348 C.3 0.0 **** -0.106
62 C23798 -4.69725 23.5862 -5.45936 C.3 0.0 **** -0.106
63 C23796 -2.61279 24.836 -6.12034 C.2 0.0 **** 0.0
64 C23689 7.40608 39.8397 15.7122 C.3 0.0 **** -0.106
65 C23768 4.11729 28.692 -4.41356 C.2 0.0 **** 0.0
66 H23840 1.58029 41.5075 14.595 H 0.0 **** 0.053
67 H23893 5.60278 25.9975 -8.20697 H 0.0 **** 0.1268
68 C23747 11.5415 35.0037 0.911629 C.3 0.0 **** -0.106
69 C23720 4.68015 33.0766 2.04567 C.2 0.0 **** 0.0
70 C23795 -2.46198 23.9934 -7.22999 C.2 0.0 **** 0.052
71 H23828 7.51514 40.364 16.6818 H 0.0 **** 0.053
72 C23785 1.40732 23.673 -9.10376 C.2 0.0 **** 0.0
73 H23834 5.07303 42.4769 12.4373 H 0.0 **** 0.053
74 C23708 4.54669 34.5822 4.4587 C.2 0.0 **** 0.0
75 C23667 11.7631 41.303 11.9557 C.3 0.0 **** -0.053
76 C23712 1.16152 32.9162 4.467 C.2 0.0 **** 0.0
77 C23678 12.6799 39.5117 8.74393 C.3 0.0 **** -0.106
78 O23680 8.9025 38.256 7.41245 O.3 0.0 **** -0.464
79 C23748 5.95385 32.3228 0.0552145 C.2 0.0 **** 0.0
80 C23790 -1.17374 23.8765 -7.882 C.2 0.0 **** 0.0
81 C23713 1.23441 32.2336 3.26753 C.2 0.0 **** 0.042
82 H23856 -3.22516 28.3565 2.25071 H 0.0 **** 0.053
83 C23658 11.1985 45.1806 12.1928 C.3 0.0 **** -0.053
84 C23705 3.24331 35.3897 6.37786 C.2 0.0 **** 0.0
85 C23674 7.82687 38.9134 9.48816 C.2 0.0 **** 0.0
86 H23874 -0.458096 29.2503 -0.424167 H 0.0 **** 0.053
87 H23865 10.2334 37.9549 -0.420762 H 0.0 **** 0.053
88 O23740 9.24889 34.4219 1.37217 O.3 0.0 **** -0.202
89 C23733 -1.90005 29.9655 1.70172 C.3 0.0 **** -0.106
90 H23901 -5.64244 23.6553 -4.89976 H 0.0 **** 0.053
91 C23721 5.80426 33.8221 2.48713 C.2 0.0 **** 0.0
92 H23823 13.5063 39.5711 8.01936 H 0.0 **** 0.053
93 O23801 -3.72352 22.7777 -8.88294 O.2 0.0 **** -0.419
94 H23882 -0.469133 31.318 -2.64895 H 0.0 **** 0.053
95 C23688 6.02111 40.053 15.1949 C.2 0.0 **** 0.0
96 C23716 6.80006 36.1199 5.34457 C.2 0.0 **** 0.0
97 C23683 6.61966 38.3564 9.04892 C.2 0.0 **** 0.0
98 C23763 -2.19387 28.8284 -2.6458 C.3 0.0 **** -0.106
99 C23734 -3.09493 29.0587 1.41172 C.3 0.0 **** -0.106
100 C23706 4.46648 35.3656 5.63991 C.2 0.0 **** 0.0
101 H23833 3.69805 38.5007 15.2349 H 0.0 **** 0.053
102 H23868 12.0481 36.2916 -0.765794 H 0.0 **** 0.053
103 H23880 -2.83293 30.9142 -2.72861 H 0.0 **** 0.053
104 C23730 -3.74375 32.5185 3.895 C.3 0.0 **** -0.106
105 C23697 1.83891 41.287 12.4485 C.3 0.0 **** -0.106
106 H23842 2.19316 36.2108 8.08171 H 0.0 **** 0.1268
107 C23694 4.42723 40.726 13.4677 C.2 0.0 **** 0.0
108 O23725 0.193418 31.3758 2.98436 O.3 0.0 **** -0.202
109 H23830 5.12377 39.4281 17.04 H 0.0 **** 0.053
110 C23669 11.5077 40.7116 10.609 C.2 0.0 **** 0.0
111 C23717 7.87736 36.8671 5.86421 C.2 0.0 **** -0.1268
112 C23679 12.6676 40.7423 9.65389 C.3 0.0 **** -0.106
113 C23664 10.2384 45.6432 14.5066 C.3 0.0 **** -0.106
114 C23693 3.36204 40.3745 14.2265 C.2 0.0 **** 0.0
115 C23799 -4.94812 23.328 -6.93571 C.3 0.0 **** -0.086
116 C23745 10.2045 37.0171 0.153192 C.3 0.0 **** -0.106
117 C23787 -0.0839756 24.666 -7.40878 C.2 0.0 **** 0.0
118 O23756 4.99099 30.1941 -2.78873 O.3 0.0 **** -0.0685
119 C23793 -1.72336 26.6842 -4.70988 C.2 0.0 **** -0.1268
120 O23660 10.098 46.5039 10.3897 O.3 0.0 **** -0.32
121 H23851 -4.76202 32.5962 4.29997 H 0.0 **** 0.053
122 S23703 3.89601 37.9305 9.40387 S.2 0.0 **** 0.024
123 H23878 -3.04249 28.6551 -3.32272 H 0.0 **** 0.053
124 C23656 8.79959 45.8844 12.3853 C.3 0.0 **** -0.106
125 H23847 -0.0852113 31.4786 5.42254 H 0.0 **** 0.053
126 C23663 10.8246 44.2405 14.7495 C.3 0.0 **** -0.106
127 H23883 3.69494 43.6743 10.7178 H 0.0 **** 0.053
128 H23848 -2.65219 31.7016 5.58634 H 0.0 **** 0.053
129 C23783 3.73667 24.3692 -9.28049 C.2 0.0 **** -0.1268
130 H23894 4.71743 24.3046 -9.7552 H 0.0 **** 0.1268
131 H23904 -5.47702 22.3845 -7.13199 H 0.0 **** 0.053
132 O23774 -0.346205 33.2388 6.48074 O.3 0.0 **** -0.57
133 H23855 -0.962459 29.395 1.7479 H 0.0 **** 0.053
134 C23800 -3.67451 23.3075 -7.77175 C.2 0.0 **** 0.347
135 O23743 9.15632 36.0649 3.64809 O.3 0.0 **** -0.202
136 H23837 1.98369 40.4562 11.7386 H 0.0 **** 0.053
137 C23675 8.98073 38.8695 8.64804 C.2 0.0 **** 0.232
138 H23866 9.53237 36.3277 -0.378889 H 0.0 **** 0.053
139 H23805 8.33586 44.9422 12.718 H 0.0 **** 0.053
140 H23843 1.22719 34.7082 6.52086 H 0.0 **** 0.1268
141 H23899 -3.66289 25.06 -4.26777 H 0.0 **** 0.053
142 C23682 6.58559 37.6329 7.80016 C.2 0.0 **** 0.0
143 C23749 7.05839 33.0408 0.513366 C.2 0.0 **** -0.1268
144 C23759 0.062963 29.753 -1.25322 C.3 0.0 **** -0.053
145 C23686 6.7767 39.6617 11.6277 C.2 0.0 **** 0.0
146 H23872 6.92916 31.5546 -1.7452 H 0.0 **** 0.1268
147 H23887 1.72811 44.805 11.7609 H 0.0 **** 0.053
148 C23668 12.069 42.8295 11.9273 C.3 0.0 **** -0.106
149 H23806 10.4997 47.0811 12.8965 H 0.0 **** 0.053
150 C23762 -0.863302 28.669 -3.37226 C.3 0.0 **** -0.053
151 C23766 1.73305 28.0298 -4.28277 C.2 0.0 **** 0.0
152 H23845 -1.28161 32.5625 2.15282 H 0.0 **** 0.053
153 C23727 -1.30628 32.8426 4.31768 C.3 0.0 **** -0.053
154 H23824 12.8391 38.6112 9.35894 H 0.0 **** 0.053
155 H23860 -3.84095 31.9021 1.2412 H 0.0 **** 0.353
156 C23661 10.8509 43.6793 12.2783 C.3 0.0 **** -0.053
157 H23804 8.16234 46.7033 12.7528 H 0.0 **** 0.053
158 C23782 4.62586 26.0767 -7.72494 C.2 0.0 **** -0.1268
159 C23772 2.59135 42.1529 9.67271 C.3 0.0 **** -0.159
160 H23886 3.37464 41.3808 9.63088 H 0.0 **** 0.053
161 H23900 -4.51827 25.7312 -5.6594 H 0.0 **** 0.053
162 C23722 2.38901 31.6451 1.10066 C.2 0.0 **** 0.0
163 C23662 10.3371 43.2691 13.688 C.3 0.0 **** 0.107
164 H23891 6.21978 29.1779 -4.70132 H 0.0 **** 0.1268
165 H23889 1.5235 44.6715 9.99295 H 0.0 **** 0.053
166 H23831 4.72726 41.086 16.554 H 0.0 **** 0.053
167 H23827 7.54839 38.7685 15.976 H 0.0 **** 0.053
168 H23857 -2.91061 28.4497 0.512291 H 0.0 **** 0.053
169 C23677 11.3407 39.3972 8.0149 C.3 0.0 **** -0.106
170 H23814 10.8297 46.3798 15.071 H 0.0 **** 0.053
171 C23687 5.78023 40.2787 13.8705 C.2 0.0 **** 0.0
172 H23888 0.643224 43.5705 11.0739 H 0.0 **** 0.053
173 H23832 2.72764 39.6654 16.1575 H 0.0 **** 0.053
174 H23890 0.331156 32.9362 7.10511 H 0.0 **** 0.41
175 C23757 3.91461 29.4821 -3.26622 C.2 0.0 **** 0.0265
176 H23846 -1.24079 33.8976 4.00719 H 0.0 **** 0.053
177 H23861 10.7419 34.2067 2.78734 H 0.0 **** 0.053
178 C23718 5.75787 34.5874 3.69095 C.2 0.0 **** 0.0
179 H23841 4.69063 39.0894 11.7885 H 0.0 **** 0.1268
180 O23665 10.791 41.9587 14.0609 O.3 0.0 **** -0.32
181 H23803 8.80877 44.8726 10.4355 H 0.0 **** 0.053
182 C23690 8.47784 40.2694 14.7591 C.2 0.0 **** -0.1268
183 C23724 4.74869 32.3424 0.832372 C.2 0.0 **** 0.0
184 C23769 -0.688102 27.4865 -4.28521 C.2 0.0 **** 0.0
185 C23710 2.22736 33.7868 4.84234 C.2 0.0 **** 0.0
186 C23704 3.14335 36.1948 7.54303 C.2 0.0 **** -0.1268
187 C23765 -0.896963 30.8501 -1.74819 C.3 0.0 **** -0.106
188 H23816 10.8898 40.0307 13.4699 H 0.0 **** 0.053
189 H23869 12.514 34.7568 1.36294 H 0.0 **** 0.053
190 C23770 0.621592 27.279 -4.80066 C.2 0.0 **** 0.0
191 H23902 -4.11523 22.7562 -5.02648 H 0.0 **** 0.053
192 C23709 3.42621 33.8001 4.0415 C.2 0.0 **** 0.0
193 H23836 2.83174 43.0931 13.017 H 0.0 **** 0.053
194 H23898 -2.71541 26.8544 -4.30029 H 0.0 **** 0.1268
195 H23844 8.83131 36.8939 5.35843 H 0.0 **** 0.1268
196 C23701 5.47285 36.9082 7.30205 C.2 0.0 **** 0.0
197 C23702 4.21038 36.9276 7.99636 C.2 0.0 **** -0.012
198 H23802 8.0679 46.4957 10.3994 H 0.0 **** 0.053
199 C23726 -1.1423 31.9492 3.06276 C.3 0.0 **** 0.107
200 H23892 6.51157 27.6862 -6.6507 H 0.0 **** 0.1268
201 H23818 12.4633 43.1201 10.9422 H 0.0 **** 0.053
202 C23671 9.17516 40.1148 11.1424 C.2 0.0 **** 0.0
203 H23895 2.83119 22.8965 -10.5456 H 0.0 **** 0.1268
204 C23761 1.59163 28.7909 -3.11263 C.2 0.0 **** 0.0
205 H23873 0.326232 31.0541 1.02851 H 0.0 **** 0.1268
206 H23839 1.30184 39.8698 14.0174 H 0.0 **** 0.053
207 C23732 -2.0991 30.7597 3.00336 C.3 0.0 **** -0.053
208 C23711 2.15693 34.6236 5.96698 C.2 0.0 **** -0.1268
209 C23714 2.35122 32.3053 2.38214 C.2 0.0 **** 0.0
210 C23788 -0.27006 25.5751 -6.32898 C.2 0.0 **** 0.0
211 H23858 -5.24706 29.3787 1.6403 H 0.0 **** 0.053
212 C23752 6.00641 31.5778 -1.16449 C.2 0.0 **** -0.1268
213 H23903 -5.57871 24.1357 -7.35142 H 0.0 **** 0.053
214 C23742 10.1355 36.2618 2.60952 C.3 0.0 **** 0.107
215 H23876 -0.732226 29.5561 -4.02423 H 0.0 **** 0.053
216 C23767 3.0065 27.9421 -4.91325 C.2 0.0 **** 0.0
217 C23791 -0.923647 22.9744 -8.95315 C.2 0.0 **** -0.1268
218 H23859 -4.5821 30.0747 0.156035 H 0.0 **** 0.053
219 H23825 12.6178 41.6528 9.02348 H 0.0 **** 0.053
220 C23670 10.315 40.0982 10.2604 C.2 0.0 **** 0.0
221 C23657 10.205 46.0271 13.0051 C.3 0.0 **** -0.053
222 H23807 12.2054 45.314 12.6226 H 0.0 **** 0.053
223 H23819 12.8558 43.0498 12.6659 H 0.0 **** 0.053
224 H23815 9.21387 45.6883 14.9111 H 0.0 **** 0.053
225 H23875 0.300976 27.6995 -1.86604 H 0.0 **** 0.053
226 H23821 11.2954 38.478 7.4132 H 0.0 **** 0.053
227 H23812 11.9256 44.2697 14.7133 H 0.0 **** 0.053
228 C23771 2.76286 43.0994 10.8679 C.3 0.0 **** -0.053
229 H23813 10.545 43.8681 15.7455 H 0.0 **** 0.053
230 C23786 1.20213 24.5693 -8.02128 C.2 0.0 **** 0.0
231 H23871 7.98365 33.0283 -0.0605531 H 0.0 **** 0.1268
232 C23797 -3.89897 24.8772 -5.32549 C.3 0.0 **** -0.106
233 H23862 11.0223 36.6321 3.14331 H 0.0 **** 0.053
234 C23779 2.10149 26.2662 -6.47822 C.2 0.0 **** 0.0
235 C23673 7.95992 39.5687 10.7678 C.2 0.0 **** 0.0
236 H23817 12.6923 40.8286 12.3253 H 0.0 **** 0.053
237 H23808 11.2763 44.8258 10.0339 H 0.0 **** 0.053
238 C23695 4.30274 41.6947 12.3144 C.3 0.0 **** -0.106
239 C23684 8.22695 40.4394 13.4417 C.2 0.0 **** 0.0
240 C23777 4.46241 26.9612 -6.6539 C.2 0.0 **** 0.0
241 C23731 -3.59708 31.194 3.13975 C.3 0.0 **** 0.134
242 C23773 1.6005 44.0958 10.9279 C.3 0.0 **** -0.159
243 C23723 3.61038 31.6398 0.362958 C.2 0.0 **** 0.0
244 C23700 5.56621 39.0833 11.1397 C.2 0.0 **** -0.1268
245 H23826 13.609 40.8231 10.2232 H 0.0 **** 0.053
246 C23755 1.27232 31.0211 0.511607 C.2 0.0 **** -0.1268
247 C23696 2.91958 42.3464 12.2058 C.3 0.0 **** -0.053
248 C23794 -1.54195 25.6859 -5.70273 C.2 0.0 **** 0.0
249 H23896 -1.74268 22.3629 -9.31616 H 0.0 **** 0.1268
250 C23789 0.815291 26.3695 -5.86079 C.2 0.0 **** 0.0
@<TRIPOS>BOND
1 50 49 1
2 58 60 1
3 159 160 1
4 232 141 1
5 107 114 2
6 84 208 un
7 221 124 1
8 83 221 1
9 4 83 1
10 120 4 1
11 17 124 1
12 17 120 1
13 163 156 1
14 126 163 1
15 113 126 1
16 83 156 1
17 221 113 1
18 16 180 1
19 75 16 1
20 148 75 1
21 163 180 1
22 156 148 1
23 220 110 un
24 202 220 un
25 29 202 un
26 75 110 1
27 16 29 1
28 85 235 1
29 137 85 un
30 33 137 un
31 202 235 un
32 220 33 un
33 77 169 1
34 112 77 1
35 110 112 1
36 33 169 1
37 42 78 1
38 142 42 un
39 97 142 un
40 137 78 1
41 85 97 un
42 1 239 un
43 145 1 2
44 29 239 1
45 235 145 un
46 95 171 2
47 64 95 1
48 182 64 1
49 1 171 1
50 239 182 2
51 114 58 1
52 95 60 1
53 171 107 1
54 247 238 1
55 105 247 1
56 46 105 1
57 107 238 1
58 114 46 1
59 244 52 un
60 145 244 un
61 97 52 un
62 197 196 un
63 122 197 1
64 52 122 un
65 142 196 un
66 84 186 un
67 100 84 un
68 18 100 un
69 197 186 un
70 196 18 un
71 192 74 un
72 185 192 un
73 208 185 un
74 100 74 un
75 81 76 un
76 209 81 un
77 39 209 un
78 185 76 un
79 192 39 un
80 111 96 un
81 42 111 un
82 18 96 un
83 15 178 un
84 96 15 un
85 74 178 un
86 91 69 un
87 178 91 un
88 39 69 un
89 243 162 un
90 183 243 un
91 69 183 un
92 209 162 un
93 199 108 1
94 153 199 1
95 36 153 1
96 81 108 1
97 76 36 1
98 104 61 1
99 241 104 1
100 207 241 1
101 153 61 1
102 199 207 1
103 99 89 1
104 10 99 1
105 35 10 1
106 207 89 1
107 241 35 1
108 57 40 un
109 5 57 un
110 91 5 un
111 15 40 un
112 34 88 1
113 214 34 1
114 135 214 1
115 57 88 1
116 40 135 1
117 116 38 1
118 50 116 1
119 68 50 1
120 214 38 1
121 34 68 1
122 143 79 un
123 5 143 un
124 183 79 un
125 20 47 un
126 212 20 un
127 79 212 un
128 243 47 un
129 44 48 un
130 246 44 un
131 162 246 un
132 47 48 un
133 175 118 1
134 26 175 un
135 20 118 1
136 48 26 1
137 7 144 1
138 204 7 1
139 44 144 1
140 26 204 un
141 98 150 1
142 54 98 1
143 187 54 1
144 7 150 1
145 144 187 1
146 216 151 1
147 65 216 1
148 175 65 un
149 204 151 un
150 150 184 1
151 151 190 un
152 184 190 un
153 247 228 1
154 228 159 1
155 228 242 1
156 36 132 1
157 55 28 1
158 240 55 un
159 6 240 1
160 65 28 un
161 216 6 un
162 8 234 un
163 11 8 1
164 158 11 un
165 6 234 un
166 240 158 un
167 12 129 un
168 72 12 1
169 230 72 1
170 11 129 un
171 8 230 un
172 210 117 un
173 250 210 un
174 234 250 un
175 230 117 un
176 217 80 un
177 2 217 un
178 72 2 un
179 117 80 un
180 248 119 un
181 210 248 un
182 190 250 un
183 184 119 un
184 63 70 un
185 248 63 un
186 80 70 un
187 62 232 1
188 115 62 1
189 134 115 1
190 63 232 1
191 70 134 1
192 134 93 2
193 17 198 1
194 17 181 1
195 124 157 1
196 124 139 1
197 221 149 1
198 83 222 1
199 4 237 1
200 4 56 1
201 156 22 1
202 163 45 1
203 126 227 1
204 126 229 1
205 113 170 1
206 113 224 1
207 16 188 1
208 75 236 1
209 148 201 1
210 148 223 1
211 29 9 1
212 169 226 1
213 169 25 1
214 77 92 1
215 77 154 1
216 112 219 1
217 112 245 1
218 64 167 1
219 64 71 1
220 182 41 1
221 60 109 1
222 60 166 1
223 58 173 1
224 58 101 1
225 238 73 1
226 238 3 1
227 247 193 1
228 105 136 1
229 105 32 1
230 46 206 1
231 46 66 1
232 244 179 1
233 186 106 1
234 208 140 1
235 111 195 1
236 199 152 1
237 153 176 1
238 36 125 1
239 61 128 1
240 61 21 1
241 104 24 1
242 104 121 1
243 241 13 1
244 207 53 1
245 89 37 1
246 89 133 1
247 99 82 1
248 99 168 1
249 10 211 1
250 10 218 1
251 35 155 1
252 34 177 1
253 214 233 1
254 38 59 1
255 38 27 1
256 116 87 1
257 116 138 1
258 50 102 1
259 68 189 1
260 68 51 1
261 143 231 1
262 212 146 1
263 246 205 1
264 144 86 1
265 7 225 1
266 150 215 1
267 98 30 1
268 98 123 1
269 54 19 1
270 54 103 1
271 187 31 1
272 187 94 1
273 228 127 1
274 159 23 1
275 159 14 1
276 242 147 1
277 242 172 1
278 242 165 1
279 132 174 1
280 28 164 1
281 55 200 1
282 158 67 1
283 129 130 1
284 12 203 1
285 217 249 1
286 2 43 1
287 119 194 1
288 232 161 1
289 62 90 1
290 62 191 1
291 115 213 1
292 115 131 1
@<TRIPOS>MOLECULE
Sketch 4
130 142
SMALL
USER_CHARGES


@<TRIPOS>ATOM
1 H10253 7.40143 40.0125 63.011 H 0.0 **** 0.053
2 O10205 6.44285 45.1947 68.7297 O.3 0.0 **** -0.452
3 H10252 11.8825 42.063 63.0403 H 0.0 **** 0.053
4 C10196 15.5922 43.6807 68.7193 C.3 0.0 **** -0.159
5 C10156 5.80593 43.1739 66.7204 C.ar 0.0 **** 0.0
6 C10198 14.7238 42.7903 66.0834 C.3 0.0 **** -0.159
7 C10152 8.61465 41.6035 63.8236 C.ar 0.0 **** 0.0
8 C10162 4.82677 43.7994 67.5892 C.ar 0.0 **** 0.0
9 C10186 -1.78181 49.6317 73.9521 C.3 0.0 **** -0.053
10 H10218 3.82555 38.8474 66.1849 H 0.0 **** 0.053
11 H10237 14.6909 45.2278 70.4802 H 0.0 **** 0.053
12 H10243 16.1296 44.6066 68.4492 H 0.0 **** 0.053
13 H10256 4.81432 41.8351 63.3409 H 0.0 **** 0.41
14 C10151 9.96329 41.8728 64.0337 C.ar 0.0 **** 0.0
15 C10182 0.667024 48.9657 73.6131 C.ar 0.0 **** 0.0
16 H10240 13.9499 44.2576 72.6636 H 0.0 **** 0.053
17 C10153 7.64801 42.1202 64.754 C.ar 0.0 **** 0.0
18 C10187 -3.07475 48.8162 73.8934 C.3 0.0 **** -0.106
19 H10222 3.87994 49.21 71.4898 H 0.0 **** 0.053
20 C10202 2.10361 38.5594 64.9382 C.3 0.0 **** -0.159
21 C10144 11.3994 43.7278 67.7012 C.ar 0.0 **** 0.0
22 C10209 -6.5184 47.7175 70.3073 C.3 0.0 **** -0.159
23 C10195 13.5822 43.8354 71.7154 C.3 0.0 **** -0.159
24 H10250 10.6 41.4174 62.0082 H 0.0 **** 0.053
25 H10216 1.19996 41.548 65.9322 H 0.0 **** 0.053
26 H10210 9.40712 43.2172 68.2586 H 0.0 **** 0.053
27 C10185 -1.38256 49.9657 75.389 C.3 0.0 **** -0.106
28 C10208 -5.88935 48.5254 73.1052 C.3 0.0 **** -0.159
29 C10171 1.77936 45.8373 69.8915 C.2 0.0 **** 0.367
30 C10142 13.7057 43.2785 67.0894 C.ar 0.0 **** 0.0
31 C10189 -2.40384 48.1524 71.5745 C.ar 0.0 **** 0.0
32 H10213 12.3899 41.7668 65.2399 H 0.0 **** 0.053
33 O10206 5.79438 46.838 70.4007 O.2 0.0 **** -0.419
34 C10163 1.8416 41.4896 66.831 C.3 0.0 **** -0.106
35 C10158 6.24369 42.0078 64.6039 C.ar 0.0 **** 0.042
36 C10145 11.8177 44.256 68.9391 C.ar 0.0 **** 0.0
37 C10155 7.18029 43.3805 66.8265 C.ar 0.0 **** -0.1268
38 C10203 1.04293 39.1937 67.5418 C.3 0.0 **** -0.159
39 C10188 -3.44648 48.4265 72.4842 C.ar 0.0 **** 0.0
40 H10238 14.1842 42.946 71.4742 H 0.0 **** 0.053
41 O10207 0.562823 45.5086 69.722 O.2 0.0 **** -0.419
42 H10242 15.7271 43.5296 69.7983 H 0.0 **** 0.053
43 H10268 -7.04773 46.9394 70.8816 H 0.0 **** 0.053
44 C10197 10.7577 44.7566 69.8918 C.3 0.0 **** -0.159
45 H10265 -5.69148 47.9953 74.0493 H 0.0 **** 0.053
46 C10192 -5.09429 47.8796 70.7777 C.ar 0.0 **** 0.0
47 H10236 13.0583 45.746 70.834 H 0.0 **** 0.053
48 C10176 3.07657 48.205 73.2293 C.3 0.0 **** -0.106
49 C10183 1.06724 49.6971 74.8764 C.3 0.0 **** -0.106
50 H10254 9.04534 40.0751 62.3547 H 0.0 **** 0.053
51 H10261 1.3267 38.1481 67.7352 H 0.0 **** 0.053
52 H10221 5.02215 48.0854 72.2354 H 0.0 **** 0.053
53 C10166 3.54702 40.5906 64.9479 C.3 0.0 **** -0.106
54 O10201 5.76014 41.6207 63.3741 O.3 0.0 **** -0.452
55 C10169 2.81581 45.1614 69.1353 C.ar 0.0 **** 0.052
56 C10148 9.50046 43.0044 66.1475 C.ar 0.0 **** 0.0
57 C10147 9.92783 43.694 67.4098 C.3 0.0 **** -0.106
58 H10217 2.97201 40.0417 67.901 H 0.0 **** 0.053
59 H10233 -3.87841 49.3952 74.3692 H 0.0 **** 0.053
60 H10211 9.53267 44.7286 67.409 H 0.0 **** 0.053
61 H10214 7.54399 44.004 67.6268 H 0.0 **** 0.1268
62 H10244 10.0654 43.9435 70.1661 H 0.0 **** 0.053
63 C10167 5.17837 44.827 68.5398 C.ar 0.0 **** 0.042
64 H10247 14.352 42.8645 65.054 H 0.0 **** 0.053
65 H10235 -4.284 47.304 68.867 H 0.0 **** 0.1268
66 C10168 4.18287 45.4828 69.3029 C.ar 0.0 **** 0.052
67 C10184 -0.0137678 50.6442 75.4085 C.3 0.0 **** -0.106
68 C10150 11.8903 42.7317 65.4309 C.3 0.0 **** -0.106
69 C10181 -0.673494 48.9285 73.2033 C.ar 0.0 **** 0.0
70 H10219 2.7354 40.9027 64.2622 H 0.0 **** 0.053
71 H10223 3.35961 49.0241 73.902 H 0.0 **** 0.053
72 H10230 -1.3424 49.0315 75.9765 H 0.0 **** 0.053
73 C10165 2.97346 39.4494 65.8318 C.ar 0.0 **** -0.053
74 H10227 -0.0543655 51.5457 74.7745 H 0.0 **** 0.053
75 H10270 -7.09377 48.6495 70.4268 H 0.0 **** 0.053
76 H10246 11.1708 45.1608 70.8216 H 0.0 **** 0.053
77 H10251 11.3486 40.389 63.246 H 0.0 **** 0.053
78 C10199 10.9983 41.414 63.0307 C.3 0.0 **** -0.159
79 C10143 12.3327 43.2595 66.7736 C.ar 0.0 **** 0.0
80 H10241 16.0966 42.8507 68.2083 H 0.0 **** 0.053
81 C10173 3.52869 47.166 71.0157 C.ar 0.0 **** 0.0
82 H10245 10.1371 45.5393 69.4254 H 0.0 **** 0.053
83 H10248 14.9906 41.7326 66.2569 H 0.0 **** 0.053
84 C10194 13.6593 44.862 70.5743 C.3 0.0 **** -0.106
85 C10174 4.56625 46.5007 70.2417 C.2 0.0 **** 0.367
86 H10234 -1.89722 47.5088 69.5879 H 0.0 **** 0.1268
87 H10269 -6.54623 47.4314 69.2472 H 0.0 **** 0.053
88 C10178 1.19695 47.6247 71.6638 C.ar 0.0 **** 0.2405
89 H10267 -5.96763 49.5977 73.3536 H 0.0 **** 0.053
90 C10157 5.33925 42.3279 65.647 C.ar 0.0 **** 0.0
91 C10160 3.10061 42.305 66.6481 C.2 0.0 **** 0.0
92 H10239 12.545 43.4996 71.8633 H 0.0 **** 0.053
93 H10224 3.25255 47.2657 73.7871 H 0.0 **** 0.053
94 H10255 7.81406 41.2468 61.8245 H 0.0 **** 0.053
95 H10259 1.21217 39.1077 64.5937 H 0.0 **** 0.053
96 C10175 3.96252 48.2251 71.9869 C.3 0.0 **** -0.106
97 H10220 4.34286 40.1581 64.3341 H 0.0 **** 0.053
98 C10170 2.4503 44.16 68.2113 C.ar 0.0 **** 0.042
99 C10193 -4.79112 48.2751 72.0977 C.ar 0.0 **** 0.0
100 H10266 -6.86828 48.1997 72.7353 H 0.0 **** 0.053
101 H10212 12.2844 43.3999 64.6401 H 0.0 **** 0.053
102 C10190 -2.71399 47.7428 70.2707 C.ar 0.0 **** -0.1268
103 H10260 0.631185 39.613 68.4717 H 0.0 **** 0.053
104 H10257 1.76432 37.6552 65.4622 H 0.0 **** 0.053
105 H10258 2.66827 38.2462 64.0465 H 0.0 **** 0.053
106 H10215 1.24086 41.849 67.6667 H 0.0 **** 0.053
107 C10141 14.1268 43.7529 68.3453 C.ar 0.0 **** 0.0
108 C10161 3.45679 43.42 67.4798 C.ar 0.0 **** 0.0
109 H10225 1.31472 48.9483 75.6505 H 0.0 **** 0.053
110 C10164 2.24289 40.0208 67.0744 C.ar 0.0 **** -0.053
111 H10263 0.671571 44.5636 68.6951 H 0.0 **** 0.41
112 C10191 -4.04283 47.6205 69.8842 C.ar 0.0 **** -0.1268
113 C10146 13.1881 44.2883 69.2545 C.ar 0.0 **** 0.0
114 C10159 4.00756 41.8023 65.7247 C.2 0.0 **** 0.0
115 C10154 8.1005 42.8228 65.9259 C.ar 0.0 **** 0.0
116 H10229 -2.15147 50.6068 75.8485 H 0.0 **** 0.053
117 H10249 15.6545 43.3707 66.1397 H 0.0 **** 0.053
118 C10172 2.1872 46.8798 70.8565 C.ar 0.0 **** 0.0
119 H10231 -1.97433 50.5855 73.4205 H 0.0 **** 0.053
120 C10149 10.4097 42.5546 65.2164 C.ar 0.0 **** 0.0
121 O10204 1.16253 43.9255 67.9916 O.3 0.0 **** -0.452
122 H10226 1.99645 50.2612 74.7016 H 0.0 **** 0.053
123 C10177 1.62407 48.2859 72.8418 C.ar 0.0 **** 0.0
124 C10200 8.20251 40.6893 62.6912 C.3 0.0 **** -0.159
125 C10180 -0.99973 48.2364 72.0174 C.ar 0.0 **** 0.2405
126 H10228 0.252133 50.9761 76.4236 H 0.0 **** 0.053
127 H10232 -2.94506 47.9022 74.5051 H 0.0 **** 0.053
128 N10179 -0.0810251 47.6286 71.2592 N.ar 0.0 **** -0.481
129 H10262 0.240704 39.1916 66.7888 H 0.0 **** 0.053
130 H10264 6.39328 45.9596 69.4671 H 0.0 **** 0.41
@<TRIPOS>BOND
1 56 57 1
2 85 81 1
3 66 63 am
4 57 60 1
5 79 30 am
6 21 79 am
7 36 21 am
8 113 36 am
9 107 30 am
10 107 113 am
11 120 56 am
12 68 120 1
13 21 57 1
14 79 68 1
15 7 14 am
16 17 7 am
17 115 17 am
18 120 14 am
19 56 115 am
20 5 37 am
21 90 5 am
22 35 90 am
23 115 37 am
24 17 35 am
25 91 114 1
26 108 91 1
27 8 108 am
28 90 114 1
29 5 8 am
30 110 34 1
31 73 110 am
32 53 73 1
33 91 34 1
34 114 53 1
35 55 66 am
36 98 55 am
37 8 63 am
38 108 98 am
39 118 29 1
40 81 118 am
41 55 29 1
42 66 85 1
43 48 96 1
44 123 48 1
45 88 123 am
46 81 96 1
47 118 88 am
48 125 128 am
49 69 125 am
50 15 69 am
51 88 128 am
52 123 15 am
53 67 49 1
54 27 67 1
55 9 27 1
56 15 49 1
57 69 9 1
58 39 18 1
59 31 39 am
60 125 31 am
61 9 18 1
62 112 102 am
63 46 112 am
64 99 46 am
65 31 102 am
66 39 99 am
67 113 84 1
68 84 23 1
69 107 4 1
70 36 44 1
71 30 6 1
72 14 78 1
73 7 124 1
74 35 54 1
75 73 20 1
76 110 38 1
77 98 121 1
78 63 2 1
79 85 33 2
80 29 41 2
81 99 28 1
82 46 22 1
83 57 26 1
84 68 101 1
85 68 32 1
86 37 61 1
87 34 106 1
88 34 25 1
89 110 58 1
90 73 10 1
91 53 70 1
92 53 97 1
93 96 52 1
94 96 19 1
95 48 71 1
96 48 93 1
97 49 109 1
98 49 122 1
99 67 74 1
100 67 126 1
101 27 116 1
102 27 72 1
103 9 119 1
104 18 127 1
105 18 59 1
106 102 86 1
107 112 65 1
108 84 47 1
109 84 11 1
110 23 40 1
111 23 92 1
112 23 16 1
113 4 80 1
114 4 42 1
115 4 12 1
116 44 62 1
117 44 82 1
118 44 76 1
119 6 64 1
120 6 83 1
121 6 117 1
122 78 24 1
123 78 77 1
124 78 3 1
125 124 1 1
126 124 50 1
127 124 94 1
128 54 13 1
129 20 104 1
130 20 105 1
131 20 95 1
132 38 103 1
133 38 51 1
134 38 129 1
135 121 111 1
136 2 130 1
137 28 45 1
138 28 100 1
139 28 89 1
140 22 43 1
141 22 87 1
142 22 75 1
@<TRIPOS>MOLECULE
Sketch 4
130 142
SMALL
USER_CHARGES


@<TRIPOS>ATOM
1 C7584 43.7843 30.5216 14.4378 C.3 0.0 **** -0.106
2 H7620 49.1703 17.4545 21.6366 H 0.0 **** 0.053
3 H7632 44.1145 27.2829 11.922 H 0.0 **** 0.053
4 H7669 49.3755 24.5221 9.56936 H 0.0 **** 0.053
5 C7586 45.0521 28.8401 13.0823 C.3 0.0 **** -0.053
6 C7559 48.5778 19.4261 20.9215 C.2 0.0 **** 0.0
7 H7652 49.6958 19.7365 29.1642 H 0.0 **** 0.053
8 H7644 44.2386 23.7633 25.7555 H 0.0 **** 0.053
9 C7557 48.6038 20.0577 22.2084 C.ar 0.0 **** 0.0
10 H7667 46.3404 28.0558 9.13191 H 0.0 **** 0.053
11 H7627 44.7047 31.1273 14.4864 H 0.0 **** 0.053
12 C7575 45.2791 27.5847 19.1824 C.3 0.0 **** -0.106
13 C7602 48.4293 15.8975 19.4091 C.3 0.0 **** -0.159
14 H7626 43.9219 30.1767 16.5708 H 0.0 **** 0.053
15 H7661 45.8705 16.405 18.0709 H 0.0 **** 0.053
16 C7550 47.7675 21.2023 28.6206 C.3 0.0 **** -0.106
17 H7631 45.9262 29.5108 12.9579 H 0.0 **** 0.053
18 H7615 47.3273 19.7984 17.8028 H 0.0 **** 0.053
19 C7570 47.4743 22.2882 18.7404 C.ar 0.0 **** 0.042
20 H7657 47.6767 15.2013 19.014 H 0.0 **** 0.053
21 H7645 45.4944 24.989 25.8992 H 0.0 **** 0.053
22 O7601 50.3331 18.6532 23.1467 O.3 0.0 **** -0.452
23 C7578 45.849 26.5567 16.5878 C.ar 0.0 **** 0.2405
24 C7603 46.4874 17.2686 17.7796 C.3 0.0 **** -0.159
25 C7581 45.2715 28.0671 14.3622 C.ar 0.0 **** 0.0
26 O7606 45.8751 25.9756 21.3849 O.2 0.0 **** -0.419
27 O7605 46.6667 23.9462 22.4658 O.3 0.0 **** -0.452
28 C7590 47.8676 25.6679 13.0685 C.ar 0.0 **** -0.1268
29 H7641 44.5239 22.8383 32.1167 H 0.0 **** 0.053
30 C7544 46.1609 22.8644 27.5991 C.ar 0.0 **** 0.0
31 C7595 42.1527 24.6656 28.8563 C.3 0.0 **** -0.159
32 C7597 44.6661 24.5091 26.4459 C.3 0.0 **** -0.159
33 C7567 46.931 23.375 21.2936 C.ar 0.0 **** 0.042
34 C7591 48.4139 25.2462 11.8627 C.ar 0.0 **** -0.1268
35 H7664 46.2895 24.9091 22.2174 H 0.0 **** 0.41
36 H7656 50.6141 18.7179 22.2201 H 0.0 **** 0.41
37 C7576 44.3008 27.8909 18.0518 C.3 0.0 **** -0.106
38 C7608 46.1528 26.9847 9.31945 C.3 0.0 **** -0.159
39 C7552 49.402 19.1653 25.8339 C.ar 0.0 **** 0.0
40 H7625 42.6922 29.2078 15.7722 H 0.0 **** 0.053
41 C7553 48.9221 19.848 24.6631 C.ar 0.0 **** 0.0
42 H7643 44.9529 24.5545 32.0026 H 0.0 **** 0.053
43 C7561 47.6825 21.4741 19.9192 C.ar 0.0 **** 0.0
44 H7650 50.6263 18.6076 28.1709 H 0.0 **** 0.053
45 C7594 43.56 25.2232 29.1222 C.3 0.0 **** -0.106
46 H7655 51.2333 18.0245 25.5034 H 0.0 **** 0.053
47 C7566 48.9166 17.9694 20.7051 C.3 0.0 **** -0.106
48 H7629 43.7561 30.3662 12.2607 H 0.0 **** 0.053
49 H7662 47.317 16.8967 17.1599 H 0.0 **** 0.053
50 H7647 47.7154 21.5102 31.0949 H 0.0 **** 0.053
51 C7571 46.6911 24.3495 17.6338 C.2 0.0 **** 0.367
52 C7562 47.4769 22.0414 21.2109 C.ar 0.0 **** 0.0
53 C7599 49.6224 19.0175 28.3391 C.3 0.0 **** -0.159
54 C7551 49.0674 19.6634 27.0891 C.ar 0.0 **** 0.0
55 H7666 46.545 26.4256 8.46224 H 0.0 **** 0.053
56 C7582 44.6702 28.4198 15.5789 C.ar 0.0 **** 0.0
57 H7638 41.9322 23.8341 29.5432 H 0.0 **** 0.053
58 H7630 42.9064 29.0566 13.1067 H 0.0 **** 0.053
59 H7646 43.8958 25.2657 26.6266 H 0.0 **** 0.053
60 H7639 42.0804 24.2727 27.8312 H 0.0 **** 0.053
61 C7549 48.1643 20.7709 27.2327 C.ar 0.0 **** 0.0
62 C7573 45.8468 26.2041 19.0257 C.ar 0.0 **** 0.0
63 H7628 42.936 31.2223 14.4604 H 0.0 **** 0.053
64 C7572 46.1274 25.7092 17.7674 C.ar 0.0 **** 0.0
65 C7574 46.116 25.4482 20.2399 C.2 0.0 **** 0.367
66 H7614 47.028 22.5955 23.8411 H 0.0 **** 0.1268
67 C7542 46.1337 22.5299 30.0038 C.ar 0.0 **** 0.0
68 H7616 48.8014 18.9009 18.153 H 0.0 **** 0.053
69 C7554 48.0355 20.9718 24.8139 C.ar 0.0 **** 0.0
70 H7610 45.8232 22.3308 25.5639 H 0.0 **** 0.053
71 C7545 45.1553 23.8454 27.7117 C.ar 0.0 **** 0.0
72 H7660 45.8716 17.9327 17.1552 H 0.0 **** 0.053
73 H7635 49.2654 24.5621 11.8639 H 0.0 **** 0.1268
74 N7579 46.4497 26.252 15.4288 N.ar 0.0 **** -0.481
75 C7564 47.0042 18.0248 19.0058 C.ar 0.0 **** -0.053
76 C7547 46.6794 22.5397 26.2289 C.3 0.0 **** -0.106
77 C7588 46.2399 26.9893 11.8405 C.ar 0.0 **** 0.0
78 C7598 46.6835 21.8535 31.2395 C.3 0.0 **** -0.159
79 C7609 48.5121 25.1656 9.35261 C.3 0.0 **** -0.159
80 C7587 45.0353 27.8966 11.8782 C.3 0.0 **** -0.106
81 H7649 46.6804 22.5315 32.1036 H 0.0 **** 0.053
82 H7659 49.1082 16.1684 18.5847 H 0.0 **** 0.053
83 C7596 44.4591 23.7227 31.4702 C.3 0.0 **** -0.159
84 H7653 49.7679 17.2471 24.9117 H 0.0 **** 0.053
85 H7637 43.5956 25.6621 30.1287 H 0.0 **** 0.053
86 C7565 47.7904 17.1504 20.0167 C.ar 0.0 **** -0.053
87 H7613 47.4916 20.3054 29.2008 H 0.0 **** 0.053
88 H7651 48.9813 18.1893 28.6894 H 0.0 **** 0.053
89 C7589 46.7774 26.5485 13.0678 C.ar 0.0 **** 0.0
90 H7618 47.0908 16.8278 20.8038 H 0.0 **** 0.053
91 C7560 48.0885 20.101 19.8111 C.2 0.0 **** 0.0
92 C7580 46.1519 26.9645 14.3369 C.ar 0.0 **** 0.2405
93 C7558 49.2706 19.5092 23.3323 C.ar 0.0 **** 0.042
94 H7623 43.9425 28.9241 18.1388 H 0.0 **** 0.053
95 C7592 47.8871 25.6662 10.631 C.ar 0.0 **** 0.0
96 C7585 43.7966 29.7092 13.1439 C.3 0.0 **** -0.106
97 H7612 48.6651 21.5926 29.1394 H 0.0 **** 0.053
98 C7541 45.0912 23.468 30.1182 C.ar 0.0 **** 0.0
99 H7658 49.0222 15.365 20.1687 H 0.0 **** 0.053
100 H7621 44.8094 27.6801 20.1695 H 0.0 **** 0.053
101 H7634 48.2544 25.3153 14.0246 H 0.0 **** 0.1268
102 H7648 46.0833 20.9695 31.5192 H 0.0 **** 0.053
103 H7611 47.1369 23.4469 25.7881 H 0.0 **** 0.053
104 C7577 44.9461 27.641 16.7148 C.ar 0.0 **** 0.0
105 H7622 46.1135 28.3106 19.156 H 0.0 **** 0.053
106 C7569 46.9403 23.5898 18.8437 C.ar 0.0 **** 0.052
107 O7604 47.8194 21.8267 17.5447 O.3 0.0 **** -0.452
108 C7563 47.8456 19.2475 18.588 C.3 0.0 **** -0.106
109 H7640 41.3806 25.4395 28.9878 H 0.0 **** 0.053
110 H7642 43.3964 23.9817 31.3773 H 0.0 **** 0.053
111 H7665 45.0602 26.853 9.33741 H 0.0 **** 0.053
112 C7548 47.6486 21.3993 26.1213 C.ar 0.0 **** 0.0
113 C7543 46.6621 22.2231 28.7341 C.ar 0.0 **** 0.0
114 H7668 47.7951 24.5794 8.75459 H 0.0 **** 0.053
115 C7546 44.6327 24.1641 28.9781 C.ar 0.0 **** 0.0
116 C7555 47.5898 21.6879 23.6926 C.ar 0.0 **** -0.1268
117 H7624 43.4113 27.2406 18.1537 H 0.0 **** 0.053
118 H7617 46.1279 18.4306 19.5375 H 0.0 **** 0.053
119 O7607 46.9426 23.8278 16.5019 O.2 0.0 **** -0.419
120 C7568 46.6605 24.1236 20.1232 C.ar 0.0 **** 0.052
121 H7636 43.7616 26.0562 28.4328 H 0.0 **** 0.053
122 H7663 47.5056 22.6033 16.8801 H 0.0 **** 0.41
123 C7583 43.7204 29.5958 15.6574 C.3 0.0 **** -0.106
124 C7600 50.1664 17.8647 25.7253 C.3 0.0 **** -0.159
125 H7670 48.8546 25.9969 8.71573 H 0.0 **** 0.053
126 C7556 47.8576 21.2813 22.3865 C.ar 0.0 **** 0.0
127 C7593 46.7782 26.5385 10.6209 C.ar 0.0 **** 0.0
128 H7654 50.0917 17.2856 26.6527 H 0.0 **** 0.053
129 H7633 44.9631 28.4973 10.9609 H 0.0 **** 0.053
130 H7619 49.8036 17.911 20.0447 H 0.0 **** 0.053
@<TRIPOS>BOND
1 54 53 1
2 28 101 1
3 37 12 1
4 113 67 am
5 30 113 am
6 71 30 am
7 115 71 am
8 98 67 am
9 98 115 am
10 112 76 1
11 61 112 am
12 16 61 1
13 30 76 1
14 113 16 1
15 39 54 am
16 41 39 am
17 69 41 am
18 61 54 am
19 112 69 am
20 126 116 am
21 9 126 am
22 93 9 am
23 69 116 am
24 41 93 am
25 91 6 1
26 43 91 1
27 52 43 am
28 9 6 1
29 126 52 am
30 75 108 1
31 86 75 am
32 47 86 1
33 91 108 1
34 6 47 1
35 120 33 am
36 106 120 am
37 19 106 am
38 52 33 am
39 43 19 am
40 64 51 1
41 62 64 am
42 65 62 1
43 106 51 1
44 120 65 1
45 104 37 1
46 23 104 am
47 62 12 1
48 64 23 am
49 92 74 am
50 25 92 am
51 56 25 am
52 23 74 am
53 104 56 am
54 1 123 1
55 96 1 1
56 5 96 1
57 56 123 1
58 25 5 1
59 77 80 1
60 89 77 am
61 92 89 am
62 5 80 1
63 34 28 am
64 95 34 am
65 127 95 am
66 89 28 am
67 77 127 am
68 115 45 1
69 45 31 1
70 98 83 1
71 71 32 1
72 67 78 1
73 39 124 1
74 93 22 1
75 86 13 1
76 75 24 1
77 19 107 1
78 33 27 1
79 65 26 2
80 51 119 2
81 127 38 1
82 95 79 1
83 76 70 1
84 76 103 1
85 16 97 1
86 16 87 1
87 116 66 1
88 108 18 1
89 108 68 1
90 75 118 1
91 86 90 1
92 47 130 1
93 47 2 1
94 12 100 1
95 12 105 1
96 37 94 1
97 37 117 1
98 123 40 1
99 123 14 1
100 1 11 1
101 1 63 1
102 96 48 1
103 96 58 1
104 5 17 1
105 80 3 1
106 80 129 1
107 34 73 1
108 45 121 1
109 45 85 1
110 31 57 1
111 31 60 1
112 31 109 1
113 83 29 1
114 83 110 1
115 83 42 1
116 32 8 1
117 32 21 1
118 32 59 1
119 78 50 1
120 78 102 1
121 78 81 1
122 53 44 1
123 53 88 1
124 53 7 1
125 124 84 1
126 124 128 1
127 124 46 1
128 22 36 1
129 13 20 1
130 13 99 1
131 13 82 1
132 24 72 1
133 24 15 1
134 24 49 1
135 107 122 1
136 27 35 1
137 38 111 1
138 38 55 1
139 38 10 1
140 79 114 1
141 79 4 1
142 79 125 1
@<TRIPOS>MOLECULE
Sketch 4
130 142
SMALL
USER_CHARGES


@<TRIPOS>ATOM
1 H7918 49.7707 62.3655 -0.343892 H 0.0 **** 0.053
2 C7837 60.2679 66.3522 6.94709 C.ar 0.0 **** 0.0
3 H7885 61.0833 67.8086 9.32137 H 0.0 **** 0.053
4 C7806 55.3466 54.751 8.88788 C.ar 0.0 **** 0.0
5 C7847 61.1577 70.9761 5.80937 C.3 0.0 **** -0.106
6 C7843 61.8088 67.63 8.50726 C.3 0.0 **** -0.106
7 H7927 62.1021 73.265 4.03738 H 0.0 **** 0.053
8 H7912 52.917 53.3707 2.76704 H 0.0 **** 0.053
9 H7916 53.1719 59.8463 -0.0796448 H 0.0 **** 0.41
10 C7821 55.0398 62.7503 3.01271 C.ar 0.0 **** 0.0
11 H7911 51.2938 54.0735 2.7392 H 0.0 **** 0.053
12 C7813 53.3364 57.9078 2.43494 C.ar 0.0 **** 0.0
13 H7929 59.7843 72.1547 0.127763 H 0.0 **** 0.053
14 C7802 54.2021 53.4187 7.18774 C.ar 0.0 **** 0.0
15 C7816 54.6027 60.3345 3.37157 C.ar 0.0 **** 0.0
16 C7835 60.0116 63.8892 7.21298 C.3 0.0 **** -0.106
17 H7874 55.3586 59.1102 4.94037 H 0.0 **** 0.1268
18 C7804 54.8318 55.7149 6.71256 C.ar 0.0 **** 0.0
19 C7814 54.0629 57.9607 3.67631 C.ar 0.0 **** 0.0
20 O7861 52.8972 59.0317 0.370506 O.3 0.0 **** -0.452
21 C7819 53.3069 61.6173 1.70353 C.2 0.0 **** 0.0
22 H7881 59.8142 63.0613 7.90556 H 0.0 **** 0.053
23 H7873 52.6938 53.906 4.96862 H 0.0 **** 0.053
24 C7853 60.6458 71.7674 3.44825 C.ar 0.0 **** 0.0
25 C7815 54.7228 59.1346 4.07045 C.ar 0.0 **** -0.1268
26 C7841 61.0777 68.5153 6.24847 C.ar 0.0 **** 0.0
27 H7902 54.4486 52.7786 10.5069 H 0.0 **** 0.053
28 C7844 62.8498 68.7547 8.49439 C.3 0.0 **** -0.106
29 C7817 53.7389 60.3491 2.21422 C.ar 0.0 **** 0.0
30 O7864 55.7199 64.9874 2.45226 O.3 0.0 **** -0.452
31 C7833 58.9382 63.9364 6.16488 C.ar 0.0 **** 0.0
32 H7895 59.4894 69.9736 0.786903 H 0.0 **** 0.1268
33 H7872 54.2996 53.6056 4.36124 H 0.0 **** 0.053
34 H7884 59.1887 65.392 8.52815 H 0.0 **** 0.053
35 H7920 51.4801 66.0209 2.70842 H 0.0 **** 0.053
36 C7805 55.3899 55.8414 8.00051 C.ar 0.0 **** 0.0
37 H7877 51.7251 63.6411 3.22358 H 0.0 **** 0.053
38 C7845 62.2632 70.0257 7.88215 C.3 0.0 **** -0.106
39 C7855 54.9872 55.515 11.2761 C.3 0.0 **** -0.159
40 H7923 56.4222 65.6841 2.85793 H 0.0 **** 0.41
41 C7808 54.1619 56.7905 4.49047 C.ar 0.0 **** 0.0
42 H7909 54.1195 51.2504 7.19456 H 0.0 **** 0.053
43 H7889 62.975 70.8639 7.94619 H 0.0 **** 0.053
44 H7886 62.3012 66.6763 8.75267 H 0.0 **** 0.053
45 H7907 53.6491 51.9802 5.65254 H 0.0 **** 0.053
46 C7801 54.7073 53.5549 8.49392 C.ar 0.0 **** 0.0
47 C7831 57.6757 65.1154 4.40257 C.2 0.0 **** 0.367
48 C7820 53.9122 62.7937 2.12472 C.2 0.0 **** 0.0
49 C7811 52.902 55.5396 2.81394 C.ar 0.0 **** 0.0
50 C7818 53.31 59.1076 1.68198 C.ar 0.0 **** 0.042
51 C7829 56.8972 63.9104 4.19095 C.ar 0.0 **** 0.052
52 C7828 57.1351 62.7347 4.9402 C.ar 0.0 **** 0.052
53 H7921 49.9387 65.1931 2.37488 H 0.0 **** 0.053
54 C7826 52.0925 61.786 0.820122 C.3 0.0 **** -0.106
55 H7924 57.472 60.7903 6.05644 H 0.0 **** 0.41
56 H7876 53.2491 64.2413 0.654044 H 0.0 **** 0.053
57 H7925 60.5201 73.4523 4.80579 H 0.0 **** 0.053
58 C7869 60.1184 72.5721 1.08726 C.3 0.0 **** -0.159
59 C7823 53.1915 64.0663 1.74446 C.3 0.0 **** -0.106
60 C7810 53.6976 54.3592 4.90614 C.3 0.0 **** -0.106
61 H7887 63.7205 68.4402 7.89509 H 0.0 **** 0.053
62 H7894 59.5702 68.1377 2.48428 H 0.0 **** 0.1268
63 C7836 60.1098 65.229 7.937 C.3 0.0 **** -0.106
64 C7854 55.9506 54.8625 10.272 C.3 0.0 **** -0.106
65 H7914 51.0905 55.7687 0.927287 H 0.0 **** 0.053
66 H7888 63.2116 68.9356 9.51787 H 0.0 **** 0.053
67 C7863 50.9903 65.2779 2.06158 C.3 0.0 **** -0.159
68 H7892 60.2675 71.2021 6.42816 H 0.0 **** 0.053
69 C7868 61.0163 73.1723 3.86402 C.3 0.0 **** -0.159
70 H7870 54.4814 57.7836 6.34044 H 0.0 **** 0.053
71 O7866 58.4318 61.6653 6.61758 O.2 0.0 **** -0.419
72 O7867 57.4205 66.1561 3.71813 O.2 0.0 **** -0.419
73 H7879 52.4243 62.1861 -0.157663 H 0.0 **** 0.053
74 C7848 60.7263 70.7215 4.38636 C.ar 0.0 **** 0.0
75 C7825 51.0354 62.7791 1.37586 C.ar 0.0 **** -0.053
76 C7842 61.0458 67.4925 7.20726 C.ar 0.0 **** 0.0
77 C7807 54.8815 56.9066 5.80208 C.3 0.0 **** -0.106
78 H7891 62.8256 69.6413 5.84618 H 0.0 **** 0.053
79 C7824 51.7129 63.9323 2.16039 C.ar 0.0 **** -0.053
80 H7910 52.3088 54.1173 1.28398 H 0.0 **** 0.053
81 N7839 59.6497 67.2363 4.78372 N.ar 0.0 **** -0.481
82 C7803 54.2588 54.5103 6.29868 C.ar 0.0 **** 0.0
83 H7930 61.0911 73.0644 0.927574 H 0.0 **** 0.053
84 C7827 56.3791 61.5616 4.70398 C.ar 0.0 **** 0.042
85 H7913 51.1683 57.533 0.791466 H 0.0 **** 0.053
86 H7919 50.752 63.8393 -0.507571 H 0.0 **** 0.053
87 H7880 51.5793 60.8392 0.626665 H 0.0 **** 0.053
88 H7917 49.3095 63.8434 0.535527 H 0.0 **** 0.053
89 C7830 55.879 63.9125 3.21448 C.ar 0.0 **** 0.042
90 H7928 59.4056 73.3605 1.3797 H 0.0 **** 0.053
91 H7893 61.8107 71.8575 5.87351 H 0.0 **** 0.053
92 C7858 53.5999 52.1053 6.74134 C.3 0.0 **** -0.159
93 C7822 55.3326 61.5417 3.71016 C.ar 0.0 **** 0.0
94 C7809 53.6088 55.6044 4.06257 C.ar 0.0 **** 0.0
95 O7865 56.671 60.4838 5.42735 O.3 0.0 **** -0.452
96 C7846 61.8878 69.7791 6.42139 C.3 0.0 **** -0.053
97 H7915 52.3144 56.5435 -0.10808 H 0.0 **** 0.053
98 C7849 60.3405 69.4113 4.03418 C.ar 0.0 **** 0.0
99 C7838 59.5807 66.2706 5.71087 C.ar 0.0 **** 0.2405
100 C7859 52.3282 54.21 2.37722 C.3 0.0 **** -0.159
101 H7871 55.9387 57.1766 5.61261 H 0.0 **** 0.053
102 H7905 56.8034 57.4556 7.67726 H 0.0 **** 0.053
103 C7862 50.1631 63.237 0.202592 C.3 0.0 **** -0.159
104 C7834 58.1693 62.7217 5.9376 C.2 0.0 **** 0.367
105 H7883 60.9396 65.2051 8.6541 H 0.0 **** 0.053
106 C7850 59.8902 69.1494 2.73315 C.ar 0.0 **** -0.1268
107 H7878 50.396 62.2201 2.07714 H 0.0 **** 0.053
108 C7852 60.2083 71.4911 2.13556 C.ar 0.0 **** 0.0
109 H7890 61.3576 70.3229 8.44002 H 0.0 **** 0.053
110 H7926 60.7387 73.9121 3.10454 H 0.0 **** 0.053
111 C7832 58.734 65.0901 5.43393 C.ar 0.0 **** 0.0
112 H7899 54.7283 56.5351 10.9557 H 0.0 **** 0.053
113 H7898 54.0494 54.942 11.3377 H 0.0 **** 0.053
114 H7897 56.2423 53.8685 10.6378 H 0.0 **** 0.053
115 C7851 59.8377 70.1788 1.80156 C.ar 0.0 **** -0.1268
116 H7901 53.6712 51.8047 9.2529 H 0.0 **** 0.053
117 H7922 51.0052 65.6655 1.03193 H 0.0 **** 0.053
118 C7856 54.5563 52.4135 9.47724 C.3 0.0 **** -0.159
119 H7896 56.8838 55.443 10.2276 H 0.0 **** 0.053
120 H7904 55.2533 57.9734 8.33234 H 0.0 **** 0.053
121 H7908 52.5364 52.0278 7.02942 H 0.0 **** 0.053
122 H7900 55.4291 55.5681 12.2833 H 0.0 **** 0.053
123 H7882 60.9748 63.6656 6.71683 H 0.0 **** 0.053
124 H7906 56.4248 57.1738 9.3915 H 0.0 **** 0.053
125 H7875 53.6297 64.9418 2.22417 H 0.0 **** 0.053
126 C7812 52.7128 56.6759 2.0339 C.ar 0.0 **** 0.0
127 C7857 56.0047 57.1679 8.38057 C.3 0.0 **** -0.159
128 C7860 51.7746 56.6213 0.848739 C.3 0.0 **** -0.159
129 H7903 55.4307 51.7395 9.45924 H 0.0 **** 0.053
130 C7840 60.3526 68.3424 5.05011 C.ar 0.0 **** 0.2405
@<TRIPOS>BOND
1 51 52 am
2 82 14 am
3 18 82 am
4 36 18 am
5 4 36 am
6 46 14 am
7 46 4 am
8 41 77 1
9 94 41 am
10 60 94 1
11 18 77 1
12 82 60 1
13 126 49 am
14 12 126 am
15 19 12 am
16 94 49 am
17 41 19 am
18 15 25 am
19 29 15 am
20 50 29 am
21 19 25 am
22 12 50 am
23 48 21 1
24 10 48 1
25 93 10 am
26 29 21 1
27 15 93 am
28 79 59 1
29 75 79 am
30 54 75 1
31 48 59 1
32 21 54 1
33 52 84 am
34 89 51 am
35 93 84 am
36 10 89 am
37 111 47 1
38 31 111 am
39 104 31 1
40 51 47 1
41 52 104 1
42 63 16 1
43 2 63 1
44 99 2 am
45 31 16 1
46 111 99 am
47 130 81 am
48 26 130 am
49 76 26 am
50 99 81 am
51 2 76 am
52 28 6 1
53 38 28 1
54 96 38 1
55 76 6 1
56 26 96 1
57 74 5 1
58 98 74 am
59 130 98 am
60 96 5 1
61 115 106 am
62 108 115 am
63 24 108 am
64 98 106 am
65 74 24 am
66 4 64 1
67 64 39 1
68 46 118 1
69 36 127 1
70 14 92 1
71 49 100 1
72 126 128 1
73 50 20 1
74 75 103 1
75 79 67 1
76 89 30 1
77 84 95 1
78 104 71 2
79 47 72 2
80 24 69 1
81 108 58 1
82 77 70 1
83 77 101 1
84 60 33 1
85 60 23 1
86 25 17 1
87 59 125 1
88 59 56 1
89 79 37 1
90 75 107 1
91 54 73 1
92 54 87 1
93 16 22 1
94 16 123 1
95 63 105 1
96 63 34 1
97 6 3 1
98 6 44 1
99 28 61 1
100 28 66 1
101 38 43 1
102 38 109 1
103 96 78 1
104 5 68 1
105 5 91 1
106 106 62 1
107 115 32 1
108 64 119 1
109 64 114 1
110 39 113 1
111 39 112 1
112 39 122 1
113 118 116 1
114 118 27 1
115 118 129 1
116 127 120 1
117 127 102 1
118 127 124 1
119 92 45 1
120 92 121 1
121 92 42 1
122 100 80 1
123 100 11 1
124 100 8 1
125 128 85 1
126 128 65 1
127 128 97 1
128 20 9 1
129 103 88 1
130 103 1 1
131 103 86 1
132 67 35 1
133 67 53 1
134 67 117 1
135 30 40 1
136 95 55 1
137 69 57 1
138 69 110 1
139 69 7 1
140 58 90 1
141 58 13 1
142 58 83 1
@<TRIPOS>MOLECULE
Sketch 4
130 142
SMALL
USER_CHARGES


@<TRIPOS>ATOM
1 H1914 70.8738 3.96795 66.2188 H 0.0 **** 0.1268
2 H1938 70.3565 1.04797 54.8807 H 0.0 **** 0.053
3 H1943 69.777 4.07494 62.3646 H 0.0 **** 0.41
4 C1857 67.6387 7.5908 66.2407 C.ar 0.0 **** 0.0
5 H1948 75.8457 4.42993 68.1141 H 0.0 **** 0.053
6 O1886 64.3303 6.20821 62.6924 O.2 0.0 **** -0.419
7 C1864 68.2899 9.37132 69.593 C.3 0.0 **** -0.106
8 H1949 75.0507 2.84597 67.9595 H 0.0 **** 0.053
9 H1896 70.391 2.02959 58.8366 H 0.0 **** 0.053
10 H1933 65.2598 0.549727 54.2725 H 0.0 **** 0.053
11 C1875 58.7539 9.3681 57.1868 C.3 0.0 **** -0.159
12 H1899 69.1596 0.79367 57.2494 H 0.0 **** 0.053
13 C1825 59.9309 6.29815 57.6209 C.ar 0.0 **** 0.0
14 O1885 64.3281 4.99593 60.5845 O.3 0.0 **** -0.452
15 C1845 69.7035 2.61484 56.2396 C.ar 0.0 **** -0.053
16 C1878 57.731 4.29811 54.4731 C.3 0.0 **** -0.159
17 C1858 68.2145 6.49409 65.5529 C.ar 0.0 **** 0.2405
18 C1868 72.0978 6.34047 68.3411 C.ar 0.0 **** 0.0
19 C1839 67.7451 2.26985 57.8713 C.2 0.0 **** 0.0
20 H1900 68.0468 1.27502 55.9558 H 0.0 **** 0.053
21 H1910 70.2281 9.97939 68.8431 H 0.0 **** 0.053
22 H1941 71.8992 4.40544 56.2085 H 0.0 **** 0.053
23 N1859 69.3268 5.87999 65.9804 N.ar 0.0 **** -0.481
24 C1821 58.0302 6.21326 56.0985 C.ar 0.0 **** 0.0
25 C1882 70.7987 1.75773 55.5968 C.3 0.0 **** -0.159
26 C1832 63.5455 1.26263 55.3756 C.ar 0.0 **** 0.0
27 C1867 71.7083 7.70006 68.8661 C.3 0.0 **** -0.106
28 H1934 63.7051 0.187826 53.5051 H 0.0 **** 0.053
29 H1950 75.1076 3.67583 69.5353 H 0.0 **** 0.053
30 H1906 66.5961 9.10355 68.2713 H 0.0 **** 0.053
31 C1824 60.4361 5.12113 57.0329 C.ar 0.0 **** 0.0
32 H1908 67.9888 10.3412 70.017 H 0.0 **** 0.053
33 H1920 58.3168 10.2747 57.6335 H 0.0 **** 0.053
34 H1946 75.2862 6.03106 69.5906 H 0.0 **** 0.053
35 H1942 72.344 3.11408 57.3481 H 0.0 **** 0.053
36 C1826 58.7128 6.83538 57.1669 C.ar 0.0 **** 0.0
37 C1828 62.3291 3.41651 56.7999 C.ar 0.0 **** 0.0
38 C1831 62.2356 1.65179 55.1147 C.ar 0.0 **** 0.0
39 H1902 65.1049 6.50721 65.8211 H 0.0 **** 0.053
40 H1945 74.4249 7.54427 69.2415 H 0.0 **** 0.053
41 H1923 55.8709 6.50845 56.0628 H 0.0 **** 0.053
42 C1889 74.9867 3.82643 68.4505 C.3 0.0 **** -0.159
43 C1850 68.3177 3.98679 61.1714 C.ar 0.0 **** 0.042
44 C1833 64.263 1.90391 56.4438 C.ar 0.0 **** 0.0
45 H1898 69.229 3.21214 55.4451 H 0.0 **** 0.053
46 H1901 64.6287 7.62833 64.5398 H 0.0 **** 0.053
47 C1823 59.7278 4.46821 56.0216 C.ar 0.0 **** 0.0
48 H1912 72.0382 8.47837 68.1506 H 0.0 **** 0.053
49 H1939 71.3325 1.17155 56.3619 H 0.0 **** 0.053
50 H1917 57.055 8.11506 57.6743 H 0.0 **** 0.053
51 C1834 63.6461 2.99171 57.1563 C.ar 0.0 **** 0.0
52 C1871 72.774 3.86302 67.2592 C.ar 0.0 **** -0.1268
53 C1873 73.3388 5.76017 68.6627 C.ar 0.0 **** 0.0
54 H1903 65.8463 8.78655 66.4368 H 0.0 **** 0.053
55 C1888 74.2963 6.50085 69.5674 C.3 0.0 **** -0.159
56 H1931 61.574 1.39418 53.0562 H 0.0 **** 0.053
57 H1947 73.9206 6.53613 70.6044 H 0.0 **** 0.053
58 H1928 57.9651 4.7014 53.4718 H 0.0 **** 0.053
59 C1877 60.7409 6.94772 58.7181 C.3 0.0 **** -0.159
60 C1865 69.811 9.2364 69.5456 C.3 0.0 **** -0.106
61 C1844 70.2106 3.58956 57.3337 C.ar 0.0 **** -0.053
62 C1869 71.2084 5.68916 67.461 C.ar 0.0 **** 0.0
63 H1940 71.9459 4.73641 57.958 H 0.0 **** 0.053
64 C1848 66.2765 5.1079 61.8923 C.ar 0.0 **** 0.052
65 C1880 64.2214 0.257919 54.4691 C.3 0.0 **** -0.159
66 O1884 69.5572 3.59274 61.4359 O.3 0.0 **** -0.452
67 C1872 73.6765 4.49983 68.1257 C.ar 0.0 **** 0.0
68 C1837 66.3158 2.33142 57.7758 C.ar 0.0 **** 0.0
69 H1930 61.6994 -0.118139 53.9766 H 0.0 **** 0.053
70 C1822 58.5132 5.00864 55.5549 C.ar 0.0 **** 0.0
71 C1879 61.4257 0.941797 54.0527 C.3 0.0 **** -0.159
72 C1842 66.2924 3.86061 59.7407 C.ar 0.0 **** 0.0
73 C1838 65.5597 1.53519 56.8798 C.ar 0.0 **** 0.042
74 H1929 56.6484 4.41021 54.6205 H 0.0 **** 0.053
75 C1870 71.5598 4.44585 66.9182 C.ar 0.0 **** -0.1268
76 H1895 70.3629 3.66277 59.4945 H 0.0 **** 0.053
77 C1863 67.6888 9.21265 68.1921 C.3 0.0 **** -0.106
78 H1890 62.4901 5.40692 57.5231 H 0.0 **** 0.053
79 H1911 69.9144 7.11656 69.8694 H 0.0 **** 0.053
80 C1851 68.326 5.19799 63.3207 C.2 0.0 **** 0.367
81 H1937 71.538 2.368 55.06 H 0.0 **** 0.053
82 O1881 66.0627 0.329453 56.4448 O.3 0.0 **** -0.452
83 C1853 66.2698 6.35254 64.0477 C.ar 0.0 **** 0.0
84 C1846 68.6222 1.65424 56.8057 C.3 0.0 **** -0.106
85 C1830 60.2459 3.1855 55.4191 C.3 0.0 **** -0.106
86 C1874 58.147 8.09278 57.7929 C.3 0.0 **** -0.106
87 C1843 69.913 3.02173 58.736 C.3 0.0 **** -0.106
88 H1925 60.9202 6.2485 59.5514 H 0.0 **** 0.053
89 C1840 68.4145 2.91707 58.9012 C.2 0.0 **** 0.0
90 C1860 69.9478 6.34647 67.069 C.ar 0.0 **** 0.2405
91 O1887 69.5466 4.88171 63.485 O.2 0.0 **** -0.419
92 C1849 67.6291 4.76609 62.1246 C.ar 0.0 **** 0.052
93 C1836 65.6159 3.30077 58.5859 C.ar 0.0 **** 0.0
94 H1909 70.2593 9.43362 70.5323 H 0.0 **** 0.053
95 C1855 65.4986 7.17901 65.0352 C.3 0.0 **** -0.106
96 C1827 61.7476 4.58989 57.5324 C.3 0.0 **** -0.106
97 H1927 57.9496 3.22336 54.4471 H 0.0 **** 0.053
98 C1876 56.777 6.84238 55.5274 C.3 0.0 **** -0.159
99 H1935 64.258 -0.748473 54.9149 H 0.0 **** 0.053
100 H1897 69.6139 4.51282 57.2506 H 0.0 **** 0.053
101 H1926 60.2695 7.84758 59.1261 H 0.0 **** 0.053
102 H1922 56.8084 7.93772 55.5935 H 0.0 **** 0.053
103 H1921 56.644 6.58325 54.4693 H 0.0 **** 0.053
104 C1852 67.5848 6.01698 64.3027 C.ar 0.0 **** 0.0
105 H1904 66.697 8.97096 64.901 H 0.0 **** 0.053
106 H1915 73.046 2.89267 66.8381 H 0.0 **** 0.1268
107 C1861 69.4498 7.42784 67.8268 C.ar 0.0 **** 0.0
108 H1932 60.3513 0.98833 54.2686 H 0.0 **** 0.053
109 C1829 61.634 2.7527 55.8139 C.ar 0.0 **** 0.0
110 H1924 61.7373 7.23865 58.3463 H 0.0 **** 0.053
111 C1866 70.1988 7.83528 69.0744 C.3 0.0 **** -0.053
112 H1919 59.8421 9.39152 57.3467 H 0.0 **** 0.053
113 H1918 58.5807 9.39775 56.1001 H 0.0 **** 0.053
114 H1894 63.7689 4.33147 58.826 H 0.0 **** 0.1268
115 C1862 68.264 8.05042 67.4115 C.ar 0.0 **** 0.0
116 C1847 65.607 4.65855 60.729 C.ar 0.0 **** 0.042
117 C1841 67.6775 3.5851 59.9368 C.ar 0.0 **** 0.0
118 C1856 66.402 8.23237 65.6703 C.3 0.0 **** -0.106
119 H1916 58.3229 8.08217 58.8787 H 0.0 **** 0.053
120 H1905 67.8543 10.139 67.613 H 0.0 **** 0.053
121 C1835 64.3017 3.60477 58.2348 C.ar 0.0 **** -0.1268
122 H1944 64.0996 5.56479 61.4536 H 0.0 **** 0.41
123 C1854 65.5658 5.90167 62.8563 C.2 0.0 **** 0.367
124 H1892 59.5386 2.36846 55.6624 H 0.0 **** 0.053
125 H1891 61.6525 4.33573 58.6062 H 0.0 **** 0.053
126 C1883 71.684 3.98205 57.2013 C.3 0.0 **** -0.159
127 H1913 72.216 7.91807 69.8159 H 0.0 **** 0.053
128 H1907 67.8837 8.58911 70.2559 H 0.0 **** 0.053
129 H1893 60.2016 3.25951 54.3192 H 0.0 **** 0.053
130 H1936 66.8154 0.0951004 57.0106 H 0.0 **** 0.41
@<TRIPOS>BOND
1 71 69 1
2 55 40 1
3 11 33 1
4 47 70 am
5 31 47 am
6 13 31 am
7 36 13 am
8 24 70 am
9 24 36 am
10 37 96 1
11 109 37 am
12 85 109 1
13 31 96 1
14 47 85 1
15 26 38 am
16 44 26 am
17 51 44 am
18 109 38 am
19 37 51 am
20 93 121 am
21 68 93 am
22 73 68 am
23 51 121 am
24 44 73 am
25 89 19 1
26 117 89 1
27 72 117 am
28 68 19 1
29 93 72 am
30 61 87 1
31 15 61 am
32 84 15 1
33 89 87 1
34 19 84 1
35 64 116 am
36 92 64 am
37 43 92 am
38 72 116 am
39 117 43 am
40 104 80 1
41 83 104 am
42 123 83 1
43 92 80 1
44 64 123 1
45 118 95 1
46 4 118 1
47 17 4 am
48 83 95 1
49 104 17 am
50 90 23 am
51 107 90 am
52 115 107 am
53 17 23 am
54 4 115 am
55 7 77 1
56 60 7 1
57 111 60 1
58 115 77 1
59 107 111 1
60 18 27 1
61 62 18 am
62 90 62 am
63 111 27 1
64 52 75 am
65 67 52 am
66 53 67 am
67 62 75 am
68 18 53 am
69 36 86 1
70 86 11 1
71 24 98 1
72 13 59 1
73 70 16 1
74 38 71 1
75 26 65 1
76 73 82 1
77 15 25 1
78 61 126 1
79 43 66 1
80 116 14 1
81 123 6 2
82 80 91 2
83 53 55 1
84 67 42 1
85 96 78 1
86 96 125 1
87 85 124 1
88 85 129 1
89 121 114 1
90 87 76 1
91 87 9 1
92 61 100 1
93 15 45 1
94 84 12 1
95 84 20 1
96 95 46 1
97 95 39 1
98 118 54 1
99 118 105 1
100 77 120 1
101 77 30 1
102 7 128 1
103 7 32 1
104 60 94 1
105 60 21 1
106 111 79 1
107 27 48 1
108 27 127 1
109 75 1 1
110 52 106 1
111 86 119 1
112 86 50 1
113 11 113 1
114 11 112 1
115 98 103 1
116 98 102 1
117 98 41 1
118 59 110 1
119 59 88 1
120 59 101 1
121 16 97 1
122 16 58 1
123 16 74 1
124 71 56 1
125 71 108 1
126 65 10 1
127 65 28 1
128 65 99 1
129 82 130 1
130 25 81 1
131 25 2 1
132 25 49 1
133 126 63 1
134 126 22 1
135 126 35 1
136 66 3 1
137 14 122 1
138 55 34 1
139 55 57 1
140 42 5 1
141 42 8 1
142 42 29 1
@<TRIPOS>MOLECULE
Sketch 4
250 292
SMALL
USER_CHARGES


@<TRIPOS>ATOM
1 H29831 44.5806 66.8958 23.0574 H 0.0 **** 0.053
2 C29775 67.3454 58.1361 17.621 C.2 0.0 **** -0.1268
3 H29846 56.6543 63.2168 13.8161 H 0.0 **** 0.053
4 C29773 49.1558 71.3527 19.944 C.3 0.0 **** -0.159
5 H29827 45.9264 64.1553 25.1412 H 0.0 **** 0.053
6 H29813 46.0605 68.4755 29.1856 H 0.0 **** 0.053
7 H29811 47.9022 68.5006 27.484 H 0.0 **** 0.053
8 H29828 45.0369 65.5892 25.5861 H 0.0 **** 0.053
9 C29771 49.5412 70.1552 20.8186 C.3 0.0 **** -0.053
10 H29865 62.5146 65.4028 25.1565 H 0.0 **** 0.053
11 C29672 49.4305 66.42 26.7611 C.3 0.0 **** -0.053
12 C29749 61.6391 61.1877 21.0861 C.2 0.0 **** -0.1268
13 H29843 54.5372 63.0774 16.7427 H 0.0 **** 0.1268
14 C29799 67.9733 55.544 6.18612 C.3 0.0 **** -0.086
15 C29759 62.5274 59.7781 13.3343 C.3 0.0 **** -0.053
16 H29852 56.8404 60.503 10.2106 H 0.0 **** 0.053
17 C29657 48.4139 71.0642 28.9689 C.3 0.0 **** -0.053
18 C29693 46.6989 66.8679 21.2411 C.2 0.0 **** 0.0
19 H29802 50.5237 72.3818 26.6474 H 0.0 **** 0.053
20 C29792 71.5012 54.4077 10.7697 C.2 0.0 **** -0.1268
21 H29822 54.8766 66.1634 27.7852 H 0.0 **** 0.053
22 C29666 49.1166 66.1181 28.235 C.3 0.0 **** 0.107
23 C29784 72.0097 54.6245 13.1922 C.2 0.0 **** -0.1268
24 C29697 48.0549 68.3522 19.7338 C.3 0.0 **** -0.106
25 C29738 60.0458 62.1325 22.692 C.2 0.0 **** 0.042
26 C29768 66.4604 58.3979 16.5245 C.2 0.0 **** 0.0
27 C29726 57.8315 61.4668 13.3165 C.3 0.0 **** 0.107
28 H29824 53.3441 63.9331 29.2314 H 0.0 **** 0.053
29 C29701 54.2573 64.1763 21.4533 C.2 0.0 **** 0.0
30 C29770 66.3922 57.8366 12.7766 C.2 0.0 **** 0.0
31 C29788 67.9346 56.6245 11.2981 C.2 0.0 **** 0.0
32 C29723 61.3467 60.5904 17.4211 C.2 0.0 **** 0.0
33 C29729 55.6028 62.1381 12.2845 C.3 0.0 **** -0.106
34 H29884 51.6527 70.1554 20.2813 H 0.0 **** 0.053
35 O29725 58.2141 60.6434 14.4544 O.3 0.0 **** -0.202
36 C29747 61.8041 62.0686 25.9138 C.3 0.0 **** -0.106
37 C29796 67.4064 56.3746 8.903 C.2 0.0 **** 0.0
38 H29864 60.1435 65.419 25.2941 H 0.0 **** 0.053
39 C29655 50.3085 71.5672 27.3523 C.3 0.0 **** 0.054
40 H29888 48.9078 71.0255 18.9216 H 0.0 **** 0.053
41 C29673 50.9883 65.6659 24.9704 C.2 0.0 **** 0.0
42 C29713 58.0173 61.2054 15.6974 C.2 0.0 **** 0.042
43 C29795 68.6195 55.7061 8.68941 C.2 0.0 **** 0.052
44 H29855 59.4585 59.174 12.6992 H 0.0 **** 0.053
45 H29904 68.1864 54.7773 5.42778 H 0.0 **** 0.053
46 C29760 63.774 58.8826 13.1477 C.3 0.0 **** -0.053
47 C29659 50.8592 70.8841 29.5431 C.3 0.0 **** 0.054
48 C29685 48.6202 66.1304 24.3937 C.2 0.0 **** 0.0
49 H29833 46.0017 64.8297 21.2701 H 0.0 **** 0.053
50 C29684 48.3181 66.0251 25.8188 C.2 0.0 **** 0.0
51 C29677 54.296 65.2214 27.781 C.3 0.0 **** -0.106
52 C29766 65.9916 58.2432 14.0962 C.2 0.0 **** 0.0
53 H29845 58.6208 62.232 13.1948 H 0.0 **** 0.053
54 H29819 49.5766 67.6856 30.7686 H 0.0 **** 0.053
55 C29717 56.092 63.8557 23.5466 C.2 0.0 **** -0.1268
56 H29841 49.4716 65.7339 21.8633 H 0.0 **** 0.1268
57 H29886 51.067 68.5645 20.8239 H 0.0 **** 0.053
58 C29669 51.6319 66.0422 28.6259 C.2 0.0 **** 0.0
59 C29709 57.4583 62.1294 18.2841 C.2 0.0 **** 0.0
60 C29667 50.2897 66.345 29.2053 C.3 0.0 **** -0.053
61 C29786 69.9704 55.6113 12.232 C.2 0.0 **** 0.0
62 C29783 71.6729 55.0815 14.4388 C.2 0.0 **** -0.1268
63 C29762 64.5652 59.2649 11.8826 C.3 0.0 **** -0.053
64 H29842 53.0006 64.0745 18.25 H 0.0 **** 0.1268
65 H29899 65.3841 56.5191 8.2145 H 0.0 **** 0.053
66 C29706 55.8905 63.1653 19.883 C.2 0.0 **** 0.0
67 C29794 67.0845 56.9013 10.1923 C.2 0.0 **** 0.0
68 C29722 60.4095 60.7371 16.3552 C.2 0.0 **** 0.0
69 C29691 45.108 65.9324 22.9036 C.3 0.0 **** -0.106
70 H29825 53.2621 66.9664 29.6843 H 0.0 **** 0.053
71 H29880 63.3147 61.745 10.6098 H 0.0 **** 0.053
72 C29692 45.6088 65.8474 21.4588 C.3 0.0 **** -0.106
73 C29721 59.3944 61.8937 20.3499 C.2 0.0 **** 0.0
74 C29704 53.6968 63.9433 19.0816 C.2 0.0 **** -0.1268
75 H29806 48.4437 72.0355 29.4839 H 0.0 **** 0.053
76 H29859 60.2901 60.8482 9.14911 H 0.0 **** 0.053
77 C29694 47.5856 67.1017 22.2376 C.2 0.0 **** 0.0
78 H29821 54.9876 64.44 27.4346 H 0.0 **** 0.053
79 H29877 62.909 58.7344 10.6235 H 0.0 **** 0.053
80 H29804 48.2166 72.1887 27.1277 H 0.0 **** 0.053
81 C29746 62.3076 63.4989 26.197 C.3 0.0 **** -0.106
82 H29861 59.9278 61.1717 25.2297 H 0.0 **** 0.053
83 O29660 50.8912 71.9615 28.5992 O.3 0.0 **** -0.32
84 C29797 66.3976 56.5606 7.79151 C.3 0.0 **** -0.106
85 H29853 57.1538 59.7147 12.3184 H 0.0 **** 0.053
86 O29740 61.0196 61.9197 23.6402 O.3 0.0 **** -0.202
87 C29687 47.486 66.32 23.4913 C.2 0.0 **** 0.0
88 H29893 70.7562 56.0865 16.7703 H 0.0 **** 0.1268
89 O29680 54.5921 64.7326 25.0823 O.3 0.0 **** -0.464
90 C29720 59.7175 61.4827 19.0304 C.2 0.0 **** 0.0
91 C29758 64.3407 59.2128 15.5921 C.2 0.0 **** 0.0
92 H29823 54.6535 64.93 29.9041 H 0.0 **** 0.053
93 C29767 66.8433 57.989 15.2084 C.2 0.0 **** 0.0
94 H29848 55.1298 61.1474 12.1725 H 0.0 **** 0.053
95 C29668 50.1857 67.7568 29.8537 C.3 0.0 **** -0.106
96 C29675 53.3244 65.1118 25.4805 C.2 0.0 **** 0.232
97 C29785 71.173 54.8752 12.062 C.2 0.0 **** 0.0
98 H29858 58.8077 60.0824 8.56147 H 0.0 **** 0.053
99 C29733 59.2683 59.9299 11.9253 C.3 0.0 **** -0.106
100 H29818 51.1821 68.1099 30.1582 H 0.0 **** 0.053
101 C29791 70.6987 54.6711 9.67924 C.2 0.0 **** -0.1268
102 C29778 68.0616 57.2812 15.0113 C.2 0.0 **** 0.0
103 O29801 70.1588 55.063 6.952 O.2 0.0 **** -0.419
104 C29782 70.103 56.2933 15.9197 C.2 0.0 **** -0.1268
105 H29815 46.4183 70.645 28.2127 H 0.0 **** 0.053
106 C29663 47.0373 68.9334 29.3976 C.3 0.0 **** -0.106
107 C29707 55.5501 63.5974 21.1945 C.2 0.0 **** 0.0
108 C29728 55.8125 61.504 14.772 C.3 0.0 **** 0.107
109 C29745 62.0631 64.4135 24.9916 C.3 0.0 **** -0.106
110 H29903 68.1694 56.5224 5.70945 H 0.0 **** 0.053
111 C29772 50.7935 69.4683 20.2584 C.3 0.0 **** -0.159
112 H29839 46.6002 66.8504 19.112 H 0.0 **** 0.053
113 H29808 51.6516 70.1502 29.2863 H 0.0 **** 0.053
114 C29715 58.7439 61.5895 17.9822 C.2 0.0 **** 0.0
115 C29678 53.8069 64.9328 29.2007 C.3 0.0 **** -0.106
116 C29779 68.4157 56.8126 13.7183 C.2 0.0 **** 0.0
117 H29856 58.6936 58.5717 10.3533 H 0.0 **** 0.053
118 H29809 51.1145 71.3441 30.5081 H 0.0 **** 0.053
119 H29834 48.493 68.8169 23.1202 H 0.0 **** 0.053
120 H29883 49.7828 70.5361 21.8277 H 0.0 **** 0.053
121 H29874 61.6867 59.2721 12.8355 H 0.0 **** 0.053
122 C29727 56.468 62.164 13.5504 C.3 0.0 **** -0.053
123 H29889 49.9851 72.0724 19.8698 H 0.0 **** 0.053
124 C29690 47.0965 65.599 26.2108 C.2 0.0 **** -0.1268
125 C29699 51.521 65.2787 22.2054 C.2 0.0 **** -0.012
126 C29750 62.6468 60.0869 17.1358 C.2 0.0 **** 0.0
127 H29895 72.9276 54.0536 13.0395 H 0.0 **** 0.1268
128 C29676 53.1471 65.3556 26.8142 C.2 0.0 **** 0.0
129 H29854 60.0157 60.7273 12.079 H 0.0 **** 0.053
130 H29876 65.1171 60.1961 12.1224 H 0.0 **** 0.053
131 C29734 59.4506 59.3544 10.5218 C.3 0.0 **** -0.106
132 H29835 49.606 67.8683 22.1632 H 0.0 **** 0.053
133 C29719 57.8037 62.8797 21.9838 C.2 0.0 **** 0.0
134 H29896 70.9828 54.3122 8.69581 H 0.0 **** 0.1268
135 H29894 72.3179 54.8869 15.2976 H 0.0 **** 0.1268
136 O29774 54.477 61.9998 14.8795 O.3 0.0 **** -0.57
137 C29789 67.5726 57.0866 12.5957 C.2 0.0 **** 0.0
138 C29780 69.6126 56.0822 13.5299 C.2 0.0 **** 0.0
139 C29671 50.771 65.8759 26.321 C.2 0.0 **** 0.0
140 C29710 56.4657 62.2434 17.2446 C.2 0.0 **** 0.0
141 H29838 48.0005 68.9907 18.8387 H 0.0 **** 0.053
142 C29670 51.836 65.7585 27.2849 C.2 0.0 **** 0.0
143 H29890 54.0239 61.4656 15.5499 H 0.0 **** 0.41
144 H29816 48.8114 65.0627 28.2864 H 0.0 **** 0.053
145 H29863 60.374 64.7807 23.6605 H 0.0 **** 0.053
146 C29798 66.5444 55.5058 6.70167 C.3 0.0 **** -0.106
147 C29757 65.2078 59.0208 16.6814 C.2 0.0 **** 0.0265
148 O29743 58.5803 63.1629 24.2666 O.3 0.0 **** -0.202
149 C29777 68.9203 57.011 16.1254 C.2 0.0 **** 0.0
150 H29875 63.4181 57.8446 12.9921 H 0.0 **** 0.053
151 H29807 49.2282 70.0137 30.6688 H 0.0 **** 0.053
152 H29860 59.1389 62.2815 10.4477 H 0.0 **** 0.353
153 C29688 46.2626 65.8413 23.8617 C.2 0.0 **** 0.0
154 H29868 63.3752 63.4693 26.4603 H 0.0 **** 0.053
155 H29812 47.264 68.7343 30.4574 H 0.0 **** 0.053
156 H29847 55.771 60.4149 14.5638 H 0.0 **** 0.053
157 C29656 48.788 71.3224 27.4947 C.3 0.0 **** -0.106
158 H29820 49.5422 67.5174 26.648 H 0.0 **** 0.053
159 C29737 58.8251 62.7204 22.9859 C.2 0.0 **** 0.042
160 H29879 61.8117 60.8167 10.6473 H 0.0 **** 0.053
161 H29850 57.1032 63.3289 11.2798 H 0.0 **** 0.053
162 C29718 58.1172 62.4506 20.6593 C.2 0.0 **** 0.0
163 H29814 46.4637 70.9445 29.9513 H 0.0 **** 0.053
164 C29662 48.1062 68.2681 28.5471 C.3 0.0 **** 0.107
165 H29871 62.3648 61.0709 21.8894 H 0.0 **** 0.1268
166 H29867 61.7794 63.9131 27.0729 H 0.0 **** 0.053
167 C29698 46.746 67.5859 19.9241 C.3 0.0 **** -0.106
168 H29878 64.133 59.705 9.79186 H 0.0 **** 0.053
169 H29866 62.5479 63.9753 24.1066 H 0.0 **** 0.053
170 H29862 59.3343 63.3949 26.1203 H 0.0 **** 0.053
171 C29753 63.0297 59.769 15.8241 C.2 0.0 **** 0.0
172 C29708 57.1538 62.5802 19.6051 C.2 0.0 **** 0.0
173 H29830 44.378 65.136 23.1196 H 0.0 **** 0.053
174 C29751 63.5821 59.9183 18.2033 C.2 0.0 **** 0.042
175 H29892 69.1914 57.2758 18.2657 H 0.0 **** 0.1268
176 C29739 60.3783 61.7319 21.372 C.2 0.0 **** 0.0
177 H29826 52.3668 65.7661 30.616 H 0.0 **** 0.053
178 H29849 54.788 62.8664 12.3844 H 0.0 **** 0.053
179 H29870 62.5845 61.4756 25.4127 H 0.0 **** 0.053
180 C29686 49.928 65.8698 23.9795 C.2 0.0 **** 0.0
181 C29679 52.7661 65.9779 29.6097 C.3 0.0 **** -0.106
182 C29716 56.4999 63.4456 22.2604 C.2 0.0 **** 0.0
183 H29898 65.3649 58.0542 9.54185 H 0.0 **** 0.1268
184 H29885 50.6337 69.1707 19.2105 H 0.0 **** 0.053
185 N29736 58.5302 61.6444 9.93226 N.3 0.0 **** -0.727
186 C29761 64.731 58.8216 14.3085 C.2 0.0 **** 0.0
187 C29705 54.9505 63.3305 18.8199 C.2 0.0 **** 0.0
188 C29731 57.414 61.2459 10.7908 C.3 0.0 **** 0.134
189 H29851 55.904 62.6607 10.1683 H 0.0 **** 0.053
190 O29665 47.9818 66.8492 28.7297 O.3 0.0 **** -0.32
191 C29682 53.8794 64.5607 22.7651 C.2 0.0 **** 0.0
192 C29712 56.7497 61.6889 15.9613 C.2 0.0 **** 0.0
193 C29681 54.8401 64.3829 23.7771 C.2 0.0 **** 0.232
194 C29793 65.9611 57.745 10.3961 C.2 0.0 **** -0.1268
195 H29805 48.4957 70.4592 26.876 H 0.0 **** 0.053
196 C29754 62.1332 59.9943 14.7713 C.2 0.0 **** 0.0
197 C29674 52.2944 65.2651 24.5033 C.2 0.0 **** 0.0
198 C29744 60.5503 64.5701 24.7253 C.3 0.0 **** -0.106
199 H29873 60.187 60.6153 14.2233 H 0.0 **** 0.1268
200 C29732 57.8651 60.5316 12.1089 C.3 0.0 **** -0.053
201 C29752 63.2699 60.2657 19.4884 C.2 0.0 **** -0.1268
202 C29748 61.9786 60.8018 19.7895 C.2 0.0 **** 0.0
203 H29810 50.1343 68.8666 28.0201 H 0.0 **** 0.053
204 H29837 48.875 67.633 19.5751 H 0.0 **** 0.053
205 H29891 67.0542 58.467 18.6178 H 0.0 **** 0.1268
206 C29800 69.0177 55.3873 7.28442 C.2 0.0 **** 0.347
207 C29764 62.8202 60.8809 11.0796 C.3 0.0 **** -0.106
208 C29695 48.572 68.2451 22.1783 C.3 0.0 **** -0.106
209 H29902 66.3256 54.5134 7.12889 H 0.0 **** 0.053
210 C29683 52.5777 65.0532 23.1486 C.2 0.0 **** 0.0
211 H29803 50.8171 70.654 26.9836 H 0.0 **** 0.053
212 C29735 59.3011 60.483 9.46318 C.3 0.0 **** 0.081
213 C29658 49.486 70.1663 29.6074 C.3 0.0 **** -0.053
214 C29661 49.5239 68.7786 28.9331 C.3 0.0 **** -0.053
215 C29711 55.2529 62.8868 17.5362 C.2 0.0 **** -0.1268
216 H29829 46.8553 65.4929 27.2671 H 0.0 **** 0.1268
217 C29755 60.8632 60.4651 15.05 C.2 0.0 **** -0.1268
218 H29857 60.4358 58.8707 10.4258 H 0.0 **** 0.053
219 C29781 70.4682 55.8215 14.6486 C.2 0.0 **** 0.0
220 C29790 69.4984 55.4241 9.80578 C.2 0.0 **** 0.0
221 H29836 47.4552 69.7937 21.1945 H 0.0 **** 0.053
222 H29897 72.4144 53.823 10.6396 H 0.0 **** 0.1268
223 H29869 61.5654 61.553 26.856 H 0.0 **** 0.053
224 H29832 44.7871 66.0121 20.7444 H 0.0 **** 0.053
225 C29689 46.0284 65.2604 25.2177 C.3 0.0 **** -0.106
226 C29664 47.0001 70.4488 29.1283 C.3 0.0 **** -0.106
227 H29882 63.6058 61.6214 12.9882 H 0.0 **** 0.053
228 H29840 45.8858 68.2793 19.8479 H 0.0 **** 0.053
229 S29703 51.8011 65.1627 20.4821 S.2 0.0 **** 0.024
230 C29714 59.0708 61.1785 16.6595 C.2 0.0 **** 0.0
231 O29756 64.8451 59.4038 17.9523 O.3 0.0 **** -0.0685
232 C29776 68.5257 57.4749 17.424 C.2 0.0 **** -0.1268
233 C29700 50.2608 65.6456 22.6095 C.2 0.0 **** -0.1268
234 C29702 53.3535 64.3522 20.3449 C.2 0.0 **** -0.012
235 C29769 65.6318 58.2322 11.6411 C.2 0.0 **** 0.0
236 C29696 48.3541 69.1837 20.9862 C.3 0.0 **** -0.053
237 H29817 50.1509 65.6321 30.0406 H 0.0 **** 0.053
238 C29730 56.4891 62.4344 11.0702 C.3 0.0 **** -0.106
239 C29765 62.7074 61.1178 12.5975 C.3 0.0 **** -0.106
240 H29881 61.8578 61.779 12.8258 H 0.0 **** 0.053
241 H29887 48.2784 71.8774 20.3538 H 0.0 **** 0.053
242 H29844 56.7514 63.7599 24.3966 H 0.0 **** 0.1268
243 H29872 64.0031 60.14 20.2858 H 0.0 **** 0.1268
244 C29724 61.004 60.9526 18.7482 C.2 0.0 **** 0.0
245 C29787 69.1329 55.8797 11.1072 C.2 0.0 **** 0.0
246 C29741 60.5713 62.0393 25.0078 C.3 0.0 **** 0.107
247 H29901 65.8222 55.6838 5.89043 H 0.0 **** 0.053
248 H29900 66.5102 57.5682 7.3484 H 0.0 **** 0.053
249 C29742 59.7439 63.3102 25.1037 C.3 0.0 **** 0.107
250 C29763 63.6009 59.5851 10.7463 C.3 0.0 **** -0.106
@<TRIPOS>BOND
1 213 214 1
2 239 240 1
3 193 55 un
4 17 157 1
5 213 17 1
6 47 213 1
7 83 47 1
8 39 157 1
9 39 83 1
10 164 214 1
11 106 164 1
12 226 106 1
13 17 226 1
14 22 190 1
15 60 22 1
16 95 60 1
17 164 190 1
18 214 95 1
19 142 58 un
20 139 142 un
21 11 139 un
22 60 58 1
23 22 11 1
24 197 41 1
25 96 197 un
26 128 96 un
27 139 41 un
28 142 128 un
29 115 51 1
30 181 115 1
31 58 181 1
32 128 51 1
33 193 89 1
34 191 193 un
35 210 191 un
36 96 89 1
37 197 210 un
38 48 50 un
39 180 48 2
40 11 50 1
41 41 180 un
42 153 87 2
43 225 153 1
44 124 225 1
45 48 87 1
46 50 124 2
47 72 69 1
48 18 72 1
49 77 18 2
50 153 69 1
51 87 77 1
52 236 208 1
53 24 236 1
54 167 24 1
55 77 208 1
56 18 167 1
57 233 125 un
58 180 233 un
59 210 125 un
60 234 29 un
61 229 234 1
62 125 229 un
63 191 29 un
64 187 74 un
65 66 187 un
66 107 66 un
67 234 74 un
68 29 107 un
69 59 172 un
70 140 59 un
71 215 140 un
72 66 172 un
73 187 215 un
74 42 192 un
75 230 42 un
76 114 230 un
77 140 192 un
78 59 114 un
79 55 182 un
80 107 182 un
81 133 162 un
82 182 133 un
83 172 162 un
84 73 90 un
85 162 73 un
86 114 90 un
87 32 68 un
88 244 32 un
89 90 244 un
90 230 68 un
91 27 35 1
92 122 27 1
93 108 122 1
94 42 35 1
95 192 108 1
96 238 33 1
97 188 238 1
98 200 188 1
99 122 33 1
100 27 200 1
101 131 99 1
102 212 131 1
103 185 212 1
104 200 99 1
105 188 185 1
106 25 159 un
107 176 25 un
108 73 176 un
109 133 159 un
110 246 86 1
111 249 246 1
112 148 249 1
113 25 86 1
114 159 148 1
115 109 198 1
116 81 109 1
117 36 81 1
118 249 198 1
119 246 36 1
120 12 202 un
121 176 12 un
122 244 202 un
123 174 126 un
124 201 174 un
125 202 201 un
126 32 126 un
127 196 171 un
128 217 196 un
129 68 217 un
130 126 171 un
131 147 231 1
132 91 147 un
133 174 231 1
134 171 91 1
135 46 15 1
136 186 46 1
137 196 15 1
138 91 186 un
139 250 63 1
140 207 250 1
141 239 207 1
142 46 63 1
143 15 239 1
144 93 52 1
145 26 93 1
146 147 26 un
147 186 52 un
148 63 235 1
149 52 30 un
150 235 30 un
151 236 9 1
152 9 111 1
153 9 4 1
154 108 136 1
155 232 2 1
156 149 232 un
157 102 149 1
158 26 2 un
159 93 102 un
160 138 116 un
161 219 138 1
162 104 219 un
163 102 116 un
164 149 104 un
165 23 62 un
166 97 23 1
167 61 97 1
168 219 62 un
169 138 61 un
170 31 245 un
171 137 31 un
172 116 137 un
173 61 245 un
174 101 220 un
175 20 101 un
176 97 20 un
177 245 220 un
178 67 194 un
179 31 67 un
180 30 137 un
181 235 194 un
182 37 43 un
183 67 37 un
184 220 43 un
185 146 84 1
186 14 146 1
187 206 14 1
188 37 84 1
189 43 206 1
190 206 103 2
191 39 19 1
192 39 211 1
193 157 80 1
194 157 195 1
195 17 75 1
196 213 151 1
197 47 113 1
198 47 118 1
199 214 203 1
200 164 7 1
201 106 155 1
202 106 6 1
203 226 163 1
204 226 105 1
205 22 144 1
206 60 237 1
207 95 100 1
208 95 54 1
209 11 158 1
210 51 78 1
211 51 21 1
212 115 92 1
213 115 28 1
214 181 70 1
215 181 177 1
216 225 5 1
217 225 8 1
218 124 216 1
219 69 173 1
220 69 1 1
221 72 224 1
222 72 49 1
223 208 119 1
224 208 132 1
225 236 221 1
226 24 204 1
227 24 141 1
228 167 112 1
229 167 228 1
230 233 56 1
231 74 64 1
232 215 13 1
233 55 242 1
234 27 53 1
235 122 3 1
236 108 156 1
237 33 94 1
238 33 178 1
239 238 161 1
240 238 189 1
241 188 16 1
242 200 85 1
243 99 129 1
244 99 44 1
245 131 117 1
246 131 218 1
247 212 98 1
248 212 76 1
249 185 152 1
250 246 82 1
251 249 170 1
252 198 145 1
253 198 38 1
254 109 10 1
255 109 169 1
256 81 166 1
257 81 154 1
258 36 223 1
259 36 179 1
260 12 165 1
261 201 243 1
262 217 199 1
263 15 121 1
264 46 150 1
265 63 130 1
266 250 79 1
267 250 168 1
268 207 160 1
269 207 71 1
270 239 227 1
271 9 120 1
272 111 34 1
273 111 184 1
274 111 57 1
275 4 241 1
276 4 40 1
277 4 123 1
278 136 143 1
279 2 205 1
280 232 175 1
281 104 88 1
282 62 135 1
283 23 127 1
284 101 134 1
285 20 222 1
286 194 183 1
287 84 65 1
288 84 248 1
289 146 247 1
290 146 209 1
291 14 110 1
292 14 45 1
@<TRIPOS>MOLECULE
Sketch 4
130 142
SMALL
USER_CHARGES


@<TRIPOS>ATOM
1 C9634 19.0906 40.649 52.5326 C.ar 0.0 **** 0.0
2 H9733 21.0783 38.1395 49.9567 H 0.0 **** 0.053
3 C9643 14.3529 36.7059 50.5893 C.3 0.0 **** -0.106
4 C9652 10.4878 41.2674 53.6929 C.ar 0.0 **** 0.0
5 C9677 18.5144 43.084 57.0346 C.3 0.0 **** -0.159
6 C9657 8.53775 42.0803 55.0241 C.ar 0.0 **** 0.0
7 C9668 4.68874 40.102 52.354 C.ar 0.0 **** 0.0
8 H9715 6.1809 39.1285 48.9085 H 0.0 **** 0.1268
9 H9726 18.2363 43.5219 57.9986 H 0.0 **** 0.053
10 H9711 4.4934 42.5658 53.6174 H 0.0 **** 0.053
11 C9676 23.2811 44.2861 58.353 C.3 0.0 **** -0.159
12 H9745 2.39619 38.5959 52.7436 H 0.0 **** 0.053
13 C9683 14.3701 34.2256 51.1015 C.3 0.0 **** -0.159
14 C9666 4.80024 41.7316 54.2802 C.3 0.0 **** -0.053
15 C9640 15.0754 37.9916 50.9186 C.2 0.0 **** 0.0
16 O9684 12.2591 38.4853 51.0268 O.3 0.0 **** -0.452
17 C9633 19.5757 39.9521 51.3704 C.ar 0.0 **** 0.0
18 C9631 21.819 40.7859 51.8323 C.ar 0.0 **** 0.0
19 H9690 18.8652 41.3043 55.1449 H 0.0 **** 0.053
20 H9737 16.543 33.3709 49.775 H 0.0 **** 0.053
21 H9736 18.1389 38.6503 48.8508 H 0.0 **** 0.41
22 H9728 24.7718 42.5448 56.1245 H 0.0 **** 0.053
23 H9725 17.9156 43.5762 56.2506 H 0.0 **** 0.053
24 C9628 20.0035 41.3803 53.3534 C.ar 0.0 **** 0.0
25 C9650 13.0631 39.217 51.7883 C.ar 0.0 **** 0.042
26 C9624 20.4614 42.6661 55.5168 C.ar 0.0 **** 0.0
27 C9675 20.2632 43.2521 60.0454 C.3 0.0 **** -0.159
28 H9697 15.3509 35.7653 52.2137 H 0.0 **** 0.053
29 C9644 15.1731 35.5276 51.152 C.ar 0.0 **** -0.053
30 H9748 3.2479 37.4146 49.4469 H 0.0 **** 0.053
31 H9723 23.4344 45.3756 58.2603 H 0.0 **** 0.053
32 H9731 23.8896 40.1215 51.9431 H 0.0 **** 0.053
33 C9672 4.42296 39.0976 50.1523 C.ar 0.0 **** 0.0
34 C9682 16.6683 34.3844 49.3699 C.3 0.0 **** -0.159
35 C9658 9.02801 41.4319 53.8637 C.ar 0.0 **** 0.2405
36 C9647 14.7577 40.9349 53.2621 C.ar 0.0 **** 0.042
37 C9623 21.8157 42.7393 55.1831 C.ar 0.0 **** 0.0
38 C9660 6.89311 41.0156 53.0933 C.ar 0.0 **** 0.2405
39 H9693 23.1989 41.5861 54.0255 H 0.0 **** 0.053
40 H9691 18.7182 42.8091 54.287 H 0.0 **** 0.053
41 H9714 7.62297 40.2438 50.6216 H 0.0 **** 0.1268
42 H9730 23.4439 40.864 50.3939 H 0.0 **** 0.053
43 H9746 1.99943 38.4243 51.0212 H 0.0 **** 0.053
44 O9685 15.5011 41.7797 53.9719 O.3 0.0 **** -0.452
45 C9678 24.1977 43.4024 55.7311 C.3 0.0 **** -0.159
46 C9637 17.2746 39.0666 51.0679 C.ar 0.0 **** 0.0
47 C9671 5.76537 39.4054 49.8799 C.ar 0.0 **** -0.1268
48 O9681 18.9518 38.8536 49.3402 O.3 0.0 **** -0.452
49 H9722 22.9513 44.0907 59.3816 H 0.0 **** 0.053
50 O9686 13.5297 42.8038 54.9608 O.2 0.0 **** -0.419
51 C9649 12.4986 40.1727 52.659 C.ar 0.0 **** 0.052
52 H9709 3.22402 42.2479 55.6704 H 0.0 **** 0.053
53 H9704 9.80147 41.7485 56.721 H 0.0 **** 0.053
54 C9646 16.9327 36.8213 49.8187 C.3 0.0 **** -0.106
55 H9717 21.1115 45.107 59.315 H 0.0 **** 0.053
56 H9729 24.6527 44.3121 56.1456 H 0.0 **** 0.053
57 H9747 1.82635 39.9962 51.8256 H 0.0 **** 0.053
58 H9720 19.9337 43.685 61.0027 H 0.0 **** 0.053
59 C9665 4.30663 42.0457 55.692 C.3 0.0 **** -0.106
60 H9732 23.6948 41.8756 51.8224 H 0.0 **** 0.053
61 C9688 2.45458 39.0913 51.7624 C.3 0.0 **** -0.159
62 O9687 10.3237 39.4695 52.0971 O.2 0.0 **** -0.419
63 H9719 19.5275 42.4956 59.7342 H 0.0 **** 0.053
64 H9750 2.70074 38.983 48.8353 H 0.0 **** 0.053
65 C9654 12.7875 41.9984 54.2917 C.2 0.0 **** 0.367
66 H9727 24.3521 43.4232 54.6452 H 0.0 **** 0.053
67 C9621 22.2805 43.772 57.3396 C.ar 0.0 **** 0.0
68 H9735 21.4277 39.5527 48.9656 H 0.0 **** 0.053
69 C9638 18.5972 39.2735 50.6028 C.ar 0.0 **** 0.042
70 C9656 9.5257 42.5796 56.0445 C.3 0.0 **** -0.106
71 H9694 17.3721 41.293 53.6416 H 0.0 **** 0.1268
72 H9696 14.2432 36.5843 49.4956 H 0.0 **** 0.053
73 C9669 6.03807 40.3943 52.0649 C.ar 0.0 **** 0.0
74 H9743 11.2818 38.776 51.3485 H 0.0 **** 0.41
75 H9740 13.4422 34.3285 51.6835 H 0.0 **** 0.053
76 H9710 4.46053 41.1586 56.3315 H 0.0 **** 0.053
77 C9635 17.7213 40.6646 52.8387 C.ar 0.0 **** -0.1268
78 C9645 16.5583 35.4565 50.4589 C.ar 0.0 **** -0.053
79 C9662 7.14798 42.2041 55.1858 C.ar 0.0 **** 0.0
80 C9661 6.30748 41.6482 54.2107 C.ar 0.0 **** 0.0
81 H9700 18.0196 36.8348 49.6938 H 0.0 **** 0.053
82 C9667 4.16298 40.4576 53.7225 C.3 0.0 **** -0.106
83 C9664 5.07898 43.2327 56.2654 C.3 0.0 **** -0.106
84 H9734 22.6374 38.9616 50.1307 H 0.0 **** 0.053
85 C9642 15.3564 39.9643 52.3774 C.ar 0.0 **** 0.0
86 H9698 17.3137 35.2369 51.2298 H 0.0 **** 0.053
87 N9659 8.21659 40.9389 52.9174 N.ar 0.0 **** -0.481
88 H9695 13.3464 36.6851 51.0077 H 0.0 **** 0.053
89 C9626 20.9021 43.7588 57.6471 C.ar 0.0 **** 0.0
90 H9701 11.5531 43.4017 56.0807 H 0.0 **** 0.053
91 C9639 16.4217 38.0223 50.5803 C.2 0.0 **** 0.0
92 H9692 22.7049 43.0757 53.2674 H 0.0 **** 0.053
93 H9718 21.2195 42.7324 60.2097 H 0.0 **** 0.053
94 H9703 9.09002 43.3636 56.6761 H 0.0 **** 0.053
95 H9742 14.0932 33.966 50.0688 H 0.0 **** 0.053
96 H9706 7.13527 43.8142 56.6134 H 0.0 **** 0.053
97 C9627 19.4626 42.0451 54.5851 C.3 0.0 **** -0.106
98 C9670 6.57161 40.0354 50.8197 C.ar 0.0 **** -0.1268
99 C9673 3.88246 39.439 51.4102 C.ar 0.0 **** 0.0
100 C9630 22.3139 42.2225 53.8558 C.3 0.0 **** -0.106
101 C9651 11.0555 40.2612 52.7711 C.2 0.0 **** 0.367
102 H9707 4.96004 44.0952 55.5884 H 0.0 **** 0.053
103 C9629 21.3328 41.4604 53.0034 C.ar 0.0 **** 0.0
104 C9636 16.7856 39.9091 52.1341 C.ar 0.0 **** 0.0
105 H9739 15.9009 34.5382 48.5944 H 0.0 **** 0.053
106 C9648 13.3519 41.0217 53.4016 C.ar 0.0 **** 0.052
107 H9713 3.07196 40.5874 53.7061 H 0.0 **** 0.053
108 H9721 24.2608 43.8077 58.2282 H 0.0 **** 0.053
109 H9741 14.9432 33.3839 51.5189 H 0.0 **** 0.053
110 C9663 6.56768 42.8949 56.4012 C.3 0.0 **** -0.106
111 H9708 4.67724 43.5341 57.2447 H 0.0 **** 0.053
112 C9679 23.2834 40.9189 51.4781 C.3 0.0 **** -0.159
113 C9625 19.9927 43.1845 56.7407 C.ar 0.0 **** 0.0
114 C9689 3.59794 38.4005 49.0992 C.3 0.0 **** -0.159
115 H9744 14.7989 42.3674 54.513 H 0.0 **** 0.41
116 C9680 21.5654 39.1217 49.9697 C.3 0.0 **** -0.159
117 C9632 20.9777 39.9962 51.0549 C.ar 0.0 **** 0.0
118 H9749 4.18692 38.2458 48.1851 H 0.0 **** 0.053
119 H9712 4.36702 39.6239 54.4224 H 0.0 **** 0.053
120 H9702 10.5324 44.0113 54.7723 H 0.0 **** 0.053
121 C9674 20.4176 44.3317 58.9624 C.3 0.0 **** -0.106
122 C9655 10.7825 43.1063 55.3575 C.3 0.0 **** -0.106
123 H9705 6.71886 42.2422 57.2799 H 0.0 **** 0.053
124 H9738 17.653 34.4376 48.8804 H 0.0 **** 0.053
125 C9653 11.3398 42.0748 54.4202 C.ar 0.0 **** 0.0
126 H9699 16.485 36.833 48.806 H 0.0 **** 0.053
127 H9716 19.4559 44.845 58.8155 H 0.0 **** 0.053
128 C9622 22.7326 43.3027 56.0925 C.ar 0.0 **** 0.0
129 H9724 18.1906 42.0301 57.0468 H 0.0 **** 0.053
130 C9641 14.4984 39.0556 51.6912 C.ar 0.0 **** 0.0
@<TRIPOS>BOND
1 29 28 1
2 37 128 am
3 26 37 am
4 113 26 am
5 89 113 am
6 67 128 am
7 67 89 am
8 24 97 1
9 103 24 am
10 100 103 1
11 26 97 1
12 37 100 1
13 117 18 am
14 17 117 am
15 1 17 am
16 103 18 am
17 24 1 am
18 104 77 am
19 46 104 am
20 69 46 am
21 1 77 am
22 17 69 am
23 15 91 1
24 130 15 1
25 85 130 am
26 46 91 1
27 104 85 am
28 29 3 1
29 78 29 am
30 54 78 1
31 15 3 1
32 91 54 1
33 106 36 am
34 51 106 am
35 25 51 am
36 85 36 am
37 130 25 am
38 4 101 1
39 125 4 am
40 65 125 1
41 51 101 1
42 106 65 1
43 70 122 1
44 6 70 1
45 35 6 am
46 125 122 1
47 4 35 am
48 38 87 am
49 80 38 am
50 79 80 am
51 35 87 am
52 6 79 am
53 83 110 1
54 59 83 1
55 14 59 1
56 79 110 1
57 80 14 1
58 7 82 1
59 73 7 am
60 38 73 am
61 14 82 1
62 47 98 am
63 33 47 am
64 99 33 am
65 73 98 am
66 7 99 am
67 89 121 1
68 121 27 1
69 67 11 1
70 113 5 1
71 128 45 1
72 18 112 1
73 117 116 1
74 69 48 1
75 78 34 1
76 29 13 1
77 25 16 1
78 36 44 1
79 65 50 2
80 101 62 2
81 99 61 1
82 33 114 1
83 97 19 1
84 97 40 1
85 100 92 1
86 100 39 1
87 77 71 1
88 3 88 1
89 3 72 1
90 78 86 1
91 54 126 1
92 54 81 1
93 122 90 1
94 122 120 1
95 70 94 1
96 70 53 1
97 110 123 1
98 110 96 1
99 83 102 1
100 83 111 1
101 59 52 1
102 59 76 1
103 14 10 1
104 82 119 1
105 82 107 1
106 98 41 1
107 47 8 1
108 121 127 1
109 121 55 1
110 27 93 1
111 27 63 1
112 27 58 1
113 11 108 1
114 11 49 1
115 11 31 1
116 5 129 1
117 5 23 1
118 5 9 1
119 45 66 1
120 45 22 1
121 45 56 1
122 112 42 1
123 112 32 1
124 112 60 1
125 116 2 1
126 116 84 1
127 116 68 1
128 48 21 1
129 34 20 1
130 34 124 1
131 34 105 1
132 13 75 1
133 13 109 1
134 13 95 1
135 16 74 1
136 44 115 1
137 61 12 1
138 61 43 1
139 61 57 1
140 114 30 1
141 114 118 1
142 114 64 1
@<TRIPOS>MOLECULE
Sketch 4
250 292
SMALL
USER_CHARGES


@<TRIPOS>ATOM
1 C17548 11.1107 44.6487 33.3178 C.3 0.0 **** -0.106
2 C17505 6.75229 47.5546 23.3616 C.2 0.0 **** -0.1268
3 H17571 3.08111 53.8445 11.0872 H 0.0 **** 0.053
4 H17561 -4.19149 52.2938 7.71127 H 0.0 **** 0.053
5 H17596 2.15476 45.5632 22.0554 H 0.0 **** 0.053
6 H17579 -4.98772 54.567 9.80598 H 0.0 **** 0.1268
7 C17440 -4.96828 53.755 10.531 C.2 0.0 **** -0.1268
8 C17479 0.92461 45.567 23.8166 C.3 0.0 **** -0.106
9 C17517 12.8445 48.2953 25.4238 C.2 0.0 **** 0.0
10 H17639 -3.96538 44.3129 11.0769 H 0.0 **** 0.053
11 H17624 7.22996 46.8286 25.8618 H 0.0 **** 0.053
12 O17506 11.3034 49.4343 22.2851 O.3 0.0 **** -0.0685
13 C17461 1.54312 48.4995 19.4255 C.2 0.0 **** -0.1268
14 H17578 -7.10102 53.7625 10.8203 H 0.0 **** 0.053
15 C17476 3.36292 46.2909 23.7012 C.3 0.0 **** 0.107
16 H17562 -4.25419 54.1805 5.31553 H 0.0 **** 0.053
17 C17425 1.0147 52.4095 11.928 C.2 0.0 **** 0.232
18 C17437 -5.18405 51.3817 12.0762 C.2 0.0 **** 0.0
19 C17477 2.01482 46.2 22.9434 C.3 0.0 **** -0.053
20 C17532 16.3186 49.3593 26.3218 C.2 0.0 **** -0.1268
21 C17432 1.07488 50.9399 14.3407 C.2 0.0 **** 0.0
22 C17409 -1.11376 51.2992 4.84711 C.3 0.0 **** 0.054
23 H17631 7.17124 44.9486 24.1957 H 0.0 **** 0.053
24 H17630 8.16371 43.246 25.9707 H 0.0 **** 0.053
25 H17614 7.61041 50.7179 12.4411 H 0.0 **** 0.053
26 C17482 3.2431 46.1859 25.2206 C.3 0.0 **** -0.053
27 C17530 15.3911 48.0579 28.1771 C.2 0.0 **** 0.0
28 H17576 1.02544 55.4556 7.63374 H 0.0 **** 0.053
29 C17427 2.40367 53.6325 10.2476 C.3 0.0 **** -0.106
30 C17515 8.0154 45.1179 24.8811 C.3 0.0 **** -0.106
31 C17489 7.40198 50.829 17.8242 C.2 0.0 **** 0.0
32 C17513 8.66279 44.8636 27.3492 C.3 0.0 **** -0.106
33 C17435 -3.883 51.8835 11.6381 C.2 0.0 **** 0.0
34 C17519 10.9421 46.0375 27.7764 C.2 0.0 **** 0.0
35 H17654 12.5303 44.0317 34.8843 H 0.0 **** 0.053
36 H17652 11.0693 45.6979 33.6534 H 0.0 **** 0.053
37 H17581 -8.15785 51.2501 11.7587 H 0.0 **** 0.053
38 H17608 3.50997 44.0242 28.209 H 0.0 **** 0.053
39 H17554 -4.28346 49.2931 5.51676 H 0.0 **** 0.053
40 H17553 -1.63492 49.813 6.87825 H 0.0 **** 0.053
41 H17590 -7.63438 47.8914 13.2962 H 0.0 **** 0.053
42 C17487 6.11244 51.4586 15.8405 C.2 0.0 **** 0.042
43 C17507 11.4432 48.8179 23.5075 C.2 0.0 **** 0.0265
44 C17488 7.29959 51.4583 16.5566 C.2 0.0 **** 0.042
45 O17490 8.45509 52.0387 16.0867 O.3 0.0 **** -0.202
46 H17618 11.1687 52.2693 13.1736 H 0.0 **** 0.053
47 C17421 -1.38287 52.8986 10.5778 C.2 0.0 **** 0.0
48 C17529 14.1939 47.8803 27.4446 C.2 0.0 **** 0.0
49 H17620 10.3697 53.2078 15.2177 H 0.0 **** 0.053
50 C17541 15.8248 46.377 32.0482 C.2 0.0 **** -0.1268
51 H17560 -1.93943 51.9332 7.26193 H 0.0 **** 0.053
52 H17607 5.57284 45.804 27.7948 H 0.0 **** 0.053
53 H17589 -6.95306 48.3211 14.8597 H 0.0 **** 0.053
54 H17628 8.98509 44.0504 28.0149 H 0.0 **** 0.053
55 H17644 18.4856 49.5504 27.915 H 0.0 **** 0.1268
56 H17612 7.16251 52.9 13.1279 H 0.0 **** 0.053
57 H17583 -6.93507 51.3248 14.584 H 0.0 **** 0.053
58 C17449 -1.40197 50.5143 14.0667 C.2 0.0 **** -0.012
59 H17557 -2.40881 52.9913 4.46688 H 0.0 **** 0.053
60 C17499 8.62593 50.7939 18.5084 C.2 0.0 **** -0.1268
61 C17416 -2.64585 54.291 8.86754 C.3 0.0 **** 0.107
62 H17613 7.57305 50.0792 14.0904 H 0.0 **** 0.053
63 H17617 9.69043 52.6564 12.2884 H 0.0 **** 0.053
64 C17424 -0.195977 51.8652 12.4543 C.2 0.0 **** 0.0
65 C17433 -0.165362 51.0844 13.6162 C.2 0.0 **** 0.0
66 C17472 6.5401 48.2927 22.1811 C.2 0.0 **** 0.0
67 H17588 -5.82999 46.2962 13.7392 H 0.0 **** 0.053
68 H17640 0.0812663 48.4942 21.7361 H 0.0 **** 0.41
69 C17434 -3.89 52.9466 10.6365 C.2 0.0 **** 0.0
70 H17616 9.85525 50.5315 14.4908 H 0.0 **** 0.053
71 H17626 10.3581 45.0104 26.0567 H 0.0 **** 0.053
72 C17457 2.48532 50.2967 16.2857 C.2 0.0 **** 0.0
73 O17410 -1.36335 49.8886 4.8177 O.3 0.0 **** -0.32
74 H17555 -3.90569 50.3439 6.88994 H 0.0 **** 0.053
75 C17436 -2.66358 51.5477 12.2296 C.2 0.0 **** 0.0
76 H17585 -3.51167 48.9639 12.1905 H 0.0 **** 0.053
77 H17564 -5.33206 52.3872 4.13077 H 0.0 **** 0.053
78 C17534 17.7963 48.4356 29.6115 C.2 0.0 **** -0.1268
79 H17595 4.0417 45.4944 23.3429 H 0.0 **** 0.053
80 C17471 6.22669 50.2401 18.3818 C.2 0.0 **** 0.0
81 C17525 13.7936 49.6563 23.5957 C.2 0.0 **** -0.1268
82 N17486 3.36762 43.8233 26.1269 N.3 0.0 **** -0.727
83 C17455 1.45919 49.0676 18.1581 C.2 0.0 **** 0.0
84 C17429 1.19968 54.5674 8.26444 C.3 0.0 **** -0.106
85 H17622 10.8717 50.5765 20.0036 H 0.0 **** 0.1268
86 H17586 -5.97353 47.3454 11.4217 H 0.0 **** 0.053
87 C17454 0.231254 49.0352 17.4462 C.2 0.0 **** -0.1268
88 H17651 10.2309 44.1333 33.732 H 0.0 **** 0.053
89 C17469 4.9047 50.8919 16.3819 C.2 0.0 **** 0.0
90 H17593 0.671916 47.985 19.8188 H 0.0 **** 0.1268
91 H17570 -2.6656 52.1486 9.1274 H 0.0 **** 0.053
92 C17538 13.2675 46.5405 29.3076 C.2 0.0 **** 0.0
93 H17556 -3.58723 50.892 3.90883 H 0.0 **** 0.053
94 H17642 15.7994 50.3426 23.8593 H 0.0 **** 0.1268
95 H17582 -8.32959 50.3549 14.0701 H 0.0 **** 0.053
96 H17591 -3.51101 50.3621 13.8363 H 0.0 **** 0.1268
97 C17518 12.6915 48.9261 24.1492 C.2 0.0 **** 0.0
98 C17450 -2.5864 50.7562 13.4152 C.2 0.0 **** -0.1268
99 C17422 -2.65457 53.0497 9.77369 C.3 0.0 **** -0.053
100 C17419 -0.106219 54.1046 8.84663 C.2 0.0 **** 0.0
101 H17653 12.413 42.9372 33.5011 H 0.0 **** 0.053
102 H17643 17.1414 49.935 25.8921 H 0.0 **** 0.1268
103 H17638 -5.10947 44.6776 12.3859 H 0.0 **** 0.053
104 H17566 -2.83968 55.1593 9.51426 H 0.0 **** 0.053
105 O17551 14.7291 44.4235 33.7412 O.2 0.0 **** -0.419
106 H17609 5.00434 43.5516 27.3886 H 0.0 **** 0.053
107 H17610 4.00595 43.5706 25.3715 H 0.0 **** 0.353
108 C17451 1.22173 50.2949 15.5953 C.2 0.0 **** 0.0
109 C17510 9.36424 46.9058 26.0732 C.3 0.0 **** -0.053
110 H17641 13.6746 50.1186 22.616 H 0.0 **** 0.1268
111 C17511 10.5313 47.5161 25.3435 C.2 0.0 **** 0.0
112 C17520 11.942 46.9159 27.2738 C.2 0.0 **** 0.0
113 O17493 6.08434 52.0144 14.581 O.3 0.0 **** -0.202
114 H17573 3.19411 55.1556 8.91506 H 0.0 **** 0.053
115 H17577 -6.19129 54.3504 12.1884 H 0.0 **** 0.053
116 C17408 -2.37818 52.1387 5.16568 C.3 0.0 **** -0.053
117 H17606 3.88396 46.32 27.9004 H 0.0 **** 0.053
118 H17604 5.32015 45.5986 25.2948 H 0.0 **** 0.053
119 C17495 9.51579 50.8806 13.5044 C.3 0.0 **** -0.106
120 H17602 1.87369 45.1753 26.5465 H 0.0 **** 0.053
121 H17565 -5.68973 51.486 5.60542 H 0.0 **** 0.053
122 C17539 13.1265 47.116 28.0126 C.2 0.0 **** 0.0
123 C17439 -6.17541 53.5689 11.3969 C.3 0.0 **** -0.106
124 S17453 -1.45508 49.4242 15.4345 S.2 0.0 **** 0.024
125 C17426 1.08054 53.1323 10.7691 C.2 0.0 **** 0.0
126 H17584 -4.49625 49.1091 10.7538 H 0.0 **** 0.053
127 H17615 9.9006 50.1725 12.7559 H 0.0 **** 0.053
128 C17438 -6.26371 52.215 12.0218 C.2 0.0 **** 0.0
129 C17516 11.7726 47.554 25.9966 C.2 0.0 **** 0.0
130 H17634 -2.08514 45.6585 12.2079 H 0.0 **** 0.053
131 C17496 10.072 52.2871 13.2558 C.3 0.0 **** -0.106
132 C17502 9.98846 50.1107 20.442 C.2 0.0 **** -0.1268
133 H17650 11.0196 43.5619 31.4513 H 0.0 **** 0.053
134 C17545 13.5082 45.3841 31.9005 C.2 0.0 **** 0.052
135 C17508 10.3663 48.1401 24.1041 C.2 0.0 **** 0.0
136 C17522 -2.86732 46.3174 12.6138 C.3 0.0 **** -0.159
137 C17484 4.58626 45.7058 27.3144 C.3 0.0 **** -0.106
138 H17619 9.64979 54.29 14.0185 H 0.0 **** 0.053
139 H17568 -0.430413 53.6715 6.29076 H 0.0 **** 0.053
140 C17407 -3.63034 51.2761 4.93844 C.3 0.0 **** -0.053
141 H17645 18.7139 48.5743 30.1866 H 0.0 **** 0.1268
142 C17405 -2.14107 49.4826 5.94913 C.3 0.0 **** 0.054
143 H17599 0.0834004 45.2581 23.1833 H 0.0 **** 0.053
144 C17466 3.63497 50.9134 15.6862 C.2 0.0 **** 0.0
145 C17536 15.5287 47.4895 29.478 C.2 0.0 **** 0.0
146 C17523 -4.69655 45.053 11.436 C.3 0.0 **** -0.159
147 C17441 -7.58688 51.7533 12.5654 C.3 0.0 **** -0.106
148 C17412 -3.76366 53.115 7.10438 C.3 0.0 **** 0.107
149 C17465 5.15557 49.0529 20.2699 C.2 0.0 **** 0.0
150 C17414 -4.92493 52.1103 5.1148 C.3 0.0 **** -0.106
151 C17447 -5.54485 47.3359 13.5163 C.3 0.0 **** -0.106
152 H17648 10.2867 44.8566 29.4153 H 0.0 **** 0.1268
153 C17512 9.85535 45.6469 26.8126 C.3 0.0 **** -0.053
154 C17546 12.3056 45.2715 31.1898 C.2 0.0 **** 0.0
155 O17430 2.20868 52.179 12.5841 O.3 0.0 **** -0.464
156 C17413 -4.70056 53.3902 5.9405 C.3 0.0 **** -0.106
157 H17632 8.92426 44.825 24.332 H 0.0 **** 0.053
158 C17540 14.6101 46.1433 31.3456 C.2 0.0 **** 0.0
159 C17504 7.98006 47.4685 23.992 C.2 0.0 **** 0.0
160 H17567 -1.23923 55.6171 7.9571 H 0.0 **** 0.053
161 C17528 14.059 48.4465 26.1492 C.2 0.0 **** 0.0
162 H17572 2.88744 52.8293 9.66001 H 0.0 **** 0.053
163 H17601 0.758238 43.7488 25.0447 H 0.0 **** 0.053
164 H17649 10.1829 45.117 31.4253 H 0.0 **** 0.053
165 C17458 3.83153 49.6941 18.275 C.2 0.0 **** 0.0
166 C17418 -1.43152 53.9293 6.66691 C.3 0.0 **** -0.106
167 C17521 -4.04211 46.4243 11.6329 C.3 0.0 **** -0.053
168 C17500 8.93579 48.8359 22.2369 C.2 0.0 **** 0.0
169 C17547 11.0863 44.6117 31.7947 C.3 0.0 **** -0.106
170 C17550 13.6507 44.6266 33.1811 C.2 0.0 **** 0.347
171 H17633 -3.64288 46.7529 10.6559 H 0.0 **** 0.053
172 C17498 8.73839 50.1675 19.7495 C.2 0.0 **** 0.0
173 H17646 15.942 45.9452 33.0363 H 0.0 **** 0.1268
174 H17580 -8.18637 52.6222 12.8806 H 0.0 **** 0.053
175 H17621 9.50221 51.2585 18.0591 H 0.0 **** 0.1268
176 C17420 -0.143723 53.4011 10.04 C.2 0.0 **** 0.0
177 H17563 -5.65508 53.7812 6.32094 H 0.0 **** 0.053
178 H17600 2.08711 43.7441 23.881 H 0.0 **** 0.053
179 H17605 5.03596 47.2517 25.8374 H 0.0 **** 0.053
180 C17445 -4.55221 48.9011 11.8373 C.3 0.0 **** -0.106
181 C17428 2.22946 54.8634 9.35736 C.3 0.0 **** -0.106
182 H17558 -0.32467 51.5147 5.59761 H 0.0 **** 0.053
183 H17611 7.76642 53.836 15.3295 H 0.0 **** 0.053
184 C17417 -1.33069 54.5236 8.1025 C.3 0.0 **** -0.053
185 O17475 4.03271 47.5592 23.4525 O.3 0.0 **** -0.202
186 C17423 -1.41598 52.1321 11.7297 C.2 0.0 **** 0.0
187 C17444 -5.40185 49.9735 12.4792 C.2 0.0 **** 0.0
188 C17509 8.10332 46.6156 25.2266 C.3 0.0 **** -0.053
189 H17635 -3.20177 45.8864 13.5701 H 0.0 **** 0.053
190 C17549 12.402 44.0037 33.7929 C.3 0.0 **** -0.086
191 C17443 -6.44184 49.6724 13.2927 C.2 0.0 **** 0.0
192 C17431 2.22692 51.5386 13.7993 C.2 0.0 **** 0.232
193 H17603 2.66233 47.0619 25.5559 H 0.0 **** 0.053
194 C17544 12.1963 45.7863 29.8607 C.2 0.0 **** 0.0
195 H17627 8.0391 45.5447 27.9529 H 0.0 **** 0.053
196 C17481 2.48099 44.8939 25.6692 C.3 0.0 **** 0.134
197 C17448 -6.71744 48.2802 13.7806 C.3 0.0 **** -0.106
198 C17480 1.52625 44.3855 24.5847 C.3 0.0 **** -0.106
199 H17587 -4.71071 47.5988 14.1872 H 0.0 **** 0.053
200 C17494 7.97226 50.8911 13.4652 C.3 0.0 **** -0.106
201 C17470 6.32089 49.6205 19.6552 C.2 0.0 **** 0.0
202 C17462 2.80391 48.06 21.5166 C.2 0.0 **** 0.0
203 C17503 9.08158 48.1412 23.4471 C.2 0.0 **** 0.0
204 C17537 14.4669 46.7267 30.0518 C.2 0.0 **** 0.0
205 C17468 4.99021 50.2843 17.6704 C.2 0.0 **** 0.0
206 C17485 4.13245 44.2189 27.3193 C.3 0.0 **** 0.081
207 H17594 4.27032 52.0214 13.9272 H 0.0 **** 0.1268
208 C17483 4.6313 46.2313 25.8805 C.3 0.0 **** -0.106
209 H17569 -1.84109 54.6962 5.99081 H 0.0 **** 0.053
210 C17446 -5.08201 47.4804 12.0623 C.3 0.0 **** -0.053
211 H17598 0.529242 46.3147 24.5254 H 0.0 **** 0.053
212 C17531 16.4688 48.8075 27.6042 C.2 0.0 **** 0.0
213 C17452 0.106598 49.6238 16.2137 C.2 0.0 **** -0.012
214 C17526 14.9668 49.7808 24.2866 C.2 0.0 **** -0.1268
215 H17574 1.87275 55.7085 9.9683 H 0.0 **** 0.053
216 H17647 17.7639 47.2852 32.0605 H 0.0 **** 0.1268
217 H17592 -0.622954 48.5359 17.9091 H 0.0 **** 0.1268
218 C17459 3.91082 49.1064 19.5748 C.2 0.0 **** 0.0
219 H17575 1.6104 53.7925 7.5865 H 0.0 **** 0.053
220 C17497 9.65257 53.2522 14.3837 C.3 0.0 **** -0.106
221 C17533 17.6704 48.9767 28.3595 C.2 0.0 **** -0.1268
222 O17524 0.344987 47.5771 21.9076 O.3 0.0 **** -0.57
223 H17623 5.91677 47.0405 23.8099 H 0.0 **** 0.1268
224 H17636 -2.40897 47.2944 12.8303 H 0.0 **** 0.053
225 H17597 1.68856 48.2799 23.3171 H 0.0 **** 0.053
226 C17463 4.03336 47.9934 22.1444 C.2 0.0 **** 0.042
227 C17527 15.1397 49.1995 25.5864 C.2 0.0 **** 0.0
228 C17473 7.67693 48.9082 21.5772 C.2 0.0 **** 0.0
229 H17552 -2.14152 48.3841 5.9368 H 0.0 **** 0.053
230 C17467 3.45149 51.5288 14.4306 C.2 0.0 **** -0.1268
231 O17415 -3.72265 54.2997 7.91497 O.3 0.0 **** -0.32
232 H17559 -0.71686 51.5383 3.85051 H 0.0 **** 0.053
233 C17491 8.27407 52.9281 14.9634 C.3 0.0 **** 0.107
234 C17492 7.37124 52.2208 13.9666 C.3 0.0 **** 0.107
235 C17514 7.84985 44.2831 26.1651 C.3 0.0 **** -0.106
236 C17501 10.0731 49.4689 21.6464 C.2 0.0 **** 0.042
237 C17478 1.67253 47.6077 22.4344 C.3 0.0 **** 0.107
238 C17460 2.72795 48.543 20.1766 C.2 0.0 **** 0.0
239 C17456 2.59993 49.6944 17.5689 C.2 0.0 **** 0.0
240 C17535 16.7358 47.6821 30.2013 C.2 0.0 **** 0.0
241 C17442 -7.37274 50.778 13.7266 C.3 0.0 **** -0.106
242 H17629 6.78608 44.2482 26.4396 H 0.0 **** 0.053
243 H17637 -5.52016 45.1072 10.7067 H 0.0 **** 0.053
244 C17542 16.8453 47.1206 31.4932 C.2 0.0 **** -0.1268
245 C17406 -3.57634 50.0548 5.87934 C.3 0.0 **** -0.106
246 C17543 11.0637 45.5211 29.0469 C.2 0.0 **** -0.1268
247 H17625 9.07896 47.6368 26.8558 H 0.0 **** 0.053
248 C17411 -2.34913 52.7116 6.59844 C.3 0.0 **** -0.053
249 C17474 7.56948 49.5724 20.3294 C.2 0.0 **** 0.0
250 C17464 5.25282 48.4305 21.546 C.2 0.0 **** 0.0
@<TRIPOS>BOND
1 7 6 1
2 44 45 1
3 111 109 1
4 234 233 1
5 122 92 un
6 65 58 un
7 140 245 1
8 116 140 1
9 22 116 1
10 73 22 1
11 142 245 1
12 142 73 1
13 148 248 1
14 156 148 1
15 150 156 1
16 116 248 1
17 140 150 1
18 61 231 1
19 184 61 1
20 166 184 1
21 148 231 1
22 248 166 1
23 176 100 un
24 47 176 un
25 99 47 un
26 184 100 1
27 61 99 1
28 64 186 1
29 17 64 un
30 125 17 un
31 47 186 un
32 176 125 un
33 181 29 1
34 84 181 1
35 100 84 1
36 125 29 1
37 192 155 1
38 21 192 un
39 65 21 un
40 17 155 1
41 64 65 un
42 33 69 un
43 75 33 2
44 99 69 1
45 186 75 un
46 128 18 2
47 123 128 1
48 7 123 1
49 33 18 1
50 69 7 2
51 241 147 1
52 191 241 1
53 187 191 2
54 128 147 1
55 18 187 1
56 210 180 1
57 151 210 1
58 197 151 1
59 187 180 1
60 191 197 1
61 98 58 un
62 75 98 un
63 213 108 un
64 124 213 1
65 58 124 un
66 21 108 un
67 83 87 un
68 239 83 un
69 72 239 un
70 213 87 un
71 108 72 un
72 218 165 un
73 238 218 un
74 13 238 un
75 239 165 un
76 83 13 un
77 226 202 un
78 250 226 un
79 149 250 un
80 238 202 un
81 218 149 un
82 230 144 un
83 192 230 un
84 72 144 un
85 89 205 un
86 144 89 un
87 165 205 un
88 80 201 un
89 205 80 un
90 149 201 un
91 228 66 un
92 249 228 un
93 201 249 un
94 250 66 un
95 15 185 1
96 19 15 1
97 237 19 1
98 226 185 1
99 202 237 1
100 198 8 1
101 196 198 1
102 26 196 1
103 19 8 1
104 15 26 1
105 137 208 1
106 206 137 1
107 82 206 1
108 26 208 1
109 196 82 1
110 44 42 un
111 31 44 un
112 80 31 un
113 89 42 un
114 233 45 1
115 113 234 1
116 42 113 1
117 119 200 1
118 131 119 1
119 220 131 1
120 234 200 1
121 233 220 1
122 60 172 un
123 31 60 un
124 249 172 un
125 236 168 un
126 132 236 un
127 172 132 un
128 228 168 un
129 159 203 un
130 2 159 un
131 66 2 un
132 168 203 un
133 43 12 1
134 135 43 un
135 236 12 1
136 203 135 1
137 109 188 1
138 159 188 1
139 135 111 un
140 32 153 1
141 235 32 1
142 30 235 1
143 109 153 1
144 188 30 1
145 9 129 1
146 97 9 1
147 43 97 un
148 111 129 un
149 153 34 1
150 129 112 un
151 34 112 un
152 210 167 1
153 167 136 1
154 167 146 1
155 237 222 1
156 214 81 1
157 227 214 un
158 161 227 1
159 97 81 un
160 9 161 un
161 27 48 un
162 212 27 1
163 20 212 un
164 161 48 un
165 227 20 un
166 78 221 un
167 240 78 1
168 145 240 1
169 212 221 un
170 27 145 un
171 92 204 un
172 48 122 un
173 145 204 un
174 50 158 un
175 244 50 un
176 240 244 un
177 204 158 un
178 194 246 un
179 92 194 un
180 112 122 un
181 34 246 un
182 154 134 un
183 194 154 un
184 158 134 un
185 1 169 1
186 190 1 1
187 170 190 1
188 154 169 1
189 134 170 1
190 170 105 2
191 142 229 1
192 142 40 1
193 245 39 1
194 245 74 1
195 140 93 1
196 116 59 1
197 22 182 1
198 22 232 1
199 248 51 1
200 148 4 1
201 156 16 1
202 156 177 1
203 150 77 1
204 150 121 1
205 61 104 1
206 184 160 1
207 166 139 1
208 166 209 1
209 99 91 1
210 29 3 1
211 29 162 1
212 181 114 1
213 181 215 1
214 84 219 1
215 84 28 1
216 123 115 1
217 123 14 1
218 147 174 1
219 147 37 1
220 241 95 1
221 241 57 1
222 180 126 1
223 180 76 1
224 210 86 1
225 151 199 1
226 151 67 1
227 197 53 1
228 197 41 1
229 98 96 1
230 87 217 1
231 13 90 1
232 230 207 1
233 15 79 1
234 19 5 1
235 237 225 1
236 8 211 1
237 8 143 1
238 198 178 1
239 198 163 1
240 196 120 1
241 26 193 1
242 208 118 1
243 208 179 1
244 137 117 1
245 137 52 1
246 206 38 1
247 206 106 1
248 82 107 1
249 233 183 1
250 234 56 1
251 200 62 1
252 200 25 1
253 119 127 1
254 119 70 1
255 131 63 1
256 131 46 1
257 220 138 1
258 220 49 1
259 60 175 1
260 132 85 1
261 2 223 1
262 188 11 1
263 109 247 1
264 153 71 1
265 32 195 1
266 32 54 1
267 235 242 1
268 235 24 1
269 30 23 1
270 30 157 1
271 167 171 1
272 136 130 1
273 136 189 1
274 136 224 1
275 146 243 1
276 146 103 1
277 146 10 1
278 222 68 1
279 81 110 1
280 214 94 1
281 20 102 1
282 221 55 1
283 78 141 1
284 50 173 1
285 244 216 1
286 246 152 1
287 169 164 1
288 169 133 1
289 1 88 1
290 1 36 1
291 190 101 1
292 190 35 1
@<TRIPOS>MOLECULE
Sketch 4
130 142
SMALL
USER_CHARGES


@<TRIPOS>ATOM
1 H9318 48.2988 75.1495 34.6967 H 0.0 **** 0.053
2 C9289 30.7417 68.1316 29.3319 C.3 0.0 **** -0.159
3 H9327 31.7359 76.2059 33.5144 H 0.0 **** 0.053
4 C9249 38.0255 67.5945 27.6181 C.2 0.0 **** 0.0
5 C9248 35.6771 67.5126 28.4996 C.ar 0.0 **** 0.042
6 C9236 32.2604 74.5177 32.2822 C.ar 0.0 **** 0.0
7 C9287 34.7581 74.0408 32.0257 C.3 0.0 **** -0.159
8 O9297 43.7051 69.5389 29.9724 O.2 0.0 **** -0.419
9 C9275 48.9983 73.5827 33.3479 C.3 0.0 **** -0.106
10 H9331 28.9108 74.8836 31.7657 H 0.0 **** 0.053
11 O9294 42.0228 68.3196 28.73 O.3 0.0 **** -0.452
12 C9286 29.79 75.0842 32.391 C.3 0.0 **** -0.159
13 H9341 30.2479 68.5343 28.4299 H 0.0 **** 0.053
14 H9305 41.2476 68.1805 26.7799 H 0.0 **** 0.053
15 C9298 51.5359 69.6985 30.8832 C.3 0.0 **** -0.159
16 H9344 31.777 66.7741 27.5574 H 0.0 **** 0.053
17 H9348 37.499 65.7195 23.9488 H 0.0 **** 0.053
18 C9266 43.7506 73.6149 33.0179 C.3 0.0 **** -0.106
19 C9274 48.0099 74.1385 34.3719 C.3 0.0 **** -0.106
20 C9278 49.1357 70.1739 31.4965 C.ar 0.0 **** 0.0
21 C9272 46.204 72.9001 33.0644 C.ar 0.0 **** 0.0
22 H9304 36.375 70.6791 30.5733 H 0.0 **** 0.1268
23 H9349 39.2247 65.5492 24.342 H 0.0 **** 0.053
24 C9261 42.8153 70.1866 30.6092 C.2 0.0 **** 0.367
25 C9262 43.1557 71.1706 31.6581 C.ar 0.0 **** 0.0
26 H9359 50.1781 65.9953 29.9059 H 0.0 **** 0.053
27 H9308 37.5646 68.1072 24.7024 H 0.0 **** 0.053
28 H9334 35.2486 74.0442 31.0383 H 0.0 **** 0.053
29 H9352 41.012 67.1198 24.0136 H 0.0 **** 0.053
30 H9358 51.1647 67.291 29.1899 H 0.0 **** 0.053
31 H9301 34.7635 71.2792 31.8263 H 0.0 **** 0.053
32 C9245 36.181 69.8382 29.9278 C.ar 0.0 **** -0.1268
33 H9306 40.4697 66.6118 26.5931 H 0.0 **** 0.053
34 H9340 30.6562 67.0383 29.2931 H 0.0 **** 0.053
35 C9240 31.3438 70.6022 30.6835 C.3 0.0 **** -0.106
36 C9273 46.5912 74.1691 33.7931 C.3 0.0 **** -0.106
37 H9319 50.0326 73.6362 33.723 H 0.0 **** 0.053
38 C9281 48.3346 67.6174 30.7299 C.ar 0.0 **** -0.1268
39 H9316 45.8694 74.3701 34.5998 H 0.0 **** 0.053
40 C9233 31.6721 71.9726 31.2231 C.ar 0.0 **** 0.0
41 C9244 34.853 69.4447 29.7029 C.ar 0.0 **** 0.0
42 C9270 46.7721 70.7958 32.0133 C.ar 0.0 **** 0.2405
43 H9309 38.2618 65.7872 26.5026 H 0.0 **** 0.053
44 C9268 44.5564 71.4392 32.0496 C.ar 0.0 **** 0.2405
45 C9290 32.8161 66.6867 27.8946 C.3 0.0 **** -0.159
46 H9324 46.3246 68.2618 31.2284 H 0.0 **** 0.1268
47 C9265 42.4671 72.8638 33.3605 C.3 0.0 **** -0.106
48 C9256 37.7634 66.7684 26.3801 C.3 0.0 **** -0.106
49 C9231 30.9189 74.123 32.0843 C.ar 0.0 **** 0.0
50 H9347 38.7142 66.6531 23.0422 H 0.0 **** 0.053
51 H9321 48.851 71.5158 33.9096 H 0.0 **** 0.053
52 H9325 48.0276 66.614 30.4267 H 0.0 **** 0.1268
53 H9337 29.0938 71.2927 31.5083 H 0.0 **** 0.053
54 C9277 49.5151 71.5828 31.88 C.3 0.0 **** -0.106
55 C9264 40.7363 71.6411 31.9846 C.2 0.0 **** 0.367
56 H9332 30.0864 76.126 32.2124 H 0.0 **** 0.053
57 H9312 42.5997 72.3215 34.3156 H 0.0 **** 0.053
58 H9353 42.9189 68.7113 29.1623 H 0.0 **** 0.41
59 C9246 37.2674 69.1741 29.3607 C.ar 0.0 **** 0.0
60 H9360 51.4829 66.7599 30.8482 H 0.0 **** 0.053
61 C9293 40.6363 68.1395 24.1855 C.3 0.0 **** -0.159
62 H9346 36.3332 65.7768 28.0258 H 0.0 **** 0.41
63 H9333 29.4662 75.0125 33.4442 H 0.0 **** 0.053
64 C9252 38.6515 69.5099 29.6367 C.ar 0.0 **** 0.0
65 H9329 33.6983 76.6524 31.179 H 0.0 **** 0.053
66 C9288 29.1857 72.3853 31.4714 C.3 0.0 **** -0.159
67 C9259 41.4152 69.9797 30.2932 C.ar 0.0 **** 0.052
68 C9241 32.1849 68.5751 29.4238 C.ar 0.0 **** 0.0
69 H9310 36.6981 66.5745 26.2226 H 0.0 **** 0.053
70 C9283 50.0936 69.2655 31.0089 C.ar 0.0 **** 0.0
71 C9242 33.188 67.8314 28.8106 C.ar 0.0 **** 0.0
72 O9296 39.8344 72.2836 32.6336 O.2 0.0 **** -0.419
73 C9292 38.4487 66.2693 24.0369 C.3 0.0 **** -0.159
74 C9280 47.3824 68.5209 31.1851 C.ar 0.0 **** -0.1268
75 C9250 39.3365 68.0174 27.7923 C.2 0.0 **** 0.0
76 H9354 38.6822 71.7434 32.0152 H 0.0 **** 0.41
77 C9251 39.6853 68.8549 28.9053 C.ar 0.0 **** 0.0
78 C9267 44.8651 72.6463 32.724 C.ar 0.0 **** 0.0
79 C9247 36.9862 68.0556 28.4915 C.ar 0.0 **** 0.0
80 H9342 30.1599 68.4756 30.1958 H 0.0 **** 0.053
81 H9328 31.9654 77.0249 31.1211 H 0.0 **** 0.053
82 C9284 32.5667 75.8769 32.8753 C.3 0.0 **** -0.106
83 H9356 52.1367 68.9697 30.3273 H 0.0 **** 0.053
84 C9263 42.142 71.8642 32.289 C.ar 0.0 **** 0.0
85 H9336 34.9038 75.0326 32.4658 H 0.0 **** 0.053
86 H9300 34.8145 72.0833 30.286 H 0.0 **** 0.053
87 H9311 41.6175 73.5441 33.4998 H 0.0 **** 0.053
88 C9239 32.4846 69.7934 30.1229 C.ar 0.0 **** 0.0
89 C9257 39.0304 70.458 30.6569 C.ar 0.0 **** 0.042
90 C9255 38.3178 67.3927 25.0703 C.ar 0.0 **** -0.053
91 O9295 38.1185 71.1421 31.3429 O.3 0.0 **** -0.452
92 H9307 39.3534 69.2293 25.5031 H 0.0 **** 0.053
93 H9330 33.0293 77.9251 32.2381 H 0.0 **** 0.053
94 C9285 32.8318 76.9369 31.7944 C.3 0.0 **** -0.159
95 H9323 50.5692 71.6399 32.1849 H 0.0 **** 0.053
96 N9269 45.4916 70.5334 31.7305 N.ar 0.0 **** -0.481
97 H9343 33.4572 66.6774 27.0052 H 0.0 **** 0.053
98 C9232 30.6235 72.8368 31.596 C.ar 0.0 **** 0.0
99 H9355 51.6169 70.6672 30.3668 H 0.0 **** 0.053
100 H9317 48.0257 73.495 35.2673 H 0.0 **** 0.053
101 C9271 47.1798 71.9657 32.6891 C.ar 0.0 **** 0.0
102 H9350 41.4992 68.7824 24.4147 H 0.0 **** 0.053
103 H9326 33.4384 75.8064 33.5424 H 0.0 **** 0.053
104 C9282 49.6909 67.9665 30.6328 C.ar 0.0 **** 0.0
105 H9322 49.4094 72.2445 30.9982 H 0.0 **** 0.053
106 C9235 33.3031 73.6557 31.8973 C.ar 0.0 **** 0.0
107 O9291 35.4707 66.2187 28.0763 O.3 0.0 **** -0.452
108 H9351 40.1852 68.4956 23.247 H 0.0 **** 0.053
109 C9237 34.138 71.5074 30.9413 C.3 0.0 **** -0.106
110 H9339 28.5644 72.7952 32.2791 H 0.0 **** 0.053
111 H9303 30.5663 70.6969 29.9065 H 0.0 **** 0.053
112 C9279 47.7761 69.8073 31.5778 C.ar 0.0 **** 0.0
113 C9299 50.6792 66.9493 30.1188 C.3 0.0 **** -0.159
114 H9302 30.8537 70.0141 31.4841 H 0.0 **** 0.053
115 C9276 48.6464 72.1339 33.0121 C.3 0.0 **** -0.053
116 C9258 40.3925 70.6896 30.9643 C.ar 0.0 **** 0.052
117 H9313 44.0144 74.2949 33.8374 H 0.0 **** 0.053
118 H9314 43.5753 74.2488 32.1281 H 0.0 **** 0.053
119 C9253 40.2776 67.6991 26.6537 C.3 0.0 **** -0.106
120 C9254 39.6297 68.1749 25.3379 C.ar 0.0 **** -0.053
121 H9320 48.9543 74.1859 32.4239 H 0.0 **** 0.053
122 H9357 52.0029 69.8273 31.8747 H 0.0 **** 0.053
123 C9243 34.5574 68.2347 28.9815 C.ar 0.0 **** 0.0
124 H9345 32.94 65.706 28.3801 H 0.0 **** 0.053
125 C9234 32.9981 72.3903 31.357 C.ar 0.0 **** 0.0
126 H9338 28.7375 72.7169 30.518 H 0.0 **** 0.053
127 C9260 41.0667 69.0482 29.2927 C.ar 0.0 **** 0.042
128 C9238 33.7862 70.2255 30.2453 C.ar 0.0 **** 0.0
129 H9315 46.4975 75.0177 33.0915 H 0.0 **** 0.053
130 H9335 35.3132 73.3109 32.6377 H 0.0 **** 0.053
@<TRIPOS>BOND
1 120 119 1
2 123 5 am
3 7 28 1
4 45 124 1
5 115 54 1
6 40 98 am
7 125 40 am
8 106 125 am
9 6 106 am
10 49 98 am
11 49 6 am
12 128 109 1
13 88 128 am
14 35 88 1
15 125 109 1
16 40 35 1
17 71 68 am
18 123 71 am
19 41 123 am
20 88 68 am
21 128 41 am
22 59 32 am
23 79 59 am
24 5 79 am
25 41 32 am
26 75 4 1
27 77 75 1
28 64 77 am
29 79 4 1
30 59 64 am
31 90 120 am
32 48 90 1
33 75 119 1
34 4 48 1
35 116 89 am
36 67 116 am
37 127 67 am
38 64 89 am
39 77 127 am
40 25 24 1
41 84 25 am
42 55 84 1
43 67 24 1
44 116 55 1
45 18 47 1
46 78 18 1
47 44 78 am
48 84 47 1
49 25 44 am
50 42 96 am
51 101 42 am
52 21 101 am
53 44 96 am
54 78 21 am
55 19 36 1
56 9 19 1
57 115 9 1
58 21 36 1
59 101 115 1
60 20 54 1
61 112 20 am
62 42 112 am
63 38 74 am
64 104 38 am
65 70 104 am
66 112 74 am
67 20 70 am
68 6 82 1
69 82 94 1
70 49 12 1
71 106 7 1
72 98 66 1
73 68 2 1
74 71 45 1
75 5 107 1
76 90 73 1
77 120 61 1
78 127 11 1
79 89 91 1
80 55 72 2
81 24 8 2
82 70 15 1
83 104 113 1
84 109 86 1
85 109 31 1
86 35 114 1
87 35 111 1
88 32 22 1
89 119 14 1
90 119 33 1
91 120 92 1
92 90 27 1
93 48 43 1
94 48 69 1
95 47 87 1
96 47 57 1
97 18 117 1
98 18 118 1
99 36 129 1
100 36 39 1
101 19 100 1
102 19 1 1
103 9 37 1
104 9 121 1
105 115 51 1
106 54 105 1
107 54 95 1
108 74 46 1
109 38 52 1
110 82 103 1
111 82 3 1
112 94 81 1
113 94 65 1
114 94 93 1
115 12 10 1
116 12 56 1
117 12 63 1
118 7 130 1
119 7 85 1
120 66 53 1
121 66 126 1
122 66 110 1
123 2 34 1
124 2 13 1
125 2 80 1
126 45 97 1
127 45 16 1
128 107 62 1
129 73 50 1
130 73 17 1
131 73 23 1
132 61 102 1
133 61 108 1
134 61 29 1
135 11 58 1
136 91 76 1
137 15 99 1
138 15 83 1
139 15 122 1
140 113 30 1
141 113 26 1
142 113 60 1
@<TRIPOS>MOLECULE
Sketch 4
130 142
SMALL
USER_CHARGES


@<TRIPOS>ATOM
1 H1559 37.6441 20.005 62.9564 H 0.0 **** 0.053
2 C1474 34.7403 18.2874 54.0359 C.3 0.0 **** -0.106
3 C1499 36.7177 20.1269 62.3788 C.3 0.0 **** -0.159
4 C1468 39.4416 19.4927 55.0608 C.ar 0.0 **** 0.2405
5 H1549 48.3287 24.7086 59.1032 H 0.0 **** 0.053
6 H1513 38.1929 18.689 51.9884 H 0.0 **** 0.053
7 H1521 35.3622 17.9217 56.7339 H 0.0 **** 0.053
8 H1553 42.7115 21.2943 57.1872 H 0.0 **** 0.41
9 C1475 34.3592 19.1182 55.2602 C.3 0.0 **** -0.106
10 C1487 46.5979 19.9658 47.8957 C.3 0.0 **** -0.159
11 C1434 49.0244 20.005 48.512 C.ar 0.0 **** 0.0
12 C1439 50.9455 20.3261 50.6884 C.ar 0.0 **** 0.0
13 O1494 43.7507 21.5442 57.157 O.3 0.0 **** -0.452
14 C1433 50.3859 19.9473 48.2059 C.ar 0.0 **** 0.0
15 H1514 38.9255 20.2761 52.2354 H 0.0 **** 0.053
16 C1448 49.617 21.2599 54.6118 C.ar 0.0 **** 0.042
17 H1560 35.977 19.4068 62.7617 H 0.0 **** 0.053
18 H1551 46.3136 26.7219 57.4635 H 0.0 **** 0.053
19 H1507 46.2345 24.787 55.8603 H 0.0 **** 0.053
20 C1446 47.293 21.0354 53.8502 C.ar 0.0 **** 0.0
21 C1445 47.7958 20.668 52.6031 C.ar 0.0 **** -0.1268
22 C1482 36.9782 19.9261 60.9066 C.ar 0.0 **** 0.0
23 C1489 53.3865 20.4781 51.3539 C.3 0.0 **** -0.159
24 C1466 38.9038 19.238 52.6181 C.3 0.0 **** -0.106
25 H1502 51.9709 19.0442 49.3222 H 0.0 **** 0.053
26 C1486 50.2843 19.7604 44.3924 C.3 0.0 **** -0.159
27 H1545 52.8475 20.6913 54.7134 H 0.0 **** 0.053
28 C1435 48.0533 19.9085 47.4951 C.ar 0.0 **** 0.0
29 C1454 46.5335 24.618 56.9079 C.ar 0.0 **** -0.053
30 C1464 42.6304 19.4709 52.9467 C.2 0.0 **** 0.367
31 C1467 38.469 19.2508 54.0594 C.ar 0.0 **** 0.0
32 H1534 46.3693 20.921 48.3966 H 0.0 **** 0.053
33 C1455 48.083 24.5714 56.9416 C.ar 0.0 **** -0.053
34 H1547 48.4934 26.2717 58.2675 H 0.0 **** 0.053
35 H1530 46.1831 20.936 43.7716 H 0.0 **** 0.053
36 H1505 44.8627 23.3167 57.3686 H 0.0 **** 0.053
37 C1462 40.8463 19.7237 54.6598 C.ar 0.0 **** 0.0
38 C1461 41.8129 20.3902 55.5575 C.2 0.0 **** 0.367
39 C1490 52.5805 21.4589 53.9703 C.3 0.0 **** -0.159
40 H1541 53.7937 21.4416 50.9998 H 0.0 **** 0.053
41 O1496 42.9693 19.0263 51.7914 O.2 0.0 **** -0.419
42 C1498 34.5218 20.3124 60.3738 C.3 0.0 **** -0.159
43 H1516 36.4187 18.0626 52.687 H 0.0 **** 0.053
44 H1532 49.568 20.2731 43.7372 H 0.0 **** 0.053
45 H1522 35.1056 20.9328 57.1658 H 0.0 **** 0.053
46 C1450 46.3796 22.2321 56.2611 C.2 0.0 **** 0.0
47 H1531 51.2556 20.2546 44.2635 H 0.0 **** 0.053
48 H1501 47.9506 19.2746 50.2105 H 0.0 **** 0.053
49 H1543 52.2098 22.3231 54.5341 H 0.0 **** 0.053
50 H1525 39.089 19.6258 61.2109 H 0.0 **** 0.1268
51 C1481 38.2878 19.6704 60.47 C.ar 0.0 **** -0.1268
52 C1444 49.1652 20.7043 52.2994 C.ar 0.0 **** 0.0
53 H1555 34.0911 21.1133 59.7537 H 0.0 **** 0.053
54 C1437 48.5507 20.1612 49.9272 C.3 0.0 **** -0.106
55 H1504 47.1018 20.3323 51.85 H 0.0 **** 0.1268
56 C1443 50.1371 20.9904 53.3218 C.ar 0.0 **** 0.0
57 H1509 48.6172 22.701 57.8629 H 0.0 **** 0.053
58 H1508 48.4592 25.1184 56.0627 H 0.0 **** 0.053
59 C1457 44.9162 20.2853 53.3759 C.ar 0.0 **** 0.042
60 H1526 46.5889 19.0412 45.3848 H 0.0 **** 0.053
61 N1469 39.1353 19.5423 56.3649 N.ar 0.0 **** -0.481
62 H1556 34.4639 20.6298 61.4212 H 0.0 **** 0.053
63 H1542 53.5517 19.7471 50.553 H 0.0 **** 0.053
64 H1533 50.3898 18.7276 44.0164 H 0.0 **** 0.053
65 H1558 36.3204 21.1342 62.5854 H 0.0 **** 0.053
66 H1527 47.8621 19.1293 44.1889 H 0.0 **** 0.053
67 H1519 33.3742 18.82 55.653 H 0.0 **** 0.053
68 C1453 45.9481 23.2453 57.2958 C.3 0.0 **** -0.106
69 C1471 36.8178 19.1563 55.8165 C.ar 0.0 **** 0.0
70 C1485 46.9108 21.0336 44.5921 C.3 0.0 **** -0.159
71 H1520 34.2897 20.1838 54.9789 H 0.0 **** 0.053
72 O1491 50.4944 21.2402 55.6729 O.3 0.0 **** -0.452
73 C1479 37.5549 19.5438 58.1736 C.ar 0.0 **** 0.0
74 C1480 38.583 19.4905 59.1244 C.ar 0.0 **** -0.1268
75 C1449 47.7386 22.2116 55.9773 C.2 0.0 **** 0.0
76 C1463 41.2602 19.3081 53.4096 C.ar 0.0 **** 0.0
77 C1447 48.238 21.4912 54.8427 C.ar 0.0 **** 0.0
78 C1460 44.1118 21.2066 55.9252 C.ar 0.0 **** 0.042
79 H1524 39.6044 19.326 58.7813 H 0.0 **** 0.1268
80 C1432 50.7986 19.8292 46.8639 C.ar 0.0 **** 0.0
81 H1535 46.3511 19.175 48.6231 H 0.0 **** 0.053
82 C1492 48.7094 25.1971 58.1919 C.3 0.0 **** -0.159
83 C1431 49.8361 19.7881 45.8383 C.ar 0.0 **** 0.0
84 C1488 52.2703 19.7476 46.5256 C.3 0.0 **** -0.159
85 C1458 43.5787 20.1206 53.8087 C.ar 0.0 **** 0.052
86 C1441 51.9206 20.5882 51.7098 C.ar 0.0 **** 0.0
87 C1470 37.8578 19.4077 56.7368 C.ar 0.0 **** 0.2405
88 C1477 35.1585 19.8909 57.5375 C.3 0.0 **** -0.106
89 H1529 46.4248 21.5592 45.4275 H 0.0 **** 0.053
90 H1500 47.8244 20.9916 49.9705 H 0.0 **** 0.053
91 H1539 52.4488 19.0893 45.6647 H 0.0 **** 0.053
92 O1495 45.2366 19.8184 52.1719 O.3 0.0 **** -0.452
93 H1515 35.8667 19.7217 52.8639 H 0.0 **** 0.053
94 H1536 45.9136 19.8708 47.0465 H 0.0 **** 0.053
95 C1438 49.6002 20.3982 50.9731 C.ar 0.0 **** 0.0
96 C1493 45.9135 25.737 57.7482 C.3 0.0 **** -0.159
97 H1557 33.8664 19.4325 60.2562 H 0.0 **** 0.053
98 H1511 40.6706 18.6767 51.456 H 0.0 **** 0.053
99 H1523 34.1685 19.6611 57.9553 H 0.0 **** 0.053
100 C1472 37.1343 19.0611 54.4537 C.ar 0.0 **** 0.0
101 C1473 36.0543 18.7904 53.4283 C.3 0.0 **** -0.106
102 H1517 34.8588 17.2348 54.343 H 0.0 **** 0.053
103 H1548 49.8027 25.0685 58.176 H 0.0 **** 0.053
104 H1554 44.3352 19.3951 51.7983 H 0.0 **** 0.41
105 C1456 48.5997 23.1105 56.8341 C.3 0.0 **** -0.106
106 C1440 51.4269 20.0089 49.2965 C.3 0.0 **** -0.106
107 C1478 36.231 19.7903 58.5936 C.ar 0.0 **** 0.0
108 H1512 40.2533 17.5523 52.7547 H 0.0 **** 0.053
109 H1503 52.1997 20.7448 49.0168 H 0.0 **** 0.053
110 H1540 53.9892 20.163 52.2151 H 0.0 **** 0.053
111 H1538 52.6825 20.739 46.2662 H 0.0 **** 0.053
112 C1465 40.2949 18.6246 52.4856 C.3 0.0 **** -0.106
113 O1497 41.4845 20.8213 56.7077 O.2 0.0 **** -0.419
114 C1436 48.4597 19.7784 46.1549 C.ar 0.0 **** 0.0
115 H1546 49.9763 21.1806 56.4913 H 0.0 **** 0.41
116 C1452 45.8931 20.9346 54.2171 C.ar 0.0 **** 0.0
117 C1459 43.1729 20.5695 55.087 C.ar 0.0 **** 0.052
118 C1442 51.5362 20.9707 52.991 C.ar 0.0 **** 0.0
119 C1476 35.418 18.9607 56.351 C.3 0.0 **** -0.053
120 C1484 47.4324 19.6618 45.0484 C.3 0.0 **** -0.106
121 H1550 44.8226 25.7582 57.6073 H 0.0 **** 0.053
122 H1528 47.7427 21.6658 44.2457 H 0.0 **** 0.053
123 H1544 53.4948 21.7659 53.45 H 0.0 **** 0.053
124 H1537 52.8633 19.3609 47.3636 H 0.0 **** 0.053
125 C1483 35.9396 19.9995 59.9543 C.ar 0.0 **** 0.0
126 H1552 46.1121 25.5894 58.8202 H 0.0 **** 0.053
127 H1510 49.6357 23.1567 56.485 H 0.0 **** 0.053
128 H1506 46.3145 22.9635 58.3004 H 0.0 **** 0.053
129 C1451 45.4632 21.4584 55.4715 C.ar 0.0 **** 0.0
130 H1518 33.9466 18.3133 53.274 H 0.0 **** 0.053
@<TRIPOS>BOND
1 20 21 am
2 52 21 am
3 14 80 am
4 11 14 am
5 28 11 am
6 114 28 am
7 83 80 am
8 83 114 am
9 95 54 1
10 12 95 am
11 106 12 1
12 11 54 1
13 14 106 1
14 118 86 am
15 56 118 am
16 52 56 am
17 12 86 am
18 95 52 am
19 77 20 am
20 16 77 am
21 56 16 am
22 46 75 1
23 129 46 1
24 116 129 am
25 77 75 1
26 20 116 am
27 29 68 1
28 33 29 am
29 105 33 1
30 46 68 1
31 75 105 1
32 85 59 am
33 117 85 am
34 78 117 am
35 116 59 am
36 129 78 am
37 37 38 1
38 76 37 am
39 30 76 1
40 117 38 1
41 85 30 1
42 24 112 1
43 31 24 1
44 4 31 am
45 76 112 1
46 37 4 am
47 87 61 am
48 69 87 am
49 100 69 am
50 4 61 am
51 31 100 am
52 2 101 1
53 9 2 1
54 119 9 1
55 100 101 1
56 69 119 1
57 107 88 1
58 73 107 am
59 87 73 am
60 119 88 1
61 51 74 am
62 22 51 am
63 125 22 am
64 73 74 am
65 107 125 am
66 114 120 1
67 120 70 1
68 83 26 1
69 28 10 1
70 80 84 1
71 86 23 1
72 118 39 1
73 16 72 1
74 33 82 1
75 29 96 1
76 78 13 1
77 59 92 1
78 30 41 2
79 38 113 2
80 125 42 1
81 22 3 1
82 54 90 1
83 54 48 1
84 106 25 1
85 106 109 1
86 21 55 1
87 68 36 1
88 68 128 1
89 29 19 1
90 33 58 1
91 105 57 1
92 105 127 1
93 112 98 1
94 112 108 1
95 24 6 1
96 24 15 1
97 101 93 1
98 101 43 1
99 2 102 1
100 2 130 1
101 9 67 1
102 9 71 1
103 119 7 1
104 88 45 1
105 88 99 1
106 74 79 1
107 51 50 1
108 120 60 1
109 120 66 1
110 70 122 1
111 70 89 1
112 70 35 1
113 26 47 1
114 26 44 1
115 26 64 1
116 10 32 1
117 10 81 1
118 10 94 1
119 84 124 1
120 84 111 1
121 84 91 1
122 23 110 1
123 23 40 1
124 23 63 1
125 39 49 1
126 39 123 1
127 39 27 1
128 72 115 1
129 82 34 1
130 82 103 1
131 82 5 1
132 96 121 1
133 96 18 1
134 96 126 1
135 13 8 1
136 92 104 1
137 42 53 1
138 42 62 1
139 42 97 1
140 3 65 1
141 3 1 1
142 3 17 1
@<TRIPOS>MOLECULE
Sketch 4
130 142
SMALL
USER_CHARGES


@<TRIPOS>ATOM
1 H7224 55.7519 23.8325 63.6481 H 0.0 **** 0.1268
2 H7270 50.1962 26.3063 69.1976 H 0.0 **** 0.053
3 O7211 51.6328 20.7538 64.3572 O.3 0.0 **** -0.452
4 C7163 54.0079 20.9102 64.1285 C.ar 0.0 **** 0.0
5 H7233 56.4296 32.7974 62.5259 H 0.0 **** 0.053
6 C7203 48.6937 35.6844 63.9655 C.ar 0.0 **** 0.0
7 C7182 53.5235 30.3418 63.4046 C.ar 0.0 **** 0.0
8 C7201 47.9692 33.4156 63.5004 C.ar 0.0 **** -0.1268
9 H7258 60.8051 17.7541 63.7292 H 0.0 **** 0.053
10 H7250 63.877 23.9781 64.3041 H 0.0 **** 0.053
11 C7188 53.2525 31.7881 63.2557 C.ar 0.0 **** 0.2405
12 H7228 51.4085 22.5879 68.3473 H 0.0 **** 0.053
13 H7230 50.8917 21.5701 66.3204 H 0.0 **** 0.053
14 C7177 54.4305 26.1465 63.7283 C.ar 0.0 **** 0.042
15 C7180 51.9597 27.1242 64.695 C.ar 0.0 **** 0.042
16 H7221 57.3133 22.9012 62.5428 H 0.0 **** 0.053
17 H7271 50.1994 24.7551 70.0729 H 0.0 **** 0.053
18 H7265 52.378 18.3591 63.6722 H 0.0 **** 0.053
19 C7198 50.0235 35.2833 63.7396 C.ar 0.0 **** 0.0
20 H7246 62.2437 23.8307 62.3889 H 0.0 **** 0.053
21 H7225 50.4432 26.3863 66.7579 H 0.0 **** 0.053
22 H7266 50.865 21.3466 64.3278 H 0.0 **** 0.41
23 H7244 49.5335 31.9734 63.0798 H 0.0 **** 0.1268
24 H7264 53.572 17.5387 64.7073 H 0.0 **** 0.053
25 C7170 51.4144 24.8405 65.5868 C.2 0.0 **** 0.0
26 C7169 51.5741 23.4649 65.4872 C.2 0.0 **** 0.0
27 C7167 52.6626 22.9072 64.739 C.ar 0.0 **** 0.0
28 H7239 53.2158 37.9129 62.9372 H 0.0 **** 0.053
29 C7162 54.2106 19.4904 64.0274 C.ar 0.0 **** 0.0
30 H7280 45.8976 35.9362 63.3717 H 0.0 **** 0.053
31 C7197 51.1719 36.2479 63.9024 C.3 0.0 **** -0.106
32 C7165 54.9373 23.1914 63.9429 C.ar 0.0 **** -0.1268
33 C7171 52.2878 25.7248 64.8677 C.ar 0.0 **** 0.0
34 C7160 57.9049 19.3196 63.0735 C.3 0.0 **** -0.106
35 H7232 55.4858 30.8844 61.2713 H 0.0 **** 0.053
36 C7164 55.1155 21.8003 63.8994 C.ar 0.0 **** 0.0
37 C7158 56.3986 21.2652 63.5686 C.ar 0.0 **** 0.0
38 C7176 50.6381 22.6344 66.3346 C.3 0.0 **** -0.106
39 C7219 46.208 35.1233 64.0474 C.3 0.0 **** -0.159
40 C7154 58.9038 21.6372 63.2094 C.ar 0.0 **** 0.0
41 C7152 60.3854 19.734 62.9306 C.ar 0.0 **** 0.0
42 H7279 45.5496 34.2618 63.8719 H 0.0 **** 0.053
43 C7218 48.4027 37.1138 64.3603 C.3 0.0 **** -0.159
44 C7195 53.5162 36.8807 63.1775 C.3 0.0 **** -0.106
45 C7194 54.7053 36.439 62.3259 C.3 0.0 **** -0.106
46 C7208 60.5894 18.2449 62.7636 C.3 0.0 **** -0.159
47 C7161 55.4537 19.0142 63.6232 C.ar 0.0 **** 0.0
48 C7172 53.5009 25.214 64.3197 C.ar 0.0 **** 0.0
49 H7242 51.5413 36.2064 64.9456 H 0.0 **** 0.053
50 H7245 47.159 32.6889 63.4092 H 0.0 **** 0.1268
51 H7260 54.7655 17.028 63.0784 H 0.0 **** 0.053
52 H7237 54.3943 36.41 61.2683 H 0.0 **** 0.053
53 H7254 59.2543 24.2133 64.2784 H 0.0 **** 0.053
54 H7243 50.8466 37.2834 63.7306 H 0.0 **** 0.053
55 H7261 55.9867 17.038 64.3661 H 0.0 **** 0.053
56 C7192 54.0683 34.052 62.959 C.ar 0.0 **** 0.0
57 C7155 60.0049 22.516 63.1696 C.ar 0.0 **** 0.0
58 H7272 48.8724 25.1441 68.954 H 0.0 **** 0.053
59 C7191 52.7394 34.4847 63.0726 C.ar 0.0 **** 0.0
60 H7227 51.8132 24.8004 68.1458 H 0.0 **** 0.053
61 H7247 63.3189 22.4513 62.4027 H 0.0 **** 0.053
62 H7223 58.1095 18.4833 63.7633 H 0.0 **** 0.053
63 C7185 55.7444 30.7565 62.3393 C.3 0.0 **** -0.106
64 C7202 47.6517 34.7424 63.8318 C.ar 0.0 **** 0.0
65 H7274 56.0588 26.6326 62.8735 H 0.0 **** 0.41
66 H7236 55.8979 34.6609 62.0038 H 0.0 **** 0.053
67 C7196 52.3349 35.9362 62.9588 C.3 0.0 **** -0.053
68 C7179 52.8828 28.0185 64.1136 C.ar 0.0 **** 0.052
69 H7259 61.434 18.0275 62.096 H 0.0 **** 0.053
70 H7269 48.3945 23.0172 67.9458 H 0.0 **** 0.053
71 C7178 54.1215 27.525 63.6418 C.ar 0.0 **** 0.052
72 H7268 49.1825 21.4467 68.2192 H 0.0 **** 0.053
73 C7209 55.676 17.5309 63.428 C.3 0.0 **** -0.159
74 C7213 49.9573 25.2358 69.1129 C.3 0.0 **** -0.159
75 N7189 51.9813 32.208 63.3231 N.ar 0.0 **** -0.481
76 C7181 52.5384 29.4236 64.0137 C.2 0.0 **** 0.367
77 H7255 59.0396 24.3531 62.5364 H 0.0 **** 0.053
78 C7153 59.0856 20.2592 63.0726 C.ar 0.0 **** 0.0
79 H7226 49.3855 25.0479 66.3208 H 0.0 **** 0.053
80 O7217 51.4204 29.8295 64.4632 O.2 0.0 **** -0.419
81 H7256 60.6457 24.6047 63.2564 H 0.0 **** 0.053
82 C7210 53.1383 18.5127 64.4541 C.3 0.0 **** -0.159
83 H7241 51.9641 36.0866 61.9247 H 0.0 **** 0.053
84 C7151 61.494 20.6003 62.9456 C.ar 0.0 **** 0.0
85 H7275 49.055 37.4394 65.185 H 0.0 **** 0.053
86 H7222 57.8352 18.837 62.0789 H 0.0 **** 0.053
87 C7156 61.3035 21.9979 63.016 C.ar 0.0 **** 0.0
88 C7206 62.8936 20.0251 62.8918 C.3 0.0 **** -0.159
89 H7252 63.6082 20.6481 63.4453 H 0.0 **** 0.053
90 C7157 57.5365 22.2275 63.393 C.3 0.0 **** -0.106
91 H7262 56.4625 17.3363 62.6886 H 0.0 **** 0.053
92 H7235 55.7629 35.1297 63.6922 H 0.0 **** 0.053
93 C7205 62.9935 23.3233 64.3592 C.3 0.0 **** -0.159
94 H7234 56.1089 31.9995 64.0677 H 0.0 **** 0.053
95 C7199 50.3232 33.9433 63.4166 C.ar 0.0 **** 0.0
96 C7204 62.499 22.9256 62.9593 C.3 0.0 **** -0.106
97 C7183 54.7331 29.841 62.9656 C.ar 0.0 **** 0.0
98 C7212 49.265 22.5277 68.4113 C.3 0.0 **** -0.159
99 C7200 49.2835 33.0105 63.3035 C.ar 0.0 **** -0.1268
100 C7207 59.7375 23.9959 63.3115 C.3 0.0 **** -0.159
101 H7249 62.2028 23.8519 64.9122 H 0.0 **** 0.053
102 H7229 49.6142 22.7341 65.9248 H 0.0 **** 0.053
103 C7175 50.5702 23.0732 67.823 C.ar 0.0 **** -0.053
104 O7216 56.1914 28.0113 62.5848 O.2 0.0 **** -0.419
105 C7190 51.7273 33.5196 63.263 C.ar 0.0 **** 0.2405
106 C7173 50.4177 25.3047 66.6234 C.3 0.0 **** -0.106
107 C7184 55.0692 28.4273 63.0484 C.2 0.0 **** 0.367
108 C7186 55.7351 32.116 63.0327 C.3 0.0 **** -0.106
109 H7231 56.7355 30.2865 62.3695 H 0.0 **** 0.053
110 H7273 50.8293 28.6257 64.864 H 0.0 **** 0.41
111 H7278 46.033 35.4786 65.0762 H 0.0 **** 0.053
112 O7215 55.603 25.7458 63.2436 O.3 0.0 **** -0.452
113 C7159 56.5606 19.9062 63.4182 C.ar 0.0 **** 0.0
114 H7277 48.5838 37.8057 63.5201 H 0.0 **** 0.053
115 C7174 50.7438 24.608 67.9598 C.ar 0.0 **** -0.053
116 C7166 53.7389 23.7831 64.3389 C.ar 0.0 **** 0.0
117 H7253 63.2639 19.9459 61.8546 H 0.0 **** 0.053
118 H7238 55.5359 37.1574 62.3979 H 0.0 **** 0.053
119 O7214 50.7639 27.5753 65.0531 O.3 0.0 **** -0.452
120 H7276 47.3631 37.248 64.6806 H 0.0 **** 0.053
121 C7193 55.1887 35.0483 62.7517 C.3 0.0 **** -0.106
122 H7257 59.7032 17.7538 62.343 H 0.0 **** 0.053
123 C7168 52.7689 21.5287 64.4278 C.ar 0.0 **** 0.042
124 H7251 62.9313 19.0191 63.3287 H 0.0 **** 0.053
125 C7187 54.3391 32.6782 63.0708 C.ar 0.0 **** 0.0
126 H7248 63.2598 22.4282 64.9419 H 0.0 **** 0.053
127 H7220 57.5547 22.9053 64.2642 H 0.0 **** 0.053
128 H7240 53.797 36.8626 64.2454 H 0.0 **** 0.053
129 H7263 52.6058 18.8823 65.3383 H 0.0 **** 0.053
130 H7267 49.2036 22.687 69.4966 H 0.0 **** 0.053
@<TRIPOS>BOND
1 88 89 1
2 15 119 1
3 78 41 am
4 40 78 am
5 57 40 am
6 87 57 am
7 84 41 am
8 84 87 am
9 37 90 1
10 113 37 am
11 34 113 1
12 40 90 1
13 78 34 1
14 29 47 am
15 4 29 am
16 36 4 am
17 113 47 am
18 37 36 am
19 116 32 am
20 27 116 am
21 123 27 am
22 36 32 am
23 4 123 am
24 25 26 1
25 33 25 1
26 48 33 am
27 27 26 1
28 116 48 am
29 115 106 1
30 103 115 am
31 38 103 1
32 25 106 1
33 26 38 1
34 71 14 am
35 68 71 am
36 15 68 am
37 48 14 am
38 33 15 am
39 7 76 1
40 97 7 am
41 107 97 1
42 68 76 1
43 71 107 1
44 108 63 1
45 125 108 1
46 11 125 am
47 97 63 1
48 7 11 am
49 105 75 am
50 59 105 am
51 56 59 am
52 11 75 am
53 125 56 am
54 45 121 1
55 44 45 1
56 67 44 1
57 56 121 1
58 59 67 1
59 19 31 1
60 95 19 am
61 105 95 am
62 67 31 1
63 8 99 am
64 64 8 am
65 6 64 am
66 95 99 am
67 19 6 am
68 87 96 1
69 96 93 1
70 84 88 1
71 57 100 1
72 41 46 1
73 47 73 1
74 29 82 1
75 123 3 1
76 103 98 1
77 115 74 1
78 14 112 1
79 107 104 2
80 76 80 2
81 6 43 1
82 64 39 1
83 90 127 1
84 90 16 1
85 34 86 1
86 34 62 1
87 32 1 1
88 106 21 1
89 106 79 1
90 115 60 1
91 103 12 1
92 38 102 1
93 38 13 1
94 63 109 1
95 63 35 1
96 108 5 1
97 108 94 1
98 121 92 1
99 121 66 1
100 45 52 1
101 45 118 1
102 44 28 1
103 44 128 1
104 67 83 1
105 31 49 1
106 31 54 1
107 99 23 1
108 8 50 1
109 96 20 1
110 96 61 1
111 93 126 1
112 93 101 1
113 93 10 1
114 88 124 1
115 88 117 1
116 100 53 1
117 100 77 1
118 100 81 1
119 46 122 1
120 46 9 1
121 46 69 1
122 73 51 1
123 73 55 1
124 73 91 1
125 82 129 1
126 82 24 1
127 82 18 1
128 3 22 1
129 98 130 1
130 98 72 1
131 98 70 1
132 74 2 1
133 74 17 1
134 74 58 1
135 119 110 1
136 112 65 1
137 43 85 1
138 43 120 1
139 43 114 1
140 39 111 1
141 39 42 1
142 39 30 1
