# Mol2 file generated by Materials Studio
@<TRIPOS>MOLECULE
"FuchsSandoff"
250 292 0 0 0 
SMALL
USER_CHARGES


@<TRIPOS>ATOM
1 C 0.294674 3.0632 -3.52379 C.3 0 **** 0
2 C -0.174439 1.89306 -2.62861 C.3 0 **** 0
3 C -1.54632 2.20697 -1.99825 C.3 0 **** 0
4 C -1.56858 3.67607 -1.54743 C.3 0 **** 0
5 C -1.33668 4.59268 -2.77723 C.3 0 **** 0
6 O -0.803147 3.89611 -3.91042 O.3 0 **** 0
7 C -0.53314 3.93391 -0.431038 C.3 0 **** 0
8 C -0.437814 2.74302 0.56862 C.3 0 **** 0
9 C -1.70826 1.91 0.550905 C.3 0 **** 0
10 C -1.89608 1.25287 -0.82785 C.3 0 **** 0
11 O -0.215295 3.1643 1.92634 O.3 0 **** 0
12 C 0.716395 4.24946 2.03153 C.3 0 **** 0
13 C 0.0196367 5.52787 1.54743 C.3 0 **** 0
14 C -0.869965 5.2306 0.306721 C.3 0 **** 0
15 C 0.977465 6.68812 1.40859 C.2 0 **** 0
16 C 2.40018 6.44263 1.14617 C.2 0 **** 0
17 C 2.93938 5.15762 1.19418 C.2 0 **** 0
18 C 2.049 3.9393 1.34321 C.3 0 **** 0
19 C 4.34516 4.96536 1.0762 C.2 0 **** 0
20 C 5.20193 6.09883 0.94378 C.2 0 **** 0
21 C 4.60791 7.3806 0.846626 C.2 0 **** 0
22 C 3.24402 7.57328 0.921104 C.2 0 **** 0
23 C 2.61932 8.92972 0.712572 C.3 0 **** 0
24 C 1.41754 9.14747 1.63463 C.3 0 **** 0
25 C 0.531236 7.93973 1.66079 C.2 0 **** 0
26 O 5.38886 8.49991 0.650672 O.3 0 **** 0
27 C 6.7618 8.40262 0.695472 C.2 0 **** 0
28 C 7.42576 7.16852 0.784961 C.2 0 **** 0
29 C 6.62111 5.96587 0.88235 C.2 0 **** 0
30 C 2.81911 2.81154 1.97373 C.2 0 **** 0
31 C 4.03336 2.44595 1.15856 C.3 0 **** 0
32 C 4.94673 3.6682 1.10262 C.3 0 **** 0
33 C 4.70733 1.16999 1.60105 C.2 0 **** 0
34 C 4.44394 0.625349 2.80999 C.2 0 **** 0
35 C 3.39293 1.15224 3.7356 C.3 0 **** 0
36 C 2.53146 2.22047 3.13629 C.2 0 **** 0
37 C 5.15634 -0.637209 3.22208 C.3 0 **** 0
38 C 6.5688 -0.671254 2.64109 C.3 0 **** 0
39 C 6.54218 -0.386577 1.16004 C.2 0 **** 0
40 C 5.62898 0.487764 0.673059 C.2 0 **** 0
41 C 5.51896 0.780084 -0.804885 C.3 0 **** 0
42 C 6.27849 -0.228875 -1.67003 C.3 0 **** 0
43 C 7.68099 -0.437828 -1.08802 C.3 0 **** 0
44 C 7.57534 -1.0605 0.304653 C.3 0 **** 0
45 C 7.15838 4.68144 0.948171 C.2 0 **** 0
46 C 6.32087 3.54773 1.05417 C.2 0 **** 0
47 C 8.84095 7.19925 0.787873 C.2 0 **** 0
48 C 9.60889 5.97825 0.835125 C.2 0 **** 0
49 S 8.87804 4.375 0.895096 S.2 0 **** 0
50 C 10.9802 6.00657 0.825031 C.2 0 **** 0
51 C 11.6956 7.23344 0.787601 C.2 0 **** 0
52 C 10.976 8.46688 0.745992 C.2 0 **** 0
53 C 9.55277 8.44971 0.736283 C.2 0 **** 0
54 C 11.6961 9.68915 0.691631 C.2 0 **** 0
55 C 13.1254 9.67981 0.697442 C.2 0 **** 0
56 C 13.8286 8.42491 0.791257 C.2 0 **** 0
57 C 13.0874 7.23263 0.794814 C.2 0 **** 0
58 C 15.2521 8.44521 0.892141 C.2 0 **** 0
59 C 15.9277 9.64165 0.741413 C.2 0 **** 0
60 C 15.2813 10.898 0.542951 C.2 0 **** 0
61 C 13.8582 10.8999 0.592454 C.2 0 **** 0
62 C 8.82803 9.68796 0.674874 C.2 0 **** 0
63 C 7.42341 9.61027 0.643714 C.2 0 **** 0
64 C 10.9761 10.9292 0.635789 C.2 0 **** 0
65 C 9.55066 10.9428 0.644103 C.2 0 **** 0
66 C 13.138 12.1388 0.524827 C.2 0 **** 0
67 C 11.7192 12.1456 0.56858 C.2 0 **** 0
68 C 15.9967 12.1339 0.334274 C.2 0 **** 0
69 C 15.2638 13.3585 0.327294 C.2 0 **** 0
70 C 13.8492 13.3637 0.429977 C.2 0 **** 0
71 O 17.2972 9.59827 0.889417 O.3 0 **** 0
72 C 17.9923 8.61215 0.0751747 C.3 0 **** 0
73 C 17.2578 7.24931 0.0776861 C.3 0 **** 0
74 C 16.2041 7.29201 1.19311 C.3 0 **** 0
75 C 18.2447 6.08147 0.192553 C.3 0 **** 0
76 C 19.4554 6.36366 -0.702528 C.3 0 **** 0
77 C 20.2984 7.49495 -0.106072 C.3 0 **** 0
78 C 19.4154 8.55963 0.627319 C.3 0 **** 0
79 C 20.0833 9.94281 0.543466 C.3 0 **** 0
80 C 21.6033 9.83637 0.657585 C.3 0 **** 0
81 C 22.1653 8.99696 -0.522535 C.3 0 **** 0
82 N 21.1876 8.07133 -1.11574 N.3 0 **** 0
83 C 8.90133 12.227 0.628946 C.2 0 **** 0
84 C 9.62714 13.4073 0.616442 C.2 0 **** 0
85 C 11.044 13.4034 0.548888 C.2 0 **** 0
86 O 9.03799 14.6494 0.652773 O.3 0 **** 0
87 C 7.6414 14.6543 1.02339 C.3 0 **** 0
88 C 6.95893 13.5472 0.238322 C.3 0 **** 0
89 O 7.52502 12.2851 0.642531 O.3 0 **** 0
90 C 7.06852 13.749 -1.28796 C.3 0 **** 0
91 C 7.23008 15.2319 -1.68481 C.3 0 **** 0
92 C 6.47055 16.1356 -0.7072 C.3 0 **** 0
93 C 7.07004 16.0386 0.711061 C.3 0 **** 0
94 C 13.1492 14.6154 0.409849 C.2 0 **** 0
95 C 11.7571 14.6086 0.480285 C.2 0 **** 0
96 C 15.9683 14.5883 0.201085 C.2 0 **** 0
97 C 15.2394 15.8178 0.213036 C.2 0 **** 0
98 C 13.8769 15.8414 0.31342 C.2 0 **** 0
99 C 17.3628 14.6137 0.0534787 C.2 0 **** 0
100 C 18.0697 13.406 -0.018137 C.2 0 **** 0
101 C 17.3871 12.2099 0.118456 C.2 0 **** 0
102 O 15.9042 17.0284 0.109368 O.3 0 **** 0
103 C 17.2766 17.0704 0.0399276 C.2 0 **** 0
104 C 18.0354 15.8889 -0.0150023 C.2 0 **** 0
105 C 19.5529 13.3745 -0.281514 C.3 0 **** 0
106 C 20.2757 14.7148 -0.00543973 C.3 0 **** 0
107 C 19.4291 15.9571 -0.086375 C.2 0 **** 0
108 C 21.4997 14.9015 -0.921995 C.3 0 **** 0
109 C 22.2419 13.5787 -1.06986 C.3 0 **** 0
110 C 21.3609 12.5761 -1.85642 C.3 0 **** 0
111 C 19.8577 12.8795 -1.707 C.3 0 **** 0
112 C 20.0774 17.2015 -0.112942 C.2 0 **** 0
113 C 19.3115 18.3959 0.00484483 C.2 0 **** 0
114 C 17.8842 18.339 0.0634431 C.2 0 **** 0
115 C 22.2755 16.1081 -0.467552 C.2 0 **** 0
116 C 21.5117 17.2731 -0.179238 C.2 0 **** 0
117 C 6.27071 0.16797 -3.16019 C.3 0 **** 0
118 C 7.19673 1.35176 -3.46389 C.3 0 **** 0
119 C 6.62283 -1.02941 -4.04995 C.3 0 **** 0
120 O 15.6563 5.98042 1.33633 O.3 0 **** 0
121 C 17.1402 19.5594 0.169524 C.2 0 **** 0
122 C 17.7817 20.7639 0.248191 C.2 0 **** 0
123 C 19.2131 20.8547 0.242713 C.2 0 **** 0
124 C 19.9759 19.6489 0.114952 C.2 0 **** 0
125 C 21.3945 19.7067 0.131746 C.2 0 **** 0
126 C 22.0533 20.9501 0.277765 C.2 0 **** 0
127 C 21.2829 22.1515 0.401101 C.2 0 **** 0
128 C 19.8809 22.0762 0.377598 C.2 0 **** 0
129 C 21.9664 23.3978 0.550265 C.2 0 **** 0
130 C 23.3348 23.4503 0.578566 C.2 0 **** 0
131 C 24.1232 22.2657 0.453015 C.2 0 **** 0
132 C 23.4781 21.0099 0.296675 C.2 0 **** 0
133 C 24.2554 19.8205 0.154481 C.2 0 **** 0
134 C 23.5893 18.5721 -0.00468583 C.2 0 **** 0
135 C 22.1665 18.5108 -0.0104831 C.2 0 **** 0
136 C 25.6804 19.882 0.154784 C.2 0 **** 0
137 C 26.29 21.1544 0.337965 C.2 0 **** 0
138 C 25.5353 22.2997 0.483095 C.2 0 **** 0
139 C 23.6506 16.1653 -0.418003 C.2 0 **** 0
140 C 24.3438 17.3747 -0.146463 C.2 0 **** 0
141 C 26.437 18.6546 0.0151754 C.2 0 **** 0
142 C 25.7704 17.4245 -0.0670139 C.2 0 **** 0
143 C 26.5251 16.1138 -0.0713164 C.3 0 **** 0
144 C 27.8906 16.2359 0.593951 C.3 0 **** 0
145 C 28.6664 17.3414 -0.102325 C.3 0 **** 0
146 C 27.9233 18.6706 -0.141883 C.2 0 **** 0
147 O 28.5787 19.6905 -0.361792 O.2 0 **** 0
148 H 0.746831 2.70598 -4.45897 H 0 **** 0
149 H 1.04928 3.67877 -2.99323 H 0 **** 0
150 H -0.253304 0.961554 -3.20915 H 0 **** 0
151 H 0.569228 1.71408 -1.83535 H 0 **** 0
152 H -2.29806 2.09363 -2.79294 H 0 **** 0
153 H -2.5669 3.89928 -1.13502 H 0 **** 0
154 H -0.647509 5.41782 -2.50227 H 0 **** 0
155 H -2.27971 5.03261 -3.13024 H 0 **** 0
156 H 0.443582 4.06346 -0.923929 H 0 **** 0
157 H 0.406324 2.09062 0.270695 H 0 **** 0
158 H -2.55966 2.56944 0.784168 H 0 **** 0
159 H -1.66015 1.15039 1.34413 H 0 **** 0
160 H -2.93558 0.903695 -0.920564 H 0 **** 0
161 H -1.25762 0.356349 -0.89282 H 0 **** 0
162 H 0.91666 4.35597 3.10753 H 0 **** 0
163 H -0.678083 5.80193 2.35242 H 0 **** 0
164 H -0.835105 6.07918 -0.392626 H 0 **** 0
165 H -1.91351 5.14761 0.649943 H 0 **** 0
166 H 1.83787 3.61214 0.310059 H 0 **** 0
167 H 3.36489 9.72483 0.839445 H 0 **** 0
168 H 2.26926 8.98079 -0.335329 H 0 **** 0
169 H 0.85342 10.0385 1.3162 H 0 **** 0
170 H 1.76641 9.35966 2.66431 H 0 **** 0
171 H -0.511223 8.07272 1.96486 H 0 **** 0
172 H 3.67925 2.30971 0.115108 H 0 **** 0
173 H 3.86273 1.52666 4.66858 H 0 **** 0
174 H 2.76632 0.303517 4.07641 H 0 **** 0
175 H 1.63569 2.50277 3.69102 H 0 **** 0
176 H 5.18147 -0.715603 4.32053 H 0 **** 0
177 H 4.57969 -1.50977 2.85491 H 0 **** 0
178 H 7.04968 -1.64405 2.83075 H 0 **** 0
179 H 7.19295 0.0937845 3.14533 H 0 **** 0
180 H 4.45574 0.768838 -1.10348 H 0 **** 0
181 H 5.87616 1.80535 -1.0112 H 0 **** 0
182 H 5.74303 -1.19303 -1.58599 H 0 **** 0
183 H 8.18819 0.538334 -1.01314 H 0 **** 0
184 H 8.29202 -1.07362 -1.74681 H 0 **** 0
185 H 8.54901 -1.02112 0.826141 H 0 **** 0
186 H 7.33463 -2.13816 0.220353 H 0 **** 0
187 H 6.7723 2.55513 1.09654 H 0 **** 0
188 H 11.5525 5.07651 0.854034 H 0 **** 0
189 H 13.601 6.27693 0.765391 H 0 **** 0
190 H 6.81892 10.5032 0.58593 H 0 **** 0
191 H 18.024 9.01463 -0.954636 H 0 **** 0
192 H 16.7133 7.14125 -0.873935 H 0 **** 0
193 H 16.7391 7.55626 2.12878 H 0 **** 0
194 H 18.5708 5.96347 1.24014 H 0 **** 0
195 H 17.7383 5.14919 -0.0872507 H 0 **** 0
196 H 19.1032 6.66755 -1.70486 H 0 **** 0
197 H 20.0858 5.47577 -0.848296 H 0 **** 0
198 H 20.9601 7.05417 0.659102 H 0 **** 0
199 H 19.3363 8.2677 1.68816 H 0 **** 0
200 H 19.8346 10.397 -0.431509 H 0 **** 0
201 H 19.6657 10.6094 1.31006 H 0 **** 0
202 H 21.8605 9.35987 1.61726 H 0 **** 0
203 H 22.0634 10.8374 0.666265 H 0 **** 0
204 H 23.0346 8.41014 -0.179935 H 0 **** 0
205 H 22.5227 9.65629 -1.32767 H 0 **** 0
206 H 20.6277 8.55909 -1.81603 H 0 **** 0
207 H 7.57738 14.426 2.10035 H 0 **** 0
208 H 5.90758 13.4824 0.552741 H 0 **** 0
209 H 7.92846 13.166 -1.64892 H 0 **** 0
210 H 6.16971 13.3209 -1.75576 H 0 **** 0
211 H 6.86939 15.3814 -2.71305 H 0 **** 0
212 H 8.29631 15.5021 -1.66794 H 0 **** 0
213 H 5.41151 15.826 -0.686532 H 0 **** 0
214 H 6.48392 17.1825 -1.04395 H 0 **** 0
215 H 6.30995 16.2872 1.46673 H 0 **** 0
216 H 7.89216 16.7603 0.83447 H 0 **** 0
217 H 11.2141 15.5524 0.476321 H 0 **** 0
218 H 13.3404 16.7908 0.309601 H 0 **** 0
219 H 17.9563 11.2948 0.073564 H 0 **** 0
220 H 19.99 12.6245 0.395725 H 0 **** 0
221 H 20.6642 14.6761 1.03192 H 0 **** 0
222 H 21.1068 15.1752 -1.922 H 0 **** 0
223 H 22.4688 13.19 -0.0624138 H 0 **** 0
224 H 23.2037 13.7143 -1.58479 H 0 **** 0
225 H 21.5617 11.5572 -1.49606 H 0 **** 0
226 H 21.6338 12.5973 -2.92274 H 0 **** 0
227 H 19.2562 11.9824 -1.91779 H 0 **** 0
228 H 19.5348 13.647 -2.42816 H 0 **** 0
229 H 5.23627 0.473709 -3.40121 H 0 **** 0
230 H 7.07529 1.67773 -4.50786 H 0 **** 0
231 H 8.25044 1.06519 -3.323 H 0 **** 0
232 H 6.99248 2.21472 -2.8124 H 0 **** 0
233 H 5.93127 -1.86889 -3.8769 H 0 **** 0
234 H 7.64505 -1.38365 -3.84253 H 0 **** 0
235 H 6.57639 -0.758421 -5.11579 H 0 **** 0
236 H 15.1132 5.98234 2.13952 H 0 **** 0
237 H 16.0519 19.5077 0.194686 H 0 **** 0
238 H 17.2074 21.6881 0.332686 H 0 **** 0
239 H 19.2981 22.9945 0.477123 H 0 **** 0
240 H 21.3707 24.3077 0.644564 H 0 **** 0
241 H 23.8514 24.4045 0.700401 H 0 **** 0
242 H 27.373 21.2121 0.349674 H 0 **** 0
243 H 26.0341 23.2607 0.625743 H 0 **** 0
244 H 24.2171 15.264 -0.636206 H 0 **** 0
245 H 25.9262 15.3513 0.446042 H 0 **** 0
246 H 26.6518 15.7586 -1.11161 H 0 **** 0
247 H 28.4312 15.2783 0.547417 H 0 **** 0
248 H 27.7517 16.4872 1.65821 H 0 **** 0
249 H 28.8507 17.0584 -1.15527 H 0 **** 0
250 H 29.6505 17.5361 0.347184 H 0 **** 0
@<TRIPOS>BOND
1 3 2 1
2 4 3 1
3 5 4 1
4 6 5 1
5 1 2 1
6 1 6 1
7 8 7 1
8 9 8 1
9 10 9 1
10 4 7 1
11 3 10 1
12 12 11 1
13 13 12 1
14 14 13 1
15 8 11 1
16 7 14 1
17 16 15 1
18 17 16 un
19 18 17 1
20 13 15 1
21 12 18 1
22 20 19 un
23 21 20 un
24 22 21 un
25 17 19 un
26 16 22 un
27 24 23 1
28 25 24 1
29 15 25 2
30 22 23 1
31 27 26 1
32 28 27 un
33 29 28 un
34 21 26 1
35 20 29 un
36 31 30 1
37 32 31 1
38 18 30 1
39 19 32 1
40 34 33 2
41 35 34 1
42 36 35 1
43 31 33 1
44 30 36 2
45 38 37 1
46 39 38 1
47 40 39 2
48 34 37 1
49 33 40 1
50 42 41 1
51 43 42 1
52 44 43 1
53 40 41 1
54 39 44 1
55 46 45 un
56 32 46 1
57 29 45 un
58 48 47 un
59 49 48 1
60 45 49 un
61 28 47 un
62 51 50 un
63 52 51 un
64 53 52 un
65 48 50 un
66 47 53 un
67 55 54 un
68 56 55 un
69 57 56 un
70 52 54 un
71 51 57 un
72 59 58 un
73 60 59 un
74 61 60 un
75 56 58 un
76 55 61 un
77 63 62 un
78 27 63 un
79 53 62 un
80 65 64 un
81 62 65 un
82 54 64 un
83 67 66 un
84 64 67 un
85 61 66 un
86 69 68 un
87 70 69 un
88 66 70 un
89 60 68 un
90 72 71 1
91 73 72 1
92 74 73 1
93 59 71 1
94 58 74 1
95 76 75 1
96 77 76 1
97 78 77 1
98 73 75 1
99 72 78 1
100 80 79 1
101 81 80 1
102 82 81 1
103 78 79 1
104 77 82 1
105 84 83 un
106 85 84 un
107 67 85 un
108 65 83 un
109 87 86 1
110 88 87 1
111 89 88 1
112 84 86 1
113 83 89 1
114 91 90 1
115 92 91 1
116 93 92 1
117 88 90 1
118 87 93 1
119 95 94 un
120 85 95 un
121 70 94 un
122 97 96 un
123 98 97 un
124 94 98 un
125 69 96 un
126 100 99 un
127 101 100 un
128 68 101 un
129 96 99 un
130 103 102 1
131 104 103 un
132 97 102 1
133 99 104 1
134 106 105 1
135 107 106 1
136 100 105 1
137 104 107 un
138 109 108 1
139 110 109 1
140 111 110 1
141 106 108 1
142 105 111 1
143 113 112 1
144 114 113 1
145 103 114 un
146 107 112 un
147 108 115 1
148 112 116 un
149 115 116 un
150 42 117 1
151 117 118 1
152 117 119 1
153 74 120 1
154 122 121 1
155 123 122 un
156 124 123 1
157 114 121 un
158 113 124 un
159 126 125 un
160 127 126 1
161 128 127 un
162 124 125 un
163 123 128 un
164 130 129 un
165 131 130 1
166 132 131 1
167 127 129 un
168 126 132 un
169 134 133 un
170 135 134 un
171 125 135 un
172 132 133 un
173 137 136 un
174 138 137 un
175 131 138 un
176 133 136 un
177 140 139 un
178 134 140 un
179 116 135 un
180 115 139 un
181 142 141 un
182 140 142 un
183 136 141 un
184 144 143 1
185 145 144 1
186 146 145 1
187 142 143 1
188 141 146 1
189 146 147 2
190 1 148 1
191 1 149 1
192 2 150 1
193 2 151 1
194 3 152 1
195 4 153 1
196 5 154 1
197 5 155 1
198 7 156 1
199 8 157 1
200 9 158 1
201 9 159 1
202 10 160 1
203 10 161 1
204 12 162 1
205 13 163 1
206 14 164 1
207 14 165 1
208 18 166 1
209 23 167 1
210 23 168 1
211 24 169 1
212 24 170 1
213 25 171 1
214 35 173 1
215 35 174 1
216 36 175 1
217 37 176 1
218 37 177 1
219 38 178 1
220 38 179 1
221 41 180 1
222 41 181 1
223 42 182 1
224 43 183 1
225 43 184 1
226 44 185 1
227 44 186 1
228 46 187 1
229 50 188 1
230 57 189 1
231 63 190 1
232 72 191 1
233 73 192 1
234 74 193 1
235 75 194 1
236 75 195 1
237 76 196 1
238 76 197 1
239 77 198 1
240 78 199 1
241 79 200 1
242 79 201 1
243 80 202 1
244 80 203 1
245 81 204 1
246 81 205 1
247 82 206 1
248 87 207 1
249 88 208 1
250 90 209 1
251 90 210 1
252 91 211 1
253 91 212 1
254 92 213 1
255 92 214 1
256 93 215 1
257 93 216 1
258 95 217 1
259 98 218 1
260 101 219 1
261 105 220 1
262 106 221 1
263 108 222 1
264 109 223 1
265 109 224 1
266 110 225 1
267 110 226 1
268 111 227 1
269 111 228 1
270 117 229 1
271 118 230 1
272 118 231 1
273 118 232 1
274 119 233 1
275 119 234 1
276 119 235 1
277 120 236 1
278 121 237 1
279 122 238 1
280 128 239 1
281 129 240 1
282 130 241 1
283 137 242 1
284 138 243 1
285 139 244 1
286 143 245 1
287 143 246 1
288 144 247 1
289 144 248 1
290 145 249 1
291 145 250 1
292 31 172 1
