# Mol2 file generated by Materials Studio
@<TRIPOS>MOLECULE
"Given2"
188 213 0 0 0 
SMALL
USER_CHARGES


@<TRIPOS>ATOM
1 C -20.4265 6.53348 0.151134 C.3 0 **** 0
2 C -19.5898 5.38833 -0.464615 C.3 0 **** 0
3 C -18.1666 5.86706 -0.292128 C.ar 0 **** 0
4 C -18.1774 7.28696 -0.105896 C.ar 0 **** 0
5 C -19.5931 7.81111 -0.119676 C.3 0 **** 0
6 C -17.0056 7.97904 0.0605459 C.ar 0 **** 0
7 C -15.7473 7.28337 0.059899 C.ar 0 **** 0
8 C -15.7528 5.83586 -0.126632 C.ar 0 **** 0
9 C -16.9995 5.15315 -0.302492 C.ar 0 **** 0
10 C -14.5363 5.15551 -0.124815 C.ar 0 **** 0
11 C -13.3026 5.81952 0.0544557 C.ar 0 **** 0
12 C -13.312 7.26283 0.243837 C.ar 0 **** 0
13 C -14.5422 7.95278 0.238004 C.ar 0 **** 0
14 C -12.0938 7.93047 0.434359 C.2 0 **** 0
15 C -10.868 7.25407 0.45286 C.2 0 **** 0
16 C -10.8503 5.80729 0.250581 C.2 0 **** 0
17 C -12.073 5.14349 0.0576662 C.2 0 **** 0
18 C -9.62115 5.11238 0.256306 C.2 0 **** 0
19 C -8.41633 5.77649 0.468995 C.2 0 **** 0
20 C -8.41883 7.21879 0.692568 C.2 0 **** 0
21 C -9.6286 7.91762 0.673683 C.2 0 **** 0
22 C -7.17822 7.87961 0.943888 C.2 0 **** 0
23 C -6.04184 7.1295 0.958062 C.2 0 **** 0
24 C -6.13775 5.70779 0.71067 C.2 0 **** 0
25 N -7.24695 5.04386 0.475828 N.2 0 **** 0
26 C -4.78949 5.14614 0.797989 C.ar 0 **** 0
27 C -3.88069 6.19896 1.11611 C.ar 0 **** 0
28 C -4.60985 7.52141 1.21176 C.3 0 **** 0
29 C -2.54507 5.93751 1.30726 C.ar 0 **** 0
30 C -2.0662 4.60906 1.17411 C.ar 0 **** 0
31 C -2.97691 3.5505 0.814252 C.ar 0 **** 0
32 C -4.34936 3.84512 0.636282 C.ar 0 **** 0
33 C -2.48138 2.22262 0.666797 C.ar 0 **** 0
34 C -1.15378 1.93812 0.887124 C.ar 0 **** 0
35 C -0.281984 2.98546 1.28609 C.ar 0 **** 0
36 C -0.706268 4.28447 1.41629 C.ar 0 **** 0
37 C 1.11974 2.48399 1.50493 C.3 0 **** 0
38 C 1.52403 1.87255 0.162093 C.2 0 **** 0
39 C 0.758818 0.682567 -0.190619 C.2 0 **** 0
40 C -0.485865 0.551368 0.78133 C.3 0 **** 0
41 C 2.29675 2.64487 -0.66733 C.2 0 **** 0
42 C 2.92816 2.22028 -1.936 C.2 0 **** 0
43 C 3.29557 0.788171 -2.07411 C.2 0 **** 0
44 C 2.49016 -0.317826 -1.70046 C.2 0 **** 0
45 C 1.12975 -0.223439 -1.15124 C.2 0 **** 0
46 C 2.99687 -1.62436 -1.95717 C.2 0 **** 0
47 C 2.20651 -2.8804 -1.64133 C.3 0 **** 0
48 C 0.780274 -2.65746 -1.126 C.3 0 **** 0
49 C 0.264864 -1.3351 -1.69764 C.3 0 **** 0
50 C 4.54592 0.576288 -2.66911 C.2 0 **** 0
51 C 5.05959 -0.696489 -2.87037 C.2 0 **** 0
52 C 4.27436 -1.80322 -2.51684 C.2 0 **** 0
53 C 4.77849 -3.19847 -2.7351 C.3 0 **** 0
54 C 6.16082 -3.34642 -3.30352 C.ar 0 **** 0
55 C 6.94604 -2.2432 -3.63619 C.ar 0 **** 0
56 C 6.43625 -0.838719 -3.46163 C.3 0 **** 0
57 C 8.24815 -2.43554 -4.14188 C.ar 0 **** 0
58 C 8.74923 -3.72725 -4.30891 C.ar 0 **** 0
59 C 7.94791 -4.8442 -3.98848 C.ar 0 **** 0
60 C 6.65868 -4.65248 -3.4892 C.ar 0 **** 0
61 C 5.75995 -5.80487 -3.13548 C.3 0 **** 0
62 C 6.33017 -7.17337 -3.34105 C.ar 0 **** 0
63 C 7.60752 -7.36325 -3.82746 C.ar 0 **** 0
64 C 8.51382 -6.2247 -4.19564 C.3 0 **** 0
65 C 8.07963 -8.69462 -3.98538 C.ar 0 **** 0
66 N 7.39518 -9.78513 -3.70377 N.ar 0 **** 0
67 C 6.12453 -9.61493 -3.22081 C.ar 0 **** 0
68 C 5.5463 -8.31999 -3.02266 C.ar 0 **** 0
69 C 4.22197 -8.24184 -2.51935 C.ar 0 **** 0
70 C 3.50959 -9.38781 -2.22862 C.ar 0 **** 0
71 C 4.07336 -10.6783 -2.42065 C.ar 0 **** 0
72 C 5.36516 -10.7708 -2.91045 C.ar 0 **** 0
73 C 10.1453 -3.98178 -4.80643 C.3 0 **** 0
74 C 10.9716 -2.77683 -5.16138 C.ar 0 **** 0
75 C 10.4561 -1.4846 -5.01187 C.ar 0 **** 0
76 C 9.07224 -1.22535 -4.48416 C.3 0 **** 0
77 C 11.239 -0.383129 -5.35791 C.ar 0 **** 0
78 C 12.5315 -0.534472 -5.85786 C.ar 0 **** 0
79 C 13.0774 -1.83607 -6.03035 C.ar 0 **** 0
80 C 12.2762 -2.94849 -5.66274 C.ar 0 **** 0
81 C 12.8012 -4.35924 -5.81668 C.3 0 **** 0
82 C 14.3189 -4.44392 -5.94515 C.3 0 **** 0
83 C 14.7975 -3.45854 -7.00885 C.3 0 **** 0
84 C 14.433 -2.03074 -6.62246 C.2 0 **** 0
85 O -16.9577 9.34202 0.243406 O.3 0 **** 0
86 O -9.5636 9.27152 0.886336 O.3 0 **** 0
87 C -1.56787 -0.48769 0.493695 C.3 0 **** 0
88 O 2.611 3.94432 -0.378759 O.3 0 **** 0
89 O 3.30553 3.06085 -2.75565 O.2 0 **** 0
90 O 13.2679 0.559967 -6.20442 O.3 0 **** 0
91 O 15.2303 -1.11648 -6.80576 O.2 0 **** 0
92 C 3.2619 -11.9038 -2.09538 C.3 0 **** 0
93 C 1.04096 1.36998 2.50664 C.2 0 **** 0
94 C 0.215538 0.317425 2.13722 C.2 0 **** 0
95 C 0.116183 -0.814144 3.00425 C.2 0 **** 0
96 C 0.769481 -0.771748 4.26247 C.2 0 **** 0
97 C 1.56294 0.340693 4.63711 C.2 0 **** 0
98 C 1.73003 1.41129 3.74043 C.2 0 **** 0
99 C 2.19068 0.400373 5.94186 C.2 0 **** 0
100 C 1.94885 -0.691966 6.8926 C.ar 0 **** 0
101 C 1.19643 -1.77177 6.53402 C.ar 0 **** 0
102 C 0.603197 -1.87179 5.1925 C.2 0 **** 0
103 C 0.931497 -2.90603 7.47188 C.3 0 **** 0
104 C 1.43626 -2.69997 8.87215 C.2 0 **** 0
105 C 2.1541 -1.62139 9.23183 C.2 0 **** 0
106 C 2.54484 -0.547028 8.25566 C.3 0 **** 0
107 C 2.63044 -1.3993 10.6467 C.3 0 **** 0
108 C 1.92042 -2.29525 11.6661 C.3 0 **** 0
109 C 1.86009 -3.73605 11.1512 C.3 0 **** 0
110 C 1.0692 -3.79713 9.84032 C.3 0 **** 0
111 O 2.4896 2.47324 4.03868 O.3 0 **** 0
112 O -0.582074 -1.90222 2.66167 O.3 0 **** 0
113 O 2.92277 1.37965 6.27192 O.2 0 **** 0
114 O -0.0569463 -2.90874 4.87774 O.2 0 **** 0
115 H -0.154879 -3.11408 7.48017 H 0 **** 0
116 H 1.35957 -3.83217 7.04077 H 0 **** 0
117 H 3.64701 -0.487966 8.16359 H 0 **** 0
118 H 2.27423 0.449048 8.6535 H 0 **** 0
119 H 3.72331 -1.56904 10.6886 H 0 **** 0
120 H 2.48796 -0.33599 10.908 H 0 **** 0
121 H 0.893152 -1.92369 11.8193 H 0 **** 0
122 H 2.43251 -2.24586 12.6392 H 0 **** 0
123 H 1.40906 -4.4048 11.9007 H 0 **** 0
124 H 2.88706 -4.09598 10.971 H 0 **** 0
125 H -0.0165758 -3.73978 10.0471 H 0 **** 0
126 H 1.22077 -4.77308 9.34648 H 0 **** 0
127 H 2.8396 2.27653 4.98125 H 0 **** 0
128 H -0.506748 -2.52867 3.47957 H 0 **** 0
129 H -20.4985 6.38151 1.23863 H 0 **** 0
130 H -21.4458 6.59458 -0.253591 H 0 **** 0
131 H -19.7774 4.41185 0.00363563 H 0 **** 0
132 H -19.8168 5.28529 -1.54068 H 0 **** 0
133 H -19.8432 8.23511 -1.10955 H 0 **** 0
134 H -19.7827 8.59878 0.629326 H 0 **** 0
135 H -16.9921 4.07034 -0.439941 H 0 **** 0
136 H -14.5339 4.07241 -0.268764 H 0 **** 0
137 H -14.5458 9.03381 0.381958 H 0 **** 0
138 H -12.1508 9.01537 0.572271 H 0 **** 0
139 H -12.062 4.06154 -0.0932168 H 0 **** 0
140 H -7.1709 8.95504 1.12395 H 0 **** 0
141 H -4.24046 8.24119 0.461748 H 0 **** 0
142 H -4.47529 7.9933 2.19913 H 0 **** 0
143 H -1.84176 6.73179 1.56862 H 0 **** 0
144 H -5.05622 3.05231 0.384881 H 0 **** 0
145 H -3.19226 1.44604 0.386326 H 0 **** 0
146 H -0.016742 5.07085 1.73572 H 0 **** 0
147 H 1.81372 3.25553 1.85481 H 0 **** 0
148 H 2.77765 -3.5047 -0.933623 H 0 **** 0
149 H 2.15181 -3.47697 -2.56918 H 0 **** 0
150 H 0.760717 -2.60471 -0.0262771 H 0 **** 0
151 H 0.139501 -3.50078 -1.42522 H 0 **** 0
152 H -0.795695 -1.18526 -1.51793 H 0 **** 0
153 H 0.400762 -1.35077 -2.79304 H 0 **** 0
154 H 5.12249 1.45437 -2.96569 H 0 **** 0
155 H 4.72342 -3.75108 -1.77887 H 0 **** 0
156 H 4.06019 -3.73665 -3.38297 H 0 **** 0
157 H 6.45703 -0.318662 -4.4375 H 0 **** 0
158 H 7.14619 -0.268093 -2.83556 H 0 **** 0
159 H 5.43978 -5.71406 -2.08073 H 0 **** 0
160 H 4.8162 -5.72385 -3.70682 H 0 **** 0
161 H 8.8175 -6.34147 -5.25329 H 0 **** 0
162 H 9.45999 -6.3241 -3.63126 H 0 **** 0
163 H 9.09584 -8.8443 -4.37202 H 0 **** 0
164 H 3.76102 -7.26593 -2.36087 H 0 **** 0
165 H 2.4906 -9.30724 -1.84326 H 0 **** 0
166 H 5.83815 -11.7407 -3.07443 H 0 **** 0
167 H 10.6771 -4.57804 -4.04049 H 0 **** 0
168 H 10.1028 -4.65883 -5.67986 H 0 **** 0
169 H 8.52762 -0.605664 -5.22101 H 0 **** 0
170 H 9.15289 -0.575195 -3.59301 H 0 **** 0
171 H 10.8297 0.625348 -5.23915 H 0 **** 0
172 H 12.4658 -4.97428 -4.9685 H 0 **** 0
173 H 12.3325 -4.80937 -6.71294 H 0 **** 0
174 H 14.6221 -5.47225 -6.19295 H 0 **** 0
175 H 14.7842 -4.19015 -4.97829 H 0 **** 0
176 H 14.3022 -3.68716 -7.97071 H 0 **** 0
177 H 15.8827 -3.4919 -7.17216 H 0 **** 0
178 H -17.867 9.68186 0.227083 H 0 **** 0
179 H -10.4608 9.63965 0.886242 H 0 **** 0
180 H -1.17759 -1.50304 0.428351 H 0 **** 0
181 H -2.10773 -0.225274 -0.42483 H 0 **** 0
182 H -2.28546 -0.467001 1.32417 H 0 **** 0
183 H 1.97088 4.3002 0.258664 H 0 **** 0
184 H 12.7192 1.34861 -6.05615 H 0 **** 0
185 H 3.82985 -12.8221 -2.29555 H 0 **** 0
186 H 2.33701 -11.9309 -2.69352 H 0 **** 0
187 H 2.96038 -11.9063 -1.03565 H 0 **** 0
188 H -9.60117 4.03429 0.0964872 H 0 **** 0
@<TRIPOS>BOND
1 3 2 1
2 4 3 am
3 5 4 1
4 1 2 1
5 1 5 1
6 7 6 am
7 8 7 am
8 9 8 am
9 4 6 am
10 3 9 am
11 11 10 am
12 12 11 un
13 13 12 am
14 8 10 am
15 7 13 am
16 15 14 un
17 16 15 un
18 17 16 un
19 12 14 un
20 11 17 un
21 19 18 un
22 20 19 un
23 21 20 un
24 16 18 un
25 15 21 un
26 23 22 un
27 24 23 un
28 25 24 un
29 20 22 un
30 19 25 un
31 27 26 am
32 28 27 1
33 24 26 1
34 23 28 1
35 30 29 am
36 31 30 am
37 32 31 am
38 27 29 am
39 26 32 am
40 34 33 am
41 35 34 am
42 36 35 am
43 31 33 am
44 30 36 am
45 38 37 1
46 39 38 1
47 40 39 1
48 35 37 1
49 34 40 1
50 38 41 2
51 41 42 1
52 42 43 1
53 43 44 un
54 44 45 1
55 39 45 2
56 47 46 1
57 48 47 1
58 49 48 1
59 44 46 un
60 45 49 1
61 51 50 un
62 52 51 un
63 46 52 un
64 43 50 un
65 54 53 1
66 55 54 am
67 56 55 1
68 52 53 1
69 51 56 1
70 58 57 am
71 59 58 am
72 60 59 am
73 55 57 am
74 54 60 am
75 62 61 1
76 63 62 am
77 64 63 1
78 60 61 1
79 59 64 1
80 66 65 am
81 67 66 am
82 68 67 am
83 63 65 am
84 62 68 am
85 70 69 am
86 71 70 am
87 72 71 am
88 68 69 am
89 67 72 am
90 74 73 1
91 75 74 am
92 76 75 1
93 58 73 1
94 57 76 1
95 78 77 am
96 79 78 am
97 80 79 am
98 75 77 am
99 74 80 am
100 82 81 1
101 83 82 1
102 84 83 1
103 80 81 1
104 79 84 1
105 6 85 1
106 21 86 1
107 40 87 1
108 41 88 1
109 42 89 2
110 78 90 1
111 84 91 2
112 71 92 1
113 95 94 un
114 96 95 un
115 97 96 un
116 98 97 un
117 93 94 un
118 93 98 un
119 100 99 1
120 101 100 am
121 102 101 1
122 97 99 1
123 96 102 1
124 104 103 1
125 105 104 2
126 106 105 1
127 101 103 1
128 100 106 1
129 108 107 1
130 109 108 1
131 110 109 1
132 105 107 1
133 104 110 1
134 98 111 1
135 95 112 1
136 99 113 2
137 102 114 2
138 103 115 1
139 103 116 1
140 106 117 1
141 106 118 1
142 107 119 1
143 107 120 1
144 108 121 1
145 108 122 1
146 109 123 1
147 109 124 1
148 110 125 1
149 110 126 1
150 111 127 1
151 112 128 1
152 40 94 1
153 37 93 1
154 1 129 1
155 1 130 1
156 2 131 1
157 2 132 1
158 5 133 1
159 5 134 1
160 9 135 1
161 10 136 1
162 13 137 1
163 14 138 1
164 17 139 1
165 22 140 1
166 28 141 1
167 28 142 1
168 29 143 1
169 32 144 1
170 33 145 1
171 36 146 1
172 37 147 1
173 47 148 1
174 47 149 1
175 48 150 1
176 48 151 1
177 49 152 1
178 49 153 1
179 50 154 1
180 53 155 1
181 53 156 1
182 56 157 1
183 56 158 1
184 61 159 1
185 61 160 1
186 64 161 1
187 64 162 1
188 65 163 1
189 69 164 1
190 70 165 1
191 72 166 1
192 73 167 1
193 73 168 1
194 76 169 1
195 76 170 1
196 77 171 1
197 81 172 1
198 81 173 1
199 82 174 1
200 82 175 1
201 83 176 1
202 83 177 1
203 85 178 1
204 86 179 1
205 87 180 1
206 87 181 1
207 87 182 1
208 88 183 1
209 90 184 1
210 92 185 1
211 92 186 1
212 92 187 1
213 18 188 1
