# Mol2 file generated by Materials Studio
@<TRIPOS>MOLECULE
"Given1"
130 142 0 0 0 
SMALL
USER_CHARGES


@<TRIPOS>ATOM
1 C -8.96237 -3.16977 -0.319371 C.ar 0 **** 0
2 C -8.27772 -4.2805 0.207517 C.ar 0 **** 0
3 C -6.88732 -4.2073 0.42256 C.ar 0 **** 0
4 C -6.19924 -3.02805 0.128267 C.ar 0 **** 0
5 C -6.88662 -1.8936 -0.348189 C.ar 0 **** 0
6 C -8.27694 -1.95701 -0.551957 C.ar 0 **** 0
7 C -4.71413 -2.92611 0.316943 C.3 0 **** 0
8 C -3.98899 -4.18438 0.694489 C.ar 0 **** 0
9 C -4.65646 -5.34778 1.00599 C.ar 0 **** 0
10 C -6.16141 -5.40991 0.973411 C.3 0 **** 0
11 C -3.92622 -6.54015 1.33455 C.ar 0 **** 0
12 C -2.53577 -6.56654 1.29549 C.ar 0 **** 0
13 C -1.82306 -5.34565 1.03367 C.ar 0 **** 0
14 C -2.56092 -4.14825 0.728009 C.ar 0 **** 0
15 C -1.89553 -2.93105 0.517079 C.ar 0 **** 0
16 C -0.506398 -2.83577 0.453081 C.ar 0 **** 0
17 C 0.253003 -4.05695 0.5866 C.ar 0 **** 0
18 C -0.413049 -5.21178 1.06756 C.ar 0 **** 0
19 C 1.62358 -4.05528 0.165753 C.2 0 **** 0
20 C 2.28177 -2.86169 -0.0985547 C.2 0 **** 0
21 C 1.62413 -1.60598 0.130681 C.ar 0 **** 0
22 C 0.210682 -1.58214 0.315731 C.ar 0 **** 0
23 C 3.61319 -2.99714 -0.800271 C.3 0 **** 0
24 C 3.42413 -3.90066 -2.0353 C.ar 0 **** 0
25 C 2.99808 -5.32627 -1.59833 C.ar 0 **** 0
26 C 2.39115 -5.31335 -0.168561 C.3 0 **** 0
27 C -0.44695 -0.299936 0.400172 C.ar 0 **** 0
28 C 0.297702 0.903183 0.358248 C.ar 0 **** 0
29 C 1.70793 0.87642 0.254665 C.ar 0 **** 0
30 C 2.3708 -0.366258 0.171895 C.ar 0 **** 0
31 C 2.48988 2.09731 0.231399 C.2 0 **** 0
32 C 1.77295 3.38682 0.314222 C.ar 0 **** 0
33 C 0.394624 3.38984 0.399458 C.ar 0 **** 0
34 C -0.387322 2.16326 0.443608 C.2 0 **** 0
35 C -0.35112 4.6893 0.490516 C.3 0 **** 0
36 C 0.320531 5.75197 -0.374793 C.3 0 **** 0
37 C 1.78367 5.859 -0.0369721 C.ar 0 **** 0
38 C 2.49108 4.67954 0.302966 C.ar 0 **** 0
39 N 3.79899 4.68389 0.596806 N.ar 0 **** 0
40 C 4.47709 5.83401 0.520685 C.ar 0 **** 0
41 C 3.86169 7.06256 0.198742 C.ar 0 **** 0
42 C 2.48548 7.07524 -0.0698515 C.ar 0 **** 0
43 C 1.77902 8.3681 -0.4169 C.3 0 **** 0
44 C 2.59557 9.62297 -0.0892574 C.3 0 **** 0
45 C 4.04205 9.46173 -0.55416 C.3 0 **** 0
46 C 4.71042 8.31282 0.200085 C.3 0 **** 0
47 C 6.11117 8.01428 -0.33762 C.3 0 **** 0
48 C 6.75726 6.84115 0.356861 C.ar 0 **** 0
49 C 5.92814 5.78055 0.777965 C.ar 0 **** 0
50 C 6.50071 4.65418 1.38404 C.ar 0 **** 0
51 C 7.87577 4.59771 1.57417 C.ar 0 **** 0
52 C 8.71841 5.63913 1.15419 C.ar 0 **** 0
53 C 8.15244 6.76868 0.525876 C.ar 0 **** 0
54 C -9.03665 -0.744239 -1.04705 C.3 0 **** 0
55 C -8.9785 -0.606235 -2.57659 C.3 0 **** 0
56 C -10.4381 -3.28317 -0.638601 C.3 0 **** 0
57 C -6.08387 -0.647569 -0.639598 C.3 0 **** 0
58 C -9.02979 -5.55036 0.537049 C.3 0 **** 0
59 C -4.70399 -7.78886 1.68606 C.3 0 **** 0
60 C -1.8087 -7.88706 1.42015 C.3 0 **** 0
61 O 0.313387 -6.23099 1.64167 O.3 0 **** 0
62 C 4.12893 -6.35977 -1.61617 C.3 0 **** 0
63 C 4.65644 -3.85577 -2.94194 C.3 0 **** 0
64 O 3.69759 -0.389193 0.166661 O.3 0 **** 0
65 O -1.76822 -0.203437 0.521021 O.3 0 **** 0
66 O -1.66344 2.22552 0.567954 O.2 0 **** 0
67 O 3.75513 2.03075 0.121255 O.2 0 **** 0
68 C 9.02439 7.89423 0.0192485 C.3 0 **** 0
69 C 10.2058 5.51829 1.37507 C.3 0 **** 0
70 H -4.26332 -2.53086 -0.610149 H 0 **** 0
71 H -4.49509 -2.14255 1.06834 H 0 **** 0
72 H -6.52927 -5.60622 1.99972 H 0 **** 0
73 H -6.46339 -6.30582 0.404756 H 0 **** 0
74 H -2.47598 -2.02898 0.412798 H 0 **** 0
75 H 4.01085 -2.03049 -1.11008 H 0 **** 0
76 H 4.36773 -3.44932 -0.130099 H 0 **** 0
77 H 2.58262 -3.46625 -2.59966 H 0 **** 0
78 H 2.21058 -5.67203 -2.28639 H 0 **** 0
79 H 3.23805 -5.40463 0.539051 H 0 **** 0
80 H 1.78237 -6.2166 -0.0650828 H 0 **** 0
81 H -1.40001 4.53271 0.208724 H 0 **** 0
82 H -0.351697 5.01864 1.54663 H 0 **** 0
83 H -0.192448 6.71358 -0.249716 H 0 **** 0
84 H 0.21277 5.47512 -1.4407 H 0 **** 0
85 H 1.53795 8.35613 -1.4952 H 0 **** 0
86 H 0.809705 8.41392 0.10327 H 0 **** 0
87 H 2.5887 9.78949 1.00093 H 0 **** 0
88 H 2.1236 10.5027 -0.55236 H 0 **** 0
89 H 4.61549 10.3897 -0.401075 H 0 **** 0
90 H 4.06186 9.24026 -1.63588 H 0 **** 0
91 H 4.82719 8.62127 1.25865 H 0 **** 0
92 H 6.03636 7.80303 -1.42217 H 0 **** 0
93 H 6.72623 8.91967 -0.240611 H 0 **** 0
94 H 5.84946 3.83155 1.67932 H 0 **** 0
95 H 8.32103 3.72158 2.05068 H 0 **** 0
96 H -8.63317 0.166565 -0.580624 H 0 **** 0
97 H -10.0853 -0.797762 -0.723802 H 0 **** 0
98 H -9.38533 -1.50751 -3.06016 H 0 **** 0
99 H -7.93767 -0.493506 -2.91485 H 0 **** 0
100 H -9.55412 0.265351 -2.9251 H 0 **** 0
101 H -10.7157 -4.31407 -0.89262 H 0 **** 0
102 H -10.7169 -2.65096 -1.49162 H 0 **** 0
103 H -11.0667 -2.97565 0.21548 H 0 **** 0
104 H -5.32173 -0.84679 -1.41105 H 0 **** 0
105 H -5.53157 -0.309191 0.252483 H 0 **** 0
106 H -6.69755 0.186455 -0.99505 H 0 **** 0
107 H -8.51493 -6.14437 1.30241 H 0 **** 0
108 H -9.14529 -6.196 -0.3516 H 0 **** 0
109 H -10.0393 -5.3341 0.911812 H 0 **** 0
110 H -4.15623 -8.41987 2.39727 H 0 **** 0
111 H -4.91507 -8.40317 0.792945 H 0 **** 0
112 H -5.67116 -7.54444 2.14213 H 0 **** 0
113 H -0.969176 -7.93572 0.716668 H 0 **** 0
114 H -2.47764 -8.72709 1.20157 H 0 **** 0
115 H -1.38399 -8.03662 2.42523 H 0 **** 0
116 H 1.20569 -5.89767 1.82711 H 0 **** 0
117 H 4.52558 -6.51949 -2.62826 H 0 **** 0
118 H 3.76768 -7.32702 -1.23406 H 0 **** 0
119 H 4.96168 -6.03563 -0.971627 H 0 **** 0
120 H 4.84524 -2.8245 -3.27523 H 0 **** 0
121 H 4.52116 -4.48386 -3.83547 H 0 **** 0
122 H 5.55475 -4.20916 -2.414 H 0 **** 0
123 H 3.96265 0.647719 0.147403 H 0 **** 0
124 H -1.95955 0.842695 0.562916 H 0 **** 0
125 H 8.76887 8.15948 -1.01799 H 0 **** 0
126 H 10.0887 7.63399 0.0474482 H 0 **** 0
127 H 8.88931 8.80782 0.623157 H 0 **** 0
128 H 10.7576 5.51968 0.420724 H 0 **** 0
129 H 10.4448 4.58422 1.9013 H 0 **** 0
130 H 10.597 6.3581 1.97137 H 0 **** 0
@<TRIPOS>BOND
1 3 2 am
2 4 3 am
3 5 4 am
4 6 5 am
5 1 2 am
6 1 6 am
7 8 7 1
8 9 8 am
9 10 9 1
10 4 7 1
11 3 10 1
12 12 11 am
13 13 12 am
14 14 13 am
15 9 11 am
16 8 14 am
17 16 15 am
18 17 16 am
19 18 17 am
20 14 15 am
21 13 18 am
22 20 19 1
23 21 20 1
24 22 21 am
25 17 19 1
26 16 22 am
27 24 23 1
28 25 24 am
29 26 25 1
30 20 23 1
31 19 26 1
32 28 27 am
33 29 28 am
34 30 29 am
35 22 27 am
36 21 30 am
37 32 31 1
38 33 32 am
39 34 33 1
40 29 31 1
41 28 34 1
42 36 35 1
43 37 36 1
44 38 37 am
45 33 35 1
46 32 38 am
47 40 39 am
48 41 40 am
49 42 41 am
50 38 39 am
51 37 42 am
52 44 43 1
53 45 44 1
54 46 45 1
55 42 43 1
56 41 46 1
57 48 47 1
58 49 48 am
59 40 49 am
60 46 47 1
61 51 50 am
62 52 51 am
63 53 52 am
64 49 50 am
65 48 53 am
66 6 54 1
67 54 55 1
68 1 56 1
69 5 57 1
70 2 58 1
71 11 59 1
72 12 60 1
73 18 61 1
74 25 62 1
75 24 63 1
76 30 64 1
77 27 65 1
78 34 66 2
79 31 67 2
80 53 68 1
81 52 69 1
82 7 70 1
83 7 71 1
84 10 72 1
85 10 73 1
86 15 74 1
87 23 75 1
88 23 76 1
89 24 77 1
90 25 78 1
91 26 79 1
92 26 80 1
93 35 81 1
94 35 82 1
95 36 83 1
96 36 84 1
97 43 85 1
98 43 86 1
99 44 87 1
100 44 88 1
101 45 89 1
102 45 90 1
103 46 91 1
104 47 92 1
105 47 93 1
106 50 94 1
107 51 95 1
108 54 96 1
109 54 97 1
110 55 98 1
111 55 99 1
112 55 100 1
113 56 101 1
114 56 102 1
115 56 103 1
116 57 104 1
117 57 105 1
118 57 106 1
119 58 107 1
120 58 108 1
121 58 109 1
122 59 110 1
123 59 111 1
124 59 112 1
125 60 113 1
126 60 114 1
127 60 115 1
128 61 116 1
129 62 117 1
130 62 118 1
131 62 119 1
132 63 120 1
133 63 121 1
134 63 122 1
135 64 123 1
136 65 124 1
137 68 125 1
138 68 126 1
139 68 127 1
140 69 128 1
141 69 129 1
142 69 130 1
